=
 OpenBabel11042416403D

 65 73  0  0  1  0  0  0  0  0999 V2000
  191.9470  173.0000  136.2270 C   0  0  1  0  0  3  0  0  0  0  0  0
  187.9390  174.1850  138.7620 C   0  0  0  0  0  2  0  0  0  0  0  0
  189.0560  173.2380  138.4790 C   0  0  0  0  0  0  0  0  0  0  0  0
  192.3630  171.8220  137.1270 C   0  0  1  0  0  3  0  0  0  0  0  0
  194.4930  172.0390  140.8140 C   0  0  2  0  0  3  0  0  0  0  0  0
  191.6410  173.9370  142.1230 O   0  0  0  0  0  0  0  0  0  0  0  0
  192.6010  173.6900  141.1360 C   0  0  0  0  0  0  0  0  0  0  0  0
  189.3020  173.2820  142.1750 C   0  0  0  0  0  2  0  0  0  0  0  0
  193.1080  172.1950  138.4180 C   0  0  1  0  0  3  0  0  0  0  0  0
  190.7370  172.9290  142.5710 C   0  0  2  0  0  3  0  0  0  0  0  0
  192.3430  171.8460  139.5580 O   0  0  0  0  0  0  0  0  0  0  0  0
  193.1740  174.6640  140.5790 O   0  0  0  0  0  0  0  0  0  0  0  0
  192.9750  172.2880  140.7520 C   0  0  1  0  0  3  0  0  0  0  0  0
  194.9090  171.0010  139.7690 C   0  0  0  0  0  2  0  0  0  0  0  0
  190.9230  173.9510  136.7980 C   0  0  0  0  0  3  0  0  0  0  0  0
  189.9660  173.5780  137.6090 C   0  0  0  0  0  0  0  0  0  0  0  0
  191.3000  170.9370  137.3450 O   0  0  0  0  0  1  0  0  0  0  0  0
  189.5430  172.6500  139.7420 C   0  0  0  0  0  2  0  0  0  0  0  0
  189.2590  173.7520  140.7300 C   0  0  1  0  0  3  0  0  0  0  0  0
  187.9340  174.3420  140.2820 C   0  0  1  0  0  3  0  0  0  0  0  0
  194.4600  171.4610  138.3880 C   0  0  0  0  0  2  0  0  0  0  0  0
  194.9190  171.7140  142.1870 N   0  0  2  0  0  0  0  0  0  0  0  0
  197.0580  174.5110  143.3850 C   0  0  0  0  0  2  0  0  0  0  0  0
  196.1160  172.4870  142.5400 C   0  0  2  0  0  3  0  0  0  0  0  0
  196.4420  172.2660  143.9900 C   0  0  2  0  0  3  0  0  0  0  0  0
  197.4660  173.3420  144.2870 C   0  0  2  0  0  3  0  0  0  0  0  0
  195.9670  173.9900  142.4560 C   0  0  0  0  0  2  0  0  0  0  0  0
  195.2800  170.2860  142.2780 C   0  0  0  0  0  2  0  0  0  0  0  0
  195.7440  169.9120  143.6970 C   0  0  0  0  0  2  0  0  0  0  0  0
  197.1950  170.5130  145.6170 C   0  0  0  0  0  1  0  0  0  0  0  0
  196.8910  170.8160  144.1610 C   0  0  2  0  0  3  0  0  0  0  0  0
  197.3830  173.7570  145.7470 C   0  0  0  0  0  2  0  0  0  0  0  0
  195.7680  174.5150  146.0920 S   0  0  0  0  0  1  0  0  0  0  0  0
  187.8250  175.7840  140.6580 C   0  0  0  0  0  0  0  0  0  0  0  0
  187.4450  178.4460  141.7700 O   0  0  0  0  0  0  0  0  0  0  0  0
  187.5240  177.4610  142.5500 C   0  0  0  0  0  0  0  0  0  0  0  0
  187.8080  176.6750  139.7640 O   0  0  0  0  0  0  0  0  0  0  0  0
  187.7160  176.1330  142.0420 N   0  0  0  0  0  2  0  0  0  0  0  0
  187.8840  177.5620  147.0470 O   0  0  0  0  0  0  0  0  0  0  0  0
  187.3970  177.6880  144.0270 C   0  0  2  0  0  3  0  0  0  0  0  0
  187.5710  176.5230  146.1310 C   0  0  2  0  0  3  0  0  0  0  0  0
  186.5000  179.4030  146.3620 C   0  0  0  0  0  2  0  0  0  0  0  0
  185.5520  179.0030  145.2070 C   0  0  2  0  0  0  0  0  0  0  0  0
  188.2900  176.7560  144.8200 C   0  0  0  0  0  2  0  0  0  0  0  0
  185.5730  177.1730  147.1120 C   0  0  2  0  0  3  0  0  0  0  0  0
  186.0900  176.5860  145.8140 C   0  0  1  0  0  3  0  0  0  0  0  0
  185.9740  177.6040  144.6350 C   0  0  2  0  0  0  0  0  0  0  0  0
  185.5330  180.0920  144.1440 C   0  0  0  0  0  1  0  0  0  0  0  0
  184.1750  177.8040  146.9470 C   0  0  0  0  0  2  0  0  0  0  0  0
  184.1620  178.8770  145.8420 C   0  0  0  0  0  2  0  0  0  0  0  0
  186.6680  178.2130  147.3500 C   0  0  1  0  0  3  0  0  0  0  0  0
  184.9310  177.0690  143.6480 C   0  0  0  0  0  1  0  0  0  0  0  0
  193.9820  173.1760  135.0200 O   0  0  0  0  0  0  0  0  0  0  0  0
  193.1530  173.7420  135.7210 C   0  0  0  0  0  0  0  0  0  0  0  0
  193.8050  175.8550  134.8780 O   0  0  0  0  0  1  0  0  0  0  0  0
  193.2850  175.2080  136.0020 C   0  0  2  0  0  3  0  0  0  0  0  0
  194.1960  175.4540  137.1950 C   0  0  0  0  0  2  0  0  0  0  0  0
  195.6180  174.9870  136.8990 C   0  0  1  0  0  3  0  0  0  0  0  0
  196.3630  176.0640  136.4110 O   0  0  0  0  0  1  0  0  0  0  0  0
  196.4540  175.4550  139.0960 O   0  0  0  0  0  1  0  0  0  0  0  0
  196.2750  174.4290  138.1630 C   0  0  2  0  0  3  0  0  0  0  0  0
  197.4790  172.6590  137.0950 O   0  0  0  0  0  1  0  0  0  0  0  0
  197.6370  173.8220  137.8520 C   0  0  0  0  0  2  0  0  0  0  0  0
  190.8280  172.7860  144.0540 C   0  0  0  0  0  3  0  0  0  0  0  0
  190.0080  173.3260  144.7750 O   0  0  0  0  0  0  0  0  0  0  0  0
  1 54  1  1  0  0  0
  1 15  1  0  0  0  0
  1  4  1  0  0  0  0
  2 20  1  0  0  0  0
  3  2  1  0  0  0  0
  3 18  1  0  0  0  0
  4 17  1  1  0  0  0
  4  9  1  0  0  0  0
  5 14  1  6  0  0  0
  5 22  1  0  0  0  0
  6 10  1  0  0  0  0
  7  6  1  0  0  0  0
  8 10  1  0  0  0  0
  9 21  1  1  0  0  0
  9 11  1  0  0  0  0
 10 64  1  1  0  0  0
 12  7  2  0  0  0  0
 13 11  1  6  0  0  0
 13  5  1  0  0  0  0
 13  7  1  0  0  0  0
 15 16  2  0  0  0  0
 16  3  2  0  0  0  0
 19 18  1  6  0  0  0
 19  8  1  0  0  0  0
 20 34  1  6  0  0  0
 20 19  1  0  0  0  0
 21 14  1  0  0  0  0
 22 28  1  6  0  0  0
 22 24  1  0  0  0  0
 23 26  1  0  0  0  0
 24 27  1  1  0  0  0
 24 25  1  0  0  0  0
 25 31  1  0  0  0  0
 25 26  1  0  0  0  0
 26 32  1  0  0  0  0
 27 23  1  0  0  0  0
 28 29  1  0  0  0  0
 29 31  1  0  0  0  0
 31 30  1  0  0  0  0
 32 33  1  0  0  0  0
 34 38  1  0  0  0  0
 35 36  2  0  0  0  0
 36 40  1  0  0  0  0
 37 34  2  0  0  0  0
 38 36  1  0  0  0  0
 39 51  1  0  0  0  0
 40 47  1  0  0  0  0
 40 44  1  0  0  0  0
 41 39  1  0  0  0  0
 42 51  1  0  0  0  0
 43 50  1  0  0  0  0
 43 42  1  0  0  0  0
 44 41  1  0  0  0  0
 45 51  1  0  0  0  0
 46 41  1  0  0  0  0
 46 45  1  0  0  0  0
 47 43  1  0  0  0  0
 47 46  1  0  0  0  0
 48 43  1  0  0  0  0
 49 45  1  0  0  0  0
 50 49  1  0  0  0  0
 52 47  1  0  0  0  0
 53 54  2  0  0  0  0
 54 56  1  0  0  0  0
 55 56  1  0  0  0  0
 56 57  1  0  0  0  0
 58 57  1  0  0  0  0
 58 61  1  0  0  0  0
 59 58  1  0  0  0  0
 61 60  1  0  0  0  0
 62 63  1  0  0  0  0
 63 61  1  0  0  0  0
 64 65  2  0  0  0  0
M  END
>  <MODEL>
1

>  <REMARK>
 VINA RESULT:      -7.8      0.000      0.000
  Name = 
  11 active torsions:
  status: ('A' for Active; 'I' for Inactive)
    1  A    between atoms: N_2  and  C_17
    2  A    between atoms: C_3  and  C_35
    3  A    between atoms: C_6  and  C_9
    4  A    between atoms: C_9  and  C_52
    5  A    between atoms: C_10  and  C_58
    6  A    between atoms: C_15  and  C_28
    7  A    between atoms: C_29  and  C_32
    8  A    between atoms: C_40  and  C_53
    9  A    between atoms: C_43  and  C_53
   10  A    between atoms: C_43  and  C_65
   11  A    between atoms: C_52  and  C_65
                            x       y       z     vdW  Elec       q    Type
                         _______ _______ _______ _____ _____    ______ ____

>  <TORSDO>
F 11

$$$$
=
 OpenBabel11042416403D

 65 73  0  0  1  0  0  0  0  0999 V2000
  191.4910  171.6920  136.6600 C   0  0  1  0  0  3  0  0  0  0  0  0
  188.0510  173.2380  139.7690 C   0  0  0  0  0  2  0  0  0  0  0  0
  189.1200  172.2640  139.4040 C   0  0  0  0  0  0  0  0  0  0  0  0
  192.1260  170.6700  137.6190 C   0  0  1  0  0  3  0  0  0  0  0  0
  194.9610  171.4630  140.7040 C   0  0  2  0  0  3  0  0  0  0  0  0
  192.3720  173.5280  142.2800 O   0  0  0  0  0  0  0  0  0  0  0  0
  193.1160  173.1360  141.1620 C   0  0  0  0  0  0  0  0  0  0  0  0
  190.1190  172.8790  142.9170 C   0  0  0  0  0  2  0  0  0  0  0  0
  193.1070  171.2410  138.6550 C   0  0  1  0  0  3  0  0  0  0  0  0
  191.6170  172.5970  143.0540 C   0  0  2  0  0  3  0  0  0  0  0  0
  192.6070  171.0680  139.9690 O   0  0  0  0  0  0  0  0  0  0  0  0
  193.5270  174.0140  140.3580 O   0  0  0  0  0  0  0  0  0  0  0  0
  193.4540  171.6920  140.9230 C   0  0  1  0  0  3  0  0  0  0  0  0
  195.1900  170.2770  139.7630 C   0  0  0  0  0  2  0  0  0  0  0  0
  190.5730  172.7160  137.2830 C   0  0  0  0  0  3  0  0  0  0  0  0
  189.8170  172.4680  138.3220 C   0  0  0  0  0  0  0  0  0  0  0  0
  191.1640  169.8240  138.1850 O   0  0  0  0  0  1  0  0  0  0  0  0
  189.8770  171.8790  140.6110 C   0  0  0  0  0  2  0  0  0  0  0  0
  189.7620  173.1200  141.4600 C   0  0  1  0  0  3  0  0  0  0  0  0
  188.3530  173.6270  141.2160 C   0  0  1  0  0  3  0  0  0  0  0  0
  194.4490  170.5170  138.4530 C   0  0  0  0  0  2  0  0  0  0  0  0
  195.6710  171.3550  141.9900 N   0  0  2  0  0  0  0  0  0  0  0  0
  193.9920  168.6950  143.9750 C   0  0  0  0  0  2  0  0  0  0  0  0
  194.8110  170.7100  142.9890 C   0  0  2  0  0  3  0  0  0  0  0  0
  195.6020  170.4620  144.2430 C   0  0  2  0  0  3  0  0  0  0  0  0
  194.7150  169.5270  145.0390 C   0  0  2  0  0  3  0  0  0  0  0  0
  194.3200  169.3260  142.6250 C   0  0  0  0  0  2  0  0  0  0  0  0
  195.9970  172.7010  142.5010 C   0  0  0  0  0  2  0  0  0  0  0  0
  196.7300  172.6280  143.8530 C   0  0  0  0  0  2  0  0  0  0  0  0
  196.7660  171.6370  146.1260 C   0  0  0  0  0  1  0  0  0  0  0  0
  195.9280  171.8140  144.8740 C   0  0  2  0  0  3  0  0  0  0  0  0
  195.5610  168.6240  145.9200 C   0  0  0  0  0  2  0  0  0  0  0  0
  194.8810  168.5770  147.6050 S   0  0  0  0  0  1  0  0  0  0  0  0
  188.2710  175.1100  141.3850 C   0  0  0  0  0  0  0  0  0  0  0  0
  187.8880  177.9080  142.0840 O   0  0  0  0  0  0  0  0  0  0  0  0
  187.8100  177.0340  142.9870 C   0  0  0  0  0  0  0  0  0  0  0  0
  188.4200  175.8730  140.3910 O   0  0  0  0  0  0  0  0  0  0  0  0
  187.9980  175.6440  142.6850 N   0  0  0  0  0  2  0  0  0  0  0  0
  187.5800  177.7310  147.4390 O   0  0  0  0  0  0  0  0  0  0  0  0
  187.5000  177.4610  144.3910 C   0  0  2  0  0  3  0  0  0  0  0  0
  187.3460  176.5870  146.6320 C   0  0  2  0  0  3  0  0  0  0  0  0
  186.3800  179.4970  146.3390 C   0  0  0  0  0  2  0  0  0  0  0  0
  185.5750  178.9700  145.1280 C   0  0  2  0  0  0  0  0  0  0  0  0
  188.2400  176.6230  145.4120 C   0  0  0  0  0  2  0  0  0  0  0  0
  185.2660  177.4130  147.2400 C   0  0  2  0  0  3  0  0  0  0  0  0
  185.9230  176.6430  146.1110 C   0  0  1  0  0  3  0  0  0  0  0  0
  186.0080  177.4960  144.8050 C   0  0  2  0  0  0  0  0  0  0  0  0
  185.7430  179.9060  143.9400 C   0  0  0  0  0  1  0  0  0  0  0  0
  183.9310  178.0520  146.8060 C   0  0  0  0  0  2  0  0  0  0  0  0
  184.1090  178.9660  145.5790 C   0  0  0  0  0  2  0  0  0  0  0  0
  186.3640  178.4470  147.4870 C   0  0  1  0  0  3  0  0  0  0  0  0
  185.0810  176.8600  143.7640 C   0  0  0  0  0  1  0  0  0  0  0  0
  193.1230  171.7190  134.9380 O   0  0  0  0  0  0  0  0  0  0  0  0
  192.5390  172.3530  135.8070 C   0  0  0  0  0  0  0  0  0  0  0  0
  192.0070  174.5340  135.0570 O   0  0  0  0  0  1  0  0  0  0  0  0
  192.7960  173.8210  135.9640 C   0  0  2  0  0  3  0  0  0  0  0  0
  194.2630  174.1460  135.7240 C   0  0  0  0  0  2  0  0  0  0  0  0
  195.1050  173.7990  136.9480 C   0  0  1  0  0  3  0  0  0  0  0  0
  196.0930  172.8820  136.5800 O   0  0  0  0  0  1  0  0  0  0  0  0
  196.5540  175.6680  136.5640 O   0  0  0  0  0  1  0  0  0  0  0  0
  195.7510  175.0560  137.5310 C   0  0  2  0  0  3  0  0  0  0  0  0
  197.6820  175.6260  138.8210 O   0  0  0  0  0  1  0  0  0  0  0  0
  196.6230  174.7210  138.7340 C   0  0  0  0  0  2  0  0  0  0  0  0
  192.0170  172.6850  144.4890 C   0  0  0  0  0  3  0  0  0  0  0  0
  192.9530  173.3910  144.8230 O   0  0  0  0  0  0  0  0  0  0  0  0
  1 54  1  1  0  0  0
  1 15  1  0  0  0  0
  1  4  1  0  0  0  0
  2 20  1  0  0  0  0
  3  2  1  0  0  0  0
  3 18  1  0  0  0  0
  4 17  1  1  0  0  0
  4  9  1  0  0  0  0
  5 14  1  6  0  0  0
  5 13  1  0  0  0  0
  5 22  1  0  0  0  0
  6 10  1  0  0  0  0
  7  6  1  0  0  0  0
  8 10  1  0  0  0  0
  9 21  1  1  0  0  0
  9 11  1  0  0  0  0
 10 64  1  1  0  0  0
 12  7  2  0  0  0  0
 13 11  1  6  0  0  0
 13  7  1  0  0  0  0
 15 16  2  0  0  0  0
 16  3  2  0  0  0  0
 19 18  1  6  0  0  0
 19  8  1  0  0  0  0
 20 34  1  6  0  0  0
 20 19  1  0  0  0  0
 21 14  1  0  0  0  0
 22 28  1  1  0  0  0
 22 24  1  0  0  0  0
 23 26  1  0  0  0  0
 24 27  1  6  0  0  0
 24 25  1  0  0  0  0
 25 31  1  0  0  0  0
 25 26  1  0  0  0  0
 26 32  1  0  0  0  0
 27 23  1  0  0  0  0
 28 29  1  0  0  0  0
 29 31  1  0  0  0  0
 31 30  1  0  0  0  0
 32 33  1  0  0  0  0
 34 38  1  0  0  0  0
 35 36  2  0  0  0  0
 36 40  1  0  0  0  0
 37 34  2  0  0  0  0
 38 36  1  0  0  0  0
 39 51  1  0  0  0  0
 40 47  1  0  0  0  0
 40 44  1  0  0  0  0
 41 39  1  0  0  0  0
 42 51  1  0  0  0  0
 43 50  1  0  0  0  0
 43 42  1  0  0  0  0
 44 41  1  0  0  0  0
 45 51  1  0  0  0  0
 46 41  1  0  0  0  0
 46 45  1  0  0  0  0
 47 43  1  0  0  0  0
 47 46  1  0  0  0  0
 48 43  1  0  0  0  0
 49 45  1  0  0  0  0
 50 49  1  0  0  0  0
 52 47  1  0  0  0  0
 53 54  2  0  0  0  0
 54 56  1  0  0  0  0
 55 56  1  0  0  0  0
 57 56  1  0  0  0  0
 57 58  1  0  0  0  0
 58 61  1  0  0  0  0
 59 58  1  0  0  0  0
 60 61  1  0  0  0  0
 61 63  1  0  0  0  0
 63 62  1  0  0  0  0
 64 65  2  0  0  0  0
M  END
>  <MODEL>
2

>  <REMARK>
 VINA RESULT:      -7.4      1.326      2.078
  Name = 
  11 active torsions:
  status: ('A' for Active; 'I' for Inactive)
    1  A    between atoms: N_2  and  C_17
    2  A    between atoms: C_3  and  C_35
    3  A    between atoms: C_6  and  C_9
    4  A    between atoms: C_9  and  C_52
    5  A    between atoms: C_10  and  C_58
    6  A    between atoms: C_15  and  C_28
    7  A    between atoms: C_29  and  C_32
    8  A    between atoms: C_40  and  C_53
    9  A    between atoms: C_43  and  C_53
   10  A    between atoms: C_43  and  C_65
   11  A    between atoms: C_52  and  C_65
                            x       y       z     vdW  Elec       q    Type
                         _______ _______ _______ _____ _____    ______ ____

>  <TORSDO>
F 11

$$$$
=
 OpenBabel11042416403D

 65 73  0  0  1  0  0  0  0  0999 V2000
  195.0890  174.4380  144.9230 C   0  0  1  0  0  3  0  0  0  0  0  0
  193.0050  170.1990  143.6630 C   0  0  0  0  0  2  0  0  0  0  0  0
  192.9550  171.4960  144.3980 C   0  0  0  0  0  0  0  0  0  0  0  0
  193.8230  175.0630  145.5360 C   0  0  1  0  0  3  0  0  0  0  0  0
  190.6470  176.9930  143.4470 C   0  0  2  0  0  3  0  0  0  0  0  0
  190.0330  173.7730  141.8030 O   0  0  0  0  0  0  0  0  0  0  0  0
  190.8960  174.7920  142.2230 C   0  0  0  0  0  0  0  0  0  0  0  0
  189.5960  171.6200  142.8410 C   0  0  0  0  0  2  0  0  0  0  0  0
  192.8280  175.6760  144.5390 C   0  0  1  0  0  3  0  0  0  0  0  0
  189.1740  173.0850  142.7100 C   0  0  2  0  0  3  0  0  0  0  0  0
  191.6010  174.9680  144.5530 O   0  0  0  0  0  0  0  0  0  0  0  0
  191.8230  175.1660  141.4570 O   0  0  0  0  0  0  0  0  0  0  0  0
  190.7160  175.4590  143.5560 C   0  0  1  0  0  3  0  0  0  0  0  0
  191.2190  177.6460  144.7080 C   0  0  0  0  0  2  0  0  0  0  0  0
  194.8830  173.2220  144.0510 C   0  0  0  0  0  3  0  0  0  0  0  0
  193.9380  172.3410  144.2560 C   0  0  0  0  0  0  0  0  0  0  0  0
  193.2140  174.2010  146.4560 O   0  0  0  0  0  1  0  0  0  0  0  0
  191.5920  172.0580  144.3250 C   0  0  0  0  0  2  0  0  0  0  0  0
  191.1040  171.5220  143.0030 C   0  0  1  0  0  3  0  0  0  0  0  0
  191.6720  170.1180  142.9200 C   0  0  1  0  0  3  0  0  0  0  0  0
  192.6430  177.1510  144.9350 C   0  0  0  0  0  2  0  0  0  0  0  0
  189.2830  177.4370  143.1070 N   0  0  2  0  0  0  0  0  0  0  0  0
  187.1420  176.8520  146.0930 C   0  0  0  0  0  2  0  0  0  0  0  0
  188.3100  176.8110  144.0100 C   0  0  2  0  0  3  0  0  0  0  0  0
  186.9480  177.3950  143.7570 C   0  0  2  0  0  3  0  0  0  0  0  0
  186.1340  176.9130  144.9400 C   0  0  2  0  0  3  0  0  0  0  0  0
  188.5220  177.0830  145.4830 C   0  0  0  0  0  2  0  0  0  0  0  0
  188.9410  177.0130  141.7360 C   0  0  0  0  0  2  0  0  0  0  0  0
  187.5160  177.4480  141.3510 C   0  0  0  0  0  2  0  0  0  0  0  0
  185.1330  177.5390  142.0340 C   0  0  0  0  0  1  0  0  0  0  0  0
  186.4890  176.9470  142.3720 C   0  0  2  0  0  3  0  0  0  0  0  0
  185.0350  177.9110  145.2630 C   0  0  0  0  0  2  0  0  0  0  0  0
  185.0510  178.3120  147.0350 S   0  0  0  0  0  1  0  0  0  0  0  0
  191.8900  169.7000  141.5010 C   0  0  0  0  0  0  0  0  0  0  0  0
  191.9870  169.1670  138.6430 O   0  0  0  0  0  0  0  0  0  0  0  0
  191.4730  170.2420  139.0490 C   0  0  0  0  0  0  0  0  0  0  0  0
  192.4700  168.6100  141.2410 O   0  0  0  0  0  0  0  0  0  0  0  0
  191.4110  170.5460  140.4500 N   0  0  0  0  0  2  0  0  0  0  0  0
  189.1100  172.4700  135.9160 O   0  0  0  0  0  0  0  0  0  0  0  0
  190.9060  171.2040  138.0470 C   0  0  2  0  0  3  0  0  0  0  0  0
  189.8500  171.2590  135.8810 C   0  0  2  0  0  3  0  0  0  0  0  0
  190.5690  174.0340  137.0100 C   0  0  0  0  0  2  0  0  0  0  0  0
  191.9550  173.4120  137.3020 C   0  0  2  0  0  0  0  0  0  0  0  0
  189.7940  170.5790  137.2320 C   0  0  0  0  0  2  0  0  0  0  0  0
  191.1550  172.8710  134.8430 C   0  0  2  0  0  3  0  0  0  0  0  0
  191.3100  171.5900  135.6380 C   0  0  1  0  0  3  0  0  0  0  0  0
  191.9010  171.8610  137.0580 C   0  0  2  0  0  0  0  0  0  0  0  0
  192.4040  173.7700  138.7110 C   0  0  0  0  0  1  0  0  0  0  0  0
  192.4450  173.7160  134.8470 C   0  0  0  0  0  2  0  0  0  0  0  0
  192.9100  174.0390  136.2790 C   0  0  0  0  0  2  0  0  0  0  0  0
  190.0250  173.5110  135.6490 C   0  0  1  0  0  3  0  0  0  0  0  0
  193.3010  171.2410  137.1150 C   0  0  0  0  0  1  0  0  0  0  0  0
  195.7840  176.6640  144.4870 O   0  0  0  0  0  0  0  0  0  0  0  0
  195.9140  175.4770  144.2160 C   0  0  0  0  0  0  0  0  0  0  0  0
  197.9410  176.0380  143.1310 O   0  0  0  0  0  1  0  0  0  0  0  0
  196.9670  175.0420  143.2430 C   0  0  2  0  0  3  0  0  0  0  0  0
  196.3630  174.7690  141.8730 C   0  0  0  0  0  2  0  0  0  0  0  0
  197.3230  173.9570  141.0080 C   0  0  1  0  0  3  0  0  0  0  0  0
  196.7360  172.7260  140.7030 O   0  0  0  0  0  1  0  0  0  0  0  0
  197.2400  176.0410  139.8280 O   0  0  0  0  0  1  0  0  0  0  0  0
  197.6540  174.7100  139.7180 C   0  0  2  0  0  3  0  0  0  0  0  0
  195.8230  174.8430  138.1850 O   0  0  0  0  0  1  0  0  0  0  0  0
  196.9490  174.0870  138.5200 C   0  0  0  0  0  2  0  0  0  0  0  0
  187.7620  173.1610  142.2310 C   0  0  0  0  0  3  0  0  0  0  0  0
  187.4690  172.7620  141.1170 O   0  0  0  0  0  0  0  0  0  0  0  0
  1 54  1  6  0  0  0
  1  4  1  0  0  0  0
  2  3  1  0  0  0  0
  4 17  1  6  0  0  0
  5 13  1  0  0  0  0
  5 14  1  1  0  0  0
  6  7  1  0  0  0  0
  6 10  1  0  0  0  0
  9 11  1  0  0  0  0
  9 21  1  1  0  0  0
  9  4  1  0  0  0  0
 10 64  1  6  0  0  0
 10  8  1  0  0  0  0
 12  7  2  0  0  0  0
 13  7  1  6  0  0  0
 13 11  1  0  0  0  0
 14 21  1  0  0  0  0
 15 16  2  0  0  0  0
 15  1  1  0  0  0  0
 16  3  2  0  0  0  0
 18  3  1  0  0  0  0
 19  8  1  1  0  0  0
 19 18  1  0  0  0  0
 20 34  1  6  0  0  0
 20 19  1  0  0  0  0
 20  2  1  0  0  0  0
 22 28  1  6  0  0  0
 22  5  1  0  0  0  0
 22 24  1  0  0  0  0
 24 27  1  1  0  0  0
 25 24  1  0  0  0  0
 25 26  1  0  0  0  0
 26 32  1  0  0  0  0
 26 23  1  0  0  0  0
 27 23  1  0  0  0  0
 29 28  1  0  0  0  0
 29 31  1  0  0  0  0
 30 31  1  0  0  0  0
 31 25  1  0  0  0  0
 32 33  1  0  0  0  0
 35 36  2  0  0  0  0
 36 38  1  0  0  0  0
 37 34  2  0  0  0  0
 38 34  1  0  0  0  0
 40 36  1  0  0  0  0
 41 39  1  0  0  0  0
 41 44  1  0  0  0  0
 42 43  1  0  0  0  0
 43 48  1  0  0  0  0
 44 40  1  0  0  0  0
 45 49  1  0  0  0  0
 45 46  1  0  0  0  0
 45 51  1  0  0  0  0
 46 41  1  0  0  0  0
 46 47  1  0  0  0  0
 47 52  1  0  0  0  0
 47 43  1  0  0  0  0
 47 40  1  0  0  0  0
 49 50  1  0  0  0  0
 50 43  1  0  0  0  0
 51 39  1  0  0  0  0
 51 42  1  0  0  0  0
 54 53  2  0  0  0  0
 55 56  1  0  0  0  0
 56 54  1  0  0  0  0
 57 56  1  0  0  0  0
 58 57  1  0  0  0  0
 59 58  1  0  0  0  0
 61 60  1  0  0  0  0
 61 58  1  0  0  0  0
 62 63  1  0  0  0  0
 63 61  1  0  0  0  0
 65 64  2  0  0  0  0
M  END
>  <MODEL>
3

>  <REMARK>
 VINA RESULT:      -7.1      2.723      9.051
  Name = 
  11 active torsions:
  status: ('A' for Active; 'I' for Inactive)
    1  A    between atoms: N_2  and  C_17
    2  A    between atoms: C_3  and  C_35
    3  A    between atoms: C_6  and  C_9
    4  A    between atoms: C_9  and  C_52
    5  A    between atoms: C_10  and  C_58
    6  A    between atoms: C_15  and  C_28
    7  A    between atoms: C_29  and  C_32
    8  A    between atoms: C_40  and  C_53
    9  A    between atoms: C_43  and  C_53
   10  A    between atoms: C_43  and  C_65
   11  A    between atoms: C_52  and  C_65
                            x       y       z     vdW  Elec       q    Type
                         _______ _______ _______ _____ _____    ______ ____

>  <TORSDO>
F 11

$$$$
=
 OpenBabel11042416403D

 65 73  0  0  1  0  0  0  0  0999 V2000
  194.4480  170.9020  143.2150 C   0  0  1  0  0  3  0  0  0  0  0  0
  192.6720  169.0450  139.0570 C   0  0  0  0  0  2  0  0  0  0  0  0
  192.4560  169.5390  140.4480 C   0  0  0  0  0  0  0  0  0  0  0  0
  193.0820  171.2440  143.8350 C   0  0  1  0  0  3  0  0  0  0  0  0
  190.7040  174.6960  143.0530 C   0  0  2  0  0  3  0  0  0  0  0  0
  190.4790  173.5140  139.5890 O   0  0  0  0  0  0  0  0  0  0  0  0
  191.2190  173.8070  140.7400 C   0  0  0  0  0  0  0  0  0  0  0  0
  189.6900  171.3600  138.7890 C   0  0  0  0  0  2  0  0  0  0  0  0
  192.4350  172.5510  143.3520 C   0  0  1  0  0  3  0  0  0  0  0  0
  189.3730  172.6130  139.6060 C   0  0  2  0  0  3  0  0  0  0  0  0
  191.2330  172.2890  142.6510 O   0  0  0  0  0  0  0  0  0  0  0  0
  192.3380  174.3720  140.6230 O   0  0  0  0  0  0  0  0  0  0  0  0
  190.6870  173.4820  142.1060 C   0  0  1  0  0  3  0  0  0  0  0  0
  190.9130  174.2420  144.5000 C   0  0  0  0  0  2  0  0  0  0  0  0
  194.4600  170.6120  141.7330 C   0  0  0  0  0  3  0  0  0  0  0  0
  193.4670  170.0370  141.1040 C   0  0  0  0  0  0  0  0  0  0  0  0
  192.2060  170.1530  143.7910 O   0  0  0  0  0  1  0  0  0  0  0  0
  191.1910  170.2960  140.5180 C   0  0  0  0  0  2  0  0  0  0  0  0
  191.0850  170.8560  139.1230 C   0  0  1  0  0  3  0  0  0  0  0  0
  191.6050  169.7520  138.2210 C   0  0  1  0  0  3  0  0  0  0  0  0
  192.1940  173.4230  144.5970 C   0  0  0  0  0  2  0  0  0  0  0  0
  189.5100  175.5370  142.8540 N   0  0  2  0  0  0  0  0  0  0  0  0
  188.5970  176.9790  146.1590 C   0  0  0  0  0  2  0  0  0  0  0  0
  188.8160  175.7370  144.1320 C   0  0  2  0  0  3  0  0  0  0  0  0
  187.6980  176.7240  143.9420 C   0  0  2  0  0  3  0  0  0  0  0  0
  187.2930  177.0720  145.3600 C   0  0  2  0  0  3  0  0  0  0  0  0
  189.6420  176.3740  145.2270 C   0  0  0  0  0  2  0  0  0  0  0  0
  188.5630  174.8630  141.9450 C   0  0  0  0  0  2  0  0  0  0  0  0
  187.2960  175.7070  141.7240 C   0  0  0  0  0  2  0  0  0  0  0  0
  185.4940  177.0380  142.7900 C   0  0  0  0  0  1  0  0  0  0  0  0
  186.6360  176.0750  143.0580 C   0  0  2  0  0  3  0  0  0  0  0  0
  186.7460  178.4880  145.4170 C   0  0  0  0  0  2  0  0  0  0  0  0
  185.9070  178.7740  147.0040 S   0  0  0  0  0  1  0  0  0  0  0  0
  192.2060  170.3070  136.9700 C   0  0  0  0  0  0  0  0  0  0  0  0
  193.5490  171.6990  134.7970 O   0  0  0  0  0  0  0  0  0  0  0  0
  193.9630  171.8580  135.9750 C   0  0  0  0  0  0  0  0  0  0  0  0
  191.7120  170.0200  135.8460 O   0  0  0  0  0  0  0  0  0  0  0  0
  193.3320  171.1850  137.0740 N   0  0  0  0  0  2  0  0  0  0  0  0
  197.9250  174.0070  136.1900 O   0  0  0  0  0  0  0  0  0  0  0  0
  195.1220  172.7770  136.2230 C   0  0  2  0  0  3  0  0  0  0  0  0
  197.4920  172.7400  136.6640 C   0  0  2  0  0  3  0  0  0  0  0  0
  196.2050  175.5300  136.8920 C   0  0  0  0  0  2  0  0  0  0  0  0
  195.1350  174.8220  137.7560 C   0  0  2  0  0  0  0  0  0  0  0  0
  196.4280  172.1810  135.7430 C   0  0  0  0  0  2  0  0  0  0  0  0
  197.5770  174.1470  138.5040 C   0  0  2  0  0  3  0  0  0  0  0  0
  196.8230  172.9280  138.0110 C   0  0  1  0  0  3  0  0  0  0  0  0
  195.3360  173.2660  137.6780 C   0  0  2  0  0  0  0  0  0  0  0  0
  193.7420  175.2570  137.3250 C   0  0  0  0  0  1  0  0  0  0  0  0
  196.8210  174.8810  139.6310 C   0  0  0  0  0  2  0  0  0  0  0  0
  195.3990  175.2810  139.1950 C   0  0  0  0  0  2  0  0  0  0  0  0
  197.6130  174.9430  137.2000 C   0  0  1  0  0  3  0  0  0  0  0  0
  194.4460  172.5400  138.6920 C   0  0  0  0  0  1  0  0  0  0  0  0
  195.9260  172.6900  142.7130 O   0  0  0  0  0  0  0  0  0  0  0  0
  195.4760  171.9410  143.5710 C   0  0  0  0  0  0  0  0  0  0  0  0
  194.7740  171.8850  145.8300 O   0  0  0  0  0  1  0  0  0  0  0  0
  195.8770  172.1170  145.0040 C   0  0  2  0  0  3  0  0  0  0  0  0
  196.4090  173.5210  145.2520 C   0  0  0  0  0  2  0  0  0  0  0  0
  195.2840  174.5490  145.1820 C   0  0  1  0  0  3  0  0  0  0  0  0
  195.0740  175.0880  146.4540 O   0  0  0  0  0  1  0  0  0  0  0  0
  195.6050  176.9000  144.8470 O   0  0  0  0  0  1  0  0  0  0  0  0
  195.6340  175.6630  144.1950 C   0  0  2  0  0  3  0  0  0  0  0  0
  193.5110  176.4400  143.4140 O   0  0  0  0  0  1  0  0  0  0  0  0
  194.6410  175.7090  143.0410 C   0  0  0  0  0  2  0  0  0  0  0  0
  188.1610  173.2840  139.0500 C   0  0  0  0  0  3  0  0  0  0  0  0
  188.2640  174.3420  138.4530 O   0  0  0  0  0  0  0  0  0  0  0  0
  1 54  1  6  0  0  0
  1  4  1  0  0  0  0
  2  3  1  0  0  0  0
  3 18  1  0  0  0  0
  3 16  2  0  0  0  0
  4 17  1  6  0  0  0
  5 14  1  1  0  0  0
  6 10  1  0  0  0  0
  6  7  1  0  0  0  0
  8 10  1  0  0  0  0
  9  4  1  0  0  0  0
  9 21  1  1  0  0  0
 10 64  1  6  0  0  0
 11  9  1  0  0  0  0
 12  7  2  0  0  0  0
 13  7  1  6  0  0  0
 13 11  1  0  0  0  0
 13  5  1  0  0  0  0
 14 21  1  0  0  0  0
 15  1  1  0  0  0  0
 16 15  2  0  0  0  0
 19  8  1  6  0  0  0
 19 18  1  0  0  0  0
 20 34  1  6  0  0  0
 20  2  1  0  0  0  0
 20 19  1  0  0  0  0
 22 28  1  6  0  0  0
 22  5  1  0  0  0  0
 22 24  1  0  0  0  0
 24 27  1  1  0  0  0
 25 24  1  0  0  0  0
 25 26  1  0  0  0  0
 26 32  1  0  0  0  0
 26 23  1  0  0  0  0
 27 23  1  0  0  0  0
 29 28  1  0  0  0  0
 29 31  1  0  0  0  0
 30 31  1  0  0  0  0
 31 25  1  0  0  0  0
 32 33  1  0  0  0  0
 34 38  1  0  0  0  0
 35 36  2  0  0  0  0
 36 40  1  0  0  0  0
 36 38  1  0  0  0  0
 37 34  2  0  0  0  0
 39 41  1  0  0  0  0
 39 51  1  0  0  0  0
 40 47  1  0  0  0  0
 41 46  1  0  0  0  0
 42 51  1  0  0  0  0
 42 43  1  0  0  0  0
 43 50  1  0  0  0  0
 44 40  1  0  0  0  0
 44 41  1  0  0  0  0
 45 49  1  0  0  0  0
 46 45  1  0  0  0  0
 47 43  1  0  0  0  0
 47 46  1  0  0  0  0
 47 52  1  0  0  0  0
 48 43  1  0  0  0  0
 50 49  1  0  0  0  0
 51 45  1  0  0  0  0
 53 54  2  0  0  0  0
 54 56  1  0  0  0  0
 56 57  1  0  0  0  0
 56 55  1  0  0  0  0
 58 57  1  0  0  0  0
 58 59  1  0  0  0  0
 61 60  1  0  0  0  0
 61 58  1  0  0  0  0
 63 62  1  0  0  0  0
 63 61  1  0  0  0  0
 65 64  2  0  0  0  0
M  END
>  <MODEL>
4

>  <REMARK>
 VINA RESULT:      -6.2      2.623      9.385
  Name = 
  11 active torsions:
  status: ('A' for Active; 'I' for Inactive)
    1  A    between atoms: N_2  and  C_17
    2  A    between atoms: C_3  and  C_35
    3  A    between atoms: C_6  and  C_9
    4  A    between atoms: C_9  and  C_52
    5  A    between atoms: C_10  and  C_58
    6  A    between atoms: C_15  and  C_28
    7  A    between atoms: C_29  and  C_32
    8  A    between atoms: C_40  and  C_53
    9  A    between atoms: C_43  and  C_53
   10  A    between atoms: C_43  and  C_65
   11  A    between atoms: C_52  and  C_65
                            x       y       z     vdW  Elec       q    Type
                         _______ _______ _______ _____ _____    ______ ____

>  <TORSDO>
F 11

$$$$
=
 OpenBabel11042416403D

 65 73  0  0  1  0  0  0  0  0999 V2000
  193.8000  175.3400  146.5480 C   0  0  1  0  0  3  0  0  0  0  0  0
  193.6300  171.2370  143.8970 C   0  0  0  0  0  2  0  0  0  0  0  0
  193.0000  172.1720  144.8730 C   0  0  0  0  0  0  0  0  0  0  0  0
  192.3190  175.3220  146.9670 C   0  0  1  0  0  3  0  0  0  0  0  0
  188.9890  176.6800  144.6760 C   0  0  2  0  0  3  0  0  0  0  0  0
  189.8500  174.0730  142.2450 O   0  0  0  0  0  0  0  0  0  0  0  0
  190.2060  175.1380  143.0780 C   0  0  0  0  0  0  0  0  0  0  0  0
  190.0930  171.6870  142.6290 C   0  0  0  0  0  2  0  0  0  0  0  0
  191.3220  175.8570  145.9280 C   0  0  1  0  0  3  0  0  0  0  0  0
  189.1840  172.9120  142.7390 C   0  0  2  0  0  3  0  0  0  0  0  0
  190.4540  174.8270  145.4870 O   0  0  0  0  0  0  0  0  0  0  0  0
  191.0290  175.9960  142.6620 O   0  0  0  0  0  0  0  0  0  0  0  0
  189.6040  175.2870  144.4460 C   0  0  1  0  0  3  0  0  0  0  0  0
  189.0940  177.0740  146.1510 C   0  0  0  0  0  2  0  0  0  0  0  0
  194.1840  174.4390  145.3990 C   0  0  0  0  0  3  0  0  0  0  0  0
  193.6120  173.2850  145.1670 C   0  0  0  0  0  0  0  0  0  0  0  0
  191.9450  174.0800  147.4930 O   0  0  0  0  0  1  0  0  0  0  0  0
  191.5520  172.2700  144.6060 C   0  0  0  0  0  2  0  0  0  0  0  0
  191.4910  172.0260  143.1200 C   0  0  1  0  0  3  0  0  0  0  0  0
  192.5430  170.9640  142.8580 C   0  0  1  0  0  3  0  0  0  0  0  0
  190.5510  177.0100  146.5930 C   0  0  0  0  0  2  0  0  0  0  0  0
  187.6220  176.7510  144.1300 N   0  0  2  0  0  0  0  0  0  0  0  0
  187.8630  178.1570  140.6950 C   0  0  0  0  0  2  0  0  0  0  0  0
  187.5710  177.7130  143.0220 C   0  0  2  0  0  3  0  0  0  0  0  0
  186.2160  177.6560  142.3750 C   0  0  2  0  0  3  0  0  0  0  0  0
  186.4080  178.4330  141.0890 C   0  0  2  0  0  3  0  0  0  0  0  0
  188.5050  177.4240  141.8680 C   0  0  0  0  0  2  0  0  0  0  0  0
  186.6900  177.2330  145.1680 C   0  0  0  0  0  2  0  0  0  0  0  0
  185.2510  177.3330  144.6290 C   0  0  0  0  0  2  0  0  0  0  0  0
  183.7890  178.1310  142.7910 C   0  0  0  0  0  1  0  0  0  0  0  0
  185.1910  178.2010  143.3680 C   0  0  2  0  0  3  0  0  0  0  0  0
  185.4690  177.9100  140.0150 C   0  0  0  0  0  2  0  0  0  0  0  0
  186.3840  176.8860  138.8250 S   0  0  0  0  0  1  0  0  0  0  0  0
  193.1000  171.0780  141.4760 C   0  0  0  0  0  0  0  0  0  0  0  0
  193.7850  171.1750  138.6500 O   0  0  0  0  0  0  0  0  0  0  0  0
  192.5760  171.2490  138.9910 C   0  0  0  0  0  0  0  0  0  0  0  0
  194.3470  171.0380  141.2880 O   0  0  0  0  0  0  0  0  0  0  0  0
  192.1970  171.2110  140.3740 N   0  0  0  0  0  2  0  0  0  0  0  0
  189.6920  170.7200  135.5610 O   0  0  0  0  0  0  0  0  0  0  0  0
  191.5240  171.3630  137.9270 C   0  0  2  0  0  3  0  0  0  0  0  0
  191.1090  170.7870  135.6240 C   0  0  2  0  0  3  0  0  0  0  0  0
  188.9430  172.5730  136.8930 C   0  0  0  0  0  2  0  0  0  0  0  0
  190.1290  173.4350  137.3880 C   0  0  2  0  0  0  0  0  0  0  0  0
  191.5960  170.2180  136.9390 C   0  0  0  0  0  2  0  0  0  0  0  0
  190.3770  172.8380  134.8270 C   0  0  2  0  0  3  0  0  0  0  0  0
  191.5260  172.2450  135.6170 C   0  0  1  0  0  3  0  0  0  0  0  0
  191.4800  172.6820  137.1160 C   0  0  2  0  0  0  0  0  0  0  0  0
  189.9410  173.7920  138.8550 C   0  0  0  0  0  1  0  0  0  0  0  0
  190.2470  174.3590  135.0440 C   0  0  0  0  0  2  0  0  0  0  0  0
  190.0950  174.7100  136.5360 C   0  0  0  0  0  2  0  0  0  0  0  0
  189.2290  172.0490  135.4560 C   0  0  1  0  0  3  0  0  0  0  0  0
  192.6850  173.5900  137.3810 C   0  0  0  0  0  1  0  0  0  0  0  0
  194.3660  177.5360  147.2470 O   0  0  0  0  0  0  0  0  0  0  0  0
  194.2760  176.7470  146.3150 C   0  0  0  0  0  0  0  0  0  0  0  0
  193.6340  177.1830  144.0790 O   0  0  0  0  0  1  0  0  0  0  0  0
  194.7300  177.1520  144.9450 C   0  0  2  0  0  3  0  0  0  0  0  0
  195.7720  176.1810  144.4080 C   0  0  0  0  0  2  0  0  0  0  0  0
  196.2550  176.6120  143.0260 C   0  0  1  0  0  3  0  0  0  0  0  0
  197.5340  177.1630  143.1380 O   0  0  0  0  0  1  0  0  0  0  0  0
  196.8740  175.7950  140.8610 O   0  0  0  0  0  1  0  0  0  0  0  0
  196.2830  175.4180  142.0700 C   0  0  2  0  0  3  0  0  0  0  0  0
  194.8480  174.2790  140.5340 O   0  0  0  0  0  1  0  0  0  0  0  0
  194.8760  174.9130  141.7780 C   0  0  0  0  0  2  0  0  0  0  0  0
  187.9280  172.6780  141.9660 C   0  0  0  0  0  3  0  0  0  0  0  0
  187.0010  172.0700  142.4710 O   0  0  0  0  0  0  0  0  0  0  0  0
  1 54  1  6  0  0  0
  1  4  1  0  0  0  0
  2  3  1  0  0  0  0
  3 16  2  0  0  0  0
  4 17  1  6  0  0  0
  5 14  1  1  0  0  0
  6 10  1  0  0  0  0
  6  7  1  0  0  0  0
  8 10  1  0  0  0  0
  9 21  1  1  0  0  0
  9  4  1  0  0  0  0
 10 64  1  6  0  0  0
 11  9  1  0  0  0  0
 12  7  2  0  0  0  0
 13  7  1  6  0  0  0
 13  5  1  0  0  0  0
 13 11  1  0  0  0  0
 14 21  1  0  0  0  0
 15  1  1  0  0  0  0
 16 15  2  0  0  0  0
 18  3  1  0  0  0  0
 19  8  1  1  0  0  0
 19 18  1  0  0  0  0
 20 34  1  6  0  0  0
 20 19  1  0  0  0  0
 20  2  1  0  0  0  0
 22  5  1  0  0  0  0
 22 28  1  1  0  0  0
 23 26  1  0  0  0  0
 23 27  1  0  0  0  0
 24 27  1  6  0  0  0
 24 22  1  0  0  0  0
 25 24  1  0  0  0  0
 25 31  1  0  0  0  0
 26 25  1  0  0  0  0
 29 28  1  0  0  0  0
 30 31  1  0  0  0  0
 31 29  1  0  0  0  0
 32 26  1  0  0  0  0
 33 32  1  0  0  0  0
 35 36  2  0  0  0  0
 36 38  1  0  0  0  0
 37 34  2  0  0  0  0
 38 34  1  0  0  0  0
 39 41  1  0  0  0  0
 40 36  1  0  0  0  0
 41 44  1  0  0  0  0
 42 43  1  0  0  0  0
 43 48  1  0  0  0  0
 44 40  1  0  0  0  0
 45 49  1  0  0  0  0
 45 51  1  0  0  0  0
 45 46  1  0  0  0  0
 46 41  1  0  0  0  0
 46 47  1  0  0  0  0
 47 52  1  0  0  0  0
 47 43  1  0  0  0  0
 47 40  1  0  0  0  0
 49 50  1  0  0  0  0
 50 43  1  0  0  0  0
 51 39  1  0  0  0  0
 51 42  1  0  0  0  0
 54 53  2  0  0  0  0
 55 56  1  0  0  0  0
 56 54  1  0  0  0  0
 57 56  1  0  0  0  0
 58 59  1  0  0  0  0
 58 57  1  0  0  0  0
 60 61  1  0  0  0  0
 61 58  1  0  0  0  0
 62 63  1  0  0  0  0
 63 61  1  0  0  0  0
 64 65  2  0  0  0  0
M  END
>  <MODEL>
5

>  <REMARK>
 VINA RESULT:      -6.0      2.956      9.550
  Name = 
  11 active torsions:
  status: ('A' for Active; 'I' for Inactive)
    1  A    between atoms: N_2  and  C_17
    2  A    between atoms: C_3  and  C_35
    3  A    between atoms: C_6  and  C_9
    4  A    between atoms: C_9  and  C_52
    5  A    between atoms: C_10  and  C_58
    6  A    between atoms: C_15  and  C_28
    7  A    between atoms: C_29  and  C_32
    8  A    between atoms: C_40  and  C_53
    9  A    between atoms: C_43  and  C_53
   10  A    between atoms: C_43  and  C_65
   11  A    between atoms: C_52  and  C_65
                            x       y       z     vdW  Elec       q    Type
                         _______ _______ _______ _____ _____    ______ ____

>  <TORSDO>
F 11

$$$$
=
 OpenBabel11042416403D

 65 73  0  0  1  0  0  0  0  0999 V2000
  192.0780  171.5620  138.8610 C   0  0  1  0  0  3  0  0  0  0  0  0
  195.6650  174.6230  140.1470 C   0  0  0  0  0  2  0  0  0  0  0  0
  194.2520  174.3900  139.7310 C   0  0  0  0  0  0  0  0  0  0  0  0
  190.9440  172.5970  138.9500 C   0  0  1  0  0  3  0  0  0  0  0  0
  188.8990  173.8620  142.4710 C   0  0  2  0  0  3  0  0  0  0  0  0
  192.1290  175.1330  143.6540 O   0  0  0  0  0  0  0  0  0  0  0  0
  191.3390  174.1250  143.0890 C   0  0  0  0  0  0  0  0  0  0  0  0
  193.6150  176.7060  142.5510 C   0  0  0  0  0  2  0  0  0  0  0  0
  190.4020  172.8780  140.3610 C   0  0  1  0  0  3  0  0  0  0  0  0
  192.2090  176.4410  143.0910 C   0  0  2  0  0  3  0  0  0  0  0  0
  190.6670  174.2160  140.7440 O   0  0  0  0  0  0  0  0  0  0  0  0
  191.5190  172.9310  143.4460 O   0  0  0  0  0  0  0  0  0  0  0  0
  190.2690  174.4500  142.0870 C   0  0  1  0  0  3  0  0  0  0  0  0
  188.0900  173.5250  141.2160 C   0  0  0  0  0  2  0  0  0  0  0  0
  193.3840  171.9370  139.5210 C   0  0  0  0  0  3  0  0  0  0  0  0
  193.8310  173.1650  139.5860 C   0  0  0  0  0  0  0  0  0  0  0  0
  191.2510  173.7650  138.2410 O   0  0  0  0  0  1  0  0  0  0  0  0
  193.3590  175.3090  140.4630 C   0  0  0  0  0  2  0  0  0  0  0  0
  194.1060  175.5070  141.7570 C   0  0  1  0  0  3  0  0  0  0  0  0
  195.5690  175.5530  141.3560 C   0  0  1  0  0  3  0  0  0  0  0  0
  188.8930  172.5780  140.3330 C   0  0  0  0  0  2  0  0  0  0  0  0
  188.1940  174.7410  143.4210 N   0  0  2  0  0  0  0  0  0  0  0  0
  187.0930  177.7590  141.5450 C   0  0  0  0  0  2  0  0  0  0  0  0
  188.1640  176.1160  142.9080 C   0  0  2  0  0  3  0  0  0  0  0  0
  187.3070  176.9640  143.8060 C   0  0  2  0  0  3  0  0  0  0  0  0
  187.1040  178.2320  143.0020 C   0  0  2  0  0  3  0  0  0  0  0  0
  187.5060  176.2900  141.5570 C   0  0  0  0  0  2  0  0  0  0  0  0
  188.9150  174.7730  144.7090 C   0  0  0  0  0  2  0  0  0  0  0  0
  188.2140  175.6940  145.7240 C   0  0  0  0  0  2  0  0  0  0  0  0
  187.1810  177.9140  146.1230 C   0  0  0  0  0  1  0  0  0  0  0  0
  188.0170  177.1020  145.1500 C   0  0  2  0  0  3  0  0  0  0  0  0
  185.7700  178.8690  143.3530 C   0  0  0  0  0  2  0  0  0  0  0  0
  184.4060  177.8940  142.6510 S   0  0  0  0  0  1  0  0  0  0  0  0
  196.4530  175.0680  142.4600 C   0  0  0  0  0  0  0  0  0  0  0  0
  197.9410  173.7470  144.5820 O   0  0  0  0  0  0  0  0  0  0  0  0
  197.3170  173.0470  143.7440 C   0  0  0  0  0  0  0  0  0  0  0  0
  197.0610  175.8920  143.1960 O   0  0  0  0  0  0  0  0  0  0  0  0
  196.5760  173.6580  142.6780 N   0  0  0  0  0  2  0  0  0  0  0  0
  197.7910  168.5820  143.2940 O   0  0  0  0  0  0  0  0  0  0  0  0
  197.3430  171.5530  143.8780 C   0  0  2  0  0  3  0  0  0  0  0  0
  197.0190  169.5420  142.5880 C   0  0  2  0  0  3  0  0  0  0  0  0
  197.3770  169.0640  145.6100 C   0  0  0  0  0  2  0  0  0  0  0  0
  196.3240  170.1830  145.7800 C   0  0  2  0  0  0  0  0  0  0  0  0
  197.7340  170.8760  142.5820 C   0  0  0  0  0  2  0  0  0  0  0  0
  195.5580  168.4050  143.9830 C   0  0  2  0  0  3  0  0  0  0  0  0
  195.7210  169.7660  143.3370 C   0  0  1  0  0  3  0  0  0  0  0  0
  196.0510  170.8680  144.3930 C   0  0  2  0  0  0  0  0  0  0  0  0
  196.7750  171.1720  146.8450 C   0  0  0  0  0  1  0  0  0  0  0  0
  194.5950  168.4450  145.1870 C   0  0  0  0  0  2  0  0  0  0  0  0
  195.0430  169.4760  146.2400 C   0  0  0  0  0  2  0  0  0  0  0  0
  197.0100  168.1660  144.3940 C   0  0  1  0  0  3  0  0  0  0  0  0
  194.8560  171.8240  144.4710 C   0  0  0  0  0  1  0  0  0  0  0  0
  191.4840  169.9660  140.5130 O   0  0  0  0  0  0  0  0  0  0  0  0
  191.6100  170.2080  139.3190 C   0  0  0  0  0  0  0  0  0  0  0  0
  190.4260  168.2000  138.9120 O   0  0  0  0  0  1  0  0  0  0  0  0
  191.2050  169.1870  138.3010 C   0  0  2  0  0  3  0  0  0  0  0  0
  192.4260  168.5430  137.6600 C   0  0  0  0  0  2  0  0  0  0  0  0
  192.5520  168.9530  136.1960 C   0  0  1  0  0  3  0  0  0  0  0  0
  191.5320  169.8560  135.8830 O   0  0  0  0  0  1  0  0  0  0  0  0
  194.5160  168.9890  134.8230 O   0  0  0  0  0  1  0  0  0  0  0  0
  193.9150  169.5930  135.9320 C   0  0  2  0  0  3  0  0  0  0  0  0
  195.5840  170.5940  137.3220 O   0  0  0  0  0  1  0  0  0  0  0  0
  194.8430  169.4260  137.1280 C   0  0  0  0  0  2  0  0  0  0  0  0
  191.8650  177.4620  144.1240 C   0  0  0  0  0  3  0  0  0  0  0  0
  192.0460  177.2250  145.3060 O   0  0  0  0  0  0  0  0  0  0  0  0
  1  4  1  0  0  0  0
  1 54  1  1  0  0  0
  1 15  1  0  0  0  0
  2 20  1  0  0  0  0
  3  2  1  0  0  0  0
  3 18  1  0  0  0  0
  4 17  1  1  0  0  0
  4  9  1  0  0  0  0
  5 14  1  6  0  0  0
  5 22  1  0  0  0  0
  7 12  2  0  0  0  0
  7  6  1  0  0  0  0
  8 10  1  0  0  0  0
  9 21  1  6  0  0  0
  9 11  1  0  0  0  0
 10  6  1  0  0  0  0
 10 64  1  1  0  0  0
 13 11  1  6  0  0  0
 13  5  1  0  0  0  0
 13  7  1  0  0  0  0
 15 16  2  0  0  0  0
 16  3  2  0  0  0  0
 19 18  1  6  0  0  0
 19  8  1  0  0  0  0
 20 19  1  0  0  0  0
 20 34  1  1  0  0  0
 21 14  1  0  0  0  0
 22 28  1  1  0  0  0
 23 27  1  0  0  0  0
 23 26  1  0  0  0  0
 24 27  1  6  0  0  0
 24 22  1  0  0  0  0
 24 25  1  0  0  0  0
 25 31  1  0  0  0  0
 26 32  1  0  0  0  0
 26 25  1  0  0  0  0
 28 29  1  0  0  0  0
 31 29  1  0  0  0  0
 31 30  1  0  0  0  0
 33 32  1  0  0  0  0
 34 38  1  0  0  0  0
 34 37  2  0  0  0  0
 36 40  1  0  0  0  0
 36 35  2  0  0  0  0
 38 36  1  0  0  0  0
 39 51  1  0  0  0  0
 40 47  1  0  0  0  0
 41 39  1  0  0  0  0
 41 46  1  0  0  0  0
 42 43  1  0  0  0  0
 43 50  1  0  0  0  0
 43 48  1  0  0  0  0
 44 41  1  0  0  0  0
 44 40  1  0  0  0  0
 45 51  1  0  0  0  0
 45 49  1  0  0  0  0
 46 45  1  0  0  0  0
 46 47  1  0  0  0  0
 47 52  1  0  0  0  0
 47 43  1  0  0  0  0
 49 50  1  0  0  0  0
 51 42  1  0  0  0  0
 54 53  2  0  0  0  0
 56 55  1  0  0  0  0
 56 54  1  0  0  0  0
 57 56  1  0  0  0  0
 58 57  1  0  0  0  0
 59 58  1  0  0  0  0
 60 61  1  0  0  0  0
 61 58  1  0  0  0  0
 61 63  1  0  0  0  0
 63 62  1  0  0  0  0
 64 65  2  0  0  0  0
M  END
>  <MODEL>
6

>  <REMARK>
 VINA RESULT:      -5.8      2.864      9.066
  Name = 
  11 active torsions:
  status: ('A' for Active; 'I' for Inactive)
    1  A    between atoms: N_2  and  C_17
    2  A    between atoms: C_3  and  C_35
    3  A    between atoms: C_6  and  C_9
    4  A    between atoms: C_9  and  C_52
    5  A    between atoms: C_10  and  C_58
    6  A    between atoms: C_15  and  C_28
    7  A    between atoms: C_29  and  C_32
    8  A    between atoms: C_40  and  C_53
    9  A    between atoms: C_43  and  C_53
   10  A    between atoms: C_43  and  C_65
   11  A    between atoms: C_52  and  C_65
                            x       y       z     vdW  Elec       q    Type
                         _______ _______ _______ _____ _____    ______ ____

>  <TORSDO>
F 11

$$$$
=
 OpenBabel11042416403D

 65 73  0  0  1  0  0  0  0  0999 V2000
  188.2380  173.1870  140.0920 C   0  0  1  0  0  3  0  0  0  0  0  0
  191.1330  170.7360  143.1750 C   0  0  0  0  0  2  0  0  0  0  0  0
  190.6520  171.0010  141.7890 C   0  0  0  0  0  0  0  0  0  0  0  0
  188.9280  172.7030  138.8050 C   0  0  1  0  0  3  0  0  0  0  0  0
  192.4870  174.2730  137.0580 C   0  0  2  0  0  3  0  0  0  0  0  0
  194.2150  173.2310  140.1200 O   0  0  0  0  0  0  0  0  0  0  0  0
  193.1520  173.8620  139.4660 C   0  0  0  0  0  0  0  0  0  0  0  0
  194.2950  171.0160  141.1160 C   0  0  0  0  0  2  0  0  0  0  0  0
  190.2190  173.4420  138.4180 C   0  0  1  0  0  3  0  0  0  0  0  0
  194.5560  171.8680  139.8730 C   0  0  2  0  0  3  0  0  0  0  0  0
  191.3340  172.5700  138.4740 O   0  0  0  0  0  0  0  0  0  0  0  0
  192.7160  174.9550  139.9160 O   0  0  0  0  0  0  0  0  0  0  0  0
  192.5440  173.2720  138.2260 C   0  0  1  0  0  3  0  0  0  0  0  0
  191.2780  173.9840  136.1640 C   0  0  0  0  0  2  0  0  0  0  0  0
  188.9980  172.9800  141.3810 C   0  0  0  0  0  3  0  0  0  0  0  0
  189.7940  171.9630  141.5910 C   0  0  0  0  0  0  0  0  0  0  0  0
  189.0700  171.3100  138.7860 O   0  0  0  0  0  1  0  0  0  0  0  0
  191.7860  170.9290  140.8460 C   0  0  0  0  0  2  0  0  0  0  0  0
  192.9400  171.3630  141.7120 C   0  0  1  0  0  3  0  0  0  0  0  0
  192.6570  170.7490  143.0710 C   0  0  1  0  0  3  0  0  0  0  0  0
  190.0070  174.0100  137.0040 C   0  0  0  0  0  2  0  0  0  0  0  0
  193.7710  174.3160  136.3370 N   0  0  2  0  0  0  0  0  0  0  0  0
  194.9490  170.8100  135.9440 C   0  0  0  0  0  2  0  0  0  0  0  0
  194.5200  173.0750  136.5660 C   0  0  2  0  0  3  0  0  0  0  0  0
  195.7480  173.0660  135.6990 C   0  0  2  0  0  3  0  0  0  0  0  0
  196.2320  171.6340  135.7910 C   0  0  2  0  0  3  0  0  0  0  0  0
  193.8110  171.8030  136.1540 C   0  0  0  0  0  2  0  0  0  0  0  0
  194.6000  175.4250  136.8470 C   0  0  0  0  0  2  0  0  0  0  0  0
  195.9570  175.4930  136.1250 C   0  0  0  0  0  2  0  0  0  0  0  0
  197.9410  174.2260  135.3430 C   0  0  0  0  0  1  0  0  0  0  0  0
  196.6950  174.1520  136.2050 C   0  0  2  0  0  3  0  0  0  0  0  0
  196.9540  171.2410  134.5130 C   0  0  0  0  0  2  0  0  0  0  0  0
  197.5890  169.5430  134.6480 S   0  0  0  0  0  1  0  0  0  0  0  0
  193.2490  171.5680  144.1730 C   0  0  0  0  0  0  0  0  0  0  0  0
  194.1360  173.4850  146.1730 O   0  0  0  0  0  0  0  0  0  0  0  0
  193.0200  173.6520  145.6170 C   0  0  0  0  0  0  0  0  0  0  0  0
  194.3620  171.2490  144.6750 O   0  0  0  0  0  0  0  0  0  0  0  0
  192.5430  172.7270  144.6290 N   0  0  0  0  0  2  0  0  0  0  0  0
  191.0160  177.2110  147.5360 O   0  0  0  0  0  0  0  0  0  0  0  0
  192.1920  174.8470  145.9860 C   0  0  2  0  0  3  0  0  0  0  0  0
  191.0370  175.8290  147.8610 C   0  0  2  0  0  3  0  0  0  0  0  0
  190.5500  177.2670  145.1800 C   0  0  0  0  0  2  0  0  0  0  0  0
  190.2800  175.8500  144.6190 C   0  0  2  0  0  0  0  0  0  0  0  0
  192.3580  175.2200  147.4440 C   0  0  0  0  0  2  0  0  0  0  0  0
  188.9790  176.2540  146.8820 C   0  0  2  0  0  3  0  0  0  0  0  0
  189.9740  175.1220  147.0430 C   0  0  1  0  0  3  0  0  0  0  0  0
  190.6730  174.7730  145.6910 C   0  0  2  0  0  0  0  0  0  0  0  0
  191.0140  175.6600  143.2990 C   0  0  0  0  0  1  0  0  0  0  0  0
  188.0100  176.0120  145.7060 C   0  0  0  0  0  2  0  0  0  0  0  0
  188.7660  175.7830  144.3840 C   0  0  0  0  0  2  0  0  0  0  0  0
  189.9620  177.3930  146.6140 C   0  0  1  0  0  3  0  0  0  0  0  0
  190.2120  173.3740  145.2680 C   0  0  0  0  0  1  0  0  0  0  0  0
  187.4740  175.0650  138.8600 O   0  0  0  0  0  0  0  0  0  0  0  0
  187.7830  174.6140  139.9560 C   0  0  0  0  0  0  0  0  0  0  0  0
  186.6420  174.8910  142.0100 O   0  0  0  0  0  1  0  0  0  0  0  0
  187.6200  175.4540  141.1860 C   0  0  2  0  0  3  0  0  0  0  0  0
  187.2190  176.8770  140.8240 C   0  0  0  0  0  2  0  0  0  0  0  0
  186.6390  177.6020  142.0350 C   0  0  1  0  0  3  0  0  0  0  0  0
  187.2540  178.8500  142.1600 O   0  0  0  0  0  1  0  0  0  0  0  0
  184.8570  178.6600  140.8300 O   0  0  0  0  0  1  0  0  0  0  0  0
  185.1270  177.7790  141.8820 C   0  0  2  0  0  3  0  0  0  0  0  0
  183.2330  178.8470  142.8780 O   0  0  0  0  0  1  0  0  0  0  0  0
  184.5080  178.3490  143.1520 C   0  0  0  0  0  2  0  0  0  0  0  0
  195.9940  171.7660  139.4860 C   0  0  0  0  0  3  0  0  0  0  0  0
  196.8040  172.5700  139.9130 O   0  0  0  0  0  0  0  0  0  0  0  0
  1 54  1  6  0  0  0
  1 15  1  0  0  0  0
  3  2  1  0  0  0  0
  4 17  1  1  0  0  0
  4  1  1  0  0  0  0
  5 14  1  6  0  0  0
  5 13  1  0  0  0  0
  7 12  2  0  0  0  0
  7  6  1  0  0  0  0
  8 19  1  0  0  0  0
  9 21  1  6  0  0  0
  9 11  1  0  0  0  0
  9  4  1  0  0  0  0
 10 64  1  1  0  0  0
 10  6  1  0  0  0  0
 10  8  1  0  0  0  0
 13 11  1  1  0  0  0
 13  7  1  0  0  0  0
 14 21  1  0  0  0  0
 15 16  2  0  0  0  0
 16  3  2  0  0  0  0
 18  3  1  0  0  0  0
 19 18  1  6  0  0  0
 19 20  1  0  0  0  0
 20  2  1  0  0  0  0
 20 34  1  1  0  0  0
 22 24  1  0  0  0  0
 22 28  1  1  0  0  0
 22  5  1  0  0  0  0
 23 27  1  0  0  0  0
 24 27  1  6  0  0  0
 25 26  1  0  0  0  0
 25 31  1  0  0  0  0
 25 24  1  0  0  0  0
 26 23  1  0  0  0  0
 29 31  1  0  0  0  0
 29 28  1  0  0  0  0
 30 31  1  0  0  0  0
 32 33  1  0  0  0  0
 32 26  1  0  0  0  0
 34 38  1  0  0  0  0
 34 37  2  0  0  0  0
 36 40  1  0  0  0  0
 36 35  2  0  0  0  0
 38 36  1  0  0  0  0
 39 41  1  0  0  0  0
 40 44  1  0  0  0  0
 42 51  1  0  0  0  0
 43 42  1  0  0  0  0
 43 47  1  0  0  0  0
 44 41  1  0  0  0  0
 45 46  1  0  0  0  0
 46 41  1  0  0  0  0
 47 40  1  0  0  0  0
 47 46  1  0  0  0  0
 48 43  1  0  0  0  0
 49 45  1  0  0  0  0
 50 43  1  0  0  0  0
 50 49  1  0  0  0  0
 51 45  1  0  0  0  0
 51 39  1  0  0  0  0
 52 47  1  0  0  0  0
 53 54  2  0  0  0  0
 54 56  1  0  0  0  0
 56 55  1  0  0  0  0
 57 56  1  0  0  0  0
 57 58  1  0  0  0  0
 58 59  1  0  0  0  0
 60 61  1  0  0  0  0
 61 58  1  0  0  0  0
 61 63  1  0  0  0  0
 62 63  1  0  0  0  0
 64 65  2  0  0  0  0
M  END
>  <MODEL>
7

>  <REMARK>
 VINA RESULT:      -5.8      3.072      7.413
  Name = 
  11 active torsions:
  status: ('A' for Active; 'I' for Inactive)
    1  A    between atoms: N_2  and  C_17
    2  A    between atoms: C_3  and  C_35
    3  A    between atoms: C_6  and  C_9
    4  A    between atoms: C_9  and  C_52
    5  A    between atoms: C_10  and  C_58
    6  A    between atoms: C_15  and  C_28
    7  A    between atoms: C_29  and  C_32
    8  A    between atoms: C_40  and  C_53
    9  A    between atoms: C_43  and  C_53
   10  A    between atoms: C_43  and  C_65
   11  A    between atoms: C_52  and  C_65
                            x       y       z     vdW  Elec       q    Type
                         _______ _______ _______ _____ _____    ______ ____

>  <TORSDO>
F 11

$$$$
=
 OpenBabel11042416403D

 65 73  0  0  1  0  0  0  0  0999 V2000
  191.7090  171.6290  139.7370 C   0  0  1  0  0  3  0  0  0  0  0  0
  195.6060  174.2820  141.0300 C   0  0  0  0  0  2  0  0  0  0  0  0
  194.2380  174.1960  140.4400 C   0  0  0  0  0  0  0  0  0  0  0  0
  190.7820  172.8280  139.4640 C   0  0  1  0  0  3  0  0  0  0  0  0
  188.5750  175.0690  142.3430 C   0  0  2  0  0  3  0  0  0  0  0  0
  191.8080  176.0240  143.7870 O   0  0  0  0  0  0  0  0  0  0  0  0
  190.9250  175.0620  143.2860 C   0  0  0  0  0  0  0  0  0  0  0  0
  193.6860  177.0950  142.6800 C   0  0  0  0  0  2  0  0  0  0  0  0
  190.1270  173.4630  140.7000 C   0  0  1  0  0  3  0  0  0  0  0  0
  192.1980  177.1650  143.0270 C   0  0  2  0  0  3  0  0  0  0  0  0
  190.5830  174.7910  140.8840 O   0  0  0  0  0  0  0  0  0  0  0  0
  190.8340  173.9480  143.8680 O   0  0  0  0  0  0  0  0  0  0  0  0
  190.0680  175.3460  142.0860 C   0  0  1  0  0  3  0  0  0  0  0  0
  187.8840  174.6220  141.0520 C   0  0  0  0  0  2  0  0  0  0  0  0
  192.9660  171.9170  140.5210 C   0  0  0  0  0  3  0  0  0  0  0  0
  193.6200  173.0480  140.4440 C   0  0  0  0  0  0  0  0  0  0  0  0
  191.3870  173.7690  138.6220 O   0  0  0  0  0  1  0  0  0  0  0  0
  193.4440  175.3710  140.8510 C   0  0  0  0  0  2  0  0  0  0  0  0
  194.0450  175.7000  142.1930 C   0  0  1  0  0  3  0  0  0  0  0  0
  195.5300  175.4360  142.0290 C   0  0  1  0  0  3  0  0  0  0  0  0
  188.6050  173.4050  140.4850 C   0  0  0  0  0  2  0  0  0  0  0  0
  187.9300  176.2180  143.0030 N   0  0  2  0  0  0  0  0  0  0  0  0
  188.1520  175.6660  146.6750 C   0  0  0  0  0  2  0  0  0  0  0  0
  187.5450  175.8610  144.3740 C   0  0  2  0  0  3  0  0  0  0  0  0
  187.0370  177.0850  145.0830 C   0  0  2  0  0  3  0  0  0  0  0  0
  186.9890  176.6540  146.5350 C   0  0  2  0  0  3  0  0  0  0  0  0
  188.6770  175.4020  145.2670 C   0  0  0  0  0  2  0  0  0  0  0  0
  186.6940  176.5830  142.2850 C   0  0  0  0  0  2  0  0  0  0  0  0
  185.9840  177.7730  142.9550 C   0  0  0  0  0  2  0  0  0  0  0  0
  185.1680  178.7550  145.0820 C   0  0  0  0  0  1  0  0  0  0  0  0
  185.7160  177.4950  144.4380 C   0  0  2  0  0  3  0  0  0  0  0  0
  187.2100  177.8500  147.4450 C   0  0  0  0  0  2  0  0  0  0  0  0
  188.9670  177.9820  147.8930 S   0  0  0  0  0  1  0  0  0  0  0  0
  196.1620  175.0450  143.3260 C   0  0  0  0  0  0  0  0  0  0  0  0
  197.0880  173.9640  145.8630 O   0  0  0  0  0  0  0  0  0  0  0  0
  196.4220  173.2280  145.0900 C   0  0  0  0  0  0  0  0  0  0  0  0
  196.8510  175.8800  143.9740 O   0  0  0  0  0  0  0  0  0  0  0  0
  195.9510  173.7210  143.8270 N   0  0  0  0  0  2  0  0  0  0  0  0
  196.2760  169.0750  146.8490 O   0  0  0  0  0  0  0  0  0  0  0  0
  196.1070  171.8230  145.5110 C   0  0  2  0  0  3  0  0  0  0  0  0
  197.1750  169.7070  145.9500 C   0  0  2  0  0  3  0  0  0  0  0  0
  194.0970  169.6030  145.9880 C   0  0  0  0  0  2  0  0  0  0  0  0
  194.1840  170.3760  144.6510 C   0  0  2  0  0  0  0  0  0  0  0  0
  197.2590  171.1860  146.2580 C   0  0  0  0  0  2  0  0  0  0  0  0
  195.8310  168.3100  144.6780 C   0  0  2  0  0  3  0  0  0  0  0  0
  196.6120  169.6020  144.5460 C   0  0  1  0  0  3  0  0  0  0  0  0
  195.6650  170.8350  144.4010 C   0  0  2  0  0  0  0  0  0  0  0  0
  193.2010  171.5370  144.6510 C   0  0  0  0  0  1  0  0  0  0  0  0
  194.7580  168.1660  143.5800 C   0  0  0  0  0  2  0  0  0  0  0  0
  193.7920  169.3650  143.5660 C   0  0  0  0  0  2  0  0  0  0  0  0
  195.2300  168.5400  146.0650 C   0  0  1  0  0  3  0  0  0  0  0  0
  195.8400  171.4030  142.9880 C   0  0  0  0  0  1  0  0  0  0  0  0
  190.6560  170.4890  141.5320 O   0  0  0  0  0  0  0  0  0  0  0  0
  190.9440  170.4840  140.3410 C   0  0  0  0  0  0  0  0  0  0  0  0
  190.4660  168.1740  140.1620 O   0  0  0  0  0  1  0  0  0  0  0  0
  190.4530  169.3800  139.4560 C   0  0  2  0  0  3  0  0  0  0  0  0
  191.3230  169.2480  138.2150 C   0  0  0  0  0  2  0  0  0  0  0  0
  190.5240  169.5630  136.9540 C   0  0  1  0  0  3  0  0  0  0  0  0
  189.3560  170.2440  137.3090 O   0  0  0  0  0  1  0  0  0  0  0  0
  190.5020  171.1270  135.1380 O   0  0  0  0  0  1  0  0  0  0  0  0
  191.3520  170.4150  135.9910 C   0  0  2  0  0  3  0  0  0  0  0  0
  193.4490  169.2760  135.8310 O   0  0  0  0  0  1  0  0  0  0  0  0
  192.2680  169.5480  135.1370 C   0  0  0  0  0  2  0  0  0  0  0  0
  191.9200  178.4120  143.8000 C   0  0  0  0  0  3  0  0  0  0  0  0
  191.0760  179.2000  143.4120 O   0  0  0  0  0  0  0  0  0  0  0  0
  1 54  1  1  0  0  0
  1 15  1  0  0  0  0
  2 20  1  0  0  0  0
  3 16  2  0  0  0  0
  3 18  1  0  0  0  0
  3  2  1  0  0  0  0
  4 17  1  1  0  0  0
  4  1  1  0  0  0  0
  4  9  1  0  0  0  0
  5 14  1  6  0  0  0
  5 22  1  0  0  0  0
  7  6  1  0  0  0  0
  7 12  2  0  0  0  0
  8 10  1  0  0  0  0
  9 21  1  6  0  0  0
  9 11  1  0  0  0  0
 10  6  1  0  0  0  0
 10 64  1  1  0  0  0
 13 11  1  6  0  0  0
 13  5  1  0  0  0  0
 13  7  1  0  0  0  0
 16 15  2  0  0  0  0
 19 18  1  6  0  0  0
 19  8  1  0  0  0  0
 20 19  1  0  0  0  0
 20 34  1  1  0  0  0
 21 14  1  0  0  0  0
 22 28  1  6  0  0  0
 22 24  1  0  0  0  0
 24 25  1  0  0  0  0
 24 27  1  1  0  0  0
 25 26  1  0  0  0  0
 26 23  1  0  0  0  0
 26 32  1  0  0  0  0
 27 23  1  0  0  0  0
 28 29  1  0  0  0  0
 29 31  1  0  0  0  0
 31 30  1  0  0  0  0
 31 25  1  0  0  0  0
 32 33  1  0  0  0  0
 34 38  1  0  0  0  0
 34 37  2  0  0  0  0
 36 40  1  0  0  0  0
 36 35  2  0  0  0  0
 38 36  1  0  0  0  0
 40 44  1  0  0  0  0
 41 44  1  0  0  0  0
 41 39  1  0  0  0  0
 42 51  1  0  0  0  0
 43 48  1  0  0  0  0
 43 42  1  0  0  0  0
 45 51  1  0  0  0  0
 46 45  1  0  0  0  0
 46 41  1  0  0  0  0
 47 46  1  0  0  0  0
 47 43  1  0  0  0  0
 47 40  1  0  0  0  0
 49 45  1  0  0  0  0
 50 49  1  0  0  0  0
 50 43  1  0  0  0  0
 51 39  1  0  0  0  0
 52 47  1  0  0  0  0
 54 53  2  0  0  0  0
 56 55  1  0  0  0  0
 56 54  1  0  0  0  0
 57 56  1  0  0  0  0
 58 59  1  0  0  0  0
 58 57  1  0  0  0  0
 60 61  1  0  0  0  0
 61 58  1  0  0  0  0
 63 62  1  0  0  0  0
 63 61  1  0  0  0  0
 65 64  2  0  0  0  0
M  END
>  <MODEL>
8

>  <REMARK>
 VINA RESULT:      -5.2      2.710      9.044
  Name = 
  11 active torsions:
  status: ('A' for Active; 'I' for Inactive)
    1  A    between atoms: N_2  and  C_17
    2  A    between atoms: C_3  and  C_35
    3  A    between atoms: C_6  and  C_9
    4  A    between atoms: C_9  and  C_52
    5  A    between atoms: C_10  and  C_58
    6  A    between atoms: C_15  and  C_28
    7  A    between atoms: C_29  and  C_32
    8  A    between atoms: C_40  and  C_53
    9  A    between atoms: C_43  and  C_53
   10  A    between atoms: C_43  and  C_65
   11  A    between atoms: C_52  and  C_65
                            x       y       z     vdW  Elec       q    Type
                         _______ _______ _______ _____ _____    ______ ____

>  <TORSDO>
F 11

$$$$
=
 OpenBabel11042416403D

 65 73  0  0  1  0  0  0  0  0999 V2000
  188.3510  173.1100  140.6860 C   0  0  1  0  0  3  0  0  0  0  0  0
  190.8320  169.6410  143.0740 C   0  0  0  0  0  2  0  0  0  0  0  0
  190.3640  170.2460  141.7930 C   0  0  0  0  0  0  0  0  0  0  0  0
  188.8930  172.7620  139.2890 C   0  0  1  0  0  3  0  0  0  0  0  0
  192.6230  173.9690  137.6120 C   0  0  2  0  0  3  0  0  0  0  0  0
  194.2250  172.0730  140.3110 O   0  0  0  0  0  0  0  0  0  0  0  0
  193.2800  172.9970  139.8560 C   0  0  0  0  0  0  0  0  0  0  0  0
  193.9180  169.7330  140.8860 C   0  0  0  0  0  2  0  0  0  0  0  0
  190.2860  173.3170  138.9530 C   0  0  1  0  0  3  0  0  0  0  0  0
  194.2940  170.7430  139.8000 C   0  0  2  0  0  3  0  0  0  0  0  0
  191.2170  172.2640  138.7760 O   0  0  0  0  0  0  0  0  0  0  0  0
  193.0740  174.0450  140.5230 O   0  0  0  0  0  0  0  0  0  0  0  0
  192.5290  172.7710  138.5750 C   0  0  1  0  0  3  0  0  0  0  0  0
  191.3520  174.0760  136.7660 C   0  0  0  0  0  2  0  0  0  0  0  0
  189.1010  172.5300  141.8620 C   0  0  0  0  0  3  0  0  0  0  0  0
  189.6980  171.3660  141.8310 C   0  0  0  0  0  0  0  0  0  0  0  0
  188.7680  171.3960  139.0100 O   0  0  0  0  0  1  0  0  0  0  0  0
  191.4300  170.1500  140.7780 C   0  0  0  0  0  2  0  0  0  0  0  0
  192.6750  170.1980  141.6260 C   0  0  1  0  0  3  0  0  0  0  0  0
  192.3270  169.3990  142.8690 C   0  0  1  0  0  3  0  0  0  0  0  0
  190.1370  174.1710  137.6820 C   0  0  0  0  0  2  0  0  0  0  0  0
  193.8660  173.9160  136.8240 N   0  0  2  0  0  0  0  0  0  0  0  0
  194.5530  170.3410  136.0590 C   0  0  0  0  0  2  0  0  0  0  0  0
  194.4550  172.5730  136.9000 C   0  0  2  0  0  3  0  0  0  0  0  0
  195.6300  172.4900  135.9660 C   0  0  2  0  0  3  0  0  0  0  0  0
  195.9250  171.0060  135.9050 C   0  0  2  0  0  3  0  0  0  0  0  0
  193.5670  171.4470  136.4210 C   0  0  0  0  0  2  0  0  0  0  0  0
  194.8570  174.8580  137.3800 C   0  0  0  0  0  2  0  0  0  0  0  0
  196.1770  174.8200  136.5880 C   0  0  0  0  0  2  0  0  0  0  0  0
  197.9380  173.3910  135.5850 C   0  0  0  0  0  1  0  0  0  0  0  0
  196.7340  173.3950  136.5080 C   0  0  2  0  0  3  0  0  0  0  0  0
  196.5290  170.6460  134.5580 C   0  0  0  0  0  2  0  0  0  0  0  0
  197.5710  169.1640  134.7130 S   0  0  0  0  0  1  0  0  0  0  0  0
  193.1000  169.8750  144.0570 C   0  0  0  0  0  0  0  0  0  0  0  0
  194.6390  171.1840  146.1510 O   0  0  0  0  0  0  0  0  0  0  0  0
  194.0070  171.8900  145.3220 C   0  0  0  0  0  0  0  0  0  0  0  0
  193.6430  169.0450  144.8370 O   0  0  0  0  0  0  0  0  0  0  0  0
  193.2320  171.2830  144.2780 N   0  0  0  0  0  2  0  0  0  0  0  0
  193.3150  176.3240  145.7940 O   0  0  0  0  0  0  0  0  0  0  0  0
  194.0860  173.3840  145.4260 C   0  0  2  0  0  3  0  0  0  0  0  0
  192.8660  175.3780  144.8350 C   0  0  2  0  0  3  0  0  0  0  0  0
  195.6720  175.9060  145.9910 C   0  0  0  0  0  2  0  0  0  0  0  0
  196.1460  174.8300  144.9860 C   0  0  2  0  0  0  0  0  0  0  0  0
  192.7120  174.0190  145.4830 C   0  0  0  0  0  2  0  0  0  0  0  0
  194.5610  176.5970  143.8280 C   0  0  2  0  0  3  0  0  0  0  0  0
  193.9360  175.2170  143.7740 C   0  0  1  0  0  3  0  0  0  0  0  0
  194.9000  174.1260  144.3380 C   0  0  2  0  0  0  0  0  0  0  0  0
  197.0840  173.8480  145.6720 C   0  0  0  0  0  1  0  0  0  0  0  0
  195.9760  176.6180  143.2150 C   0  0  0  0  0  2  0  0  0  0  0  0
  196.9050  175.5930  143.8930 C   0  0  0  0  0  2  0  0  0  0  0  0
  194.5690  176.7910  145.3430 C   0  0  1  0  0  3  0  0  0  0  0  0
  195.3180  173.2170  143.1770 C   0  0  0  0  0  1  0  0  0  0  0  0
  187.9630  175.3000  139.8600 O   0  0  0  0  0  0  0  0  0  0  0  0
  188.1700  174.5950  140.8400 C   0  0  0  0  0  0  0  0  0  0  0  0
  186.8920  175.7450  142.4660 O   0  0  0  0  0  1  0  0  0  0  0  0
  188.1520  175.1960  142.2120 C   0  0  2  0  0  3  0  0  0  0  0  0
  189.2130  176.2780  142.3480 C   0  0  0  0  0  2  0  0  0  0  0  0
  189.6410  176.4400  143.8030 C   0  0  1  0  0  3  0  0  0  0  0  0
  189.9690  177.7780  144.0390 O   0  0  0  0  0  1  0  0  0  0  0  0
  187.8790  177.1310  145.2720 O   0  0  0  0  0  1  0  0  0  0  0  0
  188.5190  176.0050  144.7470 C   0  0  2  0  0  3  0  0  0  0  0  0
  189.9550  175.9460  146.6580 O   0  0  0  0  0  1  0  0  0  0  0  0
  189.0630  175.1800  145.9060 C   0  0  0  0  0  2  0  0  0  0  0  0
  195.6730  170.4590  139.3040 C   0  0  0  0  0  3  0  0  0  0  0  0
  196.6420  170.7270  139.9930 O   0  0  0  0  0  0  0  0  0  0  0  0
  1 54  1  1  0  0  0
  1 15  1  0  0  0  0
  3 16  2  0  0  0  0
  3  2  1  0  0  0  0
  4 17  1  1  0  0  0
  4  1  1  0  0  0  0
  5 14  1  6  0  0  0
  5 13  1  0  0  0  0
  7  6  1  0  0  0  0
  7 12  2  0  0  0  0
  8 19  1  0  0  0  0
  9 21  1  6  0  0  0
  9  4  1  0  0  0  0
 10 64  1  1  0  0  0
 10  6  1  0  0  0  0
 10  8  1  0  0  0  0
 11  9  1  0  0  0  0
 13 11  1  1  0  0  0
 13  7  1  0  0  0  0
 14 21  1  0  0  0  0
 16 15  2  0  0  0  0
 18  3  1  0  0  0  0
 19 18  1  6  0  0  0
 19 20  1  0  0  0  0
 20  2  1  0  0  0  0
 20 34  1  1  0  0  0
 22 24  1  0  0  0  0
 22 28  1  1  0  0  0
 22  5  1  0  0  0  0
 23 27  1  0  0  0  0
 24 27  1  6  0  0  0
 25 31  1  0  0  0  0
 25 24  1  0  0  0  0
 26 25  1  0  0  0  0
 26 23  1  0  0  0  0
 29 28  1  0  0  0  0
 30 31  1  0  0  0  0
 31 29  1  0  0  0  0
 32 33  1  0  0  0  0
 32 26  1  0  0  0  0
 34 38  1  0  0  0  0
 34 37  2  0  0  0  0
 36 40  1  0  0  0  0
 36 35  2  0  0  0  0
 38 36  1  0  0  0  0
 40 44  1  0  0  0  0
 41 44  1  0  0  0  0
 41 39  1  0  0  0  0
 43 48  1  0  0  0  0
 43 42  1  0  0  0  0
 45 51  1  0  0  0  0
 46 45  1  0  0  0  0
 46 47  1  0  0  0  0
 46 41  1  0  0  0  0
 47 43  1  0  0  0  0
 47 40  1  0  0  0  0
 49 45  1  0  0  0  0
 49 50  1  0  0  0  0
 50 43  1  0  0  0  0
 51 39  1  0  0  0  0
 51 42  1  0  0  0  0
 52 47  1  0  0  0  0
 53 54  2  0  0  0  0
 54 56  1  0  0  0  0
 56 57  1  0  0  0  0
 56 55  1  0  0  0  0
 57 58  1  0  0  0  0
 58 59  1  0  0  0  0
 58 61  1  0  0  0  0
 61 60  1  0  0  0  0
 61 63  1  0  0  0  0
 63 62  1  0  0  0  0
 64 65  2  0  0  0  0
M  END
>  <MODEL>
9

>  <REMARK>
 VINA RESULT:      -5.1      3.193      8.158
  Name = 
  11 active torsions:
  status: ('A' for Active; 'I' for Inactive)
    1  A    between atoms: N_2  and  C_17
    2  A    between atoms: C_3  and  C_35
    3  A    between atoms: C_6  and  C_9
    4  A    between atoms: C_9  and  C_52
    5  A    between atoms: C_10  and  C_58
    6  A    between atoms: C_15  and  C_28
    7  A    between atoms: C_29  and  C_32
    8  A    between atoms: C_40  and  C_53
    9  A    between atoms: C_43  and  C_53
   10  A    between atoms: C_43  and  C_65
   11  A    between atoms: C_52  and  C_65
                            x       y       z     vdW  Elec       q    Type
                         _______ _______ _______ _____ _____    ______ ____

>  <TORSDO>
F 11

$$$$
