=
 OpenBabel11042417393D

 54 60  0  0  1  0  0  0  0  0999 V2000
  189.8400  172.9370  137.6680 C   0  0  0  0  0  3  0  0  0  0  0  0
  190.3030  173.9730  141.0810 C   0  0  0  0  0  3  0  0  0  0  0  0
  194.8510  174.8880  138.3230 C   0  0  0  0  0  3  0  0  0  0  0  0
  193.8130  175.0030  137.5080 C   0  0  0  0  0  3  0  0  0  0  0  0
  196.5720  173.6080  139.5750 C   0  0  0  0  0  1  0  0  0  0  0  0
  192.3500  173.7640  136.1850 N   0  0  0  0  0  0  0  0  0  0  0  0
  189.4800  173.9320  142.3270 C   0  0  1  0  0  3  0  0  0  0  0  0
  191.3550  172.8770  135.7380 N   0  0  0  0  0  0  0  0  0  0  0  0
  188.9400  172.2220  142.7490 S   0  0  0  0  0  0  0  0  0  0  0  0
  189.3630  171.5770  135.6170 C   0  0  0  0  0  1  0  0  0  0  0  0
  190.5910  171.4590  142.9400 C   0  0  0  0  0  2  0  0  0  0  0  0
  194.1670  173.2030  140.0440 C   0  0  0  0  0  0  0  0  0  0  0  0
  191.1590  171.0330  141.5920 C   0  0  0  0  0  2  0  0  0  0  0  0
  192.0430  173.5330  138.6070 C   0  0  0  0  0  0  0  0  0  0  0  0
  189.7920  173.5690  139.9240 C   0  0  0  0  0  3  0  0  0  0  0  0
  192.7090  174.0560  137.3980 C   0  0  0  0  0  0  0  0  0  0  0  0
  190.2830  172.4840  136.3490 C   0  0  0  0  0  0  0  0  0  0  0  0
  193.3860  171.9920  142.2120 C   0  0  0  0  0  2  0  0  0  0  0  0
  190.5610  173.4190  138.6700 C   0  0  0  0  0  0  0  0  0  0  0  0
  192.7230  173.2200  139.7180 C   0  0  0  0  0  3  0  0  0  0  0  0
  192.6600  170.7690  141.6650 C   0  0  0  0  0  2  0  0  0  0  0  0
  195.1180  173.8190  139.2950 C   0  0  0  0  0  0  0  0  0  0  0  0
  194.5600  172.4800  141.3440 C   0  0  2  0  0  3  0  0  0  0  0  0
  195.4470  173.3050  142.1770 N   0  0  0  0  0  2  0  0  0  0  0  0
  194.6800  174.3500  142.8550 C   0  0  0  0  0  2  0  0  0  0  0  0
  195.6160  175.3170  143.5590 C   0  0  1  0  0  3  0  0  0  0  0  0
  196.4300  176.0860  142.5310 C   0  0  2  0  0  0  0  0  0  0  0  0
  197.3180  176.9960  143.1210 O   0  0  0  0  0  0  0  0  0  0  0  0
  195.7670  176.6660  141.3760 N   0  0  0  0  0  1  0  0  0  0  0  0
  197.8880  175.8980  142.4360 C   0  0  0  0  0  2  0  0  0  0  0  0
  194.8750  176.2020  144.3470 O   0  0  0  0  0  0  0  0  0  0  0  0
  193.6800  175.5240  144.6200 C   0  0  0  0  0  2  0  0  0  0  0  0
  192.4220  174.9000  146.6740 C   0  0  0  0  0  1  0  0  0  0  0  0
  193.0230  176.0530  145.8930 C   0  0  0  0  0  0  0  0  0  0  0  0
  194.0500  176.7590  146.7640 C   0  0  0  0  0  1  0  0  0  0  0  0
  191.9000  177.0210  145.5290 C   0  0  0  0  0  2  0  0  0  0  0  0
  192.0510  177.5100  144.2310 O   0  0  0  0  0  1  0  0  0  0  0  0
  190.1740  174.6300  143.4940 C   0  0  0  0  0  2  0  0  0  0  0  0
  189.3960  174.5630  144.6550 O   0  0  0  0  0  0  0  0  0  0  0  0
  188.7660  175.8000  144.7370 C   0  0  0  0  0  2  0  0  0  0  0  0
  188.1380  176.0350  146.4240 S   0  0  0  0  0  0  0  0  0  0  0  0
  185.6010  177.0750  146.8050 N   0  0  0  0  0  2  0  0  0  0  0  0
  184.3910  177.8490  146.7160 C   0  0  0  0  0  3  0  0  0  0  0  0
  185.0120  179.0420  144.6690 C   0  0  0  0  0  2  0  0  0  0  0  0
  186.5690  177.1570  144.5540 C   0  0  0  0  0  3  0  0  0  0  0  0
  184.1280  178.7020  145.7710 N   0  0  0  0  0  0  0  0  0  0  0  0
  186.6540  176.8510  145.8520 C   0  0  0  0  0  0  0  0  0  0  0  0
  185.3780  177.7880  143.9040 C   0  0  2  0  0  3  0  0  0  0  0  0
  184.4410  178.2920  141.4640 C   0  0  0  0  0  3  0  0  0  0  0  0
  186.7560  177.6050  141.6970 C   0  0  1  0  0  3  0  0  0  0  0  0
  184.9100  177.9240  140.1300 N   0  0  0  0  0  0  0  0  0  0  0  0
  185.5930  178.1230  142.4210 C   0  0  2  0  0  0  0  0  0  0  0  0
  186.3210  177.5440  140.2440 C   0  0  0  0  0  2  0  0  0  0  0  0
  186.6950  178.9450  142.1470 O   0  0  0  0  0  0  0  0  0  0  0  0
  1 19  1  0  0  0  0
  2  7  1  0  0  0  0
  3 22  2  0  0  0  0
  4  3  1  0  0  0  0
  6 16  1  0  0  0  0
  7  9  1  0  0  0  0
  7 38  1  1  0  0  0
  8  6  2  0  0  0  0
  8 17  1  0  0  0  0
  9 11  1  0  0  0  0
 10 17  1  0  0  0  0
 12 23  1  0  0  0  0
 13 21  1  0  0  0  0
 13 11  1  0  0  0  0
 14 19  2  0  0  0  0
 14 20  1  0  0  0  0
 15  2  2  0  0  0  0
 16  4  2  0  0  0  0
 16 14  1  0  0  0  0
 17  1  2  0  0  0  0
 19 15  1  0  0  0  0
 20 12  2  0  0  0  0
 21 18  1  0  0  0  0
 22  5  1  0  0  0  0
 22 12  1  0  0  0  0
 23 24  1  1  0  0  0
 23 18  1  0  0  0  0
 24 25  1  0  0  0  0
 26 25  1  6  0  0  0
 26 31  1  0  0  0  0
 27 29  1  6  0  0  0
 27 28  1  0  0  0  0
 27 26  1  0  0  0  0
 30 27  1  0  0  0  0
 30 28  1  0  0  0  0
 31 32  1  0  0  0  0
 32 34  1  0  0  0  0
 34 33  1  0  0  0  0
 34 35  1  0  0  0  0
 36 34  1  0  0  0  0
 37 36  1  0  0  0  0
 38 39  1  0  0  0  0
 39 40  1  0  0  0  0
 40 41  1  0  0  0  0
 43 42  1  0  0  0  0
 44 46  1  0  0  0  0
 45 47  2  0  0  0  0
 46 43  2  0  0  0  0
 47 41  1  0  0  0  0
 47 42  1  0  0  0  0
 48 45  1  1  0  0  0
 48 44  1  0  0  0  0
 50 53  1  6  0  0  0
 50 54  1  0  0  0  0
 50 52  1  0  0  0  0
 51 53  1  0  0  0  0
 51 49  2  0  0  0  0
 52 49  1  6  0  0  0
 52 48  1  0  0  0  0
 54 52  1  0  0  0  0
M  END
>  <MODEL>
1

>  <REMARK>
 VINA RESULT:      -7.8      0.000      0.000
  Name = 
  14 active torsions:
  status: ('A' for Active; 'I' for Inactive)
    1  A    between atoms: C_2  and  C_11
    2  A    between atoms: O_5  and  C_20
    3  A    between atoms: O_5  and  C_29
    4  A    between atoms: N_6  and  C_36
    5  A    between atoms: N_6  and  C_53
    6  A    between atoms: C_11  and  O_16
    7  A    between atoms: C_11  and  C_36
    8  A    between atoms: C_14  and  C_21
    9  A    between atoms: C_14  and  C_28
   10  A    between atoms: O_16  and  C_28
   11  A    between atoms: C_20  and  C_25
   12  A    between atoms: C_29  and  S_45
   13  A    between atoms: C_31  and  S_45
   14  A    between atoms: C_37  and  C_43
                            x       y       z     vdW  Elec       q    Type
                         _______ _______ _______ _____ _____    ______ ____

>  <TORSDO>
F 14

$$$$
=
 OpenBabel11042417393D

 54 60  0  0  1  0  0  0  0  0999 V2000
  186.9810  177.7090  145.5160 C   0  0  0  0  0  3  0  0  0  0  0  0
  190.4540  177.1930  144.7370 C   0  0  0  0  0  3  0  0  0  0  0  0
  187.5250  176.5760  140.2470 C   0  0  0  0  0  3  0  0  0  0  0  0
  186.9280  177.4510  141.0430 C   0  0  0  0  0  3  0  0  0  0  0  0
  188.0900  174.2820  139.4810 C   0  0  0  0  0  1  0  0  0  0  0  0
  185.4990  177.6150  142.8750 N   0  0  0  0  0  0  0  0  0  0  0  0
  191.7270  177.1590  145.5190 C   0  0  1  0  0  3  0  0  0  0  0  0
  184.9400  177.5420  144.1630 N   0  0  0  0  0  0  0  0  0  0  0  0
  191.6790  175.9140  146.8760 S   0  0  0  0  0  0  0  0  0  0  0  0
  184.6960  177.5250  146.5320 C   0  0  0  0  0  1  0  0  0  0  0  0
  191.4090  174.4200  145.8580 C   0  0  0  0  0  2  0  0  0  0  0  0
  188.7290  174.9960  141.7710 C   0  0  0  0  0  0  0  0  0  0  0  0
  189.9320  174.2370  145.5310 C   0  0  0  0  0  2  0  0  0  0  0  0
  187.7550  176.7870  143.3620 C   0  0  0  0  0  0  0  0  0  0  0  0
  189.3070  177.5010  145.3320 C   0  0  0  0  0  3  0  0  0  0  0  0
  186.6840  177.2730  142.4700 C   0  0  0  0  0  0  0  0  0  0  0  0
  185.5400  177.5570  145.3100 C   0  0  0  0  0  0  0  0  0  0  0  0
  190.5110  173.6990  143.1560 C   0  0  0  0  0  2  0  0  0  0  0  0
  187.9770  177.4100  144.6940 C   0  0  0  0  0  0  0  0  0  0  0  0
  188.6180  175.8340  142.9880 C   0  0  0  0  0  3  0  0  0  0  0  0
  189.7210  173.2560  144.3810 C   0  0  0  0  0  2  0  0  0  0  0  0
  188.0820  175.2650  140.6080 C   0  0  0  0  0  0  0  0  0  0  0  0
  189.6840  173.7940  141.8610 C   0  0  2  0  0  3  0  0  0  0  0  0
  190.6030  173.7430  140.7140 N   0  0  0  0  0  2  0  0  0  0  0  0
  191.8280  173.0300  141.0740 C   0  0  0  0  0  2  0  0  0  0  0  0
  191.9420  171.7430  140.2780 C   0  0  1  0  0  3  0  0  0  0  0  0
  192.0460  170.5590  141.2260 C   0  0  2  0  0  0  0  0  0  0  0  0
  190.9580  169.6820  141.1110 O   0  0  0  0  0  0  0  0  0  0  0  0
  192.4030  170.7800  142.6170 N   0  0  0  0  0  1  0  0  0  0  0  0
  192.2210  169.1930  140.7030 C   0  0  0  0  0  2  0  0  0  0  0  0
  190.8270  171.6000  139.4490 O   0  0  0  0  0  0  0  0  0  0  0  0
  191.3320  171.7060  138.1470 C   0  0  0  0  0  2  0  0  0  0  0  0
  189.6310  171.7480  136.3310 C   0  0  0  0  0  1  0  0  0  0  0  0
  190.5250  170.8530  137.1700 C   0  0  0  0  0  0  0  0  0  0  0  0
  191.4550  170.0810  136.2490 C   0  0  0  0  0  1  0  0  0  0  0  0
  189.6380  169.8820  137.9440 C   0  0  0  0  0  2  0  0  0  0  0  0
  190.1490  168.5840  137.9010 O   0  0  0  0  0  1  0  0  0  0  0  0
  192.9470  176.9940  144.6170 C   0  0  0  0  0  2  0  0  0  0  0  0
  194.1310  177.2260  145.3250 O   0  0  0  0  0  0  0  0  0  0  0  0
  195.0760  176.4010  144.7220 C   0  0  0  0  0  2  0  0  0  0  0  0
  195.3180  174.9270  145.7540 S   0  0  0  0  0  0  0  0  0  0  0  0
  196.0290  172.5200  144.5860 N   0  0  0  0  0  2  0  0  0  0  0  0
  196.2280  171.4250  143.6720 C   0  0  0  0  0  3  0  0  0  0  0  0
  195.4630  172.6280  141.6800 C   0  0  0  0  0  2  0  0  0  0  0  0
  195.9230  174.5160  143.1680 C   0  0  0  0  0  3  0  0  0  0  0  0
  195.9920  171.4790  142.3950 N   0  0  0  0  0  0  0  0  0  0  0  0
  195.7760  173.9150  144.3530 C   0  0  0  0  0  0  0  0  0  0  0  0
  196.3560  173.8280  141.9120 C   0  0  2  0  0  3  0  0  0  0  0  0
  195.2480  174.6640  139.6400 C   0  0  0  0  0  3  0  0  0  0  0  0
  197.5910  175.1550  140.0360 C   0  0  1  0  0  3  0  0  0  0  0  0
  195.8150  175.0850  138.3600 N   0  0  0  0  0  0  0  0  0  0  0  0
  196.3400  174.7390  140.6760 C   0  0  2  0  0  0  0  0  0  0  0  0
  197.2220  175.4250  138.5890 C   0  0  0  0  0  2  0  0  0  0  0  0
  196.8570  176.0270  140.8760 O   0  0  0  0  0  0  0  0  0  0  0  0
  2 15  2  0  0  0  0
  2  7  1  0  0  0  0
  3 22  1  0  0  0  0
  3  4  2  0  0  0  0
  4 16  1  0  0  0  0
  5 22  1  0  0  0  0
  6  8  1  0  0  0  0
  7 38  1  6  0  0  0
  7  9  1  0  0  0  0
  8 17  2  0  0  0  0
 11  9  1  0  0  0  0
 12 23  1  0  0  0  0
 12 20  1  0  0  0  0
 13 11  1  0  0  0  0
 14 19  1  0  0  0  0
 16  6  2  0  0  0  0
 16 14  1  0  0  0  0
 17  1  1  0  0  0  0
 17 10  1  0  0  0  0
 18 21  1  0  0  0  0
 19 15  1  0  0  0  0
 19  1  2  0  0  0  0
 20 14  2  0  0  0  0
 21 13  1  0  0  0  0
 22 12  2  0  0  0  0
 23 24  1  6  0  0  0
 23 18  1  0  0  0  0
 24 25  1  0  0  0  0
 26 25  1  1  0  0  0
 26 27  1  0  0  0  0
 27 29  1  1  0  0  0
 28 27  1  0  0  0  0
 30 28  1  0  0  0  0
 30 27  1  0  0  0  0
 31 26  1  0  0  0  0
 32 31  1  0  0  0  0
 33 34  1  0  0  0  0
 34 36  1  0  0  0  0
 34 32  1  0  0  0  0
 35 34  1  0  0  0  0
 37 36  1  0  0  0  0
 38 39  1  0  0  0  0
 40 39  1  0  0  0  0
 40 41  1  0  0  0  0
 43 42  1  0  0  0  0
 44 46  1  0  0  0  0
 45 47  2  0  0  0  0
 46 43  2  0  0  0  0
 47 42  1  0  0  0  0
 47 41  1  0  0  0  0
 48 44  1  6  0  0  0
 48 45  1  0  0  0  0
 50 53  1  6  0  0  0
 50 52  1  0  0  0  0
 50 54  1  0  0  0  0
 51 53  1  0  0  0  0
 51 49  2  0  0  0  0
 52 49  1  6  0  0  0
 52 54  1  0  0  0  0
 52 48  1  0  0  0  0
M  END
>  <MODEL>
2

>  <REMARK>
 VINA RESULT:      -7.5      2.782      9.033
  Name = 
  14 active torsions:
  status: ('A' for Active; 'I' for Inactive)
    1  A    between atoms: C_2  and  C_11
    2  A    between atoms: O_5  and  C_20
    3  A    between atoms: O_5  and  C_29
    4  A    between atoms: N_6  and  C_36
    5  A    between atoms: N_6  and  C_53
    6  A    between atoms: C_11  and  O_16
    7  A    between atoms: C_11  and  C_36
    8  A    between atoms: C_14  and  C_21
    9  A    between atoms: C_14  and  C_28
   10  A    between atoms: O_16  and  C_28
   11  A    between atoms: C_20  and  C_25
   12  A    between atoms: C_29  and  S_45
   13  A    between atoms: C_31  and  S_45
   14  A    between atoms: C_37  and  C_43
                            x       y       z     vdW  Elec       q    Type
                         _______ _______ _______ _____ _____    ______ ____

>  <TORSDO>
F 14

$$$$
=
 OpenBabel11042417393D

 54 60  0  0  1  0  0  0  0  0999 V2000
  187.1830  177.5540  145.7080 C   0  0  0  0  0  3  0  0  0  0  0  0
  190.6210  177.0500  144.7760 C   0  0  0  0  0  3  0  0  0  0  0  0
  187.5120  176.5750  140.3900 C   0  0  0  0  0  3  0  0  0  0  0  0
  186.9510  177.4280  141.2350 C   0  0  0  0  0  3  0  0  0  0  0  0
  188.0360  174.3030  139.5350 C   0  0  0  0  0  1  0  0  0  0  0  0
  185.5970  177.5430  143.1270 N   0  0  0  0  0  0  0  0  0  0  0  0
  191.9240  176.9890  145.5050 C   0  0  1  0  0  3  0  0  0  0  0  0
  185.0890  177.4340  144.4340 N   0  0  0  0  0  0  0  0  0  0  0  0
  191.9240  175.7050  146.8260 S   0  0  0  0  0  0  0  0  0  0  0  0
  184.9410  177.3480  146.8090 C   0  0  0  0  0  1  0  0  0  0  0  0
  191.6070  174.2420  145.7770 C   0  0  0  0  0  2  0  0  0  0  0  0
  188.7690  174.9470  141.8180 C   0  0  0  0  0  0  0  0  0  0  0  0
  190.1180  174.0740  145.5030 C   0  0  0  0  0  2  0  0  0  0  0  0
  187.8680  176.6930  143.4990 C   0  0  0  0  0  0  0  0  0  0  0  0
  189.5000  177.3440  145.4260 C   0  0  0  0  0  3  0  0  0  0  0  0
  186.7640  177.2090  142.6650 C   0  0  0  0  0  0  0  0  0  0  0  0
  185.7350  177.4130  145.5560 C   0  0  0  0  0  0  0  0  0  0  0  0
  190.5990  173.6040  143.0920 C   0  0  0  0  0  2  0  0  0  0  0  0
  188.1450  177.2760  144.8390 C   0  0  0  0  0  0  0  0  0  0  0  0
  188.7100  175.7490  143.0620 C   0  0  0  0  0  3  0  0  0  0  0  0
  189.8570  173.1270  144.3340 C   0  0  0  0  0  2  0  0  0  0  0  0
  188.0770  175.2520  140.6910 C   0  0  0  0  0  0  0  0  0  0  0  0
  189.7210  173.7400  141.8350 C   0  0  2  0  0  3  0  0  0  0  0  0
  190.5940  173.7200  140.6510 N   0  0  0  0  0  2  0  0  0  0  0  0
  191.3370  172.4620  140.5870 C   0  0  0  0  0  2  0  0  0  0  0  0
  190.5330  171.4130  139.8400 C   0  0  1  0  0  3  0  0  0  0  0  0
  190.8810  171.4560  138.3600 C   0  0  2  0  0  0  0  0  0  0  0  0
  190.5820  170.2530  137.7040 O   0  0  0  0  0  0  0  0  0  0  0  0
  192.1670  171.9830  137.9390 N   0  0  0  0  0  1  0  0  0  0  0  0
  189.8220  171.3890  137.3390 C   0  0  0  0  0  2  0  0  0  0  0  0
  190.8070  170.1470  140.3630 O   0  0  0  0  0  0  0  0  0  0  0  0
  191.7800  170.3680  141.3450 C   0  0  0  0  0  2  0  0  0  0  0  0
  192.3750  168.3750  142.7120 C   0  0  0  0  0  1  0  0  0  0  0  0
  192.7220  169.1720  141.4680 C   0  0  0  0  0  0  0  0  0  0  0  0
  192.5940  168.2700  140.2510 C   0  0  0  0  0  1  0  0  0  0  0  0
  194.1620  169.6620  141.6000 C   0  0  0  0  0  2  0  0  0  0  0  0
  195.0680  168.7080  141.1330 O   0  0  0  0  0  1  0  0  0  0  0  0
  193.1060  176.8460  144.5510 C   0  0  0  0  0  2  0  0  0  0  0  0
  192.6740  176.5550  143.2530 O   0  0  0  0  0  0  0  0  0  0  0  0
  193.8030  176.0700  142.6000 C   0  0  0  0  0  2  0  0  0  0  0  0
  195.2000  176.0630  143.7590 S   0  0  0  0  0  0  0  0  0  0  0  0
  196.1430  174.1300  142.0160 N   0  0  0  0  0  0  0  0  0  0  0  0
  196.7510  172.9610  141.4370 C   0  0  0  0  0  3  0  0  0  0  0  0
  197.1400  171.8090  143.5630 C   0  0  0  0  0  2  0  0  0  0  0  0
  195.4490  173.4350  144.2620 C   0  0  0  0  0  2  0  0  0  0  0  0
  197.1760  171.9370  142.1160 N   0  0  0  0  0  0  0  0  0  0  0  0
  195.6500  174.3840  143.3420 C   0  0  0  0  0  0  0  0  0  0  0  0
  195.7180  171.9780  144.0550 C   0  0  2  0  0  3  0  0  0  0  0  0
  196.6320  170.7150  146.2130 C   0  0  0  0  0  3  0  0  0  0  0  0
  194.4500  170.1010  145.3490 C   0  0  1  0  0  3  0  0  0  0  0  0
  196.2650  169.4510  146.8470 N   0  0  0  0  0  0  0  0  0  0  0  0
  195.4950  171.1270  145.3130 C   0  0  2  0  0  0  0  0  0  0  0  0
  194.9290  169.0840  146.3680 C   0  0  0  0  0  2  0  0  0  0  0  0
  194.2840  171.3560  145.9830 O   0  0  0  0  0  0  0  0  0  0  0  0
  2 15  2  0  0  0  0
  2  7  1  0  0  0  0
  3 22  1  0  0  0  0
  3  4  2  0  0  0  0
  4 16  1  0  0  0  0
  5 22  1  0  0  0  0
  6  8  1  0  0  0  0
  7 38  1  6  0  0  0
  7  9  1  0  0  0  0
  8 17  2  0  0  0  0
 11  9  1  0  0  0  0
 12 23  1  0  0  0  0
 12 20  1  0  0  0  0
 13 11  1  0  0  0  0
 14 19  1  0  0  0  0
 16  6  2  0  0  0  0
 16 14  1  0  0  0  0
 17  1  1  0  0  0  0
 17 10  1  0  0  0  0
 18 21  1  0  0  0  0
 19 15  1  0  0  0  0
 19  1  2  0  0  0  0
 20 14  2  0  0  0  0
 21 13  1  0  0  0  0
 22 12  2  0  0  0  0
 23 24  1  6  0  0  0
 23 18  1  0  0  0  0
 25 24  1  0  0  0  0
 26 31  1  0  0  0  0
 26 25  1  1  0  0  0
 27 29  1  6  0  0  0
 27 26  1  0  0  0  0
 28 27  1  0  0  0  0
 30 28  1  0  0  0  0
 30 27  1  0  0  0  0
 31 32  1  0  0  0  0
 32 34  1  0  0  0  0
 34 36  1  0  0  0  0
 34 33  1  0  0  0  0
 35 34  1  0  0  0  0
 37 36  1  0  0  0  0
 39 38  1  0  0  0  0
 40 39  1  0  0  0  0
 40 41  1  0  0  0  0
 42 47  2  0  0  0  0
 43 42  1  0  0  0  0
 43 46  2  0  0  0  0
 46 44  1  0  0  0  0
 47 41  1  0  0  0  0
 47 45  1  0  0  0  0
 48 44  1  1  0  0  0
 48 45  1  0  0  0  0
 48 52  1  0  0  0  0
 49 51  2  0  0  0  0
 50 54  1  0  0  0  0
 50 53  1  1  0  0  0
 52 50  1  0  0  0  0
 52 54  1  0  0  0  0
 52 49  1  1  0  0  0
 53 51  1  0  0  0  0
M  END
>  <MODEL>
3

>  <REMARK>
 VINA RESULT:      -7.4      3.214      9.277
  Name = 
  14 active torsions:
  status: ('A' for Active; 'I' for Inactive)
    1  A    between atoms: C_2  and  C_11
    2  A    between atoms: O_5  and  C_20
    3  A    between atoms: O_5  and  C_29
    4  A    between atoms: N_6  and  C_36
    5  A    between atoms: N_6  and  C_53
    6  A    between atoms: C_11  and  O_16
    7  A    between atoms: C_11  and  C_36
    8  A    between atoms: C_14  and  C_21
    9  A    between atoms: C_14  and  C_28
   10  A    between atoms: O_16  and  C_28
   11  A    between atoms: C_20  and  C_25
   12  A    between atoms: C_29  and  S_45
   13  A    between atoms: C_31  and  S_45
   14  A    between atoms: C_37  and  C_43
                            x       y       z     vdW  Elec       q    Type
                         _______ _______ _______ _____ _____    ______ ____

>  <TORSDO>
F 14

$$$$
=
 OpenBabel11042417393D

 54 60  0  0  1  0  0  0  0  0999 V2000
  194.8210  174.0760  137.0950 C   0  0  0  0  0  3  0  0  0  0  0  0
  192.3330  173.7310  139.6700 C   0  0  0  0  0  3  0  0  0  0  0  0
  196.9520  175.4270  141.8880 C   0  0  0  0  0  3  0  0  0  0  0  0
  196.8680  175.8830  140.6460 C   0  0  0  0  0  3  0  0  0  0  0  0
  197.4580  173.6990  143.5980 C   0  0  0  0  0  1  0  0  0  0  0  0
  197.2540  175.2950  138.4260 N   0  0  0  0  0  0  0  0  0  0  0  0
  190.9180  173.2570  139.7270 C   0  0  1  0  0  3  0  0  0  0  0  0
  197.1970  174.6840  137.1610 N   0  0  0  0  0  0  0  0  0  0  0  0
  190.7320  171.5380  139.0910 S   0  0  0  0  0  0  0  0  0  0  0  0
  196.3890  173.6090  135.1960 C   0  0  0  0  0  1  0  0  0  0  0  0
  191.8310  170.6920  140.2820 C   0  0  0  0  0  2  0  0  0  0  0  0
  195.7190  173.2480  141.8850 C   0  0  0  0  0  0  0  0  0  0  0  0
  193.2880  170.7810  139.8440 C   0  0  0  0  0  2  0  0  0  0  0  0
  195.3510  174.1820  139.5020 C   0  0  0  0  0  0  0  0  0  0  0  0
  192.9690  173.8130  138.5070 C   0  0  0  0  0  3  0  0  0  0  0  0
  196.5120  175.0940  139.4730 C   0  0  0  0  0  0  0  0  0  0  0  0
  196.1850  174.1340  136.5700 C   0  0  0  0  0  0  0  0  0  0  0  0
  193.9700  171.3430  142.1860 C   0  0  0  0  0  2  0  0  0  0  0  0
  194.4090  174.1150  138.3540 C   0  0  0  0  0  0  0  0  0  0  0  0
  195.0490  173.4460  140.5790 C   0  0  0  0  0  3  0  0  0  0  0  0
  194.2460  170.4470  140.9850 C   0  0  0  0  0  2  0  0  0  0  0  0
  196.6970  174.0600  142.3630 C   0  0  0  0  0  0  0  0  0  0  0  0
  195.2090  172.0730  142.7360 C   0  0  2  0  0  3  0  0  0  0  0  0
  194.9320  172.4860  144.1210 N   0  0  0  0  0  2  0  0  0  0  0  0
  193.8620  173.4830  144.1490 C   0  0  0  0  0  2  0  0  0  0  0  0
  194.2000  174.5910  145.1300 C   0  0  1  0  0  3  0  0  0  0  0  0
  194.2290  175.9280  144.4070 C   0  0  2  0  0  0  0  0  0  0  0  0
  193.9840  177.0080  145.2670 O   0  0  0  0  0  0  0  0  0  0  0  0
  193.5200  176.0810  143.1490 N   0  0  0  0  0  1  0  0  0  0  0  0
  195.2790  176.9180  144.7040 C   0  0  0  0  0  2  0  0  0  0  0  0
  193.2520  174.6180  146.1560 O   0  0  0  0  0  0  0  0  0  0  0  0
  192.0250  174.4060  145.5160 C   0  0  0  0  0  2  0  0  0  0  0  0
  189.6210  174.2920  146.1520 C   0  0  0  0  0  1  0  0  0  0  0  0
  190.8890  175.1200  146.2470 C   0  0  0  0  0  0  0  0  0  0  0  0
  191.2430  175.3140  147.7130 C   0  0  0  0  0  1  0  0  0  0  0  0
  190.6270  176.4740  145.5940 C   0  0  0  0  0  2  0  0  0  0  0  0
  190.1140  177.3900  146.5130 O   0  0  0  0  0  1  0  0  0  0  0  0
  190.3100  173.4360  141.1150 C   0  0  0  0  0  2  0  0  0  0  0  0
  189.0090  172.9240  141.1650 O   0  0  0  0  0  0  0  0  0  0  0  0
  188.2230  173.9850  141.6050 C   0  0  0  0  0  2  0  0  0  0  0  0
  189.2880  175.2160  142.4090 S   0  0  0  0  0  0  0  0  0  0  0  0
  187.5590  177.1030  141.3540 N   0  0  0  0  0  0  0  0  0  0  0  0
  186.4320  177.9590  141.0900 C   0  0  0  0  0  3  0  0  0  0  0  0
  185.2010  177.3780  143.1270 C   0  0  0  0  0  2  0  0  0  0  0  0
  187.4450  176.6320  143.7570 C   0  0  0  0  0  2  0  0  0  0  0  0
  185.4040  178.0890  141.8760 N   0  0  0  0  0  0  0  0  0  0  0  0
  187.9590  176.4040  142.5450 C   0  0  0  0  0  0  0  0  0  0  0  0
  186.3710  177.6310  144.0520 C   0  0  2  0  0  3  0  0  0  0  0  0
  184.4650  177.8850  145.8940 C   0  0  0  0  0  3  0  0  0  0  0  0
  186.7820  178.0520  146.5940 C   0  0  1  0  0  3  0  0  0  0  0  0
  184.4610  178.4540  147.2400 N   0  0  0  0  0  0  0  0  0  0  0  0
  185.8970  177.6110  145.5130 C   0  0  2  0  0  0  0  0  0  0  0  0
  185.8520  178.5250  147.6970 C   0  0  0  0  0  2  0  0  0  0  0  0
  186.5450  176.6810  146.3390 O   0  0  0  0  0  0  0  0  0  0  0  0
  1 19  1  0  0  0  0
  2  7  1  0  0  0  0
  3 22  2  0  0  0  0
  4  3  1  0  0  0  0
  6 16  1  0  0  0  0
  7 38  1  1  0  0  0
  8  6  2  0  0  0  0
  9  7  1  0  0  0  0
  9 11  1  0  0  0  0
 10 17  1  0  0  0  0
 12 22  1  0  0  0  0
 12 23  1  0  0  0  0
 13 11  1  0  0  0  0
 13 21  1  0  0  0  0
 14 20  1  0  0  0  0
 15  2  2  0  0  0  0
 16 14  1  0  0  0  0
 16  4  2  0  0  0  0
 17  1  2  0  0  0  0
 17  8  1  0  0  0  0
 18 23  1  0  0  0  0
 19 15  1  0  0  0  0
 19 14  2  0  0  0  0
 20 12  2  0  0  0  0
 21 18  1  0  0  0  0
 22  5  1  0  0  0  0
 23 24  1  1  0  0  0
 24 25  1  0  0  0  0
 26 25  1  6  0  0  0
 26 31  1  0  0  0  0
 27 29  1  6  0  0  0
 27 30  1  0  0  0  0
 27 26  1  0  0  0  0
 27 28  1  0  0  0  0
 30 28  1  0  0  0  0
 32 31  1  0  0  0  0
 32 34  1  0  0  0  0
 33 34  1  0  0  0  0
 34 35  1  0  0  0  0
 36 34  1  0  0  0  0
 36 37  1  0  0  0  0
 38 39  1  0  0  0  0
 39 40  1  0  0  0  0
 40 41  1  0  0  0  0
 41 47  1  0  0  0  0
 42 47  2  0  0  0  0
 43 42  1  0  0  0  0
 43 46  2  0  0  0  0
 45 48  1  0  0  0  0
 46 44  1  0  0  0  0
 47 45  1  0  0  0  0
 48 44  1  6  0  0  0
 48 52  1  0  0  0  0
 49 51  2  0  0  0  0
 50 53  1  1  0  0  0
 51 53  1  0  0  0  0
 52 49  1  1  0  0  0
 52 54  1  0  0  0  0
 52 50  1  0  0  0  0
 54 50  1  0  0  0  0
M  END
>  <MODEL>
4

>  <REMARK>
 VINA RESULT:      -7.4      2.302      3.932
  Name = 
  14 active torsions:
  status: ('A' for Active; 'I' for Inactive)
    1  A    between atoms: C_2  and  C_11
    2  A    between atoms: O_5  and  C_20
    3  A    between atoms: O_5  and  C_29
    4  A    between atoms: N_6  and  C_36
    5  A    between atoms: N_6  and  C_53
    6  A    between atoms: C_11  and  O_16
    7  A    between atoms: C_11  and  C_36
    8  A    between atoms: C_14  and  C_21
    9  A    between atoms: C_14  and  C_28
   10  A    between atoms: O_16  and  C_28
   11  A    between atoms: C_20  and  C_25
   12  A    between atoms: C_29  and  S_45
   13  A    between atoms: C_31  and  S_45
   14  A    between atoms: C_37  and  C_43
                            x       y       z     vdW  Elec       q    Type
                         _______ _______ _______ _____ _____    ______ ____

>  <TORSDO>
F 14

$$$$
=
 OpenBabel11042417393D

 54 60  0  0  1  0  0  0  0  0999 V2000
  186.8260  177.7270  145.7130 C   0  0  0  0  0  3  0  0  0  0  0  0
  190.3230  177.2140  145.0450 C   0  0  0  0  0  3  0  0  0  0  0  0
  187.5410  176.6180  140.4590 C   0  0  0  0  0  3  0  0  0  0  0  0
  186.9190  177.4900  141.2400 C   0  0  0  0  0  3  0  0  0  0  0  0
  188.1300  174.3280  139.7010 C   0  0  0  0  0  1  0  0  0  0  0  0
  185.4300  177.6460  143.0250 N   0  0  0  0  0  0  0  0  0  0  0  0
  191.5700  177.1760  145.8670 C   0  0  1  0  0  3  0  0  0  0  0  0
  184.8300  177.5670  144.2940 N   0  0  0  0  0  0  0  0  0  0  0  0
  191.4770  175.9250  147.2160 S   0  0  0  0  0  0  0  0  0  0  0  0
  184.5100  177.5390  146.6540 C   0  0  0  0  0  1  0  0  0  0  0  0
  191.2400  174.4350  146.1840 C   0  0  0  0  0  2  0  0  0  0  0  0
  188.6950  175.0310  142.0140 C   0  0  0  0  0  0  0  0  0  0  0  0
  189.7750  174.2550  145.8070 C   0  0  0  0  0  2  0  0  0  0  0  0
  187.6700  176.8150  143.5810 C   0  0  0  0  0  0  0  0  0  0  0  0
  189.1570  177.5190  145.6040 C   0  0  0  0  0  3  0  0  0  0  0  0
  186.6280  177.3050  142.6570 C   0  0  0  0  0  0  0  0  0  0  0  0
  185.3930  177.5760  145.4600 C   0  0  0  0  0  0  0  0  0  0  0  0
  190.4310  173.7280  143.4500 C   0  0  0  0  0  2  0  0  0  0  0  0
  187.8480  177.4320  144.9220 C   0  0  0  0  0  0  0  0  0  0  0  0
  188.5440  175.8630  143.2300 C   0  0  0  0  0  3  0  0  0  0  0  0
  189.6010  173.2790  144.6460 C   0  0  0  0  0  2  0  0  0  0  0  0
  188.0860  175.3060  140.8320 C   0  0  0  0  0  0  0  0  0  0  0  0
  189.6460  173.8280  142.1300 C   0  0  2  0  0  3  0  0  0  0  0  0
  190.6020  173.7830  141.0120 N   0  0  0  0  0  2  0  0  0  0  0  0
  191.1130  172.4250  140.8350 C   0  0  0  0  0  2  0  0  0  0  0  0
  192.3140  172.4300  139.9060 C   0  0  1  0  0  3  0  0  0  0  0  0
  191.9070  171.9100  138.5370 C   0  0  2  0  0  0  0  0  0  0  0  0
  193.0040  171.4750  137.7800 O   0  0  0  0  0  0  0  0  0  0  0  0
  190.9730  172.6720  137.7260 N   0  0  0  0  0  1  0  0  0  0  0  0
  192.0790  170.4880  138.1940 C   0  0  0  0  0  2  0  0  0  0  0  0
  192.8210  173.7280  139.7970 O   0  0  0  0  0  0  0  0  0  0  0  0
  194.1460  173.6330  140.2400 C   0  0  0  0  0  2  0  0  0  0  0  0
  194.3200  174.9900  138.1610 C   0  0  0  0  0  1  0  0  0  0  0  0
  195.1080  174.2820  139.2470 C   0  0  0  0  0  0  0  0  0  0  0  0
  195.9930  175.2960  139.9550 C   0  0  0  0  0  1  0  0  0  0  0  0
  195.9720  173.2100  138.5900 C   0  0  0  0  0  2  0  0  0  0  0  0
  195.9590  172.0250  139.3270 O   0  0  0  0  0  1  0  0  0  0  0  0
  192.8190  177.0150  145.0050 C   0  0  0  0  0  2  0  0  0  0  0  0
  193.9680  176.9210  145.7960 O   0  0  0  0  0  0  0  0  0  0  0  0
  195.0150  176.7760  144.8910 C   0  0  0  0  0  2  0  0  0  0  0  0
  194.4290  175.8330  143.4550 S   0  0  0  0  0  0  0  0  0  0  0  0
  196.6630  174.4020  144.2460 N   0  0  0  0  0  2  0  0  0  0  0  0
  197.5620  173.4550  144.8520 C   0  0  0  0  0  3  0  0  0  0  0  0
  195.8120  172.0020  145.7590 C   0  0  0  0  0  2  0  0  0  0  0  0
  194.5230  173.2190  144.0710 C   0  0  0  0  0  3  0  0  0  0  0  0
  197.1870  172.3950  145.5040 N   0  0  0  0  0  0  0  0  0  0  0  0
  195.2500  174.3390  143.9920 C   0  0  0  0  0  0  0  0  0  0  0  0
  195.0660  171.8770  144.4480 C   0  0  2  0  0  3  0  0  0  0  0  0
  194.1940  169.5400  145.3790 C   0  0  0  0  0  3  0  0  0  0  0  0
  193.1050  170.4900  143.4310 C   0  0  1  0  0  3  0  0  0  0  0  0
  193.3930  168.4750  144.7810 N   0  0  0  0  0  0  0  0  0  0  0  0
  193.9890  170.7890  144.5600 C   0  0  2  0  0  0  0  0  0  0  0  0
  192.6930  169.0410  143.6240 C   0  0  0  0  0  2  0  0  0  0  0  0
  192.6650  171.2520  144.5400 O   0  0  0  0  0  0  0  0  0  0  0  0
  2 15  2  0  0  0  0
  2  7  1  0  0  0  0
  3 22  1  0  0  0  0
  3  4  2  0  0  0  0
  4 16  1  0  0  0  0
  5 22  1  0  0  0  0
  6  8  1  0  0  0  0
  7 38  1  6  0  0  0
  7  9  1  0  0  0  0
  8 17  2  0  0  0  0
 11  9  1  0  0  0  0
 12 23  1  0  0  0  0
 12 20  1  0  0  0  0
 13 11  1  0  0  0  0
 14 19  1  0  0  0  0
 16  6  2  0  0  0  0
 16 14  1  0  0  0  0
 17  1  1  0  0  0  0
 17 10  1  0  0  0  0
 18 21  1  0  0  0  0
 19 15  1  0  0  0  0
 19  1  2  0  0  0  0
 20 14  2  0  0  0  0
 21 13  1  0  0  0  0
 22 12  2  0  0  0  0
 23 24  1  6  0  0  0
 23 18  1  0  0  0  0
 25 24  1  0  0  0  0
 26 25  1  1  0  0  0
 27 29  1  6  0  0  0
 27 26  1  0  0  0  0
 28 30  1  0  0  0  0
 28 27  1  0  0  0  0
 30 27  1  0  0  0  0
 31 26  1  0  0  0  0
 31 32  1  0  0  0  0
 33 34  1  0  0  0  0
 34 35  1  0  0  0  0
 34 32  1  0  0  0  0
 36 34  1  0  0  0  0
 36 37  1  0  0  0  0
 38 39  1  0  0  0  0
 40 39  1  0  0  0  0
 41 47  1  0  0  0  0
 41 40  1  0  0  0  0
 42 43  1  0  0  0  0
 43 46  2  0  0  0  0
 46 44  1  0  0  0  0
 47 45  2  0  0  0  0
 47 42  1  0  0  0  0
 48 45  1  1  0  0  0
 48 52  1  0  0  0  0
 48 44  1  0  0  0  0
 50 53  1  1  0  0  0
 50 54  1  0  0  0  0
 50 52  1  0  0  0  0
 51 49  2  0  0  0  0
 52 49  1  1  0  0  0
 53 51  1  0  0  0  0
 54 52  1  0  0  0  0
M  END
>  <MODEL>
5

>  <REMARK>
 VINA RESULT:      -7.4      2.912      8.726
  Name = 
  14 active torsions:
  status: ('A' for Active; 'I' for Inactive)
    1  A    between atoms: C_2  and  C_11
    2  A    between atoms: O_5  and  C_20
    3  A    between atoms: O_5  and  C_29
    4  A    between atoms: N_6  and  C_36
    5  A    between atoms: N_6  and  C_53
    6  A    between atoms: C_11  and  O_16
    7  A    between atoms: C_11  and  C_36
    8  A    between atoms: C_14  and  C_21
    9  A    between atoms: C_14  and  C_28
   10  A    between atoms: O_16  and  C_28
   11  A    between atoms: C_20  and  C_25
   12  A    between atoms: C_29  and  S_45
   13  A    between atoms: C_31  and  S_45
   14  A    between atoms: C_37  and  C_43
                            x       y       z     vdW  Elec       q    Type
                         _______ _______ _______ _____ _____    ______ ____

>  <TORSDO>
F 14

$$$$
=
 OpenBabel11042417393D

 54 60  0  0  1  0  0  0  0  0999 V2000
  195.3650  170.4140  146.1280 C   0  0  0  0  0  3  0  0  0  0  0  0
  193.4760  173.2800  145.0520 C   0  0  0  0  0  3  0  0  0  0  0  0
  192.7550  169.2610  141.5240 C   0  0  0  0  0  3  0  0  0  0  0  0
  192.9620  168.7530  142.7300 C   0  0  0  0  0  3  0  0  0  0  0  0
  193.4850  170.2340  139.3580 C   0  0  0  0  0  1  0  0  0  0  0  0
  194.6470  168.1660  144.2280 N   0  0  0  0  0  0  0  0  0  0  0  0
  193.3040  174.6840  145.5340 C   0  0  1  0  0  3  0  0  0  0  0  0
  195.7240  168.2000  145.1310 N   0  0  0  0  0  0  0  0  0  0  0  0
  194.9090  175.5820  145.6520 S   0  0  0  0  0  0  0  0  0  0  0  0
  197.2320  168.8990  146.8370 C   0  0  0  0  0  1  0  0  0  0  0  0
  195.4080  175.4700  143.8970 C   0  0  0  0  0  2  0  0  0  0  0  0
  194.0330  171.4130  141.4730 C   0  0  0  0  0  0  0  0  0  0  0  0
  196.0850  174.1370  143.6020 C   0  0  0  0  0  2  0  0  0  0  0  0
  194.3090  170.5730  143.9030 C   0  0  0  0  0  0  0  0  0  0  0  0
  194.2080  172.4160  145.7460 C   0  0  0  0  0  3  0  0  0  0  0  0
  194.0270  169.1470  143.6460 C   0  0  0  0  0  0  0  0  0  0  0  0
  196.0740  169.1480  145.9410 C   0  0  0  0  0  0  0  0  0  0  0  0
  194.7560  173.9140  141.4930 C   0  0  0  0  0  2  0  0  0  0  0  0
  194.5720  171.0590  145.2840 C   0  0  0  0  0  0  0  0  0  0  0  0
  194.2610  171.4960  142.9350 C   0  0  0  0  0  3  0  0  0  0  0  0
  196.1500  173.8510  142.1040 C   0  0  0  0  0  2  0  0  0  0  0  0
  193.5160  170.3230  140.8510 C   0  0  0  0  0  0  0  0  0  0  0  0
  194.3660  172.6770  140.6630 C   0  0  2  0  0  3  0  0  0  0  0  0
  193.2650  173.0480  139.7600 N   0  0  0  0  0  2  0  0  0  0  0  0
  192.0220  173.2090  140.5130 C   0  0  0  0  0  2  0  0  0  0  0  0
  190.9040  173.6640  139.5920 C   0  0  1  0  0  3  0  0  0  0  0  0
  190.4530  172.5050  138.7180 C   0  0  2  0  0  0  0  0  0  0  0  0
  189.4360  172.8700  137.8250 O   0  0  0  0  0  0  0  0  0  0  0  0
  190.1890  171.2090  139.3200 N   0  0  0  0  0  1  0  0  0  0  0  0
  190.6880  172.5270  137.2640 C   0  0  0  0  0  2  0  0  0  0  0  0
  189.8320  174.1400  140.3510 O   0  0  0  0  0  0  0  0  0  0  0  0
  190.2490  174.0110  141.6810 C   0  0  0  0  0  2  0  0  0  0  0  0
  189.2270  173.9640  143.9500 C   0  0  0  0  0  1  0  0  0  0  0  0
  189.1540  173.3910  142.5470 C   0  0  0  0  0  0  0  0  0  0  0  0
  187.7830  173.6920  141.9610 C   0  0  0  0  0  1  0  0  0  0  0  0
  189.3600  171.8820  142.6350 C   0  0  0  0  0  2  0  0  0  0  0  0
  190.4560  171.5640  143.4380 O   0  0  0  0  0  1  0  0  0  0  0  0
  192.2670  175.4460  144.7140 C   0  0  0  0  0  2  0  0  0  0  0  0
  192.0780  176.7380  145.2170 O   0  0  0  0  0  0  0  0  0  0  0  0
  190.8060  177.1070  144.7890 C   0  0  0  0  0  2  0  0  0  0  0  0
  190.8380  177.3620  142.9920 S   0  0  0  0  0  0  0  0  0  0  0  0
  188.4770  177.7550  141.6020 N   0  0  0  0  0  0  0  0  0  0  0  0
  187.1050  177.7470  141.1660 C   0  0  0  0  0  3  0  0  0  0  0  0
  186.2100  176.7060  143.1950 C   0  0  0  0  0  2  0  0  0  0  0  0
  188.3670  177.4970  144.0370 C   0  0  0  0  0  2  0  0  0  0  0  0
  186.1100  177.2980  141.8720 N   0  0  0  0  0  0  0  0  0  0  0  0
  189.0610  177.5290  142.8960 C   0  0  0  0  0  0  0  0  0  0  0  0
  186.8850  177.6770  144.1380 C   0  0  2  0  0  3  0  0  0  0  0  0
  184.8790  177.6700  145.8880 C   0  0  0  0  0  3  0  0  0  0  0  0
  187.1470  177.8560  146.7280 C   0  0  1  0  0  3  0  0  0  0  0  0
  184.7810  178.1000  147.2810 N   0  0  0  0  0  0  0  0  0  0  0  0
  186.3390  177.4910  145.5610 C   0  0  2  0  0  0  0  0  0  0  0  0
  186.1420  178.1790  147.8180 C   0  0  0  0  0  2  0  0  0  0  0  0
  186.9840  176.5090  146.3260 O   0  0  0  0  0  0  0  0  0  0  0  0
  2  7  1  0  0  0  0
  2 15  2  0  0  0  0
  3  4  2  0  0  0  0
  4 16  1  0  0  0  0
  5 22  1  0  0  0  0
  6  8  1  0  0  0  0
  7 38  1  6  0  0  0
  7  9  1  0  0  0  0
  8 17  2  0  0  0  0
 11  9  1  0  0  0  0
 12 20  1  0  0  0  0
 13 11  1  0  0  0  0
 14 19  1  0  0  0  0
 16 14  1  0  0  0  0
 16  6  2  0  0  0  0
 17  1  1  0  0  0  0
 17 10  1  0  0  0  0
 18 21  1  0  0  0  0
 19 15  1  0  0  0  0
 19  1  2  0  0  0  0
 20 14  2  0  0  0  0
 21 13  1  0  0  0  0
 22 12  2  0  0  0  0
 22  3  1  0  0  0  0
 23 24  1  1  0  0  0
 23 12  1  0  0  0  0
 23 18  1  0  0  0  0
 24 25  1  0  0  0  0
 26 31  1  0  0  0  0
 26 25  1  1  0  0  0
 27 29  1  1  0  0  0
 27 26  1  0  0  0  0
 28 27  1  0  0  0  0
 30 28  1  0  0  0  0
 30 27  1  0  0  0  0
 31 32  1  0  0  0  0
 32 34  1  0  0  0  0
 34 36  1  0  0  0  0
 34 33  1  0  0  0  0
 35 34  1  0  0  0  0
 36 37  1  0  0  0  0
 38 39  1  0  0  0  0
 40 39  1  0  0  0  0
 41 40  1  0  0  0  0
 42 47  2  0  0  0  0
 43 42  1  0  0  0  0
 43 46  2  0  0  0  0
 45 48  1  0  0  0  0
 46 44  1  0  0  0  0
 47 41  1  0  0  0  0
 47 45  1  0  0  0  0
 48 44  1  6  0  0  0
 48 52  1  0  0  0  0
 49 51  2  0  0  0  0
 50 53  1  1  0  0  0
 51 53  1  0  0  0  0
 52 49  1  1  0  0  0
 52 54  1  0  0  0  0
 52 50  1  0  0  0  0
 54 50  1  0  0  0  0
M  END
>  <MODEL>
6

>  <REMARK>
 VINA RESULT:      -7.3      2.977      6.534
  Name = 
  14 active torsions:
  status: ('A' for Active; 'I' for Inactive)
    1  A    between atoms: C_2  and  C_11
    2  A    between atoms: O_5  and  C_20
    3  A    between atoms: O_5  and  C_29
    4  A    between atoms: N_6  and  C_36
    5  A    between atoms: N_6  and  C_53
    6  A    between atoms: C_11  and  O_16
    7  A    between atoms: C_11  and  C_36
    8  A    between atoms: C_14  and  C_21
    9  A    between atoms: C_14  and  C_28
   10  A    between atoms: O_16  and  C_28
   11  A    between atoms: C_20  and  C_25
   12  A    between atoms: C_29  and  S_45
   13  A    between atoms: C_31  and  S_45
   14  A    between atoms: C_37  and  C_43
                            x       y       z     vdW  Elec       q    Type
                         _______ _______ _______ _____ _____    ______ ____

>  <TORSDO>
F 14

$$$$
=
 OpenBabel11042417393D

 54 60  0  0  1  0  0  0  0  0999 V2000
  194.9950  170.5300  146.3340 C   0  0  0  0  0  3  0  0  0  0  0  0
  193.6370  173.5030  144.8320 C   0  0  0  0  0  3  0  0  0  0  0  0
  192.6950  169.2950  141.5870 C   0  0  0  0  0  3  0  0  0  0  0  0
  192.7140  168.8820  142.8470 C   0  0  0  0  0  3  0  0  0  0  0  0
  193.7550  169.9530  139.4400 C   0  0  0  0  0  1  0  0  0  0  0  0
  194.1500  168.2240  144.5580 N   0  0  0  0  0  0  0  0  0  0  0  0
  193.6190  174.9570  145.1770 C   0  0  1  0  0  3  0  0  0  0  0  0
  195.1320  168.2030  145.5650 N   0  0  0  0  0  0  0  0  0  0  0  0
  195.3150  175.6430  145.3910 S   0  0  0  0  0  0  0  0  0  0  0  0
  196.5550  168.8570  147.3590 C   0  0  0  0  0  1  0  0  0  0  0  0
  195.9570  175.3000  143.7140 C   0  0  0  0  0  2  0  0  0  0  0  0
  194.2610  171.2460  141.4980 C   0  0  0  0  0  0  0  0  0  0  0  0
  196.4650  173.8680  143.6030 C   0  0  0  0  0  2  0  0  0  0  0  0
  194.1870  170.6130  144.0040 C   0  0  0  0  0  0  0  0  0  0  0  0
  194.1720  172.6210  145.6690 C   0  0  0  0  0  3  0  0  0  0  0  0
  193.7320  169.2190  143.8350 C   0  0  0  0  0  0  0  0  0  0  0  0
  195.5340  169.1700  146.3270 C   0  0  0  0  0  0  0  0  0  0  0  0
  195.3230  173.6200  141.3900 C   0  0  0  0  0  2  0  0  0  0  0  0
  194.3840  171.1900  145.3600 C   0  0  0  0  0  0  0  0  0  0  0  0
  194.3600  171.4380  142.9630 C   0  0  0  0  0  3  0  0  0  0  0  0
  196.6310  173.4340  142.1480 C   0  0  0  0  0  2  0  0  0  0  0  0
  193.6570  170.1790  140.9150 C   0  0  0  0  0  0  0  0  0  0  0  0
  194.8430  172.3720  140.6270 C   0  0  2  0  0  3  0  0  0  0  0  0
  193.8960  172.7960  139.5840 N   0  0  0  0  0  2  0  0  0  0  0  0
  193.1150  173.9450  140.0430 C   0  0  0  0  0  2  0  0  0  0  0  0
  191.6480  173.7530  139.7040 C   0  0  1  0  0  3  0  0  0  0  0  0
  191.5040  173.3680  138.2410 C   0  0  2  0  0  0  0  0  0  0  0  0
  190.5630  174.1610  137.5670 O   0  0  0  0  0  0  0  0  0  0  0  0
  191.3760  171.9690  137.8740 N   0  0  0  0  0  1  0  0  0  0  0  0
  191.9150  174.3000  137.1760 C   0  0  0  0  0  2  0  0  0  0  0  0
  191.1000  172.7600  140.5200 O   0  0  0  0  0  0  0  0  0  0  0  0
  191.2710  173.2340  141.8260 C   0  0  0  0  0  2  0  0  0  0  0  0
  190.5890  171.9010  143.8140 C   0  0  0  0  0  1  0  0  0  0  0  0
  190.0990  172.8310  142.7190 C   0  0  0  0  0  0  0  0  0  0  0  0
  189.4730  174.0600  143.3580 C   0  0  0  0  0  1  0  0  0  0  0  0
  189.0540  172.0870  141.8930 C   0  0  0  0  0  2  0  0  0  0  0  0
  187.7690  172.2920  142.3960 O   0  0  0  0  0  1  0  0  0  0  0  0
  192.7810  175.7670  144.1920 C   0  0  0  0  0  2  0  0  0  0  0  0
  192.3070  176.9440  144.7820 O   0  0  0  0  0  0  0  0  0  0  0  0
  190.9220  176.8180  144.7690 C   0  0  0  0  0  2  0  0  0  0  0  0
  190.2990  176.9430  146.4700 S   0  0  0  0  0  0  0  0  0  0  0  0
  187.5790  176.6670  146.9010 N   0  0  0  0  0  2  0  0  0  0  0  0
  186.1450  176.7900  146.8470 C   0  0  0  0  0  3  0  0  0  0  0  0
  186.0950  178.1970  144.8430 C   0  0  0  0  0  2  0  0  0  0  0  0
  188.3480  177.2610  144.6500 C   0  0  0  0  0  3  0  0  0  0  0  0
  185.4950  177.4510  145.9360 N   0  0  0  0  0  0  0  0  0  0  0  0
  188.5940  176.9900  145.9360 C   0  0  0  0  0  0  0  0  0  0  0  0
  186.9870  177.2840  144.0300 C   0  0  2  0  0  3  0  0  0  0  0  0
  185.9020  178.5980  141.9850 C   0  0  0  0  0  3  0  0  0  0  0  0
  187.5110  176.8450  141.5130 C   0  0  1  0  0  3  0  0  0  0  0  0
  185.7860  178.2890  140.5610 N   0  0  0  0  0  0  0  0  0  0  0  0
  186.9890  177.7260  142.5600 C   0  0  2  0  0  0  0  0  0  0  0  0
  186.7800  177.2590  140.2480 C   0  0  0  0  0  2  0  0  0  0  0  0
  188.2570  177.9440  142.0020 O   0  0  0  0  0  0  0  0  0  0  0  0
  2  7  1  0  0  0  0
  2 15  2  0  0  0  0
  3  4  2  0  0  0  0
  4 16  1  0  0  0  0
  5 22  1  0  0  0  0
  6  8  1  0  0  0  0
  7 38  1  6  0  0  0
  7  9  1  0  0  0  0
  8 17  2  0  0  0  0
 11  9  1  0  0  0  0
 12 20  1  0  0  0  0
 13 11  1  0  0  0  0
 14 19  1  0  0  0  0
 16 14  1  0  0  0  0
 16  6  2  0  0  0  0
 17  1  1  0  0  0  0
 17 10  1  0  0  0  0
 18 21  1  0  0  0  0
 19 15  1  0  0  0  0
 19  1  2  0  0  0  0
 20 14  2  0  0  0  0
 21 13  1  0  0  0  0
 22 12  2  0  0  0  0
 22  3  1  0  0  0  0
 23 24  1  6  0  0  0
 23 18  1  0  0  0  0
 23 12  1  0  0  0  0
 24 25  1  0  0  0  0
 26 25  1  1  0  0  0
 26 31  1  0  0  0  0
 27 29  1  6  0  0  0
 27 26  1  0  0  0  0
 28 27  1  0  0  0  0
 30 28  1  0  0  0  0
 30 27  1  0  0  0  0
 31 32  1  0  0  0  0
 32 34  1  0  0  0  0
 34 35  1  0  0  0  0
 34 33  1  0  0  0  0
 36 37  1  0  0  0  0
 36 34  1  0  0  0  0
 38 39  1  0  0  0  0
 40 39  1  0  0  0  0
 40 41  1  0  0  0  0
 43 42  1  0  0  0  0
 44 46  1  0  0  0  0
 45 47  2  0  0  0  0
 46 43  2  0  0  0  0
 47 41  1  0  0  0  0
 47 42  1  0  0  0  0
 48 45  1  1  0  0  0
 48 44  1  0  0  0  0
 50 53  1  6  0  0  0
 50 54  1  0  0  0  0
 50 52  1  0  0  0  0
 51 49  2  0  0  0  0
 52 49  1  6  0  0  0
 52 48  1  0  0  0  0
 53 51  1  0  0  0  0
 54 52  1  0  0  0  0
M  END
>  <MODEL>
7

>  <REMARK>
 VINA RESULT:      -7.3      2.840      5.971
  Name = 
  14 active torsions:
  status: ('A' for Active; 'I' for Inactive)
    1  A    between atoms: C_2  and  C_11
    2  A    between atoms: O_5  and  C_20
    3  A    between atoms: O_5  and  C_29
    4  A    between atoms: N_6  and  C_36
    5  A    between atoms: N_6  and  C_53
    6  A    between atoms: C_11  and  O_16
    7  A    between atoms: C_11  and  C_36
    8  A    between atoms: C_14  and  C_21
    9  A    between atoms: C_14  and  C_28
   10  A    between atoms: O_16  and  C_28
   11  A    between atoms: C_20  and  C_25
   12  A    between atoms: C_29  and  S_45
   13  A    between atoms: C_31  and  S_45
   14  A    between atoms: C_37  and  C_43
                            x       y       z     vdW  Elec       q    Type
                         _______ _______ _______ _____ _____    ______ ____

>  <TORSDO>
F 14

$$$$
=
 OpenBabel11042417393D

 54 60  0  0  1  0  0  0  0  0999 V2000
  185.3650  177.0780  145.3120 C   0  0  0  0  0  3  0  0  0  0  0  0
  187.3340  175.6490  142.6620 C   0  0  0  0  0  3  0  0  0  0  0  0
  189.9990  175.1250  147.3260 C   0  0  0  0  0  3  0  0  0  0  0  0
  188.6940  175.0940  147.5590 C   0  0  0  0  0  3  0  0  0  0  0  0
  192.1620  176.2690  146.9040 C   0  0  0  0  0  1  0  0  0  0  0  0
  186.8390  176.4640  147.8870 N   0  0  0  0  0  0  0  0  0  0  0  0
  187.1980  175.5320  141.1790 C   0  0  1  0  0  3  0  0  0  0  0  0
  185.7920  177.3850  147.7090 N   0  0  0  0  0  0  0  0  0  0  0  0
  186.9980  177.1730  140.3660 S   0  0  0  0  0  0  0  0  0  0  0  0
  184.0400  178.6660  146.7280 C   0  0  0  0  0  1  0  0  0  0  0  0
  188.5770  177.9270  140.8950 C   0  0  0  0  0  2  0  0  0  0  0  0
  190.2840  176.5850  145.3120 C   0  0  0  0  0  0  0  0  0  0  0  0
  188.4610  178.5180  142.2950 C   0  0  0  0  0  2  0  0  0  0  0  0
  187.7200  176.4010  145.5990 C   0  0  0  0  0  0  0  0  0  0  0  0
  186.3560  176.1820  143.3870 C   0  0  0  0  0  3  0  0  0  0  0  0
  187.7140  176.0340  147.0280 C   0  0  0  0  0  0  0  0  0  0  0  0
  185.1540  177.6900  146.6230 C   0  0  0  0  0  0  0  0  0  0  0  0
  190.6710  177.5200  142.9140 C   0  0  0  0  0  2  0  0  0  0  0  0
  186.4500  176.4880  144.8300 C   0  0  0  0  0  0  0  0  0  0  0  0
  188.8570  176.5890  144.9150 C   0  0  0  0  0  3  0  0  0  0  0  0
  189.8300  178.7900  142.9130 C   0  0  0  0  0  2  0  0  0  0  0  0
  190.7400  176.0740  146.4840 C   0  0  0  0  0  0  0  0  0  0  0  0
  191.2750  177.1530  144.2820 C   0  0  2  0  0  3  0  0  0  0  0  0
  192.4110  176.2460  144.0640 N   0  0  0  0  0  2  0  0  0  0  0  0
  192.0040  175.1100  143.2370 C   0  0  0  0  0  2  0  0  0  0  0  0
  192.1180  173.8180  144.0250 C   0  0  1  0  0  3  0  0  0  0  0  0
  191.0220  172.8560  143.5960 C   0  0  2  0  0  0  0  0  0  0  0  0
  190.6740  171.9510  144.6100 O   0  0  0  0  0  0  0  0  0  0  0  0
  191.1080  172.1960  142.3050 N   0  0  0  0  0  1  0  0  0  0  0  0
  189.6940  172.8990  144.2330 C   0  0  0  0  0  2  0  0  0  0  0  0
  193.3730  173.2430  143.8120 O   0  0  0  0  0  0  0  0  0  0  0  0
  193.9400  173.1370  145.0890 C   0  0  0  0  0  2  0  0  0  0  0  0
  195.3160  175.0230  145.9500 C   0  0  0  0  0  1  0  0  0  0  0  0
  195.3390  173.7500  145.1250 C   0  0  0  0  0  0  0  0  0  0  0  0
  196.3260  172.7760  145.7470 C   0  0  0  0  0  1  0  0  0  0  0  0
  195.7830  174.1040  143.7090 C   0  0  0  0  0  2  0  0  0  0  0  0
  195.8410  175.4860  143.5260 O   0  0  0  0  0  1  0  0  0  0  0  0
  188.3270  174.7080  140.5650 C   0  0  0  0  0  2  0  0  0  0  0  0
  188.2070  173.3570  140.9050 O   0  0  0  0  0  0  0  0  0  0  0  0
  188.4910  172.6650  139.7320 C   0  0  0  0  0  2  0  0  0  0  0  0
  189.3340  173.7820  138.5750 S   0  0  0  0  0  0  0  0  0  0  0  0
  190.8180  171.4580  138.8190 N   0  0  0  0  0  2  0  0  0  0  0  0
  191.8500  170.4570  138.7520 C   0  0  0  0  0  3  0  0  0  0  0  0
  193.5760  171.9440  137.8530 C   0  0  0  0  0  2  0  0  0  0  0  0
  192.0090  173.5990  138.7460 C   0  0  0  0  0  3  0  0  0  0  0  0
  193.0630  170.6750  138.3410 N   0  0  0  0  0  0  0  0  0  0  0  0
  190.8770  172.8900  138.7020 C   0  0  0  0  0  0  0  0  0  0  0  0
  193.3760  173.0120  138.9060 C   0  0  2  0  0  3  0  0  0  0  0  0
  195.4930  174.0650  137.6820 C   0  0  0  0  0  3  0  0  0  0  0  0
  195.1500  174.5590  140.0330 C   0  0  1  0  0  3  0  0  0  0  0  0
  196.7430  174.6320  138.1830 N   0  0  0  0  0  0  0  0  0  0  0  0
  194.5040  174.0500  138.8200 C   0  0  2  0  0  0  0  0  0  0  0  0
  196.5420  174.9750  139.5940 C   0  0  0  0  0  2  0  0  0  0  0  0
  194.1890  175.3200  139.3250 O   0  0  0  0  0  0  0  0  0  0  0  0
  1 17  1  0  0  0  0
  2 15  2  0  0  0  0
  3  4  2  0  0  0  0
  7 38  1  6  0  0  0
  7  2  1  0  0  0  0
  8  6  1  0  0  0  0
  9 11  1  0  0  0  0
  9  7  1  0  0  0  0
 11 13  1  0  0  0  0
 12 22  2  0  0  0  0
 13 21  1  0  0  0  0
 14 16  1  0  0  0  0
 15 19  1  0  0  0  0
 16  4  1  0  0  0  0
 16  6  2  0  0  0  0
 17 10  1  0  0  0  0
 17  8  2  0  0  0  0
 18 23  1  0  0  0  0
 19  1  2  0  0  0  0
 19 14  1  0  0  0  0
 20 12  1  0  0  0  0
 20 14  2  0  0  0  0
 21 18  1  0  0  0  0
 22  5  1  0  0  0  0
 22  3  1  0  0  0  0
 23 24  1  6  0  0  0
 23 12  1  0  0  0  0
 25 24  1  0  0  0  0
 26 25  1  6  0  0  0
 27 29  1  6  0  0  0
 27 26  1  0  0  0  0
 27 30  1  0  0  0  0
 27 28  1  0  0  0  0
 30 28  1  0  0  0  0
 31 26  1  0  0  0  0
 31 32  1  0  0  0  0
 32 34  1  0  0  0  0
 34 35  1  0  0  0  0
 34 33  1  0  0  0  0
 36 34  1  0  0  0  0
 37 36  1  0  0  0  0
 38 39  1  0  0  0  0
 40 39  1  0  0  0  0
 41 47  1  0  0  0  0
 41 40  1  0  0  0  0
 43 42  1  0  0  0  0
 44 46  1  0  0  0  0
 45 48  1  0  0  0  0
 46 43  2  0  0  0  0
 47 45  2  0  0  0  0
 47 42  1  0  0  0  0
 48 44  1  6  0  0  0
 49 51  2  0  0  0  0
 50 53  1  6  0  0  0
 51 53  1  0  0  0  0
 52 49  1  6  0  0  0
 52 48  1  0  0  0  0
 52 54  1  0  0  0  0
 52 50  1  0  0  0  0
 54 50  1  0  0  0  0
M  END
>  <MODEL>
8

>  <REMARK>
 VINA RESULT:      -7.2      2.758      8.694
  Name = 
  14 active torsions:
  status: ('A' for Active; 'I' for Inactive)
    1  A    between atoms: C_2  and  C_11
    2  A    between atoms: O_5  and  C_20
    3  A    between atoms: O_5  and  C_29
    4  A    between atoms: N_6  and  C_36
    5  A    between atoms: N_6  and  C_53
    6  A    between atoms: C_11  and  O_16
    7  A    between atoms: C_11  and  C_36
    8  A    between atoms: C_14  and  C_21
    9  A    between atoms: C_14  and  C_28
   10  A    between atoms: O_16  and  C_28
   11  A    between atoms: C_20  and  C_25
   12  A    between atoms: C_29  and  S_45
   13  A    between atoms: C_31  and  S_45
   14  A    between atoms: C_37  and  C_43
                            x       y       z     vdW  Elec       q    Type
                         _______ _______ _______ _____ _____    ______ ____

>  <TORSDO>
F 14

$$$$
=
 OpenBabel11042417393D

 54 60  0  0  1  0  0  0  0  0999 V2000
  185.4580  177.1140  145.5290 C   0  0  0  0  0  3  0  0  0  0  0  0
  187.3130  175.7680  142.7560 C   0  0  0  0  0  3  0  0  0  0  0  0
  190.0780  174.9190  147.3130 C   0  0  0  0  0  3  0  0  0  0  0  0
  188.7800  174.9160  147.5800 C   0  0  0  0  0  3  0  0  0  0  0  0
  192.2650  176.0180  146.8930 C   0  0  0  0  0  1  0  0  0  0  0  0
  186.9770  176.3220  148.0280 N   0  0  0  0  0  0  0  0  0  0  0  0
  187.1360  175.7330  141.2740 C   0  0  1  0  0  3  0  0  0  0  0  0
  185.9560  177.2830  147.9260 N   0  0  0  0  0  0  0  0  0  0  0  0
  186.9680  177.4200  140.5520 S   0  0  0  0  0  0  0  0  0  0  0  0
  184.2200  178.6650  147.0610 C   0  0  0  0  0  1  0  0  0  0  0  0
  188.5820  178.0980  141.0770 C   0  0  0  0  0  2  0  0  0  0  0  0
  190.3580  176.4740  145.3710 C   0  0  0  0  0  0  0  0  0  0  0  0
  188.5210  178.6170  142.5080 C   0  0  0  0  0  2  0  0  0  0  0  0
  187.7980  176.3530  145.7170 C   0  0  0  0  0  0  0  0  0  0  0  0
  186.3720  176.2910  143.5340 C   0  0  0  0  0  3  0  0  0  0  0  0
  187.8160  175.9120  147.1250 C   0  0  0  0  0  0  0  0  0  0  0  0
  185.3010  177.6630  146.8760 C   0  0  0  0  0  0  0  0  0  0  0  0
  190.7140  177.5220  143.0150 C   0  0  0  0  0  2  0  0  0  0  0  0
  186.5120  176.5190  144.9890 C   0  0  0  0  0  0  0  0  0  0  0  0
  188.9220  176.5420  145.0140 C   0  0  0  0  0  3  0  0  0  0  0  0
  189.9130  178.8150  143.1020 C   0  0  0  0  0  2  0  0  0  0  0  0
  190.8270  175.8890  146.5020 C   0  0  0  0  0  0  0  0  0  0  0  0
  191.3400  177.0660  144.3450 C   0  0  2  0  0  3  0  0  0  0  0  0
  192.4410  176.1370  144.0500 N   0  0  0  0  0  2  0  0  0  0  0  0
  193.0440  176.4570  142.7570 C   0  0  0  0  0  2  0  0  0  0  0  0
  194.1100  175.4360  142.4050 C   0  0  1  0  0  3  0  0  0  0  0  0
  195.4900  176.0340  142.6270 C   0  0  2  0  0  0  0  0  0  0  0  0
  196.5150  175.2210  142.1250 O   0  0  0  0  0  0  0  0  0  0  0  0
  195.8360  176.5800  143.9280 N   0  0  0  0  0  1  0  0  0  0  0  0
  196.3130  176.4660  141.4840 C   0  0  0  0  0  2  0  0  0  0  0  0
  193.9480  174.2930  143.1920 O   0  0  0  0  0  0  0  0  0  0  0  0
  193.2080  173.4110  142.3950 C   0  0  0  0  0  2  0  0  0  0  0  0
  192.0350  171.2300  142.6490 C   0  0  0  0  0  1  0  0  0  0  0  0
  192.2020  172.6210  143.2310 C   0  0  0  0  0  0  0  0  0  0  0  0
  192.6880  172.5000  144.6670 C   0  0  0  0  0  1  0  0  0  0  0  0
  190.8460  173.3200  143.2000 C   0  0  0  0  0  2  0  0  0  0  0  0
  190.1200  173.0720  144.3660 O   0  0  0  0  0  1  0  0  0  0  0  0
  188.2220  174.9090  140.5870 C   0  0  0  0  0  2  0  0  0  0  0  0
  188.0690  174.9320  139.1970 O   0  0  0  0  0  0  0  0  0  0  0  0
  188.4730  173.6710  138.7710 C   0  0  0  0  0  2  0  0  0  0  0  0
  188.8930  172.6630  140.2220 S   0  0  0  0  0  0  0  0  0  0  0  0
  190.5460  170.6360  139.3160 N   0  0  0  0  0  2  0  0  0  0  0  0
  191.5240  169.8570  138.6020 C   0  0  0  0  0  3  0  0  0  0  0  0
  192.4720  171.7390  137.3530 C   0  0  0  0  0  2  0  0  0  0  0  0
  191.3430  172.9490  139.1560 C   0  0  0  0  0  3  0  0  0  0  0  0
  192.3770  170.3450  137.7510 N   0  0  0  0  0  0  0  0  0  0  0  0
  190.3990  172.0570  139.4740 C   0  0  0  0  0  0  0  0  0  0  0  0
  192.6790  172.6050  138.5770 C   0  0  2  0  0  3  0  0  0  0  0  0
  193.6390  174.3350  136.7950 C   0  0  0  0  0  3  0  0  0  0  0  0
  194.7630  174.1330  138.9350 C   0  0  1  0  0  3  0  0  0  0  0  0
  194.9360  174.9920  136.6560 N   0  0  0  0  0  0  0  0  0  0  0  0
  193.5240  173.8340  138.2120 C   0  0  2  0  0  0  0  0  0  0  0  0
  195.6140  174.9160  137.9530 C   0  0  0  0  0  2  0  0  0  0  0  0
  193.5640  174.8430  139.1850 O   0  0  0  0  0  0  0  0  0  0  0  0
  1 17  1  0  0  0  0
  2 15  2  0  0  0  0
  3  4  2  0  0  0  0
  7 38  1  6  0  0  0
  7  2  1  0  0  0  0
  8  6  1  0  0  0  0
  9 11  1  0  0  0  0
  9  7  1  0  0  0  0
 11 13  1  0  0  0  0
 12 22  2  0  0  0  0
 13 21  1  0  0  0  0
 14 16  1  0  0  0  0
 15 19  1  0  0  0  0
 16  4  1  0  0  0  0
 16  6  2  0  0  0  0
 17 10  1  0  0  0  0
 17  8  2  0  0  0  0
 18 21  1  0  0  0  0
 18 23  1  0  0  0  0
 19  1  2  0  0  0  0
 19 14  1  0  0  0  0
 20 12  1  0  0  0  0
 20 14  2  0  0  0  0
 22  5  1  0  0  0  0
 22  3  1  0  0  0  0
 23 24  1  6  0  0  0
 23 12  1  0  0  0  0
 25 24  1  0  0  0  0
 26 27  1  0  0  0  0
 26 25  1  1  0  0  0
 26 31  1  0  0  0  0
 27 29  1  1  0  0  0
 28 27  1  0  0  0  0
 30 28  1  0  0  0  0
 30 27  1  0  0  0  0
 32 31  1  0  0  0  0
 32 34  1  0  0  0  0
 33 34  1  0  0  0  0
 34 35  1  0  0  0  0
 36 34  1  0  0  0  0
 36 37  1  0  0  0  0
 39 38  1  0  0  0  0
 40 39  1  0  0  0  0
 40 41  1  0  0  0  0
 42 47  1  0  0  0  0
 43 42  1  0  0  0  0
 44 46  1  0  0  0  0
 45 47  2  0  0  0  0
 46 43  2  0  0  0  0
 47 41  1  0  0  0  0
 48 44  1  6  0  0  0
 48 45  1  0  0  0  0
 50 53  1  6  0  0  0
 50 54  1  0  0  0  0
 51 49  2  0  0  0  0
 51 53  1  0  0  0  0
 52 49  1  6  0  0  0
 52 48  1  0  0  0  0
 52 50  1  0  0  0  0
 52 54  1  0  0  0  0
M  END
>  <MODEL>
9

>  <REMARK>
 VINA RESULT:      -7.2      2.481      8.382
  Name = 
  14 active torsions:
  status: ('A' for Active; 'I' for Inactive)
    1  A    between atoms: C_2  and  C_11
    2  A    between atoms: O_5  and  C_20
    3  A    between atoms: O_5  and  C_29
    4  A    between atoms: N_6  and  C_36
    5  A    between atoms: N_6  and  C_53
    6  A    between atoms: C_11  and  O_16
    7  A    between atoms: C_11  and  C_36
    8  A    between atoms: C_14  and  C_21
    9  A    between atoms: C_14  and  C_28
   10  A    between atoms: O_16  and  C_28
   11  A    between atoms: C_20  and  C_25
   12  A    between atoms: C_29  and  S_45
   13  A    between atoms: C_31  and  S_45
   14  A    between atoms: C_37  and  C_43
                            x       y       z     vdW  Elec       q    Type
                         _______ _______ _______ _____ _____    ______ ____

>  <TORSDO>
F 14

$$$$
