=
 OpenBabel11042417223D

 26 29  0  0  1  0  0  0  0  0999 V2000
  186.6640  178.2470  144.3630 N   0  0  0  0  0  0  0  0  0  0  0  0
  186.0290  178.1910  141.9800 C   0  0  0  0  0  3  0  0  0  0  0  0
  184.5210  178.6140  145.1280 C   0  0  0  0  0  0  0  0  0  0  0  0
  188.0710  177.8360  144.3130 C   0  0  0  0  0  2  0  0  0  0  0  0
  190.7670  176.0320  145.4820 C   0  0  0  0  0  3  0  0  0  0  0  0
  184.4020  178.5390  143.7130 N   0  0  0  0  0  2  0  0  0  0  0  0
  183.5350  178.8320  145.8810 O   0  0  0  0  0  0  0  0  0  0  0  0
  188.3350  176.9250  145.4630 C   0  0  0  0  0  0  0  0  0  0  0  0
  189.4620  176.2490  145.8590 C   0  0  0  0  0  0  0  0  0  0  0  0
  192.3520  174.7590  146.6770 O   0  0  0  0  0  0  0  0  0  0  0  0
  190.2170  175.0030  147.4950 N   0  0  0  0  0  2  0  0  0  0  0  0
  187.9920  175.8800  147.4050 O   0  0  0  0  0  0  0  0  0  0  0  0
  185.9210  178.4350  145.6160 C   0  0  1  0  0  3  0  0  0  0  0  0
  191.1890  175.2250  146.5660 C   0  0  0  0  0  0  0  0  0  0  0  0
  189.1970  175.6530  146.9870 N   0  0  0  0  0  0  0  0  0  0  0  0
  187.4260  176.6630  146.4970 C   0  0  0  0  0  0  0  0  0  0  0  0
  185.7330  178.3120  143.2770 C   0  0  0  0  0  0  0  0  0  0  0  0
  186.0250  177.1850  146.5100 C   0  0  0  0  0  2  0  0  0  0  0  0
  187.4030  177.9700  141.4500 C   0  0  0  0  0  2  0  0  0  0  0  0
  187.4550  176.6470  140.7120 C   0  0  0  0  0  2  0  0  0  0  0  0
  187.0400  175.0230  142.4000 O   0  0  0  0  0  0  0  0  0  0  0  0
  187.8850  175.5690  141.6410 C   0  0  0  0  0  0  0  0  0  0  0  0
  189.2610  175.1860  141.6880 N   0  0  0  0  0  2  0  0  0  0  0  0
  189.7510  174.1340  142.5670 C   0  0  0  0  0  2  0  0  0  0  0  0
  189.5580  172.8900  141.9660 O   0  0  0  0  0  0  0  0  0  0  0  0
  189.2420  172.0370  143.0230 C   0  0  0  0  0  1  0  0  0  0  0  0
  1 13  1  0  0  0  0
  2 17  2  0  0  0  0
  3 13  1  0  0  0  0
  3  7  2  0  0  0  0
  4  1  1  0  0  0  0
  4  8  1  0  0  0  0
  5  9  2  0  0  0  0
  5 14  1  0  0  0  0
  6  3  1  0  0  0  0
  8  9  1  0  0  0  0
  8 16  2  0  0  0  0
  9 15  1  0  0  0  0
 13 18  1  1  0  0  0
 14 10  2  0  0  0  0
 14 11  1  0  0  0  0
 15 12  1  0  0  0  0
 15 11  1  0  0  0  0
 16 18  1  0  0  0  0
 16 12  1  0  0  0  0
 17  6  1  0  0  0  0
 17  1  1  0  0  0  0
 19  2  1  0  0  0  0
 20 19  1  0  0  0  0
 20 22  1  0  0  0  0
 22 23  1  0  0  0  0
 22 21  2  0  0  0  0
 23 24  1  0  0  0  0
 25 24  1  0  0  0  0
 25 26  1  0  0  0  0
M  END
>  <MODEL>
1

>  <REMARK>
 VINA RESULT:      -6.9      0.000      0.000
  Name = 
  5 active torsions:
  status: ('A' for Active; 'I' for Inactive)
    1  A    between atoms: C_2  and  C_20
    2  A    between atoms: O_4  and  C_9
    3  A    between atoms: C_7  and  C_10
    4  A    between atoms: C_7  and  C_20
    5  A    between atoms: C_9  and  N_21
                            x       y       z     vdW  Elec       q    Type
                         _______ _______ _______ _____ _____    ______ ____

>  <TORSDO>
F 5

$$$$
=
 OpenBabel11042417223D

 26 29  0  0  1  0  0  0  0  0999 V2000
  186.7340  177.0860  145.4190 N   0  0  0  0  0  0  0  0  0  0  0  0
  188.8470  177.3780  146.6590 C   0  0  0  0  0  3  0  0  0  0  0  0
  185.4110  178.0100  147.0640 C   0  0  0  0  0  0  0  0  0  0  0  0
  187.2110  176.6400  144.1050 C   0  0  0  0  0  2  0  0  0  0  0  0
  187.1460  176.6860  140.6570 C   0  0  0  0  0  3  0  0  0  0  0  0
  186.7380  178.0740  147.5740 N   0  0  0  0  0  2  0  0  0  0  0  0
  184.4130  178.4120  147.7180 O   0  0  0  0  0  0  0  0  0  0  0  0
  186.3830  177.3010  143.0560 C   0  0  0  0  0  0  0  0  0  0  0  0
  186.4260  177.2510  141.6860 C   0  0  0  0  0  0  0  0  0  0  0  0
  186.6750  176.9120  138.3590 O   0  0  0  0  0  0  0  0  0  0  0  0
  185.3300  177.9370  139.9180 N   0  0  0  0  0  2  0  0  0  0  0  0
  184.6870  178.4460  142.1660 O   0  0  0  0  0  0  0  0  0  0  0  0
  185.3280  177.4000  145.7040 C   0  0  1  0  0  3  0  0  0  0  0  0
  186.3970  177.1690  139.5590 C   0  0  0  0  0  0  0  0  0  0  0  0
  185.4240  177.9430  141.2260 N   0  0  0  0  0  0  0  0  0  0  0  0
  185.2410  178.0700  143.3110 C   0  0  0  0  0  0  0  0  0  0  0  0
  187.5220  177.5010  146.5400 C   0  0  0  0  0  0  0  0  0  0  0  0
  184.7760  178.4190  144.6890 C   0  0  0  0  0  2  0  0  0  0  0  0
  189.7290  176.7720  145.6230 C   0  0  0  0  0  2  0  0  0  0  0  0
  190.3430  177.8670  144.7750 C   0  0  0  0  0  2  0  0  0  0  0  0
  191.7410  177.4000  142.9080 O   0  0  0  0  0  0  0  0  0  0  0  0
  191.6070  177.3810  144.1610 C   0  0  0  0  0  0  0  0  0  0  0  0
  192.6440  176.8650  144.9970 N   0  0  0  0  0  2  0  0  0  0  0  0
  193.9090  176.3810  144.4660 C   0  0  0  0  0  2  0  0  0  0  0  0
  194.8290  176.2290  145.5030 O   0  0  0  0  0  0  0  0  0  0  0  0
  194.2100  176.8150  146.6070 C   0  0  0  0  0  1  0  0  0  0  0  0
  1 13  1  0  0  0  0
  1 17  1  0  0  0  0
  3  6  1  0  0  0  0
  3  7  2  0  0  0  0
  4  1  1  0  0  0  0
  5  9  2  0  0  0  0
  8 16  2  0  0  0  0
  8  4  1  0  0  0  0
  9  8  1  0  0  0  0
 10 14  2  0  0  0  0
 11 15  1  0  0  0  0
 12 16  1  0  0  0  0
 13 18  1  6  0  0  0
 13  3  1  0  0  0  0
 14 11  1  0  0  0  0
 14  5  1  0  0  0  0
 15  9  1  0  0  0  0
 15 12  1  0  0  0  0
 16 18  1  0  0  0  0
 17  2  2  0  0  0  0
 17  6  1  0  0  0  0
 19  2  1  0  0  0  0
 20 19  1  0  0  0  0
 21 22  2  0  0  0  0
 22 20  1  0  0  0  0
 22 23  1  0  0  0  0
 24 23  1  0  0  0  0
 24 25  1  0  0  0  0
 25 26  1  0  0  0  0
M  END
>  <MODEL>
2

>  <REMARK>
 VINA RESULT:      -6.8      2.759      5.592
  Name = 
  5 active torsions:
  status: ('A' for Active; 'I' for Inactive)
    1  A    between atoms: C_2  and  C_20
    2  A    between atoms: O_4  and  C_9
    3  A    between atoms: C_7  and  C_10
    4  A    between atoms: C_7  and  C_20
    5  A    between atoms: C_9  and  N_21
                            x       y       z     vdW  Elec       q    Type
                         _______ _______ _______ _____ _____    ______ ____

>  <TORSDO>
F 5

$$$$
=
 OpenBabel11042417223D

 26 29  0  0  1  0  0  0  0  0999 V2000
  186.7000  177.1020  145.5050 N   0  0  0  0  0  0  0  0  0  0  0  0
  188.8030  177.2680  146.7840 C   0  0  0  0  0  3  0  0  0  0  0  0
  185.4010  178.0890  147.1330 C   0  0  0  0  0  0  0  0  0  0  0  0
  187.1750  176.6380  144.1970 C   0  0  0  0  0  2  0  0  0  0  0  0
  187.1740  176.7070  140.7490 C   0  0  0  0  0  3  0  0  0  0  0  0
  186.7200  178.0760  147.6670 N   0  0  0  0  0  2  0  0  0  0  0  0
  184.4160  178.5420  147.7730 O   0  0  0  0  0  0  0  0  0  0  0  0
  186.4030  177.3500  143.1390 C   0  0  0  0  0  0  0  0  0  0  0  0
  186.4690  177.3050  141.7690 C   0  0  0  0  0  0  0  0  0  0  0  0
  186.7570  176.9730  138.4440 O   0  0  0  0  0  0  0  0  0  0  0  0
  185.4440  178.0610  139.9860 N   0  0  0  0  0  2  0  0  0  0  0  0
  184.7900  178.5920  142.2260 O   0  0  0  0  0  0  0  0  0  0  0  0
  185.3090  177.4920  145.7680 C   0  0  1  0  0  3  0  0  0  0  0  0
  186.4730  177.2380  139.6410 C   0  0  0  0  0  0  0  0  0  0  0  0
  185.5140  178.0550  141.2960 N   0  0  0  0  0  0  0  0  0  0  0  0
  185.3010  178.1800  143.3780 C   0  0  0  0  0  0  0  0  0  0  0  0
  187.4900  177.4660  146.6430 C   0  0  0  0  0  0  0  0  0  0  0  0
  184.8320  178.5460  144.7500 C   0  0  0  0  0  2  0  0  0  0  0  0
  189.6690  176.6200  145.7600 C   0  0  0  0  0  2  0  0  0  0  0  0
  190.0680  175.2370  146.2360 C   0  0  0  0  0  2  0  0  0  0  0  0
  189.7030  173.0600  145.3500 O   0  0  0  0  0  0  0  0  0  0  0  0
  189.9670  174.2690  145.1120 C   0  0  0  0  0  0  0  0  0  0  0  0
  190.2030  174.7140  143.7750 N   0  0  0  0  0  2  0  0  0  0  0  0
  190.1140  173.8240  142.6270 C   0  0  0  0  0  2  0  0  0  0  0  0
  188.8770  173.9830  142.0020 O   0  0  0  0  0  0  0  0  0  0  0  0
  188.2880  172.7210  142.0670 C   0  0  0  0  0  1  0  0  0  0  0  0
  1 13  1  0  0  0  0
  1 17  1  0  0  0  0
  3  6  1  0  0  0  0
  3  7  2  0  0  0  0
  4  1  1  0  0  0  0
  5  9  2  0  0  0  0
  8 16  2  0  0  0  0
  8  4  1  0  0  0  0
  9  8  1  0  0  0  0
 10 14  2  0  0  0  0
 11 15  1  0  0  0  0
 12 16  1  0  0  0  0
 13 18  1  6  0  0  0
 13  3  1  0  0  0  0
 14 11  1  0  0  0  0
 14  5  1  0  0  0  0
 15  9  1  0  0  0  0
 15 12  1  0  0  0  0
 16 18  1  0  0  0  0
 17  2  2  0  0  0  0
 17  6  1  0  0  0  0
 19 20  1  0  0  0  0
 19  2  1  0  0  0  0
 22 21  2  0  0  0  0
 22 20  1  0  0  0  0
 23 22  1  0  0  0  0
 24 23  1  0  0  0  0
 25 26  1  0  0  0  0
 25 24  1  0  0  0  0
M  END
>  <MODEL>
3

>  <REMARK>
 VINA RESULT:      -6.7      2.101      5.014
  Name = 
  5 active torsions:
  status: ('A' for Active; 'I' for Inactive)
    1  A    between atoms: C_2  and  C_20
    2  A    between atoms: O_4  and  C_9
    3  A    between atoms: C_7  and  C_10
    4  A    between atoms: C_7  and  C_20
    5  A    between atoms: C_9  and  N_21
                            x       y       z     vdW  Elec       q    Type
                         _______ _______ _______ _____ _____    ______ ____

>  <TORSDO>
F 5

$$$$
=
 OpenBabel11042417223D

 26 29  0  0  1  0  0  0  0  0999 V2000
  188.3100  175.5010  142.8190 N   0  0  0  0  0  0  0  0  0  0  0  0
  187.5810  177.2310  141.2180 C   0  0  0  0  0  3  0  0  0  0  0  0
  188.6050  173.8670  141.2210 C   0  0  0  0  0  0  0  0  0  0  0  0
  188.4390  176.2710  144.0610 C   0  0  0  0  0  2  0  0  0  0  0  0
  190.0840  177.1160  146.9720 C   0  0  0  0  0  3  0  0  0  0  0  0
  188.1690  175.0150  140.5030 N   0  0  0  0  0  2  0  0  0  0  0  0
  188.8440  172.7660  140.6590 O   0  0  0  0  0  0  0  0  0  0  0  0
  189.6550  175.7980  144.7810 C   0  0  0  0  0  0  0  0  0  0  0  0
  190.2370  176.1960  145.9590 C   0  0  0  0  0  0  0  0  0  0  0  0
  191.4340  177.2810  148.8980 O   0  0  0  0  0  0  0  0  0  0  0  0
  191.8600  175.6560  147.3270 N   0  0  0  0  0  2  0  0  0  0  0  0
  191.3860  174.4860  145.2950 O   0  0  0  0  0  0  0  0  0  0  0  0
  188.7220  174.0980  142.6910 C   0  0  1  0  0  3  0  0  0  0  0  0
  191.1550  176.7190  147.8070 C   0  0  0  0  0  0  0  0  0  0  0  0
  191.2430  175.4040  146.1980 N   0  0  0  0  0  0  0  0  0  0  0  0
  190.4250  174.6910  144.4040 C   0  0  0  0  0  0  0  0  0  0  0  0
  187.9990  175.9970  141.5120 C   0  0  0  0  0  0  0  0  0  0  0  0
  190.1800  173.9090  143.1530 C   0  0  0  0  0  2  0  0  0  0  0  0
  187.3630  178.3060  142.2260 C   0  0  0  0  0  2  0  0  0  0  0  0
  185.8870  178.6380  142.3030 C   0  0  0  0  0  2  0  0  0  0  0  0
  185.5590  180.0290  144.2040 O   0  0  0  0  0  0  0  0  0  0  0  0
  185.4950  178.8680  143.7190 C   0  0  0  0  0  0  0  0  0  0  0  0
  185.0820  177.7630  144.5250 N   0  0  0  0  0  2  0  0  0  0  0  0
  184.6770  177.9170  145.9140 C   0  0  0  0  0  2  0  0  0  0  0  0
  185.7010  177.4770  146.7540 O   0  0  0  0  0  0  0  0  0  0  0  0
  185.9870  178.5780  147.5600 C   0  0  0  0  0  1  0  0  0  0  0  0
  1  4  1  0  0  0  0
  2 17  2  0  0  0  0
  2 19  1  0  0  0  0
  3 13  1  0  0  0  0
  4  8  1  0  0  0  0
  5 14  1  0  0  0  0
  6  3  1  0  0  0  0
  6 17  1  0  0  0  0
  7  3  2  0  0  0  0
  8  9  1  0  0  0  0
  9 15  1  0  0  0  0
  9  5  2  0  0  0  0
 11 14  1  0  0  0  0
 12 15  1  0  0  0  0
 13  1  1  0  0  0  0
 13 18  1  6  0  0  0
 14 10  2  0  0  0  0
 15 11  1  0  0  0  0
 16  8  2  0  0  0  0
 16 12  1  0  0  0  0
 17  1  1  0  0  0  0
 18 16  1  0  0  0  0
 19 20  1  0  0  0  0
 20 22  1  0  0  0  0
 22 21  2  0  0  0  0
 22 23  1  0  0  0  0
 23 24  1  0  0  0  0
 24 25  1  0  0  0  0
 25 26  1  0  0  0  0
M  END
>  <MODEL>
4

>  <REMARK>
 VINA RESULT:      -6.6      1.698      4.943
  Name = 
  5 active torsions:
  status: ('A' for Active; 'I' for Inactive)
    1  A    between atoms: C_2  and  C_20
    2  A    between atoms: O_4  and  C_9
    3  A    between atoms: C_7  and  C_10
    4  A    between atoms: C_7  and  C_20
    5  A    between atoms: C_9  and  N_21
                            x       y       z     vdW  Elec       q    Type
                         _______ _______ _______ _____ _____    ______ ____

>  <TORSDO>
F 5

$$$$
=
 OpenBabel11042417223D

 26 29  0  0  1  0  0  0  0  0999 V2000
  187.4270  177.9580  145.3170 N   0  0  0  0  0  0  0  0  0  0  0  0
  185.5330  178.7170  143.9300 C   0  0  0  0  0  3  0  0  0  0  0  0
  186.1630  177.6440  147.2190 C   0  0  0  0  0  0  0  0  0  0  0  0
  188.5010  177.8370  144.3260 C   0  0  0  0  0  2  0  0  0  0  0  0
  191.1910  176.1950  142.9260 C   0  0  0  0  0  3  0  0  0  0  0  0
  185.2440  178.0990  146.2330 N   0  0  0  0  0  2  0  0  0  0  0  0
  185.8170  177.3910  148.4030 O   0  0  0  0  0  0  0  0  0  0  0  0
  189.2900  176.6120  144.6380 C   0  0  0  0  0  0  0  0  0  0  0  0
  190.3690  176.0320  144.0170 C   0  0  0  0  0  0  0  0  0  0  0  0
  193.0440  174.8430  142.3820 O   0  0  0  0  0  0  0  0  0  0  0  0
  191.8050  174.3980  144.2680 N   0  0  0  0  0  2  0  0  0  0  0  0
  190.0320  174.8600  145.8060 O   0  0  0  0  0  0  0  0  0  0  0  0
  187.5630  177.5260  146.7140 C   0  0  1  0  0  3  0  0  0  0  0  0
  192.0800  175.1160  143.1440 C   0  0  0  0  0  0  0  0  0  0  0  0
  190.7470  175.0140  144.7370 N   0  0  0  0  0  0  0  0  0  0  0  0
  189.1230  175.8270  145.7860 C   0  0  0  0  0  0  0  0  0  0  0  0
  186.0520  178.2810  145.0810 C   0  0  0  0  0  0  0  0  0  0  0  0
  188.0440  176.0650  146.7930 C   0  0  0  0  0  2  0  0  0  0  0  0
  186.3220  178.9470  142.6880 C   0  0  0  0  0  2  0  0  0  0  0  0
  185.6230  178.2900  141.5150 C   0  0  0  0  0  2  0  0  0  0  0  0
  186.7560  177.3850  139.6290 O   0  0  0  0  0  0  0  0  0  0  0  0
  186.5370  177.3120  140.8680 C   0  0  0  0  0  0  0  0  0  0  0  0
  187.1320  176.2770  141.6530 N   0  0  0  0  0  2  0  0  0  0  0  0
  188.0410  175.2910  141.0880 C   0  0  0  0  0  2  0  0  0  0  0  0
  188.2570  174.2660  142.0090 O   0  0  0  0  0  0  0  0  0  0  0  0
  188.1910  173.0970  141.2510 C   0  0  0  0  0  1  0  0  0  0  0  0
  1 13  1  0  0  0  0
  2 17  2  0  0  0  0
  3  7  2  0  0  0  0
  4  8  1  0  0  0  0
  4  1  1  0  0  0  0
  5 14  1  0  0  0  0
  5  9  2  0  0  0  0
  6  3  1  0  0  0  0
  8 16  2  0  0  0  0
  9  8  1  0  0  0  0
  9 15  1  0  0  0  0
 10 14  2  0  0  0  0
 11 15  1  0  0  0  0
 13 18  1  6  0  0  0
 13  3  1  0  0  0  0
 14 11  1  0  0  0  0
 15 12  1  0  0  0  0
 16 12  1  0  0  0  0
 16 18  1  0  0  0  0
 17  1  1  0  0  0  0
 17  6  1  0  0  0  0
 19  2  1  0  0  0  0
 20 19  1  0  0  0  0
 21 22  2  0  0  0  0
 22 20  1  0  0  0  0
 22 23  1  0  0  0  0
 24 23  1  0  0  0  0
 24 25  1  0  0  0  0
 26 25  1  0  0  0  0
M  END
>  <MODEL>
5

>  <REMARK>
 VINA RESULT:      -6.5      2.050      2.601
  Name = 
  5 active torsions:
  status: ('A' for Active; 'I' for Inactive)
    1  A    between atoms: C_2  and  C_20
    2  A    between atoms: O_4  and  C_9
    3  A    between atoms: C_7  and  C_10
    4  A    between atoms: C_7  and  C_20
    5  A    between atoms: C_9  and  N_21
                            x       y       z     vdW  Elec       q    Type
                         _______ _______ _______ _____ _____    ______ ____

>  <TORSDO>
F 5

$$$$
=
 OpenBabel11042417223D

 26 29  0  0  1  0  0  0  0  0999 V2000
  189.7560  176.4220  144.9380 N   0  0  0  0  0  0  0  0  0  0  0  0
  188.0510  176.5160  146.7180 C   0  0  0  0  0  3  0  0  0  0  0  0
  191.5450  176.3090  146.3850 C   0  0  0  0  0  0  0  0  0  0  0  0
  188.9310  176.2810  143.7330 C   0  0  0  0  0  2  0  0  0  0  0  0
  188.2270  174.8770  140.6630 C   0  0  0  0  0  3  0  0  0  0  0  0
  190.3950  176.3700  147.2200 N   0  0  0  0  0  2  0  0  0  0  0  0
  192.7160  176.2610  146.8460 O   0  0  0  0  0  0  0  0  0  0  0  0
  189.5980  175.3110  142.8190 C   0  0  0  0  0  0  0  0  0  0  0  0
  189.2400  174.8110  141.5920 C   0  0  0  0  0  0  0  0  0  0  0  0
  188.2010  173.7870  138.5720 O   0  0  0  0  0  0  0  0  0  0  0  0
  190.0080  173.5490  139.9740 N   0  0  0  0  0  2  0  0  0  0  0  0
  191.2130  174.0130  141.9890 O   0  0  0  0  0  0  0  0  0  0  0  0
  191.2210  176.3340  144.9280 C   0  0  1  0  0  3  0  0  0  0  0  0
  188.7780  174.0450  139.6600 C   0  0  0  0  0  0  0  0  0  0  0  0
  190.2130  174.0560  141.1670 N   0  0  0  0  0  0  0  0  0  0  0  0
  190.8770  174.7770  143.0200 C   0  0  0  0  0  0  0  0  0  0  0  0
  189.3170  176.4380  146.3010 C   0  0  0  0  0  0  0  0  0  0  0  0
  191.6890  175.0320  144.2500 C   0  0  0  0  0  2  0  0  0  0  0  0
  186.8720  176.6070  145.8120 C   0  0  0  0  0  2  0  0  0  0  0  0
  185.6940  177.1870  146.5680 C   0  0  0  0  0  2  0  0  0  0  0  0
  183.8590  178.6210  146.0840 O   0  0  0  0  0  0  0  0  0  0  0  0
  184.8090  177.9280  145.6310 C   0  0  0  0  0  0  0  0  0  0  0  0
  185.0240  177.8180  144.2230 N   0  0  0  0  0  2  0  0  0  0  0  0
  184.2010  178.5200  143.2490 C   0  0  0  0  0  2  0  0  0  0  0  0
  184.8010  178.4550  141.9910 O   0  0  0  0  0  0  0  0  0  0  0  0
  186.1690  178.4450  142.2570 C   0  0  0  0  0  1  0  0  0  0  0  0
  1 17  1  0  0  0  0
  3  7  2  0  0  0  0
  3  6  1  0  0  0  0
  4  1  1  0  0  0  0
  5  9  2  0  0  0  0
  8 16  2  0  0  0  0
  8  4  1  0  0  0  0
  9  8  1  0  0  0  0
 10 14  2  0  0  0  0
 11 15  1  0  0  0  0
 12 16  1  0  0  0  0
 13 18  1  6  0  0  0
 13  1  1  0  0  0  0
 13  3  1  0  0  0  0
 14 11  1  0  0  0  0
 14  5  1  0  0  0  0
 15  9  1  0  0  0  0
 15 12  1  0  0  0  0
 16 18  1  0  0  0  0
 17  2  2  0  0  0  0
 17  6  1  0  0  0  0
 19 20  1  0  0  0  0
 19  2  1  0  0  0  0
 22 21  2  0  0  0  0
 22 20  1  0  0  0  0
 23 22  1  0  0  0  0
 24 23  1  0  0  0  0
 25 26  1  0  0  0  0
 25 24  1  0  0  0  0
M  END
>  <MODEL>
6

>  <REMARK>
 VINA RESULT:      -6.4      1.835      6.289
  Name = 
  5 active torsions:
  status: ('A' for Active; 'I' for Inactive)
    1  A    between atoms: C_2  and  C_20
    2  A    between atoms: O_4  and  C_9
    3  A    between atoms: C_7  and  C_10
    4  A    between atoms: C_7  and  C_20
    5  A    between atoms: C_9  and  N_21
                            x       y       z     vdW  Elec       q    Type
                         _______ _______ _______ _____ _____    ______ ____

>  <TORSDO>
F 5

$$$$
=
 OpenBabel11042417223D

 26 29  0  0  1  0  0  0  0  0999 V2000
  187.5590  177.6000  144.5000 N   0  0  0  0  0  0  0  0  0  0  0  0
  186.4940  176.8910  142.3900 C   0  0  0  0  0  3  0  0  0  0  0  0
  185.6290  177.4630  145.7510 C   0  0  0  0  0  0  0  0  0  0  0  0
  188.9790  177.6220  144.1320 C   0  0  0  0  0  2  0  0  0  0  0  0
  192.3050  176.9610  144.7600 C   0  0  0  0  0  3  0  0  0  0  0  0
  185.2480  177.0780  144.4350 N   0  0  0  0  0  2  0  0  0  0  0  0
  184.8080  177.5240  146.7040 O   0  0  0  0  0  0  0  0  0  0  0  0
  189.7670  177.0740  145.2730 C   0  0  0  0  0  0  0  0  0  0  0  0
  191.1120  176.8540  145.4370 C   0  0  0  0  0  0  0  0  0  0  0  0
  194.4380  176.4740  145.6400 O   0  0  0  0  0  0  0  0  0  0  0  0
  192.5660  176.2340  146.9540 N   0  0  0  0  0  2  0  0  0  0  0  0
  190.2100  176.3800  147.3470 O   0  0  0  0  0  0  0  0  0  0  0  0
  187.0770  177.8050  145.8710 C   0  0  1  0  0  3  0  0  0  0  0  0
  193.1890  176.5450  145.7840 C   0  0  0  0  0  0  0  0  0  0  0  0
  191.3050  176.4400  146.6580 N   0  0  0  0  0  0  0  0  0  0  0  0
  189.2370  176.7660  146.5320 C   0  0  0  0  0  0  0  0  0  0  0  0
  186.4550  177.1730  143.6950 C   0  0  0  0  0  0  0  0  0  0  0  0
  187.7780  176.8430  146.8500 C   0  0  0  0  0  2  0  0  0  0  0  0
  187.7200  176.9850  141.5490 C   0  0  0  0  0  2  0  0  0  0  0  0
  187.9310  175.6780  140.8120 C   0  0  0  0  0  2  0  0  0  0  0  0
  187.6270  173.6590  142.0320 O   0  0  0  0  0  0  0  0  0  0  0  0
  188.3840  174.6300  141.7650 C   0  0  0  0  0  0  0  0  0  0  0  0
  189.6610  174.7540  142.3940 N   0  0  0  0  0  2  0  0  0  0  0  0
  190.1710  173.7630  143.3290 C   0  0  0  0  0  2  0  0  0  0  0  0
  191.5610  173.8600  143.4080 O   0  0  0  0  0  0  0  0  0  0  0  0
  191.8860  173.2370  144.6120 C   0  0  0  0  0  1  0  0  0  0  0  0
  1 13  1  0  0  0  0
  2 17  2  0  0  0  0
  3 13  1  0  0  0  0
  3  7  2  0  0  0  0
  4  1  1  0  0  0  0
  4  8  1  0  0  0  0
  5  9  2  0  0  0  0
  5 14  1  0  0  0  0
  6  3  1  0  0  0  0
  8  9  1  0  0  0  0
  8 16  2  0  0  0  0
  9 15  1  0  0  0  0
 10 14  2  0  0  0  0
 13 18  1  1  0  0  0
 14 11  1  0  0  0  0
 15 11  1  0  0  0  0
 15 12  1  0  0  0  0
 16 18  1  0  0  0  0
 16 12  1  0  0  0  0
 17  6  1  0  0  0  0
 17  1  1  0  0  0  0
 19  2  1  0  0  0  0
 20 19  1  0  0  0  0
 20 22  1  0  0  0  0
 22 21  2  0  0  0  0
 22 23  1  0  0  0  0
 23 24  1  0  0  0  0
 24 25  1  0  0  0  0
 25 26  1  0  0  0  0
M  END
>  <MODEL>
7

>  <REMARK>
 VINA RESULT:      -6.3      1.710      1.880
  Name = 
  5 active torsions:
  status: ('A' for Active; 'I' for Inactive)
    1  A    between atoms: C_2  and  C_20
    2  A    between atoms: O_4  and  C_9
    3  A    between atoms: C_7  and  C_10
    4  A    between atoms: C_7  and  C_20
    5  A    between atoms: C_9  and  N_21
                            x       y       z     vdW  Elec       q    Type
                         _______ _______ _______ _____ _____    ______ ____

>  <TORSDO>
F 5

$$$$
=
 OpenBabel11042417223D

 26 29  0  0  1  0  0  0  0  0999 V2000
  189.9920  175.0280  144.7130 N   0  0  0  0  0  0  0  0  0  0  0  0
  190.0760  174.5550  142.2930 C   0  0  0  0  0  3  0  0  0  0  0  0
  192.2800  175.1030  144.9780 C   0  0  0  0  0  0  0  0  0  0  0  0
  188.5590  175.2550  144.9290 C   0  0  0  0  0  2  0  0  0  0  0  0
  185.9180  176.9850  146.3160 C   0  0  0  0  0  3  0  0  0  0  0  0
  192.0740  174.8340  143.5960 N   0  0  0  0  0  2  0  0  0  0  0  0
  193.4280  175.1900  145.4880 O   0  0  0  0  0  0  0  0  0  0  0  0
  188.4030  176.3900  145.8820 C   0  0  0  0  0  0  0  0  0  0  0  0
  187.2920  177.0150  146.3920 C   0  0  0  0  0  0  0  0  0  0  0  0
  184.4400  178.3340  147.5640 O   0  0  0  0  0  0  0  0  0  0  0  0
  186.7120  178.5390  147.8540 N   0  0  0  0  0  2  0  0  0  0  0  0
  188.9790  177.9200  147.4020 O   0  0  0  0  0  0  0  0  0  0  0  0
  191.0090  175.2420  145.7490 C   0  0  1  0  0  3  0  0  0  0  0  0
  185.6130  177.9860  147.2690 C   0  0  0  0  0  0  0  0  0  0  0  0
  187.6920  177.9000  147.2600 N   0  0  0  0  0  0  0  0  0  0  0  0
  189.4570  177.0010  146.5730 C   0  0  0  0  0  0  0  0  0  0  0  0
  190.6620  174.7960  143.4680 C   0  0  0  0  0  0  0  0  0  0  0  0
  190.8950  176.6570  146.3480 C   0  0  0  0  0  2  0  0  0  0  0  0
  188.6020  174.4830  142.0890 C   0  0  0  0  0  2  0  0  0  0  0  0
  188.1920  175.4570  141.0030 C   0  0  0  0  0  2  0  0  0  0  0  0
  188.3670  177.7330  141.6720 O   0  0  0  0  0  0  0  0  0  0  0  0
  187.6510  176.6980  141.6180 C   0  0  0  0  0  0  0  0  0  0  0  0
  186.3340  176.6940  142.1720 N   0  0  0  0  0  2  0  0  0  0  0  0
  185.7380  177.8730  142.7820 C   0  0  0  0  0  2  0  0  0  0  0  0
  184.3950  177.9640  142.4180 O   0  0  0  0  0  0  0  0  0  0  0  0
  184.4230  178.2910  141.0620 C   0  0  0  0  0  1  0  0  0  0  0  0
  1  4  1  0  0  0  0
  1 13  1  0  0  0  0
  2 17  2  0  0  0  0
  3  7  2  0  0  0  0
  3 13  1  0  0  0  0
  4  8  1  0  0  0  0
  5  9  2  0  0  0  0
  5 14  1  0  0  0  0
  6  3  1  0  0  0  0
  8  9  1  0  0  0  0
  8 16  2  0  0  0  0
  9 15  1  0  0  0  0
 13 18  1  6  0  0  0
 14 10  2  0  0  0  0
 14 11  1  0  0  0  0
 15 12  1  0  0  0  0
 15 11  1  0  0  0  0
 16 12  1  0  0  0  0
 17  6  1  0  0  0  0
 17  1  1  0  0  0  0
 18 16  1  0  0  0  0
 19  2  1  0  0  0  0
 20 22  1  0  0  0  0
 20 19  1  0  0  0  0
 22 21  2  0  0  0  0
 22 23  1  0  0  0  0
 23 24  1  0  0  0  0
 25 24  1  0  0  0  0
 26 25  1  0  0  0  0
M  END
>  <MODEL>
8

>  <REMARK>
 VINA RESULT:      -6.3      2.107      5.502
  Name = 
  5 active torsions:
  status: ('A' for Active; 'I' for Inactive)
    1  A    between atoms: C_2  and  C_20
    2  A    between atoms: O_4  and  C_9
    3  A    between atoms: C_7  and  C_10
    4  A    between atoms: C_7  and  C_20
    5  A    between atoms: C_9  and  N_21
                            x       y       z     vdW  Elec       q    Type
                         _______ _______ _______ _____ _____    ______ ____

>  <TORSDO>
F 5

$$$$
=
 OpenBabel11042417223D

 26 29  0  0  1  0  0  0  0  0999 V2000
  187.1310  177.9150  143.7700 N   0  0  0  0  0  0  0  0  0  0  0  0
  186.3960  176.8400  141.6740 C   0  0  0  0  0  3  0  0  0  0  0  0
  184.9980  178.3770  144.5120 C   0  0  0  0  0  0  0  0  0  0  0  0
  188.5720  177.6430  143.7630 C   0  0  0  0  0  2  0  0  0  0  0  0
  191.5090  176.7100  145.3110 C   0  0  0  0  0  3  0  0  0  0  0  0
  184.8230  177.7220  143.2610 N   0  0  0  0  0  2  0  0  0  0  0  0
  184.0300  178.7970  145.1990 O   0  0  0  0  0  0  0  0  0  0  0  0
  188.9920  177.3050  145.1530 C   0  0  0  0  0  0  0  0  0  0  0  0
  190.2060  176.9490  145.6840 C   0  0  0  0  0  0  0  0  0  0  0  0
  193.2830  176.1750  146.7690 O   0  0  0  0  0  0  0  0  0  0  0  0
  191.1750  176.5460  147.6070 N   0  0  0  0  0  2  0  0  0  0  0  0
  188.8620  177.1150  147.3730 O   0  0  0  0  0  0  0  0  0  0  0  0
  186.4300  178.5330  144.9030 C   0  0  1  0  0  3  0  0  0  0  0  0
  192.0700  176.4540  146.5850 C   0  0  0  0  0  0  0  0  0  0  0  0
  190.0640  176.8420  146.9750 N   0  0  0  0  0  0  0  0  0  0  0  0
  188.1680  177.4090  146.2810 C   0  0  0  0  0  0  0  0  0  0  0  0
  186.1490  177.4520  142.8350 C   0  0  0  0  0  0  0  0  0  0  0  0
  186.7190  177.7690  146.2090 C   0  0  0  0  0  2  0  0  0  0  0  0
  187.7610  176.5420  141.1570 C   0  0  0  0  0  2  0  0  0  0  0  0
  188.0970  175.0880  141.4220 C   0  0  0  0  0  2  0  0  0  0  0  0
  189.5720  173.6660  140.2150 O   0  0  0  0  0  0  0  0  0  0  0  0
  188.5850  174.4470  140.1720 C   0  0  0  0  0  0  0  0  0  0  0  0
  187.9490  174.7510  138.9290 N   0  0  0  0  0  2  0  0  0  0  0  0
  188.3690  174.1560  137.6700 C   0  0  0  0  0  2  0  0  0  0  0  0
  188.0990  175.0330  136.6200 O   0  0  0  0  0  0  0  0  0  0  0  0
  186.9910  175.7620  137.0520 C   0  0  0  0  0  1  0  0  0  0  0  0
  1 13  1  0  0  0  0
  2 17  2  0  0  0  0
  3 13  1  0  0  0  0
  3  7  2  0  0  0  0
  4  1  1  0  0  0  0
  4  8  1  0  0  0  0
  5  9  2  0  0  0  0
  5 14  1  0  0  0  0
  6  3  1  0  0  0  0
  8  9  1  0  0  0  0
  8 16  2  0  0  0  0
  9 15  1  0  0  0  0
 13 18  1  1  0  0  0
 14 10  2  0  0  0  0
 14 11  1  0  0  0  0
 15 12  1  0  0  0  0
 15 11  1  0  0  0  0
 16 12  1  0  0  0  0
 17  6  1  0  0  0  0
 17  1  1  0  0  0  0
 18 16  1  0  0  0  0
 19 20  1  0  0  0  0
 19  2  1  0  0  0  0
 22 21  2  0  0  0  0
 22 20  1  0  0  0  0
 23 22  1  0  0  0  0
 24 23  1  0  0  0  0
 25 26  1  0  0  0  0
 25 24  1  0  0  0  0
M  END
>  <MODEL>
9

>  <REMARK>
 VINA RESULT:      -6.2      2.039      2.581
  Name = 
  5 active torsions:
  status: ('A' for Active; 'I' for Inactive)
    1  A    between atoms: C_2  and  C_20
    2  A    between atoms: O_4  and  C_9
    3  A    between atoms: C_7  and  C_10
    4  A    between atoms: C_7  and  C_20
    5  A    between atoms: C_9  and  N_21
                            x       y       z     vdW  Elec       q    Type
                         _______ _______ _______ _____ _____    ______ ____

>  <TORSDO>
F 5

$$$$
