=
 OpenBabel11042413453D

 30 31  0  0  1  0  0  0  0  0999 V2000
  186.5790  177.6270  146.4680 O   0  0  0  0  0  0  0  0  0  0  0  0
  188.2490  176.0570  145.9850 N   0  0  0  0  0  0  0  0  0  0  0  0
  187.7980  176.9200  143.1660 C   0  0  2  0  0  3  0  0  0  0  0  0
  190.3580  178.2550  142.3080 O   0  0  0  0  0  1  0  0  0  0  0  0
  190.7150  175.3150  147.7580 C   0  0  0  0  0  2  0  0  0  0  0  0
  191.7370  176.7550  143.5230 C   0  0  0  0  0  2  0  0  0  0  0  0
  192.4560  177.1420  144.8150 C   0  0  0  0  0  2  0  0  0  0  0  0
  187.4010  177.6520  144.3260 O   0  0  0  0  0  0  0  0  0  0  0  0
  189.3940  174.5750  147.4960 C   0  0  0  0  0  2  0  0  0  0  0  0
  190.3470  177.3860  143.4020 C   0  0  2  0  0  3  0  0  0  0  0  0
  188.2970  175.5490  147.1720 C   0  0  0  0  0  3  0  0  0  0  0  0
  192.2160  176.1110  145.8860 C   0  0  0  0  0  0  0  0  0  0  0  0
  189.2280  176.3200  143.2430 C   0  0  2  0  0  3  0  0  0  0  0  0
  191.0800  176.2100  146.6000 C   0  0  0  0  0  3  0  0  0  0  0  0
  187.3510  177.1100  145.6120 C   0  0  0  0  0  0  0  0  0  0  0  0
  194.6210  175.7490  146.3210 C   0  0  0  0  0  3  0  0  0  0  0  0
  194.7610  174.0630  144.7980 C   0  0  0  0  0  3  0  0  0  0  0  0
  193.2770  175.1010  146.2640 C   0  0  2  0  0  3  0  0  0  0  0  0
  193.5130  174.0470  145.2290 C   0  0  0  0  0  0  0  0  0  0  0  0
  192.5130  173.0240  144.8060 C   0  0  0  0  0  1  0  0  0  0  0  0
  195.4570  175.1410  145.4880 C   0  0  0  0  0  3  0  0  0  0  0  0
  189.5170  175.3570  142.1570 N   0  0  0  0  0  0  0  0  0  0  0  0
  190.2200  174.2230  142.7560 C   0  0  0  0  0  2  0  0  0  0  0  0
  189.3300  173.5520  143.7910 C   0  0  0  0  0  1  0  0  0  0  0  0
  188.6210  174.5010  140.3440 C   0  0  0  0  0  1  0  0  0  0  0  0
  188.3470  174.8450  141.6760 O   0  0  0  0  0  0  0  0  0  0  0  0
  187.5660  177.7590  141.9090 C   0  0  0  0  0  2  0  0  0  0  0  0
  186.2440  177.4110  141.2440 C   0  0  0  0  0  3  0  0  0  0  0  0
  186.3760  177.4620  139.7320 C   0  0  0  0  0  1  0  0  0  0  0  0
  185.1810  178.3970  141.6890 C   0  0  0  0  0  1  0  0  0  0  0  0
  2 11  2  0  0  0  0
  3 27  1  6  0  0  0
  3 13  1  0  0  0  0
  3  8  1  0  0  0  0
  6  7  1  0  0  0  0
  7 12  1  0  0  0  0
  8 15  1  0  0  0  0
  9  5  1  0  0  0  0
 10  4  1  6  0  0  0
 10  6  1  0  0  0  0
 11  9  1  0  0  0  0
 12 14  2  0  0  0  0
 13 22  1  6  0  0  0
 13 10  1  0  0  0  0
 14  5  1  0  0  0  0
 15  2  1  0  0  0  0
 15  1  2  0  0  0  0
 17 19  2  0  0  0  0
 17 21  1  0  0  0  0
 18 12  1  6  0  0  0
 18 16  1  0  0  0  0
 19 18  1  0  0  0  0
 20 19  1  0  0  0  0
 21 16  2  0  0  0  0
 22 23  1  0  0  0  0
 23 24  1  0  0  0  0
 25 26  1  0  0  0  0
 26 22  1  0  0  0  0
 28 30  1  0  0  0  0
 28 27  1  0  0  0  0
 29 28  1  0  0  0  0
M  END
>  <MODEL>
1

>  <REMARK>
 VINA RESULT:      -7.1      0.000      0.000
  Name = 
  6 active torsions:
  status: ('A' for Active; 'I' for Inactive)
    1  A    between atoms: C_2  and  N_10
    2  A    between atoms: C_6  and  C_25
    3  A    between atoms: C_8  and  C_21
    4  A    between atoms: N_10  and  O_17
    5  A    between atoms: N_10  and  C_27
    6  A    between atoms: C_22  and  C_25
                            x       y       z     vdW  Elec       q    Type
                         _______ _______ _______ _____ _____    ______ ____

>  <TORSDO>
F 6

$$$$
=
 OpenBabel11042413453D

 30 31  0  0  1  0  0  0  0  0999 V2000
  186.3550  176.9180  146.8480 O   0  0  0  0  0  0  0  0  0  0  0  0
  188.2300  175.7690  146.0420 N   0  0  0  0  0  0  0  0  0  0  0  0
  187.0470  176.3620  143.3690 C   0  0  2  0  0  3  0  0  0  0  0  0
  188.9920  178.2250  142.0190 O   0  0  0  0  0  1  0  0  0  0  0  0
  191.0970  175.7210  147.2880 C   0  0  0  0  0  2  0  0  0  0  0  0
  190.9010  177.1560  142.9350 C   0  0  0  0  0  2  0  0  0  0  0  0
  191.7410  177.7650  144.0580 C   0  0  0  0  0  2  0  0  0  0  0  0
  186.7160  177.0350  144.5850 O   0  0  0  0  0  0  0  0  0  0  0  0
  189.9710  174.6760  147.2950 C   0  0  0  0  0  2  0  0  0  0  0  0
  189.4040  177.4320  143.0930 C   0  0  2  0  0  3  0  0  0  0  0  0
  188.6280  175.3450  147.1950 C   0  0  0  0  0  3  0  0  0  0  0  0
  191.9690  176.7590  145.1560 C   0  0  0  0  0  0  0  0  0  0  0  0
  188.5670  176.1240  143.1600 C   0  0  2  0  0  3  0  0  0  0  0  0
  191.0040  176.6200  146.0810 C   0  0  0  0  0  3  0  0  0  0  0  0
  187.0490  176.5590  145.8560 C   0  0  0  0  0  0  0  0  0  0  0  0
  194.3790  177.0280  145.6290 C   0  0  0  0  0  3  0  0  0  0  0  0
  194.9930  175.9490  143.7200 C   0  0  0  0  0  3  0  0  0  0  0  0
  193.2960  176.0500  145.3140 C   0  0  2  0  0  3  0  0  0  0  0  0
  193.8190  175.4420  144.0510 C   0  0  0  0  0  0  0  0  0  0  0  0
  193.1690  174.3260  143.3060 C   0  0  0  0  0  1  0  0  0  0  0  0
  195.3420  176.9520  144.7190 C   0  0  0  0  0  3  0  0  0  0  0  0
  188.8660  175.2070  142.0390 N   0  0  0  0  0  0  0  0  0  0  0  0
  188.6840  173.8410  142.5320 C   0  0  0  0  0  2  0  0  0  0  0  0
  189.6380  173.5780  143.6870 C   0  0  0  0  0  1  0  0  0  0  0  0
  188.3640  174.5400  140.0060 C   0  0  0  0  0  1  0  0  0  0  0  0
  187.9320  175.3640  141.0560 O   0  0  0  0  0  0  0  0  0  0  0  0
  186.3810  177.0600  142.1830 C   0  0  0  0  0  2  0  0  0  0  0  0
  185.2270  177.9410  142.6340 C   0  0  0  0  0  3  0  0  0  0  0  0
  184.2000  178.0880  141.5240 C   0  0  0  0  0  1  0  0  0  0  0  0
  185.7560  179.3120  143.0100 C   0  0  0  0  0  1  0  0  0  0  0  0
  2 11  2  0  0  0  0
  3 27  1  6  0  0  0
  3  8  1  0  0  0  0
  5  9  1  0  0  0  0
  6 10  1  0  0  0  0
  6  7  1  0  0  0  0
  7 12  1  0  0  0  0
  8 15  1  0  0  0  0
 10  4  1  6  0  0  0
 10 13  1  0  0  0  0
 11  9  1  0  0  0  0
 12 14  2  0  0  0  0
 13 22  1  6  0  0  0
 13  3  1  0  0  0  0
 14  5  1  0  0  0  0
 15  2  1  0  0  0  0
 15  1  2  0  0  0  0
 17 19  2  0  0  0  0
 17 21  1  0  0  0  0
 18 12  1  6  0  0  0
 18 16  1  0  0  0  0
 19 18  1  0  0  0  0
 20 19  1  0  0  0  0
 21 16  2  0  0  0  0
 22 23  1  0  0  0  0
 23 24  1  0  0  0  0
 25 26  1  0  0  0  0
 26 22  1  0  0  0  0
 27 28  1  0  0  0  0
 28 30  1  0  0  0  0
 29 28  1  0  0  0  0
M  END
>  <MODEL>
2

>  <REMARK>
 VINA RESULT:      -7.1      1.194      1.326
  Name = 
  6 active torsions:
  status: ('A' for Active; 'I' for Inactive)
    1  A    between atoms: C_2  and  N_10
    2  A    between atoms: C_6  and  C_25
    3  A    between atoms: C_8  and  C_21
    4  A    between atoms: N_10  and  O_17
    5  A    between atoms: N_10  and  C_27
    6  A    between atoms: C_22  and  C_25
                            x       y       z     vdW  Elec       q    Type
                         _______ _______ _______ _____ _____    ______ ____

>  <TORSDO>
F 6

$$$$
=
 OpenBabel11042413453D

 30 31  0  0  1  0  0  0  0  0999 V2000
  192.6020  173.5010  141.3910 O   0  0  0  0  0  0  0  0  0  0  0  0
  190.7460  173.9110  142.7590 N   0  0  0  0  0  0  0  0  0  0  0  0
  192.6650  175.5800  144.3170 C   0  0  2  0  0  3  0  0  0  0  0  0
  191.6860  178.4150  144.0350 O   0  0  0  0  0  1  0  0  0  0  0  0
  187.7560  174.1310  141.8730 C   0  0  0  0  0  2  0  0  0  0  0  0
  189.3950  177.8000  144.0870 C   0  0  0  0  0  2  0  0  0  0  0  0
  188.5000  177.8080  142.8480 C   0  0  0  0  0  2  0  0  0  0  0  0
  192.8540  175.1470  142.9690 O   0  0  0  0  0  0  0  0  0  0  0  0
  188.5230  173.0050  142.5820 C   0  0  0  0  0  2  0  0  0  0  0  0
  190.8250  177.3420  143.7860 C   0  0  2  0  0  3  0  0  0  0  0  0
  189.9770  173.0350  142.2020 C   0  0  0  0  0  3  0  0  0  0  0  0
  187.7470  176.5100  142.7270 C   0  0  0  0  0  0  0  0  0  0  0  0
  191.2370  176.1040  144.6290 C   0  0  2  0  0  3  0  0  0  0  0  0
  188.3810  175.4770  142.1460 C   0  0  0  0  0  3  0  0  0  0  0  0
  192.1040  174.1380  142.3610 C   0  0  0  0  0  0  0  0  0  0  0  0
  185.4530  177.2340  142.1640 C   0  0  0  0  0  3  0  0  0  0  0  0
  185.0520  177.9980  144.2720 C   0  0  0  0  0  3  0  0  0  0  0  0
  186.2820  176.4090  143.0910 C   0  0  2  0  0  3  0  0  0  0  0  0
  185.9360  177.0260  144.4090 C   0  0  0  0  0  0  0  0  0  0  0  0
  186.4260  176.5460  145.7330 C   0  0  0  0  0  1  0  0  0  0  0  0
  184.7520  178.1280  142.8510 C   0  0  0  0  0  3  0  0  0  0  0  0
  190.9880  176.2990  146.0750 N   0  0  0  0  0  0  0  0  0  0  0  0
  190.7310  174.9800  146.6540 C   0  0  0  0  0  2  0  0  0  0  0  0
  189.4580  174.3960  146.0620 C   0  0  0  0  0  1  0  0  0  0  0  0
  191.8300  176.7630  148.0500 C   0  0  0  0  0  1  0  0  0  0  0  0
  192.1280  176.7430  146.6790 O   0  0  0  0  0  0  0  0  0  0  0  0
  193.7650  176.5660  144.7120 C   0  0  0  0  0  2  0  0  0  0  0  0
  194.9960  175.8440  145.2340 C   0  0  0  0  0  3  0  0  0  0  0  0
  196.0370  175.6980  144.1370 C   0  0  0  0  0  1  0  0  0  0  0  0
  194.6000  174.4680  145.7350 C   0  0  0  0  0  1  0  0  0  0  0  0
  1 15  2  0  0  0  0
  3 13  1  0  0  0  0
  3 27  1  6  0  0  0
  5 14  1  0  0  0  0
  5  9  1  0  0  0  0
  7  6  1  0  0  0  0
  8  3  1  0  0  0  0
 10  4  1  1  0  0  0
 10  6  1  0  0  0  0
 10 13  1  0  0  0  0
 11  9  1  0  0  0  0
 11  2  2  0  0  0  0
 12  7  1  0  0  0  0
 13 22  1  1  0  0  0
 14 12  2  0  0  0  0
 15  2  1  0  0  0  0
 15  8  1  0  0  0  0
 16 21  2  0  0  0  0
 16 18  1  0  0  0  0
 17 19  2  0  0  0  0
 18 12  1  6  0  0  0
 18 19  1  0  0  0  0
 19 20  1  0  0  0  0
 21 17  1  0  0  0  0
 22 23  1  0  0  0  0
 22 26  1  0  0  0  0
 24 23  1  0  0  0  0
 26 25  1  0  0  0  0
 27 28  1  0  0  0  0
 28 30  1  0  0  0  0
 29 28  1  0  0  0  0
M  END
>  <MODEL>
3

>  <REMARK>
 VINA RESULT:      -6.8      2.155      6.995
  Name = 
  6 active torsions:
  status: ('A' for Active; 'I' for Inactive)
    1  A    between atoms: C_2  and  N_10
    2  A    between atoms: C_6  and  C_25
    3  A    between atoms: C_8  and  C_21
    4  A    between atoms: N_10  and  O_17
    5  A    between atoms: N_10  and  C_27
    6  A    between atoms: C_22  and  C_25
                            x       y       z     vdW  Elec       q    Type
                         _______ _______ _______ _____ _____    ______ ____

>  <TORSDO>
F 6

$$$$
=
 OpenBabel11042413453D

 30 31  0  0  1  0  0  0  0  0999 V2000
  188.6780  174.5420  148.0120 O   0  0  0  0  0  0  0  0  0  0  0  0
  188.5450  176.2230  146.3860 N   0  0  0  0  0  0  0  0  0  0  0  0
  190.7000  174.6550  145.0480 C   0  0  2  0  0  3  0  0  0  0  0  0
  189.4860  173.6270  142.4900 O   0  0  0  0  0  1  0  0  0  0  0  0
  185.9890  177.7830  145.4850 C   0  0  0  0  0  2  0  0  0  0  0  0
  188.2060  175.5900  142.1200 C   0  0  0  0  0  2  0  0  0  0  0  0
  186.6920  175.6510  142.3250 C   0  0  0  0  0  2  0  0  0  0  0  0
  189.8300  174.1580  146.0650 O   0  0  0  0  0  0  0  0  0  0  0  0
  187.1680  178.1970  146.3800 C   0  0  0  0  0  2  0  0  0  0  0  0
  188.9140  174.7140  143.1570 C   0  0  2  0  0  3  0  0  0  0  0  0
  187.7610  176.9960  147.0620 C   0  0  0  0  0  3  0  0  0  0  0  0
  186.3170  176.8460  143.1610 C   0  0  0  0  0  0  0  0  0  0  0  0
  189.9940  175.4980  143.9520 C   0  0  2  0  0  3  0  0  0  0  0  0
  186.3990  176.7190  144.4970 C   0  0  0  0  0  3  0  0  0  0  0  0
  189.0370  174.9710  146.8790 C   0  0  0  0  0  0  0  0  0  0  0  0
  184.2940  178.2520  142.9690 C   0  0  0  0  0  3  0  0  0  0  0  0
  184.2920  178.1400  140.6940 C   0  0  0  0  0  3  0  0  0  0  0  0
  185.7140  178.0870  142.5400 C   0  0  2  0  0  3  0  0  0  0  0  0
  185.5560  178.0110  141.0540 C   0  0  0  0  0  0  0  0  0  0  0  0
  186.6800  177.9160  140.0780 C   0  0  0  0  0  1  0  0  0  0  0  0
  183.4970  178.2900  141.9080 C   0  0  0  0  0  3  0  0  0  0  0  0
  190.9370  176.2140  143.0650 N   0  0  0  0  0  0  0  0  0  0  0  0
  190.3830  177.5460  142.8230 C   0  0  0  0  0  2  0  0  0  0  0  0
  190.2350  178.2910  144.1410 C   0  0  0  0  0  1  0  0  0  0  0  0
  193.1090  176.2990  142.7440 C   0  0  0  0  0  1  0  0  0  0  0  0
  192.1140  176.4250  143.7250 O   0  0  0  0  0  0  0  0  0  0  0  0
  191.5460  173.5170  144.4770 C   0  0  0  0  0  2  0  0  0  0  0  0
  192.8160  173.3090  145.2840 C   0  0  0  0  0  3  0  0  0  0  0  0
  193.1180  174.5320  146.1320 C   0  0  0  0  0  1  0  0  0  0  0  0
  193.9770  173.0540  144.3410 C   0  0  0  0  0  1  0  0  0  0  0  0
  2 15  1  0  0  0  0
  2 11  2  0  0  0  0
  3 27  1  6  0  0  0
  3  8  1  0  0  0  0
  5  9  1  0  0  0  0
  6  7  1  0  0  0  0
  6 10  1  0  0  0  0
  7 12  1  0  0  0  0
  8 15  1  0  0  0  0
  9 11  1  0  0  0  0
 10  4  1  6  0  0  0
 10 13  1  0  0  0  0
 12 14  2  0  0  0  0
 13 22  1  6  0  0  0
 13  3  1  0  0  0  0
 14  5  1  0  0  0  0
 15  1  2  0  0  0  0
 17 19  2  0  0  0  0
 17 21  1  0  0  0  0
 18 16  1  0  0  0  0
 18 12  1  1  0  0  0
 19 18  1  0  0  0  0
 20 19  1  0  0  0  0
 21 16  2  0  0  0  0
 22 26  1  0  0  0  0
 23 22  1  0  0  0  0
 23 24  1  0  0  0  0
 25 26  1  0  0  0  0
 27 28  1  0  0  0  0
 28 29  1  0  0  0  0
 30 28  1  0  0  0  0
M  END
>  <MODEL>
4

>  <REMARK>
 VINA RESULT:      -6.3      1.908      6.786
  Name = 
  6 active torsions:
  status: ('A' for Active; 'I' for Inactive)
    1  A    between atoms: C_2  and  N_10
    2  A    between atoms: C_6  and  C_25
    3  A    between atoms: C_8  and  C_21
    4  A    between atoms: N_10  and  O_17
    5  A    between atoms: N_10  and  C_27
    6  A    between atoms: C_22  and  C_25
                            x       y       z     vdW  Elec       q    Type
                         _______ _______ _______ _____ _____    ______ ____

>  <TORSDO>
F 6

$$$$
=
 OpenBabel11042413453D

 30 31  0  0  1  0  0  0  0  0999 V2000
  195.7140  172.9220  146.0120 O   0  0  0  0  0  0  0  0  0  0  0  0
  194.1270  174.5060  145.3360 N   0  0  0  0  0  0  0  0  0  0  0  0
  193.5250  172.5190  143.1950 C   0  0  2  0  0  3  0  0  0  0  0  0
  190.7160  171.5730  143.7340 O   0  0  0  0  0  1  0  0  0  0  0  0
  192.4770  176.4300  147.1670 C   0  0  0  0  0  2  0  0  0  0  0  0
  189.9670  173.7030  144.4630 C   0  0  0  0  0  2  0  0  0  0  0  0
  189.6920  174.0350  145.9300 C   0  0  0  0  0  2  0  0  0  0  0  0
  194.2210  172.2370  144.4100 O   0  0  0  0  0  0  0  0  0  0  0  0
  193.6940  176.6850  146.2630 C   0  0  0  0  0  2  0  0  0  0  0  0
  191.1720  172.7780  144.2770 C   0  0  2  0  0  3  0  0  0  0  0  0
  194.5260  175.4400  146.1340 C   0  0  0  0  0  3  0  0  0  0  0  0
  190.3700  175.3220  146.3190 C   0  0  0  0  0  0  0  0  0  0  0  0
  192.2640  173.4080  143.3690 C   0  0  2  0  0  3  0  0  0  0  0  0
  191.6650  175.2580  146.6740 C   0  0  0  0  0  3  0  0  0  0  0  0
  194.7490  173.2180  145.2530 C   0  0  0  0  0  0  0  0  0  0  0  0
  188.1870  176.3300  146.8880 C   0  0  0  0  0  3  0  0  0  0  0  0
  188.0790  177.4830  144.9260 C   0  0  0  0  0  3  0  0  0  0  0  0
  189.5920  176.6110  146.4690 C   0  0  2  0  0  3  0  0  0  0  0  0
  189.3660  177.3410  145.1820 C   0  0  0  0  0  0  0  0  0  0  0  0
  190.4400  177.9400  144.3390 C   0  0  0  0  0  1  0  0  0  0  0  0
  187.3370  176.8410  146.0050 C   0  0  0  0  0  3  0  0  0  0  0  0
  191.7140  173.9000  142.0860 N   0  0  0  0  0  0  0  0  0  0  0  0
  192.7000  174.8160  141.5120 C   0  0  0  0  0  2  0  0  0  0  0  0
  192.8450  176.0410  142.4020 C   0  0  0  0  0  1  0  0  0  0  0  0
  190.4300  173.0910  140.4980 C   0  0  0  0  0  1  0  0  0  0  0  0
  191.6230  172.8650  141.2000 O   0  0  0  0  0  0  0  0  0  0  0  0
  193.2450  171.2210  142.4360 C   0  0  0  0  0  2  0  0  0  0  0  0
  193.9520  170.0390  143.0760 C   0  0  0  0  0  3  0  0  0  0  0  0
  195.0600  169.5240  142.1730 C   0  0  0  0  0  1  0  0  0  0  0  0
  192.9510  168.9260  143.3240 C   0  0  0  0  0  1  0  0  0  0  0  0
  2 11  2  0  0  0  0
  3 27  1  1  0  0  0
  3 13  1  0  0  0  0
  3  8  1  0  0  0  0
  6  7  1  0  0  0  0
  7 12  1  0  0  0  0
  8 15  1  0  0  0  0
  9  5  1  0  0  0  0
 10  4  1  6  0  0  0
 10  6  1  0  0  0  0
 11  9  1  0  0  0  0
 12 14  2  0  0  0  0
 13 22  1  6  0  0  0
 13 10  1  0  0  0  0
 14  5  1  0  0  0  0
 15  2  1  0  0  0  0
 15  1  2  0  0  0  0
 17 19  2  0  0  0  0
 17 21  1  0  0  0  0
 18 12  1  6  0  0  0
 18 16  1  0  0  0  0
 19 18  1  0  0  0  0
 20 19  1  0  0  0  0
 21 16  2  0  0  0  0
 23 22  1  0  0  0  0
 23 24  1  0  0  0  0
 25 26  1  0  0  0  0
 26 22  1  0  0  0  0
 27 28  1  0  0  0  0
 28 30  1  0  0  0  0
 29 28  1  0  0  0  0
M  END
>  <MODEL>
5

>  <REMARK>
 VINA RESULT:      -6.1      3.236      6.634
  Name = 
  6 active torsions:
  status: ('A' for Active; 'I' for Inactive)
    1  A    between atoms: C_2  and  N_10
    2  A    between atoms: C_6  and  C_25
    3  A    between atoms: C_8  and  C_21
    4  A    between atoms: N_10  and  O_17
    5  A    between atoms: N_10  and  C_27
    6  A    between atoms: C_22  and  C_25
                            x       y       z     vdW  Elec       q    Type
                         _______ _______ _______ _____ _____    ______ ____

>  <TORSDO>
F 6

$$$$
=
 OpenBabel11042413453D

 30 31  0  0  1  0  0  0  0  0999 V2000
  188.2130  177.7290  147.4470 O   0  0  0  0  0  0  0  0  0  0  0  0
  189.7250  176.1730  146.5650 N   0  0  0  0  0  0  0  0  0  0  0  0
  187.8170  176.0970  144.2740 C   0  0  2  0  0  3  0  0  0  0  0  0
  189.3250  177.2290  141.9250 O   0  0  0  0  0  1  0  0  0  0  0  0
  192.8300  176.1420  146.9260 C   0  0  0  0  0  2  0  0  0  0  0  0
  191.3880  176.2500  142.5720 C   0  0  0  0  0  2  0  0  0  0  0  0
  192.5430  177.0540  143.1690 C   0  0  0  0  0  2  0  0  0  0  0  0
  187.8850  177.1310  145.2560 O   0  0  0  0  0  0  0  0  0  0  0  0
  191.7260  175.2910  147.5710 C   0  0  0  0  0  2  0  0  0  0  0  0
  190.0150  176.7420  143.0390 C   0  0  2  0  0  3  0  0  0  0  0  0
  190.4370  176.0600  147.6370 C   0  0  0  0  0  3  0  0  0  0  0  0
  193.0580  176.3940  144.4210 C   0  0  0  0  0  0  0  0  0  0  0  0
  189.1970  175.6240  143.7420 C   0  0  2  0  0  3  0  0  0  0  0  0
  192.4090  176.6520  145.5700 C   0  0  0  0  0  3  0  0  0  0  0  0
  188.5670  177.0120  146.4700 C   0  0  0  0  0  0  0  0  0  0  0  0
  195.5200  176.5170  144.2640 C   0  0  0  0  0  3  0  0  0  0  0  0
  195.6010  175.0200  142.5490 C   0  0  0  0  0  3  0  0  0  0  0  0
  194.3490  175.6060  144.4250 C   0  0  2  0  0  3  0  0  0  0  0  0
  194.5200  174.7080  143.2410 C   0  0  0  0  0  0  0  0  0  0  0  0
  193.6580  173.5320  142.9270 C   0  0  0  0  0  1  0  0  0  0  0  0
  196.2290  176.1660  143.1970 C   0  0  0  0  0  3  0  0  0  0  0  0
  189.1190  174.3880  142.9320 N   0  0  0  0  0  0  0  0  0  0  0  0
  189.2430  173.2560  143.8500 C   0  0  0  0  0  2  0  0  0  0  0  0
  190.5250  173.3840  144.6580 C   0  0  0  0  0  1  0  0  0  0  0  0
  187.8770  173.0430  141.7180 C   0  0  0  0  0  1  0  0  0  0  0  0
  187.8730  174.2770  142.3860 O   0  0  0  0  0  0  0  0  0  0  0  0
  186.8480  176.4930  143.1590 C   0  0  0  0  0  2  0  0  0  0  0  0
  186.2490  177.8670  143.4060 C   0  0  0  0  0  3  0  0  0  0  0  0
  184.8170  177.7470  143.8970 C   0  0  0  0  0  1  0  0  0  0  0  0
  186.2710  178.6660  142.1160 C   0  0  0  0  0  1  0  0  0  0  0  0
  2 11  2  0  0  0  0
  3 27  1  6  0  0  0
  3  8  1  0  0  0  0
  5  9  1  0  0  0  0
  6 10  1  0  0  0  0
  6  7  1  0  0  0  0
  7 12  1  0  0  0  0
  8 15  1  0  0  0  0
  9 11  1  0  0  0  0
 10  4  1  6  0  0  0
 10 13  1  0  0  0  0
 12 14  2  0  0  0  0
 13 22  1  6  0  0  0
 13  3  1  0  0  0  0
 14  5  1  0  0  0  0
 15  2  1  0  0  0  0
 15  1  2  0  0  0  0
 16 18  1  0  0  0  0
 17 21  1  0  0  0  0
 17 19  2  0  0  0  0
 18 12  1  6  0  0  0
 19 18  1  0  0  0  0
 20 19  1  0  0  0  0
 21 16  2  0  0  0  0
 22 23  1  0  0  0  0
 23 24  1  0  0  0  0
 25 26  1  0  0  0  0
 26 22  1  0  0  0  0
 27 28  1  0  0  0  0
 28 29  1  0  0  0  0
 30 28  1  0  0  0  0
M  END
>  <MODEL>
6

>  <REMARK>
 VINA RESULT:      -6.1      1.533      1.993
  Name = 
  6 active torsions:
  status: ('A' for Active; 'I' for Inactive)
    1  A    between atoms: C_2  and  N_10
    2  A    between atoms: C_6  and  C_25
    3  A    between atoms: C_8  and  C_21
    4  A    between atoms: N_10  and  O_17
    5  A    between atoms: N_10  and  C_27
    6  A    between atoms: C_22  and  C_25
                            x       y       z     vdW  Elec       q    Type
                         _______ _______ _______ _____ _____    ______ ____

>  <TORSDO>
F 6

$$$$
=
 OpenBabel11042413453D

 30 31  0  0  1  0  0  0  0  0999 V2000
  186.4860  177.0700  140.6980 O   0  0  0  0  0  0  0  0  0  0  0  0
  187.2490  176.1370  142.7060 N   0  0  0  0  0  0  0  0  0  0  0  0
  188.7430  174.2860  140.9070 C   0  0  2  0  0  3  0  0  0  0  0  0
  191.6590  174.8850  141.3690 O   0  0  0  0  0  1  0  0  0  0  0  0
  187.8190  177.6340  145.3910 C   0  0  0  0  0  2  0  0  0  0  0  0
  191.3740  175.2850  143.6910 C   0  0  0  0  0  2  0  0  0  0  0  0
  191.4170  176.6820  144.3090 C   0  0  0  0  0  2  0  0  0  0  0  0
  188.1910  175.5450  140.5210 O   0  0  0  0  0  0  0  0  0  0  0  0
  186.6510  176.7340  144.9600 C   0  0  0  0  0  2  0  0  0  0  0  0
  190.7010  175.2620  142.3160 C   0  0  2  0  0  3  0  0  0  0  0  0
  186.4500  176.8040  143.4720 C   0  0  0  0  0  3  0  0  0  0  0  0
  190.2310  176.9020  145.2110 C   0  0  0  0  0  0  0  0  0  0  0  0
  189.4820  174.3000  142.2720 C   0  0  2  0  0  3  0  0  0  0  0  0
  189.0800  177.2940  144.6370 C   0  0  0  0  0  3  0  0  0  0  0  0
  187.2550  176.2530  141.2780 C   0  0  0  0  0  0  0  0  0  0  0  0
  191.7740  177.1000  147.1300 C   0  0  0  0  0  3  0  0  0  0  0  0
  191.1950  175.0570  147.9540 C   0  0  0  0  0  3  0  0  0  0  0  0
  190.3620  176.8470  146.7170 C   0  0  2  0  0  3  0  0  0  0  0  0
  190.1320  175.4890  147.3010 C   0  0  0  0  0  0  0  0  0  0  0  0
  188.8380  174.7490  147.2610 C   0  0  0  0  0  1  0  0  0  0  0  0
  192.2320  176.0760  147.8410 C   0  0  0  0  0  3  0  0  0  0  0  0
  189.8130  172.9480  142.7720 N   0  0  0  0  0  0  0  0  0  0  0  0
  188.9920  172.7070  143.9580 C   0  0  0  0  0  2  0  0  0  0  0  0
  189.8690  172.2340  145.1070 C   0  0  0  0  0  1  0  0  0  0  0  0
  190.4130  171.0270  141.8900 C   0  0  0  0  0  1  0  0  0  0  0  0
  189.4150  172.0130  141.8610 O   0  0  0  0  0  0  0  0  0  0  0  0
  189.5910  173.7130  139.7710 C   0  0  0  0  0  2  0  0  0  0  0  0
  188.7250  173.0820  138.6950 C   0  0  0  0  0  3  0  0  0  0  0  0
  189.2190  171.6840  138.3610 C   0  0  0  0  0  1  0  0  0  0  0  0
  188.7690  173.9400  137.4440 C   0  0  0  0  0  1  0  0  0  0  0  0
  1 15  2  0  0  0  0
  2 11  2  0  0  0  0
  3 27  1  6  0  0  0
  3 13  1  0  0  0  0
  6  7  1  0  0  0  0
  7 12  1  0  0  0  0
  8  3  1  0  0  0  0
  8 15  1  0  0  0  0
  9  5  1  0  0  0  0
 10  4  1  6  0  0  0
 10  6  1  0  0  0  0
 11  9  1  0  0  0  0
 13 10  1  0  0  0  0
 13 22  1  6  0  0  0
 14 12  2  0  0  0  0
 14  5  1  0  0  0  0
 15  2  1  0  0  0  0
 16 21  2  0  0  0  0
 18 12  1  6  0  0  0
 18 16  1  0  0  0  0
 18 19  1  0  0  0  0
 19 17  2  0  0  0  0
 20 19  1  0  0  0  0
 21 17  1  0  0  0  0
 22 23  1  0  0  0  0
 23 24  1  0  0  0  0
 26 25  1  0  0  0  0
 26 22  1  0  0  0  0
 28 27  1  0  0  0  0
 29 28  1  0  0  0  0
 30 28  1  0  0  0  0
M  END
>  <MODEL>
7

>  <REMARK>
 VINA RESULT:      -6.0      2.421      4.052
  Name = 
  6 active torsions:
  status: ('A' for Active; 'I' for Inactive)
    1  A    between atoms: C_2  and  N_10
    2  A    between atoms: C_6  and  C_25
    3  A    between atoms: C_8  and  C_21
    4  A    between atoms: N_10  and  O_17
    5  A    between atoms: N_10  and  C_27
    6  A    between atoms: C_22  and  C_25
                            x       y       z     vdW  Elec       q    Type
                         _______ _______ _______ _____ _____    ______ ____

>  <TORSDO>
F 6

$$$$
=
 OpenBabel11042413453D

 30 31  0  0  1  0  0  0  0  0999 V2000
  185.5800  176.6010  142.8230 O   0  0  0  0  0  0  0  0  0  0  0  0
  187.8220  175.9660  142.5850 N   0  0  0  0  0  0  0  0  0  0  0  0
  188.1250  177.1970  145.2840 C   0  0  2  0  0  3  0  0  0  0  0  0
  188.8350  174.9280  147.1340 O   0  0  0  0  0  1  0  0  0  0  0  0
  188.9240  173.4370  141.1140 C   0  0  0  0  0  2  0  0  0  0  0  0
  190.1630  173.8110  145.5160 C   0  0  0  0  0  2  0  0  0  0  0  0
  189.7130  172.5370  144.8010 C   0  0  0  0  0  2  0  0  0  0  0  0
  186.8880  176.7870  144.6990 O   0  0  0  0  0  0  0  0  0  0  0  0
  188.8910  174.9160  140.7010 C   0  0  0  0  0  2  0  0  0  0  0  0
  189.0170  174.7980  145.7540 C   0  0  2  0  0  3  0  0  0  0  0  0
  187.7280  175.6180  141.3440 C   0  0  0  0  0  3  0  0  0  0  0  0
  189.9040  172.6670  143.3130 C   0  0  0  0  0  0  0  0  0  0  0  0
  189.2870  176.1830  145.1050 C   0  0  2  0  0  3  0  0  0  0  0  0
  188.9370  173.2870  142.6150 C   0  0  0  0  0  3  0  0  0  0  0  0
  186.7260  176.4930  143.3430 C   0  0  0  0  0  0  0  0  0  0  0  0
  191.4940  170.7760  143.3570 C   0  0  0  0  0  3  0  0  0  0  0  0
  193.3050  172.1450  143.1730 C   0  0  0  0  0  3  0  0  0  0  0  0
  191.0520  171.9850  142.6010 C   0  0  2  0  0  3  0  0  0  0  0  0
  192.3160  172.7850  142.5760 C   0  0  0  0  0  0  0  0  0  0  0  0
  192.4900  174.0880  141.8730 C   0  0  0  0  0  1  0  0  0  0  0  0
  192.7810  170.8770  143.6670 C   0  0  0  0  0  3  0  0  0  0  0  0
  190.6070  176.7350  145.4840 N   0  0  0  0  0  0  0  0  0  0  0  0
  190.8670  177.8800  144.6120 C   0  0  0  0  0  2  0  0  0  0  0  0
  191.2540  177.3950  143.2230 C   0  0  0  0  0  1  0  0  0  0  0  0
  191.7040  176.7870  147.3860 C   0  0  0  0  0  1  0  0  0  0  0  0
  190.5440  177.2480  146.7470 O   0  0  0  0  0  0  0  0  0  0  0  0
  187.9060  177.6080  146.7410 C   0  0  0  0  0  2  0  0  0  0  0  0
  186.4350  177.8450  147.0370 C   0  0  0  0  0  3  0  0  0  0  0  0
  186.2250  179.2240  147.6380 C   0  0  0  0  0  1  0  0  0  0  0  0
  185.9410  176.7930  148.0130 C   0  0  0  0  0  1  0  0  0  0  0  0
  1 15  2  0  0  0  0
  2 15  1  0  0  0  0
  3 27  1  1  0  0  0
  5 14  1  0  0  0  0
  6 10  1  0  0  0  0
  7  6  1  0  0  0  0
  8  3  1  0  0  0  0
  9  5  1  0  0  0  0
  9 11  1  0  0  0  0
 10  4  1  1  0  0  0
 11  2  2  0  0  0  0
 12  7  1  0  0  0  0
 13  3  1  0  0  0  0
 13 22  1  1  0  0  0
 13 10  1  0  0  0  0
 14 12  2  0  0  0  0
 15  8  1  0  0  0  0
 16 21  2  0  0  0  0
 17 21  1  0  0  0  0
 18 12  1  1  0  0  0
 18 16  1  0  0  0  0
 19 18  1  0  0  0  0
 19 17  2  0  0  0  0
 20 19  1  0  0  0  0
 22 26  1  0  0  0  0
 23 22  1  0  0  0  0
 24 23  1  0  0  0  0
 26 25  1  0  0  0  0
 27 28  1  0  0  0  0
 28 29  1  0  0  0  0
 28 30  1  0  0  0  0
M  END
>  <MODEL>
8

>  <REMARK>
 VINA RESULT:      -5.9      2.296      5.055
  Name = 
  6 active torsions:
  status: ('A' for Active; 'I' for Inactive)
    1  A    between atoms: C_2  and  N_10
    2  A    between atoms: C_6  and  C_25
    3  A    between atoms: C_8  and  C_21
    4  A    between atoms: N_10  and  O_17
    5  A    between atoms: N_10  and  C_27
    6  A    between atoms: C_22  and  C_25
                            x       y       z     vdW  Elec       q    Type
                         _______ _______ _______ _____ _____    ______ ____

>  <TORSDO>
F 6

$$$$
=
 OpenBabel11042413453D

 30 31  0  0  1  0  0  0  0  0999 V2000
  193.1060  174.5160  139.3390 O   0  0  0  0  0  0  0  0  0  0  0  0
  191.8410  174.0410  141.2520 N   0  0  0  0  0  0  0  0  0  0  0  0
  194.4750  174.1970  142.6430 C   0  0  2  0  0  3  0  0  0  0  0  0
  194.2870  176.5860  144.4680 O   0  0  0  0  0  1  0  0  0  0  0  0
  188.9090  174.9440  141.8510 C   0  0  0  0  0  2  0  0  0  0  0  0
  192.0040  176.2080  144.9920 C   0  0  0  0  0  2  0  0  0  0  0  0
  190.8670  177.0660  144.4370 C   0  0  0  0  0  2  0  0  0  0  0  0
  194.1930  174.7310  141.3490 O   0  0  0  0  0  0  0  0  0  0  0  0
  189.4830  173.5870  141.4150 C   0  0  0  0  0  2  0  0  0  0  0  0
  193.1270  175.9790  143.9780 C   0  0  2  0  0  3  0  0  0  0  0  0
  190.7450  173.7780  140.6220 C   0  0  0  0  0  3  0  0  0  0  0  0
  189.7770  176.1980  143.8670 C   0  0  0  0  0  0  0  0  0  0  0  0
  193.3750  174.4700  143.7040 C   0  0  2  0  0  3  0  0  0  0  0  0
  189.9320  175.7550  142.6070 C   0  0  0  0  0  3  0  0  0  0  0  0
  193.0640  174.3980  140.5960 C   0  0  0  0  0  0  0  0  0  0  0  0
  187.6420  177.1990  144.6040 C   0  0  0  0  0  3  0  0  0  0  0  0
  188.0080  176.6570  146.7860 C   0  0  0  0  0  3  0  0  0  0  0  0
  188.4810  175.9640  144.6120 C   0  0  2  0  0  3  0  0  0  0  0  0
  188.6520  175.7440  146.0810 C   0  0  0  0  0  0  0  0  0  0  0  0
  189.3600  174.5850  146.6960 C   0  0  0  0  0  1  0  0  0  0  0  0
  187.3730  177.5760  145.8480 C   0  0  0  0  0  3  0  0  0  0  0  0
  193.5600  173.6940  144.9500 N   0  0  0  0  0  0  0  0  0  0  0  0
  192.9450  172.3830  144.7430 C   0  0  0  0  0  2  0  0  0  0  0  0
  191.4680  172.5510  144.4200 C   0  0  0  0  0  1  0  0  0  0  0  0
  194.9470  172.1230  145.6070 C   0  0  0  0  0  1  0  0  0  0  0  0
  194.8880  173.4450  145.1410 O   0  0  0  0  0  0  0  0  0  0  0  0
  195.8690  174.6300  143.0980 C   0  0  0  0  0  2  0  0  0  0  0  0
  196.9460  173.7180  142.5370 C   0  0  0  0  0  3  0  0  0  0  0  0
  197.6120  174.3550  141.3300 C   0  0  0  0  0  1  0  0  0  0  0  0
  196.3240  172.3960  142.1270 C   0  0  0  0  0  1  0  0  0  0  0  0
  1 15  2  0  0  0  0
  3 27  1  1  0  0  0
  3 13  1  0  0  0  0
  5 14  1  0  0  0  0
  7  6  1  0  0  0  0
  8  3  1  0  0  0  0
  9  5  1  0  0  0  0
 10  4  1  1  0  0  0
 10  6  1  0  0  0  0
 11  2  2  0  0  0  0
 11  9  1  0  0  0  0
 12  7  1  0  0  0  0
 13 10  1  0  0  0  0
 13 22  1  1  0  0  0
 14 12  2  0  0  0  0
 15  2  1  0  0  0  0
 15  8  1  0  0  0  0
 16 18  1  0  0  0  0
 16 21  2  0  0  0  0
 18 12  1  6  0  0  0
 18 19  1  0  0  0  0
 19 20  1  0  0  0  0
 19 17  2  0  0  0  0
 21 17  1  0  0  0  0
 22 26  1  0  0  0  0
 23 22  1  0  0  0  0
 24 23  1  0  0  0  0
 26 25  1  0  0  0  0
 28 27  1  0  0  0  0
 29 28  1  0  0  0  0
 30 28  1  0  0  0  0
M  END
>  <MODEL>
9

>  <REMARK>
 VINA RESULT:      -5.7      3.234      7.014
  Name = 
  6 active torsions:
  status: ('A' for Active; 'I' for Inactive)
    1  A    between atoms: C_2  and  N_10
    2  A    between atoms: C_6  and  C_25
    3  A    between atoms: C_8  and  C_21
    4  A    between atoms: N_10  and  O_17
    5  A    between atoms: N_10  and  C_27
    6  A    between atoms: C_22  and  C_25
                            x       y       z     vdW  Elec       q    Type
                         _______ _______ _______ _____ _____    ______ ____

>  <TORSDO>
F 6

$$$$
