=
 OpenBabel11042417073D

 44 48  0  0  1  0  0  0  0  0999 V2000
  197.3680  174.9960  140.2320 C   0  0  0  0  0  3  0  0  0  0  0  0
  194.6280  174.7710  143.4650 C   0  0  0  0  0  2  0  0  0  0  0  0
  190.5560  172.9810  140.2150 O   0  0  0  0  0  0  0  0  0  0  0  0
  195.4080  174.9730  138.6490 C   0  0  0  0  0  0  0  0  0  0  0  0
  191.2380  173.7730  138.0980 C   0  0  0  0  0  3  0  0  0  0  0  0
  194.2280  176.1720  143.8950 C   0  0  0  0  0  2  0  0  0  0  0  0
  194.1570  174.9340  136.0910 C   0  0  0  0  0  3  0  0  0  0  0  0
  197.8480  174.9580  141.5010 N   0  0  0  0  0  0  0  0  0  0  0  0
  195.9890  174.9580  140.0110 C   0  0  0  0  0  0  0  0  0  0  0  0
  195.1610  174.8760  141.0850 N   0  0  0  0  0  0  0  0  0  0  0  0
  195.6280  174.8420  142.3610 C   0  0  0  0  0  0  0  0  0  0  0  0
  191.6760  173.3600  139.4710 C   0  0  2  0  0  3  0  0  0  0  0  0
  197.6470  175.6830  135.9100 C   0  0  0  0  0  3  0  0  0  0  0  0
  192.6150  172.1700  139.3850 C   0  0  0  0  0  1  0  0  0  0  0  0
  192.0170  174.3250  137.1580 C   0  0  0  0  0  3  0  0  0  0  0  0
  191.0670  175.3130  145.7320 C   0  0  0  0  0  3  0  0  0  0  0  0
  196.1510  175.2310  137.4890 C   0  0  0  0  0  0  0  0  0  0  0  0
  189.8050  175.5770  143.6200 N   0  0  0  0  0  2  0  0  0  0  0  0
  194.0770  174.7030  138.4930 N   0  0  0  0  0  2  0  0  0  0  0  0
  189.5570  174.1400  143.4930 C   0  0  0  0  0  2  0  0  0  0  0  0
  190.3330  174.0190  141.1240 C   0  0  0  0  0  2  0  0  0  0  0  0
  197.0250  174.8870  142.5800 C   0  0  0  0  0  0  0  0  0  0  0  0
  195.5060  175.2180  136.2140 C   0  0  0  0  0  0  0  0  0  0  0  0
  190.5610  173.5120  142.5380 C   0  0  0  0  0  2  0  0  0  0  0  0
  192.7340  176.2500  144.1460 C   0  0  0  0  0  2  0  0  0  0  0  0
  189.9100  175.9750  145.0290 C   0  0  1  0  0  3  0  0  0  0  0  0
  192.3380  175.4420  145.3420 C   0  0  0  0  0  3  0  0  0  0  0  0
  196.4360  175.4960  135.2400 C   0  0  0  0  0  3  0  0  0  0  0  0
  197.4820  175.5240  137.2870 C   0  0  0  0  0  3  0  0  0  0  0  0
  193.4460  174.6620  137.2730 C   0  0  0  0  0  0  0  0  0  0  0  0
  197.9400  173.7550  144.5350 N   0  0  0  0  0  2  0  0  0  0  0  0
  197.6610  174.8520  143.9130 C   0  0  0  0  0  3  0  0  0  0  0  0
  188.6120  175.7310  145.7840 C   0  0  0  0  0  2  0  0  0  0  0  0
  188.1070  177.9630  145.1260 O   0  0  0  0  0  0  0  0  0  0  0  0
  187.6830  176.8770  145.6040 C   0  0  0  0  0  0  0  0  0  0  0  0
  186.3190  176.7370  145.9980 N   0  0  0  0  0  2  0  0  0  0  0  0
  185.8000  179.2700  146.4930 O   0  0  0  0  0  0  0  0  0  0  0  0
  185.1760  178.0340  145.9070 S   0  0  0  0  0  0  0  0  0  0  0  0
  183.9450  177.6800  146.6960 O   0  0  0  0  0  0  0  0  0  0  0  0
  185.5640  179.4810  143.6570 C   0  0  0  0  0  2  0  0  0  0  0  0
  185.6470  177.7500  142.2750 C   0  0  0  0  0  2  0  0  0  0  0  0
  186.2280  179.0010  142.5300 O   0  0  0  0  0  0  0  0  0  0  0  0
  184.7510  178.3420  144.2020 C   0  0  1  0  0  3  0  0  0  0  0  0
  185.0640  177.2230  143.4350 O   0  0  0  0  0  0  0  0  0  0  0  0
  1  8  1  0  0  0  0
  2  6  1  0  0  0  0
  3 21  1  0  0  0  0
  4  9  1  0  0  0  0
  5 12  1  0  0  0  0
  6 25  1  0  0  0  0
  7 23  1  0  0  0  0
  7 30  2  0  0  0  0
  8 22  2  0  0  0  0
  9  1  2  0  0  0  0
  9 10  1  0  0  0  0
 10 11  2  0  0  0  0
 11 22  1  0  0  0  0
 11  2  1  0  0  0  0
 12 14  1  6  0  0  0
 12  3  1  0  0  0  0
 13 29  2  0  0  0  0
 15 30  1  0  0  0  0
 15  5  2  0  0  0  0
 17  4  2  0  0  0  0
 18 26  1  0  0  0  0
 19  4  1  0  0  0  0
 20 18  1  0  0  0  0
 21 24  1  0  0  0  0
 22 32  1  0  0  0  0
 23 17  1  0  0  0  0
 24 20  1  0  0  0  0
 25 27  1  0  0  0  0
 26 16  1  0  0  0  0
 26 33  1  1  0  0  0
 27 16  2  0  0  0  0
 28 13  1  0  0  0  0
 28 23  2  0  0  0  0
 29 17  1  0  0  0  0
 30 19  1  0  0  0  0
 32 31  2  0  0  0  0
 34 35  2  0  0  0  0
 35 33  1  0  0  0  0
 35 36  1  0  0  0  0
 38 36  1  0  0  0  0
 38 37  2  0  0  0  0
 38 39  2  0  0  0  0
 40 43  1  0  0  0  0
 41 42  1  0  0  0  0
 41 44  1  0  0  0  0
 42 40  1  0  0  0  0
 43 38  1  1  0  0  0
 44 43  1  0  0  0  0
M  END
>  <MODEL>
1

>  <REMARK>
 VINA RESULT:      -8.6      0.000      0.000
  Name = 
  5 active torsions:
  status: ('A' for Active; 'I' for Inactive)
    1  A    between atoms: S_11  and  N_26
    2  A    between atoms: S_11  and  C_38
    3  A    between atoms: C_25  and  C_40
    4  A    between atoms: C_32  and  C_41
    5  A    between atoms: C_36  and  C_40
                            x       y       z     vdW  Elec       q    Type
                         _______ _______ _______ _____ _____    ______ ____

>  <TORSDO>
F 5

$$$$
=
 OpenBabel11042417073D

 44 48  0  0  1  0  0  0  0  0999 V2000
  193.8300  170.7730  140.6850 C   0  0  0  0  0  3  0  0  0  0  0  0
  190.9820  173.6410  141.9790 C   0  0  0  0  0  2  0  0  0  0  0  0
  194.5210  175.9170  145.5360 O   0  0  0  0  0  0  0  0  0  0  0  0
  195.1510  171.2290  142.7820 C   0  0  0  0  0  0  0  0  0  0  0  0
  196.0320  174.1450  145.9200 C   0  0  0  0  0  3  0  0  0  0  0  0
  189.9220  172.9610  142.8280 C   0  0  0  0  0  2  0  0  0  0  0  0
  197.3650  170.9450  144.5490 C   0  0  0  0  0  3  0  0  0  0  0  0
  192.7530  171.0320  139.9010 N   0  0  0  0  0  0  0  0  0  0  0  0
  193.9850  171.4510  141.8970 C   0  0  0  0  0  0  0  0  0  0  0  0
  193.0450  172.3660  142.2530 N   0  0  0  0  0  0  0  0  0  0  0  0
  191.9610  172.6320  141.4800 C   0  0  0  0  0  0  0  0  0  0  0  0
  195.0400  174.7490  144.9730 C   0  0  2  0  0  3  0  0  0  0  0  0
  197.3130  168.4500  141.9900 C   0  0  0  0  0  3  0  0  0  0  0  0
  195.7200  175.1130  143.6650 C   0  0  0  0  0  1  0  0  0  0  0  0
  196.6290  172.9530  145.7800 C   0  0  0  0  0  3  0  0  0  0  0  0
  188.5840  175.9970  144.5890 C   0  0  0  0  0  3  0  0  0  0  0  0
  196.0780  170.1930  142.6010 C   0  0  0  0  0  0  0  0  0  0  0  0
  190.2620  175.6620  146.3760 N   0  0  0  0  0  2  0  0  0  0  0  0
  195.3610  172.0820  143.8290 N   0  0  0  0  0  2  0  0  0  0  0  0
  191.0460  176.8300  145.9720 C   0  0  0  0  0  2  0  0  0  0  0  0
  193.2180  175.6010  145.9360 C   0  0  0  0  0  2  0  0  0  0  0  0
  191.8040  171.9380  140.2570 C   0  0  0  0  0  0  0  0  0  0  0  0
  197.1780  170.0580  143.5040 C   0  0  0  0  0  0  0  0  0  0  0  0
  192.2260  176.4030  145.1110 C   0  0  0  0  0  2  0  0  0  0  0  0
  189.6020  173.7950  144.0560 C   0  0  0  0  0  2  0  0  0  0  0  0
  188.8390  175.8450  146.0660 C   0  0  1  0  0  3  0  0  0  0  0  0
  188.9190  175.0730  143.6840 C   0  0  0  0  0  3  0  0  0  0  0  0
  197.9400  168.9800  143.1200 C   0  0  0  0  0  3  0  0  0  0  0  0
  196.1720  169.1860  141.6660 C   0  0  0  0  0  3  0  0  0  0  0  0
  196.4260  171.9810  144.6910 C   0  0  0  0  0  0  0  0  0  0  0  0
  189.7060  171.2920  139.1990 N   0  0  0  0  0  2  0  0  0  0  0  0
  190.6760  172.1350  139.3250 C   0  0  0  0  0  3  0  0  0  0  0  0
  188.2380  177.0100  146.8380 C   0  0  0  0  0  2  0  0  0  0  0  0
  185.8920  176.6530  146.6400 O   0  0  0  0  0  0  0  0  0  0  0  0
  186.8910  177.3450  146.3070 C   0  0  0  0  0  0  0  0  0  0  0  0
  186.7500  178.4410  145.4030 N   0  0  0  0  0  2  0  0  0  0  0  0
  185.3170  180.2880  144.1940 O   0  0  0  0  0  0  0  0  0  0  0  0
  185.2420  178.8620  144.6650 S   0  0  0  0  0  0  0  0  0  0  0  0
  184.1330  178.7320  145.6720 O   0  0  0  0  0  0  0  0  0  0  0  0
  183.7600  178.2910  142.4780 C   0  0  0  0  0  2  0  0  0  0  0  0
  185.4730  177.8920  141.1300 C   0  0  0  0  0  2  0  0  0  0  0  0
  184.2010  178.4800  141.1700 O   0  0  0  0  0  0  0  0  0  0  0  0
  184.9380  177.7960  143.2680 C   0  0  1  0  0  3  0  0  0  0  0  0
  186.0350  177.8260  142.4110 O   0  0  0  0  0  0  0  0  0  0  0  0
  1  9  1  0  0  0  0
  2  6  1  0  0  0  0
  3 21  1  0  0  0  0
  4 19  1  0  0  0  0
  6 25  1  0  0  0  0
  7 30  2  0  0  0  0
  8 22  1  0  0  0  0
  8  1  2  0  0  0  0
  9 10  2  0  0  0  0
  9  4  1  0  0  0  0
 11  2  1  0  0  0  0
 11 10  1  0  0  0  0
 12 14  1  6  0  0  0
 12  3  1  0  0  0  0
 12  5  1  0  0  0  0
 13 28  1  0  0  0  0
 15  5  2  0  0  0  0
 16 26  1  0  0  0  0
 17  4  2  0  0  0  0
 17 23  1  0  0  0  0
 19 30  1  0  0  0  0
 20 18  1  0  0  0  0
 22 11  2  0  0  0  0
 23  7  1  0  0  0  0
 24 21  1  0  0  0  0
 24 20  1  0  0  0  0
 26 18  1  0  0  0  0
 26 33  1  1  0  0  0
 27 25  1  0  0  0  0
 27 16  2  0  0  0  0
 28 23  2  0  0  0  0
 29 13  2  0  0  0  0
 29 17  1  0  0  0  0
 30 15  1  0  0  0  0
 31 32  2  0  0  0  0
 32 22  1  0  0  0  0
 35 34  2  0  0  0  0
 35 33  1  0  0  0  0
 36 35  1  0  0  0  0
 37 38  2  0  0  0  0
 38 36  1  0  0  0  0
 38 39  2  0  0  0  0
 40 43  1  0  0  0  0
 41 42  1  0  0  0  0
 41 44  1  0  0  0  0
 42 40  1  0  0  0  0
 43 38  1  1  0  0  0
 44 43  1  0  0  0  0
M  END
>  <MODEL>
2

>  <REMARK>
 VINA RESULT:      -8.2      3.473      5.832
  Name = 
  5 active torsions:
  status: ('A' for Active; 'I' for Inactive)
    1  A    between atoms: S_11  and  N_26
    2  A    between atoms: S_11  and  C_38
    3  A    between atoms: C_25  and  C_40
    4  A    between atoms: C_32  and  C_41
    5  A    between atoms: C_36  and  C_40
                            x       y       z     vdW  Elec       q    Type
                         _______ _______ _______ _____ _____    ______ ____

>  <TORSDO>
F 5

$$$$
=
 OpenBabel11042417073D

 44 48  0  0  1  0  0  0  0  0999 V2000
  187.8170  175.3600  141.0390 C   0  0  0  0  0  3  0  0  0  0  0  0
  191.5790  173.5180  141.7160 C   0  0  0  0  0  2  0  0  0  0  0  0
  191.5130  174.7840  147.0780 O   0  0  0  0  0  0  0  0  0  0  0  0
  188.1120  176.6190  143.2010 C   0  0  0  0  0  0  0  0  0  0  0  0
  190.0480  176.6350  147.1230 C   0  0  0  0  0  3  0  0  0  0  0  0
  192.6810  174.3660  141.1050 C   0  0  0  0  0  2  0  0  0  0  0  0
  187.3170  178.3860  145.2880 C   0  0  0  0  0  3  0  0  0  0  0  0
  188.2810  174.4590  140.1370 N   0  0  0  0  0  0  0  0  0  0  0  0
  188.5770  175.6640  142.1710 C   0  0  0  0  0  0  0  0  0  0  0  0
  189.7700  175.0340  142.3390 N   0  0  0  0  0  0  0  0  0  0  0  0
  190.2490  174.1340  141.4410 C   0  0  0  0  0  0  0  0  0  0  0  0
  190.4550  175.3890  146.3950 C   0  0  2  0  0  3  0  0  0  0  0  0
  185.1880  178.5870  142.4240 C   0  0  0  0  0  3  0  0  0  0  0  0
  189.2970  174.4090  146.3490 C   0  0  0  0  0  1  0  0  0  0  0  0
  189.1630  177.5440  146.6920 C   0  0  0  0  0  3  0  0  0  0  0  0
  195.5890  172.9860  143.0410 C   0  0  0  0  0  3  0  0  0  0  0  0
  186.9930  177.4480  143.0440 C   0  0  0  0  0  0  0  0  0  0  0  0
  195.2040  174.7020  144.7820 N   0  0  0  0  0  2  0  0  0  0  0  0
  188.7880  176.6970  144.3870 N   0  0  0  0  0  2  0  0  0  0  0  0
  194.7080  173.7240  145.7510 C   0  0  0  0  0  2  0  0  0  0  0  0
  192.6530  175.0280  146.3060 C   0  0  0  0  0  2  0  0  0  0  0  0
  189.4770  173.8340  140.2930 C   0  0  0  0  0  0  0  0  0  0  0  0
  186.6140  178.3380  144.0970 C   0  0  0  0  0  0  0  0  0  0  0  0
  193.1870  173.7140  145.7620 C   0  0  0  0  0  2  0  0  0  0  0  0
  193.8630  174.4730  142.0510 C   0  0  0  0  0  2  0  0  0  0  0  0
  196.1820  174.0960  143.8700 C   0  0  1  0  0  3  0  0  0  0  0  0
  194.5520  173.1550  142.2160 C   0  0  0  0  0  3  0  0  0  0  0  0
  185.4950  179.0370  143.7090 C   0  0  0  0  0  3  0  0  0  0  0  0
  186.1010  177.6150  142.0080 C   0  0  0  0  0  3  0  0  0  0  0  0
  188.4230  177.5280  145.4180 C   0  0  0  0  0  0  0  0  0  0  0  0
  190.5600  173.2110  138.2010 N   0  0  0  0  0  2  0  0  0  0  0  0
  189.8800  172.8740  139.2460 C   0  0  0  0  0  3  0  0  0  0  0  0
  197.4200  173.6110  144.6090 C   0  0  0  0  0  2  0  0  0  0  0  0
  197.9310  171.5160  143.6000 O   0  0  0  0  0  0  0  0  0  0  0  0
  197.4790  172.1260  144.6050 C   0  0  0  0  0  0  0  0  0  0  0  0
  197.0000  171.4070  145.7410 N   0  0  0  0  0  2  0  0  0  0  0  0
  197.3110  169.2340  147.1940 O   0  0  0  0  0  0  0  0  0  0  0  0
  196.9490  169.6770  145.8040 S   0  0  0  0  0  0  0  0  0  0  0  0
  197.9410  169.1060  144.8290 O   0  0  0  0  0  0  0  0  0  0  0  0
  194.2920  170.1700  145.7460 C   0  0  0  0  0  2  0  0  0  0  0  0
  193.9550  169.4040  143.6940 C   0  0  0  0  0  2  0  0  0  0  0  0
  193.5740  170.4230  144.5790 O   0  0  0  0  0  0  0  0  0  0  0  0
  195.3030  169.1100  145.4150 C   0  0  1  0  0  3  0  0  0  0  0  0
  195.2020  168.8750  144.0470 O   0  0  0  0  0  0  0  0  0  0  0  0
  1  9  1  0  0  0  0
  4 19  1  0  0  0  0
  6  2  1  0  0  0  0
  6 25  1  0  0  0  0
  7 30  2  0  0  0  0
  8 22  1  0  0  0  0
  8  1  2  0  0  0  0
  9 10  2  0  0  0  0
  9  4  1  0  0  0  0
 11  2  1  0  0  0  0
 11 10  1  0  0  0  0
 12 14  1  1  0  0  0
 12  3  1  0  0  0  0
 12  5  1  0  0  0  0
 13 28  1  0  0  0  0
 15  5  2  0  0  0  0
 16 26  1  0  0  0  0
 17  4  2  0  0  0  0
 17 23  1  0  0  0  0
 18 20  1  0  0  0  0
 19 30  1  0  0  0  0
 20 24  1  0  0  0  0
 21  3  1  0  0  0  0
 22 11  2  0  0  0  0
 23  7  1  0  0  0  0
 24 21  1  0  0  0  0
 25 27  1  0  0  0  0
 26 33  1  1  0  0  0
 26 18  1  0  0  0  0
 27 16  2  0  0  0  0
 28 23  2  0  0  0  0
 29 13  2  0  0  0  0
 29 17  1  0  0  0  0
 30 15  1  0  0  0  0
 31 32  2  0  0  0  0
 32 22  1  0  0  0  0
 34 35  2  0  0  0  0
 35 33  1  0  0  0  0
 35 36  1  0  0  0  0
 36 38  1  0  0  0  0
 38 37  2  0  0  0  0
 39 38  2  0  0  0  0
 41 44  1  0  0  0  0
 41 42  1  0  0  0  0
 42 40  1  0  0  0  0
 43 40  1  0  0  0  0
 43 38  1  6  0  0  0
 44 43  1  0  0  0  0
M  END
>  <MODEL>
3

>  <REMARK>
 VINA RESULT:      -7.7      4.585     10.003
  Name = 
  5 active torsions:
  status: ('A' for Active; 'I' for Inactive)
    1  A    between atoms: S_11  and  N_26
    2  A    between atoms: S_11  and  C_38
    3  A    between atoms: C_25  and  C_40
    4  A    between atoms: C_32  and  C_41
    5  A    between atoms: C_36  and  C_40
                            x       y       z     vdW  Elec       q    Type
                         _______ _______ _______ _____ _____    ______ ____

>  <TORSDO>
F 5

$$$$
=
 OpenBabel11042417073D

 44 48  0  0  1  0  0  0  0  0999 V2000
  192.7600  170.5000  141.1340 C   0  0  0  0  0  3  0  0  0  0  0  0
  190.1060  173.6970  140.2700 C   0  0  0  0  0  2  0  0  0  0  0  0
  192.4150  176.9650  144.0580 O   0  0  0  0  0  0  0  0  0  0  0  0
  193.2830  171.6080  143.3340 C   0  0  0  0  0  0  0  0  0  0  0  0
  193.3970  175.3940  145.5220 C   0  0  0  0  0  3  0  0  0  0  0  0
  188.7200  173.3670  140.7980 C   0  0  0  0  0  2  0  0  0  0  0  0
  194.6350  171.8910  145.8240 C   0  0  0  0  0  3  0  0  0  0  0  0
  192.0940  170.5010  139.9520 N   0  0  0  0  0  0  0  0  0  0  0  0
  192.5660  171.5440  142.0410 C   0  0  0  0  0  0  0  0  0  0  0  0
  191.7110  172.5450  141.7050 N   0  0  0  0  0  0  0  0  0  0  0  0
  191.0340  172.5580  140.5270 C   0  0  0  0  0  0  0  0  0  0  0  0
  192.9200  175.6640  144.1270 C   0  0  2  0  0  3  0  0  0  0  0  0
  195.1380  168.6800  144.3380 C   0  0  0  0  0  3  0  0  0  0  0  0
  194.0750  175.5500  143.1480 C   0  0  0  0  0  1  0  0  0  0  0  0
  193.8160  174.2130  145.9950 C   0  0  0  0  0  3  0  0  0  0  0  0
  187.3120  176.8480  140.8820 C   0  0  0  0  0  3  0  0  0  0  0  0
  194.0450  170.5540  143.8550 C   0  0  0  0  0  0  0  0  0  0  0  0
  188.1560  177.1010  143.1940 N   0  0  0  0  0  2  0  0  0  0  0  0
  193.2260  172.7610  144.0680 N   0  0  0  0  0  2  0  0  0  0  0  0
  189.2010  178.0460  142.7960 C   0  0  0  0  0  2  0  0  0  0  0  0
  191.0250  176.8300  143.9900 C   0  0  0  0  0  2  0  0  0  0  0  0
  191.2290  171.4940  139.6140 C   0  0  0  0  0  0  0  0  0  0  0  0
  194.7080  170.7080  145.1120 C   0  0  0  0  0  0  0  0  0  0  0  0
  190.5330  177.3280  142.6410 C   0  0  0  0  0  2  0  0  0  0  0  0
  188.1070  174.5740  141.4850 C   0  0  0  0  0  2  0  0  0  0  0  0
  186.9880  177.1990  142.3100 C   0  0  1  0  0  3  0  0  0  0  0  0
  187.8070  175.6660  140.5070 C   0  0  0  0  0  3  0  0  0  0  0  0
  195.3850  169.5480  145.4040 C   0  0  0  0  0  3  0  0  0  0  0  0
  194.3170  169.2870  143.3850 C   0  0  0  0  0  3  0  0  0  0  0  0
  193.8770  172.9350  145.2650 C   0  0  0  0  0  0  0  0  0  0  0  0
  189.6920  170.4750  138.0210 N   0  0  0  0  0  2  0  0  0  0  0  0
  190.5600  171.3890  138.3020 C   0  0  0  0  0  3  0  0  0  0  0  0
  186.3310  178.5690  142.3910 C   0  0  0  0  0  2  0  0  0  0  0  0
  185.6580  180.0690  144.1150 O   0  0  0  0  0  0  0  0  0  0  0  0
  185.9690  178.8900  143.7970 C   0  0  0  0  0  0  0  0  0  0  0  0
  186.0010  177.8540  144.7780 N   0  0  0  0  0  2  0  0  0  0  0  0
  184.3750  177.4780  146.8150 O   0  0  0  0  0  0  0  0  0  0  0  0
  185.6770  178.1380  146.4550 S   0  0  0  0  0  0  0  0  0  0  0  0
  185.5660  179.6180  146.7040 O   0  0  0  0  0  0  0  0  0  0  0  0
  187.4410  176.1320  146.8660 C   0  0  0  0  0  2  0  0  0  0  0  0
  189.1850  177.4340  147.2840 C   0  0  0  0  0  2  0  0  0  0  0  0
  188.8110  176.2440  146.6410 O   0  0  0  0  0  0  0  0  0  0  0  0
  186.9850  177.4400  147.4470 C   0  0  1  0  0  3  0  0  0  0  0  0
  188.0870  178.2910  147.4290 O   0  0  0  0  0  0  0  0  0  0  0  0
  1  9  1  0  0  0  0
  2 11  1  0  0  0  0
  2  6  1  0  0  0  0
  3 12  1  0  0  0  0
  4 17  2  0  0  0  0
  4 19  1  0  0  0  0
  5 15  2  0  0  0  0
  6 25  1  0  0  0  0
  8  1  2  0  0  0  0
  9  4  1  0  0  0  0
 10  9  2  0  0  0  0
 11 10  1  0  0  0  0
 12 14  1  6  0  0  0
 12  5  1  0  0  0  0
 13 28  1  0  0  0  0
 16 26  1  0  0  0  0
 17 23  1  0  0  0  0
 19 30  1  0  0  0  0
 20 18  1  0  0  0  0
 21  3  1  0  0  0  0
 22  8  1  0  0  0  0
 22 11  2  0  0  0  0
 23 28  2  0  0  0  0
 23  7  1  0  0  0  0
 24 20  1  0  0  0  0
 24 21  1  0  0  0  0
 26 33  1  6  0  0  0
 26 18  1  0  0  0  0
 27 16  2  0  0  0  0
 27 25  1  0  0  0  0
 29 17  1  0  0  0  0
 29 13  2  0  0  0  0
 30  7  2  0  0  0  0
 30 15  1  0  0  0  0
 31 32  2  0  0  0  0
 32 22  1  0  0  0  0
 33 35  1  0  0  0  0
 35 34  2  0  0  0  0
 35 36  1  0  0  0  0
 36 38  1  0  0  0  0
 38 39  2  0  0  0  0
 38 37  2  0  0  0  0
 40 43  1  0  0  0  0
 41 44  1  0  0  0  0
 42 40  1  0  0  0  0
 42 41  1  0  0  0  0
 43 38  1  6  0  0  0
 44 43  1  0  0  0  0
M  END
>  <MODEL>
4

>  <REMARK>
 VINA RESULT:      -7.5      3.680      6.575
  Name = 
  5 active torsions:
  status: ('A' for Active; 'I' for Inactive)
    1  A    between atoms: S_11  and  N_26
    2  A    between atoms: S_11  and  C_38
    3  A    between atoms: C_25  and  C_40
    4  A    between atoms: C_32  and  C_41
    5  A    between atoms: C_36  and  C_40
                            x       y       z     vdW  Elec       q    Type
                         _______ _______ _______ _____ _____    ______ ____

>  <TORSDO>
F 5

$$$$
=
 OpenBabel11042417073D

 44 48  0  0  1  0  0  0  0  0999 V2000
  194.5790  169.5480  141.8880 C   0  0  0  0  0  3  0  0  0  0  0  0
  191.4780  172.2100  140.7460 C   0  0  0  0  0  2  0  0  0  0  0  0
  193.6030  176.3480  143.7000 O   0  0  0  0  0  0  0  0  0  0  0  0
  195.1080  171.0860  143.8120 C   0  0  0  0  0  0  0  0  0  0  0  0
  194.8820  175.1890  145.3100 C   0  0  0  0  0  3  0  0  0  0  0  0
  190.1870  171.8220  141.4470 C   0  0  0  0  0  2  0  0  0  0  0  0
  196.5840  171.9640  146.0830 C   0  0  0  0  0  3  0  0  0  0  0  0
  193.8360  169.2620  140.7890 N   0  0  0  0  0  0  0  0  0  0  0  0
  194.3160  170.7090  142.6200 C   0  0  0  0  0  0  0  0  0  0  0  0
  193.3160  171.5280  142.2000 N   0  0  0  0  0  0  0  0  0  0  0  0
  192.5620  171.2510  141.1040 C   0  0  0  0  0  0  0  0  0  0  0  0
  194.2760  175.1480  143.9400 C   0  0  2  0  0  3  0  0  0  0  0  0
  197.3940  168.6190  145.1190 C   0  0  0  0  0  3  0  0  0  0  0  0
  195.3640  174.9950  142.8910 C   0  0  0  0  0  1  0  0  0  0  0  0
  195.4840  174.1680  145.9350 C   0  0  0  0  0  3  0  0  0  0  0  0
  188.3470  175.0750  141.0730 C   0  0  0  0  0  3  0  0  0  0  0  0
  196.0350  170.2360  144.4310 C   0  0  0  0  0  0  0  0  0  0  0  0
  189.3120  175.8330  143.2210 N   0  0  0  0  0  2  0  0  0  0  0  0
  194.9530  172.3360  144.3430 N   0  0  0  0  0  0  0  0  0  0  0  0
  190.1940  176.8060  142.5760 C   0  0  0  0  0  2  0  0  0  0  0  0
  192.2410  176.0430  143.7830 C   0  0  0  0  0  2  0  0  0  0  0  0
  192.8280  170.0710  140.3700 C   0  0  0  0  0  0  0  0  0  0  0  0
  196.7600  170.6880  145.5760 C   0  0  0  0  0  0  0  0  0  0  0  0
  191.5940  176.2310  142.4220 C   0  0  0  0  0  2  0  0  0  0  0  0
  189.4720  173.0530  141.9750 C   0  0  0  0  0  2  0  0  0  0  0  0
  188.0820  175.6360  142.4460 C   0  0  1  0  0  3  0  0  0  0  0  0
  188.9650  173.9100  140.8590 C   0  0  0  0  0  3  0  0  0  0  0  0
  197.6010  169.6850  145.9970 C   0  0  0  0  0  2  0  0  0  0  0  0
  196.4360  168.9470  144.1580 C   0  0  0  0  0  3  0  0  0  0  0  0
  195.6590  172.7960  145.4280 C   0  0  0  0  0  0  0  0  0  0  0  0
  191.4490  168.5380  139.0720 N   0  0  0  0  0  2  0  0  0  0  0  0
  192.0870  169.6570  139.1610 C   0  0  0  0  0  3  0  0  0  0  0  0
  187.2600  176.9130  142.3550 C   0  0  0  0  0  2  0  0  0  0  0  0
  187.5010  178.5500  144.0670 O   0  0  0  0  0  0  0  0  0  0  0  0
  186.9890  177.4550  143.7120 C   0  0  0  0  0  0  0  0  0  0  0  0
  186.1660  176.7100  144.6090 N   0  0  0  0  0  2  0  0  0  0  0  0
  184.6890  176.4290  146.7690 O   0  0  0  0  0  0  0  0  0  0  0  0
  185.8570  177.2110  146.2370 S   0  0  0  0  0  0  0  0  0  0  0  0
  185.5210  178.6770  146.2590 O   0  0  0  0  0  0  0  0  0  0  0  0
  188.1010  175.7670  146.6650 C   0  0  0  0  0  2  0  0  0  0  0  0
  189.4080  177.4960  147.1280 C   0  0  0  0  0  2  0  0  0  0  0  0
  189.3900  176.2580  146.4680 O   0  0  0  0  0  0  0  0  0  0  0  0
  187.2910  176.8890  147.2480 C   0  0  1  0  0  3  0  0  0  0  0  0
  188.1140  178.0120  147.2590 O   0  0  0  0  0  0  0  0  0  0  0  0
  1  9  1  0  0  0  0
  2 11  1  0  0  0  0
  2  6  1  0  0  0  0
  3 21  1  0  0  0  0
  3 12  1  0  0  0  0
  4 19  2  0  0  0  0
  4 17  1  0  0  0  0
  5 15  2  0  0  0  0
  6 25  1  0  0  0  0
  8  1  2  0  0  0  0
  9  4  1  0  0  0  0
 10  9  2  0  0  0  0
 11 10  1  0  0  0  0
 12 14  1  6  0  0  0
 12  5  1  0  0  0  0
 13 28  1  0  0  0  0
 16 26  1  0  0  0  0
 17 23  2  0  0  0  0
 19 30  1  0  0  0  0
 20 18  1  0  0  0  0
 22  8  1  0  0  0  0
 22 11  2  0  0  0  0
 23 28  1  0  0  0  0
 23  7  1  0  0  0  0
 24 20  1  0  0  0  0
 24 21  1  0  0  0  0
 26 33  1  6  0  0  0
 26 18  1  0  0  0  0
 27 16  2  0  0  0  0
 27 25  1  0  0  0  0
 29 17  1  0  0  0  0
 29 13  2  0  0  0  0
 30 15  1  0  0  0  0
 30  7  2  0  0  0  0
 31 32  2  0  0  0  0
 32 22  1  0  0  0  0
 33 35  1  0  0  0  0
 35 34  2  0  0  0  0
 35 36  1  0  0  0  0
 36 38  1  0  0  0  0
 38 39  2  0  0  0  0
 38 37  2  0  0  0  0
 40 43  1  0  0  0  0
 41 44  1  0  0  0  0
 42 40  1  0  0  0  0
 42 41  1  0  0  0  0
 43 38  1  6  0  0  0
 43 44  1  0  0  0  0
M  END
>  <MODEL>
5

>  <REMARK>
 VINA RESULT:      -7.4      3.485      6.461
  Name = 
  5 active torsions:
  status: ('A' for Active; 'I' for Inactive)
    1  A    between atoms: S_11  and  N_26
    2  A    between atoms: S_11  and  C_38
    3  A    between atoms: C_25  and  C_40
    4  A    between atoms: C_32  and  C_41
    5  A    between atoms: C_36  and  C_40
                            x       y       z     vdW  Elec       q    Type
                         _______ _______ _______ _____ _____    ______ ____

>  <TORSDO>
F 5

$$$$
=
 OpenBabel11042417073D

 44 48  0  0  1  0  0  0  0  0999 V2000
  195.7540  174.4750  139.1340 C   0  0  0  0  0  3  0  0  0  0  0  0
  193.8810  175.4930  142.8030 C   0  0  0  0  0  2  0  0  0  0  0  0
  190.9410  170.8330  142.8810 O   0  0  0  0  0  0  0  0  0  0  0  0
  193.9140  172.8040  138.7280 C   0  0  0  0  0  0  0  0  0  0  0  0
  190.8900  170.2520  140.5940 C   0  0  0  0  0  3  0  0  0  0  0  0
  192.8780  176.6100  142.5730 C   0  0  0  0  0  2  0  0  0  0  0  0
  192.5800  170.7280  137.3050 C   0  0  0  0  0  3  0  0  0  0  0  0
  196.3250  175.4180  139.9250 N   0  0  0  0  0  0  0  0  0  0  0  0
  194.5680  173.8560  139.5370 C   0  0  0  0  0  0  0  0  0  0  0  0
  194.0200  174.2160  140.7280 N   0  0  0  0  0  0  0  0  0  0  0  0
  194.5790  175.1620  141.5280 C   0  0  0  0  0  0  0  0  0  0  0  0
  191.6250  170.9880  141.6730 C   0  0  2  0  0  3  0  0  0  0  0  0
  195.1680  172.2750  135.3860 C   0  0  0  0  0  3  0  0  0  0  0  0
  193.0210  170.4140  141.8400 C   0  0  0  0  0  1  0  0  0  0  0  0
  191.1740  170.2880  139.2840 C   0  0  0  0  0  3  0  0  0  0  0  0
  190.8100  176.1550  145.6750 C   0  0  0  0  0  3  0  0  0  0  0  0
  194.2900  172.4830  137.4170 C   0  0  0  0  0  0  0  0  0  0  0  0
  189.3630  174.5730  144.4410 N   0  0  0  0  0  2  0  0  0  0  0  0
  192.8940  172.0800  139.2810 N   0  0  0  0  0  2  0  0  0  0  0  0
  189.8630  173.4120  145.1790 C   0  0  0  0  0  2  0  0  0  0  0  0
  190.3260  172.0640  143.1300 C   0  0  0  0  0  2  0  0  0  0  0  0
  195.7760  175.7910  141.1120 C   0  0  0  0  0  0  0  0  0  0  0  0
  193.6030  171.4460  136.7130 C   0  0  0  0  0  0  0  0  0  0  0  0
  190.9330  172.6930  144.3730 C   0  0  0  0  0  2  0  0  0  0  0  0
  191.5870  176.3360  143.3230 C   0  0  0  0  0  2  0  0  0  0  0  0
  189.4080  175.7860  145.2650 C   0  0  1  0  0  3  0  0  0  0  0  0
  191.7890  176.4110  144.8030 C   0  0  0  0  0  3  0  0  0  0  0  0
  194.1520  171.3200  135.4580 C   0  0  0  0  0  3  0  0  0  0  0  0
  195.2590  172.9930  136.5800 C   0  0  0  0  0  3  0  0  0  0  0  0
  192.2390  171.0640  138.6270 C   0  0  0  0  0  0  0  0  0  0  0  0
  196.9570  176.6270  143.0730 N   0  0  0  0  0  2  0  0  0  0  0  0
  196.4850  176.8280  141.8870 C   0  0  0  0  0  3  0  0  0  0  0  0
  188.5040  175.6750  146.4840 C   0  0  0  0  0  2  0  0  0  0  0  0
  187.8360  177.7990  147.3290 O   0  0  0  0  0  0  0  0  0  0  0  0
  187.5810  176.8380  146.5550 C   0  0  0  0  0  0  0  0  0  0  0  0
  186.4000  176.8410  145.7540 N   0  0  0  0  0  2  0  0  0  0  0  0
  185.8450  179.3140  146.4650 O   0  0  0  0  0  0  0  0  0  0  0  0
  185.2210  178.1070  145.8220 S   0  0  0  0  0  0  0  0  0  0  0  0
  184.0470  177.6590  146.6480 O   0  0  0  0  0  0  0  0  0  0  0  0
  185.5830  179.5860  143.5890 C   0  0  0  0  0  2  0  0  0  0  0  0
  185.3500  177.9110  142.1570 C   0  0  0  0  0  2  0  0  0  0  0  0
  186.0900  179.0780  142.3950 O   0  0  0  0  0  0  0  0  0  0  0  0
  184.6920  178.5260  144.1710 C   0  0  1  0  0  3  0  0  0  0  0  0
  184.8090  177.4090  143.3470 O   0  0  0  0  0  0  0  0  0  0  0  0
  1  9  2  0  0  0  0
  1  8  1  0  0  0  0
  3 21  1  0  0  0  0
  4 19  1  0  0  0  0
  4  9  1  0  0  0  0
  5 12  1  0  0  0  0
  6  2  1  0  0  0  0
  6 25  1  0  0  0  0
  7 30  2  0  0  0  0
  8 22  2  0  0  0  0
  9 10  1  0  0  0  0
 10 11  2  0  0  0  0
 11  2  1  0  0  0  0
 12 14  1  1  0  0  0
 12  3  1  0  0  0  0
 13 28  1  0  0  0  0
 13 29  2  0  0  0  0
 15  5  2  0  0  0  0
 17  4  2  0  0  0  0
 18 20  1  0  0  0  0
 18 26  1  0  0  0  0
 21 24  1  0  0  0  0
 22 11  1  0  0  0  0
 22 32  1  0  0  0  0
 23  7  1  0  0  0  0
 23 17  1  0  0  0  0
 24 20  1  0  0  0  0
 25 27  1  0  0  0  0
 26 16  1  0  0  0  0
 26 33  1  1  0  0  0
 27 16  2  0  0  0  0
 28 23  2  0  0  0  0
 29 17  1  0  0  0  0
 30 19  1  0  0  0  0
 30 15  1  0  0  0  0
 32 31  2  0  0  0  0
 33 35  1  0  0  0  0
 35 34  2  0  0  0  0
 36 38  1  0  0  0  0
 36 35  1  0  0  0  0
 38 37  2  0  0  0  0
 38 39  2  0  0  0  0
 40 43  1  0  0  0  0
 41 42  1  0  0  0  0
 41 44  1  0  0  0  0
 42 40  1  0  0  0  0
 43 38  1  1  0  0  0
 44 43  1  0  0  0  0
M  END
>  <MODEL>
6

>  <REMARK>
 VINA RESULT:      -7.4      1.912      2.536
  Name = 
  5 active torsions:
  status: ('A' for Active; 'I' for Inactive)
    1  A    between atoms: S_11  and  N_26
    2  A    between atoms: S_11  and  C_38
    3  A    between atoms: C_25  and  C_40
    4  A    between atoms: C_32  and  C_41
    5  A    between atoms: C_36  and  C_40
                            x       y       z     vdW  Elec       q    Type
                         _______ _______ _______ _____ _____    ______ ____

>  <TORSDO>
F 5

$$$$
=
 OpenBabel11042417073D

 44 48  0  0  1  0  0  0  0  0999 V2000
  193.0370  172.5410  137.7780 C   0  0  0  0  0  3  0  0  0  0  0  0
  190.6640  174.1610  140.9000 C   0  0  0  0  0  2  0  0  0  0  0  0
  195.0730  176.0680  143.6000 O   0  0  0  0  0  0  0  0  0  0  0  0
  195.0320  172.6640  139.3120 C   0  0  0  0  0  0  0  0  0  0  0  0
  196.7870  174.6650  142.7830 C   0  0  0  0  0  3  0  0  0  0  0  0
  190.1090  173.0360  141.7570 C   0  0  0  0  0  2  0  0  0  0  0  0
  197.7850  172.4050  139.9920 C   0  0  0  0  0  3  0  0  0  0  0  0
  191.7170  172.7570  137.5560 N   0  0  0  0  0  0  0  0  0  0  0  0
  193.5930  172.8550  139.0210 C   0  0  0  0  0  0  0  0  0  0  0  0
  192.7850  173.3810  139.9790 N   0  0  0  0  0  0  0  0  0  0  0  0
  191.4600  173.5980  139.7720 C   0  0  0  0  0  0  0  0  0  0  0  0
  195.4410  175.2690  142.5150 C   0  0  2  0  0  3  0  0  0  0  0  0
  196.9730  170.8210  136.8930 C   0  0  0  0  0  3  0  0  0  0  0  0
  195.5000  176.1450  141.2760 C   0  0  0  0  0  1  0  0  0  0  0  0
  197.3980  173.7390  142.0310 C   0  0  0  0  0  3  0  0  0  0  0  0
  189.2810  175.0300  144.8300 C   0  0  0  0  0  3  0  0  0  0  0  0
  195.9110  171.9720  138.4690 C   0  0  0  0  0  0  0  0  0  0  0  0
  191.5580  174.5920  145.6920 N   0  0  0  0  0  2  0  0  0  0  0  0
  195.5540  173.2010  140.4560 N   0  0  0  0  0  2  0  0  0  0  0  0
  191.9890  175.9760  145.4900 C   0  0  0  0  0  2  0  0  0  0  0  0
  194.0800  175.3540  144.2780 C   0  0  0  0  0  2  0  0  0  0  0  0
  190.9010  173.2730  138.5140 C   0  0  0  0  0  0  0  0  0  0  0  0
  197.2880  171.8420  138.8300 C   0  0  0  0  0  0  0  0  0  0  0  0
  192.7630  176.1060  144.1870 C   0  0  0  0  0  2  0  0  0  0  0  0
  190.2220  173.3790  143.2310 C   0  0  0  0  0  2  0  0  0  0  0  0
  190.1190  174.5190  145.9730 C   0  0  1  0  0  3  0  0  0  0  0  0
  189.3190  174.5130  143.5990 C   0  0  0  0  0  3  0  0  0  0  0  0
  197.9410  171.1310  137.8500 C   0  0  0  0  0  3  0  0  0  0  0  0
  195.7270  171.3310  137.2640 C   0  0  0  0  0  3  0  0  0  0  0  0
  196.8790  173.1060  140.8070 C   0  0  0  0  0  0  0  0  0  0  0  0
  188.5410  172.6670  138.5480 N   0  0  0  0  0  2  0  0  0  0  0  0
  189.4800  173.4630  138.1590 C   0  0  0  0  0  3  0  0  0  0  0  0
  189.7590  175.2360  147.2660 C   0  0  0  0  0  2  0  0  0  0  0  0
  189.2970  177.5430  146.8960 O   0  0  0  0  0  0  0  0  0  0  0  0
  188.8410  176.3720  146.9920 C   0  0  0  0  0  0  0  0  0  0  0  0
  187.4420  176.1220  146.8620 N   0  0  0  0  0  2  0  0  0  0  0  0
  186.3180  178.3050  147.8100 O   0  0  0  0  0  0  0  0  0  0  0  0
  186.2800  177.3820  146.6240 S   0  0  0  0  0  0  0  0  0  0  0  0
  184.9040  176.7860  146.5060 O   0  0  0  0  0  0  0  0  0  0  0  0
  186.4850  177.4490  143.9300 C   0  0  0  0  0  2  0  0  0  0  0  0
  185.4830  179.4080  143.6650 C   0  0  0  0  0  2  0  0  0  0  0  0
  185.5970  178.1300  143.1000 O   0  0  0  0  0  0  0  0  0  0  0  0
  186.6840  178.3020  145.1490 C   0  0  1  0  0  3  0  0  0  0  0  0
  185.8180  179.3850  145.0250 O   0  0  0  0  0  0  0  0  0  0  0  0
  1  9  1  0  0  0  0
  2  6  1  0  0  0  0
  3 21  1  0  0  0  0
  4 19  1  0  0  0  0
  6 25  1  0  0  0  0
  7 30  2  0  0  0  0
  8  1  2  0  0  0  0
  8 22  1  0  0  0  0
  9  4  1  0  0  0  0
  9 10  2  0  0  0  0
 11 10  1  0  0  0  0
 11  2  1  0  0  0  0
 12 14  1  6  0  0  0
 12  5  1  0  0  0  0
 12  3  1  0  0  0  0
 13 29  2  0  0  0  0
 13 28  1  0  0  0  0
 15  5  2  0  0  0  0
 16 26  1  0  0  0  0
 17 23  1  0  0  0  0
 17  4  2  0  0  0  0
 18 26  1  0  0  0  0
 19 30  1  0  0  0  0
 20 18  1  0  0  0  0
 22 11  2  0  0  0  0
 23  7  1  0  0  0  0
 24 21  1  0  0  0  0
 24 20  1  0  0  0  0
 25 27  1  0  0  0  0
 26 33  1  1  0  0  0
 27 16  2  0  0  0  0
 28 23  2  0  0  0  0
 29 17  1  0  0  0  0
 30 15  1  0  0  0  0
 32 22  1  0  0  0  0
 32 31  2  0  0  0  0
 34 35  2  0  0  0  0
 35 33  1  0  0  0  0
 36 35  1  0  0  0  0
 38 36  1  0  0  0  0
 38 37  2  0  0  0  0
 39 38  2  0  0  0  0
 40 43  1  0  0  0  0
 41 44  1  0  0  0  0
 42 41  1  0  0  0  0
 42 40  1  0  0  0  0
 43 38  1  1  0  0  0
 44 43  1  0  0  0  0
M  END
>  <MODEL>
7

>  <REMARK>
 VINA RESULT:      -7.3      2.377      4.768
  Name = 
  5 active torsions:
  status: ('A' for Active; 'I' for Inactive)
    1  A    between atoms: S_11  and  N_26
    2  A    between atoms: S_11  and  C_38
    3  A    between atoms: C_25  and  C_40
    4  A    between atoms: C_32  and  C_41
    5  A    between atoms: C_36  and  C_40
                            x       y       z     vdW  Elec       q    Type
                         _______ _______ _______ _____ _____    ______ ____

>  <TORSDO>
F 5

$$$$
=
 OpenBabel11042417073D

 44 48  0  0  1  0  0  0  0  0999 V2000
  189.9480  177.2220  147.0720 C   0  0  0  0  0  3  0  0  0  0  0  0
  191.6360  174.6300  144.1680 C   0  0  0  0  0  2  0  0  0  0  0  0
  187.8870  176.0270  140.3790 O   0  0  0  0  0  0  0  0  0  0  0  0
  187.8290  177.2700  145.7110 C   0  0  0  0  0  0  0  0  0  0  0  0
  186.1010  176.7900  141.7210 C   0  0  0  0  0  3  0  0  0  0  0  0
  191.3340  173.1860  144.5340 C   0  0  0  0  0  2  0  0  0  0  0  0
  185.1830  178.1150  145.0830 C   0  0  0  0  0  3  0  0  0  0  0  0
  191.2230  176.7910  147.2370 N   0  0  0  0  0  0  0  0  0  0  0  0
  189.2150  176.8120  145.9560 C   0  0  0  0  0  0  0  0  0  0  0  0
  189.8120  175.9890  145.0540 N   0  0  0  0  0  0  0  0  0  0  0  0
  191.0870  175.5460  145.2090 C   0  0  0  0  0  0  0  0  0  0  0  0
  187.5810  176.5720  141.6290 C   0  0  2  0  0  3  0  0  0  0  0  0
  186.1790  179.0400  148.3880 C   0  0  0  0  0  3  0  0  0  0  0  0
  188.3140  177.8940  141.7650 C   0  0  0  0  0  1  0  0  0  0  0  0
  185.4280  177.1690  142.8170 C   0  0  0  0  0  3  0  0  0  0  0  0
  191.9030  171.6240  141.1660 C   0  0  0  0  0  3  0  0  0  0  0  0
  187.0620  177.9690  146.6530 C   0  0  0  0  0  0  0  0  0  0  0  0
  189.5200  172.0050  140.6210 N   0  0  0  0  0  2  0  0  0  0  0  0
  187.2530  177.0210  144.4950 N   0  0  0  0  0  0  0  0  0  0  0  0
  189.8260  173.0600  139.6530 C   0  0  0  0  0  2  0  0  0  0  0  0
  188.1910  174.6830  140.6140 C   0  0  0  0  0  2  0  0  0  0  0  0
  191.8230  175.9590  146.3450 C   0  0  0  0  0  0  0  0  0  0  0  0
  185.7320  178.3770  146.3250 C   0  0  0  0  0  0  0  0  0  0  0  0
  189.6540  174.4300  140.2920 C   0  0  0  0  0  2  0  0  0  0  0  0
  190.9110  172.3990  143.3080 C   0  0  0  0  0  2  0  0  0  0  0  0
  190.6060  171.0200  140.6940 C   0  0  1  0  0  3  0  0  0  0  0  0
  192.0450  172.2360  142.3450 C   0  0  0  0  0  3  0  0  0  0  0  0
  185.1910  179.0410  147.4010 C   0  0  0  0  0  3  0  0  0  0  0  0
  187.3280  178.3850  147.9390 C   0  0  0  0  0  2  0  0  0  0  0  0
  185.9850  177.4260  144.1560 C   0  0  0  0  0  0  0  0  0  0  0  0
  194.2210  176.3540  146.5130 N   0  0  0  0  0  2  0  0  0  0  0  0
  193.2140  175.5540  146.6290 C   0  0  0  0  0  3  0  0  0  0  0  0
  190.8010  170.2960  139.3700 C   0  0  0  0  0  2  0  0  0  0  0  0
  193.1410  169.8570  139.2960 O   0  0  0  0  0  0  0  0  0  0  0  0
  192.1730  170.5290  138.8480 C   0  0  0  0  0  0  0  0  0  0  0  0
  192.3800  171.5320  137.8540 N   0  0  0  0  0  2  0  0  0  0  0  0
  193.7810  172.8250  136.0390 O   0  0  0  0  0  0  0  0  0  0  0  0
  193.9480  171.9370  137.2410 S   0  0  0  0  0  0  0  0  0  0  0  0
  194.6700  170.6830  136.8320 O   0  0  0  0  0  0  0  0  0  0  0  0
  195.9380  173.6590  137.8570 C   0  0  0  0  0  2  0  0  0  0  0  0
  194.7760  174.8470  139.3230 C   0  0  0  0  0  2  0  0  0  0  0  0
  195.7280  174.9630  138.2990 O   0  0  0  0  0  0  0  0  0  0  0  0
  194.8770  172.8070  138.4910 C   0  0  1  0  0  3  0  0  0  0  0  0
  194.0310  173.6700  139.1830 O   0  0  0  0  0  0  0  0  0  0  0  0
  1  8  1  0  0  0  0
  2  6  1  0  0  0  0
  2 11  1  0  0  0  0
  3 21  1  0  0  0  0
  3 12  1  0  0  0  0
  4  9  1  0  0  0  0
  4 17  1  0  0  0  0
  5 15  2  0  0  0  0
  7 23  1  0  0  0  0
  9  1  2  0  0  0  0
 10 11  2  0  0  0  0
 10  9  1  0  0  0  0
 11 22  1  0  0  0  0
 12  5  1  0  0  0  0
 12 14  1  6  0  0  0
 15 30  1  0  0  0  0
 16 27  2  0  0  0  0
 17 29  1  0  0  0  0
 18 26  1  0  0  0  0
 19  4  2  0  0  0  0
 20 24  1  0  0  0  0
 20 18  1  0  0  0  0
 22 32  1  0  0  0  0
 22  8  2  0  0  0  0
 23 17  2  0  0  0  0
 23 28  1  0  0  0  0
 24 21  1  0  0  0  0
 25  6  1  0  0  0  0
 26 33  1  6  0  0  0
 26 16  1  0  0  0  0
 27 25  1  0  0  0  0
 28 13  2  0  0  0  0
 29 13  1  0  0  0  0
 30 19  1  0  0  0  0
 30  7  2  0  0  0  0
 31 32  2  0  0  0  0
 35 34  2  0  0  0  0
 35 33  1  0  0  0  0
 36 35  1  0  0  0  0
 37 38  2  0  0  0  0
 38 36  1  0  0  0  0
 39 38  2  0  0  0  0
 40 42  1  0  0  0  0
 40 43  1  0  0  0  0
 42 41  1  0  0  0  0
 43 38  1  6  0  0  0
 43 44  1  0  0  0  0
 44 41  1  0  0  0  0
M  END
>  <MODEL>
8

>  <REMARK>
 VINA RESULT:      -7.2      3.889      9.915
  Name = 
  5 active torsions:
  status: ('A' for Active; 'I' for Inactive)
    1  A    between atoms: S_11  and  N_26
    2  A    between atoms: S_11  and  C_38
    3  A    between atoms: C_25  and  C_40
    4  A    between atoms: C_32  and  C_41
    5  A    between atoms: C_36  and  C_40
                            x       y       z     vdW  Elec       q    Type
                         _______ _______ _______ _____ _____    ______ ____

>  <TORSDO>
F 5

$$$$
=
 OpenBabel11042417073D

 44 48  0  0  1  0  0  0  0  0999 V2000
  195.6220  174.6460  141.7550 C   0  0  0  0  0  3  0  0  0  0  0  0
  192.0830  176.1610  143.5400 C   0  0  0  0  0  2  0  0  0  0  0  0
  188.8390  173.2800  140.1440 O   0  0  0  0  0  0  0  0  0  0  0  0
  194.2530  173.9850  139.7460 C   0  0  0  0  0  0  0  0  0  0  0  0
  190.2660  172.9190  138.2980 C   0  0  0  0  0  3  0  0  0  0  0  0
  191.8970  177.6180  143.1510 C   0  0  0  0  0  2  0  0  0  0  0  0
  193.8240  172.8000  137.1920 C   0  0  0  0  0  3  0  0  0  0  0  0
  195.6910  175.1910  142.9950 N   0  0  0  0  0  0  0  0  0  0  0  0
  194.3950  174.5890  141.0890 C   0  0  0  0  0  0  0  0  0  0  0  0
  193.2940  175.0820  141.7160 N   0  0  0  0  0  0  0  0  0  0  0  0
  193.3500  175.6340  142.9560 C   0  0  0  0  0  0  0  0  0  0  0  0
  190.1820  173.1890  139.7700 C   0  0  2  0  0  3  0  0  0  0  0  0
  197.2910  173.1610  137.9810 C   0  0  0  0  0  3  0  0  0  0  0  0
  190.8170  172.0500  140.5470 C   0  0  0  0  0  1  0  0  0  0  0  0
  191.3860  172.9060  137.5630 C   0  0  0  0  0  3  0  0  0  0  0  0
  188.2300  177.9340  143.8990 C   0  0  0  0  0  3  0  0  0  0  0  0
  195.3390  173.6110  138.9430 C   0  0  0  0  0  0  0  0  0  0  0  0
  187.7280  177.2300  141.5820 N   0  0  0  0  0  2  0  0  0  0  0  0
  192.9990  173.7530  139.2510 N   0  0  0  0  0  2  0  0  0  0  0  0
  187.2150  175.9250  142.0020 C   0  0  0  0  0  2  0  0  0  0  0  0
  188.5980  174.6380  140.3720 C   0  0  0  0  0  2  0  0  0  0  0  0
  194.5960  175.6950  143.6230 C   0  0  0  0  0  0  0  0  0  0  0  0
  195.1060  173.0280  137.6580 C   0  0  0  0  0  0  0  0  0  0  0  0
  188.2870  174.8580  141.8430 C   0  0  0  0  0  2  0  0  0  0  0  0
  190.4510  177.8960  142.7860 C   0  0  0  0  0  2  0  0  0  0  0  0
  187.5050  178.2470  142.6160 C   0  0  1  0  0  3  0  0  0  0  0  0
  189.5550  177.7850  143.9800 C   0  0  0  0  0  3  0  0  0  0  0  0
  196.3170  172.7490  137.0690 C   0  0  0  0  0  3  0  0  0  0  0  0
  196.7010  173.6910  139.1300 C   0  0  0  0  0  3  0  0  0  0  0  0
  192.7580  173.1710  138.0310 C   0  0  0  0  0  0  0  0  0  0  0  0
  194.8500  175.5450  146.0420 N   0  0  0  0  0  2  0  0  0  0  0  0
  194.7930  176.2650  144.9710 C   0  0  0  0  0  3  0  0  0  0  0  0
  186.0230  178.4720  142.8780 C   0  0  0  0  0  2  0  0  0  0  0  0
  185.0220  177.1500  144.5860 O   0  0  0  0  0  0  0  0  0  0  0  0
  185.6950  178.1750  144.2960 C   0  0  0  0  0  0  0  0  0  0  0  0
  186.1320  179.0730  145.3160 N   0  0  0  0  0  2  0  0  0  0  0  0
  184.3270  178.3410  147.0870 O   0  0  0  0  0  0  0  0  0  0  0  0
  185.7330  178.8620  146.9870 S   0  0  0  0  0  0  0  0  0  0  0  0
  185.8210  180.1850  147.6980 O   0  0  0  0  0  0  0  0  0  0  0  0
  186.5780  176.3040  147.2070 C   0  0  0  0  0  2  0  0  0  0  0  0
  188.7430  176.7590  147.0740 C   0  0  0  0  0  2  0  0  0  0  0  0
  187.7730  175.8320  146.6680 O   0  0  0  0  0  0  0  0  0  0  0  0
  186.8510  177.6860  147.7280 C   0  0  1  0  0  3  0  0  0  0  0  0
  188.1600  177.9980  147.3690 O   0  0  0  0  0  0  0  0  0  0  0  0
  1  8  1  0  0  0  0
  3 21  1  0  0  0  0
  4  9  1  0  0  0  0
  5 12  1  0  0  0  0
  6  2  1  0  0  0  0
  7 23  1  0  0  0  0
  7 30  2  0  0  0  0
  8 22  2  0  0  0  0
  9 10  1  0  0  0  0
  9  1  2  0  0  0  0
 10 11  2  0  0  0  0
 11  2  1  0  0  0  0
 11 22  1  0  0  0  0
 12  3  1  0  0  0  0
 12 14  1  1  0  0  0
 13 29  2  0  0  0  0
 15 30  1  0  0  0  0
 15  5  2  0  0  0  0
 16 27  2  0  0  0  0
 17 29  1  0  0  0  0
 17  4  2  0  0  0  0
 18 20  1  0  0  0  0
 18 26  1  0  0  0  0
 19  4  1  0  0  0  0
 21 24  1  0  0  0  0
 22 32  1  0  0  0  0
 23 17  1  0  0  0  0
 24 20  1  0  0  0  0
 25  6  1  0  0  0  0
 25 27  1  0  0  0  0
 26 33  1  1  0  0  0
 26 16  1  0  0  0  0
 28 23  2  0  0  0  0
 28 13  1  0  0  0  0
 30 19  1  0  0  0  0
 32 31  2  0  0  0  0
 33 35  1  0  0  0  0
 35 34  2  0  0  0  0
 35 36  1  0  0  0  0
 36 38  1  0  0  0  0
 38 37  2  0  0  0  0
 38 39  2  0  0  0  0
 40 43  1  0  0  0  0
 41 44  1  0  0  0  0
 42 41  1  0  0  0  0
 42 40  1  0  0  0  0
 43 38  1  6  0  0  0
 44 43  1  0  0  0  0
M  END
>  <MODEL>
9

>  <REMARK>
 VINA RESULT:      -7.1      2.037      3.140
  Name = 
  5 active torsions:
  status: ('A' for Active; 'I' for Inactive)
    1  A    between atoms: S_11  and  N_26
    2  A    between atoms: S_11  and  C_38
    3  A    between atoms: C_25  and  C_40
    4  A    between atoms: C_32  and  C_41
    5  A    between atoms: C_36  and  C_40
                            x       y       z     vdW  Elec       q    Type
                         _______ _______ _______ _____ _____    ______ ____

>  <TORSDO>
F 5

$$$$
