=
 OpenBabel11042413513D

 25 27  0  0  1  0  0  0  0  0999 V2000
  188.6370  177.0880  144.2630 C   0  0  1  0  0  3  0  0  0  0  0  0
  190.0770  177.7880  144.5420 S   0  0  0  0  0  0  0  0  0  0  0  0
  187.7020  177.2050  141.8990 C   0  0  0  0  0  0  0  0  0  0  0  0
  187.3450  178.5770  142.0660 N   0  0  0  0  0  1  0  0  0  0  0  0
  188.3530  176.4890  142.9320 C   0  0  0  0  0  0  0  0  0  0  0  0
  188.7330  175.1610  142.6880 C   0  0  0  0  0  3  0  0  0  0  0  0
  187.8300  175.2750  140.4860 N   0  0  0  0  0  0  0  0  0  0  0  0
  187.4480  176.5660  140.6740 C   0  0  0  0  0  0  0  0  0  0  0  0
  188.4620  174.5680  141.4560 C   0  0  0  0  0  3  0  0  0  0  0  0
  186.7680  177.2860  139.5590 C   0  0  0  0  0  1  0  0  0  0  0  0
  186.1980  176.7890  144.8360 C   0  0  0  0  0  2  0  0  0  0  0  0
  187.1470  177.7740  147.7540 C   0  0  0  0  0  2  0  0  0  0  0  0
  185.5650  178.0300  144.6920 O   0  0  0  0  0  0  0  0  0  0  0  0
  187.7660  178.0940  146.3920 C   0  0  0  0  0  2  0  0  0  0  0  0
  184.8610  178.5420  146.9450 C   0  0  0  0  0  2  0  0  0  0  0  0
  187.6260  176.9600  145.3720 C   0  0  2  0  0  3  0  0  0  0  0  0
  185.6460  177.4870  147.7170 C   0  0  0  0  0  2  0  0  0  0  0  0
  184.4760  177.9990  145.5720 C   0  0  0  0  0  2  0  0  0  0  0  0
  190.6850  177.1090  147.7070 O   0  0  0  0  0  0  0  0  0  0  0  0
  191.0390  176.5560  145.3820 C   0  0  0  0  0  0  0  0  0  0  0  0
  191.2000  176.3980  146.8040 C   0  0  0  0  0  0  0  0  0  0  0  0
  192.0610  175.3000  147.0380 N   0  0  0  0  0  0  0  0  0  0  0  0
  191.7390  175.6540  144.7830 N   0  0  0  0  0  0  0  0  0  0  0  0
  193.2470  173.7410  145.5810 C   0  0  0  0  0  1  0  0  0  0  0  0
  192.3500  174.8980  145.8380 C   0  0  0  0  0  0  0  0  0  0  0  0
  1  2  1  1  0  0  0
  2 20  1  0  0  0  0
  3  4  1  0  0  0  0
  3  5  1  0  0  0  0
  5  1  1  0  0  0  0
  6  5  2  0  0  0  0
  7  8  1  0  0  0  0
  7  9  2  0  0  0  0
  8  3  2  0  0  0  0
  9  6  1  0  0  0  0
 10  8  1  0  0  0  0
 11 16  1  0  0  0  0
 13 11  1  0  0  0  0
 13 18  1  0  0  0  0
 14 12  1  0  0  0  0
 15 17  1  0  0  0  0
 16  1  1  6  0  0  0
 16 14  1  0  0  0  0
 17 12  1  0  0  0  0
 18 15  1  0  0  0  0
 20 21  1  0  0  0  0
 21 22  1  0  0  0  0
 21 19  2  0  0  0  0
 23 20  2  0  0  0  0
 23 25  1  0  0  0  0
 24 25  1  0  0  0  0
 25 22  2  0  0  0  0
M  END
>  <MODEL>
1

>  <REMARK>
 VINA RESULT:      -6.7      0.000      0.000
  Name = 
  3 active torsions:
  status: ('A' for Active; 'I' for Inactive)
    1  A    between atoms: C_6  and  S_20
    2  A    between atoms: C_7  and  C_19
    3  A    between atoms: C_16  and  C_19
                            x       y       z     vdW  Elec       q    Type
                         _______ _______ _______ _____ _____    ______ ____

>  <TORSDO>
F 3

$$$$
=
 OpenBabel11042413513D

 25 27  0  0  1  0  0  0  0  0999 V2000
  189.3870  176.1700  144.0820 C   0  0  1  0  0  3  0  0  0  0  0  0
  188.8430  177.6610  143.7350 S   0  0  0  0  0  0  0  0  0  0  0  0
  191.5970  176.1690  145.3440 C   0  0  0  0  0  0  0  0  0  0  0  0
  192.2910  176.6870  144.2090 N   0  0  0  0  0  1  0  0  0  0  0  0
  190.1990  175.9490  145.3080 C   0  0  0  0  0  0  0  0  0  0  0  0
  189.5650  175.4940  146.4730 C   0  0  0  0  0  3  0  0  0  0  0  0
  191.6440  175.4720  147.6350 N   0  0  0  0  0  0  0  0  0  0  0  0
  192.3030  175.9170  146.5330 C   0  0  0  0  0  0  0  0  0  0  0  0
  190.3040  175.2590  147.6310 C   0  0  0  0  0  3  0  0  0  0  0  0
  193.7740  176.1400  146.6140 C   0  0  0  0  0  1  0  0  0  0  0  0
  189.7840  173.7300  143.5780 C   0  0  0  0  0  2  0  0  0  0  0  0
  188.2120  174.4210  140.8520 C   0  0  0  0  0  2  0  0  0  0  0  0
  190.9510  173.6320  142.8070 O   0  0  0  0  0  0  0  0  0  0  0  0
  189.0460  175.3520  141.7330 C   0  0  0  0  0  2  0  0  0  0  0  0
  190.1360  172.7640  140.7060 C   0  0  0  0  0  2  0  0  0  0  0  0
  188.9960  174.9970  143.2220 C   0  0  2  0  0  3  0  0  0  0  0  0
  188.6360  172.9530  140.9010 C   0  0  0  0  0  2  0  0  0  0  0  0
  190.8000  172.4660  142.0470 C   0  0  0  0  0  2  0  0  0  0  0  0
  185.9220  176.9640  142.3790 O   0  0  0  0  0  0  0  0  0  0  0  0
  187.1670  177.6920  144.3180 C   0  0  0  0  0  0  0  0  0  0  0  0
  185.9810  177.3490  143.5760 C   0  0  0  0  0  0  0  0  0  0  0  0
  184.8580  177.5300  144.4190 N   0  0  0  0  0  0  0  0  0  0  0  0
  186.8220  178.0640  145.5040 N   0  0  0  0  0  0  0  0  0  0  0  0
  184.5800  178.2710  146.7280 C   0  0  0  0  0  1  0  0  0  0  0  0
  185.3920  177.9440  145.5270 C   0  0  0  0  0  0  0  0  0  0  0  0
  1  2  1  1  0  0  0
  1  5  1  0  0  0  0
  2 20  1  0  0  0  0
  3  8  1  0  0  0  0
  4  3  1  0  0  0  0
  5  3  2  0  0  0  0
  5  6  1  0  0  0  0
  6  9  2  0  0  0  0
  8 10  1  0  0  0  0
  8  7  2  0  0  0  0
  9  7  1  0  0  0  0
 12 17  1  0  0  0  0
 12 14  1  0  0  0  0
 13 11  1  0  0  0  0
 14 16  1  0  0  0  0
 15 17  1  0  0  0  0
 15 18  1  0  0  0  0
 16 11  1  0  0  0  0
 16  1  1  1  0  0  0
 18 13  1  0  0  0  0
 19 21  2  0  0  0  0
 20 23  2  0  0  0  0
 21 20  1  0  0  0  0
 21 22  1  0  0  0  0
 22 25  2  0  0  0  0
 23 25  1  0  0  0  0
 25 24  1  0  0  0  0
M  END
>  <MODEL>
2

>  <REMARK>
 VINA RESULT:      -6.7      2.420      6.774
  Name = 
  3 active torsions:
  status: ('A' for Active; 'I' for Inactive)
    1  A    between atoms: C_6  and  S_20
    2  A    between atoms: C_7  and  C_19
    3  A    between atoms: C_16  and  C_19
                            x       y       z     vdW  Elec       q    Type
                         _______ _______ _______ _____ _____    ______ ____

>  <TORSDO>
F 3

$$$$
=
 OpenBabel11042413513D

 25 27  0  0  1  0  0  0  0  0999 V2000
  188.4730  177.4090  144.1260 C   0  0  1  0  0  3  0  0  0  0  0  0
  189.4140  177.5350  142.8060 S   0  0  0  0  0  0  0  0  0  0  0  0
  186.2250  178.0000  145.1620 C   0  0  0  0  0  0  0  0  0  0  0  0
  186.8020  178.0790  146.4650 N   0  0  0  0  0  1  0  0  0  0  0  0
  187.0210  177.7140  144.0270 C   0  0  0  0  0  0  0  0  0  0  0  0
  186.4080  177.7070  142.7660 C   0  0  0  0  0  3  0  0  0  0  0  0
  184.3040  178.2340  143.7510 N   0  0  0  0  0  0  0  0  0  0  0  0
  184.8540  178.2560  144.9940 C   0  0  0  0  0  0  0  0  0  0  0  0
  185.0440  177.9700  142.6450 C   0  0  0  0  0  3  0  0  0  0  0  0
  183.9820  178.5660  146.1620 C   0  0  0  0  0  1  0  0  0  0  0  0
  190.3820  177.5630  145.7670 C   0  0  0  0  0  2  0  0  0  0  0  0
  189.1800  174.7780  146.8560 C   0  0  0  0  0  2  0  0  0  0  0  0
  191.4570  176.8250  145.2510 O   0  0  0  0  0  0  0  0  0  0  0  0
  189.0960  175.3660  145.4470 C   0  0  0  0  0  2  0  0  0  0  0  0
  191.7100  175.0430  146.8620 C   0  0  0  0  0  2  0  0  0  0  0  0
  189.0440  176.8970  145.4220 C   0  0  2  0  0  3  0  0  0  0  0  0
  190.4150  175.2080  147.6490 C   0  0  0  0  0  2  0  0  0  0  0  0
  192.1910  176.4050  146.3670 C   0  0  0  0  0  2  0  0  0  0  0  0
  191.9100  175.4090  142.4810 O   0  0  0  0  0  0  0  0  0  0  0  0
  189.5600  175.8810  142.1790 C   0  0  0  0  0  0  0  0  0  0  0  0
  190.7530  175.0790  142.1090 C   0  0  0  0  0  0  0  0  0  0  0  0
  190.4210  173.8320  141.5270 N   0  0  0  0  0  0  0  0  0  0  0  0
  188.5780  175.2100  141.6800 N   0  0  0  0  0  0  0  0  0  0  0  0
  188.3500  172.8630  140.6730 C   0  0  0  0  0  1  0  0  0  0  0  0
  189.1500  173.9510  141.2940 C   0  0  0  0  0  0  0  0  0  0  0  0
  1  2  1  6  0  0  0
  3  4  1  0  0  0  0
  5  1  1  0  0  0  0
  5  3  2  0  0  0  0
  6  5  1  0  0  0  0
  7  8  2  0  0  0  0
  8  3  1  0  0  0  0
  8 10  1  0  0  0  0
  9  6  2  0  0  0  0
  9  7  1  0  0  0  0
 12 17  1  0  0  0  0
 13 11  1  0  0  0  0
 13 18  1  0  0  0  0
 14 12  1  0  0  0  0
 15 17  1  0  0  0  0
 16  1  1  6  0  0  0
 16 14  1  0  0  0  0
 16 11  1  0  0  0  0
 18 15  1  0  0  0  0
 20  2  1  0  0  0  0
 21 20  1  0  0  0  0
 21 19  2  0  0  0  0
 22 21  1  0  0  0  0
 23 20  2  0  0  0  0
 24 25  1  0  0  0  0
 25 22  2  0  0  0  0
 25 23  1  0  0  0  0
M  END
>  <MODEL>
3

>  <REMARK>
 VINA RESULT:      -6.6      2.607      5.007
  Name = 
  3 active torsions:
  status: ('A' for Active; 'I' for Inactive)
    1  A    between atoms: C_6  and  S_20
    2  A    between atoms: C_7  and  C_19
    3  A    between atoms: C_16  and  C_19
                            x       y       z     vdW  Elec       q    Type
                         _______ _______ _______ _____ _____    ______ ____

>  <TORSDO>
F 3

$$$$
=
 OpenBabel11042413513D

 25 27  0  0  1  0  0  0  0  0999 V2000
  188.6670  176.3860  143.0380 C   0  0  1  0  0  3  0  0  0  0  0  0
  189.9220  177.4180  143.0790 S   0  0  0  0  0  0  0  0  0  0  0  0
  189.2300  173.9260  142.7140 C   0  0  0  0  0  0  0  0  0  0  0  0
  189.5950  173.7880  144.0870 N   0  0  0  0  0  1  0  0  0  0  0  0
  188.7510  175.1560  142.2050 C   0  0  0  0  0  0  0  0  0  0  0  0
  188.3520  175.2150  140.8620 C   0  0  0  0  0  3  0  0  0  0  0  0
  188.9090  172.9170  140.5650 N   0  0  0  0  0  0  0  0  0  0  0  0
  189.3020  172.8100  141.8620 C   0  0  0  0  0  0  0  0  0  0  0  0
  188.4380  174.0830  140.0540 C   0  0  0  0  0  3  0  0  0  0  0  0
  189.7960  171.4950  142.3590 C   0  0  0  0  0  1  0  0  0  0  0  0
  186.1470  176.3660  143.1560 C   0  0  0  0  0  2  0  0  0  0  0  0
  186.6300  178.0940  145.8330 C   0  0  0  0  0  2  0  0  0  0  0  0
  185.6770  177.5430  142.5560 O   0  0  0  0  0  0  0  0  0  0  0  0
  187.5190  177.9890  144.5930 C   0  0  0  0  0  2  0  0  0  0  0  0
  184.6210  178.6990  144.3950 C   0  0  0  0  0  2  0  0  0  0  0  0
  187.4600  176.6210  143.9070 C   0  0  2  0  0  3  0  0  0  0  0  0
  185.1410  177.8730  145.5660 C   0  0  0  0  0  2  0  0  0  0  0  0
  184.4460  177.8080  143.1690 C   0  0  0  0  0  2  0  0  0  0  0  0
  193.0540  176.6370  143.7380 O   0  0  0  0  0  0  0  0  0  0  0  0
  190.8120  177.0090  144.5580 C   0  0  0  0  0  0  0  0  0  0  0  0
  192.2110  176.6860  144.6720 C   0  0  0  0  0  0  0  0  0  0  0  0
  192.4980  176.4100  146.0300 N   0  0  0  0  0  0  0  0  0  0  0  0
  190.2730  176.9320  145.7270 N   0  0  0  0  0  0  0  0  0  0  0  0
  191.1560  176.3750  148.0680 C   0  0  0  0  0  1  0  0  0  0  0  0
  191.3460  176.5660  146.6070 C   0  0  0  0  0  0  0  0  0  0  0  0
  1  2  1  1  0  0  0
  2 20  1  0  0  0  0
  3  4  1  0  0  0  0
  5  3  1  0  0  0  0
  5  1  1  0  0  0  0
  6  5  2  0  0  0  0
  7  8  1  0  0  0  0
  8 10  1  0  0  0  0
  8  3  2  0  0  0  0
  9  7  2  0  0  0  0
  9  6  1  0  0  0  0
 11 16  1  0  0  0  0
 13 11  1  0  0  0  0
 13 18  1  0  0  0  0
 14 12  1  0  0  0  0
 15 17  1  0  0  0  0
 16  1  1  6  0  0  0
 16 14  1  0  0  0  0
 17 12  1  0  0  0  0
 18 15  1  0  0  0  0
 19 21  2  0  0  0  0
 20 21  1  0  0  0  0
 20 23  2  0  0  0  0
 21 22  1  0  0  0  0
 22 25  2  0  0  0  0
 23 25  1  0  0  0  0
 25 24  1  0  0  0  0
M  END
>  <MODEL>
4

>  <REMARK>
 VINA RESULT:      -6.6      2.152      3.010
  Name = 
  3 active torsions:
  status: ('A' for Active; 'I' for Inactive)
    1  A    between atoms: C_6  and  S_20
    2  A    between atoms: C_7  and  C_19
    3  A    between atoms: C_16  and  C_19
                            x       y       z     vdW  Elec       q    Type
                         _______ _______ _______ _____ _____    ______ ____

>  <TORSDO>
F 3

$$$$
=
 OpenBabel11042413513D

 25 27  0  0  1  0  0  0  0  0999 V2000
  188.4300  177.3800  144.7980 C   0  0  1  0  0  3  0  0  0  0  0  0
  188.9470  177.5480  143.2660 S   0  0  0  0  0  0  0  0  0  0  0  0
  186.0990  178.2290  144.2340 C   0  0  0  0  0  0  0  0  0  0  0  0
  186.5300  178.6790  142.9490 N   0  0  0  0  0  1  0  0  0  0  0  0
  186.9900  177.5740  145.1160 C   0  0  0  0  0  0  0  0  0  0  0  0
  186.4930  177.1020  146.3400 C   0  0  0  0  0  3  0  0  0  0  0  0
  184.3210  177.9260  145.8100 N   0  0  0  0  0  0  0  0  0  0  0  0
  184.7550  178.3960  144.6110 C   0  0  0  0  0  0  0  0  0  0  0  0
  185.1520  177.2870  146.6720 C   0  0  0  0  0  3  0  0  0  0  0  0
  183.7830  179.0760  143.7090 C   0  0  0  0  0  1  0  0  0  0  0  0
  190.7860  177.5280  145.6890 C   0  0  0  0  0  2  0  0  0  0  0  0
  189.9020  174.9460  147.4040 C   0  0  0  0  0  2  0  0  0  0  0  0
  191.5900  176.6690  144.9280 O   0  0  0  0  0  0  0  0  0  0  0  0
  189.3730  175.4170  146.0480 C   0  0  0  0  0  2  0  0  0  0  0  0
  192.2940  175.0170  146.5440 C   0  0  0  0  0  2  0  0  0  0  0  0
  189.3820  176.9390  145.8790 C   0  0  2  0  0  3  0  0  0  0  0  0
  191.3490  175.3470  147.6930 C   0  0  0  0  0  2  0  0  0  0  0  0
  192.6390  176.2900  145.7750 C   0  0  0  0  0  2  0  0  0  0  0  0
  186.7130  175.2380  142.5400 O   0  0  0  0  0  0  0  0  0  0  0  0
  189.0360  175.8970  142.6220 C   0  0  0  0  0  0  0  0  0  0  0  0
  187.9370  175.0050  142.3590 C   0  0  0  0  0  0  0  0  0  0  0  0
  188.4590  173.7850  141.8660 N   0  0  0  0  0  0  0  0  0  0  0  0
  190.1390  175.2930  142.3340 N   0  0  0  0  0  0  0  0  0  0  0  0
  190.7160  172.9690  141.4190 C   0  0  0  0  0  1  0  0  0  0  0  0
  189.7400  173.9970  141.8670 C   0  0  0  0  0  0  0  0  0  0  0  0
  1  2  1  6  0  0  0
  1  5  1  0  0  0  0
  3  8  2  0  0  0  0
  3  5  1  0  0  0  0
  4  3  1  0  0  0  0
  5  6  2  0  0  0  0
  6  9  1  0  0  0  0
  7  9  2  0  0  0  0
  8  7  1  0  0  0  0
 10  8  1  0  0  0  0
 11 16  1  0  0  0  0
 12 17  1  0  0  0  0
 13 11  1  0  0  0  0
 13 18  1  0  0  0  0
 14 12  1  0  0  0  0
 15 17  1  0  0  0  0
 16  1  1  6  0  0  0
 16 14  1  0  0  0  0
 18 15  1  0  0  0  0
 20  2  1  0  0  0  0
 21 19  2  0  0  0  0
 21 20  1  0  0  0  0
 22 25  2  0  0  0  0
 22 21  1  0  0  0  0
 23 20  2  0  0  0  0
 24 25  1  0  0  0  0
 25 23  1  0  0  0  0
M  END
>  <MODEL>
5

>  <REMARK>
 VINA RESULT:      -6.4      2.116      5.081
  Name = 
  3 active torsions:
  status: ('A' for Active; 'I' for Inactive)
    1  A    between atoms: C_6  and  S_20
    2  A    between atoms: C_7  and  C_19
    3  A    between atoms: C_16  and  C_19
                            x       y       z     vdW  Elec       q    Type
                         _______ _______ _______ _____ _____    ______ ____

>  <TORSDO>
F 3

$$$$
=
 OpenBabel11042413513D

 25 27  0  0  1  0  0  0  0  0999 V2000
  190.3270  174.5630  145.4870 C   0  0  1  0  0  3  0  0  0  0  0  0
  189.3180  174.5690  146.7610 S   0  0  0  0  0  0  0  0  0  0  0  0
  189.3770  174.3940  143.1330 C   0  0  0  0  0  0  0  0  0  0  0  0
  189.1560  175.8040  143.0780 N   0  0  0  0  0  1  0  0  0  0  0  0
  189.9690  173.7910  144.2670 C   0  0  0  0  0  0  0  0  0  0  0  0
  190.2150  172.4110  144.2380 C   0  0  0  0  0  3  0  0  0  0  0  0
  189.2980  172.2620  142.0440 N   0  0  0  0  0  0  0  0  0  0  0  0
  189.0450  173.5970  142.0240 C   0  0  0  0  0  0  0  0  0  0  0  0
  189.8720  171.6590  143.1150 C   0  0  0  0  0  3  0  0  0  0  0  0
  188.4230  174.1940  140.8080 C   0  0  0  0  0  1  0  0  0  0  0  0
  192.5210  175.0570  144.3440 C   0  0  0  0  0  2  0  0  0  0  0  0
  193.1960  176.5660  147.1090 C   0  0  0  0  0  2  0  0  0  0  0  0
  193.4410  174.0720  144.7290 O   0  0  0  0  0  0  0  0  0  0  0  0
  192.2520  175.3870  146.8740 C   0  0  0  0  0  2  0  0  0  0  0  0
  195.0970  175.3330  145.9550 C   0  0  0  0  0  2  0  0  0  0  0  0
  191.5750  175.4060  145.5000 C   0  0  2  0  0  3  0  0  0  0  0  0
  194.3580  176.6560  146.1210 C   0  0  0  0  0  2  0  0  0  0  0  0
  194.7000  174.6790  144.6340 C   0  0  0  0  0  2  0  0  0  0  0  0
  189.8860  177.7050  147.5940 O   0  0  0  0  0  0  0  0  0  0  0  0
  188.3940  176.0770  146.6150 C   0  0  0  0  0  0  0  0  0  0  0  0
  188.8000  177.3910  147.0400 C   0  0  0  0  0  0  0  0  0  0  0  0
  187.7550  178.3000  146.7470 N   0  0  0  0  0  0  0  0  0  0  0  0
  187.2070  176.1500  146.1150 N   0  0  0  0  0  0  0  0  0  0  0  0
  185.5470  178.0650  145.7330 C   0  0  0  0  0  1  0  0  0  0  0  0
  186.8520  177.5370  146.2100 C   0  0  0  0  0  0  0  0  0  0  0  0
  1  2  1  6  0  0  0
  3  5  1  0  0  0  0
  4  3  1  0  0  0  0
  5  1  1  0  0  0  0
  6  5  2  0  0  0  0
  7  9  2  0  0  0  0
  8  7  1  0  0  0  0
  8  3  2  0  0  0  0
  9  6  1  0  0  0  0
 10  8  1  0  0  0  0
 11 13  1  0  0  0  0
 11 16  1  0  0  0  0
 14 12  1  0  0  0  0
 15 17  1  0  0  0  0
 16  1  1  1  0  0  0
 16 14  1  0  0  0  0
 17 12  1  0  0  0  0
 18 13  1  0  0  0  0
 18 15  1  0  0  0  0
 20  2  1  0  0  0  0
 20 21  1  0  0  0  0
 21 19  2  0  0  0  0
 22 21  1  0  0  0  0
 23 25  1  0  0  0  0
 23 20  2  0  0  0  0
 24 25  1  0  0  0  0
 25 22  2  0  0  0  0
M  END
>  <MODEL>
6

>  <REMARK>
 VINA RESULT:      -6.4      2.695      5.753
  Name = 
  3 active torsions:
  status: ('A' for Active; 'I' for Inactive)
    1  A    between atoms: C_6  and  S_20
    2  A    between atoms: C_7  and  C_19
    3  A    between atoms: C_16  and  C_19
                            x       y       z     vdW  Elec       q    Type
                         _______ _______ _______ _____ _____    ______ ____

>  <TORSDO>
F 3

$$$$
=
 OpenBabel11042413513D

 25 27  0  0  1  0  0  0  0  0999 V2000
  188.8840  176.2650  143.0670 C   0  0  1  0  0  3  0  0  0  0  0  0
  188.8080  177.7010  142.3090 S   0  0  0  0  0  0  0  0  0  0  0  0
  190.4580  176.2360  145.0660 C   0  0  0  0  0  0  0  0  0  0  0  0
  191.6000  176.3730  144.2190 N   0  0  0  0  0  1  0  0  0  0  0  0
  189.1490  176.2180  144.5300 C   0  0  0  0  0  0  0  0  0  0  0  0
  188.0650  176.1410  145.4160 C   0  0  0  0  0  3  0  0  0  0  0  0
  189.5510  176.0860  147.2780 N   0  0  0  0  0  0  0  0  0  0  0  0
  190.6330  176.1650  146.4590 C   0  0  0  0  0  0  0  0  0  0  0  0
  188.2840  176.0750  146.7920 C   0  0  0  0  0  3  0  0  0  0  0  0
  191.9950  176.1860  147.0640 C   0  0  0  0  0  1  0  0  0  0  0  0
  189.1760  173.7600  143.0240 C   0  0  0  0  0  2  0  0  0  0  0  0
  188.3100  174.0860  139.9380 C   0  0  0  0  0  2  0  0  0  0  0  0
  190.4720  173.4840  142.5670 O   0  0  0  0  0  0  0  0  0  0  0  0
  189.0040  175.1030  140.8450 C   0  0  0  0  0  2  0  0  0  0  0  0
  190.0730  172.3340  140.4800 C   0  0  0  0  0  2  0  0  0  0  0  0
  188.5960  174.9910  142.3170 C   0  0  2  0  0  3  0  0  0  0  0  0
  188.5880  172.6250  140.2940 C   0  0  0  0  0  2  0  0  0  0  0  0
  190.3950  172.2200  141.9680 C   0  0  0  0  0  2  0  0  0  0  0  0
  186.5540  178.8720  144.4070 O   0  0  0  0  0  0  0  0  0  0  0  0
  187.0770  178.0720  142.1880 C   0  0  0  0  0  0  0  0  0  0  0  0
  186.2230  178.5900  143.2250 C   0  0  0  0  0  0  0  0  0  0  0  0
  184.9130  178.7220  142.7040 N   0  0  0  0  0  0  0  0  0  0  0  0
  186.3710  177.8860  141.1240 N   0  0  0  0  0  0  0  0  0  0  0  0
  183.9060  178.2590  140.5290 C   0  0  0  0  0  1  0  0  0  0  0  0
  185.0460  178.3030  141.4820 C   0  0  0  0  0  0  0  0  0  0  0  0
  1  2  1  1  0  0  0
  1  5  1  0  0  0  0
  3  8  1  0  0  0  0
  4  3  1  0  0  0  0
  5  3  2  0  0  0  0
  5  6  1  0  0  0  0
  6  9  2  0  0  0  0
  8 10  1  0  0  0  0
  8  7  2  0  0  0  0
  9  7  1  0  0  0  0
 12 17  1  0  0  0  0
 12 14  1  0  0  0  0
 13 11  1  0  0  0  0
 14 16  1  0  0  0  0
 15 18  1  0  0  0  0
 16 11  1  0  0  0  0
 16  1  1  1  0  0  0
 17 15  1  0  0  0  0
 18 13  1  0  0  0  0
 20  2  1  0  0  0  0
 20 21  1  0  0  0  0
 21 19  2  0  0  0  0
 22 21  1  0  0  0  0
 23 25  1  0  0  0  0
 23 20  2  0  0  0  0
 24 25  1  0  0  0  0
 25 22  2  0  0  0  0
M  END
>  <MODEL>
7

>  <REMARK>
 VINA RESULT:      -6.4      2.351      6.934
  Name = 
  3 active torsions:
  status: ('A' for Active; 'I' for Inactive)
    1  A    between atoms: C_6  and  S_20
    2  A    between atoms: C_7  and  C_19
    3  A    between atoms: C_16  and  C_19
                            x       y       z     vdW  Elec       q    Type
                         _______ _______ _______ _____ _____    ______ ____

>  <TORSDO>
F 3

$$$$
=
 OpenBabel11042413513D

 25 27  0  0  1  0  0  0  0  0999 V2000
  190.1220  176.2690  143.4800 C   0  0  1  0  0  3  0  0  0  0  0  0
  189.5010  177.7350  143.1500 S   0  0  0  0  0  0  0  0  0  0  0  0
  192.1660  176.2480  144.9960 C   0  0  0  0  0  0  0  0  0  0  0  0
  192.9880  176.7900  143.9610 N   0  0  0  0  0  1  0  0  0  0  0  0
  190.7840  176.0260  144.7900 C   0  0  0  0  0  0  0  0  0  0  0  0
  190.0170  175.5480  145.8620 C   0  0  0  0  0  3  0  0  0  0  0  0
  191.9430  175.5080  147.2630 N   0  0  0  0  0  0  0  0  0  0  0  0
  192.7260  175.9750  146.2550 C   0  0  0  0  0  0  0  0  0  0  0  0
  190.6140  175.2940  147.0950 C   0  0  0  0  0  3  0  0  0  0  0  0
  194.1770  176.2000  146.5150 C   0  0  0  0  0  1  0  0  0  0  0  0
  188.9040  174.1160  142.9840 C   0  0  0  0  0  2  0  0  0  0  0  0
  191.2630  173.7140  140.8260 C   0  0  0  0  0  2  0  0  0  0  0  0
  189.5040  173.0970  143.7360 O   0  0  0  0  0  0  0  0  0  0  0  0
  191.2950  174.5020  142.1360 C   0  0  0  0  0  2  0  0  0  0  0  0
  190.4220  171.6430  142.0400 C   0  0  0  0  0  2  0  0  0  0  0  0
  189.9490  175.1320  142.5070 C   0  0  2  0  0  3  0  0  0  0  0  0
  190.2840  172.5400  140.8150 C   0  0  0  0  0  2  0  0  0  0  0  0
  189.2800  171.9180  143.0150 C   0  0  0  0  0  2  0  0  0  0  0  0
  186.8690  176.7970  141.4040 O   0  0  0  0  0  0  0  0  0  0  0  0
  187.7670  177.5950  143.5010 C   0  0  0  0  0  0  0  0  0  0  0  0
  186.7300  177.1580  142.6030 C   0  0  0  0  0  0  0  0  0  0  0  0
  185.4920  177.2130  143.2870 N   0  0  0  0  0  0  0  0  0  0  0  0
  187.2320  177.9040  144.6330 N   0  0  0  0  0  0  0  0  0  0  0  0
  184.8370  177.8710  145.5450 C   0  0  0  0  0  1  0  0  0  0  0  0
  185.8310  177.6500  144.4620 C   0  0  0  0  0  0  0  0  0  0  0  0
  1  2  1  1  0  0  0
  1  5  1  0  0  0  0
  2 20  1  0  0  0  0
  3  8  1  0  0  0  0
  4  3  1  0  0  0  0
  5  3  2  0  0  0  0
  5  6  1  0  0  0  0
  6  9  2  0  0  0  0
  8 10  1  0  0  0  0
  8  7  2  0  0  0  0
  9  7  1  0  0  0  0
 11 13  1  0  0  0  0
 12 14  1  0  0  0  0
 14 16  1  0  0  0  0
 15 18  1  0  0  0  0
 16 11  1  0  0  0  0
 16  1  1  1  0  0  0
 17 12  1  0  0  0  0
 17 15  1  0  0  0  0
 18 13  1  0  0  0  0
 19 21  2  0  0  0  0
 20 23  2  0  0  0  0
 21 22  1  0  0  0  0
 21 20  1  0  0  0  0
 22 25  2  0  0  0  0
 25 23  1  0  0  0  0
 25 24  1  0  0  0  0
M  END
>  <MODEL>
8

>  <REMARK>
 VINA RESULT:      -6.2      2.368      6.803
  Name = 
  3 active torsions:
  status: ('A' for Active; 'I' for Inactive)
    1  A    between atoms: C_6  and  S_20
    2  A    between atoms: C_7  and  C_19
    3  A    between atoms: C_16  and  C_19
                            x       y       z     vdW  Elec       q    Type
                         _______ _______ _______ _____ _____    ______ ____

>  <TORSDO>
F 3

$$$$
=
 OpenBabel11042413513D

 25 27  0  0  1  0  0  0  0  0999 V2000
  190.1470  176.0450  144.0960 C   0  0  1  0  0  3  0  0  0  0  0  0
  189.4020  177.4850  143.9830 S   0  0  0  0  0  0  0  0  0  0  0  0
  192.6790  176.2440  144.2510 C   0  0  0  0  0  0  0  0  0  0  0  0
  192.7610  176.7510  142.9190 N   0  0  0  0  0  1  0  0  0  0  0  0
  191.4300  175.9350  144.8400 C   0  0  0  0  0  0  0  0  0  0  0  0
  191.4090  175.4980  146.1720 C   0  0  0  0  0  3  0  0  0  0  0  0
  193.7830  175.6630  146.2960 N   0  0  0  0  0  0  0  0  0  0  0  0
  193.8530  176.0950  145.0100 C   0  0  0  0  0  0  0  0  0  0  0  0
  192.5980  175.3660  146.8880 C   0  0  0  0  0  3  0  0  0  0  0  0
  195.1880  176.4150  144.4280 C   0  0  0  0  0  1  0  0  0  0  0  0
  190.5190  173.6900  143.2710 C   0  0  0  0  0  2  0  0  0  0  0  0
  187.5760  174.0640  142.0130 C   0  0  0  0  0  2  0  0  0  0  0  0
  191.0190  173.7640  141.9630 O   0  0  0  0  0  0  0  0  0  0  0  0
  188.6240  175.1340  142.3200 C   0  0  0  0  0  2  0  0  0  0  0  0
  189.2680  172.7330  140.6580 C   0  0  0  0  0  2  0  0  0  0  0  0
  189.5000  174.8070  143.5320 C   0  0  2  0  0  3  0  0  0  0  0  0
  188.1530  172.6840  141.6960 C   0  0  0  0  0  2  0  0  0  0  0  0
  190.6220  172.5730  141.3440 C   0  0  0  0  0  2  0  0  0  0  0  0
  189.4500  177.7900  147.2630 O   0  0  0  0  0  0  0  0  0  0  0  0
  188.1570  177.4650  145.2480 C   0  0  0  0  0  0  0  0  0  0  0  0
  188.3550  177.6160  146.6660 C   0  0  0  0  0  0  0  0  0  0  0  0
  187.0960  177.5210  147.3070 N   0  0  0  0  0  0  0  0  0  0  0  0
  186.9010  177.2810  145.0210 N   0  0  0  0  0  0  0  0  0  0  0  0
  184.8170  177.1650  146.5090 C   0  0  0  0  0  1  0  0  0  0  0  0
  186.2810  177.3280  146.3150 C   0  0  0  0  0  0  0  0  0  0  0  0
  1  2  1  1  0  0  0
  1  5  1  0  0  0  0
  2 20  1  0  0  0  0
  3  5  2  0  0  0  0
  3  8  1  0  0  0  0
  4  3  1  0  0  0  0
  5  6  1  0  0  0  0
  6  9  2  0  0  0  0
  7  9  1  0  0  0  0
  8  7  2  0  0  0  0
 10  8  1  0  0  0  0
 11 16  1  0  0  0  0
 12 14  1  0  0  0  0
 13 11  1  0  0  0  0
 14 16  1  0  0  0  0
 15 18  1  0  0  0  0
 15 17  1  0  0  0  0
 16  1  1  6  0  0  0
 17 12  1  0  0  0  0
 18 13  1  0  0  0  0
 20 21  1  0  0  0  0
 21 19  2  0  0  0  0
 21 22  1  0  0  0  0
 23 20  2  0  0  0  0
 23 25  1  0  0  0  0
 25 24  1  0  0  0  0
 25 22  2  0  0  0  0
M  END
>  <MODEL>
9

>  <REMARK>
 VINA RESULT:      -6.2      2.480      6.296
  Name = 
  3 active torsions:
  status: ('A' for Active; 'I' for Inactive)
    1  A    between atoms: C_6  and  S_20
    2  A    between atoms: C_7  and  C_19
    3  A    between atoms: C_16  and  C_19
                            x       y       z     vdW  Elec       q    Type
                         _______ _______ _______ _____ _____    ______ ____

>  <TORSDO>
F 3

$$$$
