=
 OpenBabel11042416553D

 35 42  0  0  1  0  0  0  0  0999 V2000
  189.0630  174.8190  142.4260 C   0  0  0  0  0  0  0  0  0  0  0  0
  187.8820  174.1200  141.8760 C   0  0  0  0  0  2  0  0  0  0  0  0
  190.2550  173.9440  142.4950 C   0  0  0  0  0  2  0  0  0  0  0  0
  188.9110  175.7890  143.2800 C   0  0  0  0  0  0  0  0  0  0  0  0
  189.8180  172.6210  141.8770 C   0  0  1  0  0  3  0  0  0  0  0  0
  188.2910  172.6600  141.8410 C   0  0  0  0  0  2  0  0  0  0  0  0
  188.7380  176.7560  144.1440 C   0  0  0  0  0  3  0  0  0  0  0  0
  187.5970  176.9690  146.3930 C   0  0  2  0  0  3  0  0  0  0  0  0
  186.2330  176.9460  147.0740 C   0  0  2  0  0  3  0  0  0  0  0  0
  185.5740  178.7150  145.2330 C   0  0  2  0  0  3  0  0  0  0  0  0
  185.1620  177.8210  146.4130 C   0  0  2  0  0  0  0  0  0  0  0  0
  184.6550  178.4510  144.0550 C   0  0  0  0  0  2  0  0  0  0  0  0
  187.4300  176.9480  144.8680 C   0  0  1  0  0  3  0  0  0  0  0  0
  186.7680  178.2450  144.3950 C   0  0  1  0  0  3  0  0  0  0  0  0
  185.9100  178.3170  147.6360 C   0  0  1  0  0  3  0  0  0  0  0  0
  188.3730  175.7560  146.8820 C   0  0  0  0  0  1  0  0  0  0  0  0
  185.8380  177.9780  143.2260 C   0  0  0  0  0  2  0  0  0  0  0  0
  184.4320  178.6130  147.4770 C   0  0  0  0  0  2  0  0  0  0  0  0
  190.3800  172.4620  140.4570 C   0  0  1  0  0  3  0  0  0  0  0  0
  192.7260  171.1300  140.8190 S   0  0  0  0  0  0  0  0  0  0  0  0
  191.4860  173.4550  140.1700 C   0  0  0  0  0  2  0  0  0  0  0  0
  190.9920  171.0850  140.2720 C   0  0  0  0  0  2  0  0  0  0  0  0
  192.7560  172.9460  140.8290 C   0  0  2  0  0  3  0  0  0  0  0  0
  195.3070  176.0680  142.2500 C   0  0  0  0  0  2  0  0  0  0  0  0
  197.9120  175.7670  139.3720 C   0  0  0  0  0  2  0  0  0  0  0  0
  195.7110  174.9670  139.5730 C   0  0  1  0  0  3  0  0  0  0  0  0
  196.5300  172.8230  138.8860 O   0  0  0  0  0  1  0  0  0  0  0  0
  193.9170  173.4130  140.1070 N   0  0  0  0  0  0  0  0  0  0  0  0
  194.1130  175.4330  141.5060 C   0  0  0  0  0  2  0  0  0  0  0  0
  196.4150  176.5660  141.2990 C   0  0  0  0  0  2  0  0  0  0  0  0
  197.6410  174.8160  138.1940 C   0  0  0  0  0  2  0  0  0  0  0  0
  196.2980  174.1310  138.4540 C   0  0  2  0  0  3  0  0  0  0  0  0
  194.5670  174.4840  140.4160 C   0  0  0  0  0  0  0  0  0  0  0  0
  197.3620  174.3650  141.2090 O   0  0  0  0  0  1  0  0  0  0  0  0
  196.8760  175.4110  140.4150 C   0  0  2  0  0  0  0  0  0  0  0  0
  1  3  1  0  0  0  0
  1  4  2  0  0  0  0
  2  1  1  0  0  0  0
  4  7  2  0  0  0  0
  5  6  1  6  0  0  0
  5  3  1  0  0  0  0
  6  2  1  0  0  0  0
  7 13  1  0  0  0  0
  8 16  1  1  0  0  0
  8  9  1  0  0  0  0
  9 15  1  0  0  0  0
 10 11  1  0  0  0  0
 11  9  1  0  0  0  0
 11 18  1  0  0  0  0
 11 15  1  0  0  0  0
 12 10  1  0  0  0  0
 13  8  1  0  0  0  0
 14 13  1  0  0  0  0
 14 10  1  0  0  0  0
 17 12  1  0  0  0  0
 17 14  1  0  0  0  0
 18 15  1  0  0  0  0
 19  5  1  0  0  0  0
 20 23  1  0  0  0  0
 21 19  1  0  0  0  0
 21 23  1  0  0  0  0
 22 19  1  0  0  0  0
 22 20  1  0  0  0  0
 25 35  1  0  0  0  0
 26 35  1  0  0  0  0
 26 33  1  0  0  0  0
 28 33  2  0  0  0  0
 28 23  1  0  0  0  0
 29 24  1  0  0  0  0
 30 24  1  0  0  0  0
 31 32  1  0  0  0  0
 31 25  1  0  0  0  0
 32 27  1  0  0  0  0
 32 26  1  0  0  0  0
 33 29  1  0  0  0  0
 35 34  1  0  0  0  0
 35 30  1  0  0  0  0
M  END
>  <MODEL>
1

>  <REMARK>
 VINA RESULT:      -8.8      0.000      0.000
  Name = 
  3 active torsions:
  status: ('A' for Active; 'I' for Inactive)
    1  A    between atoms: C_4  and  C_22
    2  A    between atoms: N_9  and  C_29
    3  A    between atoms: C_16  and  C_35
                            x       y       z     vdW  Elec       q    Type
                         _______ _______ _______ _____ _____    ______ ____

>  <TORSDO>
F 3

$$$$
=
 OpenBabel11042416553D

 35 42  0  0  1  0  0  0  0  0999 V2000
  190.7200  176.5200  144.8760 C   0  0  0  0  0  0  0  0  0  0  0  0
  191.2080  177.8480  144.4450 C   0  0  0  0  0  2  0  0  0  0  0  0
  191.4560  175.4100  144.2280 C   0  0  0  0  0  2  0  0  0  0  0  0
  189.4790  176.3630  145.2350 C   0  0  0  0  0  0  0  0  0  0  0  0
  192.5330  176.0830  143.3850 C   0  0  1  0  0  3  0  0  0  0  0  0
  192.1230  177.5500  143.2720 C   0  0  0  0  0  2  0  0  0  0  0  0
  188.2250  176.2230  145.5820 C   0  0  0  0  0  3  0  0  0  0  0  0
  186.7690  177.1850  143.7500 C   0  0  2  0  0  3  0  0  0  0  0  0
  185.8850  178.3760  143.3960 C   0  0  2  0  0  3  0  0  0  0  0  0
  184.7140  177.8610  145.7010 C   0  0  2  0  0  3  0  0  0  0  0  0
  184.8520  178.7580  144.4610 C   0  0  2  0  0  0  0  0  0  0  0  0
  184.8370  178.7100  146.9530 C   0  0  0  0  0  2  0  0  0  0  0  0
  187.1840  177.2520  145.2260 C   0  0  1  0  0  3  0  0  0  0  0  0
  185.9570  177.0730  146.1250 C   0  0  1  0  0  3  0  0  0  0  0  0
  184.4430  177.9300  143.2580 C   0  0  1  0  0  3  0  0  0  0  0  0
  187.9800  177.2240  142.8320 C   0  0  0  0  0  1  0  0  0  0  0  0
  186.0750  177.9310  147.3700 C   0  0  0  0  0  2  0  0  0  0  0  0
  183.5110  178.9960  143.8000 C   0  0  0  0  0  2  0  0  0  0  0  0
  193.9110  175.9650  144.0520 C   0  0  1  0  0  3  0  0  0  0  0  0
  195.2160  174.1040  142.5540 S   0  0  0  0  0  0  0  0  0  0  0  0
  194.0210  174.7230  144.9110 C   0  0  0  0  0  2  0  0  0  0  0  0
  195.0070  175.8530  143.0080 C   0  0  0  0  0  2  0  0  0  0  0  0
  194.2620  173.5380  143.9930 C   0  0  2  0  0  3  0  0  0  0  0  0
  193.0260  169.4480  144.1400 C   0  0  0  0  0  2  0  0  0  0  0  0
  196.1850  168.1660  146.0200 C   0  0  0  0  0  2  0  0  0  0  0  0
  195.3190  170.3310  145.7230 C   0  0  1  0  0  3  0  0  0  0  0  0
  197.5110  171.0080  145.0320 O   0  0  0  0  0  1  0  0  0  0  0  0
  195.0020  172.5100  144.6870 N   0  0  0  0  0  0  0  0  0  0  0  0
  193.1180  170.9250  144.5800 C   0  0  0  0  0  2  0  0  0  0  0  0
  193.8320  168.4960  145.0470 C   0  0  0  0  0  2  0  0  0  0  0  0
  197.2320  169.1720  146.5270 C   0  0  0  0  0  2  0  0  0  0  0  0
  196.7600  170.5710  146.1260 C   0  0  2  0  0  3  0  0  0  0  0  0
  194.5380  171.3270  144.9170 C   0  0  0  0  0  0  0  0  0  0  0  0
  195.8320  168.9690  143.8120 O   0  0  0  0  0  1  0  0  0  0  0  0
  195.2840  168.9610  145.1010 C   0  0  2  0  0  0  0  0  0  0  0  0
  1  4  2  0  0  0  0
  2  1  1  0  0  0  0
  3  1  1  0  0  0  0
  4  7  2  0  0  0  0
  5  6  1  1  0  0  0
  5 19  1  0  0  0  0
  5  3  1  0  0  0  0
  6  2  1  0  0  0  0
  8 16  1  6  0  0  0
  8 13  1  0  0  0  0
  9  8  1  0  0  0  0
  9 11  1  0  0  0  0
 10 14  1  0  0  0  0
 10 12  1  0  0  0  0
 11 10  1  0  0  0  0
 12 17  1  0  0  0  0
 13  7  1  0  0  0  0
 13 14  1  0  0  0  0
 14 17  1  0  0  0  0
 15  9  1  0  0  0  0
 15 18  1  0  0  0  0
 15 11  1  0  0  0  0
 18 11  1  0  0  0  0
 19 21  1  0  0  0  0
 20 22  1  0  0  0  0
 20 23  1  0  0  0  0
 22 19  1  0  0  0  0
 23 28  1  0  0  0  0
 23 21  1  0  0  0  0
 24 29  1  0  0  0  0
 24 30  1  0  0  0  0
 25 31  1  0  0  0  0
 26 32  1  0  0  0  0
 27 32  1  0  0  0  0
 28 33  2  0  0  0  0
 29 33  1  0  0  0  0
 30 35  1  0  0  0  0
 32 31  1  0  0  0  0
 33 26  1  0  0  0  0
 34 35  1  0  0  0  0
 35 26  1  0  0  0  0
 35 25  1  0  0  0  0
M  END
>  <MODEL>
2

>  <REMARK>
 VINA RESULT:      -8.7      3.909      5.571
  Name = 
  3 active torsions:
  status: ('A' for Active; 'I' for Inactive)
    1  A    between atoms: C_4  and  C_22
    2  A    between atoms: N_9  and  C_29
    3  A    between atoms: C_16  and  C_35
                            x       y       z     vdW  Elec       q    Type
                         _______ _______ _______ _____ _____    ______ ____

>  <TORSDO>
F 3

$$$$
=
 OpenBabel11042416553D

 35 42  0  0  1  0  0  0  0  0999 V2000
  190.5930  176.1340  144.6490 C   0  0  0  0  0  0  0  0  0  0  0  0
  190.9560  177.5510  144.4270 C   0  0  0  0  0  2  0  0  0  0  0  0
  191.4850  175.2020  143.9220 C   0  0  0  0  0  2  0  0  0  0  0  0
  189.3580  175.8050  144.8920 C   0  0  0  0  0  0  0  0  0  0  0  0
  192.5300  176.0880  143.2540 C   0  0  1  0  0  3  0  0  0  0  0  0
  191.9670  177.5070  143.2970 C   0  0  0  0  0  2  0  0  0  0  0  0
  188.1080  175.4930  145.1250 C   0  0  0  0  0  3  0  0  0  0  0  0
  186.7540  177.4630  145.9550 C   0  0  2  0  0  3  0  0  0  0  0  0
  185.4780  178.2570  145.6990 C   0  0  2  0  0  3  0  0  0  0  0  0
  186.3590  178.3790  143.2170 C   0  0  2  0  0  3  0  0  0  0  0  0
  185.2530  178.6760  144.2420 C   0  0  2  0  0  0  0  0  0  0  0  0
  185.7660  177.6260  142.0400 C   0  0  0  0  0  2  0  0  0  0  0  0
  186.9830  176.4500  144.8250 C   0  0  1  0  0  3  0  0  0  0  0  0
  187.2700  177.1830  143.5120 C   0  0  1  0  0  3  0  0  0  0  0  0
  185.8220  179.6620  145.2450 C   0  0  1  0  0  3  0  0  0  0  0  0
  186.6000  176.7690  147.2980 C   0  0  0  0  0  1  0  0  0  0  0  0
  186.6650  176.4360  142.3370 C   0  0  0  0  0  2  0  0  0  0  0  0
  184.8330  180.1300  144.1950 C   0  0  0  0  0  2  0  0  0  0  0  0
  193.8700  176.0230  144.0010 C   0  0  1  0  0  3  0  0  0  0  0  0
  195.3610  174.2770  142.5390 S   0  0  0  0  0  0  0  0  0  0  0  0
  193.9950  174.7640  144.8330 C   0  0  0  0  0  2  0  0  0  0  0  0
  195.0310  175.9980  143.0240 C   0  0  0  0  0  2  0  0  0  0  0  0
  194.3540  173.6200  143.9020 C   0  0  2  0  0  3  0  0  0  0  0  0
  193.1330  169.5320  144.1680 C   0  0  0  0  0  2  0  0  0  0  0  0
  196.3180  168.3080  146.0430 C   0  0  0  0  0  2  0  0  0  0  0  0
  195.4420  170.4620  145.7010 C   0  0  1  0  0  3  0  0  0  0  0  0
  197.6230  171.1270  144.9670 O   0  0  0  0  0  1  0  0  0  0  0  0
  195.1060  172.6120  144.6130 N   0  0  0  0  0  0  0  0  0  0  0  0
  193.2250  171.0200  144.5690 C   0  0  0  0  0  2  0  0  0  0  0  0
  193.9520  168.6060  145.0910 C   0  0  0  0  0  2  0  0  0  0  0  0
  197.3680  169.3300  146.5120 C   0  0  0  0  0  2  0  0  0  0  0  0
  196.8860  170.7160  146.0800 C   0  0  2  0  0  3  0  0  0  0  0  0
  194.6480  171.4350  144.8780 C   0  0  0  0  0  0  0  0  0  0  0  0
  195.9360  169.0530  143.8200 O   0  0  0  0  0  1  0  0  0  0  0  0
  195.4030  169.0760  145.1150 C   0  0  2  0  0  0  0  0  0  0  0  0
  1  4  2  0  0  0  0
  2  1  1  0  0  0  0
  3  1  1  0  0  0  0
  4  7  2  0  0  0  0
  5  6  1  1  0  0  0
  5  3  1  0  0  0  0
  5 19  1  0  0  0  0
  6  2  1  0  0  0  0
  8 16  1  1  0  0  0
  9  8  1  0  0  0  0
 10 14  1  0  0  0  0
 10 11  1  0  0  0  0
 11 15  1  0  0  0  0
 11  9  1  0  0  0  0
 12 17  1  0  0  0  0
 12 10  1  0  0  0  0
 13  7  1  0  0  0  0
 13  8  1  0  0  0  0
 14 13  1  0  0  0  0
 15  9  1  0  0  0  0
 17 14  1  0  0  0  0
 18 11  1  0  0  0  0
 18 15  1  0  0  0  0
 19 21  1  0  0  0  0
 20 22  1  0  0  0  0
 20 23  1  0  0  0  0
 22 19  1  0  0  0  0
 23 28  1  0  0  0  0
 23 21  1  0  0  0  0
 24 29  1  0  0  0  0
 24 30  1  0  0  0  0
 25 31  1  0  0  0  0
 26 32  1  0  0  0  0
 27 32  1  0  0  0  0
 28 33  2  0  0  0  0
 29 33  1  0  0  0  0
 30 35  1  0  0  0  0
 32 31  1  0  0  0  0
 33 26  1  0  0  0  0
 34 35  1  0  0  0  0
 35 26  1  0  0  0  0
 35 25  1  0  0  0  0
M  END
>  <MODEL>
3

>  <REMARK>
 VINA RESULT:      -8.7      3.899      5.338
  Name = 
  3 active torsions:
  status: ('A' for Active; 'I' for Inactive)
    1  A    between atoms: C_4  and  C_22
    2  A    between atoms: N_9  and  C_29
    3  A    between atoms: C_16  and  C_35
                            x       y       z     vdW  Elec       q    Type
                         _______ _______ _______ _____ _____    ______ ____

>  <TORSDO>
F 3

$$$$
=
 OpenBabel11042416553D

 35 42  0  0  1  0  0  0  0  0999 V2000
  189.1980  175.0260  143.1640 C   0  0  0  0  0  0  0  0  0  0  0  0
  188.3250  174.8290  141.9870 C   0  0  0  0  0  2  0  0  0  0  0  0
  189.6800  173.7450  143.7300 C   0  0  0  0  0  2  0  0  0  0  0  0
  189.0360  176.0640  143.9340 C   0  0  0  0  0  0  0  0  0  0  0  0
  189.1350  172.6670  142.8010 C   0  0  1  0  0  3  0  0  0  0  0  0
  188.0400  173.3400  141.9740 C   0  0  0  0  0  2  0  0  0  0  0  0
  188.8510  177.1080  144.7000 C   0  0  0  0  0  3  0  0  0  0  0  0
  187.0140  178.0310  143.2260 C   0  0  2  0  0  3  0  0  0  0  0  0
  185.8610  179.0290  143.1970 C   0  0  2  0  0  3  0  0  0  0  0  0
  185.1130  177.8350  145.4250 C   0  0  2  0  0  3  0  0  0  0  0  0
  184.9070  178.9560  144.3930 C   0  0  2  0  0  0  0  0  0  0  0  0
  185.2040  178.4400  146.8140 C   0  0  0  0  0  2  0  0  0  0  0  0
  187.5800  177.9160  144.6470 C   0  0  1  0  0  3  0  0  0  0  0  0
  186.5370  177.2920  145.5790 C   0  0  1  0  0  3  0  0  0  0  0  0
  184.5400  178.2940  143.0790 C   0  0  1  0  0  3  0  0  0  0  0  0
  188.0690  178.5200  142.2470 C   0  0  0  0  0  1  0  0  0  0  0  0
  186.6200  177.9060  146.9640 C   0  0  0  0  0  2  0  0  0  0  0  0
  183.4760  178.9950  143.9000 C   0  0  0  0  0  2  0  0  0  0  0  0
  190.2360  172.1200  141.8830 C   0  0  1  0  0  3  0  0  0  0  0  0
  192.0760  171.0810  143.5990 S   0  0  0  0  0  0  0  0  0  0  0  0
  191.4390  173.0380  141.8310 C   0  0  0  0  0  2  0  0  0  0  0  0
  190.7480  170.7850  142.3920 C   0  0  0  0  0  2  0  0  0  0  0  0
  192.2540  172.8160  143.0930 C   0  0  2  0  0  3  0  0  0  0  0  0
  194.2450  176.2680  144.6400 C   0  0  0  0  0  2  0  0  0  0  0  0
  197.7780  175.2840  143.3330 C   0  0  0  0  0  2  0  0  0  0  0  0
  195.6330  174.5090  142.7630 C   0  0  1  0  0  3  0  0  0  0  0  0
  196.4670  172.2810  143.0530 O   0  0  0  0  0  1  0  0  0  0  0  0
  193.6470  173.1050  142.8470 N   0  0  0  0  0  0  0  0  0  0  0  0
  193.4220  175.4270  143.6410 C   0  0  0  0  0  2  0  0  0  0  0  0
  195.6900  176.5250  144.1660 C   0  0  0  0  0  2  0  0  0  0  0  0
  197.9410  174.0490  142.4300 C   0  0  0  0  0  2  0  0  0  0  0  0
  196.5570  173.4220  142.2520 C   0  0  2  0  0  3  0  0  0  0  0  0
  194.2020  174.2370  143.1260 C   0  0  0  0  0  0  0  0  0  0  0  0
  196.3830  174.4030  145.0420 O   0  0  0  0  0  1  0  0  0  0  0  0
  196.3720  175.1900  143.8830 C   0  0  2  0  0  0  0  0  0  0  0  0
  1  3  1  0  0  0  0
  1  4  2  0  0  0  0
  2  1  1  0  0  0  0
  4  7  2  0  0  0  0
  5  6  1  6  0  0  0
  5  3  1  0  0  0  0
  6  2  1  0  0  0  0
  8 16  1  6  0  0  0
  8 13  1  0  0  0  0
  9  8  1  0  0  0  0
  9 11  1  0  0  0  0
 10 14  1  0  0  0  0
 10 12  1  0  0  0  0
 11 10  1  0  0  0  0
 12 17  1  0  0  0  0
 13  7  1  0  0  0  0
 13 14  1  0  0  0  0
 14 17  1  0  0  0  0
 15  9  1  0  0  0  0
 15 18  1  0  0  0  0
 15 11  1  0  0  0  0
 18 11  1  0  0  0  0
 19 22  1  0  0  0  0
 19  5  1  0  0  0  0
 21 19  1  0  0  0  0
 21 23  1  0  0  0  0
 22 20  1  0  0  0  0
 23 20  1  0  0  0  0
 25 35  1  0  0  0  0
 26 33  1  0  0  0  0
 26 35  1  0  0  0  0
 28 23  1  0  0  0  0
 28 33  2  0  0  0  0
 29 24  1  0  0  0  0
 30 24  1  0  0  0  0
 31 25  1  0  0  0  0
 32 31  1  0  0  0  0
 32 26  1  0  0  0  0
 32 27  1  0  0  0  0
 33 29  1  0  0  0  0
 35 30  1  0  0  0  0
 35 34  1  0  0  0  0
M  END
>  <MODEL>
4

>  <REMARK>
 VINA RESULT:      -8.5      2.137      2.927
  Name = 
  3 active torsions:
  status: ('A' for Active; 'I' for Inactive)
    1  A    between atoms: C_4  and  C_22
    2  A    between atoms: N_9  and  C_29
    3  A    between atoms: C_16  and  C_35
                            x       y       z     vdW  Elec       q    Type
                         _______ _______ _______ _____ _____    ______ ____

>  <TORSDO>
F 3

$$$$
=
 OpenBabel11042416553D

 35 42  0  0  1  0  0  0  0  0999 V2000
  190.7830  175.5860  145.1360 C   0  0  0  0  0  0  0  0  0  0  0  0
  190.9430  175.8100  146.5890 C   0  0  0  0  0  2  0  0  0  0  0  0
  192.0700  175.6580  144.4080 C   0  0  0  0  0  2  0  0  0  0  0  0
  189.6730  175.9160  144.5410 C   0  0  0  0  0  0  0  0  0  0  0  0
  193.1280  175.8680  145.4850 C   0  0  1  0  0  3  0  0  0  0  0  0
  192.3700  176.3030  146.7380 C   0  0  0  0  0  2  0  0  0  0  0  0
  188.5540  176.2630  143.9590 C   0  0  0  0  0  3  0  0  0  0  0  0
  186.6690  177.9150  143.6090 C   0  0  2  0  0  3  0  0  0  0  0  0
  185.8530  178.9980  144.3070 C   0  0  2  0  0  3  0  0  0  0  0  0
  185.5010  177.1660  146.1710 C   0  0  2  0  0  3  0  0  0  0  0  0
  185.3000  178.6100  145.6820 C   0  0  2  0  0  0  0  0  0  0  0  0
  186.1410  177.1850  147.5470 C   0  0  0  0  0  2  0  0  0  0  0  0
  187.5730  177.1970  144.6200 C   0  0  1  0  0  3  0  0  0  0  0  0
  186.7200  176.4170  145.6250 C   0  0  1  0  0  3  0  0  0  0  0  0
  184.4130  178.5490  144.4540 C   0  0  1  0  0  3  0  0  0  0  0  0
  187.4850  178.5880  142.5170 C   0  0  0  0  0  1  0  0  0  0  0  0
  187.3540  176.4470  147.0030 C   0  0  0  0  0  2  0  0  0  0  0  0
  183.8480  179.0270  145.7770 C   0  0  0  0  0  2  0  0  0  0  0  0
  193.9060  174.5730  145.7570 C   0  0  1  0  0  3  0  0  0  0  0  0
  196.3390  175.0100  144.6160 S   0  0  0  0  0  0  0  0  0  0  0  0
  193.9720  173.6840  144.5330 C   0  0  0  0  0  2  0  0  0  0  0  0
  195.3450  174.8780  146.1330 C   0  0  0  0  0  2  0  0  0  0  0  0
  195.0390  174.2400  143.6070 C   0  0  2  0  0  3  0  0  0  0  0  0
  195.3840  174.4240  139.3500 C   0  0  0  0  0  2  0  0  0  0  0  0
  197.3330  171.0730  138.9830 C   0  0  0  0  0  2  0  0  0  0  0  0
  196.0700  171.9560  140.7580 C   0  0  1  0  0  3  0  0  0  0  0  0
  197.9180  171.4540  142.1970 O   0  0  0  0  0  1  0  0  0  0  0  0
  195.6130  173.1800  142.8100 N   0  0  0  0  0  0  0  0  0  0  0  0
  194.7260  174.1230  140.7130 C   0  0  0  0  0  2  0  0  0  0  0  0
  195.8730  173.1540  138.6230 C   0  0  0  0  0  2  0  0  0  0  0  0
  197.5520  170.1790  140.2160 C   0  0  0  0  0  2  0  0  0  0  0  0
  196.9130  170.8820  141.4150 C   0  0  2  0  0  3  0  0  0  0  0  0
  195.5320  173.1300  141.5230 C   0  0  0  0  0  0  0  0  0  0  0  0
  197.9220  173.1980  139.8680 O   0  0  0  0  0  1  0  0  0  0  0  0
  196.8290  172.3890  139.5330 C   0  0  2  0  0  0  0  0  0  0  0  0
  1  2  1  0  0  0  0
  2  6  1  0  0  0  0
  3  1  1  0  0  0  0
  4  1  2  0  0  0  0
  5  3  1  6  0  0  0
  5 19  1  0  0  0  0
  5  6  1  0  0  0  0
  7  4  2  0  0  0  0
  7 13  1  0  0  0  0
  8 16  1  6  0  0  0
  8  9  1  0  0  0  0
  8 13  1  0  0  0  0
  9 15  1  0  0  0  0
  9 11  1  0  0  0  0
 10 12  1  0  0  0  0
 11 18  1  0  0  0  0
 11 10  1  0  0  0  0
 13 14  1  0  0  0  0
 14 10  1  0  0  0  0
 14 17  1  0  0  0  0
 15 11  1  0  0  0  0
 15 18  1  0  0  0  0
 17 12  1  0  0  0  0
 19 22  1  0  0  0  0
 20 22  1  0  0  0  0
 21 19  1  0  0  0  0
 23 21  1  0  0  0  0
 23 20  1  0  0  0  0
 24 29  1  0  0  0  0
 25 35  1  0  0  0  0
 25 31  1  0  0  0  0
 26 32  1  0  0  0  0
 26 33  1  0  0  0  0
 28 23  1  0  0  0  0
 29 33  1  0  0  0  0
 30 24  1  0  0  0  0
 30 35  1  0  0  0  0
 31 32  1  0  0  0  0
 32 27  1  0  0  0  0
 33 28  2  0  0  0  0
 35 34  1  0  0  0  0
 35 26  1  0  0  0  0
M  END
>  <MODEL>
5

>  <REMARK>
 VINA RESULT:      -8.4      2.697      4.156
  Name = 
  3 active torsions:
  status: ('A' for Active; 'I' for Inactive)
    1  A    between atoms: C_4  and  C_22
    2  A    between atoms: N_9  and  C_29
    3  A    between atoms: C_16  and  C_35
                            x       y       z     vdW  Elec       q    Type
                         _______ _______ _______ _____ _____    ______ ____

>  <TORSDO>
F 3

$$$$
=
 OpenBabel11042416553D

 35 42  0  0  1  0  0  0  0  0999 V2000
  190.8010  175.9680  144.5300 C   0  0  0  0  0  0  0  0  0  0  0  0
  191.1280  176.1660  145.9590 C   0  0  0  0  0  2  0  0  0  0  0  0
  191.9740  176.1640  143.6490 C   0  0  0  0  0  2  0  0  0  0  0  0
  189.6010  176.2210  144.0920 C   0  0  0  0  0  0  0  0  0  0  0  0
  193.1420  176.4320  144.5910 C   0  0  1  0  0  3  0  0  0  0  0  0
  192.5200  176.7700  145.9450 C   0  0  0  0  0  2  0  0  0  0  0  0
  188.3930  176.4910  143.6690 C   0  0  0  0  0  3  0  0  0  0  0  0
  186.3920  178.0390  143.6140 C   0  0  2  0  0  3  0  0  0  0  0  0
  185.5940  179.0280  144.4560 C   0  0  2  0  0  3  0  0  0  0  0  0
  185.5420  177.0770  146.2290 C   0  0  2  0  0  3  0  0  0  0  0  0
  185.2100  178.5300  145.8540 C   0  0  2  0  0  0  0  0  0  0  0  0
  186.3190  177.0580  147.5320 C   0  0  0  0  0  2  0  0  0  0  0  0
  187.4350  177.3230  144.4820 C   0  0  1  0  0  3  0  0  0  0  0  0
  186.7370  176.4360  145.5180 C   0  0  1  0  0  3  0  0  0  0  0  0
  184.2040  178.4840  144.7190 C   0  0  1  0  0  3  0  0  0  0  0  0
  187.0510  178.8220  142.4900 C   0  0  0  0  0  1  0  0  0  0  0  0
  187.5080  176.4280  146.8250 C   0  0  0  0  0  2  0  0  0  0  0  0
  183.7550  178.8500  146.1200 C   0  0  0  0  0  2  0  0  0  0  0  0
  194.0470  175.1980  144.7150 C   0  0  1  0  0  3  0  0  0  0  0  0
  196.3060  175.8960  143.3640 S   0  0  0  0  0  0  0  0  0  0  0  0
  194.0600  174.3740  143.4440 C   0  0  0  0  0  2  0  0  0  0  0  0
  195.4870  175.6100  144.9630 C   0  0  0  0  0  2  0  0  0  0  0  0
  194.9770  175.0620  142.4480 C   0  0  2  0  0  3  0  0  0  0  0  0
  194.5990  175.3050  138.1970 C   0  0  0  0  0  2  0  0  0  0  0  0
  196.8930  172.2520  137.4380 C   0  0  0  0  0  2  0  0  0  0  0  0
  195.8270  172.9490  139.4140 C   0  0  1  0  0  3  0  0  0  0  0  0
  197.9350  172.6980  140.5250 O   0  0  0  0  0  1  0  0  0  0  0  0
  195.5500  174.0920  141.5440 N   0  0  0  0  0  0  0  0  0  0  0  0
  194.2170  174.9140  139.6400 C   0  0  0  0  0  2  0  0  0  0  0  0
  195.1280  174.1160  137.3690 C   0  0  0  0  0  2  0  0  0  0  0  0
  197.4260  171.3920  138.5970 C   0  0  0  0  0  2  0  0  0  0  0  0
  196.9010  171.9970  139.9000 C   0  0  2  0  0  3  0  0  0  0  0  0
  195.2690  174.0360  140.2850 C   0  0  0  0  0  0  0  0  0  0  0  0
  197.3270  174.4350  138.2710 O   0  0  0  0  0  1  0  0  0  0  0  0
  196.3120  173.4850  138.0950 C   0  0  2  0  0  0  0  0  0  0  0  0
  1  2  1  0  0  0  0
  3  1  1  0  0  0  0
  4  1  2  0  0  0  0
  5  3  1  6  0  0  0
  5 19  1  0  0  0  0
  5  6  1  0  0  0  0
  6  2  1  0  0  0  0
  7  4  2  0  0  0  0
  7 13  1  0  0  0  0
  8 16  1  6  0  0  0
  8  9  1  0  0  0  0
  8 13  1  0  0  0  0
  9 15  1  0  0  0  0
  9 11  1  0  0  0  0
 10 12  1  0  0  0  0
 11 18  1  0  0  0  0
 11 10  1  0  0  0  0
 13 14  1  0  0  0  0
 14 10  1  0  0  0  0
 14 17  1  0  0  0  0
 15 11  1  0  0  0  0
 15 18  1  0  0  0  0
 17 12  1  0  0  0  0
 19 22  1  0  0  0  0
 20 22  1  0  0  0  0
 21 19  1  0  0  0  0
 23 20  1  0  0  0  0
 23 21  1  0  0  0  0
 24 29  1  0  0  0  0
 25 35  1  0  0  0  0
 25 31  1  0  0  0  0
 26 32  1  0  0  0  0
 26 33  1  0  0  0  0
 28 23  1  0  0  0  0
 29 33  1  0  0  0  0
 30 35  1  0  0  0  0
 30 24  1  0  0  0  0
 31 32  1  0  0  0  0
 32 27  1  0  0  0  0
 33 28  2  0  0  0  0
 35 34  1  0  0  0  0
 35 26  1  0  0  0  0
M  END
>  <MODEL>
6

>  <REMARK>
 VINA RESULT:      -8.4      2.485      3.903
  Name = 
  3 active torsions:
  status: ('A' for Active; 'I' for Inactive)
    1  A    between atoms: C_4  and  C_22
    2  A    between atoms: N_9  and  C_29
    3  A    between atoms: C_16  and  C_35
                            x       y       z     vdW  Elec       q    Type
                         _______ _______ _______ _____ _____    ______ ____

>  <TORSDO>
F 3

$$$$
=
 OpenBabel11042416553D

 35 42  0  0  1  0  0  0  0  0999 V2000
  193.0380  175.3980  143.3410 C   0  0  0  0  0  0  0  0  0  0  0  0
  194.2010  175.4780  144.2510 C   0  0  0  0  0  2  0  0  0  0  0  0
  191.8220  174.8950  144.0210 C   0  0  0  0  0  2  0  0  0  0  0  0
  193.2150  175.1840  142.0690 C   0  0  0  0  0  0  0  0  0  0  0  0
  192.2250  174.7150  145.4790 C   0  0  1  0  0  3  0  0  0  0  0  0
  193.7520  174.7420  145.4990 C   0  0  0  0  0  2  0  0  0  0  0  0
  193.4120  174.9580  140.7950 C   0  0  0  0  0  3  0  0  0  0  0  0
  194.5440  173.4420  139.1150 C   0  0  2  0  0  3  0  0  0  0  0  0
  195.8720  172.7740  138.7780 C   0  0  2  0  0  3  0  0  0  0  0  0
  196.8650  175.2020  139.0490 C   0  0  2  0  0  3  0  0  0  0  0  0
  197.0920  173.7010  138.8110 C   0  0  2  0  0  0  0  0  0  0  0  0
  197.7360  175.6670  140.2010 C   0  0  0  0  0  2  0  0  0  0  0  0
  194.7240  174.4250  140.2790 C   0  0  1  0  0  3  0  0  0  0  0  0
  195.6170  175.5920  139.8470 C   0  0  1  0  0  3  0  0  0  0  0  0
  196.4320  173.3490  137.4920 C   0  0  1  0  0  3  0  0  0  0  0  0
  193.5540  172.3430  139.4670 C   0  0  0  0  0  1  0  0  0  0  0  0
  196.4970  176.0480  140.9960 C   0  0  0  0  0  2  0  0  0  0  0  0
  197.9410  173.4600  137.5800 C   0  0  0  0  0  2  0  0  0  0  0  0
  191.6610  175.8440  146.3530 C   0  0  1  0  0  3  0  0  0  0  0  0
  189.3240  174.8320  147.3160 S   0  0  0  0  0  0  0  0  0  0  0  0
  190.5470  176.5970  145.6560 C   0  0  0  0  0  2  0  0  0  0  0  0
  191.0570  175.2870  147.6290 C   0  0  0  0  0  2  0  0  0  0  0  0
  189.2820  175.7620  145.7570 C   0  0  2  0  0  3  0  0  0  0  0  0
  187.8230  177.6610  142.2160 C   0  0  0  0  0  2  0  0  0  0  0  0
  184.6470  179.1760  143.8800 C   0  0  0  0  0  2  0  0  0  0  0  0
  186.6180  178.2900  144.8030 C   0  0  1  0  0  3  0  0  0  0  0  0
  185.2350  176.9560  146.2340 O   0  0  0  0  0  1  0  0  0  0  0  0
  188.1160  176.6150  145.7360 N   0  0  0  0  0  0  0  0  0  0  0  0
  188.6630  177.4970  143.5000 C   0  0  0  0  0  2  0  0  0  0  0  0
  186.6640  178.6660  142.3760 C   0  0  0  0  0  2  0  0  0  0  0  0
  184.4450  179.0460  145.4000 C   0  0  0  0  0  2  0  0  0  0  0  0
  185.6370  178.2650  145.9570 C   0  0  2  0  0  3  0  0  0  0  0  0
  187.7910  177.3560  144.7310 C   0  0  0  0  0  0  0  0  0  0  0  0
  185.2780  176.9540  143.3250 O   0  0  0  0  0  1  0  0  0  0  0  0
  185.7880  178.2400  143.5490 C   0  0  2  0  0  0  0  0  0  0  0  0
  1  3  1  0  0  0  0
  1  2  1  0  0  0  0
  2  6  1  0  0  0  0
  4  1  2  0  0  0  0
  5  3  1  6  0  0  0
  5  6  1  0  0  0  0
  5 19  1  0  0  0  0
  7  4  2  0  0  0  0
  8 16  1  1  0  0  0
  8 13  1  0  0  0  0
  9 11  1  0  0  0  0
  9  8  1  0  0  0  0
 10 14  1  0  0  0  0
 10 12  1  0  0  0  0
 11 10  1  0  0  0  0
 12 17  1  0  0  0  0
 13  7  1  0  0  0  0
 14 13  1  0  0  0  0
 14 17  1  0  0  0  0
 15 18  1  0  0  0  0
 15  9  1  0  0  0  0
 15 11  1  0  0  0  0
 18 11  1  0  0  0  0
 19 22  1  0  0  0  0
 20 22  1  0  0  0  0
 21 23  1  0  0  0  0
 21 19  1  0  0  0  0
 23 20  1  0  0  0  0
 24 30  1  0  0  0  0
 24 29  1  0  0  0  0
 25 31  1  0  0  0  0
 26 32  1  0  0  0  0
 28 23  1  0  0  0  0
 29 33  1  0  0  0  0
 30 35  1  0  0  0  0
 31 32  1  0  0  0  0
 32 27  1  0  0  0  0
 33 26  1  0  0  0  0
 33 28  2  0  0  0  0
 34 35  1  0  0  0  0
 35 25  1  0  0  0  0
 35 26  1  0  0  0  0
M  END
>  <MODEL>
7

>  <REMARK>
 VINA RESULT:      -8.2      4.092     10.558
  Name = 
  3 active torsions:
  status: ('A' for Active; 'I' for Inactive)
    1  A    between atoms: C_4  and  C_22
    2  A    between atoms: N_9  and  C_29
    3  A    between atoms: C_16  and  C_35
                            x       y       z     vdW  Elec       q    Type
                         _______ _______ _______ _____ _____    ______ ____

>  <TORSDO>
F 3

$$$$
=
 OpenBabel11042416553D

 35 42  0  0  1  0  0  0  0  0999 V2000
  188.9520  176.7750  144.0110 C   0  0  0  0  0  0  0  0  0  0  0  0
  188.1000  176.5500  145.1980 C   0  0  0  0  0  2  0  0  0  0  0  0
  190.3290  177.1830  144.3730 C   0  0  0  0  0  2  0  0  0  0  0  0
  188.4230  177.1750  142.8910 C   0  0  0  0  0  0  0  0  0  0  0  0
  190.3710  177.1410  145.8970 C   0  0  1  0  0  3  0  0  0  0  0  0
  188.9140  177.0950  146.3550 C   0  0  0  0  0  2  0  0  0  0  0  0
  187.8740  177.5860  141.7760 C   0  0  0  0  0  3  0  0  0  0  0  0
  185.6140  177.5760  140.6370 C   0  0  2  0  0  3  0  0  0  0  0  0
  184.3100  178.3550  140.5130 C   0  0  2  0  0  3  0  0  0  0  0  0
  184.3150  178.2780  143.1490 C   0  0  2  0  0  3  0  0  0  0  0  0
  183.6730  178.7720  141.8430 C   0  0  2  0  0  0  0  0  0  0  0  0
  184.5840  179.4630  144.0580 C   0  0  0  0  0  2  0  0  0  0  0  0
  186.4880  178.1770  141.7460 C   0  0  1  0  0  3  0  0  0  0  0  0
  185.8170  177.9790  143.1090 C   0  0  1  0  0  3  0  0  0  0  0  0
  183.1660  177.5510  141.1000 C   0  0  1  0  0  3  0  0  0  0  0  0
  186.3130  177.6350  139.2890 C   0  0  0  0  0  1  0  0  0  0  0  0
  186.0760  179.1700  144.0130 C   0  0  0  0  0  2  0  0  0  0  0  0
  182.1890  178.4690  141.8080 C   0  0  0  0  0  2  0  0  0  0  0  0
  191.1240  175.8990  146.3940 C   0  0  1  0  0  3  0  0  0  0  0  0
  193.6430  176.8060  146.8860 S   0  0  0  0  0  0  0  0  0  0  0  0
  192.0120  175.3060  145.3200 C   0  0  0  0  0  2  0  0  0  0  0  0
  192.0430  176.2540  147.5500 C   0  0  0  0  0  2  0  0  0  0  0  0
  193.2710  176.1490  145.2340 C   0  0  2  0  0  3  0  0  0  0  0  0
  195.0860  176.6330  141.3930 C   0  0  0  0  0  2  0  0  0  0  0  0
  197.9230  174.0330  141.9850 C   0  0  0  0  0  2  0  0  0  0  0  0
  195.8960  174.4140  143.1150 C   0  0  1  0  0  3  0  0  0  0  0  0
  197.1470  174.4140  145.1580 O   0  0  0  0  0  1  0  0  0  0  0  0
  194.3810  175.3470  144.7740 N   0  0  0  0  0  0  0  0  0  0  0  0
  194.0920  176.0850  142.4400 C   0  0  0  0  0  2  0  0  0  0  0  0
  196.1560  175.6020  140.9800 C   0  0  0  0  0  2  0  0  0  0  0  0
  197.9250  173.1850  143.2700 C   0  0  0  0  0  2  0  0  0  0  0  0
  196.7140  173.6080  144.1030 C   0  0  2  0  0  3  0  0  0  0  0  0
  194.7970  175.3370  143.5520 C   0  0  0  0  0  0  0  0  0  0  0  0
  197.4940  176.1910  142.8810 O   0  0  0  0  0  1  0  0  0  0  0  0
  196.8890  175.1120  142.2250 C   0  0  2  0  0  0  0  0  0  0  0  0
  1  3  1  0  0  0  0
  1  2  1  0  0  0  0
  2  6  1  0  0  0  0
  4  1  2  0  0  0  0
  5  3  1  6  0  0  0
  5  6  1  0  0  0  0
  5 19  1  0  0  0  0
  7  4  2  0  0  0  0
  8 16  1  6  0  0  0
  8 13  1  0  0  0  0
  9  8  1  0  0  0  0
  9 15  1  0  0  0  0
  9 11  1  0  0  0  0
 10 12  1  0  0  0  0
 11 10  1  0  0  0  0
 13  7  1  0  0  0  0
 13 14  1  0  0  0  0
 14 10  1  0  0  0  0
 14 17  1  0  0  0  0
 15 18  1  0  0  0  0
 15 11  1  0  0  0  0
 17 12  1  0  0  0  0
 18 11  1  0  0  0  0
 19 22  1  0  0  0  0
 20 22  1  0  0  0  0
 21 19  1  0  0  0  0
 23 21  1  0  0  0  0
 23 20  1  0  0  0  0
 24 29  1  0  0  0  0
 25 35  1  0  0  0  0
 25 31  1  0  0  0  0
 26 33  1  0  0  0  0
 26 32  1  0  0  0  0
 28 23  1  0  0  0  0
 29 33  1  0  0  0  0
 30 24  1  0  0  0  0
 30 35  1  0  0  0  0
 31 32  1  0  0  0  0
 32 27  1  0  0  0  0
 33 28  2  0  0  0  0
 35 34  1  0  0  0  0
 35 26  1  0  0  0  0
M  END
>  <MODEL>
8

>  <REMARK>
 VINA RESULT:      -8.2      3.351      4.914
  Name = 
  3 active torsions:
  status: ('A' for Active; 'I' for Inactive)
    1  A    between atoms: C_4  and  C_22
    2  A    between atoms: N_9  and  C_29
    3  A    between atoms: C_16  and  C_35
                            x       y       z     vdW  Elec       q    Type
                         _______ _______ _______ _____ _____    ______ ____

>  <TORSDO>
F 3

$$$$
=
 OpenBabel11042416553D

 35 42  0  0  1  0  0  0  0  0999 V2000
  194.5720  174.6060  145.8600 C   0  0  0  0  0  0  0  0  0  0  0  0
  193.5460  174.3730  144.8220 C   0  0  0  0  0  2  0  0  0  0  0  0
  194.2830  175.8050  146.6810 C   0  0  0  0  0  2  0  0  0  0  0  0
  195.8020  174.2280  145.6630 C   0  0  0  0  0  0  0  0  0  0  0  0
  192.9420  176.3220  146.1750 C   0  0  1  0  0  3  0  0  0  0  0  0
  192.7090  175.6390  144.8290 C   0  0  0  0  0  2  0  0  0  0  0  0
  197.0340  173.8480  145.4420 C   0  0  0  0  0  3  0  0  0  0  0  0
  197.2380  172.0610  143.6620 C   0  0  2  0  0  3  0  0  0  0  0  0
  197.9410  171.7210  142.3530 C   0  0  2  0  0  3  0  0  0  0  0  0
  197.0710  174.0850  141.5720 C   0  0  2  0  0  3  0  0  0  0  0  0
  197.8990  172.8210  141.2870 C   0  0  2  0  0  0  0  0  0  0  0  0
  197.9390  175.3130  141.3690 C   0  0  0  0  0  2  0  0  0  0  0  0
  197.5250  173.5160  144.0560 C   0  0  1  0  0  3  0  0  0  0  0  0
  196.8860  174.4700  143.0440 C   0  0  1  0  0  3  0  0  0  0  0  0
  196.9320  171.6550  141.2230 C   0  0  1  0  0  3  0  0  0  0  0  0
  197.7430  171.0910  144.7180 C   0  0  0  0  0  1  0  0  0  0  0  0
  197.7610  175.6920  142.8310 C   0  0  0  0  0  2  0  0  0  0  0  0
  197.5350  172.2140  139.9490 C   0  0  0  0  0  2  0  0  0  0  0  0
  191.8100  175.9740  147.1520 C   0  0  1  0  0  3  0  0  0  0  0  0
  189.7280  175.2890  145.5380 S   0  0  0  0  0  0  0  0  0  0  0  0
  190.7940  177.0910  147.2650 C   0  0  0  0  0  2  0  0  0  0  0  0
  191.0430  174.7540  146.6750 C   0  0  0  0  0  2  0  0  0  0  0  0
  189.8880  177.0250  146.0480 C   0  0  2  0  0  3  0  0  0  0  0  0
  186.7620  177.4580  143.1650 C   0  0  0  0  0  2  0  0  0  0  0  0
  184.0630  178.6420  145.7080 C   0  0  0  0  0  2  0  0  0  0  0  0
  186.4050  178.5170  145.8650 C   0  0  1  0  0  3  0  0  0  0  0  0
  186.1080  177.3770  147.9510 O   0  0  0  0  0  1  0  0  0  0  0  0
  188.5830  177.5560  146.3660 N   0  0  0  0  0  0  0  0  0  0  0  0
  188.0030  177.8580  143.9900 C   0  0  0  0  0  2  0  0  0  0  0  0
  185.4770  178.1830  143.6150 C   0  0  0  0  0  2  0  0  0  0  0  0
  184.4580  178.9110  147.1700 C   0  0  0  0  0  2  0  0  0  0  0  0
  185.9510  178.6070  147.3080 C   0  0  2  0  0  3  0  0  0  0  0  0
  187.7100  177.8860  145.4750 C   0  0  0  0  0  0  0  0  0  0  0  0
  185.1300  176.5520  145.3380 O   0  0  0  0  0  1  0  0  0  0  0  0
  185.2500  177.9270  145.1010 C   0  0  2  0  0  0  0  0  0  0  0  0
  1  3  1  0  0  0  0
  2  6  1  0  0  0  0
  2  1  1  0  0  0  0
  4  1  2  0  0  0  0
  5  6  1  6  0  0  0
  5  3  1  0  0  0  0
  5 19  1  0  0  0  0
  7  4  2  0  0  0  0
  8 13  1  0  0  0  0
  8 16  1  1  0  0  0
  9  8  1  0  0  0  0
 10 14  1  0  0  0  0
 11 10  1  0  0  0  0
 11  9  1  0  0  0  0
 12 10  1  0  0  0  0
 12 17  1  0  0  0  0
 13  7  1  0  0  0  0
 14 13  1  0  0  0  0
 15 11  1  0  0  0  0
 15  9  1  0  0  0  0
 17 14  1  0  0  0  0
 18 15  1  0  0  0  0
 18 11  1  0  0  0  0
 19 21  1  0  0  0  0
 20 23  1  0  0  0  0
 20 22  1  0  0  0  0
 22 19  1  0  0  0  0
 23 28  1  0  0  0  0
 23 21  1  0  0  0  0
 24 30  1  0  0  0  0
 24 29  1  0  0  0  0
 25 31  1  0  0  0  0
 26 32  1  0  0  0  0
 29 33  1  0  0  0  0
 30 35  1  0  0  0  0
 31 32  1  0  0  0  0
 32 27  1  0  0  0  0
 33 26  1  0  0  0  0
 33 28  2  0  0  0  0
 35 34  1  0  0  0  0
 35 25  1  0  0  0  0
 35 26  1  0  0  0  0
M  END
>  <MODEL>
9

>  <REMARK>
 VINA RESULT:      -8.2      4.726     11.074
  Name = 
  3 active torsions:
  status: ('A' for Active; 'I' for Inactive)
    1  A    between atoms: C_4  and  C_22
    2  A    between atoms: N_9  and  C_29
    3  A    between atoms: C_16  and  C_35
                            x       y       z     vdW  Elec       q    Type
                         _______ _______ _______ _____ _____    ______ ____

>  <TORSDO>
F 3

$$$$
