=
 OpenBabel11042414323D

 64 69  0  0  1  0  0  0  0  0999 V2000
  186.7490  177.6350  142.3360 C   0  0  0  0  0  3  0  0  0  0  0  0
  185.0920  178.4530  144.0390 C   0  0  0  0  0  0  0  0  0  0  0  0
  188.7210  174.3480  139.9790 C   0  0  0  0  0  3  0  0  0  0  0  0
  187.2310  176.2600  144.3240 C   0  0  0  0  0  0  0  0  0  0  0  0
  190.6190  173.5800  142.0340 C   0  0  0  0  0  3  0  0  0  0  0  0
  190.7710  173.1520  140.6920 C   0  0  0  0  0  3  0  0  0  0  0  0
  187.8600  175.4610  142.3170 C   0  0  0  0  0  0  0  0  0  0  0  0
  188.4900  175.5660  144.5360 N   0  0  0  0  0  0  0  0  0  0  0  0
  185.9860  178.5940  142.8610 C   0  0  0  0  0  3  0  0  0  0  0  0
  188.6230  174.7340  141.3010 C   0  0  0  0  0  0  0  0  0  0  0  0
  186.5830  176.8810  145.3060 C   0  0  0  0  0  3  0  0  0  0  0  0
  188.7200  175.1320  143.2240 C   0  0  0  0  0  0  0  0  0  0  0  0
  189.5100  174.3750  142.2600 C   0  0  0  0  0  0  0  0  0  0  0  0
  189.8410  173.5230  139.6740 C   0  0  0  0  0  0  0  0  0  0  0  0
  185.3670  177.7120  145.1480 C   0  0  0  0  0  0  0  0  0  0  0  0
  183.9170  179.1920  143.9810 O   0  0  0  0  0  1  0  0  0  0  0  0
  186.7420  176.2460  142.8680 C   0  0  2  0  0  3  0  0  0  0  0  0
  188.9210  174.8970  145.7610 C   0  0  0  0  0  2  0  0  0  0  0  0
  190.3720  175.2350  146.0720 C   0  0  0  0  0  2  0  0  0  0  0  0
  192.0950  175.9530  144.4990 C   0  0  0  0  0  3  0  0  0  0  0  0
  190.9090  176.1860  145.0580 C   0  0  0  0  0  3  0  0  0  0  0  0
  192.6740  176.8870  143.4820 C   0  0  2  0  0  3  0  0  0  0  0  0
  191.6410  177.9250  143.0750 C   0  0  0  0  0  1  0  0  0  0  0  0
  193.0630  176.1560  142.3550 O   0  0  0  0  0  0  0  0  0  0  0  0
  194.1700  175.3970  142.7670 C   0  0  1  0  0  3  0  0  0  0  0  0
  195.0750  175.6100  140.2990 C   0  0  2  0  0  3  0  0  0  0  0  0
  195.8250  173.7830  141.8010 O   0  0  0  0  0  1  0  0  0  0  0  0
  194.9430  174.8400  141.5680 C   0  0  1  0  0  0  0  0  0  0  0  0
  194.1200  174.5820  140.4560 O   0  0  0  0  0  0  0  0  0  0  0  0
  196.2160  175.1150  139.4220 C   0  0  0  0  0  2  0  0  0  0  0  0
  195.7010  174.6460  138.2040 O   0  0  0  0  0  0  0  0  0  0  0  0
  196.7900  174.6210  137.3240 C   0  0  0  0  0  2  0  0  0  0  0  0
  197.0910  173.2000  136.8650 C   0  0  0  0  0  2  0  0  0  0  0  0
  195.9770  172.6600  136.1090 N   0  0  0  0  0  2  0  0  0  0  0  0
  196.3150  171.2790  135.8280 C   0  0  0  0  0  2  0  0  0  0  0  0
  195.0500  170.4500  135.6370 C   0  0  0  0  0  2  0  0  0  0  0  0
  195.3680  169.0440  135.2270 C   0  0  0  0  0  0  0  0  0  0  0  0
  196.5780  168.4570  135.5870 O   0  0  0  0  0  1  0  0  0  0  0  0
  194.5540  168.4010  134.5130 O   0  0  0  0  0  0  0  0  0  0  0  0
  195.0690  176.2200  143.6890 C   0  0  0  0  0  2  0  0  0  0  0  0
  195.3290  175.5640  145.9730 O   0  0  0  0  0  1  0  0  0  0  0  0
  195.8020  175.3290  144.6810 C   0  0  0  0  0  2  0  0  0  0  0  0
  184.5260  177.7140  146.2750 O   0  0  0  0  0  0  0  0  0  0  0  0
  184.7460  178.4580  147.4700 C   0  0  0  0  0  2  0  0  0  0  0  0
  186.2460  180.0010  148.4930 O   0  0  0  0  0  1  0  0  0  0  0  0
  185.9220  179.3990  147.2780 C   0  0  0  0  0  2  0  0  0  0  0  0
  190.0620  173.0550  138.3390 N   0  0  0  0  0  2  0  0  0  0  0  0
  191.3830  172.8960  137.7490 C   0  0  0  0  0  2  0  0  0  0  0  0
  191.3000  172.0270  135.4130 C   0  0  0  0  0  3  0  0  0  0  0  0
  191.3860  171.7580  136.7830 C   0  0  0  0  0  0  0  0  0  0  0  0
  191.3910  169.7110  134.9090 C   0  0  0  0  0  3  0  0  0  0  0  0
  191.4780  170.4250  137.2210 C   0  0  0  0  0  0  0  0  0  0  0  0
  191.4800  169.3970  136.2670 C   0  0  0  0  0  3  0  0  0  0  0  0
  191.3030  171.0090  134.5140 N   0  0  0  0  0  0  0  0  0  0  0  0
  192.5810  169.4170  139.3100 C   0  0  0  0  0  0  0  0  0  0  0  0
  193.6580  169.1280  138.7210 O   0  0  0  0  0  0  0  0  0  0  0  0
  191.5420  170.1390  138.6260 N   0  0  0  0  0  2  0  0  0  0  0  0
  191.0780  169.0840  141.2660 C   0  0  0  0  0  1  0  0  0  0  0  0
  192.4110  169.0540  140.6850 N   0  0  0  0  0  0  0  0  0  0  0  0
  193.4170  168.4120  141.3490 O   0  0  0  0  0  0  0  0  0  0  0  0
  193.8240  169.0660  143.6810 C   0  0  0  0  0  1  0  0  0  0  0  0
  193.5400  170.7150  141.8890 C   0  0  0  0  0  1  0  0  0  0  0  0
  194.0800  169.3350  142.2000 C   0  0  0  0  0  0  0  0  0  0  0  0
  195.5810  169.3610  141.9320 C   0  0  0  0  0  1  0  0  0  0  0  0
  1  9  2  0  0  0  0
  2 15  2  0  0  0  0
  3 10  1  0  0  0  0
  4  8  1  0  0  0  0
  4 11  2  0  0  0  0
  5 13  1  0  0  0  0
  6  5  2  0  0  0  0
  7 17  1  0  0  0  0
  7 12  2  0  0  0  0
  8 18  1  0  0  0  0
  9  2  1  0  0  0  0
 10 13  2  0  0  0  0
 10  7  1  0  0  0  0
 12  8  1  0  0  0  0
 13 12  1  0  0  0  0
 14  3  2  0  0  0  0
 14  6  1  0  0  0  0
 15 11  1  0  0  0  0
 15 43  1  0  0  0  0
 16  2  1  0  0  0  0
 17  1  1  6  0  0  0
 17  4  1  0  0  0  0
 18 19  1  0  0  0  0
 20 21  2  0  0  0  0
 21 19  1  0  0  0  0
 22 23  1  6  0  0  0
 22 20  1  0  0  0  0
 24 25  1  0  0  0  0
 24 22  1  0  0  0  0
 25 40  1  6  0  0  0
 26 30  1  6  0  0  0
 26 29  1  0  0  0  0
 26 28  1  0  0  0  0
 28 27  1  1  0  0  0
 28 25  1  0  0  0  0
 29 28  1  0  0  0  0
 31 30  1  0  0  0  0
 32 31  1  0  0  0  0
 33 32  1  0  0  0  0
 34 33  1  0  0  0  0
 35 34  1  0  0  0  0
 36 35  1  0  0  0  0
 37 38  1  0  0  0  0
 37 36  1  0  0  0  0
 39 37  2  0  0  0  0
 40 42  1  0  0  0  0
 42 41  1  0  0  0  0
 43 44  1  0  0  0  0
 46 44  1  0  0  0  0
 46 45  1  0  0  0  0
 47 14  1  0  0  0  0
 48 47  1  0  0  0  0
 49 50  1  0  0  0  0
 50 52  2  0  0  0  0
 50 48  1  0  0  0  0
 51 53  2  0  0  0  0
 52 57  1  0  0  0  0
 53 52  1  0  0  0  0
 54 51  1  0  0  0  0
 54 49  2  0  0  0  0
 55 59  1  0  0  0  0
 56 55  2  0  0  0  0
 57 55  1  0  0  0  0
 59 58  1  0  0  0  0
 59 60  1  0  0  0  0
 60 63  1  0  0  0  0
 62 63  1  0  0  0  0
 63 61  1  0  0  0  0
 64 63  1  0  0  0  0
M  END
>  <MODEL>
1

>  <REMARK>
 VINA RESULT:      -5.2      0.000      0.000
  Name = 
  26 active torsions:
  status: ('A' for Active; 'I' for Inactive)
    1  A    between atoms: O_2  and  C_5
    2  A    between atoms: O_2  and  C_12
    3  A    between atoms: C_5  and  C_23
    4  A    between atoms: C_9  and  C_31
    5  A    between atoms: C_12  and  C_36
    6  A    between atoms: C_12  and  C_51
    7  A    between atoms: N_16  and  C_18
    8  A    between atoms: N_16  and  C_44
    9  A    between atoms: O_17  and  C_45
   10  A    between atoms: O_17  and  C_57
   11  A    between atoms: C_18  and  C_34
   12  A    between atoms: O_20  and  C_48
   13  A    between atoms: O_20  and  C_54
   14  A    between atoms: N_21  and  C_50
   15  A    between atoms: N_22  and  C_41
   16  A    between atoms: C_24  and  C_48
   17  A    between atoms: C_26  and  C_61
   18  A    between atoms: C_27  and  C_36
   19  A    between atoms: C_31  and  C_38
   20  A    between atoms: C_38  and  N_53
   21  A    between atoms: C_41  and  C_61
   22  A    between atoms: C_45  and  C_49
   23  A    between atoms: C_46  and  O_55
   24  A    between atoms: C_52  and  N_53
   25  A    between atoms: C_52  and  C_54
   26  A    between atoms: O_55  and  N_58
                            x       y       z     vdW  Elec       q    Type
                         _______ _______ _______ _____ _____    ______ ____

>  <TORSDO>
F 26

$$$$
=
 OpenBabel11042414323D

 64 69  0  0  1  0  0  0  0  0999 V2000
  195.6120  172.4540  145.4100 C   0  0  0  0  0  3  0  0  0  0  0  0
  196.8470  170.2670  145.3400 C   0  0  0  0  0  0  0  0  0  0  0  0
  192.5710  175.3470  143.7870 C   0  0  0  0  0  3  0  0  0  0  0  0
  196.4850  172.3520  143.1060 C   0  0  0  0  0  0  0  0  0  0  0  0
  194.2880  176.5060  141.7560 C   0  0  0  0  0  3  0  0  0  0  0  0
  193.0750  177.1290  142.1400 C   0  0  0  0  0  3  0  0  0  0  0  0
  194.7060  173.6740  143.4970 C   0  0  0  0  0  0  0  0  0  0  0  0
  196.6460  173.5190  142.2550 N   0  0  0  0  0  0  0  0  0  0  0  0
  196.3170  171.4890  145.9990 C   0  0  0  0  0  3  0  0  0  0  0  0
  193.7620  174.7850  143.3740 C   0  0  0  0  0  0  0  0  0  0  0  0
  197.3800  171.3680  143.1480 C   0  0  0  0  0  3  0  0  0  0  0  0
  195.4770  174.2050  142.6070 C   0  0  0  0  0  0  0  0  0  0  0  0
  194.5630  175.3270  142.4250 C   0  0  0  0  0  0  0  0  0  0  0  0
  192.2210  176.5650  143.1370 C   0  0  0  0  0  0  0  0  0  0  0  0
  197.3510  170.2140  144.0760 C   0  0  0  0  0  0  0  0  0  0  0  0
  196.8550  169.1250  146.1310 O   0  0  0  0  0  1  0  0  0  0  0  0
  195.2200  172.3780  143.9770 C   0  0  2  0  0  3  0  0  0  0  0  0
  197.3290  173.5670  140.9640 C   0  0  0  0  0  2  0  0  0  0  0  0
  196.6130  174.5190  140.0170 C   0  0  0  0  0  2  0  0  0  0  0  0
  195.0440  174.3050  138.1580 C   0  0  0  0  0  3  0  0  0  0  0  0
  196.0310  173.7650  138.8700 C   0  0  0  0  0  3  0  0  0  0  0  0
  194.4280  173.5790  137.0030 C   0  0  2  0  0  3  0  0  0  0  0  0
  195.1390  173.9480  135.7120 C   0  0  0  0  0  1  0  0  0  0  0  0
  193.0780  173.9330  136.9040 O   0  0  0  0  0  0  0  0  0  0  0  0
  192.5050  172.9790  136.0480 C   0  0  1  0  0  3  0  0  0  0  0  0
  191.6500  171.9530  138.3230 C   0  0  2  0  0  3  0  0  0  0  0  0
  190.8190  171.1280  136.1360 O   0  0  0  0  0  1  0  0  0  0  0  0
  191.7370  171.9130  136.8360 C   0  0  1  0  0  0  0  0  0  0  0  0
  192.5700  171.1220  137.6480 O   0  0  0  0  0  0  0  0  0  0  0  0
  190.5110  171.1090  138.8730 C   0  0  0  0  0  2  0  0  0  0  0  0
  189.8440  171.8210  139.8820 O   0  0  0  0  0  0  0  0  0  0  0  0
  189.0450  172.7550  139.2120 C   0  0  0  0  0  2  0  0  0  0  0  0
  188.5930  173.8650  140.1520 C   0  0  0  0  0  2  0  0  0  0  0  0
  188.3340  173.3380  141.4780 N   0  0  0  0  0  2  0  0  0  0  0  0
  189.5600  173.5190  142.2290 C   0  0  0  0  0  2  0  0  0  0  0  0
  189.6950  172.4390  143.2960 C   0  0  0  0  0  2  0  0  0  0  0  0
  191.1120  171.9680  143.4300 C   0  0  0  0  0  0  0  0  0  0  0  0
  191.7650  172.0250  144.6570 O   0  0  0  0  0  1  0  0  0  0  0  0
  191.7330  171.5600  142.4140 O   0  0  0  0  0  0  0  0  0  0  0  0
  191.6230  173.6600  135.0030 C   0  0  0  0  0  2  0  0  0  0  0  0
  190.3900  175.6930  135.2450 O   0  0  0  0  0  1  0  0  0  0  0  0
  190.4400  174.3600  135.6550 C   0  0  0  0  0  2  0  0  0  0  0  0
  197.9410  169.0480  143.5560 O   0  0  0  0  0  0  0  0  0  0  0  0
  197.5090  168.3510  142.3910 C   0  0  0  0  0  2  0  0  0  0  0  0
  195.1410  168.1670  142.5870 O   0  0  0  0  0  1  0  0  0  0  0  0
  196.1560  168.8800  141.9500 C   0  0  0  0  0  2  0  0  0  0  0  0
  191.0130  177.2530  143.4740 N   0  0  0  0  0  2  0  0  0  0  0  0
  190.7750  177.8800  144.7650 C   0  0  0  0  0  2  0  0  0  0  0  0
  191.5460  176.6240  146.7760 C   0  0  0  0  0  3  0  0  0  0  0  0
  190.5540  176.8410  145.8140 C   0  0  0  0  0  0  0  0  0  0  0  0
  190.2350  174.9380  147.8080 C   0  0  0  0  0  3  0  0  0  0  0  0
  189.3720  176.0830  145.8570 C   0  0  0  0  0  0  0  0  0  0  0  0
  189.2180  175.1240  146.8680 C   0  0  0  0  0  3  0  0  0  0  0  0
  191.3690  175.6850  147.7420 N   0  0  0  0  0  0  0  0  0  0  0  0
  187.0330  176.8010  145.0710 C   0  0  0  0  0  0  0  0  0  0  0  0
  186.7140  177.3150  146.1770 O   0  0  0  0  0  0  0  0  0  0  0  0
  188.3590  176.2830  144.8600 N   0  0  0  0  0  2  0  0  0  0  0  0
  186.3180  175.9010  142.8630 C   0  0  0  0  0  1  0  0  0  0  0  0
  186.0770  176.7690  144.0060 N   0  0  0  0  0  0  0  0  0  0  0  0
  184.8350  177.3060  144.1900 O   0  0  0  0  0  0  0  0  0  0  0  0
  186.0570  179.1210  143.0770 C   0  0  0  0  0  1  0  0  0  0  0  0
  183.9110  179.4860  144.2050 C   0  0  0  0  0  1  0  0  0  0  0  0
  184.7100  178.4810  143.4040 C   0  0  0  0  0  0  0  0  0  0  0  0
  183.9400  178.2090  142.1150 C   0  0  0  0  0  1  0  0  0  0  0  0
  1  9  2  0  0  0  0
  2  9  1  0  0  0  0
  2 16  1  0  0  0  0
  4 11  2  0  0  0  0
  4 17  1  0  0  0  0
  5  6  2  0  0  0  0
  5 13  1  0  0  0  0
  6 14  1  0  0  0  0
  7 17  1  0  0  0  0
  8 12  1  0  0  0  0
  8  4  1  0  0  0  0
 10  7  1  0  0  0  0
 10  3  1  0  0  0  0
 11 15  1  0  0  0  0
 12  7  2  0  0  0  0
 13 12  1  0  0  0  0
 13 10  2  0  0  0  0
 14 47  1  0  0  0  0
 14  3  2  0  0  0  0
 15  2  2  0  0  0  0
 17  1  1  1  0  0  0
 18  8  1  0  0  0  0
 19 18  1  0  0  0  0
 20 21  2  0  0  0  0
 21 19  1  0  0  0  0
 22 23  1  6  0  0  0
 22 20  1  0  0  0  0
 24 22  1  0  0  0  0
 25 40  1  6  0  0  0
 25 28  1  0  0  0  0
 25 24  1  0  0  0  0
 26 30  1  6  0  0  0
 28 27  1  6  0  0  0
 28 29  1  0  0  0  0
 28 26  1  0  0  0  0
 29 26  1  0  0  0  0
 30 31  1  0  0  0  0
 32 31  1  0  0  0  0
 32 33  1  0  0  0  0
 33 34  1  0  0  0  0
 34 35  1  0  0  0  0
 35 36  1  0  0  0  0
 36 37  1  0  0  0  0
 37 38  1  0  0  0  0
 39 37  2  0  0  0  0
 40 42  1  0  0  0  0
 41 42  1  0  0  0  0
 43 15  1  0  0  0  0
 44 43  1  0  0  0  0
 46 44  1  0  0  0  0
 46 45  1  0  0  0  0
 47 48  1  0  0  0  0
 48 50  1  0  0  0  0
 49 54  1  0  0  0  0
 50 52  1  0  0  0  0
 50 49  2  0  0  0  0
 52 53  2  0  0  0  0
 53 51  1  0  0  0  0
 54 51  2  0  0  0  0
 55 56  2  0  0  0  0
 57 55  1  0  0  0  0
 57 52  1  0  0  0  0
 58 59  1  0  0  0  0
 59 60  1  0  0  0  0
 59 55  1  0  0  0  0
 61 63  1  0  0  0  0
 63 60  1  0  0  0  0
 63 62  1  0  0  0  0
 64 63  1  0  0  0  0
M  END
>  <MODEL>
2

>  <REMARK>
 VINA RESULT:      -4.6      2.919     10.453
  Name = 
  26 active torsions:
  status: ('A' for Active; 'I' for Inactive)
    1  A    between atoms: O_2  and  C_5
    2  A    between atoms: O_2  and  C_12
    3  A    between atoms: C_5  and  C_23
    4  A    between atoms: C_9  and  C_31
    5  A    between atoms: C_12  and  C_36
    6  A    between atoms: C_12  and  C_51
    7  A    between atoms: N_16  and  C_18
    8  A    between atoms: N_16  and  C_44
    9  A    between atoms: O_17  and  C_45
   10  A    between atoms: O_17  and  C_57
   11  A    between atoms: C_18  and  C_34
   12  A    between atoms: O_20  and  C_48
   13  A    between atoms: O_20  and  C_54
   14  A    between atoms: N_21  and  C_50
   15  A    between atoms: N_22  and  C_41
   16  A    between atoms: C_24  and  C_48
   17  A    between atoms: C_26  and  C_61
   18  A    between atoms: C_27  and  C_36
   19  A    between atoms: C_31  and  C_38
   20  A    between atoms: C_38  and  N_53
   21  A    between atoms: C_41  and  C_61
   22  A    between atoms: C_45  and  C_49
   23  A    between atoms: C_46  and  O_55
   24  A    between atoms: C_52  and  N_53
   25  A    between atoms: C_52  and  C_54
   26  A    between atoms: O_55  and  N_58
                            x       y       z     vdW  Elec       q    Type
                         _______ _______ _______ _____ _____    ______ ____

>  <TORSDO>
F 26

$$$$
=
 OpenBabel11042414323D

 64 69  0  0  1  0  0  0  0  0999 V2000
  191.8580  173.5680  140.9740 C   0  0  0  0  0  3  0  0  0  0  0  0
  189.4650  174.2930  140.7230 C   0  0  0  0  0  0  0  0  0  0  0  0
  195.3390  172.1620  143.4540 C   0  0  0  0  0  3  0  0  0  0  0  0
  191.6150  175.3610  142.6480 C   0  0  0  0  0  0  0  0  0  0  0  0
  196.1520  174.7890  144.3760 C   0  0  0  0  0  3  0  0  0  0  0  0
  197.0050  173.6660  144.5060 C   0  0  0  0  0  3  0  0  0  0  0  0
  193.2680  173.8630  142.9460 C   0  0  0  0  0  0  0  0  0  0  0  0
  192.7370  176.0950  143.2090 N   0  0  0  0  0  0  0  0  0  0  0  0
  190.7590  173.7450  140.2410 C   0  0  0  0  0  3  0  0  0  0  0  0
  194.5510  173.2910  143.3550 C   0  0  0  0  0  0  0  0  0  0  0  0
  190.4680  175.9490  142.3200 C   0  0  0  0  0  3  0  0  0  0  0  0
  193.6430  175.0350  143.3400 C   0  0  0  0  0  0  0  0  0  0  0  0
  194.9320  174.5180  143.7860 C   0  0  0  0  0  0  0  0  0  0  0  0
  196.6130  172.3670  144.0570 C   0  0  0  0  0  0  0  0  0  0  0  0
  189.3290  175.2990  141.6310 C   0  0  0  0  0  0  0  0  0  0  0  0
  188.3330  173.7380  140.1380 O   0  0  0  0  0  1  0  0  0  0  0  0
  191.8870  173.8650  142.4300 C   0  0  2  0  0  3  0  0  0  0  0  0
  192.6640  177.2870  144.0500 C   0  0  0  0  0  2  0  0  0  0  0  0
  192.2690  176.9140  145.4720 C   0  0  0  0  0  2  0  0  0  0  0  0
  190.1620  176.8450  146.7030 C   0  0  0  0  0  3  0  0  0  0  0  0
  190.8030  176.6590  145.5500 C   0  0  0  0  0  3  0  0  0  0  0  0
  188.6920  176.5930  146.8260 C   0  0  2  0  0  3  0  0  0  0  0  0
  188.4380  175.1390  147.1880 C   0  0  0  0  0  1  0  0  0  0  0  0
  188.0710  176.8800  145.6060 O   0  0  0  0  0  0  0  0  0  0  0  0
  186.9880  177.7150  145.9270 C   0  0  1  0  0  3  0  0  0  0  0  0
  185.5370  179.0180  144.1520 C   0  0  2  0  0  3  0  0  0  0  0  0
  185.6780  176.5410  144.1430 O   0  0  0  0  0  1  0  0  0  0  0  0
  185.9510  177.7420  144.8010 C   0  0  1  0  0  0  0  0  0  0  0  0
  184.7650  178.4060  145.1620 O   0  0  0  0  0  0  0  0  0  0  0  0
  184.8690  178.8060  142.8010 C   0  0  0  0  0  2  0  0  0  0  0  0
  183.5020  178.5480  142.9910 O   0  0  0  0  0  0  0  0  0  0  0  0
  183.0530  178.0110  141.7780 C   0  0  0  0  0  2  0  0  0  0  0  0
  181.9080  178.8340  141.2040 C   0  0  0  0  0  2  0  0  0  0  0  0
  181.0570  178.0120  140.3650 N   0  0  0  0  0  2  0  0  0  0  0  0
  179.7570  178.6530  140.3600 C   0  0  0  0  0  2  0  0  0  0  0  0
  179.3480  179.0350  141.7780 C   0  0  0  0  0  2  0  0  0  0  0  0
  178.4650  177.9940  142.3970 C   0  0  0  0  0  0  0  0  0  0  0  0
  178.0480  176.8900  141.6610 O   0  0  0  0  0  0  0  0  0  0  0  0
  178.0600  178.1410  143.5800 O   0  0  0  0  0  1  0  0  0  0  0  0
  186.3690  177.2970  147.2600 C   0  0  0  0  0  2  0  0  0  0  0  0
  184.4860  178.5250  148.0710 O   0  0  0  0  0  1  0  0  0  0  0  0
  185.8810  178.5070  148.0430 C   0  0  0  0  0  2  0  0  0  0  0  0
  188.0750  175.8450  141.9580 O   0  0  0  0  0  0  0  0  0  0  0  0
  187.5220  177.0360  141.4050 C   0  0  0  0  0  2  0  0  0  0  0  0
  185.8740  177.4140  139.7260 O   0  0  0  0  0  1  0  0  0  0  0  0
  187.0930  176.7830  139.9710 C   0  0  0  0  0  2  0  0  0  0  0  0
  197.5300  171.2800  144.2180 N   0  0  0  0  0  2  0  0  0  0  0  0
  197.2110  169.9000  143.8840 C   0  0  0  0  0  2  0  0  0  0  0  0
  196.3720  169.3510  146.1660 C   0  0  0  0  0  3  0  0  0  0  0  0
  196.1430  169.3800  144.7870 C   0  0  0  0  0  0  0  0  0  0  0  0
  194.2160  168.4380  146.5480 C   0  0  0  0  0  3  0  0  0  0  0  0
  194.9130  168.9250  144.2810 C   0  0  0  0  0  0  0  0  0  0  0  0
  193.9450  168.4510  145.1780 C   0  0  0  0  0  3  0  0  0  0  0  0
  195.4160  168.8840  147.0090 N   0  0  0  0  0  0  0  0  0  0  0  0
  193.5630  169.5250  142.1790 C   0  0  0  0  0  0  0  0  0  0  0  0
  192.7640  170.2850  142.7920 O   0  0  0  0  0  0  0  0  0  0  0  0
  194.6780  168.9290  142.8650 N   0  0  0  0  0  2  0  0  0  0  0  0
  194.0740  168.1760  140.1510 C   0  0  0  0  0  1  0  0  0  0  0  0
  193.3750  169.2860  140.7800 N   0  0  0  0  0  0  0  0  0  0  0  0
  192.3450  169.8910  140.1180 O   0  0  0  0  0  0  0  0  0  0  0  0
  193.5140  171.4620  138.6360 C   0  0  0  0  0  1  0  0  0  0  0  0
  191.4790  170.2790  137.9490 C   0  0  0  0  0  1  0  0  0  0  0  0
  192.7380  170.1550  138.7800 C   0  0  0  0  0  0  0  0  0  0  0  0
  193.5540  169.0030  138.2020 C   0  0  0  0  0  1  0  0  0  0  0  0
  2 15  2  0  0  0  0
  3 14  1  0  0  0  0
  4  8  1  0  0  0  0
  5  6  1  0  0  0  0
  7 12  2  0  0  0  0
  7 10  1  0  0  0  0
  8 12  1  0  0  0  0
  8 18  1  0  0  0  0
  9  2  1  0  0  0  0
  9  1  2  0  0  0  0
 10  3  2  0  0  0  0
 10 13  1  0  0  0  0
 11  4  2  0  0  0  0
 12 13  1  0  0  0  0
 13  5  2  0  0  0  0
 14 47  1  0  0  0  0
 14  6  2  0  0  0  0
 15 43  1  0  0  0  0
 15 11  1  0  0  0  0
 16  2  1  0  0  0  0
 17  1  1  6  0  0  0
 17  4  1  0  0  0  0
 17  7  1  0  0  0  0
 18 19  1  0  0  0  0
 19 21  1  0  0  0  0
 20 22  1  0  0  0  0
 21 20  2  0  0  0  0
 22 23  1  6  0  0  0
 24 25  1  0  0  0  0
 24 22  1  0  0  0  0
 25 40  1  1  0  0  0
 26 30  1  6  0  0  0
 26 28  1  0  0  0  0
 26 29  1  0  0  0  0
 28 27  1  6  0  0  0
 28 29  1  0  0  0  0
 28 25  1  0  0  0  0
 30 31  1  0  0  0  0
 32 31  1  0  0  0  0
 33 32  1  0  0  0  0
 34 33  1  0  0  0  0
 35 34  1  0  0  0  0
 35 36  1  0  0  0  0
 36 37  1  0  0  0  0
 37 39  1  0  0  0  0
 38 37  2  0  0  0  0
 40 42  1  0  0  0  0
 42 41  1  0  0  0  0
 44 43  1  0  0  0  0
 45 46  1  0  0  0  0
 46 44  1  0  0  0  0
 48 47  1  0  0  0  0
 48 50  1  0  0  0  0
 49 54  1  0  0  0  0
 50 49  2  0  0  0  0
 51 54  2  0  0  0  0
 52 50  1  0  0  0  0
 52 53  2  0  0  0  0
 53 51  1  0  0  0  0
 55 56  2  0  0  0  0
 55 57  1  0  0  0  0
 57 52  1  0  0  0  0
 58 59  1  0  0  0  0
 59 55  1  0  0  0  0
 60 59  1  0  0  0  0
 61 63  1  0  0  0  0
 62 63  1  0  0  0  0
 63 60  1  0  0  0  0
 64 63  1  0  0  0  0
M  END
>  <MODEL>
3

>  <REMARK>
 VINA RESULT:      -4.4      3.282      9.764
  Name = 
  26 active torsions:
  status: ('A' for Active; 'I' for Inactive)
    1  A    between atoms: O_2  and  C_5
    2  A    between atoms: O_2  and  C_12
    3  A    between atoms: C_5  and  C_23
    4  A    between atoms: C_9  and  C_31
    5  A    between atoms: C_12  and  C_36
    6  A    between atoms: C_12  and  C_51
    7  A    between atoms: N_16  and  C_18
    8  A    between atoms: N_16  and  C_44
    9  A    between atoms: O_17  and  C_45
   10  A    between atoms: O_17  and  C_57
   11  A    between atoms: C_18  and  C_34
   12  A    between atoms: O_20  and  C_48
   13  A    between atoms: O_20  and  C_54
   14  A    between atoms: N_21  and  C_50
   15  A    between atoms: N_22  and  C_41
   16  A    between atoms: C_24  and  C_48
   17  A    between atoms: C_26  and  C_61
   18  A    between atoms: C_27  and  C_36
   19  A    between atoms: C_31  and  C_38
   20  A    between atoms: C_38  and  N_53
   21  A    between atoms: C_41  and  C_61
   22  A    between atoms: C_45  and  C_49
   23  A    between atoms: C_46  and  O_55
   24  A    between atoms: C_52  and  N_53
   25  A    between atoms: C_52  and  C_54
   26  A    between atoms: O_55  and  N_58
                            x       y       z     vdW  Elec       q    Type
                         _______ _______ _______ _____ _____    ______ ____

>  <TORSDO>
F 26

$$$$
=
 OpenBabel11042414323D

 64 69  0  0  1  0  0  0  0  0999 V2000
  196.2000  172.5130  145.9660 C   0  0  0  0  0  3  0  0  0  0  0  0
  197.5100  170.4450  145.3960 C   0  0  0  0  0  0  0  0  0  0  0  0
  192.5030  175.0660  145.7080 C   0  0  0  0  0  3  0  0  0  0  0  0
  196.0920  172.4160  143.5050 C   0  0  0  0  0  0  0  0  0  0  0  0
  193.1540  176.3090  143.1680 C   0  0  0  0  0  3  0  0  0  0  0  0
  192.1390  176.8310  144.0070 C   0  0  0  0  0  3  0  0  0  0  0  0
  194.4970  173.5830  144.5810 C   0  0  0  0  0  0  0  0  0  0  0  0
  195.7900  173.5640  142.6670 N   0  0  0  0  0  0  0  0  0  0  0  0
  197.1700  171.6350  146.2190 C   0  0  0  0  0  3  0  0  0  0  0  0
  193.4800  174.6000  144.8500 C   0  0  0  0  0  0  0  0  0  0  0  0
  197.0200  171.5190  143.1810 C   0  0  0  0  0  3  0  0  0  0  0  0
  194.7960  174.1530  143.4600 C   0  0  0  0  0  0  0  0  0  0  0  0
  193.7830  175.1820  143.6640 C   0  0  0  0  0  0  0  0  0  0  0  0
  191.8090  176.2250  145.2580 C   0  0  0  0  0  0  0  0  0  0  0  0
  197.4720  170.3970  144.0350 C   0  0  0  0  0  0  0  0  0  0  0  0
  197.9400  169.3340  146.1110 O   0  0  0  0  0  1  0  0  0  0  0  0
  195.2810  172.3560  144.8080 C   0  0  2  0  0  3  0  0  0  0  0  0
  195.8950  173.6320  141.2120 C   0  0  0  0  0  2  0  0  0  0  0  0
  195.1680  172.4610  140.5680 C   0  0  0  0  0  2  0  0  0  0  0  0
  194.0330  171.9550  138.4660 C   0  0  0  0  0  3  0  0  0  0  0  0
  194.5900  172.8700  139.2560 C   0  0  0  0  0  3  0  0  0  0  0  0
  193.4480  172.3220  137.1390 C   0  0  2  0  0  3  0  0  0  0  0  0
  194.0720  171.4790  136.0390 C   0  0  0  0  0  1  0  0  0  0  0  0
  193.6990  173.6740  136.8820 O   0  0  0  0  0  0  0  0  0  0  0  0
  192.9630  173.9760  135.7260 C   0  0  1  0  0  3  0  0  0  0  0  0
  190.5250  174.7340  135.0620 C   0  0  2  0  0  3  0  0  0  0  0  0
  191.2830  174.7310  137.4240 O   0  0  0  0  0  1  0  0  0  0  0  0
  191.6130  174.6110  136.0730 C   0  0  1  0  0  0  0  0  0  0  0  0
  191.3770  175.8130  135.3820 O   0  0  0  0  0  0  0  0  0  0  0  0
  189.1570  174.9620  135.6890 C   0  0  0  0  0  2  0  0  0  0  0  0
  188.5300  176.0490  135.0610 O   0  0  0  0  0  0  0  0  0  0  0  0
  187.2560  176.1260  135.6350 C   0  0  0  0  0  2  0  0  0  0  0  0
  187.2910  176.9040  136.9440 C   0  0  0  0  0  2  0  0  0  0  0  0
  186.3090  176.3820  137.8760 N   0  0  0  0  0  2  0  0  0  0  0  0
  186.7760  176.7500  139.1990 C   0  0  0  0  0  2  0  0  0  0  0  0
  185.6870  177.4990  139.9580 C   0  0  0  0  0  2  0  0  0  0  0  0
  186.0960  177.7830  141.3720 C   0  0  0  0  0  0  0  0  0  0  0  0
  185.4620  177.1470  142.4340 O   0  0  0  0  0  1  0  0  0  0  0  0
  186.9890  178.6390  141.6030 O   0  0  0  0  0  0  0  0  0  0  0  0
  193.7820  174.8620  134.7870 C   0  0  0  0  0  2  0  0  0  0  0  0
  196.1390  175.1410  134.5140 O   0  0  0  0  0  1  0  0  0  0  0  0
  195.0960  175.2760  135.4310 C   0  0  0  0  0  2  0  0  0  0  0  0
  197.9160  169.2730  143.3160 O   0  0  0  0  0  0  0  0  0  0  0  0
  197.1060  168.1670  142.9280 C   0  0  0  0  0  2  0  0  0  0  0  0
  195.3660  169.1140  141.6040 O   0  0  0  0  0  1  0  0  0  0  0  0
  196.5600  168.3980  141.5300 C   0  0  0  0  0  2  0  0  0  0  0  0
  190.7740  176.8120  146.0530 N   0  0  0  0  0  2  0  0  0  0  0  0
  189.8400  177.8100  145.5540 C   0  0  0  0  0  2  0  0  0  0  0  0
  187.8490  178.0110  147.0410 C   0  0  0  0  0  3  0  0  0  0  0  0
  188.4400  177.4350  145.9110 C   0  0  0  0  0  0  0  0  0  0  0  0
  185.8410  176.8090  146.6550 C   0  0  0  0  0  3  0  0  0  0  0  0
  187.7040  176.5230  145.1350 C   0  0  0  0  0  0  0  0  0  0  0  0
  186.3920  176.2130  145.5180 C   0  0  0  0  0  3  0  0  0  0  0  0
  186.5770  177.6880  147.3870 N   0  0  0  0  0  0  0  0  0  0  0  0
  189.1330  174.7290  143.9770 C   0  0  0  0  0  0  0  0  0  0  0  0
  189.2310  174.0070  145.0060 O   0  0  0  0  0  0  0  0  0  0  0  0
  188.3110  175.9100  143.9880 N   0  0  0  0  0  2  0  0  0  0  0  0
  189.9770  175.3230  141.7120 C   0  0  0  0  0  1  0  0  0  0  0  0
  189.8160  174.3470  142.7790 N   0  0  0  0  0  0  0  0  0  0  0  0
  190.5560  173.1990  142.7530 O   0  0  0  0  0  0  0  0  0  0  0  0
  188.6260  172.4710  141.4220 C   0  0  0  0  0  1  0  0  0  0  0  0
  190.4600  170.9530  142.0090 C   0  0  0  0  0  1  0  0  0  0  0  0
  190.1310  172.3910  141.6670 C   0  0  0  0  0  0  0  0  0  0  0  0
  190.8820  172.7390  140.3860 C   0  0  0  0  0  1  0  0  0  0  0  0
  1  9  2  0  0  0  0
  2 16  1  0  0  0  0
  2  9  1  0  0  0  0
  4 17  1  0  0  0  0
  5 13  2  0  0  0  0
  5  6  1  0  0  0  0
  6 14  2  0  0  0  0
  7 17  1  0  0  0  0
  7 10  1  0  0  0  0
  8 12  1  0  0  0  0
  8  4  1  0  0  0  0
 10  3  2  0  0  0  0
 11  4  2  0  0  0  0
 11 15  1  0  0  0  0
 12 13  1  0  0  0  0
 12  7  2  0  0  0  0
 13 10  1  0  0  0  0
 14  3  1  0  0  0  0
 14 47  1  0  0  0  0
 15  2  2  0  0  0  0
 17  1  1  1  0  0  0
 18  8  1  0  0  0  0
 19 18  1  0  0  0  0
 20 21  2  0  0  0  0
 21 19  1  0  0  0  0
 22 23  1  6  0  0  0
 22 20  1  0  0  0  0
 24 22  1  0  0  0  0
 25 40  1  6  0  0  0
 25 28  1  0  0  0  0
 25 24  1  0  0  0  0
 26 29  1  0  0  0  0
 26 30  1  1  0  0  0
 26 28  1  0  0  0  0
 28 27  1  1  0  0  0
 29 28  1  0  0  0  0
 31 32  1  0  0  0  0
 31 30  1  0  0  0  0
 32 33  1  0  0  0  0
 33 34  1  0  0  0  0
 34 35  1  0  0  0  0
 35 36  1  0  0  0  0
 36 37  1  0  0  0  0
 37 39  2  0  0  0  0
 37 38  1  0  0  0  0
 40 42  1  0  0  0  0
 41 42  1  0  0  0  0
 43 15  1  0  0  0  0
 44 43  1  0  0  0  0
 46 45  1  0  0  0  0
 46 44  1  0  0  0  0
 48 50  1  0  0  0  0
 48 47  1  0  0  0  0
 49 54  1  0  0  0  0
 50 49  2  0  0  0  0
 51 54  2  0  0  0  0
 52 53  2  0  0  0  0
 52 50  1  0  0  0  0
 53 51  1  0  0  0  0
 55 57  1  0  0  0  0
 55 56  2  0  0  0  0
 57 52  1  0  0  0  0
 58 59  1  0  0  0  0
 59 55  1  0  0  0  0
 60 59  1  0  0  0  0
 61 63  1  0  0  0  0
 63 62  1  0  0  0  0
 63 60  1  0  0  0  0
 64 63  1  0  0  0  0
M  END
>  <MODEL>
4

>  <REMARK>
 VINA RESULT:      -4.3      3.224     10.265
  Name = 
  26 active torsions:
  status: ('A' for Active; 'I' for Inactive)
    1  A    between atoms: O_2  and  C_5
    2  A    between atoms: O_2  and  C_12
    3  A    between atoms: C_5  and  C_23
    4  A    between atoms: C_9  and  C_31
    5  A    between atoms: C_12  and  C_36
    6  A    between atoms: C_12  and  C_51
    7  A    between atoms: N_16  and  C_18
    8  A    between atoms: N_16  and  C_44
    9  A    between atoms: O_17  and  C_45
   10  A    between atoms: O_17  and  C_57
   11  A    between atoms: C_18  and  C_34
   12  A    between atoms: O_20  and  C_48
   13  A    between atoms: O_20  and  C_54
   14  A    between atoms: N_21  and  C_50
   15  A    between atoms: N_22  and  C_41
   16  A    between atoms: C_24  and  C_48
   17  A    between atoms: C_26  and  C_61
   18  A    between atoms: C_27  and  C_36
   19  A    between atoms: C_31  and  C_38
   20  A    between atoms: C_38  and  N_53
   21  A    between atoms: C_41  and  C_61
   22  A    between atoms: C_45  and  C_49
   23  A    between atoms: C_46  and  O_55
   24  A    between atoms: C_52  and  N_53
   25  A    between atoms: C_52  and  C_54
   26  A    between atoms: O_55  and  N_58
                            x       y       z     vdW  Elec       q    Type
                         _______ _______ _______ _____ _____    ______ ____

>  <TORSDO>
F 26

$$$$
=
 OpenBabel11042414323D

 64 69  0  0  1  0  0  0  0  0999 V2000
  189.1620  172.0390  137.2420 C   0  0  0  0  0  3  0  0  0  0  0  0
  190.7600  170.6560  135.8820 C   0  0  0  0  0  0  0  0  0  0  0  0
  188.2670  175.3480  140.1570 C   0  0  0  0  0  3  0  0  0  0  0  0
  190.8200  171.2680  138.8970 C   0  0  0  0  0  0  0  0  0  0  0  0
  188.8120  173.8130  142.5570 C   0  0  0  0  0  3  0  0  0  0  0  0
  188.1210  175.0480  142.6120 C   0  0  0  0  0  3  0  0  0  0  0  0
  189.6310  173.1160  139.3830 C   0  0  0  0  0  0  0  0  0  0  0  0
  190.5690  171.2290  140.3280 N   0  0  0  0  0  0  0  0  0  0  0  0
  189.4340  171.2400  136.2100 C   0  0  0  0  0  3  0  0  0  0  0  0
  188.9360  174.1410  140.1630 C   0  0  0  0  0  0  0  0  0  0  0  0
  191.4810  170.3050  138.2600 C   0  0  0  0  0  3  0  0  0  0  0  0
  189.8540  172.4270  140.4540 C   0  0  0  0  0  0  0  0  0  0  0  0
  189.1900  173.4250  141.2840 C   0  0  0  0  0  0  0  0  0  0  0  0
  187.8500  175.8130  141.4370 C   0  0  0  0  0  0  0  0  0  0  0  0
  191.6670  170.2090  136.7940 C   0  0  0  0  0  0  0  0  0  0  0  0
  191.0320  170.5310  134.5250 O   0  0  0  0  0  1  0  0  0  0  0  0
  190.2190  172.4900  138.1860 C   0  0  2  0  0  3  0  0  0  0  0  0
  191.4180  170.6120  141.3440 C   0  0  0  0  0  2  0  0  0  0  0  0
  192.6150  171.5010  141.6520 C   0  0  0  0  0  2  0  0  0  0  0  0
  192.9960  173.2620  143.2990 C   0  0  0  0  0  3  0  0  0  0  0  0
  192.5080  172.0520  143.0320 C   0  0  0  0  0  3  0  0  0  0  0  0
  192.9150  173.8490  144.6730 C   0  0  2  0  0  3  0  0  0  0  0  0
  191.5570  174.4960  144.8880 C   0  0  0  0  0  1  0  0  0  0  0  0
  193.9150  174.8160  144.8200 O   0  0  0  0  0  0  0  0  0  0  0  0
  195.1130  174.1680  144.4780 C   0  0  1  0  0  3  0  0  0  0  0  0
  197.1420  174.5010  142.8260 C   0  0  2  0  0  3  0  0  0  0  0  0
  195.5060  176.3170  143.2510 O   0  0  0  0  0  1  0  0  0  0  0  0
  195.9990  175.0600  143.6030 C   0  0  1  0  0  0  0  0  0  0  0  0
  197.3240  175.1440  144.0700 O   0  0  0  0  0  0  0  0  0  0  0  0
  197.6020  175.4220  141.7060 C   0  0  0  0  0  2  0  0  0  0  0  0
  196.7310  175.2990  140.6120 O   0  0  0  0  0  0  0  0  0  0  0  0
  197.1680  174.1680  139.9130 C   0  0  0  0  0  2  0  0  0  0  0  0
  196.3020  173.9130  138.6860 C   0  0  0  0  0  2  0  0  0  0  0  0
  195.9050  175.1650  138.0710 N   0  0  0  0  0  2  0  0  0  0  0  0
  194.9530  174.8200  137.0340 C   0  0  0  0  0  2  0  0  0  0  0  0
  193.6080  175.4850  137.3050 C   0  0  0  0  0  2  0  0  0  0  0  0
  192.6110  175.1720  136.2300 C   0  0  0  0  0  0  0  0  0  0  0  0
  192.0310  176.1920  135.4820 O   0  0  0  0  0  0  0  0  0  0  0  0
  192.2610  173.9790  136.0300 O   0  0  0  0  0  1  0  0  0  0  0  0
  195.8440  173.6970  145.7340 C   0  0  0  0  0  2  0  0  0  0  0  0
  195.4190  171.4600  145.0090 O   0  0  0  0  0  1  0  0  0  0  0  0
  196.3970  172.2920  145.5550 C   0  0  0  0  0  2  0  0  0  0  0  0
  192.8550  169.5630  136.4100 O   0  0  0  0  0  0  0  0  0  0  0  0
  194.0270  170.2080  135.9200 C   0  0  0  0  0  2  0  0  0  0  0  0
  196.1450  171.0190  136.6510 O   0  0  0  0  0  1  0  0  0  0  0  0
  195.1370  170.1030  136.9500 C   0  0  0  0  0  2  0  0  0  0  0  0
  187.1430  177.0500  141.5710 N   0  0  0  0  0  2  0  0  0  0  0  0
  186.1100  177.2850  142.5680 C   0  0  0  0  0  2  0  0  0  0  0  0
  184.7930  177.8310  140.5220 C   0  0  0  0  0  3  0  0  0  0  0  0
  184.8670  177.7980  141.9180 C   0  0  0  0  0  0  0  0  0  0  0  0
  182.5990  178.7260  140.6170 C   0  0  0  0  0  3  0  0  0  0  0  0
  183.7720  178.2420  142.6790 C   0  0  0  0  0  0  0  0  0  0  0  0
  182.6300  178.7080  142.0140 C   0  0  0  0  0  3  0  0  0  0  0  0
  183.6740  178.2910  139.9070 N   0  0  0  0  0  0  0  0  0  0  0  0
  184.7930  178.9500  144.9270 C   0  0  0  0  0  0  0  0  0  0  0  0
  185.5430  179.8270  144.4200 O   0  0  0  0  0  0  0  0  0  0  0  0
  183.8490  178.2330  144.1130 N   0  0  0  0  0  2  0  0  0  0  0  0
  184.2520  177.4840  146.8650 C   0  0  0  0  0  1  0  0  0  0  0  0
  184.8590  178.6950  146.3350 N   0  0  0  0  0  0  0  0  0  0  0  0
  185.7200  179.4110  147.1170 O   0  0  0  0  0  0  0  0  0  0  0  0
  187.6060  177.9180  146.6270 C   0  0  0  0  0  1  0  0  0  0  0  0
  185.9380  177.4000  148.3480 C   0  0  0  0  0  1  0  0  0  0  0  0
  186.6850  178.5340  147.6770 C   0  0  0  0  0  0  0  0  0  0  0  0
  187.5160  179.2310  148.7480 C   0  0  0  0  0  1  0  0  0  0  0  0
  2  9  1  0  0  0  0
  2 15  2  0  0  0  0
  3 10  2  0  0  0  0
  3 14  1  0  0  0  0
  4  8  1  0  0  0  0
  5  6  1  0  0  0  0
  7 10  1  0  0  0  0
  7 12  2  0  0  0  0
  8 12  1  0  0  0  0
  8 18  1  0  0  0  0
  9  1  2  0  0  0  0
 10 13  1  0  0  0  0
 11  4  2  0  0  0  0
 12 13  1  0  0  0  0
 13  5  2  0  0  0  0
 14 47  1  0  0  0  0
 14  6  2  0  0  0  0
 15 11  1  0  0  0  0
 16  2  1  0  0  0  0
 17  1  1  6  0  0  0
 17  4  1  0  0  0  0
 17  7  1  0  0  0  0
 18 19  1  0  0  0  0
 19 21  1  0  0  0  0
 20 22  1  0  0  0  0
 21 20  2  0  0  0  0
 22 24  1  0  0  0  0
 22 23  1  6  0  0  0
 25 24  1  0  0  0  0
 25 40  1  1  0  0  0
 26 30  1  6  0  0  0
 26 28  1  0  0  0  0
 26 29  1  0  0  0  0
 28 27  1  6  0  0  0
 28 29  1  0  0  0  0
 28 25  1  0  0  0  0
 31 30  1  0  0  0  0
 32 31  1  0  0  0  0
 33 32  1  0  0  0  0
 34 33  1  0  0  0  0
 35 36  1  0  0  0  0
 35 34  1  0  0  0  0
 37 36  1  0  0  0  0
 38 37  2  0  0  0  0
 39 37  1  0  0  0  0
 41 42  1  0  0  0  0
 42 40  1  0  0  0  0
 43 15  1  0  0  0  0
 44 43  1  0  0  0  0
 44 46  1  0  0  0  0
 45 46  1  0  0  0  0
 47 48  1  0  0  0  0
 49 50  1  0  0  0  0
 50 48  1  0  0  0  0
 50 52  2  0  0  0  0
 51 53  2  0  0  0  0
 52 57  1  0  0  0  0
 53 52  1  0  0  0  0
 54 49  2  0  0  0  0
 54 51  1  0  0  0  0
 55 59  1  0  0  0  0
 56 55  2  0  0  0  0
 57 55  1  0  0  0  0
 59 58  1  0  0  0  0
 59 60  1  0  0  0  0
 60 63  1  0  0  0  0
 61 63  1  0  0  0  0
 63 62  1  0  0  0  0
 63 64  1  0  0  0  0
M  END
>  <MODEL>
5

>  <REMARK>
 VINA RESULT:      -4.2      2.552      9.186
  Name = 
  26 active torsions:
  status: ('A' for Active; 'I' for Inactive)
    1  A    between atoms: O_2  and  C_5
    2  A    between atoms: O_2  and  C_12
    3  A    between atoms: C_5  and  C_23
    4  A    between atoms: C_9  and  C_31
    5  A    between atoms: C_12  and  C_36
    6  A    between atoms: C_12  and  C_51
    7  A    between atoms: N_16  and  C_18
    8  A    between atoms: N_16  and  C_44
    9  A    between atoms: O_17  and  C_45
   10  A    between atoms: O_17  and  C_57
   11  A    between atoms: C_18  and  C_34
   12  A    between atoms: O_20  and  C_48
   13  A    between atoms: O_20  and  C_54
   14  A    between atoms: N_21  and  C_50
   15  A    between atoms: N_22  and  C_41
   16  A    between atoms: C_24  and  C_48
   17  A    between atoms: C_26  and  C_61
   18  A    between atoms: C_27  and  C_36
   19  A    between atoms: C_31  and  C_38
   20  A    between atoms: C_38  and  N_53
   21  A    between atoms: C_41  and  C_61
   22  A    between atoms: C_45  and  C_49
   23  A    between atoms: C_46  and  O_55
   24  A    between atoms: C_52  and  N_53
   25  A    between atoms: C_52  and  C_54
   26  A    between atoms: O_55  and  N_58
                            x       y       z     vdW  Elec       q    Type
                         _______ _______ _______ _____ _____    ______ ____

>  <TORSDO>
F 26

$$$$
=
 OpenBabel11042414323D

 64 69  0  0  1  0  0  0  0  0999 V2000
  189.3570  171.7090  137.6170 C   0  0  0  0  0  3  0  0  0  0  0  0
  190.8850  170.1350  136.3910 C   0  0  0  0  0  0  0  0  0  0  0  0
  188.6280  175.1480  140.4250 C   0  0  0  0  0  3  0  0  0  0  0  0
  190.7950  170.7900  139.3960 C   0  0  0  0  0  0  0  0  0  0  0  0
  188.8250  173.6050  142.8740 C   0  0  0  0  0  3  0  0  0  0  0  0
  188.2730  174.9100  142.8660 C   0  0  0  0  0  3  0  0  0  0  0  0
  189.7880  172.7660  139.7760 C   0  0  0  0  0  0  0  0  0  0  0  0
  190.4400  170.8040  140.8050 N   0  0  0  0  0  0  0  0  0  0  0  0
  189.6130  170.8680  136.6150 C   0  0  0  0  0  3  0  0  0  0  0  0
  189.1560  173.8750  140.4920 C   0  0  0  0  0  0  0  0  0  0  0  0
  191.3900  169.7490  138.8190 C   0  0  0  0  0  3  0  0  0  0  0  0
  189.8540  172.0750  140.8660 C   0  0  0  0  0  0  0  0  0  0  0  0
  189.2480  173.1550  141.6360 C   0  0  0  0  0  0  0  0  0  0  0  0
  188.1740  175.6790  141.6670 C   0  0  0  0  0  0  0  0  0  0  0  0
  191.6690  169.6070  137.3710 C   0  0  0  0  0  0  0  0  0  0  0  0
  191.2390  169.9570  135.0590 O   0  0  0  0  0  1  0  0  0  0  0  0
  190.3880  172.0580  138.6310 C   0  0  2  0  0  3  0  0  0  0  0  0
  191.1400  170.1160  141.8870 C   0  0  0  0  0  2  0  0  0  0  0  0
  192.6430  170.1450  141.6540 C   0  0  0  0  0  2  0  0  0  0  0  0
  194.5270  170.6800  143.1130 C   0  0  0  0  0  3  0  0  0  0  0  0
  193.3690  170.0420  142.9520 C   0  0  0  0  0  3  0  0  0  0  0  0
  195.2910  170.5970  144.3970 C   0  0  2  0  0  3  0  0  0  0  0  0
  194.5490  169.7200  145.3930 C   0  0  0  0  0  1  0  0  0  0  0  0
  195.4350  171.8810  144.9310 O   0  0  0  0  0  0  0  0  0  0  0  0
  196.2340  172.5790  144.0110 C   0  0  1  0  0  3  0  0  0  0  0  0
  195.5660  175.0900  143.5560 C   0  0  2  0  0  3  0  0  0  0  0  0
  196.7620  174.4220  145.6240 O   0  0  0  0  0  1  0  0  0  0  0  0
  196.3060  174.0700  144.3530 C   0  0  1  0  0  0  0  0  0  0  0  0
  196.9390  174.8330  143.3540 O   0  0  0  0  0  0  0  0  0  0  0  0
  195.3980  176.4100  144.2930 C   0  0  0  0  0  2  0  0  0  0  0  0
  194.7300  176.1870  145.5070 O   0  0  0  0  0  0  0  0  0  0  0  0
  193.4990  176.8410  145.3810 C   0  0  0  0  0  2  0  0  0  0  0  0
  192.7480  176.3630  144.1450 C   0  0  0  0  0  2  0  0  0  0  0  0
  191.4590  177.0210  144.0420 N   0  0  0  0  0  2  0  0  0  0  0  0
  190.8160  176.8490  145.3300 C   0  0  0  0  0  2  0  0  0  0  0  0
  190.6890  175.3670  145.6660 C   0  0  0  0  0  2  0  0  0  0  0  0
  190.1650  175.1600  147.0550 C   0  0  0  0  0  0  0  0  0  0  0  0
  191.0070  175.2850  148.1560 O   0  0  0  0  0  1  0  0  0  0  0  0
  188.9630  174.8260  147.2270 O   0  0  0  0  0  0  0  0  0  0  0  0
  197.6230  171.9490  143.9250 C   0  0  0  0  0  2  0  0  0  0  0  0
  197.3280  172.3680  141.5910 O   0  0  0  0  0  1  0  0  0  0  0  0
  197.9400  171.5080  142.5040 C   0  0  0  0  0  2  0  0  0  0  0  0
  192.8030  168.8270  137.0820 O   0  0  0  0  0  0  0  0  0  0  0  0
  194.0290  168.8490  137.8070 C   0  0  0  0  0  2  0  0  0  0  0  0
  194.9290  170.9320  138.5340 O   0  0  0  0  0  1  0  0  0  0  0  0
  194.8240  170.0860  137.4310 C   0  0  0  0  0  2  0  0  0  0  0  0
  187.6010  176.9890  141.7360 N   0  0  0  0  0  2  0  0  0  0  0  0
  186.5440  177.3590  142.6650 C   0  0  0  0  0  2  0  0  0  0  0  0
  185.3540  177.8200  140.5240 C   0  0  0  0  0  3  0  0  0  0  0  0
  185.3150  177.7630  141.9200 C   0  0  0  0  0  0  0  0  0  0  0  0
  183.0820  178.4960  140.4460 C   0  0  0  0  0  3  0  0  0  0  0  0
  184.1220  178.0810  142.5920 C   0  0  0  0  0  0  0  0  0  0  0  0
  182.9990  178.4500  141.8390 C   0  0  0  0  0  3  0  0  0  0  0  0
  184.2500  178.1830  139.8220 N   0  0  0  0  0  0  0  0  0  0  0  0
  184.8770  178.8360  144.9290 C   0  0  0  0  0  0  0  0  0  0  0  0
  185.5750  179.7940  144.4990 O   0  0  0  0  0  0  0  0  0  0  0  0
  184.0810  178.0480  144.0270 N   0  0  0  0  0  2  0  0  0  0  0  0
  184.3280  177.2790  146.7920 C   0  0  0  0  0  1  0  0  0  0  0  0
  184.8510  178.5570  146.3330 N   0  0  0  0  0  0  0  0  0  0  0  0
  185.5680  179.3370  147.1950 O   0  0  0  0  0  0  0  0  0  0  0  0
  187.6060  178.0980  146.6100 C   0  0  0  0  0  1  0  0  0  0  0  0
  186.0980  177.3680  148.4000 C   0  0  0  0  0  1  0  0  0  0  0  0
  186.6620  178.5890  147.7050 C   0  0  0  0  0  0  0  0  0  0  0  0
  187.4450  179.3860  148.7440 C   0  0  0  0  0  1  0  0  0  0  0  0
  2  9  1  0  0  0  0
  2 15  2  0  0  0  0
  3 10  2  0  0  0  0
  3 14  1  0  0  0  0
  4  8  1  0  0  0  0
  6  5  1  0  0  0  0
  7 10  1  0  0  0  0
  7 12  2  0  0  0  0
  8 12  1  0  0  0  0
  8 18  1  0  0  0  0
  9  1  2  0  0  0  0
 10 13  1  0  0  0  0
 11  4  2  0  0  0  0
 12 13  1  0  0  0  0
 13  5  2  0  0  0  0
 14 47  1  0  0  0  0
 14  6  2  0  0  0  0
 15 11  1  0  0  0  0
 16  2  1  0  0  0  0
 17  1  1  6  0  0  0
 17  4  1  0  0  0  0
 17  7  1  0  0  0  0
 19 18  1  0  0  0  0
 19 21  1  0  0  0  0
 20 22  1  0  0  0  0
 21 20  2  0  0  0  0
 22 24  1  0  0  0  0
 22 23  1  1  0  0  0
 25 40  1  1  0  0  0
 25 28  1  0  0  0  0
 25 24  1  0  0  0  0
 26 30  1  1  0  0  0
 26 28  1  0  0  0  0
 28 27  1  1  0  0  0
 29 26  1  0  0  0  0
 29 28  1  0  0  0  0
 30 31  1  0  0  0  0
 32 31  1  0  0  0  0
 33 32  1  0  0  0  0
 34 33  1  0  0  0  0
 34 35  1  0  0  0  0
 35 36  1  0  0  0  0
 36 37  1  0  0  0  0
 37 39  2  0  0  0  0
 37 38  1  0  0  0  0
 41 42  1  0  0  0  0
 42 40  1  0  0  0  0
 43 15  1  0  0  0  0
 43 44  1  0  0  0  0
 46 44  1  0  0  0  0
 46 45  1  0  0  0  0
 47 48  1  0  0  0  0
 49 50  1  0  0  0  0
 50 52  2  0  0  0  0
 50 48  1  0  0  0  0
 51 53  2  0  0  0  0
 52 57  1  0  0  0  0
 53 52  1  0  0  0  0
 54 51  1  0  0  0  0
 54 49  2  0  0  0  0
 55 59  1  0  0  0  0
 56 55  2  0  0  0  0
 57 55  1  0  0  0  0
 59 58  1  0  0  0  0
 59 60  1  0  0  0  0
 60 63  1  0  0  0  0
 61 63  1  0  0  0  0
 63 62  1  0  0  0  0
 63 64  1  0  0  0  0
M  END
>  <MODEL>
6

>  <REMARK>
 VINA RESULT:      -4.1      2.482     10.115
  Name = 
  26 active torsions:
  status: ('A' for Active; 'I' for Inactive)
    1  A    between atoms: O_2  and  C_5
    2  A    between atoms: O_2  and  C_12
    3  A    between atoms: C_5  and  C_23
    4  A    between atoms: C_9  and  C_31
    5  A    between atoms: C_12  and  C_36
    6  A    between atoms: C_12  and  C_51
    7  A    between atoms: N_16  and  C_18
    8  A    between atoms: N_16  and  C_44
    9  A    between atoms: O_17  and  C_45
   10  A    between atoms: O_17  and  C_57
   11  A    between atoms: C_18  and  C_34
   12  A    between atoms: O_20  and  C_48
   13  A    between atoms: O_20  and  C_54
   14  A    between atoms: N_21  and  C_50
   15  A    between atoms: N_22  and  C_41
   16  A    between atoms: C_24  and  C_48
   17  A    between atoms: C_26  and  C_61
   18  A    between atoms: C_27  and  C_36
   19  A    between atoms: C_31  and  C_38
   20  A    between atoms: C_38  and  N_53
   21  A    between atoms: C_41  and  C_61
   22  A    between atoms: C_45  and  C_49
   23  A    between atoms: C_46  and  O_55
   24  A    between atoms: C_52  and  N_53
   25  A    between atoms: C_52  and  C_54
   26  A    between atoms: O_55  and  N_58
                            x       y       z     vdW  Elec       q    Type
                         _______ _______ _______ _____ _____    ______ ____

>  <TORSDO>
F 26

$$$$
=
 OpenBabel11042414323D

 64 69  0  0  1  0  0  0  0  0999 V2000
  188.9820  172.9610  138.6860 C   0  0  0  0  0  3  0  0  0  0  0  0
  189.3770  173.4020  136.2440 C   0  0  0  0  0  0  0  0  0  0  0  0
  190.2240  173.1670  143.0070 C   0  0  0  0  0  3  0  0  0  0  0  0
  191.2140  171.9960  138.2730 C   0  0  0  0  0  0  0  0  0  0  0  0
  191.9110  170.8070  142.9640 C   0  0  0  0  0  3  0  0  0  0  0  0
  191.4910  171.3920  144.1840 C   0  0  0  0  0  3  0  0  0  0  0  0
  190.6910  172.5660  140.3870 C   0  0  0  0  0  0  0  0  0  0  0  0
  191.8300  170.9980  139.1310 N   0  0  0  0  0  0  0  0  0  0  0  0
  188.5390  173.1340  137.4410 C   0  0  0  0  0  3  0  0  0  0  0  0
  190.6640  172.5560  141.8500 C   0  0  0  0  0  0  0  0  0  0  0  0
  191.3000  171.9500  136.9470 C   0  0  0  0  0  3  0  0  0  0  0  0
  191.4260  171.5040  140.3740 C   0  0  0  0  0  0  0  0  0  0  0  0
  191.4520  171.4540  141.8310 C   0  0  0  0  0  0  0  0  0  0  0  0
  190.6620  172.5540  144.2160 C   0  0  0  0  0  0  0  0  0  0  0  0
  190.6000  172.8530  136.0030 C   0  0  0  0  0  0  0  0  0  0  0  0
  188.8060  174.2480  135.3000 O   0  0  0  0  0  1  0  0  0  0  0  0
  190.4250  173.0760  139.0300 C   0  0  2  0  0  3  0  0  0  0  0  0
  193.0500  170.2440  138.8540 C   0  0  0  0  0  2  0  0  0  0  0  0
  193.8040  170.8610  137.6840 C   0  0  0  0  0  2  0  0  0  0  0  0
  196.0500  171.6720  138.1900 C   0  0  0  0  0  3  0  0  0  0  0  0
  195.2700  170.6490  137.8470 C   0  0  0  0  0  3  0  0  0  0  0  0
  197.5280  171.5040  138.3560 C   0  0  2  0  0  3  0  0  0  0  0  0
  197.9380  170.0840  137.9990 C   0  0  0  0  0  1  0  0  0  0  0  0
  197.8750  171.7640  139.6860 O   0  0  0  0  0  0  0  0  0  0  0  0
  196.7310  172.3380  140.2630 C   0  0  1  0  0  3  0  0  0  0  0  0
  196.8060  171.5450  142.7780 C   0  0  2  0  0  3  0  0  0  0  0  0
  194.9250  170.9310  141.2810 O   0  0  0  0  0  1  0  0  0  0  0  0
  196.2000  171.4820  141.4180 C   0  0  1  0  0  0  0  0  0  0  0  0
  197.1270  170.5210  141.8610 O   0  0  0  0  0  0  0  0  0  0  0  0
  195.8910  170.9910  143.8600 C   0  0  0  0  0  2  0  0  0  0  0  0
  195.9330  171.8300  144.9840 O   0  0  0  0  0  0  0  0  0  0  0  0
  195.7100  173.1220  144.4920 C   0  0  0  0  0  2  0  0  0  0  0  0
  196.4170  174.1650  145.3480 C   0  0  0  0  0  2  0  0  0  0  0  0
  196.1550  175.5010  144.8480 N   0  0  0  0  0  2  0  0  0  0  0  0
  194.8780  175.4310  144.1660 C   0  0  0  0  0  2  0  0  0  0  0  0
  193.8760  176.3790  144.8150 C   0  0  0  0  0  2  0  0  0  0  0  0
  194.5430  177.3100  145.7820 C   0  0  0  0  0  0  0  0  0  0  0  0
  195.3480  178.3490  145.3250 O   0  0  0  0  0  0  0  0  0  0  0  0
  194.4120  177.1250  147.0210 O   0  0  0  0  0  1  0  0  0  0  0  0
  197.0180  173.7720  140.7050 C   0  0  0  0  0  2  0  0  0  0  0  0
  194.9300  174.0070  139.5660 O   0  0  0  0  0  1  0  0  0  0  0  0
  195.9230  174.7200  140.2390 C   0  0  0  0  0  2  0  0  0  0  0  0
  191.2880  173.0630  134.7950 O   0  0  0  0  0  0  0  0  0  0  0  0
  192.5060  173.7880  134.6520 C   0  0  0  0  0  2  0  0  0  0  0  0
  193.1700  176.0120  135.1930 O   0  0  0  0  0  1  0  0  0  0  0  0
  192.2050  175.2690  134.5130 C   0  0  0  0  0  2  0  0  0  0  0  0
  190.2740  173.0860  145.4870 N   0  0  0  0  0  2  0  0  0  0  0  0
  189.3720  174.2170  145.6470 C   0  0  0  0  0  2  0  0  0  0  0  0
  190.9510  174.8940  147.4540 C   0  0  0  0  0  3  0  0  0  0  0  0
  190.0050  175.2700  146.4950 C   0  0  0  0  0  0  0  0  0  0  0  0
  191.2400  177.1530  148.1160 C   0  0  0  0  0  3  0  0  0  0  0  0
  189.6730  176.6280  146.3470 C   0  0  0  0  0  0  0  0  0  0  0  0
  190.3020  177.5720  147.1700 C   0  0  0  0  0  3  0  0  0  0  0  0
  191.5410  175.8320  148.2380 N   0  0  0  0  0  0  0  0  0  0  0  0
  187.2570  176.9640  145.5420 C   0  0  0  0  0  0  0  0  0  0  0  0
  186.7460  176.7280  146.6700 O   0  0  0  0  0  0  0  0  0  0  0  0
  188.6850  177.0190  145.3810 N   0  0  0  0  0  2  0  0  0  0  0  0
  186.9620  177.1630  143.0780 C   0  0  0  0  0  1  0  0  0  0  0  0
  186.4030  177.2170  144.4200 N   0  0  0  0  0  0  0  0  0  0  0  0
  185.0470  177.2140  144.5820 O   0  0  0  0  0  0  0  0  0  0  0  0
  183.8550  178.6990  146.1320 C   0  0  0  0  0  1  0  0  0  0  0  0
  183.6320  178.8940  143.6980 C   0  0  0  0  0  1  0  0  0  0  0  0
  184.5990  178.5420  144.8080 C   0  0  0  0  0  0  0  0  0  0  0  0
  185.7520  179.5380  144.7420 C   0  0  0  0  0  1  0  0  0  0  0  0
  2  9  1  0  0  0  0
  3 14  1  0  0  0  0
  4 17  1  0  0  0  0
  4  8  1  0  0  0  0
  5  6  1  0  0  0  0
  6 14  2  0  0  0  0
  7 10  1  0  0  0  0
  8 12  1  0  0  0  0
  9  1  2  0  0  0  0
 10  3  2  0  0  0  0
 11  4  2  0  0  0  0
 12  7  2  0  0  0  0
 12 13  1  0  0  0  0
 13 10  1  0  0  0  0
 13  5  2  0  0  0  0
 14 47  1  0  0  0  0
 15  2  2  0  0  0  0
 15 11  1  0  0  0  0
 16  2  1  0  0  0  0
 17  1  1  6  0  0  0
 17  7  1  0  0  0  0
 18  8  1  0  0  0  0
 19 21  1  0  0  0  0
 19 18  1  0  0  0  0
 20 22  1  0  0  0  0
 21 20  2  0  0  0  0
 22 23  1  1  0  0  0
 22 24  1  0  0  0  0
 24 25  1  0  0  0  0
 25 40  1  1  0  0  0
 25 28  1  0  0  0  0
 26 30  1  1  0  0  0
 28 27  1  6  0  0  0
 28 29  1  0  0  0  0
 28 26  1  0  0  0  0
 29 26  1  0  0  0  0
 30 31  1  0  0  0  0
 32 31  1  0  0  0  0
 32 33  1  0  0  0  0
 34 33  1  0  0  0  0
 35 36  1  0  0  0  0
 35 34  1  0  0  0  0
 36 37  1  0  0  0  0
 37 39  1  0  0  0  0
 38 37  2  0  0  0  0
 41 42  1  0  0  0  0
 42 40  1  0  0  0  0
 43 15  1  0  0  0  0
 44 43  1  0  0  0  0
 46 44  1  0  0  0  0
 46 45  1  0  0  0  0
 47 48  1  0  0  0  0
 48 50  1  0  0  0  0
 49 54  1  0  0  0  0
 50 49  2  0  0  0  0
 51 54  2  0  0  0  0
 52 50  1  0  0  0  0
 52 53  2  0  0  0  0
 53 51  1  0  0  0  0
 55 56  2  0  0  0  0
 57 55  1  0  0  0  0
 57 52  1  0  0  0  0
 58 59  1  0  0  0  0
 59 60  1  0  0  0  0
 59 55  1  0  0  0  0
 60 63  1  0  0  0  0
 62 63  1  0  0  0  0
 63 61  1  0  0  0  0
 64 63  1  0  0  0  0
M  END
>  <MODEL>
7

>  <REMARK>
 VINA RESULT:      -4.1      2.670      9.966
  Name = 
  26 active torsions:
  status: ('A' for Active; 'I' for Inactive)
    1  A    between atoms: O_2  and  C_5
    2  A    between atoms: O_2  and  C_12
    3  A    between atoms: C_5  and  C_23
    4  A    between atoms: C_9  and  C_31
    5  A    between atoms: C_12  and  C_36
    6  A    between atoms: C_12  and  C_51
    7  A    between atoms: N_16  and  C_18
    8  A    between atoms: N_16  and  C_44
    9  A    between atoms: O_17  and  C_45
   10  A    between atoms: O_17  and  C_57
   11  A    between atoms: C_18  and  C_34
   12  A    between atoms: O_20  and  C_48
   13  A    between atoms: O_20  and  C_54
   14  A    between atoms: N_21  and  C_50
   15  A    between atoms: N_22  and  C_41
   16  A    between atoms: C_24  and  C_48
   17  A    between atoms: C_26  and  C_61
   18  A    between atoms: C_27  and  C_36
   19  A    between atoms: C_31  and  C_38
   20  A    between atoms: C_38  and  N_53
   21  A    between atoms: C_41  and  C_61
   22  A    between atoms: C_45  and  C_49
   23  A    between atoms: C_46  and  O_55
   24  A    between atoms: C_52  and  N_53
   25  A    between atoms: C_52  and  C_54
   26  A    between atoms: O_55  and  N_58
                            x       y       z     vdW  Elec       q    Type
                         _______ _______ _______ _____ _____    ______ ____

>  <TORSDO>
F 26

$$$$
=
 OpenBabel11042414323D

 64 69  0  0  1  0  0  0  0  0999 V2000
  195.6880  174.1310  145.3600 C   0  0  0  0  0  3  0  0  0  0  0  0
  197.0450  172.0580  144.9380 C   0  0  0  0  0  0  0  0  0  0  0  0
  191.8360  176.4520  145.2060 C   0  0  0  0  0  3  0  0  0  0  0  0
  195.2910  173.6510  142.9750 C   0  0  0  0  0  0  0  0  0  0  0  0
  192.0970  177.3160  142.4490 C   0  0  0  0  0  3  0  0  0  0  0  0
  191.1610  177.9170  143.3250 C   0  0  0  0  0  3  0  0  0  0  0  0
  193.7680  174.9010  144.0630 C   0  0  0  0  0  0  0  0  0  0  0  0
  194.8190  174.6430  142.0230 N   0  0  0  0  0  0  0  0  0  0  0  0
  196.7340  173.3440  145.6140 C   0  0  0  0  0  3  0  0  0  0  0  0
  192.7290  175.9020  144.3080 C   0  0  0  0  0  0  0  0  0  0  0  0
  196.2260  172.7560  142.6700 C   0  0  0  0  0  3  0  0  0  0  0  0
  193.8940  175.3030  142.8410 C   0  0  0  0  0  0  0  0  0  0  0  0
  192.8510  176.3070  143.0210 C   0  0  0  0  0  0  0  0  0  0  0  0
  191.0220  177.4970  144.6830 C   0  0  0  0  0  0  0  0  0  0  0  0
  196.8470  171.7990  143.6160 C   0  0  0  0  0  0  0  0  0  0  0  0
  197.6260  171.0900  145.7480 O   0  0  0  0  0  1  0  0  0  0  0  0
  194.6470  173.7580  144.3660 C   0  0  2  0  0  3  0  0  0  0  0  0
  194.7440  174.4900  140.5720 C   0  0  0  0  0  2  0  0  0  0  0  0
  194.5220  173.0320  140.1990 C   0  0  0  0  0  2  0  0  0  0  0  0
  192.6550  171.6540  139.4390 C   0  0  0  0  0  3  0  0  0  0  0  0
  193.2000  172.8650  139.5310 C   0  0  0  0  0  3  0  0  0  0  0  0
  191.3330  171.4420  138.7710 C   0  0  2  0  0  3  0  0  0  0  0  0
  191.4160  170.2710  137.8050 C   0  0  0  0  0  1  0  0  0  0  0  0
  190.9830  172.5980  138.0650 O   0  0  0  0  0  0  0  0  0  0  0  0
  189.6120  172.4650  137.7910 C   0  0  1  0  0  3  0  0  0  0  0  0
  188.6830  174.7470  138.7330 C   0  0  2  0  0  3  0  0  0  0  0  0
  187.7870  172.5660  139.5040 O   0  0  0  0  0  1  0  0  0  0  0  0
  188.7640  173.2600  138.7890 C   0  0  1  0  0  0  0  0  0  0  0  0
  189.5350  174.0760  139.6370 O   0  0  0  0  0  0  0  0  0  0  0  0
  187.4820  175.3030  139.4820 C   0  0  0  0  0  2  0  0  0  0  0  0
  187.8440  175.5770  140.8100 O   0  0  0  0  0  0  0  0  0  0  0  0
  187.7960  176.9710  140.9300 C   0  0  0  0  0  2  0  0  0  0  0  0
  186.5870  177.5420  140.2000 C   0  0  0  0  0  2  0  0  0  0  0  0
  185.8210  178.4060  141.0780 N   0  0  0  0  0  2  0  0  0  0  0  0
  186.1410  177.9900  142.4300 C   0  0  0  0  0  2  0  0  0  0  0  0
  184.8760  177.9240  143.2790 C   0  0  0  0  0  2  0  0  0  0  0  0
  184.7950  179.0720  144.2390 C   0  0  0  0  0  0  0  0  0  0  0  0
  183.9350  179.0230  145.3310 O   0  0  0  0  0  1  0  0  0  0  0  0
  185.4770  180.1100  144.0310 O   0  0  0  0  0  0  0  0  0  0  0  0
  189.3150  172.8660  136.3470 C   0  0  0  0  0  2  0  0  0  0  0  0
  190.7790  174.5540  135.4990 O   0  0  0  0  0  1  0  0  0  0  0  0
  190.5960  173.1740  135.5870 C   0  0  0  0  0  2  0  0  0  0  0  0
  197.2690  170.5980  143.0190 O   0  0  0  0  0  0  0  0  0  0  0  0
  196.7680  170.0590  141.7990 C   0  0  0  0  0  2  0  0  0  0  0  0
  195.2430  168.4280  142.6330 O   0  0  0  0  0  1  0  0  0  0  0  0
  196.4650  168.5820  141.9790 C   0  0  0  0  0  2  0  0  0  0  0  0
  190.0560  178.1550  145.5090 N   0  0  0  0  0  2  0  0  0  0  0  0
  188.6880  178.4230  145.0940 C   0  0  0  0  0  2  0  0  0  0  0  0
  187.1260  178.7620  147.0080 C   0  0  0  0  0  3  0  0  0  0  0  0
  187.7250  177.8840  146.0990 C   0  0  0  0  0  0  0  0  0  0  0  0
  185.9170  176.9800  148.0000 C   0  0  0  0  0  3  0  0  0  0  0  0
  187.4040  176.5160  146.1470 C   0  0  0  0  0  0  0  0  0  0  0  0
  186.4900  176.0680  147.1110 C   0  0  0  0  0  3  0  0  0  0  0  0
  186.2460  178.2980  147.9310 N   0  0  0  0  0  0  0  0  0  0  0  0
  189.1070  174.6940  145.5290 C   0  0  0  0  0  0  0  0  0  0  0  0
  189.4690  174.4930  146.7190 O   0  0  0  0  0  0  0  0  0  0  0  0
  188.0320  175.6040  145.2330 N   0  0  0  0  0  2  0  0  0  0  0  0
  189.5730  174.4390  143.0960 C   0  0  0  0  0  1  0  0  0  0  0  0
  189.7490  173.9810  144.4660 N   0  0  0  0  0  0  0  0  0  0  0  0
  190.7360  173.0800  144.7500 O   0  0  0  0  0  0  0  0  0  0  0  0
  191.6640  170.8970  144.1160 C   0  0  0  0  0  1  0  0  0  0  0  0
  191.2200  172.6600  142.4710 C   0  0  0  0  0  1  0  0  0  0  0  0
  190.7300  172.0540  143.7690 C   0  0  0  0  0  0  0  0  0  0  0  0
  189.3210  171.5250  143.5230 C   0  0  0  0  0  1  0  0  0  0  0  0
  1  9  2  0  0  0  0
  2  9  1  0  0  0  0
  2 16  1  0  0  0  0
  4 17  1  0  0  0  0
  5 13  2  0  0  0  0
  5  6  1  0  0  0  0
  6 14  2  0  0  0  0
  7 10  1  0  0  0  0
  7 17  1  0  0  0  0
  8 12  1  0  0  0  0
  8  4  1  0  0  0  0
 10  3  2  0  0  0  0
 11  4  2  0  0  0  0
 11 15  1  0  0  0  0
 12 13  1  0  0  0  0
 12  7  2  0  0  0  0
 13 10  1  0  0  0  0
 14  3  1  0  0  0  0
 14 47  1  0  0  0  0
 15  2  2  0  0  0  0
 17  1  1  1  0  0  0
 18  8  1  0  0  0  0
 19 18  1  0  0  0  0
 20 21  2  0  0  0  0
 21 19  1  0  0  0  0
 22 23  1  6  0  0  0
 22 20  1  0  0  0  0
 24 22  1  0  0  0  0
 25 40  1  6  0  0  0
 25 24  1  0  0  0  0
 25 28  1  0  0  0  0
 26 28  1  0  0  0  0
 26 30  1  1  0  0  0
 26 29  1  0  0  0  0
 28 27  1  1  0  0  0
 28 29  1  0  0  0  0
 30 31  1  0  0  0  0
 31 32  1  0  0  0  0
 33 32  1  0  0  0  0
 33 34  1  0  0  0  0
 34 35  1  0  0  0  0
 35 36  1  0  0  0  0
 36 37  1  0  0  0  0
 37 38  1  0  0  0  0
 39 37  2  0  0  0  0
 41 42  1  0  0  0  0
 42 40  1  0  0  0  0
 43 15  1  0  0  0  0
 44 46  1  0  0  0  0
 44 43  1  0  0  0  0
 46 45  1  0  0  0  0
 48 47  1  0  0  0  0
 48 50  1  0  0  0  0
 49 54  1  0  0  0  0
 50 52  1  0  0  0  0
 50 49  2  0  0  0  0
 52 53  2  0  0  0  0
 53 51  1  0  0  0  0
 54 51  2  0  0  0  0
 55 56  2  0  0  0  0
 57 55  1  0  0  0  0
 57 52  1  0  0  0  0
 58 59  1  0  0  0  0
 59 60  1  0  0  0  0
 59 55  1  0  0  0  0
 62 63  1  0  0  0  0
 63 61  1  0  0  0  0
 63 60  1  0  0  0  0
 64 63  1  0  0  0  0
M  END
>  <MODEL>
8

>  <REMARK>
 VINA RESULT:      -3.9      3.309     10.531
  Name = 
  26 active torsions:
  status: ('A' for Active; 'I' for Inactive)
    1  A    between atoms: O_2  and  C_5
    2  A    between atoms: O_2  and  C_12
    3  A    between atoms: C_5  and  C_23
    4  A    between atoms: C_9  and  C_31
    5  A    between atoms: C_12  and  C_36
    6  A    between atoms: C_12  and  C_51
    7  A    between atoms: N_16  and  C_18
    8  A    between atoms: N_16  and  C_44
    9  A    between atoms: O_17  and  C_45
   10  A    between atoms: O_17  and  C_57
   11  A    between atoms: C_18  and  C_34
   12  A    between atoms: O_20  and  C_48
   13  A    between atoms: O_20  and  C_54
   14  A    between atoms: N_21  and  C_50
   15  A    between atoms: N_22  and  C_41
   16  A    between atoms: C_24  and  C_48
   17  A    between atoms: C_26  and  C_61
   18  A    between atoms: C_27  and  C_36
   19  A    between atoms: C_31  and  C_38
   20  A    between atoms: C_38  and  N_53
   21  A    between atoms: C_41  and  C_61
   22  A    between atoms: C_45  and  C_49
   23  A    between atoms: C_46  and  O_55
   24  A    between atoms: C_52  and  N_53
   25  A    between atoms: C_52  and  C_54
   26  A    between atoms: O_55  and  N_58
                            x       y       z     vdW  Elec       q    Type
                         _______ _______ _______ _____ _____    ______ ____

>  <TORSDO>
F 26

$$$$
=
 OpenBabel11042414323D

 64 69  0  0  1  0  0  0  0  0999 V2000
  195.6200  172.4780  145.4440 C   0  0  0  0  0  3  0  0  0  0  0  0
  196.8530  170.2880  145.4810 C   0  0  0  0  0  0  0  0  0  0  0  0
  192.5670  175.2830  143.6950 C   0  0  0  0  0  3  0  0  0  0  0  0
  196.4720  172.2500  143.1410 C   0  0  0  0  0  0  0  0  0  0  0  0
  194.2670  176.3290  141.5890 C   0  0  0  0  0  3  0  0  0  0  0  0
  193.0570  176.9730  141.9500 C   0  0  0  0  0  3  0  0  0  0  0  0
  194.6980  173.5940  143.4770 C   0  0  0  0  0  0  0  0  0  0  0  0
  196.6260  173.3690  142.2270 N   0  0  0  0  0  0  0  0  0  0  0  0
  196.3300  171.5440  146.0780 C   0  0  0  0  0  3  0  0  0  0  0  0
  193.7540  174.6980  143.3020 C   0  0  0  0  0  0  0  0  0  0  0  0
  197.3660  171.2690  143.2280 C   0  0  0  0  0  3  0  0  0  0  0  0
  195.4610  174.0750  142.5520 C   0  0  0  0  0  0  0  0  0  0  0  0
  194.5470  175.1870  142.3180 C   0  0  0  0  0  0  0  0  0  0  0  0
  192.2120  176.4650  142.9830 C   0  0  0  0  0  0  0  0  0  0  0  0
  197.3450  170.1660  144.2170 C   0  0  0  0  0  0  0  0  0  0  0  0
  196.8670  169.1900  146.3320 O   0  0  0  0  0  1  0  0  0  0  0  0
  195.2150  172.3250  144.0210 C   0  0  2  0  0  3  0  0  0  0  0  0
  197.2970  173.3470  140.9290 C   0  0  0  0  0  2  0  0  0  0  0  0
  196.4090  173.9640  139.8580 C   0  0  0  0  0  2  0  0  0  0  0  0
  194.9570  173.0950  138.0990 C   0  0  0  0  0  3  0  0  0  0  0  0
  196.0630  172.9470  138.8260 C   0  0  0  0  0  3  0  0  0  0  0  0
  194.5680  172.0930  137.0570 C   0  0  2  0  0  3  0  0  0  0  0  0
  195.2970  172.3820  135.7550 C   0  0  0  0  0  1  0  0  0  0  0  0
  193.1890  172.1660  136.8400 O   0  0  0  0  0  0  0  0  0  0  0  0
  192.7980  170.8630  136.4910 C   0  0  1  0  0  3  0  0  0  0  0  0
  192.6050  170.4990  139.0960 C   0  0  2  0  0  3  0  0  0  0  0  0
  191.1550  169.2670  137.5050 O   0  0  0  0  0  1  0  0  0  0  0  0
  192.2580  170.0980  137.7030 C   0  0  1  0  0  0  0  0  0  0  0  0
  193.2670  169.4430  138.4330 O   0  0  0  0  0  0  0  0  0  0  0  0
  191.6480  169.9300  140.1320 C   0  0  0  0  0  2  0  0  0  0  0  0
  191.2400  170.9510  141.0040 O   0  0  0  0  0  0  0  0  0  0  0  0
  190.9440  170.3120  142.2140 C   0  0  0  0  0  2  0  0  0  0  0  0
  190.3250  171.2830  143.2100 C   0  0  0  0  0  2  0  0  0  0  0  0
  190.5940  172.6550  142.8230 N   0  0  0  0  0  2  0  0  0  0  0  0
  189.3280  173.2030  142.3800 C   0  0  0  0  0  2  0  0  0  0  0  0
  189.5500  174.2330  141.2780 C   0  0  0  0  0  2  0  0  0  0  0  0
  188.5460  174.0860  140.1750 C   0  0  0  0  0  0  0  0  0  0  0  0
  188.4240  172.8860  139.4830 O   0  0  0  0  0  0  0  0  0  0  0  0
  187.8360  175.0710  139.8410 O   0  0  0  0  0  1  0  0  0  0  0  0
  191.7880  170.8970  135.3450 C   0  0  0  0  0  2  0  0  0  0  0  0
  189.4880  171.4890  135.0760 O   0  0  0  0  0  1  0  0  0  0  0  0
  190.3660  170.7400  135.8610 C   0  0  0  0  0  2  0  0  0  0  0  0
  197.9290  168.9730  143.7550 O   0  0  0  0  0  0  0  0  0  0  0  0
  197.4340  168.1690  142.6890 C   0  0  0  0  0  2  0  0  0  0  0  0
  195.4480  168.2150  141.3730 O   0  0  0  0  0  1  0  0  0  0  0  0
  195.9160  168.2000  142.6860 C   0  0  0  0  0  2  0  0  0  0  0  0
  191.0080  177.1720  143.2940 N   0  0  0  0  0  2  0  0  0  0  0  0
  190.7410  177.7820  144.5880 C   0  0  0  0  0  2  0  0  0  0  0  0
  191.4770  176.4840  146.5860 C   0  0  0  0  0  3  0  0  0  0  0  0
  190.4970  176.7300  145.6180 C   0  0  0  0  0  0  0  0  0  0  0  0
  190.1350  174.7990  147.5780 C   0  0  0  0  0  3  0  0  0  0  0  0
  189.3050  175.9860  145.6380 C   0  0  0  0  0  0  0  0  0  0  0  0
  189.1300  175.0130  146.6320 C   0  0  0  0  0  3  0  0  0  0  0  0
  191.2790  175.5330  147.5340 N   0  0  0  0  0  0  0  0  0  0  0  0
  186.9420  176.6230  144.8540 C   0  0  0  0  0  0  0  0  0  0  0  0
  186.5630  177.0050  145.9940 O   0  0  0  0  0  0  0  0  0  0  0  0
  188.3040  176.2150  144.6340 N   0  0  0  0  0  2  0  0  0  0  0  0
  186.3400  175.8950  142.5510 C   0  0  0  0  0  1  0  0  0  0  0  0
  186.0150  176.6310  143.7640 N   0  0  0  0  0  0  0  0  0  0  0  0
  184.7350  177.0650  143.9610 O   0  0  0  0  0  0  0  0  0  0  0  0
  183.5260  178.3440  142.2490 C   0  0  0  0  0  1  0  0  0  0  0  0
  185.9000  178.7210  142.7330 C   0  0  0  0  0  1  0  0  0  0  0  0
  184.5750  178.3400  143.3580 C   0  0  0  0  0  0  0  0  0  0  0  0
  184.2350  179.4070  144.3940 C   0  0  0  0  0  1  0  0  0  0  0  0
  1  9  2  0  0  0  0
  2  9  1  0  0  0  0
  2 16  1  0  0  0  0
  4 11  2  0  0  0  0
  4 17  1  0  0  0  0
  5  6  2  0  0  0  0
  5 13  1  0  0  0  0
  6 14  1  0  0  0  0
  7 17  1  0  0  0  0
  8 12  1  0  0  0  0
  8  4  1  0  0  0  0
 10  7  1  0  0  0  0
 10  3  1  0  0  0  0
 11 15  1  0  0  0  0
 12  7  2  0  0  0  0
 13 12  1  0  0  0  0
 13 10  2  0  0  0  0
 14 47  1  0  0  0  0
 14  3  2  0  0  0  0
 15  2  2  0  0  0  0
 17  1  1  1  0  0  0
 18  8  1  0  0  0  0
 19 18  1  0  0  0  0
 20 21  2  0  0  0  0
 21 19  1  0  0  0  0
 22 23  1  6  0  0  0
 22 20  1  0  0  0  0
 24 22  1  0  0  0  0
 25 40  1  6  0  0  0
 25 24  1  0  0  0  0
 25 28  1  0  0  0  0
 26 30  1  1  0  0  0
 28 27  1  6  0  0  0
 28 29  1  0  0  0  0
 28 26  1  0  0  0  0
 29 26  1  0  0  0  0
 30 31  1  0  0  0  0
 31 32  1  0  0  0  0
 32 33  1  0  0  0  0
 34 33  1  0  0  0  0
 35 34  1  0  0  0  0
 36 35  1  0  0  0  0
 37 36  1  0  0  0  0
 38 37  2  0  0  0  0
 39 37  1  0  0  0  0
 40 42  1  0  0  0  0
 41 42  1  0  0  0  0
 43 15  1  0  0  0  0
 44 43  1  0  0  0  0
 45 46  1  0  0  0  0
 46 44  1  0  0  0  0
 47 48  1  0  0  0  0
 48 50  1  0  0  0  0
 49 54  1  0  0  0  0
 50 52  1  0  0  0  0
 50 49  2  0  0  0  0
 52 53  2  0  0  0  0
 53 51  1  0  0  0  0
 54 51  2  0  0  0  0
 55 56  2  0  0  0  0
 57 55  1  0  0  0  0
 57 52  1  0  0  0  0
 58 59  1  0  0  0  0
 59 60  1  0  0  0  0
 59 55  1  0  0  0  0
 61 63  1  0  0  0  0
 62 63  1  0  0  0  0
 63 60  1  0  0  0  0
 63 64  1  0  0  0  0
M  END
>  <MODEL>
9

>  <REMARK>
 VINA RESULT:      -3.8      2.858     10.531
  Name = 
  26 active torsions:
  status: ('A' for Active; 'I' for Inactive)
    1  A    between atoms: O_2  and  C_5
    2  A    between atoms: O_2  and  C_12
    3  A    between atoms: C_5  and  C_23
    4  A    between atoms: C_9  and  C_31
    5  A    between atoms: C_12  and  C_36
    6  A    between atoms: C_12  and  C_51
    7  A    between atoms: N_16  and  C_18
    8  A    between atoms: N_16  and  C_44
    9  A    between atoms: O_17  and  C_45
   10  A    between atoms: O_17  and  C_57
   11  A    between atoms: C_18  and  C_34
   12  A    between atoms: O_20  and  C_48
   13  A    between atoms: O_20  and  C_54
   14  A    between atoms: N_21  and  C_50
   15  A    between atoms: N_22  and  C_41
   16  A    between atoms: C_24  and  C_48
   17  A    between atoms: C_26  and  C_61
   18  A    between atoms: C_27  and  C_36
   19  A    between atoms: C_31  and  C_38
   20  A    between atoms: C_38  and  N_53
   21  A    between atoms: C_41  and  C_61
   22  A    between atoms: C_45  and  C_49
   23  A    between atoms: C_46  and  O_55
   24  A    between atoms: C_52  and  N_53
   25  A    between atoms: C_52  and  C_54
   26  A    between atoms: O_55  and  N_58
                            x       y       z     vdW  Elec       q    Type
                         _______ _______ _______ _____ _____    ______ ____

>  <TORSDO>
F 26

$$$$
