=
 OpenBabel11042418253D

 28 31  0  0  1  0  0  0  0  0999 V2000
  184.3080  178.6390  142.0790 C   0  0  1  0  0  3  0  0  0  0  0  0
  188.2650  176.1710  141.1540 N   0  0  0  0  0  0  0  0  0  0  0  0
  186.5690  177.1430  139.3430 S   0  0  0  0  0  0  0  0  0  0  0  0
  186.2320  177.4200  141.7180 C   0  0  0  0  0  0  0  0  0  0  0  0
  187.1670  176.8180  140.8850 C   0  0  0  0  0  0  0  0  0  0  0  0
  186.0710  177.5660  143.0710 O   0  0  0  0  0  0  0  0  0  0  0  0
  185.2160  178.0300  141.0770 C   0  0  0  0  0  0  0  0  0  0  0  0
  182.9300  178.0150  141.9700 C   0  0  0  0  0  1  0  0  0  0  0  0
  185.2130  177.9940  139.7580 O   0  0  0  0  0  0  0  0  0  0  0  0
  184.9170  178.2790  143.3870 N   0  0  0  0  0  0  0  0  0  0  0  0
  189.7290  174.7860  146.2510 N   0  0  0  0  0  0  0  0  0  0  0  0
  189.6410  175.1070  144.9920 C   0  0  0  0  0  0  0  0  0  0  0  0
  189.3700  174.1080  144.0070 N   0  0  0  0  0  0  0  0  0  0  0  0
  189.4170  177.1360  146.9140 C   0  0  0  0  0  3  0  0  0  0  0  0
  188.8470  175.8650  142.4310 C   0  0  0  0  0  0  0  0  0  0  0  0
  189.1660  176.8030  143.2770 N   0  0  0  0  0  0  0  0  0  0  0  0
  189.3290  177.4870  145.6220 C   0  0  0  0  0  3  0  0  0  0  0  0
  189.0140  174.4450  142.8030 C   0  0  0  0  0  3  0  0  0  0  0  0
  189.9940  175.7880  147.2950 C   0  0  2  0  0  3  0  0  0  0  0  0
  189.8250  176.5430  144.5580 C   0  0  1  0  0  3  0  0  0  0  0  0
  191.9400  176.8890  148.1670 O   0  0  0  0  0  1  0  0  0  0  0  0
  192.3100  174.8660  147.1600 O   0  0  0  0  0  0  0  0  0  0  0  0
  191.4640  175.8900  147.5660 C   0  0  0  0  0  0  0  0  0  0  0  0
  185.3320  179.5220  144.0270 C   0  0  0  0  0  2  0  0  0  0  0  0
  185.6020  179.2950  145.5070 C   0  0  0  0  0  2  0  0  0  0  0  0
  184.4920  178.4700  146.1300 C   0  0  0  0  0  2  0  0  0  0  0  0
  185.9810  177.4270  147.7310 N   0  0  0  0  0  1  0  0  0  0  0  0
  185.0620  177.1640  146.6380 C   0  0  0  0  0  2  0  0  0  0  0  0
  1  8  1  1  0  0  0
  1 10  1  0  0  0  0
  2 15  1  0  0  0  0
  3  9  1  0  0  0  0
  3  5  1  0  0  0  0
  4  6  1  0  0  0  0
  5  2  2  0  0  0  0
  5  4  1  0  0  0  0
  6 10  1  0  0  0  0
  7  4  2  0  0  0  0
  7  1  1  0  0  0  0
  9  7  1  0  0  0  0
 10 24  1  0  0  0  0
 11 19  1  0  0  0  0
 12 11  2  0  0  0  0
 13 12  1  0  0  0  0
 14 19  1  0  0  0  0
 15 18  1  0  0  0  0
 15 16  2  0  0  0  0
 16 20  1  0  0  0  0
 17 14  2  0  0  0  0
 18 13  2  0  0  0  0
 19 23  1  6  0  0  0
 20 12  1  0  0  0  0
 20 17  1  1  0  0  0
 22 23  2  0  0  0  0
 23 21  1  0  0  0  0
 24 25  1  0  0  0  0
 25 26  1  0  0  0  0
 26 28  1  0  0  0  0
 28 27  1  0  0  0  0
M  END
>  <MODEL>
1

>  <REMARK>
 VINA RESULT:      -6.9      0.000      0.000
  Name = 
  6 active torsions:
  status: ('A' for Active; 'I' for Inactive)
    1  A    between atoms: N_3  and  C_13
    2  A    between atoms: C_6  and  C_23
    3  A    between atoms: C_20  and  C_23
    4  A    between atoms: C_20  and  C_26
    5  A    between atoms: C_22  and  CA_27
    6  A    between atoms: N_24  and  C_26
                            x       y       z     vdW  Elec       q    Type
                         _______ _______ _______ _____ _____    ______ ____

>  <TORSDO>
F 6

$$$$
=
 OpenBabel11042418253D

 28 31  0  0  1  0  0  0  0  0999 V2000
  185.7620  178.6290  144.0240 C   0  0  1  0  0  3  0  0  0  0  0  0
  188.5820  176.1100  146.9060 N   0  0  0  0  0  0  0  0  0  0  0  0
  186.1200  176.9550  147.4750 S   0  0  0  0  0  0  0  0  0  0  0  0
  187.1990  177.4230  145.3660 C   0  0  0  0  0  0  0  0  0  0  0  0
  187.5120  176.7610  146.5460 C   0  0  0  0  0  0  0  0  0  0  0  0
  187.8350  177.6680  144.1770 O   0  0  0  0  0  0  0  0  0  0  0  0
  185.9690  177.9730  145.3370 C   0  0  0  0  0  0  0  0  0  0  0  0
  185.5360  180.1160  144.2220 C   0  0  0  0  0  1  0  0  0  0  0  0
  185.2080  177.8290  146.4060 O   0  0  0  0  0  0  0  0  0  0  0  0
  187.0440  178.4120  143.3040 N   0  0  0  0  0  0  0  0  0  0  0  0
  193.2810  174.5710  144.5430 N   0  0  0  0  0  0  0  0  0  0  0  0
  192.1500  175.1060  144.9020 C   0  0  0  0  0  0  0  0  0  0  0  0
  190.9110  174.4850  144.5520 N   0  0  0  0  0  0  0  0  0  0  0  0
  194.4920  175.9070  146.2190 C   0  0  0  0  0  3  0  0  0  0  0  0
  189.7970  175.8880  146.1740 C   0  0  0  0  0  0  0  0  0  0  0  0
  190.8930  176.5340  146.4590 N   0  0  0  0  0  0  0  0  0  0  0  0
  193.3360  176.4740  146.5990 C   0  0  0  0  0  3  0  0  0  0  0  0
  189.8030  174.8500  145.1240 C   0  0  0  0  0  3  0  0  0  0  0  0
  194.5760  175.1730  144.8960 C   0  0  2  0  0  3  0  0  0  0  0  0
  192.1340  176.3920  145.6950 C   0  0  1  0  0  3  0  0  0  0  0  0
  196.0470  176.8330  143.9780 O   0  0  0  0  0  1  0  0  0  0  0  0
  194.3830  176.0970  142.5860 O   0  0  0  0  0  0  0  0  0  0  0  0
  195.0480  176.0850  143.8050 C   0  0  0  0  0  0  0  0  0  0  0  0
  186.7550  177.5680  142.1500 C   0  0  0  0  0  2  0  0  0  0  0  0
  185.2570  177.5200  141.8870 C   0  0  0  0  0  2  0  0  0  0  0  0
  184.9280  178.1840  140.5640 C   0  0  0  0  0  2  0  0  0  0  0  0
  182.7940  178.2640  141.7090 N   0  0  0  0  0  1  0  0  0  0  0  0
  183.4250  178.2620  140.4010 C   0  0  0  0  0  2  0  0  0  0  0  0
  1  8  1  1  0  0  0
  1  7  1  0  0  0  0
  4  5  1  0  0  0  0
  5  2  2  0  0  0  0
  5  3  1  0  0  0  0
  6  4  1  0  0  0  0
  7  4  2  0  0  0  0
  7  9  1  0  0  0  0
  9  3  1  0  0  0  0
 10  1  1  0  0  0  0
 10  6  1  0  0  0  0
 11 19  1  0  0  0  0
 11 12  2  0  0  0  0
 12 20  1  0  0  0  0
 13 12  1  0  0  0  0
 13 18  2  0  0  0  0
 14 17  2  0  0  0  0
 15 16  2  0  0  0  0
 15  2  1  0  0  0  0
 18 15  1  0  0  0  0
 19 23  1  6  0  0  0
 19 14  1  0  0  0  0
 20 16  1  0  0  0  0
 20 17  1  1  0  0  0
 22 23  2  0  0  0  0
 23 21  1  0  0  0  0
 24 10  1  0  0  0  0
 25 24  1  0  0  0  0
 26 25  1  0  0  0  0
 28 26  1  0  0  0  0
 28 27  1  0  0  0  0
M  END
>  <MODEL>
2

>  <REMARK>
 VINA RESULT:      -6.9      3.070      4.681
  Name = 
  6 active torsions:
  status: ('A' for Active; 'I' for Inactive)
    1  A    between atoms: N_3  and  C_13
    2  A    between atoms: C_6  and  C_23
    3  A    between atoms: C_20  and  C_23
    4  A    between atoms: C_20  and  C_26
    5  A    between atoms: C_22  and  CA_27
    6  A    between atoms: N_24  and  C_26
                            x       y       z     vdW  Elec       q    Type
                         _______ _______ _______ _____ _____    ______ ____

>  <TORSDO>
F 6

$$$$
=
 OpenBabel11042418253D

 28 31  0  0  1  0  0  0  0  0999 V2000
  193.0930  175.5870  142.7720 C   0  0  1  0  0  3  0  0  0  0  0  0
  188.7000  174.4300  141.3710 N   0  0  0  0  0  0  0  0  0  0  0  0
  190.9050  172.9940  140.9500 S   0  0  0  0  0  0  0  0  0  0  0  0
  190.9350  175.1100  142.1130 C   0  0  0  0  0  0  0  0  0  0  0  0
  189.9890  174.2970  141.5020 C   0  0  0  0  0  0  0  0  0  0  0  0
  190.9200  176.3100  142.7740 O   0  0  0  0  0  0  0  0  0  0  0  0
  192.1960  174.6350  142.0750 C   0  0  0  0  0  0  0  0  0  0  0  0
  194.1290  176.1220  141.8020 C   0  0  0  0  0  1  0  0  0  0  0  0
  192.3970  173.4760  141.4770 O   0  0  0  0  0  0  0  0  0  0  0  0
  192.1920  176.6910  143.1970 N   0  0  0  0  0  0  0  0  0  0  0  0
  186.1240  178.9620  143.0620 N   0  0  0  0  0  0  0  0  0  0  0  0
  186.4900  177.7950  142.6180 C   0  0  0  0  0  0  0  0  0  0  0  0
  186.8580  177.6240  141.2470 N   0  0  0  0  0  0  0  0  0  0  0  0
  186.5160  178.2460  145.3850 C   0  0  0  0  0  3  0  0  0  0  0  0
  187.8490  175.4950  141.8210 C   0  0  0  0  0  0  0  0  0  0  0  0
  187.4560  175.5780  143.0610 N   0  0  0  0  0  0  0  0  0  0  0  0
  186.8930  177.0350  144.9450 C   0  0  0  0  0  3  0  0  0  0  0  0
  187.4770  176.5500  140.8560 C   0  0  0  0  0  3  0  0  0  0  0  0
  185.7510  179.1790  144.4690 C   0  0  2  0  0  3  0  0  0  0  0  0
  186.5330  176.6040  143.5480 C   0  0  1  0  0  3  0  0  0  0  0  0
  183.7760  178.8980  145.8050 O   0  0  0  0  0  1  0  0  0  0  0  0
  183.4390  179.0130  143.5420 O   0  0  0  0  0  0  0  0  0  0  0  0
  184.2720  179.0190  144.6530 C   0  0  0  0  0  0  0  0  0  0  0  0
  192.1810  176.7050  144.6550 C   0  0  0  0  0  2  0  0  0  0  0  0
  190.7820  176.9960  145.1760 C   0  0  0  0  0  2  0  0  0  0  0  0
  190.5300  176.2480  146.4710 C   0  0  0  0  0  2  0  0  0  0  0  0
  189.0890  174.5220  147.3740 N   0  0  0  0  0  1  0  0  0  0  0  0
  189.7710  174.9720  146.1740 C   0  0  0  0  0  2  0  0  0  0  0  0
  1  8  1  6  0  0  0
  1 10  1  0  0  0  0
  2  5  2  0  0  0  0
  2 15  1  0  0  0  0
  3  9  1  0  0  0  0
  3  5  1  0  0  0  0
  4  6  1  0  0  0  0
  5  4  1  0  0  0  0
  6 10  1  0  0  0  0
  7  4  2  0  0  0  0
  7  1  1  0  0  0  0
  9  7  1  0  0  0  0
 10 24  1  0  0  0  0
 11 19  1  0  0  0  0
 12 11  2  0  0  0  0
 12 20  1  0  0  0  0
 13 12  1  0  0  0  0
 15 16  2  0  0  0  0
 16 20  1  0  0  0  0
 17 14  2  0  0  0  0
 18 13  2  0  0  0  0
 18 15  1  0  0  0  0
 19 23  1  6  0  0  0
 19 14  1  0  0  0  0
 20 17  1  1  0  0  0
 22 23  2  0  0  0  0
 23 21  1  0  0  0  0
 24 25  1  0  0  0  0
 25 26  1  0  0  0  0
 28 26  1  0  0  0  0
 28 27  1  0  0  0  0
M  END
>  <MODEL>
3

>  <REMARK>
 VINA RESULT:      -6.8      2.870      6.327
  Name = 
  6 active torsions:
  status: ('A' for Active; 'I' for Inactive)
    1  A    between atoms: N_3  and  C_13
    2  A    between atoms: C_6  and  C_23
    3  A    between atoms: C_20  and  C_23
    4  A    between atoms: C_20  and  C_26
    5  A    between atoms: C_22  and  CA_27
    6  A    between atoms: N_24  and  C_26
                            x       y       z     vdW  Elec       q    Type
                         _______ _______ _______ _____ _____    ______ ____

>  <TORSDO>
F 6

$$$$
=
 OpenBabel11042418253D

 28 31  0  0  1  0  0  0  0  0999 V2000
  185.7010  178.2720  143.9340 C   0  0  1  0  0  3  0  0  0  0  0  0
  188.4020  176.0880  147.1790 N   0  0  0  0  0  0  0  0  0  0  0  0
  185.9770  177.1100  147.5950 S   0  0  0  0  0  0  0  0  0  0  0  0
  187.0810  177.2180  145.4500 C   0  0  0  0  0  0  0  0  0  0  0  0
  187.3620  176.7230  146.7180 C   0  0  0  0  0  0  0  0  0  0  0  0
  187.7300  177.2580  144.2440 O   0  0  0  0  0  0  0  0  0  0  0  0
  185.8750  177.8080  145.3300 C   0  0  0  0  0  0  0  0  0  0  0  0
  185.5380  179.7800  143.9090 C   0  0  0  0  0  1  0  0  0  0  0  0
  185.1060  177.8540  146.4020 O   0  0  0  0  0  0  0  0  0  0  0  0
  186.9750  177.8980  143.2640 N   0  0  0  0  0  0  0  0  0  0  0  0
  193.1020  174.0980  145.1820 N   0  0  0  0  0  0  0  0  0  0  0  0
  191.9610  174.6790  145.4160 C   0  0  0  0  0  0  0  0  0  0  0  0
  190.7370  173.9510  145.2830 N   0  0  0  0  0  0  0  0  0  0  0  0
  194.3000  175.8720  146.3970 C   0  0  0  0  0  3  0  0  0  0  0  0
  189.6090  175.7100  146.4980 C   0  0  0  0  0  0  0  0  0  0  0  0
  190.6870  176.4390  146.5660 N   0  0  0  0  0  0  0  0  0  0  0  0
  193.1330  176.4880  146.6440 C   0  0  0  0  0  3  0  0  0  0  0  0
  189.6290  174.4270  145.7680 C   0  0  0  0  0  3  0  0  0  0  0  0
  194.3820  174.8100  145.3200 C   0  0  2  0  0  3  0  0  0  0  0  0
  191.9160  176.1310  145.8330 C   0  0  1  0  0  3  0  0  0  0  0  0
  194.3750  174.9300  142.9230 O   0  0  0  0  0  0  0  0  0  0  0  0
  195.6560  176.4980  143.9950 O   0  0  0  0  0  1  0  0  0  0  0  0
  194.7990  175.4050  144.0100 C   0  0  0  0  0  0  0  0  0  0  0  0
  186.6530  176.9070  142.2440 C   0  0  0  0  0  2  0  0  0  0  0  0
  187.7870  176.7900  141.2370 C   0  0  0  0  0  2  0  0  0  0  0  0
  188.1200  175.3340  140.9770 C   0  0  0  0  0  2  0  0  0  0  0  0
  190.1040  175.6760  142.3250 N   0  0  0  0  0  1  0  0  0  0  0  0
  188.9640  174.8020  142.1150 C   0  0  0  0  0  2  0  0  0  0  0  0
  1  8  1  1  0  0  0
  1  7  1  0  0  0  0
  4  5  1  0  0  0  0
  5  2  2  0  0  0  0
  5  3  1  0  0  0  0
  6  4  1  0  0  0  0
  7  4  2  0  0  0  0
  7  9  1  0  0  0  0
  9  3  1  0  0  0  0
 10  1  1  0  0  0  0
 10  6  1  0  0  0  0
 11 19  1  0  0  0  0
 11 12  2  0  0  0  0
 12 20  1  0  0  0  0
 13 12  1  0  0  0  0
 13 18  2  0  0  0  0
 14 17  2  0  0  0  0
 15 16  2  0  0  0  0
 15  2  1  0  0  0  0
 18 15  1  0  0  0  0
 19 23  1  6  0  0  0
 19 14  1  0  0  0  0
 20 16  1  0  0  0  0
 20 17  1  1  0  0  0
 21 23  2  0  0  0  0
 22 23  1  0  0  0  0
 24 10  1  0  0  0  0
 25 24  1  0  0  0  0
 26 25  1  0  0  0  0
 26 28  1  0  0  0  0
 28 27  1  0  0  0  0
M  END
>  <MODEL>
4

>  <REMARK>
 VINA RESULT:      -6.8      2.949      4.798
  Name = 
  6 active torsions:
  status: ('A' for Active; 'I' for Inactive)
    1  A    between atoms: N_3  and  C_13
    2  A    between atoms: C_6  and  C_23
    3  A    between atoms: C_20  and  C_23
    4  A    between atoms: C_20  and  C_26
    5  A    between atoms: C_22  and  CA_27
    6  A    between atoms: N_24  and  C_26
                            x       y       z     vdW  Elec       q    Type
                         _______ _______ _______ _____ _____    ______ ____

>  <TORSDO>
F 6

$$$$
=
 OpenBabel11042418253D

 28 31  0  0  1  0  0  0  0  0999 V2000
  191.9170  173.5890  143.3580 C   0  0  1  0  0  3  0  0  0  0  0  0
  188.2300  174.9230  140.6700 N   0  0  0  0  0  0  0  0  0  0  0  0
  190.0620  173.1020  140.0180 S   0  0  0  0  0  0  0  0  0  0  0  0
  190.1150  174.3060  142.1110 C   0  0  0  0  0  0  0  0  0  0  0  0
  189.3140  174.2690  140.9760 C   0  0  0  0  0  0  0  0  0  0  0  0
  190.1150  175.0000  143.2920 O   0  0  0  0  0  0  0  0  0  0  0  0
  191.1620  173.4580  142.0890 C   0  0  0  0  0  0  0  0  0  0  0  0
  193.3300  174.0580  143.0700 C   0  0  0  0  0  1  0  0  0  0  0  0
  191.3150  172.6990  141.0200 O   0  0  0  0  0  0  0  0  0  0  0  0
  191.1860  174.6440  144.1090 N   0  0  0  0  0  0  0  0  0  0  0  0
  186.2820  179.0210  143.7450 N   0  0  0  0  0  0  0  0  0  0  0  0
  186.4940  178.0260  142.9320 C   0  0  0  0  0  0  0  0  0  0  0  0
  186.9750  178.2640  141.6070 N   0  0  0  0  0  0  0  0  0  0  0  0
  186.2930  177.4960  145.6770 C   0  0  0  0  0  3  0  0  0  0  0  0
  187.5250  175.9160  141.4310 C   0  0  0  0  0  0  0  0  0  0  0  0
  187.0200  175.6480  142.6020 N   0  0  0  0  0  0  0  0  0  0  0  0
  186.5070  176.4570  144.8540 C   0  0  0  0  0  3  0  0  0  0  0  0
  187.4440  177.2880  140.8880 C   0  0  0  0  0  3  0  0  0  0  0  0
  185.8000  178.8150  145.1190 C   0  0  2  0  0  3  0  0  0  0  0  0
  186.2350  176.6070  143.3800 C   0  0  1  0  0  3  0  0  0  0  0  0
  183.6910  178.7840  146.2650 O   0  0  0  0  0  1  0  0  0  0  0  0
  183.5880  179.1020  143.9990 O   0  0  0  0  0  0  0  0  0  0  0  0
  184.3040  178.8940  145.1700 C   0  0  0  0  0  0  0  0  0  0  0  0
  190.6340  174.0200  145.3060 C   0  0  0  0  0  2  0  0  0  0  0  0
  190.8410  174.9160  146.5180 C   0  0  0  0  0  2  0  0  0  0  0  0
  189.5490  175.6180  146.8880 C   0  0  0  0  0  2  0  0  0  0  0  0
  189.8880  177.6000  145.5360 N   0  0  0  0  0  1  0  0  0  0  0  0
  189.7770  177.1140  146.9000 C   0  0  0  0  0  2  0  0  0  0  0  0
  1  8  1  6  0  0  0
  1 10  1  0  0  0  0
  2  5  2  0  0  0  0
  2 15  1  0  0  0  0
  3  5  1  0  0  0  0
  3  9  1  0  0  0  0
  4  6  1  0  0  0  0
  5  4  1  0  0  0  0
  6 10  1  0  0  0  0
  7  4  2  0  0  0  0
  7  1  1  0  0  0  0
  9  7  1  0  0  0  0
 10 24  1  0  0  0  0
 11 19  1  0  0  0  0
 12 20  1  0  0  0  0
 12 11  2  0  0  0  0
 13 12  1  0  0  0  0
 15 16  2  0  0  0  0
 16 20  1  0  0  0  0
 17 14  2  0  0  0  0
 18 15  1  0  0  0  0
 18 13  2  0  0  0  0
 19 23  1  6  0  0  0
 19 14  1  0  0  0  0
 20 17  1  1  0  0  0
 22 23  2  0  0  0  0
 23 21  1  0  0  0  0
 24 25  1  0  0  0  0
 25 26  1  0  0  0  0
 26 28  1  0  0  0  0
 27 28  1  0  0  0  0
M  END
>  <MODEL>
5

>  <REMARK>
 VINA RESULT:      -6.5      2.699      6.223
  Name = 
  6 active torsions:
  status: ('A' for Active; 'I' for Inactive)
    1  A    between atoms: N_3  and  C_13
    2  A    between atoms: C_6  and  C_23
    3  A    between atoms: C_20  and  C_23
    4  A    between atoms: C_20  and  C_26
    5  A    between atoms: C_22  and  CA_27
    6  A    between atoms: N_24  and  C_26
                            x       y       z     vdW  Elec       q    Type
                         _______ _______ _______ _____ _____    ______ ____

>  <TORSDO>
F 6

$$$$
=
 OpenBabel11042418253D

 28 31  0  0  1  0  0  0  0  0999 V2000
  185.9530  178.1500  145.5960 C   0  0  1  0  0  3  0  0  0  0  0  0
  187.4540  176.2020  141.5260 N   0  0  0  0  0  0  0  0  0  0  0  0
  185.7870  178.2690  141.7500 S   0  0  0  0  0  0  0  0  0  0  0  0
  186.7140  177.1360  143.6690 C   0  0  0  0  0  0  0  0  0  0  0  0
  186.7850  177.0230  142.2870 C   0  0  0  0  0  0  0  0  0  0  0  0
  187.2610  176.4760  144.7390 O   0  0  0  0  0  0  0  0  0  0  0  0
  185.9260  178.1340  144.1140 C   0  0  0  0  0  0  0  0  0  0  0  0
  184.5600  177.8990  146.1390 C   0  0  0  0  0  1  0  0  0  0  0  0
  185.3180  178.8830  143.2120 O   0  0  0  0  0  0  0  0  0  0  0  0
  186.8400  177.0120  145.9550 N   0  0  0  0  0  0  0  0  0  0  0  0
  190.3480  172.0560  143.6400 N   0  0  0  0  0  0  0  0  0  0  0  0
  189.7850  172.9780  142.9130 C   0  0  0  0  0  0  0  0  0  0  0  0
  188.4970  172.7570  142.3340 N   0  0  0  0  0  0  0  0  0  0  0  0
  191.8940  173.7090  144.6090 C   0  0  0  0  0  3  0  0  0  0  0  0
  188.3310  175.1300  141.9020 C   0  0  0  0  0  0  0  0  0  0  0  0
  189.5350  175.3570  142.3460 N   0  0  0  0  0  0  0  0  0  0  0  0
  191.3290  174.6720  143.8640 C   0  0  0  0  0  3  0  0  0  0  0  0
  187.8130  173.7480  141.8430 C   0  0  0  0  0  3  0  0  0  0  0  0
  191.6660  172.2520  144.2630 C   0  0  2  0  0  3  0  0  0  0  0  0
  190.4870  174.2940  142.6730 C   0  0  1  0  0  3  0  0  0  0  0  0
  193.9030  172.2490  143.3920 O   0  0  0  0  0  1  0  0  0  0  0  0
  192.4920  170.6740  142.5140 O   0  0  0  0  0  0  0  0  0  0  0  0
  192.7530  171.7360  143.3700 C   0  0  0  0  0  0  0  0  0  0  0  0
  188.0150  177.5700  146.6160 C   0  0  0  0  0  2  0  0  0  0  0  0
  189.2800  176.8780  146.1300 C   0  0  0  0  0  2  0  0  0  0  0  0
  190.2860  176.7560  147.2580 C   0  0  0  0  0  2  0  0  0  0  0  0
  189.3160  174.5400  147.1180 N   0  0  0  0  0  1  0  0  0  0  0  0
  190.4390  175.2990  147.6380 C   0  0  0  0  0  2  0  0  0  0  0  0
  1 10  1  0  0  0  0
  1  8  1  1  0  0  0
  2 15  1  0  0  0  0
  2  5  2  0  0  0  0
  3  5  1  0  0  0  0
  3  9  1  0  0  0  0
  4  7  2  0  0  0  0
  4  6  1  0  0  0  0
  5  4  1  0  0  0  0
  6 10  1  0  0  0  0
  7  1  1  0  0  0  0
  9  7  1  0  0  0  0
 10 24  1  0  0  0  0
 11 19  1  0  0  0  0
 12 11  2  0  0  0  0
 13 12  1  0  0  0  0
 15 16  2  0  0  0  0
 16 20  1  0  0  0  0
 17 14  2  0  0  0  0
 18 15  1  0  0  0  0
 18 13  2  0  0  0  0
 19 23  1  6  0  0  0
 19 14  1  0  0  0  0
 20 12  1  0  0  0  0
 20 17  1  1  0  0  0
 22 23  2  0  0  0  0
 23 21  1  0  0  0  0
 25 24  1  0  0  0  0
 25 26  1  0  0  0  0
 26 28  1  0  0  0  0
 27 28  1  0  0  0  0
M  END
>  <MODEL>
6

>  <REMARK>
 VINA RESULT:      -6.2      2.435      4.009
  Name = 
  6 active torsions:
  status: ('A' for Active; 'I' for Inactive)
    1  A    between atoms: N_3  and  C_13
    2  A    between atoms: C_6  and  C_23
    3  A    between atoms: C_20  and  C_23
    4  A    between atoms: C_20  and  C_26
    5  A    between atoms: C_22  and  CA_27
    6  A    between atoms: N_24  and  C_26
                            x       y       z     vdW  Elec       q    Type
                         _______ _______ _______ _____ _____    ______ ____

>  <TORSDO>
F 6

$$$$
=
 OpenBabel11042418253D

 28 31  0  0  1  0  0  0  0  0999 V2000
  192.1200  172.5810  143.3910 C   0  0  1  0  0  3  0  0  0  0  0  0
  191.3810  176.4090  146.1110 N   0  0  0  0  0  0  0  0  0  0  0  0
  193.7310  175.2350  145.6690 S   0  0  0  0  0  0  0  0  0  0  0  0
  191.6720  174.4220  144.7050 C   0  0  0  0  0  0  0  0  0  0  0  0
  192.0660  175.4560  145.5450 C   0  0  0  0  0  0  0  0  0  0  0  0
  190.4880  173.9870  144.1680 O   0  0  0  0  0  0  0  0  0  0  0  0
  192.6740  173.6250  144.2850 C   0  0  0  0  0  0  0  0  0  0  0  0
  192.3660  171.2080  143.9880 C   0  0  0  0  0  1  0  0  0  0  0  0
  193.8950  173.9020  144.7040 O   0  0  0  0  0  0  0  0  0  0  0  0
  190.6600  172.8600  143.3680 N   0  0  0  0  0  0  0  0  0  0  0  0
  185.9360  176.6680  145.5400 N   0  0  0  0  0  0  0  0  0  0  0  0
  187.1960  176.8170  145.8330 C   0  0  0  0  0  0  0  0  0  0  0  0
  187.7910  176.0490  146.8820 N   0  0  0  0  0  0  0  0  0  0  0  0
  186.2770  177.7420  143.3510 C   0  0  0  0  0  3  0  0  0  0  0  0
  189.9710  176.6740  146.0450 C   0  0  0  0  0  0  0  0  0  0  0  0
  189.4640  177.4490  145.1280 N   0  0  0  0  0  0  0  0  0  0  0  0
  187.5770  177.9090  143.6380 C   0  0  0  0  0  3  0  0  0  0  0  0
  189.0830  175.9860  147.0040 C   0  0  0  0  0  3  0  0  0  0  0  0
  185.2920  177.4300  144.4590 C   0  0  2  0  0  3  0  0  0  0  0  0
  188.0450  177.8030  145.0650 C   0  0  1  0  0  3  0  0  0  0  0  0
  184.0660  178.6820  146.1000 O   0  0  0  0  0  1  0  0  0  0  0  0
  184.7730  179.8640  144.2690 O   0  0  0  0  0  0  0  0  0  0  0  0
  184.6710  178.6840  144.9950 C   0  0  0  0  0  0  0  0  0  0  0  0
  190.3120  173.2360  142.0030 C   0  0  0  0  0  2  0  0  0  0  0  0
  188.8080  173.4300  141.8690 C   0  0  0  0  0  2  0  0  0  0  0  0
  188.5010  174.5400  140.8830 C   0  0  0  0  0  2  0  0  0  0  0  0
  188.1890  172.6870  139.3530 N   0  0  0  0  0  1  0  0  0  0  0  0
  188.7190  174.0330  139.4730 C   0  0  0  0  0  2  0  0  0  0  0  0
  1  8  1  1  0  0  0
  1  7  1  0  0  0  0
  4  5  1  0  0  0  0
  5  3  1  0  0  0  0
  5  2  2  0  0  0  0
  6  4  1  0  0  0  0
  7  9  1  0  0  0  0
  7  4  2  0  0  0  0
  9  3  1  0  0  0  0
 10  1  1  0  0  0  0
 10  6  1  0  0  0  0
 11 12  2  0  0  0  0
 12 13  1  0  0  0  0
 13 18  2  0  0  0  0
 14 17  2  0  0  0  0
 14 19  1  0  0  0  0
 15  2  1  0  0  0  0
 15 18  1  0  0  0  0
 16 15  2  0  0  0  0
 19 23  1  1  0  0  0
 19 11  1  0  0  0  0
 20 17  1  6  0  0  0
 20 16  1  0  0  0  0
 20 12  1  0  0  0  0
 22 23  2  0  0  0  0
 23 21  1  0  0  0  0
 24 10  1  0  0  0  0
 25 24  1  0  0  0  0
 26 25  1  0  0  0  0
 27 28  1  0  0  0  0
 28 26  1  0  0  0  0
M  END
>  <MODEL>
7

>  <REMARK>
 VINA RESULT:      -6.2      3.175      7.290
  Name = 
  6 active torsions:
  status: ('A' for Active; 'I' for Inactive)
    1  A    between atoms: N_3  and  C_13
    2  A    between atoms: C_6  and  C_23
    3  A    between atoms: C_20  and  C_23
    4  A    between atoms: C_20  and  C_26
    5  A    between atoms: C_22  and  CA_27
    6  A    between atoms: N_24  and  C_26
                            x       y       z     vdW  Elec       q    Type
                         _______ _______ _______ _____ _____    ______ ____

>  <TORSDO>
F 6

$$$$
=
 OpenBabel11042418253D

 28 31  0  0  1  0  0  0  0  0999 V2000
  193.4040  175.0220  144.8540 C   0  0  1  0  0  3  0  0  0  0  0  0
  189.6900  172.9190  142.7600 N   0  0  0  0  0  0  0  0  0  0  0  0
  191.7540  171.6760  143.8980 S   0  0  0  0  0  0  0  0  0  0  0  0
  191.5790  174.0820  143.8040 C   0  0  0  0  0  0  0  0  0  0  0  0
  190.8330  172.9890  143.3810 C   0  0  0  0  0  0  0  0  0  0  0  0
  191.4480  175.4450  143.7400 O   0  0  0  0  0  0  0  0  0  0  0  0
  192.7210  173.7710  144.4480 C   0  0  0  0  0  0  0  0  0  0  0  0
  194.7610  175.1090  144.1820 C   0  0  0  0  0  1  0  0  0  0  0  0
  193.0060  172.4920  144.6070 O   0  0  0  0  0  0  0  0  0  0  0  0
  192.5220  176.1020  144.3380 N   0  0  0  0  0  0  0  0  0  0  0  0
  187.1460  177.3990  140.8920 N   0  0  0  0  0  0  0  0  0  0  0  0
  187.5170  176.2180  141.2910 C   0  0  0  0  0  0  0  0  0  0  0  0
  188.2020  175.3340  140.4000 N   0  0  0  0  0  0  0  0  0  0  0  0
  186.8850  178.1490  143.2210 C   0  0  0  0  0  3  0  0  0  0  0  0
  188.8420  173.9830  142.3000 C   0  0  0  0  0  0  0  0  0  0  0  0
  188.1600  174.7190  143.1310 N   0  0  0  0  0  0  0  0  0  0  0  0
  187.2610  176.9350  143.6520 C   0  0  0  0  0  3  0  0  0  0  0  0
  188.8110  174.2780  140.8530 C   0  0  0  0  0  3  0  0  0  0  0  0
  186.4510  178.3410  141.7830 C   0  0  2  0  0  3  0  0  0  0  0  0
  187.2300  175.7660  142.7040 C   0  0  1  0  0  3  0  0  0  0  0  0
  184.4110  178.2940  140.5190 O   0  0  0  0  0  0  0  0  0  0  0  0
  184.1940  177.9490  142.7730 O   0  0  0  0  0  1  0  0  0  0  0  0
  184.9660  178.1990  141.6460 C   0  0  0  0  0  0  0  0  0  0  0  0
  192.0030  176.8270  145.4930 C   0  0  0  0  0  2  0  0  0  0  0  0
  190.5080  177.0670  145.3430 C   0  0  0  0  0  2  0  0  0  0  0  0
  189.8110  176.9300  146.6830 C   0  0  0  0  0  2  0  0  0  0  0  0
  189.6140  174.5430  147.0510 N   0  0  0  0  0  1  0  0  0  0  0  0
  188.8860  175.7320  146.6460 C   0  0  0  0  0  2  0  0  0  0  0  0
  1  8  1  6  0  0  0
  2  5  2  0  0  0  0
  3  9  1  0  0  0  0
  4  7  2  0  0  0  0
  5  4  1  0  0  0  0
  5  3  1  0  0  0  0
  6  4  1  0  0  0  0
  6 10  1  0  0  0  0
  7  9  1  0  0  0  0
  7  1  1  0  0  0  0
 10  1  1  0  0  0  0
 10 24  1  0  0  0  0
 11 12  2  0  0  0  0
 11 19  1  0  0  0  0
 12 20  1  0  0  0  0
 13 18  2  0  0  0  0
 13 12  1  0  0  0  0
 14 17  2  0  0  0  0
 15  2  1  0  0  0  0
 15 16  2  0  0  0  0
 18 15  1  0  0  0  0
 19 23  1  1  0  0  0
 19 14  1  0  0  0  0
 20 16  1  0  0  0  0
 20 17  1  1  0  0  0
 21 23  2  0  0  0  0
 23 22  1  0  0  0  0
 25 24  1  0  0  0  0
 25 26  1  0  0  0  0
 28 26  1  0  0  0  0
 28 27  1  0  0  0  0
M  END
>  <MODEL>
8

>  <REMARK>
 VINA RESULT:      -6.2      2.839      6.951
  Name = 
  6 active torsions:
  status: ('A' for Active; 'I' for Inactive)
    1  A    between atoms: N_3  and  C_13
    2  A    between atoms: C_6  and  C_23
    3  A    between atoms: C_20  and  C_23
    4  A    between atoms: C_20  and  C_26
    5  A    between atoms: C_22  and  CA_27
    6  A    between atoms: N_24  and  C_26
                            x       y       z     vdW  Elec       q    Type
                         _______ _______ _______ _____ _____    ______ ____

>  <TORSDO>
F 6

$$$$
=
 OpenBabel11042418253D

 28 31  0  0  1  0  0  0  0  0999 V2000
  185.5920  178.2860  143.9790 C   0  0  1  0  0  3  0  0  0  0  0  0
  188.1800  176.1880  147.3700 N   0  0  0  0  0  0  0  0  0  0  0  0
  185.8710  177.4690  147.7320 S   0  0  0  0  0  0  0  0  0  0  0  0
  186.9150  177.2610  145.5650 C   0  0  0  0  0  0  0  0  0  0  0  0
  187.1890  176.8700  146.8690 C   0  0  0  0  0  0  0  0  0  0  0  0
  187.5290  177.1220  144.3470 O   0  0  0  0  0  0  0  0  0  0  0  0
  185.7650  177.9470  145.4110 C   0  0  0  0  0  0  0  0  0  0  0  0
  185.5660  179.7930  143.8060 C   0  0  0  0  0  1  0  0  0  0  0  0
  185.0370  178.1710  146.4890 O   0  0  0  0  0  0  0  0  0  0  0  0
  186.8050  177.7300  143.3240 N   0  0  0  0  0  0  0  0  0  0  0  0
  192.3310  174.5350  144.1960 N   0  0  0  0  0  0  0  0  0  0  0  0
  191.4880  174.8220  145.1460 C   0  0  0  0  0  0  0  0  0  0  0  0
  191.4970  176.1140  145.7570 N   0  0  0  0  0  0  0  0  0  0  0  0
  190.9540  172.6180  143.4980 C   0  0  0  0  0  3  0  0  0  0  0  0
  189.3260  175.6340  146.7060 C   0  0  0  0  0  0  0  0  0  0  0  0
  189.3200  174.4200  146.2340 N   0  0  0  0  0  0  0  0  0  0  0  0
  190.0760  172.8950  144.4750 C   0  0  0  0  0  3  0  0  0  0  0  0
  190.5040  176.5010  146.5010 C   0  0  0  0  0  3  0  0  0  0  0  0
  192.3430  173.2210  143.5350 C   0  0  2  0  0  3  0  0  0  0  0  0
  190.4870  173.7900  145.6140 C   0  0  1  0  0  3  0  0  0  0  0  0
  194.3740  172.7430  144.7230 O   0  0  0  0  0  1  0  0  0  0  0  0
  193.0290  170.9410  144.2840 O   0  0  0  0  0  0  0  0  0  0  0  0
  193.3110  172.2990  144.2110 C   0  0  0  0  0  0  0  0  0  0  0  0
  186.3630  176.6780  142.4160 C   0  0  0  0  0  2  0  0  0  0  0  0
  187.3250  175.5000  142.4570 C   0  0  0  0  0  2  0  0  0  0  0  0
  188.1910  175.4770  141.2120 C   0  0  0  0  0  2  0  0  0  0  0  0
  187.8220  173.1200  141.6390 N   0  0  0  0  0  1  0  0  0  0  0  0
  188.7010  174.0700  140.9810 C   0  0  0  0  0  2  0  0  0  0  0  0
  1  8  1  1  0  0  0
  1  7  1  0  0  0  0
  4  5  1  0  0  0  0
  5  2  2  0  0  0  0
  5  3  1  0  0  0  0
  6  4  1  0  0  0  0
  7  4  2  0  0  0  0
  7  9  1  0  0  0  0
  9  3  1  0  0  0  0
 10  1  1  0  0  0  0
 10  6  1  0  0  0  0
 11 12  2  0  0  0  0
 12 20  1  0  0  0  0
 12 13  1  0  0  0  0
 13 18  2  0  0  0  0
 14 19  1  0  0  0  0
 14 17  2  0  0  0  0
 15  2  1  0  0  0  0
 16 15  2  0  0  0  0
 18 15  1  0  0  0  0
 19 11  1  0  0  0  0
 19 23  1  1  0  0  0
 20 17  1  6  0  0  0
 20 16  1  0  0  0  0
 23 22  2  0  0  0  0
 23 21  1  0  0  0  0
 24 25  1  0  0  0  0
 24 10  1  0  0  0  0
 26 25  1  0  0  0  0
 28 26  1  0  0  0  0
 28 27  1  0  0  0  0
M  END
>  <MODEL>
9

>  <REMARK>
 VINA RESULT:      -6.1      2.917      5.035
  Name = 
  6 active torsions:
  status: ('A' for Active; 'I' for Inactive)
    1  A    between atoms: N_3  and  C_13
    2  A    between atoms: C_6  and  C_23
    3  A    between atoms: C_20  and  C_23
    4  A    between atoms: C_20  and  C_26
    5  A    between atoms: C_22  and  CA_27
    6  A    between atoms: N_24  and  C_26
                            x       y       z     vdW  Elec       q    Type
                         _______ _______ _______ _____ _____    ______ ____

>  <TORSDO>
F 6

$$$$
