=
 OpenBabel11042419173D

 43 47  0  0  1  0  0  0  0  0999 V2000
  188.2620  175.2480  140.3220 C   0  0  0  0  0  2  0  0  0  0  0  0
  190.6520  174.5820  142.9290 C   0  0  0  0  0  0  0  0  0  0  0  0
  189.1290  174.4780  141.2290 C   0  0  1  0  0  3  0  0  0  0  0  0
  190.5850  174.8590  144.1680 N   0  0  0  0  0  0  0  0  0  0  0  0
  187.4740  176.3050  140.6700 C   0  0  0  0  0  0  0  0  0  0  0  0
  187.1720  177.0570  141.9640 C   0  0  0  0  0  0  0  0  0  0  0  0
  190.1370  172.9810  140.8030 S   0  0  0  0  0  0  0  0  0  0  0  0
  187.0730  177.9020  144.2490 C   0  0  0  0  0  0  0  0  0  0  0  0
  185.5180  178.6550  142.5480 N   0  0  0  0  0  0  0  0  0  0  0  0
  187.6540  178.0600  145.5890 N   0  0  0  0  0  0  0  0  0  0  0  0
  186.1450  177.8980  141.5740 C   0  0  0  0  0  0  0  0  0  0  0  0
  189.1020  176.1620  145.7460 C   0  0  1  0  0  3  0  0  0  0  0  0
  185.7910  177.7870  140.2240 N   0  0  0  0  0  2  0  0  0  0  0  0
  189.0650  177.6670  145.8630 C   0  0  0  0  0  2  0  0  0  0  0  0
  186.6330  176.7850  139.6660 N   0  0  0  0  0  0  0  0  0  0  0  0
  191.1770  173.3350  142.3180 C   0  0  1  0  0  3  0  0  0  0  0  0
  189.7350  175.9190  144.5340 N   0  0  0  0  0  2  0  0  0  0  0  0
  187.6200  177.0190  143.2760 C   0  0  0  0  0  3  0  0  0  0  0  0
  189.7970  175.3060  142.0980 O   0  0  0  0  0  0  0  0  0  0  0  0
  185.9610  178.6620  143.8390 C   0  0  0  0  0  3  0  0  0  0  0  0
  185.8570  179.4510  147.5700 O   0  0  0  0  0  1  0  0  0  0  0  0
  186.8390  178.1140  147.1560 P   0  0  0  0  0  0  0  0  0  0  0  0
  188.0020  178.2960  148.1070 O   0  0  0  0  0  1  0  0  0  0  0  0
  186.1170  176.6560  147.5620 O   0  0  0  0  0  0  0  0  0  0  0  0
  189.7370  175.2250  146.8440 C   0  0  2  0  0  3  0  0  0  0  0  0
  188.6000  174.5340  147.5870 C   0  0  0  0  0  1  0  0  0  0  0  0
  190.8520  175.8610  147.7180 C   0  0  0  0  0  2  0  0  0  0  0  0
  192.1660  175.2850  147.1960 C   0  0  0  0  0  2  0  0  0  0  0  0
  193.1180  176.2200  146.6480 C   0  0  0  0  0  2  0  0  0  0  0  0
  193.7000  175.9270  145.5300 N   0  0  0  0  0  2  0  0  0  0  0  0
  195.6340  176.3500  144.1880 O   0  0  0  0  0  0  0  0  0  0  0  0
  194.7270  176.7750  145.1700 C   0  0  0  0  0  0  0  0  0  0  0  0
  194.8870  177.8910  145.7350 O   0  0  0  0  0  1  0  0  0  0  0  0
  193.5040  173.5750  141.2950 O   0  0  0  0  0  1  0  0  0  0  0  0
  192.6530  172.9610  142.2520 C   0  0  1  0  0  3  0  0  0  0  0  0
  194.5470  171.0380  142.9320 O   0  0  0  0  0  1  0  0  0  0  0  0
  193.2720  172.8050  143.6780 C   0  0  2  0  0  3  0  0  0  0  0  0
  193.9230  171.5280  144.0560 C   0  0  1  0  0  0  0  0  0  0  0  0
  192.3980  171.6980  144.1520 C   0  0  0  0  0  2  0  0  0  0  0  0
  194.6500  171.7820  145.4060 C   0  0  0  0  0  2  0  0  0  0  0  0
  196.7620  173.2460  146.0160 C   0  0  0  0  0  1  0  0  0  0  0  0
  197.0900  170.9370  145.6880 C   0  0  0  0  0  1  0  0  0  0  0  0
  196.1720  172.0370  145.3690 C   0  0  0  0  0  3  0  0  0  0  0  0
  1  5  1  0  0  0  0
  2  4  2  0  0  0  0
  3  1  1  6  0  0  0
  3 19  1  0  0  0  0
  4 17  1  0  0  0  0
  5  6  1  0  0  0  0
  6 18  2  0  0  0  0
  7  3  1  0  0  0  0
  7 16  1  0  0  0  0
  8 10  1  0  0  0  0
  9 20  1  0  0  0  0
 10 14  1  0  0  0  0
 10 22  1  0  0  0  0
 11  6  1  0  0  0  0
 11  9  2  0  0  0  0
 12 14  1  0  0  0  0
 12 25  1  1  0  0  0
 13 11  1  0  0  0  0
 15 13  1  0  0  0  0
 15  5  2  0  0  0  0
 16 35  1  6  0  0  0
 16  2  1  0  0  0  0
 17 12  1  0  0  0  0
 18  8  1  0  0  0  0
 19  2  1  0  0  0  0
 20  8  2  0  0  0  0
 22 24  2  0  0  0  0
 22 21  1  0  0  0  0
 22 23  1  0  0  0  0
 25 26  1  1  0  0  0
 25 27  1  0  0  0  0
 28 27  1  0  0  0  0
 29 28  1  0  0  0  0
 30 29  1  0  0  0  0
 31 32  2  0  0  0  0
 32 30  1  0  0  0  0
 32 33  1  0  0  0  0
 35 34  1  6  0  0  0
 37 35  1  6  0  0  0
 37 38  1  0  0  0  0
 37 39  1  0  0  0  0
 38 36  1  6  0  0  0
 38 39  1  0  0  0  0
 38 40  1  0  0  0  0
 43 40  1  0  0  0  0
 43 42  1  0  0  0  0
 43 41  1  0  0  0  0
M  END
>  <MODEL>
1

>  <REMARK>
 VINA RESULT:      -7.6      0.000      0.000
  Name = 
  10 active torsions:
  status: ('A' for Active; 'I' for Inactive)
    1  A    between atoms: C_2  and  C_24
    2  A    between atoms: C_2  and  C_28
    3  A    between atoms: C_3  and  C_34
    4  A    between atoms: C_3  and  C_40
    5  A    between atoms: C_13  and  C_39
    6  A    between atoms: C_16  and  C_32
    7  A    between atoms: C_16  and  C_33
    8  A    between atoms: N_19  and  P_22
    9  A    between atoms: C_27  and  N_43
   10  A    between atoms: C_28  and  C_39
                            x       y       z     vdW  Elec       q    Type
                         _______ _______ _______ _____ _____    ______ ____

>  <TORSDO>
F 10

$$$$
=
 OpenBabel11042419173D

 43 47  0  0  1  0  0  0  0  0999 V2000
  194.8430  175.0290  145.9180 C   0  0  0  0  0  2  0  0  0  0  0  0
  191.7120  175.5390  144.2180 C   0  0  0  0  0  0  0  0  0  0  0  0
  193.3940  175.2080  145.7280 C   0  0  1  0  0  3  0  0  0  0  0  0
  191.1480  174.8110  143.3410 N   0  0  0  0  0  0  0  0  0  0  0  0
  195.6580  174.2350  145.1660 C   0  0  0  0  0  0  0  0  0  0  0  0
  195.4700  173.3070  143.9690 C   0  0  0  0  0  0  0  0  0  0  0  0
  192.2460  176.2050  146.7910 S   0  0  0  0  0  0  0  0  0  0  0  0
  194.6330  172.0030  142.0860 C   0  0  0  0  0  0  0  0  0  0  0  0
  196.8780  171.6910  142.9490 N   0  0  0  0  0  0  0  0  0  0  0  0
  193.6370  171.7530  141.0370 N   0  0  0  0  0  0  0  0  0  0  0  0
  196.7150  172.7120  143.8690 C   0  0  0  0  0  0  0  0  0  0  0  0
  191.6710  172.7720  141.9420 C   0  0  1  0  0  3  0  0  0  0  0  0
  197.6440  173.1600  144.8150 N   0  0  0  0  0  2  0  0  0  0  0  0
  192.5750  172.7540  140.7330 C   0  0  0  0  0  2  0  0  0  0  0  0
  196.9710  174.1170  145.6240 N   0  0  0  0  0  0  0  0  0  0  0  0
  191.0580  176.2480  145.3450 C   0  0  1  0  0  3  0  0  0  0  0  0
  191.9820  173.9560  142.5970 N   0  0  0  0  0  2  0  0  0  0  0  0
  194.4270  172.9520  143.1270 C   0  0  0  0  0  3  0  0  0  0  0  0
  193.0780  175.3250  144.3970 O   0  0  0  0  0  0  0  0  0  0  0  0
  195.8780  171.3450  142.0860 C   0  0  0  0  0  3  0  0  0  0  0  0
  191.5570  170.1170  139.5900 O   0  0  0  0  0  1  0  0  0  0  0  0
  193.0660  170.2110  140.3880 P   0  0  0  0  0  0  0  0  0  0  0  0
  192.7800  169.4280  141.6510 O   0  0  0  0  0  1  0  0  0  0  0  0
  194.2630  169.3700  139.5680 O   0  0  0  0  0  0  0  0  0  0  0  0
  190.1020  172.6450  141.8500 C   0  0  2  0  0  3  0  0  0  0  0  0
  189.6720  171.4860  142.7420 C   0  0  0  0  0  1  0  0  0  0  0  0
  189.5000  172.6790  140.4190 C   0  0  0  0  0  2  0  0  0  0  0  0
  189.1470  174.1400  140.1540 C   0  0  0  0  0  3  0  0  0  0  0  0
  188.2980  174.7930  141.1190 C   0  0  0  0  0  3  0  0  0  0  0  0
  187.8140  175.9590  140.8300 N   0  0  0  0  0  2  0  0  0  0  0  0
  187.3800  177.9710  142.0460 O   0  0  0  0  0  0  0  0  0  0  0  0
  187.1710  176.5950  141.8710 C   0  0  0  0  0  0  0  0  0  0  0  0
  186.4430  175.9590  142.6820 O   0  0  0  0  0  1  0  0  0  0  0  0
  190.5640  178.5190  144.2870 O   0  0  0  0  0  1  0  0  0  0  0  0
  190.1910  177.4930  145.1950 C   0  0  1  0  0  3  0  0  0  0  0  0
  188.4850  177.9420  147.3490 O   0  0  0  0  0  1  0  0  0  0  0  0
  188.6690  177.1380  145.1980 C   0  0  2  0  0  3  0  0  0  0  0  0
  187.9510  177.0100  146.4890 C   0  0  1  0  0  0  0  0  0  0  0  0
  188.7700  175.8410  145.9190 C   0  0  0  0  0  2  0  0  0  0  0  0
  186.4380  176.9160  146.1490 C   0  0  0  0  0  2  0  0  0  0  0  0
  185.6070  179.1120  144.9400 C   0  0  0  0  0  1  0  0  0  0  0  0
  184.2320  178.2020  146.6220 C   0  0  0  0  0  1  0  0  0  0  0  0
  185.6170  178.2240  146.1390 C   0  0  0  0  0  3  0  0  0  0  0  0
  2 19  1  0  0  0  0
  2 16  1  0  0  0  0
  3  1  1  6  0  0  0
  3  7  1  0  0  0  0
  4  2  2  0  0  0  0
  5 15  2  0  0  0  0
  5  1  1  0  0  0  0
  6  5  1  0  0  0  0
  8 20  2  0  0  0  0
  8 18  1  0  0  0  0
  9 11  2  0  0  0  0
 10  8  1  0  0  0  0
 11  6  1  0  0  0  0
 11 13  1  0  0  0  0
 12 25  1  6  0  0  0
 12 17  1  0  0  0  0
 13 15  1  0  0  0  0
 14 10  1  0  0  0  0
 14 12  1  0  0  0  0
 16 35  1  6  0  0  0
 16  7  1  0  0  0  0
 17  4  1  0  0  0  0
 18  6  2  0  0  0  0
 19  3  1  0  0  0  0
 20  9  1  0  0  0  0
 21 22  1  0  0  0  0
 22 10  1  0  0  0  0
 22 23  1  0  0  0  0
 24 22  2  0  0  0  0
 25 26  1  6  0  0  0
 27 25  1  0  0  0  0
 28 27  1  0  0  0  0
 28 29  2  0  0  0  0
 30 29  1  0  0  0  0
 30 32  1  0  0  0  0
 32 31  2  0  0  0  0
 32 33  1  0  0  0  0
 35 34  1  6  0  0  0
 37 35  1  1  0  0  0
 37 39  1  0  0  0  0
 37 38  1  0  0  0  0
 38 36  1  1  0  0  0
 39 38  1  0  0  0  0
 40 38  1  0  0  0  0
 41 43  1  0  0  0  0
 43 40  1  0  0  0  0
 43 42  1  0  0  0  0
M  END
>  <MODEL>
2

>  <REMARK>
 VINA RESULT:      -7.1      3.342      9.269
  Name = 
  10 active torsions:
  status: ('A' for Active; 'I' for Inactive)
    1  A    between atoms: C_2  and  C_24
    2  A    between atoms: C_2  and  C_28
    3  A    between atoms: C_3  and  C_34
    4  A    between atoms: C_3  and  C_40
    5  A    between atoms: C_13  and  C_39
    6  A    between atoms: C_16  and  C_32
    7  A    between atoms: C_16  and  C_33
    8  A    between atoms: N_19  and  P_22
    9  A    between atoms: C_27  and  N_43
   10  A    between atoms: C_28  and  C_39
                            x       y       z     vdW  Elec       q    Type
                         _______ _______ _______ _____ _____    ______ ____

>  <TORSDO>
F 10

$$$$
=
 OpenBabel11042419173D

 43 47  0  0  1  0  0  0  0  0999 V2000
  191.6100  169.8770  141.1020 C   0  0  0  0  0  2  0  0  0  0  0  0
  192.8170  171.9840  143.7590 C   0  0  0  0  0  0  0  0  0  0  0  0
  192.0260  170.2830  142.4550 C   0  0  1  0  0  3  0  0  0  0  0  0
  192.3160  173.0570  144.2220 N   0  0  0  0  0  0  0  0  0  0  0  0
  190.8220  170.6000  140.2560 C   0  0  0  0  0  0  0  0  0  0  0  0
  190.1140  171.9520  140.3140 C   0  0  0  0  0  0  0  0  0  0  0  0
  193.0180  169.2820  143.6620 S   0  0  0  0  0  0  0  0  0  0  0  0
  189.2350  174.1450  140.9160 C   0  0  0  0  0  0  0  0  0  0  0  0
  188.4730  172.9700  138.9360 N   0  0  0  0  0  0  0  0  0  0  0  0
  189.2900  175.3790  141.7110 N   0  0  0  0  0  0  0  0  0  0  0  0
  189.3630  171.9330  139.1530 C   0  0  0  0  0  0  0  0  0  0  0  0
  190.4460  174.6690  143.6810 C   0  0  1  0  0  3  0  0  0  0  0  0
  189.5270  170.7780  138.3800 N   0  0  0  0  0  2  0  0  0  0  0  0
  190.4690  175.6880  142.5660 C   0  0  0  0  0  2  0  0  0  0  0  0
  190.4450  169.9480  139.0800 N   0  0  0  0  0  0  0  0  0  0  0  0
  193.4450  170.8840  144.5310 C   0  0  1  0  0  3  0  0  0  0  0  0
  191.4640  173.7790  143.3660 N   0  0  0  0  0  2  0  0  0  0  0  0
  190.0430  173.0090  141.2080 C   0  0  0  0  0  3  0  0  0  0  0  0
  192.3810  171.6090  142.4880 O   0  0  0  0  0  0  0  0  0  0  0  0
  188.4070  174.0400  139.7820 C   0  0  0  0  0  3  0  0  0  0  0  0
  186.6320  175.6350  143.1110 O   0  0  0  0  0  1  0  0  0  0  0  0
  187.9590  176.3680  142.3220 P   0  0  0  0  0  0  0  0  0  0  0  0
  187.3120  176.8480  141.0410 O   0  0  0  0  0  0  0  0  0  0  0  0
  188.4890  177.7390  143.1290 O   0  0  0  0  0  1  0  0  0  0  0  0
  190.5670  175.0520  145.2060 C   0  0  2  0  0  3  0  0  0  0  0  0
  189.6340  174.1410  145.9950 C   0  0  0  0  0  1  0  0  0  0  0  0
  190.4950  176.5690  145.5320 C   0  0  0  0  0  2  0  0  0  0  0  0
  189.5520  176.6910  146.7270 C   0  0  0  0  0  2  0  0  0  0  0  0
  188.3110  177.3930  146.5120 C   0  0  0  0  0  2  0  0  0  0  0  0
  187.2070  176.7180  146.5250 N   0  0  0  0  0  2  0  0  0  0  0  0
  184.8240  176.9090  146.4450 O   0  0  0  0  0  1  0  0  0  0  0  0
  186.0900  177.4240  146.1280 C   0  0  0  0  0  0  0  0  0  0  0  0
  186.1880  178.4870  145.4570 O   0  0  0  0  0  0  0  0  0  0  0  0
  195.9150  170.2490  144.6660 O   0  0  0  0  0  1  0  0  0  0  0  0
  194.8120  170.9690  145.1990 C   0  0  1  0  0  3  0  0  0  0  0  0
  195.9730  172.9020  143.5670 O   0  0  0  0  0  1  0  0  0  0  0  0
  195.1390  172.4260  145.6600 C   0  0  2  0  0  3  0  0  0  0  0  0
  196.1200  173.2320  144.8950 C   0  0  1  0  0  0  0  0  0  0  0  0
  196.5820  172.2200  145.9560 C   0  0  0  0  0  2  0  0  0  0  0  0
  196.0240  174.6840  145.4400 C   0  0  0  0  0  2  0  0  0  0  0  0
  194.1780  176.2260  146.5320 C   0  0  0  0  0  1  0  0  0  0  0  0
  194.2560  176.1100  144.1810 C   0  0  0  0  0  1  0  0  0  0  0  0
  194.6470  175.3830  145.3940 C   0  0  0  0  0  3  0  0  0  0  0  0
  2  4  2  0  0  0  0
  2 16  1  0  0  0  0
  3  1  1  6  0  0  0
  3 19  1  0  0  0  0
  3  7  1  0  0  0  0
  5  6  1  0  0  0  0
  5  1  1  0  0  0  0
  6 18  2  0  0  0  0
  7 16  1  0  0  0  0
  8 18  1  0  0  0  0
  8 10  1  0  0  0  0
  9 11  2  0  0  0  0
  9 20  1  0  0  0  0
 10 22  1  0  0  0  0
 10 14  1  0  0  0  0
 11  6  1  0  0  0  0
 12 25  1  1  0  0  0
 13 15  1  0  0  0  0
 13 11  1  0  0  0  0
 14 12  1  0  0  0  0
 15  5  2  0  0  0  0
 16 35  1  6  0  0  0
 17 12  1  0  0  0  0
 17  4  1  0  0  0  0
 19  2  1  0  0  0  0
 20  8  2  0  0  0  0
 22 21  1  0  0  0  0
 22 24  1  0  0  0  0
 23 22  2  0  0  0  0
 25 27  1  0  0  0  0
 25 26  1  1  0  0  0
 27 28  1  0  0  0  0
 29 30  1  0  0  0  0
 29 28  1  0  0  0  0
 32 31  1  0  0  0  0
 32 30  1  0  0  0  0
 33 32  2  0  0  0  0
 35 34  1  6  0  0  0
 37 35  1  6  0  0  0
 37 39  1  0  0  0  0
 38 36  1  6  0  0  0
 38 40  1  0  0  0  0
 38 37  1  0  0  0  0
 38 39  1  0  0  0  0
 42 43  1  0  0  0  0
 43 40  1  0  0  0  0
 43 41  1  0  0  0  0
M  END
>  <MODEL>
3

>  <REMARK>
 VINA RESULT:      -7.1      2.760      5.495
  Name = 
  10 active torsions:
  status: ('A' for Active; 'I' for Inactive)
    1  A    between atoms: C_2  and  C_24
    2  A    between atoms: C_2  and  C_28
    3  A    between atoms: C_3  and  C_34
    4  A    between atoms: C_3  and  C_40
    5  A    between atoms: C_13  and  C_39
    6  A    between atoms: C_16  and  C_32
    7  A    between atoms: C_16  and  C_33
    8  A    between atoms: N_19  and  P_22
    9  A    between atoms: C_27  and  N_43
   10  A    between atoms: C_28  and  C_39
                            x       y       z     vdW  Elec       q    Type
                         _______ _______ _______ _____ _____    ______ ____

>  <TORSDO>
F 10

$$$$
=
 OpenBabel11042419173D

 43 47  0  0  1  0  0  0  0  0999 V2000
  194.8870  176.4640  144.7920 C   0  0  0  0  0  2  0  0  0  0  0  0
  191.3430  175.8360  144.7490 C   0  0  0  0  0  0  0  0  0  0  0  0
  193.5590  176.0400  145.2660 C   0  0  1  0  0  3  0  0  0  0  0  0
  190.6740  175.0670  143.9880 N   0  0  0  0  0  0  0  0  0  0  0  0
  195.4220  176.1990  143.5660 C   0  0  0  0  0  0  0  0  0  0  0  0
  194.9630  175.4520  142.3160 C   0  0  0  0  0  0  0  0  0  0  0  0
  192.8440  176.3040  146.9570 S   0  0  0  0  0  0  0  0  0  0  0  0
  193.7530  174.1900  140.6180 C   0  0  0  0  0  0  0  0  0  0  0  0
  196.1010  174.7360  140.3610 N   0  0  0  0  0  0  0  0  0  0  0  0
  192.5000  173.6900  140.0350 N   0  0  0  0  0  0  0  0  0  0  0  0
  196.1100  175.4570  141.5420 C   0  0  0  0  0  0  0  0  0  0  0  0
  191.0350  173.6510  141.9260 C   0  0  1  0  0  3  0  0  0  0  0  0
  197.1960  176.1190  142.1260 N   0  0  0  0  0  2  0  0  0  0  0  0
  191.1800  174.1820  140.5190 C   0  0  0  0  0  2  0  0  0  0  0  0
  196.7540  176.5830  143.3950 N   0  0  0  0  0  0  0  0  0  0  0  0
  191.1500  176.0420  146.2050 C   0  0  1  0  0  3  0  0  0  0  0  0
  191.2480  174.7540  142.7420 N   0  0  0  0  0  2  0  0  0  0  0  0
  193.8080  174.8100  141.8980 C   0  0  0  0  0  3  0  0  0  0  0  0
  192.6090  176.1950  144.2870 O   0  0  0  0  0  0  0  0  0  0  0  0
  194.9670  174.1230  139.9090 C   0  0  0  0  0  3  0  0  0  0  0  0
  193.0340  170.7440  139.6770 O   0  0  0  0  0  1  0  0  0  0  0  0
  192.1890  172.1560  139.2140 P   0  0  0  0  0  0  0  0  0  0  0  0
  192.7720  172.4130  137.8420 O   0  0  0  0  0  0  0  0  0  0  0  0
  190.5540  171.8620  138.9890 O   0  0  0  0  0  1  0  0  0  0  0  0
  189.7510  172.8890  142.4350 C   0  0  2  0  0  3  0  0  0  0  0  0
  190.1540  171.4550  142.7560 C   0  0  0  0  0  1  0  0  0  0  0  0
  188.4680  173.0750  141.5800 C   0  0  0  0  0  2  0  0  0  0  0  0
  187.6540  174.1560  142.2870 C   0  0  0  0  0  2  0  0  0  0  0  0
  187.8460  175.5140  141.8420 C   0  0  0  0  0  2  0  0  0  0  0  0
  186.8610  176.3470  141.9520 N   0  0  0  0  0  2  0  0  0  0  0  0
  185.9500  178.2290  140.7910 O   0  0  0  0  0  0  0  0  0  0  0  0
  187.0590  177.5660  141.3370 C   0  0  0  0  0  0  0  0  0  0  0  0
  188.2120  178.0650  141.2220 O   0  0  0  0  0  1  0  0  0  0  0  0
  190.2330  177.8070  147.8070 O   0  0  0  0  0  1  0  0  0  0  0  0
  189.9890  176.8130  146.8220 C   0  0  1  0  0  3  0  0  0  0  0  0
  187.5430  178.0040  147.4110 O   0  0  0  0  0  1  0  0  0  0  0  0
  188.9190  177.1970  145.7500 C   0  0  2  0  0  3  0  0  0  0  0  0
  187.5130  177.4180  146.1660 C   0  0  1  0  0  0  0  0  0  0  0  0
  188.0480  176.0010  145.9020 C   0  0  0  0  0  2  0  0  0  0  0  0
  186.7770  178.0290  144.9410 C   0  0  0  0  0  2  0  0  0  0  0  0
  185.2070  179.9950  144.1400 C   0  0  0  0  0  1  0  0  0  0  0  0
  184.4380  178.6280  145.8970 C   0  0  0  0  0  1  0  0  0  0  0  0
  185.6610  179.0610  145.2110 C   0  0  0  0  0  3  0  0  0  0  0  0
  2 16  1  0  0  0  0
  3  1  1  6  0  0  0
  3  7  1  0  0  0  0
  4  2  2  0  0  0  0
  5  1  1  0  0  0  0
  6  5  1  0  0  0  0
  8 18  1  0  0  0  0
  9 11  2  0  0  0  0
 10 14  1  0  0  0  0
 10  8  1  0  0  0  0
 11 13  1  0  0  0  0
 11  6  1  0  0  0  0
 12 25  1  6  0  0  0
 12 17  1  0  0  0  0
 13 15  1  0  0  0  0
 14 12  1  0  0  0  0
 15  5  2  0  0  0  0
 16 35  1  6  0  0  0
 16  7  1  0  0  0  0
 17  4  1  0  0  0  0
 18  6  2  0  0  0  0
 19  2  1  0  0  0  0
 19  3  1  0  0  0  0
 20  9  1  0  0  0  0
 20  8  2  0  0  0  0
 22 21  1  0  0  0  0
 22 10  1  0  0  0  0
 23 22  2  0  0  0  0
 24 22  1  0  0  0  0
 25 26  1  6  0  0  0
 27 28  1  0  0  0  0
 27 25  1  0  0  0  0
 29 30  1  0  0  0  0
 29 28  1  0  0  0  0
 31 32  2  0  0  0  0
 32 30  1  0  0  0  0
 33 32  1  0  0  0  0
 35 34  1  6  0  0  0
 37 39  1  0  0  0  0
 37 38  1  0  0  0  0
 37 35  1  1  0  0  0
 38 36  1  1  0  0  0
 39 38  1  0  0  0  0
 40 43  1  0  0  0  0
 40 38  1  0  0  0  0
 41 43  1  0  0  0  0
 43 42  1  0  0  0  0
M  END
>  <MODEL>
4

>  <REMARK>
 VINA RESULT:      -7.1      3.338      8.866
  Name = 
  10 active torsions:
  status: ('A' for Active; 'I' for Inactive)
    1  A    between atoms: C_2  and  C_24
    2  A    between atoms: C_2  and  C_28
    3  A    between atoms: C_3  and  C_34
    4  A    between atoms: C_3  and  C_40
    5  A    between atoms: C_13  and  C_39
    6  A    between atoms: C_16  and  C_32
    7  A    between atoms: C_16  and  C_33
    8  A    between atoms: N_19  and  P_22
    9  A    between atoms: C_27  and  N_43
   10  A    between atoms: C_28  and  C_39
                            x       y       z     vdW  Elec       q    Type
                         _______ _______ _______ _____ _____    ______ ____

>  <TORSDO>
F 10

$$$$
=
 OpenBabel11042419173D

 43 47  0  0  1  0  0  0  0  0999 V2000
  187.8130  174.7300  139.3180 C   0  0  0  0  0  2  0  0  0  0  0  0
  188.1080  176.2210  142.5810 C   0  0  0  0  0  0  0  0  0  0  0  0
  187.9390  175.7760  140.3460 C   0  0  1  0  0  3  0  0  0  0  0  0
  189.0230  176.0710  143.4510 N   0  0  0  0  0  0  0  0  0  0  0  0
  188.5130  173.5600  139.2750 C   0  0  0  0  0  0  0  0  0  0  0  0
  189.5870  172.9020  140.1370 C   0  0  0  0  0  0  0  0  0  0  0  0
  187.0700  177.4150  140.3790 S   0  0  0  0  0  0  0  0  0  0  0  0
  191.2280  172.3090  141.8400 C   0  0  0  0  0  0  0  0  0  0  0  0
  191.0040  171.0300  139.7930 N   0  0  0  0  0  0  0  0  0  0  0  0
  191.7810  172.4400  143.1950 N   0  0  0  0  0  0  0  0  0  0  0  0
  189.9380  171.8050  139.3710 C   0  0  0  0  0  0  0  0  0  0  0  0
  191.0650  174.6320  143.8320 C   0  0  1  0  0  3  0  0  0  0  0  0
  189.2180  171.6830  138.1770 N   0  0  0  0  0  2  0  0  0  0  0  0
  191.0430  173.1820  144.2550 C   0  0  0  0  0  2  0  0  0  0  0  0
  188.3250  172.7890  138.1270 N   0  0  0  0  0  0  0  0  0  0  0  0
  187.4170  177.4820  142.2170 C   0  0  1  0  0  3  0  0  0  0  0  0
  189.7790  174.8860  143.3770 N   0  0  0  0  0  2  0  0  0  0  0  0
  190.2280  173.1870  141.3340 C   0  0  0  0  0  3  0  0  0  0  0  0
  188.0330  175.2300  141.6020 O   0  0  0  0  0  0  0  0  0  0  0  0
  191.6300  171.2680  140.9830 C   0  0  0  0  0  3  0  0  0  0  0  0
  194.6710  173.2380  142.8820 O   0  0  0  0  0  0  0  0  0  0  0  0
  193.4660  172.3630  143.7220 P   0  0  0  0  0  0  0  0  0  0  0  0
  193.8380  170.9390  143.3730 O   0  0  0  0  0  1  0  0  0  0  0  0
  193.6320  172.5050  145.3840 O   0  0  0  0  0  1  0  0  0  0  0  0
  191.5020  175.8060  144.7900 C   0  0  2  0  0  3  0  0  0  0  0  0
  192.2340  176.8480  143.9530 C   0  0  0  0  0  1  0  0  0  0  0  0
  192.1850  175.3800  146.1180 C   0  0  0  0  0  2  0  0  0  0  0  0
  193.4150  176.2730  146.2560 C   0  0  0  0  0  2  0  0  0  0  0  0
  194.7020  175.6240  146.2240 C   0  0  0  0  0  2  0  0  0  0  0  0
  195.3450  175.5780  145.1020 N   0  0  0  0  0  2  0  0  0  0  0  0
  196.6220  173.8440  146.1420 O   0  0  0  0  0  1  0  0  0  0  0  0
  196.4720  174.7830  145.1100 C   0  0  0  0  0  0  0  0  0  0  0  0
  197.3770  174.9150  144.2420 O   0  0  0  0  0  0  0  0  0  0  0  0
  185.0040  177.9050  142.9390 O   0  0  0  0  0  1  0  0  0  0  0  0
  186.3880  178.1860  143.0940 C   0  0  1  0  0  3  0  0  0  0  0  0
  185.6620  176.4190  145.1190 O   0  0  0  0  0  1  0  0  0  0  0  0
  186.8730  178.3010  144.5740 C   0  0  2  0  0  3  0  0  0  0  0  0
  186.1230  177.6040  145.6460 C   0  0  1  0  0  0  0  0  0  0  0  0
  185.6680  178.9770  145.1250 C   0  0  0  0  0  2  0  0  0  0  0  0
  186.9920  177.6970  146.9310 C   0  0  0  0  0  2  0  0  0  0  0  0
  189.5470  177.7590  147.5960 C   0  0  0  0  0  1  0  0  0  0  0  0
  188.5910  175.6600  147.1230 C   0  0  0  0  0  1  0  0  0  0  0  0
  188.4140  177.0970  146.8860 C   0  0  0  0  0  3  0  0  0  0  0  0
  2  4  2  0  0  0  0
  3  1  1  6  0  0  0
  3  7  1  0  0  0  0
  3 19  1  0  0  0  0
  5  1  1  0  0  0  0
  5  6  1  0  0  0  0
  6 18  2  0  0  0  0
  7 16  1  0  0  0  0
  8 10  1  0  0  0  0
  9 20  1  0  0  0  0
 10 22  1  0  0  0  0
 10 14  1  0  0  0  0
 11  9  2  0  0  0  0
 11  6  1  0  0  0  0
 12 14  1  0  0  0  0
 12 25  1  1  0  0  0
 13 11  1  0  0  0  0
 15 13  1  0  0  0  0
 15  5  2  0  0  0  0
 16  2  1  0  0  0  0
 16 35  1  1  0  0  0
 17  4  1  0  0  0  0
 17 12  1  0  0  0  0
 18  8  1  0  0  0  0
 19  2  1  0  0  0  0
 20  8  2  0  0  0  0
 21 22  2  0  0  0  0
 22 24  1  0  0  0  0
 23 22  1  0  0  0  0
 25 26  1  6  0  0  0
 25 27  1  0  0  0  0
 27 28  1  0  0  0  0
 29 28  1  0  0  0  0
 30 32  1  0  0  0  0
 30 29  1  0  0  0  0
 32 31  1  0  0  0  0
 33 32  2  0  0  0  0
 35 34  1  1  0  0  0
 37 35  1  6  0  0  0
 37 39  1  0  0  0  0
 37 38  1  0  0  0  0
 38 36  1  6  0  0  0
 38 40  1  0  0  0  0
 39 38  1  0  0  0  0
 43 40  1  0  0  0  0
 43 42  1  0  0  0  0
 43 41  1  0  0  0  0
M  END
>  <MODEL>
5

>  <REMARK>
 VINA RESULT:      -7.1      2.896      6.854
  Name = 
  10 active torsions:
  status: ('A' for Active; 'I' for Inactive)
    1  A    between atoms: C_2  and  C_24
    2  A    between atoms: C_2  and  C_28
    3  A    between atoms: C_3  and  C_34
    4  A    between atoms: C_3  and  C_40
    5  A    between atoms: C_13  and  C_39
    6  A    between atoms: C_16  and  C_32
    7  A    between atoms: C_16  and  C_33
    8  A    between atoms: N_19  and  P_22
    9  A    between atoms: C_27  and  N_43
   10  A    between atoms: C_28  and  C_39
                            x       y       z     vdW  Elec       q    Type
                         _______ _______ _______ _____ _____    ______ ____

>  <TORSDO>
F 10

$$$$
=
 OpenBabel11042419173D

 43 47  0  0  1  0  0  0  0  0999 V2000
  189.9610  171.7140  141.4460 C   0  0  0  0  0  3  0  0  0  0  0  0
  190.7340  174.8290  143.0750 C   0  0  0  0  0  0  0  0  0  0  0  0
  190.1550  173.1630  141.6230 C   0  0  1  0  0  3  0  0  0  0  0  0
  191.8260  175.2070  143.6060 N   0  0  0  0  0  0  0  0  0  0  0  0
  190.7940  170.7330  141.8960 C   0  0  0  0  0  0  0  0  0  0  0  0
  192.1110  170.6930  142.6680 C   0  0  0  0  0  0  0  0  0  0  0  0
  189.0900  174.5200  140.9420 S   0  0  0  0  0  0  0  0  0  0  0  0
  194.1450  171.1910  143.9160 C   0  0  0  0  0  0  0  0  0  0  0  0
  193.6720  168.9580  143.0980 N   0  0  0  0  0  0  0  0  0  0  0  0
  194.9510  172.0830  144.7590 N   0  0  0  0  0  0  0  0  0  0  0  0
  192.4410  169.3510  142.6020 C   0  0  0  0  0  0  0  0  0  0  0  0
  194.0850  174.2410  144.1970 C   0  0  1  0  0  3  0  0  0  0  0  0
  191.5070  168.5610  141.9230 N   0  0  0  0  0  0  0  0  0  0  0  0
  194.3600  173.3140  145.3570 C   0  0  0  0  0  2  0  0  0  0  0  0
  190.4760  169.4380  141.4850 N   0  0  0  0  0  0  0  0  0  0  0  0
  189.8090  175.6470  142.2520 C   0  0  1  0  0  3  0  0  0  0  0  0
  192.7080  174.1950  144.0270 N   0  0  0  0  0  2  0  0  0  0  0  0
  192.9460  171.6160  143.2780 C   0  0  0  0  0  3  0  0  0  0  0  0
  190.5920  173.4530  142.8920 O   0  0  0  0  0  0  0  0  0  0  0  0
  194.4980  169.8400  143.7330 C   0  0  0  0  0  3  0  0  0  0  0  0
  197.7420  170.9820  145.0580 O   0  0  0  0  0  1  0  0  0  0  0  0
  196.7040  172.3120  144.7820 P   0  0  0  0  0  0  0  0  0  0  0  0
  196.8990  173.1070  146.0550 O   0  0  0  0  0  1  0  0  0  0  0  0
  197.2470  173.2820  143.5270 O   0  0  0  0  0  0  0  0  0  0  0  0
  194.5460  175.7490  144.1670 C   0  0  2  0  0  3  0  0  0  0  0  0
  195.1170  176.0390  142.7840 C   0  0  0  0  0  1  0  0  0  0  0  0
  195.3920  176.2240  145.3800 C   0  0  0  0  0  2  0  0  0  0  0  0
  194.5300  177.2550  146.1060 C   0  0  0  0  0  2  0  0  0  0  0  0
  193.5620  176.7510  147.0480 C   0  0  0  0  0  2  0  0  0  0  0  0
  192.3130  176.7470  146.7110 N   0  0  0  0  0  2  0  0  0  0  0  0
  190.7000  175.2400  147.6300 O   0  0  0  0  0  0  0  0  0  0  0  0
  191.4370  176.4290  147.7280 C   0  0  0  0  0  0  0  0  0  0  0  0
  191.2610  177.2020  148.7090 O   0  0  0  0  0  1  0  0  0  0  0  0
  187.8480  177.2640  142.0070 O   0  0  0  0  0  1  0  0  0  0  0  0
  188.9020  176.7410  142.8020 C   0  0  1  0  0  3  0  0  0  0  0  0
  186.9960  178.1990  144.2130 O   0  0  0  0  0  1  0  0  0  0  0  0
  188.5330  176.4850  144.2990 C   0  0  2  0  0  3  0  0  0  0  0  0
  187.8490  177.5470  145.0750 C   0  0  1  0  0  0  0  0  0  0  0  0
  189.3760  177.5550  144.8960 C   0  0  0  0  0  2  0  0  0  0  0  0
  187.3960  176.8990  146.4130 C   0  0  0  0  0  2  0  0  0  0  0  0
  186.0780  178.8890  147.5440 C   0  0  0  0  0  1  0  0  0  0  0  0
  184.8170  177.1870  146.5140 C   0  0  0  0  0  1  0  0  0  0  0  0
  186.1340  177.4650  147.0980 C   0  0  0  0  0  3  0  0  0  0  0  0
  1  5  2  0  0  0  0
  2  4  2  0  0  0  0
  3  1  1  1  0  0  0
  3 19  1  0  0  0  0
  4 17  1  0  0  0  0
  5  6  1  0  0  0  0
  6 18  2  0  0  0  0
  7  3  1  0  0  0  0
  7 16  1  0  0  0  0
  8 10  1  0  0  0  0
  9 20  1  0  0  0  0
 10 22  1  0  0  0  0
 10 14  1  0  0  0  0
 11  6  1  0  0  0  0
 11  9  2  0  0  0  0
 12 25  1  1  0  0  0
 12 14  1  0  0  0  0
 13 11  1  0  0  0  0
 15  5  1  0  0  0  0
 15 13  2  0  0  0  0
 16 35  1  1  0  0  0
 16  2  1  0  0  0  0
 17 12  1  0  0  0  0
 18  8  1  0  0  0  0
 19  2  1  0  0  0  0
 20  8  2  0  0  0  0
 22 21  1  0  0  0  0
 22 23  1  0  0  0  0
 24 22  2  0  0  0  0
 25 26  1  6  0  0  0
 25 27  1  0  0  0  0
 27 28  1  0  0  0  0
 28 29  1  0  0  0  0
 30 29  1  0  0  0  0
 30 32  1  0  0  0  0
 31 32  2  0  0  0  0
 32 33  1  0  0  0  0
 35 34  1  6  0  0  0
 37 35  1  6  0  0  0
 37 39  1  0  0  0  0
 37 38  1  0  0  0  0
 38 36  1  6  0  0  0
 38 40  1  0  0  0  0
 39 38  1  0  0  0  0
 40 43  1  0  0  0  0
 42 43  1  0  0  0  0
 43 41  1  0  0  0  0
M  END
>  <MODEL>
6

>  <REMARK>
 VINA RESULT:      -6.8      3.500      8.102
  Name = 
  10 active torsions:
  status: ('A' for Active; 'I' for Inactive)
    1  A    between atoms: C_2  and  C_24
    2  A    between atoms: C_2  and  C_28
    3  A    between atoms: C_3  and  C_34
    4  A    between atoms: C_3  and  C_40
    5  A    between atoms: C_13  and  C_39
    6  A    between atoms: C_16  and  C_32
    7  A    between atoms: C_16  and  C_33
    8  A    between atoms: N_19  and  P_22
    9  A    between atoms: C_27  and  N_43
   10  A    between atoms: C_28  and  C_39
                            x       y       z     vdW  Elec       q    Type
                         _______ _______ _______ _____ _____    ______ ____

>  <TORSDO>
F 10

$$$$
=
 OpenBabel11042419173D

 43 47  0  0  1  0  0  0  0  0999 V2000
  195.6090  176.0670  142.7680 C   0  0  0  0  0  2  0  0  0  0  0  0
  192.0250  175.8850  143.0400 C   0  0  0  0  0  0  0  0  0  0  0  0
  194.2820  175.9200  143.3890 C   0  0  1  0  0  3  0  0  0  0  0  0
  191.2200  175.0620  142.5000 N   0  0  0  0  0  0  0  0  0  0  0  0
  196.0180  175.4870  141.6040 C   0  0  0  0  0  0  0  0  0  0  0  0
  195.3870  174.5560  140.5710 C   0  0  0  0  0  0  0  0  0  0  0  0
  193.7300  176.6200  145.0150 S   0  0  0  0  0  0  0  0  0  0  0  0
  193.9210  173.1240  139.2510 C   0  0  0  0  0  0  0  0  0  0  0  0
  196.2890  173.3110  138.7630 N   0  0  0  0  0  0  0  0  0  0  0  0
  192.5820  172.6700  138.8550 N   0  0  0  0  0  0  0  0  0  0  0  0
  196.4660  174.2570  139.7580 C   0  0  0  0  0  0  0  0  0  0  0  0
  191.2670  173.2110  140.7800 C   0  0  1  0  0  3  0  0  0  0  0  0
  197.6590  174.8890  140.1280 N   0  0  0  0  0  2  0  0  0  0  0  0
  191.3630  173.4120  139.2850 C   0  0  0  0  0  2  0  0  0  0  0  0
  197.3670  175.6600  141.2870 N   0  0  0  0  0  0  0  0  0  0  0  0
  191.9660  176.4150  144.4240 C   0  0  1  0  0  3  0  0  0  0  0  0
  191.6610  174.4260  141.3240 N   0  0  0  0  0  2  0  0  0  0  0  0
  194.1400  173.9880  140.3610 C   0  0  0  0  0  3  0  0  0  0  0  0
  193.2840  175.9810  142.4480 O   0  0  0  0  0  0  0  0  0  0  0  0
  195.0650  172.7610  138.5130 C   0  0  0  0  0  3  0  0  0  0  0  0
  192.4640  170.3940  136.8820 O   0  0  0  0  0  0  0  0  0  0  0  0
  192.0430  171.0480  138.4040 P   0  0  0  0  0  0  0  0  0  0  0  0
  190.5530  171.2490  138.2370 O   0  0  0  0  0  1  0  0  0  0  0  0
  192.2370  169.9340  139.6410 O   0  0  0  0  0  1  0  0  0  0  0  0
  189.9500  172.7360  141.5050 C   0  0  2  0  0  3  0  0  0  0  0  0
  190.1720  171.3100  141.9940 C   0  0  0  0  0  1  0  0  0  0  0  0
  188.6220  173.0120  140.7510 C   0  0  0  0  0  2  0  0  0  0  0  0
  187.8190  173.9440  141.6550 C   0  0  0  0  0  3  0  0  0  0  0  0
  188.0610  175.3590  141.5160 C   0  0  0  0  0  3  0  0  0  0  0  0
  187.2130  176.1860  142.0380 N   0  0  0  0  0  2  0  0  0  0  0  0
  186.2960  178.2940  141.3780 O   0  0  0  0  0  0  0  0  0  0  0  0
  187.4120  177.5100  141.7040 C   0  0  0  0  0  0  0  0  0  0  0  0
  188.5710  178.0060  141.6440 O   0  0  0  0  0  1  0  0  0  0  0  0
  190.7780  178.6680  144.2290 O   0  0  0  0  0  1  0  0  0  0  0  0
  190.9450  177.4350  144.9150 C   0  0  1  0  0  3  0  0  0  0  0  0
  189.6920  177.9120  147.3550 O   0  0  0  0  0  1  0  0  0  0  0  0
  189.6160  176.7490  145.3680 C   0  0  2  0  0  3  0  0  0  0  0  0
  189.2590  176.7260  146.8060 C   0  0  1  0  0  0  0  0  0  0  0  0
  190.2220  175.6850  146.2130 C   0  0  0  0  0  2  0  0  0  0  0  0
  187.7920  176.2190  146.8920 C   0  0  0  0  0  2  0  0  0  0  0  0
  185.3360  176.7880  146.1030 C   0  0  0  0  0  1  0  0  0  0  0  0
  186.3570  178.2500  147.6410 C   0  0  0  0  0  1  0  0  0  0  0  0
  186.6610  177.2360  146.6250 C   0  0  0  0  0  3  0  0  0  0  0  0
  2 16  1  0  0  0  0
  3  1  1  6  0  0  0
  3  7  1  0  0  0  0
  4  2  2  0  0  0  0
  5  1  1  0  0  0  0
  6  5  1  0  0  0  0
  8 18  1  0  0  0  0
  9 11  2  0  0  0  0
 10  8  1  0  0  0  0
 10 14  1  0  0  0  0
 11 13  1  0  0  0  0
 11  6  1  0  0  0  0
 12 17  1  0  0  0  0
 12 25  1  6  0  0  0
 13 15  1  0  0  0  0
 14 12  1  0  0  0  0
 15  5  2  0  0  0  0
 16 35  1  6  0  0  0
 16  7  1  0  0  0  0
 17  4  1  0  0  0  0
 18  6  2  0  0  0  0
 19  2  1  0  0  0  0
 19  3  1  0  0  0  0
 20  9  1  0  0  0  0
 20  8  2  0  0  0  0
 21 22  2  0  0  0  0
 22 10  1  0  0  0  0
 22 24  1  0  0  0  0
 23 22  1  0  0  0  0
 25 26  1  6  0  0  0
 27 25  1  0  0  0  0
 27 28  1  0  0  0  0
 29 28  2  0  0  0  0
 29 30  1  0  0  0  0
 31 32  2  0  0  0  0
 32 30  1  0  0  0  0
 33 32  1  0  0  0  0
 35 34  1  6  0  0  0
 37 35  1  1  0  0  0
 37 39  1  0  0  0  0
 37 38  1  0  0  0  0
 38 40  1  0  0  0  0
 38 36  1  1  0  0  0
 39 38  1  0  0  0  0
 41 43  1  0  0  0  0
 43 40  1  0  0  0  0
 43 42  1  0  0  0  0
M  END
>  <MODEL>
7

>  <REMARK>
 VINA RESULT:      -6.8      4.009      8.873
  Name = 
  10 active torsions:
  status: ('A' for Active; 'I' for Inactive)
    1  A    between atoms: C_2  and  C_24
    2  A    between atoms: C_2  and  C_28
    3  A    between atoms: C_3  and  C_34
    4  A    between atoms: C_3  and  C_40
    5  A    between atoms: C_13  and  C_39
    6  A    between atoms: C_16  and  C_32
    7  A    between atoms: C_16  and  C_33
    8  A    between atoms: N_19  and  P_22
    9  A    between atoms: C_27  and  N_43
   10  A    between atoms: C_28  and  C_39
                            x       y       z     vdW  Elec       q    Type
                         _______ _______ _______ _____ _____    ______ ____

>  <TORSDO>
F 10

$$$$
=
 OpenBabel11042419173D

 43 47  0  0  1  0  0  0  0  0999 V2000
  191.9510  176.6310  145.9010 C   0  0  0  0  0  3  0  0  0  0  0  0
  189.6590  176.5100  143.1290 C   0  0  0  0  0  0  0  0  0  0  0  0
  190.6720  176.5540  145.1760 C   0  0  1  0  0  3  0  0  0  0  0  0
  189.5710  175.6480  142.1980 N   0  0  0  0  0  0  0  0  0  0  0  0
  193.0880  175.9410  145.5970 C   0  0  0  0  0  0  0  0  0  0  0  0
  193.4920  174.9240  144.5320 C   0  0  0  0  0  0  0  0  0  0  0  0
  189.0870  177.4070  145.6220 S   0  0  0  0  0  0  0  0  0  0  0  0
  193.6100  173.3900  142.6410 C   0  0  0  0  0  0  0  0  0  0  0  0
  195.3810  173.5080  144.2930 N   0  0  0  0  0  0  0  0  0  0  0  0
  193.1280  172.9150  141.3370 N   0  0  0  0  0  0  0  0  0  0  0  0
  194.7490  174.5410  144.9640 C   0  0  0  0  0  0  0  0  0  0  0  0
  190.8490  173.6450  141.3370 C   0  0  1  0  0  3  0  0  0  0  0  0
  195.1820  175.1920  146.1240 N   0  0  0  0  0  0  0  0  0  0  0  0
  192.1380  173.7060  140.5520 C   0  0  0  0  0  2  0  0  0  0  0  0
  194.1330  176.0700  146.5120 N   0  0  0  0  0  0  0  0  0  0  0  0
  188.5400  177.1660  143.8480 C   0  0  1  0  0  3  0  0  0  0  0  0
  190.7300  174.9010  141.9160 N   0  0  0  0  0  2  0  0  0  0  0  0
  192.9010  174.3510  143.4160 C   0  0  0  0  0  3  0  0  0  0  0  0
  190.8720  176.5380  143.8180 O   0  0  0  0  0  0  0  0  0  0  0  0
  194.8370  172.9490  143.1720 C   0  0  0  0  0  3  0  0  0  0  0  0
  192.3930  170.9580  139.1650 O   0  0  0  0  0  0  0  0  0  0  0  0
  193.0540  171.2640  140.7110 P   0  0  0  0  0  0  0  0  0  0  0  0
  192.0090  170.6360  141.6080 O   0  0  0  0  0  1  0  0  0  0  0  0
  194.4750  170.4110  140.9660 O   0  0  0  0  0  1  0  0  0  0  0  0
  189.4630  173.2530  140.6940 C   0  0  2  0  0  3  0  0  0  0  0  0
  188.6240  172.5700  141.7680 C   0  0  0  0  0  1  0  0  0  0  0  0
  189.5310  172.5460  139.3130 C   0  0  0  0  0  2  0  0  0  0  0  0
  189.3090  173.6440  138.2760 C   0  0  0  0  0  3  0  0  0  0  0  0
  188.0940  174.4130  138.3870 C   0  0  0  0  0  3  0  0  0  0  0  0
  187.7550  175.1820  137.4030 N   0  0  0  0  0  2  0  0  0  0  0  0
  185.6190  176.0410  136.7550 O   0  0  0  0  0  0  0  0  0  0  0  0
  186.6910  176.0210  137.6600 C   0  0  0  0  0  0  0  0  0  0  0  0
  186.6870  176.7910  138.6600 O   0  0  0  0  0  1  0  0  0  0  0  0
  187.2310  178.1510  141.8890 O   0  0  0  0  0  1  0  0  0  0  0  0
  187.6380  178.2380  143.2470 C   0  0  1  0  0  3  0  0  0  0  0  0
  185.5170  176.6070  144.0190 O   0  0  0  0  0  1  0  0  0  0  0  0
  186.5150  178.6710  144.2430 C   0  0  2  0  0  3  0  0  0  0  0  0
  185.2310  177.9300  144.2650 C   0  0  1  0  0  0  0  0  0  0  0  0
  185.4870  179.0410  143.2330 C   0  0  0  0  0  2  0  0  0  0  0  0
  184.4510  178.4280  145.5140 C   0  0  0  0  0  2  0  0  0  0  0  0
  185.6940  176.7910  147.1720 C   0  0  0  0  0  1  0  0  0  0  0  0
  185.8690  179.1040  147.5820 C   0  0  0  0  0  1  0  0  0  0  0  0
  185.0350  178.1030  146.9060 C   0  0  0  0  0  3  0  0  0  0  0  0
  2 19  1  0  0  0  0
  2 16  1  0  0  0  0
  3  7  1  0  0  0  0
  3  1  1  1  0  0  0
  4  2  2  0  0  0  0
  5  1  2  0  0  0  0
  5 15  1  0  0  0  0
  6 11  1  0  0  0  0
  6  5  1  0  0  0  0
  8 20  2  0  0  0  0
  8 18  1  0  0  0  0
  9 11  2  0  0  0  0
 10  8  1  0  0  0  0
 11 13  1  0  0  0  0
 12 25  1  6  0  0  0
 12 17  1  0  0  0  0
 13 15  2  0  0  0  0
 14 10  1  0  0  0  0
 14 12  1  0  0  0  0
 16 35  1  6  0  0  0
 16  7  1  0  0  0  0
 17  4  1  0  0  0  0
 18  6  2  0  0  0  0
 19  3  1  0  0  0  0
 20  9  1  0  0  0  0
 21 22  2  0  0  0  0
 22 24  1  0  0  0  0
 22 10  1  0  0  0  0
 22 23  1  0  0  0  0
 25 26  1  1  0  0  0
 27 25  1  0  0  0  0
 28 29  2  0  0  0  0
 28 27  1  0  0  0  0
 30 32  1  0  0  0  0
 30 29  1  0  0  0  0
 31 32  2  0  0  0  0
 32 33  1  0  0  0  0
 35 34  1  6  0  0  0
 37 35  1  6  0  0  0
 37 38  1  0  0  0  0
 38 36  1  6  0  0  0
 38 40  1  0  0  0  0
 39 37  1  0  0  0  0
 39 38  1  0  0  0  0
 40 43  1  0  0  0  0
 43 41  1  0  0  0  0
 43 42  1  0  0  0  0
M  END
>  <MODEL>
8

>  <REMARK>
 VINA RESULT:      -6.7      3.414      9.271
  Name = 
  10 active torsions:
  status: ('A' for Active; 'I' for Inactive)
    1  A    between atoms: C_2  and  C_24
    2  A    between atoms: C_2  and  C_28
    3  A    between atoms: C_3  and  C_34
    4  A    between atoms: C_3  and  C_40
    5  A    between atoms: C_13  and  C_39
    6  A    between atoms: C_16  and  C_32
    7  A    between atoms: C_16  and  C_33
    8  A    between atoms: N_19  and  P_22
    9  A    between atoms: C_27  and  N_43
   10  A    between atoms: C_28  and  C_39
                            x       y       z     vdW  Elec       q    Type
                         _______ _______ _______ _____ _____    ______ ____

>  <TORSDO>
F 10

$$$$
=
 OpenBabel11042419173D

 43 47  0  0  1  0  0  0  0  0999 V2000
  193.2960  177.0640  144.2740 C   0  0  0  0  0  3  0  0  0  0  0  0
  190.3060  176.0710  142.5340 C   0  0  0  0  0  0  0  0  0  0  0  0
  191.8670  176.8040  144.0320 C   0  0  1  0  0  3  0  0  0  0  0  0
  189.9960  174.9330  142.0560 N   0  0  0  0  0  0  0  0  0  0  0  0
  194.3290  176.2420  143.9320 C   0  0  0  0  0  0  0  0  0  0  0  0
  194.4590  174.8820  143.2510 C   0  0  0  0  0  0  0  0  0  0  0  0
  190.4370  177.8570  144.5690 S   0  0  0  0  0  0  0  0  0  0  0  0
  194.1030  172.7550  142.1140 C   0  0  0  0  0  0  0  0  0  0  0  0
  196.2690  173.3650  143.0170 N   0  0  0  0  0  0  0  0  0  0  0  0
  193.2880  171.8640  141.2780 N   0  0  0  0  0  0  0  0  0  0  0  0
  195.8060  174.6090  143.4100 C   0  0  0  0  0  0  0  0  0  0  0  0
  191.0720  172.6800  141.6670 C   0  0  1  0  0  3  0  0  0  0  0  0
  196.5230  175.6140  144.0680 N   0  0  0  0  0  0  0  0  0  0  0  0
  192.0720  172.3680  140.5780 C   0  0  0  0  0  2  0  0  0  0  0  0
  195.5880  176.6360  144.3910 N   0  0  0  0  0  0  0  0  0  0  0  0
  189.4120  177.0130  143.2500 C   0  0  1  0  0  3  0  0  0  0  0  0
  191.0610  174.0660  141.7480 N   0  0  0  0  0  2  0  0  0  0  0  0
  193.6000  173.9760  142.6480 C   0  0  0  0  0  3  0  0  0  0  0  0
  191.6630  176.2760  142.7810 O   0  0  0  0  0  0  0  0  0  0  0  0
  195.4530  172.4670  142.3910 C   0  0  0  0  0  3  0  0  0  0  0  0
  194.4640  169.0990  141.0280 O   0  0  0  0  0  1  0  0  0  0  0  0
  193.1220  170.1060  141.3570 P   0  0  0  0  0  0  0  0  0  0  0  0
  192.2390  169.8210  140.1620 O   0  0  0  0  0  0  0  0  0  0  0  0
  192.2720  169.5960  142.7090 O   0  0  0  0  0  1  0  0  0  0  0  0
  189.5820  172.1640  141.6450 C   0  0  2  0  0  3  0  0  0  0  0  0
  188.8920  172.7710  140.4300 C   0  0  0  0  0  1  0  0  0  0  0  0
  188.8150  172.2480  142.9930 C   0  0  0  0  0  2  0  0  0  0  0  0
  189.8700  172.0660  144.0810 C   0  0  0  0  0  2  0  0  0  0  0  0
  189.6620  172.7740  145.3200 C   0  0  0  0  0  2  0  0  0  0  0  0
  189.9970  174.0230  145.3830 N   0  0  0  0  0  2  0  0  0  0  0  0
  191.0590  175.2830  147.1160 O   0  0  0  0  0  0  0  0  0  0  0  0
  189.9420  174.5750  146.6460 C   0  0  0  0  0  0  0  0  0  0  0  0
  188.9350  174.4190  147.3890 O   0  0  0  0  0  1  0  0  0  0  0  0
  187.8910  177.5310  141.2650 O   0  0  0  0  0  1  0  0  0  0  0  0
  188.3190  177.8400  142.5840 C   0  0  1  0  0  3  0  0  0  0  0  0
  186.1560  176.1720  143.1230 O   0  0  0  0  0  1  0  0  0  0  0  0
  187.1690  178.1880  143.5840 C   0  0  2  0  0  3  0  0  0  0  0  0
  185.8770  177.4680  143.4910 C   0  0  1  0  0  0  0  0  0  0  0  0
  186.1790  178.6720  142.5850 C   0  0  0  0  0  2  0  0  0  0  0  0
  185.0630  177.8500  144.7590 C   0  0  0  0  0  2  0  0  0  0  0  0
  185.5650  179.1230  147.0180 C   0  0  0  0  0  1  0  0  0  0  0  0
  185.9620  176.8020  146.9590 C   0  0  0  0  0  1  0  0  0  0  0  0
  185.8270  177.9800  146.0950 C   0  0  0  0  0  3  0  0  0  0  0  0
  2 19  1  0  0  0  0
  2 16  1  0  0  0  0
  3  1  1  6  0  0  0
  3  7  1  0  0  0  0
  4  2  2  0  0  0  0
  5  1  2  0  0  0  0
  5 15  1  0  0  0  0
  6 11  1  0  0  0  0
  6  5  1  0  0  0  0
  8 20  2  0  0  0  0
  8 18  1  0  0  0  0
  9 11  2  0  0  0  0
 10 22  1  0  0  0  0
 10  8  1  0  0  0  0
 11 13  1  0  0  0  0
 12 25  1  6  0  0  0
 12 17  1  0  0  0  0
 13 15  2  0  0  0  0
 14 10  1  0  0  0  0
 14 12  1  0  0  0  0
 16 35  1  6  0  0  0
 16  7  1  0  0  0  0
 17  4  1  0  0  0  0
 18  6  2  0  0  0  0
 19  3  1  0  0  0  0
 20  9  1  0  0  0  0
 21 22  1  0  0  0  0
 22 24  1  0  0  0  0
 23 22  2  0  0  0  0
 25 26  1  6  0  0  0
 25 27  1  0  0  0  0
 27 28  1  0  0  0  0
 28 29  1  0  0  0  0
 29 30  1  0  0  0  0
 30 32  1  0  0  0  0
 32 31  2  0  0  0  0
 32 33  1  0  0  0  0
 35 34  1  6  0  0  0
 37 35  1  6  0  0  0
 38 36  1  6  0  0  0
 38 37  1  0  0  0  0
 38 40  1  0  0  0  0
 39 38  1  0  0  0  0
 39 37  1  0  0  0  0
 40 43  1  0  0  0  0
 43 42  1  0  0  0  0
 43 41  1  0  0  0  0
M  END
>  <MODEL>
9

>  <REMARK>
 VINA RESULT:      -6.7      3.543      8.579
  Name = 
  10 active torsions:
  status: ('A' for Active; 'I' for Inactive)
    1  A    between atoms: C_2  and  C_24
    2  A    between atoms: C_2  and  C_28
    3  A    between atoms: C_3  and  C_34
    4  A    between atoms: C_3  and  C_40
    5  A    between atoms: C_13  and  C_39
    6  A    between atoms: C_16  and  C_32
    7  A    between atoms: C_16  and  C_33
    8  A    between atoms: N_19  and  P_22
    9  A    between atoms: C_27  and  N_43
   10  A    between atoms: C_28  and  C_39
                            x       y       z     vdW  Elec       q    Type
                         _______ _______ _______ _____ _____    ______ ____

>  <TORSDO>
F 10

$$$$
