=
 OpenBabel11042418113D

 25 28  0  0  1  0  0  0  0  0999 V2000
  186.6060  177.9660  142.2060 C   0  0  0  0  0  0  0  0  0  0  0  0
  183.7580  178.9480  145.7040 N   0  0  0  0  0  0  0  0  0  0  0  0
  185.7780  178.0980  145.1840 C   0  0  1  0  0  3  0  0  0  0  0  0
  186.7830  178.2060  140.9840 O   0  0  0  0  0  0  0  0  0  0  0  0
  183.8340  178.8160  144.4130 O   0  0  0  0  0  0  0  0  0  0  0  0
  185.0050  178.3480  144.0460 C   0  0  0  0  0  0  0  0  0  0  0  0
  184.9380  178.5450  146.2040 C   0  0  0  0  0  0  0  0  0  0  0  0
  187.5050  176.6450  144.1550 C   0  0  2  0  0  3  0  0  0  0  0  0
  188.9330  176.6160  146.6860 C   0  0  0  0  0  2  0  0  0  0  0  0
  188.8200  175.9250  144.4560 C   0  0  0  0  0  2  0  0  0  0  0  0
  185.3350  178.2660  142.7890 N   0  0  0  0  0  0  0  0  0  0  0  0
  185.1970  178.4920  147.6040 N   0  0  0  0  0  1  0  0  0  0  0  0
  188.8490  175.4400  145.8320 N   0  0  0  0  0  0  0  0  0  0  0  0
  187.6030  177.3560  146.6780 C   0  0  0  0  0  2  0  0  0  0  0  0
  187.6900  177.4430  142.9630 N   0  0  0  0  0  2  0  0  0  0  0  0
  186.9710  177.4720  145.3060 C   0  0  2  0  0  3  0  0  0  0  0  0
  190.0210  174.5830  146.0790 C   0  0  2  0  0  3  0  0  0  0  0  0
  191.2150  175.2790  146.7690 C   0  0  0  0  0  2  0  0  0  0  0  0
  192.3170  175.6870  145.8020 C   0  0  0  0  0  3  0  0  0  0  0  0
  193.3840  176.4430  146.5650 C   0  0  0  0  0  2  0  0  0  0  0  0
  193.6030  174.9920  146.1970 C   0  0  0  0  0  2  0  0  0  0  0  0
  190.4010  173.7810  144.8330 C   0  0  0  0  0  2  0  0  0  0  0  0
  189.7890  172.3900  144.8630 C   0  0  0  0  0  2  0  0  0  0  0  0
  189.4590  171.9270  143.4560 C   0  0  0  0  0  2  0  0  0  0  0  0
  188.8260  172.9590  142.7650 O   0  0  0  0  0  1  0  0  0  0  0  0
  1 11  1  0  0  0  0
  1 15  1  0  0  0  0
  2  7  2  0  0  0  0
  3  6  1  1  0  0  0
  3 16  1  0  0  0  0
  3  7  1  0  0  0  0
  4  1  2  0  0  0  0
  5  2  1  0  0  0  0
  6  5  1  0  0  0  0
  7 12  1  0  0  0  0
  8 10  1  1  0  0  0
  8 16  1  0  0  0  0
 10 13  1  0  0  0  0
 11  6  2  0  0  0  0
 13 17  1  0  0  0  0
 13  9  1  0  0  0  0
 14  9  1  0  0  0  0
 15  8  1  0  0  0  0
 16 14  1  1  0  0  0
 17 22  1  6  0  0  0
 17 18  1  0  0  0  0
 19 21  1  0  0  0  0
 19 20  1  0  0  0  0
 19 18  1  0  0  0  0
 21 20  1  0  0  0  0
 22 23  1  0  0  0  0
 24 23  1  0  0  0  0
 25 24  1  0  0  0  0
M  END
>  <MODEL>
1

>  <REMARK>
 VINA RESULT:      -6.8      0.000      0.000
  Name = 
  6 active torsions:
  status: ('A' for Active; 'I' for Inactive)
    1  A    between atoms: C_3  and  C_4
    2  A    between atoms: C_4  and  C_10
    3  A    between atoms: C_6  and  C_9
    4  A    between atoms: C_6  and  C_16
    5  A    between atoms: C_10  and  C_16
    6  A    between atoms: C_10  and  N_21
                            x       y       z     vdW  Elec       q    Type
                         _______ _______ _______ _____ _____    ______ ____

>  <TORSDO>
F 6

$$$$
=
 OpenBabel11042418113D

 25 28  0  0  1  0  0  0  0  0999 V2000
  184.5880  178.4040  145.0290 C   0  0  0  0  0  0  0  0  0  0  0  0
  185.0630  178.0790  140.4490 N   0  0  0  0  0  0  0  0  0  0  0  0
  186.0720  177.6610  142.4180 C   0  0  1  0  0  3  0  0  0  0  0  0
  183.7180  178.6010  145.9160 O   0  0  0  0  0  0  0  0  0  0  0  0
  184.3620  178.6230  141.3990 O   0  0  0  0  0  0  0  0  0  0  0  0
  184.8890  178.3890  142.5780 C   0  0  0  0  0  0  0  0  0  0  0  0
  186.0990  177.4590  141.0380 C   0  0  0  0  0  0  0  0  0  0  0  0
  187.0540  178.0380  144.6650 C   0  0  2  0  0  3  0  0  0  0  0  0
  189.2200  176.2240  143.9790 C   0  0  0  0  0  2  0  0  0  0  0  0
  188.2290  177.6360  145.5560 C   0  0  0  0  0  2  0  0  0  0  0  0
  184.2730  178.7330  143.6730 N   0  0  0  0  0  0  0  0  0  0  0  0
  187.1190  176.8010  140.2930 N   0  0  0  0  0  1  0  0  0  0  0  0
  189.4390  177.4270  144.7680 N   0  0  0  0  0  0  0  0  0  0  0  0
  188.2100  176.5080  142.8750 C   0  0  0  0  0  2  0  0  0  0  0  0
  185.8310  177.8280  145.4060 N   0  0  0  0  0  2  0  0  0  0  0  0
  187.0230  177.3360  143.3230 C   0  0  2  0  0  3  0  0  0  0  0  0
  190.6180  177.2280  145.6280 C   0  0  2  0  0  3  0  0  0  0  0  0
  191.6820  176.2550  145.0760 C   0  0  0  0  0  2  0  0  0  0  0  0
  193.0850  176.8450  145.0500 C   0  0  0  0  0  3  0  0  0  0  0  0
  193.9570  176.0830  146.0260 C   0  0  0  0  0  2  0  0  0  0  0  0
  194.0530  175.7970  144.5430 C   0  0  0  0  0  2  0  0  0  0  0  0
  190.2130  176.9510  147.0770 C   0  0  0  0  0  2  0  0  0  0  0  0
  190.5280  175.5180  147.4760 C   0  0  0  0  0  2  0  0  0  0  0  0
  189.2790  174.6620  147.4010 C   0  0  0  0  0  2  0  0  0  0  0  0
  189.3970  173.7620  146.3430 O   0  0  0  0  0  1  0  0  0  0  0  0
  1 15  1  0  0  0  0
  1  4  2  0  0  0  0
  2  7  2  0  0  0  0
  2  5  1  0  0  0  0
  3  7  1  6  0  0  0
  3  6  1  0  0  0  0
  3 16  1  0  0  0  0
  5  6  1  0  0  0  0
  6 11  2  0  0  0  0
  8 15  1  0  0  0  0
  8 10  1  1  0  0  0
  9 13  1  0  0  0  0
 11  1  1  0  0  0  0
 12  7  1  0  0  0  0
 13 10  1  0  0  0  0
 13 17  1  0  0  0  0
 14  9  1  0  0  0  0
 16 14  1  6  0  0  0
 16  8  1  0  0  0  0
 17 18  1  6  0  0  0
 17 22  1  0  0  0  0
 19 18  1  0  0  0  0
 19 20  1  0  0  0  0
 21 19  1  0  0  0  0
 21 20  1  0  0  0  0
 22 23  1  0  0  0  0
 24 23  1  0  0  0  0
 25 24  1  0  0  0  0
M  END
>  <MODEL>
2

>  <REMARK>
 VINA RESULT:      -6.7      2.023      3.598
  Name = 
  6 active torsions:
  status: ('A' for Active; 'I' for Inactive)
    1  A    between atoms: C_3  and  C_4
    2  A    between atoms: C_4  and  C_10
    3  A    between atoms: C_6  and  C_9
    4  A    between atoms: C_6  and  C_16
    5  A    between atoms: C_10  and  C_16
    6  A    between atoms: C_10  and  N_21
                            x       y       z     vdW  Elec       q    Type
                         _______ _______ _______ _____ _____    ______ ____

>  <TORSDO>
F 6

$$$$
=
 OpenBabel11042418113D

 25 28  0  0  1  0  0  0  0  0999 V2000
  185.2540  178.3450  142.0590 C   0  0  0  0  0  0  0  0  0  0  0  0
  184.4140  178.5090  146.5950 N   0  0  0  0  0  0  0  0  0  0  0  0
  186.0260  178.2050  145.0510 C   0  0  1  0  0  3  0  0  0  0  0  0
  184.7390  178.6470  140.9510 O   0  0  0  0  0  0  0  0  0  0  0  0
  183.8580  178.4270  145.4230 O   0  0  0  0  0  0  0  0  0  0  0  0
  184.7530  178.2750  144.4750 C   0  0  0  0  0  0  0  0  0  0  0  0
  185.7400  178.4050  146.4020 C   0  0  0  0  0  0  0  0  0  0  0  0
  187.2610  177.2530  143.1220 C   0  0  2  0  0  3  0  0  0  0  0  0
  189.7360  177.5320  144.6190 C   0  0  0  0  0  2  0  0  0  0  0  0
  188.6650  176.8800  142.6460 C   0  0  0  0  0  2  0  0  0  0  0  0
  184.4170  178.3050  143.2180 N   0  0  0  0  0  0  0  0  0  0  0  0
  186.6700  178.3910  147.4810 N   0  0  0  0  0  1  0  0  0  0  0  0
  189.4810  176.3900  143.7530 N   0  0  0  0  0  0  0  0  0  0  0  0
  188.4610  177.9150  145.3580 C   0  0  0  0  0  2  0  0  0  0  0  0
  186.6520  178.0960  142.1170 N   0  0  0  0  0  2  0  0  0  0  0  0
  187.2180  177.8960  144.4930 C   0  0  2  0  0  3  0  0  0  0  0  0
  190.7660  175.8500  143.2800 C   0  0  2  0  0  3  0  0  0  0  0  0
  190.9180  174.3170  143.3840 C   0  0  0  0  0  2  0  0  0  0  0  0
  189.6910  173.6260  143.9610 C   0  0  0  0  0  3  0  0  0  0  0  0
  190.1100  172.2970  144.5550 C   0  0  0  0  0  2  0  0  0  0  0  0
  189.8630  173.4850  145.4590 C   0  0  0  0  0  2  0  0  0  0  0  0
  191.9480  176.6340  143.8540 C   0  0  0  0  0  2  0  0  0  0  0  0
  192.8470  175.7420  144.6960 C   0  0  0  0  0  2  0  0  0  0  0  0
  194.0670  176.5120  145.1640 C   0  0  0  0  0  2  0  0  0  0  0  0
  194.2000  176.3740  146.5450 O   0  0  0  0  0  1  0  0  0  0  0  0
  1 15  1  0  0  0  0
  1 11  1  0  0  0  0
  3  6  1  1  0  0  0
  3  7  1  0  0  0  0
  4  1  2  0  0  0  0
  5  2  1  0  0  0  0
  6  5  1  0  0  0  0
  7  2  2  0  0  0  0
  7 12  1  0  0  0  0
  8 10  1  6  0  0  0
  8 16  1  0  0  0  0
  9 14  1  0  0  0  0
 10 13  1  0  0  0  0
 11  6  2  0  0  0  0
 13  9  1  0  0  0  0
 15  8  1  0  0  0  0
 16  3  1  0  0  0  0
 16 14  1  1  0  0  0
 17 18  1  1  0  0  0
 17 13  1  0  0  0  0
 17 22  1  0  0  0  0
 18 19  1  0  0  0  0
 19 20  1  0  0  0  0
 19 21  1  0  0  0  0
 20 21  1  0  0  0  0
 22 23  1  0  0  0  0
 23 24  1  0  0  0  0
 24 25  1  0  0  0  0
M  END
>  <MODEL>
3

>  <REMARK>
 VINA RESULT:      -6.5      2.059      3.188
  Name = 
  6 active torsions:
  status: ('A' for Active; 'I' for Inactive)
    1  A    between atoms: C_3  and  C_4
    2  A    between atoms: C_4  and  C_10
    3  A    between atoms: C_6  and  C_9
    4  A    between atoms: C_6  and  C_16
    5  A    between atoms: C_10  and  C_16
    6  A    between atoms: C_10  and  N_21
                            x       y       z     vdW  Elec       q    Type
                         _______ _______ _______ _____ _____    ______ ____

>  <TORSDO>
F 6

$$$$
=
 OpenBabel11042418113D

 25 28  0  0  1  0  0  0  0  0999 V2000
  186.3710  177.7810  146.9990 C   0  0  0  0  0  0  0  0  0  0  0  0
  186.0300  179.1880  142.6150 N   0  0  0  0  0  0  0  0  0  0  0  0
  187.0200  177.6900  143.9750 C   0  0  1  0  0  3  0  0  0  0  0  0
  185.8000  177.8910  148.1140 O   0  0  0  0  0  0  0  0  0  0  0  0
  185.7680  179.5080  143.8470 O   0  0  0  0  0  0  0  0  0  0  0  0
  186.2990  178.6520  144.6890 C   0  0  0  0  0  0  0  0  0  0  0  0
  186.7690  178.0660  142.6550 C   0  0  0  0  0  0  0  0  0  0  0  0
  188.3650  176.7630  145.8420 C   0  0  2  0  0  3  0  0  0  0  0  0
  189.4240  174.7530  144.0290 C   0  0  0  0  0  2  0  0  0  0  0  0
  189.3620  175.6560  146.1840 C   0  0  0  0  0  2  0  0  0  0  0  0
  186.0460  178.7150  145.9650 N   0  0  0  0  0  0  0  0  0  0  0  0
  187.2950  177.4550  141.4810 N   0  0  0  0  0  1  0  0  0  0  0  0
  190.2450  175.3780  145.0560 N   0  0  0  0  0  0  0  0  0  0  0  0
  188.4950  175.7880  143.4100 C   0  0  0  0  0  2  0  0  0  0  0  0
  187.2840  176.7100  146.8010 N   0  0  0  0  0  2  0  0  0  0  0  0
  187.8520  176.7200  144.4170 C   0  0  2  0  0  3  0  0  0  0  0  0
  191.3280  174.4540  145.4310 C   0  0  2  0  0  3  0  0  0  0  0  0
  192.4060  175.0440  146.3670 C   0  0  0  0  0  2  0  0  0  0  0  0
  193.4560  175.8670  145.6360 C   0  0  0  0  0  3  0  0  0  0  0  0
  194.1460  176.7770  146.6310 C   0  0  0  0  0  2  0  0  0  0  0  0
  194.8260  175.5070  146.1710 C   0  0  0  0  0  2  0  0  0  0  0  0
  191.8940  173.7280  144.2080 C   0  0  0  0  0  2  0  0  0  0  0  0
  192.2500  172.2870  144.5360 C   0  0  0  0  0  2  0  0  0  0  0  0
  193.7550  172.1020  144.5400 C   0  0  0  0  0  2  0  0  0  0  0  0
  194.1860  171.8340  145.8390 O   0  0  0  0  0  1  0  0  0  0  0  0
  1  4  2  0  0  0  0
  2  7  2  0  0  0  0
  2  5  1  0  0  0  0
  3  7  1  6  0  0  0
  3 16  1  0  0  0  0
  3  6  1  0  0  0  0
  5  6  1  0  0  0  0
  6 11  2  0  0  0  0
  8 10  1  1  0  0  0
  8 15  1  0  0  0  0
  9 13  1  0  0  0  0
 11  1  1  0  0  0  0
 12  7  1  0  0  0  0
 13 17  1  0  0  0  0
 13 10  1  0  0  0  0
 14  9  1  0  0  0  0
 15  1  1  0  0  0  0
 16 14  1  6  0  0  0
 16  8  1  0  0  0  0
 17 22  1  6  0  0  0
 17 18  1  0  0  0  0
 19 21  1  0  0  0  0
 19 18  1  0  0  0  0
 19 20  1  0  0  0  0
 21 20  1  0  0  0  0
 22 23  1  0  0  0  0
 23 24  1  0  0  0  0
 24 25  1  0  0  0  0
M  END
>  <MODEL>
4

>  <REMARK>
 VINA RESULT:      -6.5      2.122      3.446
  Name = 
  6 active torsions:
  status: ('A' for Active; 'I' for Inactive)
    1  A    between atoms: C_3  and  C_4
    2  A    between atoms: C_4  and  C_10
    3  A    between atoms: C_6  and  C_9
    4  A    between atoms: C_6  and  C_16
    5  A    between atoms: C_10  and  C_16
    6  A    between atoms: C_10  and  N_21
                            x       y       z     vdW  Elec       q    Type
                         _______ _______ _______ _____ _____    ______ ____

>  <TORSDO>
F 6

$$$$
=
 OpenBabel11042418113D

 25 28  0  0  1  0  0  0  0  0999 V2000
  193.7510  176.4020  146.0210 C   0  0  0  0  0  0  0  0  0  0  0  0
  193.4480  171.9090  145.0080 N   0  0  0  0  0  0  0  0  0  0  0  0
  192.3180  173.8570  145.0010 C   0  0  1  0  0  3  0  0  0  0  0  0
  194.5960  177.2970  146.2810 O   0  0  0  0  0  0  0  0  0  0  0  0
  194.1550  172.8020  145.6340 O   0  0  0  0  0  0  0  0  0  0  0  0
  193.5570  173.9700  145.6400 C   0  0  0  0  0  0  0  0  0  0  0  0
  192.3320  172.5260  144.5840 C   0  0  0  0  0  0  0  0  0  0  0  0
  191.2790  175.9560  145.8180 C   0  0  2  0  0  3  0  0  0  0  0  0
  188.9820  175.4360  144.1140 C   0  0  0  0  0  2  0  0  0  0  0  0
  190.0330  176.8300  145.6680 C   0  0  0  0  0  2  0  0  0  0  0  0
  194.1550  175.0320  146.0990 N   0  0  0  0  0  0  0  0  0  0  0  0
  191.2870  171.8350  143.9060 N   0  0  0  0  0  1  0  0  0  0  0  0
  188.8440  176.0150  145.4420 N   0  0  0  0  0  0  0  0  0  0  0  0
  190.0610  174.3620  144.1280 C   0  0  0  0  0  2  0  0  0  0  0  0
  192.4430  176.7920  145.6230 N   0  0  0  0  0  2  0  0  0  0  0  0
  191.3010  174.7440  144.9100 C   0  0  2  0  0  3  0  0  0  0  0  0
  187.6160  176.8250  145.4870 C   0  0  2  0  0  3  0  0  0  0  0  0
  187.5060  177.9210  144.4050 C   0  0  0  0  0  2  0  0  0  0  0  0
  186.1530  177.9510  143.7100 C   0  0  0  0  0  3  0  0  0  0  0  0
  185.7040  179.3900  143.5710 C   0  0  0  0  0  2  0  0  0  0  0  0
  186.2940  178.6640  142.3820 C   0  0  0  0  0  2  0  0  0  0  0  0
  187.3220  177.3170  146.9060 C   0  0  0  0  0  2  0  0  0  0  0  0
  185.8460  177.1780  147.2440 C   0  0  0  0  0  2  0  0  0  0  0  0
  185.1810  178.5410  147.2800 C   0  0  0  0  0  2  0  0  0  0  0  0
  184.0310  178.5170  146.4930 O   0  0  0  0  0  1  0  0  0  0  0  0
  1 11  1  0  0  0  0
  1  4  2  0  0  0  0
  2  5  1  0  0  0  0
  3  7  1  1  0  0  0
  3  6  1  0  0  0  0
  5  6  1  0  0  0  0
  6 11  2  0  0  0  0
  7  2  2  0  0  0  0
  8 10  1  6  0  0  0
  9 14  1  0  0  0  0
  9 13  1  0  0  0  0
 12  7  1  0  0  0  0
 13 17  1  0  0  0  0
 13 10  1  0  0  0  0
 15  8  1  0  0  0  0
 15  1  1  0  0  0  0
 16 14  1  1  0  0  0
 16  3  1  0  0  0  0
 16  8  1  0  0  0  0
 17 18  1  6  0  0  0
 17 22  1  0  0  0  0
 19 18  1  0  0  0  0
 20 19  1  0  0  0  0
 21 20  1  0  0  0  0
 21 19  1  0  0  0  0
 22 23  1  0  0  0  0
 23 24  1  0  0  0  0
 25 24  1  0  0  0  0
M  END
>  <MODEL>
5

>  <REMARK>
 VINA RESULT:      -6.4      3.063      7.629
  Name = 
  6 active torsions:
  status: ('A' for Active; 'I' for Inactive)
    1  A    between atoms: C_3  and  C_4
    2  A    between atoms: C_4  and  C_10
    3  A    between atoms: C_6  and  C_9
    4  A    between atoms: C_6  and  C_16
    5  A    between atoms: C_10  and  C_16
    6  A    between atoms: C_10  and  N_21
                            x       y       z     vdW  Elec       q    Type
                         _______ _______ _______ _____ _____    ______ ____

>  <TORSDO>
F 6

$$$$
=
 OpenBabel11042418113D

 25 28  0  0  1  0  0  0  0  0999 V2000
  186.5060  177.7350  147.0860 C   0  0  0  0  0  0  0  0  0  0  0  0
  185.8310  179.1840  142.7550 N   0  0  0  0  0  0  0  0  0  0  0  0
  187.1460  177.9070  144.0640 C   0  0  1  0  0  3  0  0  0  0  0  0
  185.9300  177.6700  148.2020 O   0  0  0  0  0  0  0  0  0  0  0  0
  185.5080  179.3890  143.9970 O   0  0  0  0  0  0  0  0  0  0  0  0
  186.2250  178.6500  144.8100 C   0  0  0  0  0  0  0  0  0  0  0  0
  186.8100  178.2630  142.7580 C   0  0  0  0  0  0  0  0  0  0  0  0
  188.6770  177.2500  145.9020 C   0  0  2  0  0  3  0  0  0  0  0  0
  190.1660  175.6070  144.0220 C   0  0  0  0  0  2  0  0  0  0  0  0
  189.9050  176.3920  146.2080 C   0  0  0  0  0  2  0  0  0  0  0  0
  185.9700  178.6060  146.0860 N   0  0  0  0  0  0  0  0  0  0  0  0
  187.4590  177.8330  141.5640 N   0  0  0  0  0  1  0  0  0  0  0  0
  190.8240  176.3670  145.0750 N   0  0  0  0  0  0  0  0  0  0  0  0
  189.0200  176.4210  143.4370 C   0  0  0  0  0  2  0  0  0  0  0  0
  187.6420  176.9120  146.8530 N   0  0  0  0  0  2  0  0  0  0  0  0
  188.1830  177.1410  144.4740 C   0  0  2  0  0  3  0  0  0  0  0  0
  192.0930  175.7060  145.4210 C   0  0  2  0  0  3  0  0  0  0  0  0
  192.0720  174.1630  145.3680 C   0  0  0  0  0  2  0  0  0  0  0  0
  193.2150  173.5700  144.5570 C   0  0  0  0  0  3  0  0  0  0  0  0
  194.0130  172.6360  145.4430 C   0  0  0  0  0  2  0  0  0  0  0  0
  193.0210  172.0730  144.4500 C   0  0  0  0  0  2  0  0  0  0  0  0
  192.6880  176.2770  146.7100 C   0  0  0  0  0  2  0  0  0  0  0  0
  194.1970  176.4340  146.6010 C   0  0  0  0  0  2  0  0  0  0  0  0
  194.5590  177.1860  145.3340 C   0  0  0  0  0  2  0  0  0  0  0  0
  195.4100  176.4020  144.5570 O   0  0  0  0  0  1  0  0  0  0  0  0
  1  4  2  0  0  0  0
  2  7  2  0  0  0  0
  2  5  1  0  0  0  0
  3  7  1  6  0  0  0
  3 16  1  0  0  0  0
  3  6  1  0  0  0  0
  5  6  1  0  0  0  0
  6 11  2  0  0  0  0
  8 10  1  6  0  0  0
  8 15  1  0  0  0  0
  9 13  1  0  0  0  0
 11  1  1  0  0  0  0
 12  7  1  0  0  0  0
 13 17  1  0  0  0  0
 13 10  1  0  0  0  0
 14  9  1  0  0  0  0
 15  1  1  0  0  0  0
 16 14  1  6  0  0  0
 16  8  1  0  0  0  0
 17 18  1  1  0  0  0
 17 22  1  0  0  0  0
 19 18  1  0  0  0  0
 19 20  1  0  0  0  0
 21 19  1  0  0  0  0
 21 20  1  0  0  0  0
 23 22  1  0  0  0  0
 24 23  1  0  0  0  0
 25 24  1  0  0  0  0
M  END
>  <MODEL>
6

>  <REMARK>
 VINA RESULT:      -6.4      2.343      4.181
  Name = 
  6 active torsions:
  status: ('A' for Active; 'I' for Inactive)
    1  A    between atoms: C_3  and  C_4
    2  A    between atoms: C_4  and  C_10
    3  A    between atoms: C_6  and  C_9
    4  A    between atoms: C_6  and  C_16
    5  A    between atoms: C_10  and  C_16
    6  A    between atoms: C_10  and  N_21
                            x       y       z     vdW  Elec       q    Type
                         _______ _______ _______ _____ _____    ______ ____

>  <TORSDO>
F 6

$$$$
=
 OpenBabel11042418113D

 25 28  0  0  1  0  0  0  0  0999 V2000
  191.9410  175.7360  142.8220 C   0  0  0  0  0  0  0  0  0  0  0  0
  193.3350  176.6080  147.1360 N   0  0  0  0  0  0  0  0  0  0  0  0
  191.5220  176.3840  145.8180 C   0  0  1  0  0  3  0  0  0  0  0  0
  192.3600  175.2830  141.7260 O   0  0  0  0  0  0  0  0  0  0  0  0
  193.7270  176.5190  145.9010 O   0  0  0  0  0  0  0  0  0  0  0  0
  192.7110  176.3600  145.0840 C   0  0  0  0  0  0  0  0  0  0  0  0
  191.9950  176.5010  147.1260 C   0  0  0  0  0  0  0  0  0  0  0  0
  189.9330  176.7580  143.9500 C   0  0  2  0  0  3  0  0  0  0  0  0
  187.7270  176.4770  145.8230 C   0  0  0  0  0  2  0  0  0  0  0  0
  188.4410  176.8440  143.6280 C   0  0  0  0  0  2  0  0  0  0  0  0
  192.8950  176.1180  143.8180 N   0  0  0  0  0  0  0  0  0  0  0  0
  191.2100  176.6160  148.3090 N   0  0  0  0  0  1  0  0  0  0  0  0
  187.6980  177.4410  144.7330 N   0  0  0  0  0  0  0  0  0  0  0  0
  189.1250  176.4180  146.4230 C   0  0  0  0  0  2  0  0  0  0  0  0
  190.5380  175.8120  143.0400 N   0  0  0  0  0  2  0  0  0  0  0  0
  190.2380  176.4180  145.3950 C   0  0  2  0  0  3  0  0  0  0  0  0
  186.2980  177.7050  144.3640 C   0  0  2  0  0  3  0  0  0  0  0  0
  185.9510  177.4750  142.8770 C   0  0  0  0  0  2  0  0  0  0  0  0
  185.2600  178.6640  142.2260 C   0  0  0  0  0  3  0  0  0  0  0  0
  184.8700  178.2920  140.8100 C   0  0  0  0  0  2  0  0  0  0  0  0
  183.8280  178.2900  141.9070 C   0  0  0  0  0  2  0  0  0  0  0  0
  185.8180  179.0500  144.9150 C   0  0  0  0  0  2  0  0  0  0  0  0
  184.5780  178.8820  145.7790 C   0  0  0  0  0  2  0  0  0  0  0  0
  184.9670  178.4990  147.1940 C   0  0  0  0  0  2  0  0  0  0  0  0
  185.9760  179.3510  147.6430 O   0  0  0  0  0  1  0  0  0  0  0  0
  1 15  1  0  0  0  0
  1 11  1  0  0  0  0
  3  6  1  6  0  0  0
  3  7  1  0  0  0  0
  4  1  2  0  0  0  0
  5  2  1  0  0  0  0
  6  5  1  0  0  0  0
  7  2  2  0  0  0  0
  7 12  1  0  0  0  0
  8 10  1  1  0  0  0
  8 16  1  0  0  0  0
  9 14  1  0  0  0  0
 10 13  1  0  0  0  0
 11  6  2  0  0  0  0
 13  9  1  0  0  0  0
 15  8  1  0  0  0  0
 16  3  1  0  0  0  0
 16 14  1  1  0  0  0
 17 18  1  6  0  0  0
 17 13  1  0  0  0  0
 17 22  1  0  0  0  0
 19 18  1  0  0  0  0
 20 21  1  0  0  0  0
 20 19  1  0  0  0  0
 21 19  1  0  0  0  0
 22 23  1  0  0  0  0
 23 24  1  0  0  0  0
 24 25  1  0  0  0  0
M  END
>  <MODEL>
7

>  <REMARK>
 VINA RESULT:      -6.4      2.810      7.009
  Name = 
  6 active torsions:
  status: ('A' for Active; 'I' for Inactive)
    1  A    between atoms: C_3  and  C_4
    2  A    between atoms: C_4  and  C_10
    3  A    between atoms: C_6  and  C_9
    4  A    between atoms: C_6  and  C_16
    5  A    between atoms: C_10  and  C_16
    6  A    between atoms: C_10  and  N_21
                            x       y       z     vdW  Elec       q    Type
                         _______ _______ _______ _____ _____    ______ ____

>  <TORSDO>
F 6

$$$$
=
 OpenBabel11042418113D

 25 28  0  0  1  0  0  0  0  0999 V2000
  191.3000  176.9940  147.9890 C   0  0  0  0  0  0  0  0  0  0  0  0
  193.6920  175.6020  144.2940 N   0  0  0  0  0  0  0  0  0  0  0  0
  191.7260  176.4680  144.9700 C   0  0  1  0  0  3  0  0  0  0  0  0
  191.4500  177.2970  149.2000 O   0  0  0  0  0  0  0  0  0  0  0  0
  193.6510  175.5760  145.5930 O   0  0  0  0  0  0  0  0  0  0  0  0
  192.5340  176.0940  146.0480 C   0  0  0  0  0  0  0  0  0  0  0  0
  192.5450  176.1670  143.8820 C   0  0  0  0  0  0  0  0  0  0  0  0
  189.5720  176.7070  146.1770 C   0  0  2  0  0  3  0  0  0  0  0  0
  188.3550  177.6950  143.7290 C   0  0  0  0  0  2  0  0  0  0  0  0
  188.1210  177.1500  145.9900 C   0  0  0  0  0  2  0  0  0  0  0  0
  192.3490  176.2840  147.3230 N   0  0  0  0  0  0  0  0  0  0  0  0
  192.2140  176.3060  142.5030 N   0  0  0  0  0  1  0  0  0  0  0  0
  187.6410  176.8240  144.6510 N   0  0  0  0  0  0  0  0  0  0  0  0
  189.8080  177.2530  143.6220 C   0  0  0  0  0  2  0  0  0  0  0  0
  190.1130  177.4030  147.3230 N   0  0  0  0  0  2  0  0  0  0  0  0
  190.4410  176.8890  144.9500 C   0  0  2  0  0  3  0  0  0  0  0  0
  186.1950  177.0690  144.5200 C   0  0  2  0  0  3  0  0  0  0  0  0
  185.6490  177.0450  143.0760 C   0  0  0  0  0  2  0  0  0  0  0  0
  185.1760  178.4050  142.5860 C   0  0  0  0  0  3  0  0  0  0  0  0
  184.8260  178.3040  141.1160 C   0  0  0  0  0  2  0  0  0  0  0  0
  183.7280  178.3000  142.1560 C   0  0  0  0  0  2  0  0  0  0  0  0
  185.7580  178.2900  145.3320 C   0  0  0  0  0  2  0  0  0  0  0  0
  184.5900  177.9560  146.2470 C   0  0  0  0  0  2  0  0  0  0  0  0
  184.8330  178.5110  147.6370 C   0  0  0  0  0  2  0  0  0  0  0  0
  185.9060  179.4000  147.6010 O   0  0  0  0  0  1  0  0  0  0  0  0
  1  4  2  0  0  0  0
  2  5  1  0  0  0  0
  3  7  1  6  0  0  0
  3  6  1  0  0  0  0
  5  6  1  0  0  0  0
  6 11  2  0  0  0  0
  7  2  2  0  0  0  0
  8 10  1  6  0  0  0
  8 15  1  0  0  0  0
  9 13  1  0  0  0  0
 11  1  1  0  0  0  0
 12  7  1  0  0  0  0
 13 10  1  0  0  0  0
 14  9  1  0  0  0  0
 15  1  1  0  0  0  0
 16 14  1  6  0  0  0
 16  3  1  0  0  0  0
 16  8  1  0  0  0  0
 17 18  1  6  0  0  0
 17 13  1  0  0  0  0
 17 22  1  0  0  0  0
 19 18  1  0  0  0  0
 20 21  1  0  0  0  0
 20 19  1  0  0  0  0
 21 19  1  0  0  0  0
 22 23  1  0  0  0  0
 23 24  1  0  0  0  0
 25 24  1  0  0  0  0
M  END
>  <MODEL>
8

>  <REMARK>
 VINA RESULT:      -6.4      3.084      7.486
  Name = 
  6 active torsions:
  status: ('A' for Active; 'I' for Inactive)
    1  A    between atoms: C_3  and  C_4
    2  A    between atoms: C_4  and  C_10
    3  A    between atoms: C_6  and  C_9
    4  A    between atoms: C_6  and  C_16
    5  A    between atoms: C_10  and  C_16
    6  A    between atoms: C_10  and  N_21
                            x       y       z     vdW  Elec       q    Type
                         _______ _______ _______ _____ _____    ______ ____

>  <TORSDO>
F 6

$$$$
=
 OpenBabel11042418113D

 25 28  0  0  1  0  0  0  0  0999 V2000
  184.5850  178.2060  141.5770 C   0  0  0  0  0  0  0  0  0  0  0  0
  184.5570  178.7360  146.1630 N   0  0  0  0  0  0  0  0  0  0  0  0
  185.7780  177.9910  144.4230 C   0  0  1  0  0  3  0  0  0  0  0  0
  183.9830  178.5840  140.5400 O   0  0  0  0  0  0  0  0  0  0  0  0
  183.8140  178.7500  145.0970 O   0  0  0  0  0  0  0  0  0  0  0  0
  184.4820  178.3490  144.0400 C   0  0  0  0  0  0  0  0  0  0  0  0
  185.7710  178.3040  145.7830 C   0  0  0  0  0  0  0  0  0  0  0  0
  186.4240  176.6960  142.4080 C   0  0  2  0  0  3  0  0  0  0  0  0
  189.1050  176.4160  143.4950 C   0  0  0  0  0  2  0  0  0  0  0  0
  187.6040  175.9740  141.7580 C   0  0  0  0  0  2  0  0  0  0  0  0
  183.9620  178.4140  142.8480 N   0  0  0  0  0  0  0  0  0  0  0  0
  186.8350  178.1020  146.7090 N   0  0  0  0  0  1  0  0  0  0  0  0
  188.4500  175.3400  142.7640 N   0  0  0  0  0  0  0  0  0  0  0  0
  188.0940  177.1250  144.3850 C   0  0  0  0  0  2  0  0  0  0  0  0
  185.8760  177.6240  141.4450 N   0  0  0  0  0  2  0  0  0  0  0  0
  186.7570  177.3790  143.7180 C   0  0  2  0  0  3  0  0  0  0  0  0
  189.4780  174.4860  142.1470 C   0  0  2  0  0  3  0  0  0  0  0  0
  188.9430  173.3790  141.2120 C   0  0  0  0  0  2  0  0  0  0  0  0
  189.4740  173.4810  139.7900 C   0  0  0  0  0  3  0  0  0  0  0  0
  189.2940  172.1430  139.1010 C   0  0  0  0  0  2  0  0  0  0  0  0
  188.3300  173.2740  138.8190 C   0  0  0  0  0  2  0  0  0  0  0  0
  190.4910  173.9920  143.1820 C   0  0  0  0  0  2  0  0  0  0  0  0
  190.3020  172.5130  143.4800 C   0  0  0  0  0  2  0  0  0  0  0  0
  189.6760  172.3260  144.8490 C   0  0  0  0  0  2  0  0  0  0  0  0
  189.7620  173.5190  145.5640 O   0  0  0  0  0  1  0  0  0  0  0  0
  1 11  1  0  0  0  0
  3  6  1  1  0  0  0
  3  7  1  0  0  0  0
  4  1  2  0  0  0  0
  5  2  1  0  0  0  0
  6  5  1  0  0  0  0
  7  2  2  0  0  0  0
  7 12  1  0  0  0  0
  8 10  1  6  0  0  0
  8 16  1  0  0  0  0
  9 14  1  0  0  0  0
 10 13  1  0  0  0  0
 11  6  2  0  0  0  0
 13  9  1  0  0  0  0
 15  1  1  0  0  0  0
 15  8  1  0  0  0  0
 16 14  1  1  0  0  0
 16  3  1  0  0  0  0
 17 18  1  1  0  0  0
 17 13  1  0  0  0  0
 17 22  1  0  0  0  0
 19 18  1  0  0  0  0
 20 19  1  0  0  0  0
 21 20  1  0  0  0  0
 21 19  1  0  0  0  0
 22 23  1  0  0  0  0
 23 24  1  0  0  0  0
 24 25  1  0  0  0  0
M  END
>  <MODEL>
9

>  <REMARK>
 VINA RESULT:      -6.2      2.368      3.820
  Name = 
  6 active torsions:
  status: ('A' for Active; 'I' for Inactive)
    1  A    between atoms: C_3  and  C_4
    2  A    between atoms: C_4  and  C_10
    3  A    between atoms: C_6  and  C_9
    4  A    between atoms: C_6  and  C_16
    5  A    between atoms: C_10  and  C_16
    6  A    between atoms: C_10  and  N_21
                            x       y       z     vdW  Elec       q    Type
                         _______ _______ _______ _____ _____    ______ ____

>  <TORSDO>
F 6

$$$$
