=
 OpenBabel11042414563D

 39 42  0  0  1  0  0  0  0  0999 V2000
  188.1770  177.2960  143.0520 C   0  0  2  0  0  3  0  0  0  0  0  0
  189.5370  175.5190  142.3890 C   0  0  2  0  0  3  0  0  0  0  0  0
  187.3110  176.0690  142.8290 C   0  0  0  0  0  2  0  0  0  0  0  0
  189.5790  176.7630  143.2770 C   0  0  2  0  0  3  0  0  0  0  0  0
  188.1790  174.9800  142.3870 N   0  0  0  0  0  2  0  0  0  0  0  0
  189.9000  176.5240  144.7750 C   0  0  2  0  0  3  0  0  0  0  0  0
  191.3290  176.8850  145.0940 C   0  0  0  0  0  0  0  0  0  0  0  0
  191.9440  177.5970  144.3170 O   0  0  0  0  0  0  0  0  0  0  0  0
  192.0110  176.4180  146.3470 C   0  0  0  0  0  2  0  0  0  0  0  0
  194.4340  175.8670  146.1110 C   0  0  0  0  0  3  0  0  0  0  0  0
  195.4670  174.9560  145.8720 C   0  0  0  0  0  3  0  0  0  0  0  0
  195.1670  173.6180  145.5830 C   0  0  0  0  0  3  0  0  0  0  0  0
  193.1030  175.4450  146.0540 C   0  0  0  0  0  0  0  0  0  0  0  0
  192.8050  174.1040  145.7720 C   0  0  0  0  0  3  0  0  0  0  0  0
  193.8350  173.1920  145.5330 C   0  0  0  0  0  3  0  0  0  0  0  0
  189.5560  175.2340  145.1950 O   0  0  0  0  0  0  0  0  0  0  0  0
  189.0950  174.4960  147.3080 O   0  0  0  0  0  1  0  0  0  0  0  0
  188.7300  175.3990  146.3100 C   0  0  0  0  0  2  0  0  0  0  0  0
  190.6380  174.4560  142.5470 C   0  0  0  0  0  2  0  0  0  0  0  0
  195.3310  173.6670  141.7840 C   0  0  0  0  0  0  0  0  0  0  0  0
  193.0590  174.1470  142.0440 C   0  0  0  0  0  0  0  0  0  0  0  0
  196.5220  174.1350  142.1910 N   0  0  0  0  0  0  0  0  0  0  0  0
  197.2790  176.4060  142.9230 C   0  0  0  0  0  1  0  0  0  0  0  0
  194.4060  174.6290  141.8700 C   0  0  0  0  0  0  0  0  0  0  0  0
  192.0170  174.9510  142.2450 C   0  0  0  0  0  2  0  0  0  0  0  0
  194.7300  171.9900  141.8380 S   0  0  0  0  0  0  0  0  0  0  0  0
  196.2520  175.4460  142.4250 C   0  0  0  0  0  0  0  0  0  0  0  0
  193.0080  172.6410  142.0670 C   0  0  0  0  0  3  0  0  0  0  0  0
  194.9430  175.7820  142.2990 N   0  0  0  0  0  2  0  0  0  0  0  0
  187.6300  178.2110  144.1380 C   0  0  0  0  0  2  0  0  0  0  0  0
  186.2330  178.6580  143.7630 C   0  0  0  0  0  2  0  0  0  0  0  0
  185.3910  178.9160  145.0030 C   0  0  1  0  0  3  0  0  0  0  0  0
  184.0480  178.6690  144.7000 O   0  0  0  0  0  1  0  0  0  0  0  0
  185.1700  176.6580  146.0870 C   0  0  0  0  0  1  0  0  0  0  0  0
  185.8460  178.0230  146.1670 C   0  0  2  0  0  3  0  0  0  0  0  0
  186.2710  177.9910  148.5300 F   0  0  0  0  0  0  0  0  0  0  0  0
  185.5670  178.6560  147.5400 C   0  0  0  0  0  0  0  0  0  0  0  0
  184.2190  178.5670  147.8360 F   0  0  0  0  0  0  0  0  0  0  0  0
  185.9420  179.9900  147.5390 F   0  0  0  0  0  0  0  0  0  0  0  0
  1  4  1  0  0  0  0
  1 30  1  1  0  0  0
  2 19  1  1  0  0  0
  2  4  1  0  0  0  0
  3  1  1  0  0  0  0
  4  6  1  1  0  0  0
  5  2  1  0  0  0  0
  5  3  1  0  0  0  0
  6  7  1  6  0  0  0
  6 16  1  0  0  0  0
  7  9  1  0  0  0  0
  8  7  2  0  0  0  0
 11 10  2  0  0  0  0
 12 11  1  0  0  0  0
 13 10  1  0  0  0  0
 13  9  1  0  0  0  0
 14 13  2  0  0  0  0
 15 12  2  0  0  0  0
 15 14  1  0  0  0  0
 16 18  1  0  0  0  0
 18 17  1  0  0  0  0
 20 26  1  0  0  0  0
 20 24  2  0  0  0  0
 20 22  1  0  0  0  0
 21 28  2  0  0  0  0
 21 25  1  0  0  0  0
 22 27  2  0  0  0  0
 24 21  1  0  0  0  0
 24 29  1  0  0  0  0
 25 19  1  0  0  0  0
 26 28  1  0  0  0  0
 27 23  1  0  0  0  0
 29 27  1  0  0  0  0
 31 30  1  0  0  0  0
 31 32  1  0  0  0  0
 32 33  1  6  0  0  0
 32 35  1  0  0  0  0
 35 34  1  1  0  0  0
 35 37  1  0  0  0  0
 37 38  1  0  0  0  0
 37 36  1  0  0  0  0
 39 37  1  0  0  0  0
M  END
>  <MODEL>
1

>  <REMARK>
 VINA RESULT:      -7.2      0.000      0.000
  Name = 
  13 active torsions:
  status: ('A' for Active; 'I' for Inactive)
    1  A    between atoms: O_1  and  C_11
    2  A    between atoms: O_1  and  C_21
    3  A    between atoms: C_3  and  C_35
    4  A    between atoms: C_9  and  C_28
    5  A    between atoms: C_9  and  C_29
    6  A    between atoms: C_11  and  C_20
    7  A    between atoms: C_11  and  C_26
    8  A    between atoms: C_12  and  C_28
    9  A    between atoms: C_15  and  C_22
   10  A    between atoms: C_18  and  C_22
   11  A    between atoms: C_19  and  C_20
   12  A    between atoms: C_19  and  C_27
   13  A    between atoms: C_29  and  C_35
                            x       y       z     vdW  Elec       q    Type
                         _______ _______ _______ _____ _____    ______ ____

>  <TORSDO>
F 13

$$$$
=
 OpenBabel11042414563D

 39 42  0  0  1  0  0  0  0  0999 V2000
  190.9300  177.7080  144.1290 C   0  0  2  0  0  3  0  0  0  0  0  0
  192.3590  176.1920  145.1820 C   0  0  2  0  0  3  0  0  0  0  0  0
  191.7310  176.9690  143.0710 C   0  0  0  0  0  2  0  0  0  0  0  0
  190.9770  176.8240  145.3600 C   0  0  2  0  0  3  0  0  0  0  0  0
  192.6370  176.0490  143.7550 N   0  0  0  0  0  2  0  0  0  0  0  0
  189.7810  175.8410  145.4420 C   0  0  2  0  0  3  0  0  0  0  0  0
  189.0490  175.9780  146.7540 C   0  0  0  0  0  0  0  0  0  0  0  0
  188.7990  174.9720  147.3970 O   0  0  0  0  0  0  0  0  0  0  0  0
  188.6390  177.3130  147.3050 C   0  0  0  0  0  2  0  0  0  0  0  0
  186.3820  176.5890  146.5210 C   0  0  0  0  0  3  0  0  0  0  0  0
  185.0120  176.8130  146.3520 C   0  0  0  0  0  3  0  0  0  0  0  0
  184.4460  178.0260  146.7670 C   0  0  0  0  0  3  0  0  0  0  0  0
  187.1860  177.5770  147.0960 C   0  0  0  0  0  0  0  0  0  0  0  0
  186.6150  178.7870  147.5170 C   0  0  0  0  0  3  0  0  0  0  0  0
  185.2470  179.0130  147.3500 C   0  0  0  0  0  3  0  0  0  0  0  0
  190.1550  174.5210  145.1610 O   0  0  0  0  0  0  0  0  0  0  0  0
  190.3850  173.6120  143.0770 O   0  0  0  0  0  1  0  0  0  0  0  0
  189.4860  174.1760  143.9830 C   0  0  0  0  0  2  0  0  0  0  0  0
  192.7250  174.9580  146.0240 C   0  0  0  0  0  2  0  0  0  0  0  0
  196.5960  172.7090  144.2400 C   0  0  0  0  0  0  0  0  0  0  0  0
  194.6640  173.6670  145.1380 C   0  0  0  0  0  0  0  0  0  0  0  0
  197.0300  172.1940  143.0780 N   0  0  0  0  0  0  0  0  0  0  0  0
  195.8320  171.1190  141.1600 C   0  0  0  0  0  1  0  0  0  0  0  0
  195.2600  172.6660  144.2920 C   0  0  0  0  0  0  0  0  0  0  0  0
  193.3490  173.8450  145.2430 C   0  0  0  0  0  2  0  0  0  0  0  0
  197.3840  173.9380  145.2610 S   0  0  0  0  0  0  0  0  0  0  0  0
  195.8750  171.7640  142.5050 C   0  0  0  0  0  0  0  0  0  0  0  0
  195.7100  174.5300  145.7970 C   0  0  0  0  0  3  0  0  0  0  0  0
  194.7510  172.0910  143.1910 N   0  0  0  0  0  2  0  0  0  0  0  0
  189.5420  178.1020  143.6450 C   0  0  0  0  0  2  0  0  0  0  0  0
  189.3920  177.7250  142.1860 C   0  0  0  0  0  2  0  0  0  0  0  0
  187.9260  177.6740  141.7840 C   0  0  1  0  0  3  0  0  0  0  0  0
  187.7470  176.6550  140.8440 O   0  0  0  0  0  1  0  0  0  0  0  0
  186.4300  176.0300  142.9590 C   0  0  0  0  0  1  0  0  0  0  0  0
  187.0320  177.4300  143.0090 C   0  0  2  0  0  3  0  0  0  0  0  0
  184.6930  177.8430  143.3670 F   0  0  0  0  0  0  0  0  0  0  0  0
  185.9060  178.4700  143.1340 C   0  0  0  0  0  0  0  0  0  0  0  0
  185.7970  179.1920  141.9590 F   0  0  0  0  0  0  0  0  0  0  0  0
  186.1710  179.3430  144.1770 F   0  0  0  0  0  0  0  0  0  0  0  0
  1 30  1  6  0  0  0
  1  4  1  0  0  0  0
  2  4  1  0  0  0  0
  2 19  1  1  0  0  0
  3  5  1  0  0  0  0
  3  1  1  0  0  0  0
  4  6  1  6  0  0  0
  5  2  1  0  0  0  0
  6 16  1  1  0  0  0
  6  7  1  0  0  0  0
  7  9  1  0  0  0  0
  7  8  2  0  0  0  0
 10 13  1  0  0  0  0
 11 10  2  0  0  0  0
 11 12  1  0  0  0  0
 12 15  2  0  0  0  0
 13  9  1  0  0  0  0
 13 14  2  0  0  0  0
 15 14  1  0  0  0  0
 17 18  1  0  0  0  0
 18 16  1  0  0  0  0
 20 24  2  0  0  0  0
 20 26  1  0  0  0  0
 21 25  1  0  0  0  0
 21 28  2  0  0  0  0
 22 20  1  0  0  0  0
 23 27  1  0  0  0  0
 24 21  1  0  0  0  0
 25 19  1  0  0  0  0
 26 28  1  0  0  0  0
 27 22  2  0  0  0  0
 27 29  1  0  0  0  0
 29 24  1  0  0  0  0
 31 30  1  0  0  0  0
 32 33  1  6  0  0  0
 32 31  1  0  0  0  0
 32 35  1  0  0  0  0
 35 34  1  6  0  0  0
 35 37  1  0  0  0  0
 37 36  1  0  0  0  0
 37 39  1  0  0  0  0
 38 37  1  0  0  0  0
M  END
>  <MODEL>
2

>  <REMARK>
 VINA RESULT:      -7.1      2.533      5.176
  Name = 
  13 active torsions:
  status: ('A' for Active; 'I' for Inactive)
    1  A    between atoms: O_1  and  C_11
    2  A    between atoms: O_1  and  C_21
    3  A    between atoms: C_3  and  C_35
    4  A    between atoms: C_9  and  C_28
    5  A    between atoms: C_9  and  C_29
    6  A    between atoms: C_11  and  C_20
    7  A    between atoms: C_11  and  C_26
    8  A    between atoms: C_12  and  C_28
    9  A    between atoms: C_15  and  C_22
   10  A    between atoms: C_18  and  C_22
   11  A    between atoms: C_19  and  C_20
   12  A    between atoms: C_19  and  C_27
   13  A    between atoms: C_29  and  C_35
                            x       y       z     vdW  Elec       q    Type
                         _______ _______ _______ _____ _____    ______ ____

>  <TORSDO>
F 13

$$$$
=
 OpenBabel11042414563D

 39 42  0  0  1  0  0  0  0  0999 V2000
  190.2610  175.3710  146.1610 C   0  0  2  0  0  3  0  0  0  0  0  0
  192.5240  175.7810  146.5600 C   0  0  2  0  0  3  0  0  0  0  0  0
  190.3870  176.5170  147.1490 C   0  0  0  0  0  2  0  0  0  0  0  0
  191.5930  175.3130  145.4400 C   0  0  2  0  0  3  0  0  0  0  0  0
  191.8100  176.7350  147.4040 N   0  0  0  0  0  2  0  0  0  0  0  0
  191.6120  176.1540  144.1380 C   0  0  2  0  0  3  0  0  0  0  0  0
  192.3690  175.4490  143.0400 C   0  0  0  0  0  0  0  0  0  0  0  0
  193.1240  176.0960  142.3350 O   0  0  0  0  0  0  0  0  0  0  0  0
  192.2410  173.9720  142.8030 C   0  0  0  0  0  2  0  0  0  0  0  0
  190.2230  172.5580  143.2060 C   0  0  0  0  0  3  0  0  0  0  0  0
  188.8980  172.2060  142.9340 C   0  0  0  0  0  3  0  0  0  0  0  0
  188.1840  172.8860  141.9380 C   0  0  0  0  0  3  0  0  0  0  0  0
  190.8380  173.5810  142.4800 C   0  0  0  0  0  0  0  0  0  0  0  0
  190.1190  174.2650  141.4880 C   0  0  0  0  0  3  0  0  0  0  0  0
  188.7950  173.9170  141.2150 C   0  0  0  0  0  3  0  0  0  0  0  0
  192.0580  177.4630  144.3550 O   0  0  0  0  0  0  0  0  0  0  0  0
  190.2850  177.7180  142.9360 O   0  0  0  0  0  1  0  0  0  0  0  0
  190.9990  178.2970  143.9860 C   0  0  0  0  0  2  0  0  0  0  0  0
  193.9600  176.2030  146.2040 C   0  0  0  0  0  2  0  0  0  0  0  0
  197.5920  173.6480  144.3310 C   0  0  0  0  0  0  0  0  0  0  0  0
  195.9010  174.8820  145.3690 C   0  0  0  0  0  0  0  0  0  0  0  0
  197.9410  172.3650  144.1350 N   0  0  0  0  0  0  0  0  0  0  0  0
  197.4660  170.2740  145.4260 C   0  0  0  0  0  1  0  0  0  0  0  0
  196.7890  173.7480  145.3960 C   0  0  0  0  0  0  0  0  0  0  0  0
  194.9640  175.0970  146.2900 C   0  0  0  0  0  2  0  0  0  0  0  0
  197.4610  174.9500  143.1220 S   0  0  0  0  0  0  0  0  0  0  0  0
  197.3720  171.7460  145.2020 C   0  0  0  0  0  0  0  0  0  0  0  0
  196.1060  175.7170  144.1310 C   0  0  0  0  0  3  0  0  0  0  0  0
  196.5990  172.5510  145.9740 N   0  0  0  0  0  2  0  0  0  0  0  0
  189.0290  175.4930  145.2760 C   0  0  0  0  0  2  0  0  0  0  0  0
  188.1350  176.5940  145.8060 C   0  0  0  0  0  2  0  0  0  0  0  0
  186.8020  176.6150  145.0740 C   0  0  1  0  0  3  0  0  0  0  0  0
  185.8120  177.0760  145.9460 O   0  0  0  0  0  1  0  0  0  0  0  0
  186.0140  178.7570  144.0200 C   0  0  0  0  0  1  0  0  0  0  0  0
  186.8770  177.5150  143.8310 C   0  0  2  0  0  3  0  0  0  0  0  0
  187.4060  176.9490  141.5580 F   0  0  0  0  0  0  0  0  0  0  0  0
  186.4520  176.7830  142.5470 C   0  0  0  0  0  0  0  0  0  0  0  0
  185.2560  177.3010  142.0820 F   0  0  0  0  0  0  0  0  0  0  0  0
  186.2900  175.4290  142.7970 F   0  0  0  0  0  0  0  0  0  0  0  0
  1 30  1  6  0  0  0
  1  3  1  0  0  0  0
  2 19  1  6  0  0  0
  2  5  1  0  0  0  0
  3  5  1  0  0  0  0
  4  6  1  6  0  0  0
  4  1  1  0  0  0  0
  4  2  1  0  0  0  0
  6  7  1  6  0  0  0
  6 16  1  0  0  0  0
  8  7  2  0  0  0  0
  9  7  1  0  0  0  0
 11 10  1  0  0  0  0
 12 11  2  0  0  0  0
 13  9  1  0  0  0  0
 13 10  2  0  0  0  0
 14 13  1  0  0  0  0
 15 14  2  0  0  0  0
 15 12  1  0  0  0  0
 17 18  1  0  0  0  0
 18 16  1  0  0  0  0
 19 25  1  0  0  0  0
 20 24  2  0  0  0  0
 21 24  1  0  0  0  0
 21 25  1  0  0  0  0
 22 20  1  0  0  0  0
 22 27  2  0  0  0  0
 24 29  1  0  0  0  0
 26 28  1  0  0  0  0
 26 20  1  0  0  0  0
 27 23  1  0  0  0  0
 27 29  1  0  0  0  0
 28 21  2  0  0  0  0
 30 31  1  0  0  0  0
 32 31  1  0  0  0  0
 32 33  1  1  0  0  0
 35 34  1  1  0  0  0
 35 32  1  0  0  0  0
 36 37  1  0  0  0  0
 37 39  1  0  0  0  0
 37 35  1  0  0  0  0
 38 37  1  0  0  0  0
M  END
>  <MODEL>
3

>  <REMARK>
 VINA RESULT:      -6.8      2.878      4.891
  Name = 
  13 active torsions:
  status: ('A' for Active; 'I' for Inactive)
    1  A    between atoms: O_1  and  C_11
    2  A    between atoms: O_1  and  C_21
    3  A    between atoms: C_3  and  C_35
    4  A    between atoms: C_9  and  C_28
    5  A    between atoms: C_9  and  C_29
    6  A    between atoms: C_11  and  C_20
    7  A    between atoms: C_11  and  C_26
    8  A    between atoms: C_12  and  C_28
    9  A    between atoms: C_15  and  C_22
   10  A    between atoms: C_18  and  C_22
   11  A    between atoms: C_19  and  C_20
   12  A    between atoms: C_19  and  C_27
   13  A    between atoms: C_29  and  C_35
                            x       y       z     vdW  Elec       q    Type
                         _______ _______ _______ _____ _____    ______ ____

>  <TORSDO>
F 13

$$$$
=
 OpenBabel11042414563D

 39 42  0  0  1  0  0  0  0  0999 V2000
  188.6350  176.0590  145.9890 C   0  0  2  0  0  3  0  0  0  0  0  0
  190.4220  174.7100  145.3290 C   0  0  2  0  0  3  0  0  0  0  0  0
  189.8760  176.4730  146.7590 C   0  0  0  0  0  2  0  0  0  0  0  0
  189.1470  175.3360  144.7590 C   0  0  2  0  0  3  0  0  0  0  0  0
  190.9720  175.5970  146.3500 N   0  0  0  0  0  2  0  0  0  0  0  0
  189.3320  176.2760  143.5400 C   0  0  2  0  0  3  0  0  0  0  0  0
  188.4640  175.8500  142.3820 C   0  0  0  0  0  0  0  0  0  0  0  0
  188.2320  176.6520  141.4940 O   0  0  0  0  0  0  0  0  0  0  0  0
  187.8980  174.4640  142.2770 C   0  0  0  0  0  2  0  0  0  0  0  0
  189.8920  173.7730  140.9440 C   0  0  0  0  0  3  0  0  0  0  0  0
  190.8980  172.8550  140.6280 C   0  0  0  0  0  3  0  0  0  0  0  0
  190.9590  171.6260  141.2990 C   0  0  0  0  0  3  0  0  0  0  0  0
  188.9440  173.4620  141.9230 C   0  0  0  0  0  0  0  0  0  0  0  0
  189.0120  172.2340  142.5980 C   0  0  0  0  0  3  0  0  0  0  0  0
  190.0160  171.3160  142.2850 C   0  0  0  0  0  3  0  0  0  0  0  0
  190.6780  176.4300  143.1850 O   0  0  0  0  0  0  0  0  0  0  0  0
  192.0760  177.9390  144.1830 O   0  0  0  0  0  1  0  0  0  0  0  0
  190.9650  177.7880  143.3510 C   0  0  0  0  0  2  0  0  0  0  0  0
  191.4690  174.1410  144.3560 C   0  0  0  0  0  2  0  0  0  0  0  0
  196.2000  173.7630  145.1930 C   0  0  0  0  0  0  0  0  0  0  0  0
  193.8840  173.9210  144.9310 C   0  0  0  0  0  0  0  0  0  0  0  0
  197.1600  172.8230  145.2130 N   0  0  0  0  0  0  0  0  0  0  0  0
  197.1190  170.3850  145.7780 C   0  0  0  0  0  1  0  0  0  0  0  0
  195.0140  173.2140  145.4780 C   0  0  0  0  0  0  0  0  0  0  0  0
  192.6320  173.4780  145.0240 C   0  0  0  0  0  2  0  0  0  0  0  0
  196.1620  175.2790  144.2570 S   0  0  0  0  0  0  0  0  0  0  0  0
  196.4750  171.7220  145.6180 C   0  0  0  0  0  0  0  0  0  0  0  0
  194.3130  175.1490  144.1700 C   0  0  0  0  0  3  0  0  0  0  0  0
  195.1350  171.9020  145.7330 N   0  0  0  0  0  2  0  0  0  0  0  0
  187.6880  177.2220  145.7320 C   0  0  0  0  0  2  0  0  0  0  0  0
  186.2590  176.7600  145.9240 C   0  0  0  0  0  2  0  0  0  0  0  0
  185.2750  177.8360  145.4900 C   0  0  1  0  0  3  0  0  0  0  0  0
  185.1590  178.7830  146.5130 O   0  0  0  0  0  1  0  0  0  0  0  0
  185.4600  180.0080  144.2380 C   0  0  0  0  0  1  0  0  0  0  0  0
  185.7410  178.5110  144.1910 C   0  0  2  0  0  3  0  0  0  0  0  0
  185.3810  176.5520  142.8490 F   0  0  0  0  0  0  0  0  0  0  0  0
  185.0820  177.9020  142.9430 C   0  0  0  0  0  0  0  0  0  0  0  0
  185.5590  178.5270  141.8040 F   0  0  0  0  0  0  0  0  0  0  0  0
  183.7070  178.0570  143.0010 F   0  0  0  0  0  0  0  0  0  0  0  0
  1 30  1  6  0  0  0
  1  3  1  0  0  0  0
  2 19  1  6  0  0  0
  2  5  1  0  0  0  0
  4  6  1  6  0  0  0
  4  2  1  0  0  0  0
  4  1  1  0  0  0  0
  5  3  1  0  0  0  0
  6  7  1  6  0  0  0
  8  7  2  0  0  0  0
  9  7  1  0  0  0  0
 10 13  1  0  0  0  0
 11 10  2  0  0  0  0
 11 12  1  0  0  0  0
 12 15  2  0  0  0  0
 13  9  1  0  0  0  0
 13 14  2  0  0  0  0
 15 14  1  0  0  0  0
 16 18  1  0  0  0  0
 16  6  1  0  0  0  0
 18 17  1  0  0  0  0
 19 25  1  0  0  0  0
 20 22  1  0  0  0  0
 20 24  2  0  0  0  0
 21 25  1  0  0  0  0
 21 24  1  0  0  0  0
 22 27  2  0  0  0  0
 24 29  1  0  0  0  0
 26 20  1  0  0  0  0
 27 29  1  0  0  0  0
 27 23  1  0  0  0  0
 28 26  1  0  0  0  0
 28 21  2  0  0  0  0
 30 31  1  0  0  0  0
 32 31  1  0  0  0  0
 32 33  1  1  0  0  0
 35 34  1  1  0  0  0
 35 32  1  0  0  0  0
 36 37  1  0  0  0  0
 37 39  1  0  0  0  0
 37 35  1  0  0  0  0
 38 37  1  0  0  0  0
M  END
>  <MODEL>
4

>  <REMARK>
 VINA RESULT:      -6.8      2.756      4.517
  Name = 
  13 active torsions:
  status: ('A' for Active; 'I' for Inactive)
    1  A    between atoms: O_1  and  C_11
    2  A    between atoms: O_1  and  C_21
    3  A    between atoms: C_3  and  C_35
    4  A    between atoms: C_9  and  C_28
    5  A    between atoms: C_9  and  C_29
    6  A    between atoms: C_11  and  C_20
    7  A    between atoms: C_11  and  C_26
    8  A    between atoms: C_12  and  C_28
    9  A    between atoms: C_15  and  C_22
   10  A    between atoms: C_18  and  C_22
   11  A    between atoms: C_19  and  C_20
   12  A    between atoms: C_19  and  C_27
   13  A    between atoms: C_29  and  C_35
                            x       y       z     vdW  Elec       q    Type
                         _______ _______ _______ _____ _____    ______ ____

>  <TORSDO>
F 13

$$$$
=
 OpenBabel11042414563D

 39 42  0  0  1  0  0  0  0  0999 V2000
  191.8980  172.8720  143.3780 C   0  0  2  0  0  3  0  0  0  0  0  0
  190.1890  174.3160  142.7100 C   0  0  2  0  0  3  0  0  0  0  0  0
  191.5780  172.6140  141.9170 C   0  0  0  0  0  2  0  0  0  0  0  0
  191.3870  174.2720  143.6610 C   0  0  2  0  0  3  0  0  0  0  0  0
  190.4880  173.5080  141.5310 N   0  0  0  0  0  2  0  0  0  0  0  0
  192.4690  175.3620  143.4500 C   0  0  2  0  0  3  0  0  0  0  0  0
  192.2590  176.5300  144.3820 C   0  0  0  0  0  0  0  0  0  0  0  0
  192.1780  177.6520  143.9120 O   0  0  0  0  0  0  0  0  0  0  0  0
  192.1210  176.3530  145.8660 C   0  0  0  0  0  2  0  0  0  0  0  0
  190.2320  175.0040  146.7850 C   0  0  0  0  0  3  0  0  0  0  0  0
  188.9040  174.8800  147.2070 C   0  0  0  0  0  3  0  0  0  0  0  0
  188.0410  175.9800  147.1290 C   0  0  0  0  0  3  0  0  0  0  0  0
  190.6930  176.2220  146.2790 C   0  0  0  0  0  0  0  0  0  0  0  0
  189.8280  177.3240  146.2090 C   0  0  0  0  0  3  0  0  0  0  0  0
  188.5030  177.2030  146.6300 C   0  0  0  0  0  3  0  0  0  0  0  0
  192.5830  175.7470  142.1090 O   0  0  0  0  0  0  0  0  0  0  0  0
  194.2450  174.6800  140.9590 O   0  0  0  0  0  1  0  0  0  0  0  0
  193.9510  175.7360  141.8220 C   0  0  0  0  0  2  0  0  0  0  0  0
  189.5390  175.6740  142.3980 C   0  0  0  0  0  2  0  0  0  0  0  0
  185.1300  177.6150  142.5550 C   0  0  0  0  0  0  0  0  0  0  0  0
  187.2100  176.5510  142.5370 C   0  0  0  0  0  0  0  0  0  0  0  0
  184.3590  178.3270  143.3950 N   0  0  0  0  0  0  0  0  0  0  0  0
  184.2080  178.3980  145.8920 C   0  0  0  0  0  1  0  0  0  0  0  0
  186.0000  176.8720  143.2490 C   0  0  0  0  0  0  0  0  0  0  0  0
  188.2340  175.9050  143.0920 C   0  0  0  0  0  2  0  0  0  0  0  0
  185.5940  178.0110  140.8810 S   0  0  0  0  0  0  0  0  0  0  0  0
  184.7700  177.8800  144.6110 C   0  0  0  0  0  0  0  0  0  0  0  0
  187.2000  177.1210  141.1420 C   0  0  0  0  0  3  0  0  0  0  0  0
  185.8250  177.0270  144.5710 N   0  0  0  0  0  2  0  0  0  0  0  0
  193.3600  172.6160  143.7130 C   0  0  0  0  0  2  0  0  0  0  0  0
  193.4480  171.7560  144.9560 C   0  0  0  0  0  2  0  0  0  0  0  0
  194.7920  171.9330  145.6470 C   0  0  1  0  0  3  0  0  0  0  0  0
  195.4010  170.6820  145.7830 O   0  0  0  0  0  1  0  0  0  0  0  0
  196.9620  172.1590  144.4000 C   0  0  0  0  0  1  0  0  0  0  0  0
  195.6960  172.8820  144.8470 C   0  0  2  0  0  3  0  0  0  0  0  0
  196.9350  173.8190  146.6790 F   0  0  0  0  0  0  0  0  0  0  0  0
  196.0760  174.1430  145.6400 C   0  0  0  0  0  0  0  0  0  0  0  0
  194.9420  174.7180  146.1850 F   0  0  0  0  0  0  0  0  0  0  0  0
  196.6970  175.0630  144.8120 F   0  0  0  0  0  0  0  0  0  0  0  0
  1  4  1  0  0  0  0
  1 30  1  6  0  0  0
  2 19  1  6  0  0  0
  2  4  1  0  0  0  0
  3  1  1  0  0  0  0
  4  6  1  6  0  0  0
  5  3  1  0  0  0  0
  5  2  1  0  0  0  0
  6 16  1  6  0  0  0
  6  7  1  0  0  0  0
  7  9  1  0  0  0  0
  8  7  2  0  0  0  0
  9 13  1  0  0  0  0
 10 11  1  0  0  0  0
 12 11  2  0  0  0  0
 13 10  2  0  0  0  0
 14 13  1  0  0  0  0
 14 15  2  0  0  0  0
 15 12  1  0  0  0  0
 17 18  1  0  0  0  0
 18 16  1  0  0  0  0
 19 25  1  0  0  0  0
 20 24  2  0  0  0  0
 20 22  1  0  0  0  0
 21 25  1  0  0  0  0
 21 24  1  0  0  0  0
 22 27  2  0  0  0  0
 24 29  1  0  0  0  0
 26 28  1  0  0  0  0
 26 20  1  0  0  0  0
 27 23  1  0  0  0  0
 28 21  2  0  0  0  0
 29 27  1  0  0  0  0
 30 31  1  0  0  0  0
 31 32  1  0  0  0  0
 32 33  1  6  0  0  0
 35 34  1  1  0  0  0
 35 37  1  0  0  0  0
 35 32  1  0  0  0  0
 37 38  1  0  0  0  0
 37 36  1  0  0  0  0
 39 37  1  0  0  0  0
M  END
>  <MODEL>
5

>  <REMARK>
 VINA RESULT:      -6.7      4.303      8.430
  Name = 
  13 active torsions:
  status: ('A' for Active; 'I' for Inactive)
    1  A    between atoms: O_1  and  C_11
    2  A    between atoms: O_1  and  C_21
    3  A    between atoms: C_3  and  C_35
    4  A    between atoms: C_9  and  C_28
    5  A    between atoms: C_9  and  C_29
    6  A    between atoms: C_11  and  C_20
    7  A    between atoms: C_11  and  C_26
    8  A    between atoms: C_12  and  C_28
    9  A    between atoms: C_15  and  C_22
   10  A    between atoms: C_18  and  C_22
   11  A    between atoms: C_19  and  C_20
   12  A    between atoms: C_19  and  C_27
   13  A    between atoms: C_29  and  C_35
                            x       y       z     vdW  Elec       q    Type
                         _______ _______ _______ _____ _____    ______ ____

>  <TORSDO>
F 13

$$$$
=
 OpenBabel11042414563D

 39 42  0  0  1  0  0  0  0  0999 V2000
  189.9340  175.4530  146.1820 C   0  0  2  0  0  3  0  0  0  0  0  0
  192.1560  175.9230  146.7210 C   0  0  2  0  0  3  0  0  0  0  0  0
  189.9670  176.5960  147.1810 C   0  0  0  0  0  2  0  0  0  0  0  0
  191.3090  175.4350  145.5430 C   0  0  2  0  0  3  0  0  0  0  0  0
  191.3650  176.8520  147.5230 N   0  0  0  0  0  2  0  0  0  0  0  0
  191.3830  176.2840  144.2490 C   0  0  2  0  0  3  0  0  0  0  0  0
  192.1450  175.5640  143.1640 C   0  0  0  0  0  0  0  0  0  0  0  0
  192.9380  176.1930  142.4840 O   0  0  0  0  0  0  0  0  0  0  0  0
  191.9760  174.0950  142.9100 C   0  0  0  0  0  2  0  0  0  0  0  0
  189.8420  174.4910  141.6770 C   0  0  0  0  0  3  0  0  0  0  0  0
  188.5220  174.1490  141.3670 C   0  0  0  0  0  3  0  0  0  0  0  0
  187.9200  173.0500  141.9930 C   0  0  0  0  0  3  0  0  0  0  0  0
  190.5570  173.7420  142.6150 C   0  0  0  0  0  0  0  0  0  0  0  0
  189.9540  172.6370  143.2340 C   0  0  0  0  0  3  0  0  0  0  0  0
  188.6360  172.2930  142.9260 C   0  0  0  0  0  3  0  0  0  0  0  0
  191.8630  177.5780  144.4860 O   0  0  0  0  0  0  0  0  0  0  0  0
  190.1840  178.0130  142.9970 O   0  0  0  0  0  1  0  0  0  0  0  0
  190.8120  178.4420  144.1670 C   0  0  0  0  0  2  0  0  0  0  0  0
  193.5980  176.3870  146.4550 C   0  0  0  0  0  2  0  0  0  0  0  0
  197.0570  174.6400  143.5890 C   0  0  0  0  0  0  0  0  0  0  0  0
  195.4500  175.4250  145.0930 C   0  0  0  0  0  0  0  0  0  0  0  0
  197.3240  173.5370  142.8700 N   0  0  0  0  0  0  0  0  0  0  0  0
  196.7200  171.1290  143.1910 C   0  0  0  0  0  1  0  0  0  0  0  0
  196.2640  174.3330  144.6230 C   0  0  0  0  0  0  0  0  0  0  0  0
  194.5310  175.2900  146.0460 C   0  0  0  0  0  2  0  0  0  0  0  0
  197.0070  176.3320  143.0330 S   0  0  0  0  0  0  0  0  0  0  0  0
  196.7190  172.5640  143.6000 C   0  0  0  0  0  0  0  0  0  0  0  0
  195.7050  176.6850  144.3070 C   0  0  0  0  0  3  0  0  0  0  0  0
  196.0000  173.0170  144.6580 N   0  0  0  0  0  2  0  0  0  0  0  0
  188.7550  175.5450  145.2240 C   0  0  0  0  0  2  0  0  0  0  0  0
  187.7820  176.5930  145.7220 C   0  0  0  0  0  2  0  0  0  0  0  0
  187.0990  177.2990  144.5610 C   0  0  1  0  0  3  0  0  0  0  0  0
  186.2690  176.3880  143.9010 O   0  0  0  0  0  1  0  0  0  0  0  0
  185.2380  178.0510  146.0750 C   0  0  0  0  0  1  0  0  0  0  0  0
  186.2820  178.5010  145.0580 C   0  0  2  0  0  3  0  0  0  0  0  0
  184.3240  178.7460  143.6900 F   0  0  0  0  0  0  0  0  0  0  0  0
  185.5910  179.2580  143.9120 C   0  0  0  0  0  0  0  0  0  0  0  0
  186.3210  179.1180  142.7460 F   0  0  0  0  0  0  0  0  0  0  0  0
  185.4860  180.6050  144.2200 F   0  0  0  0  0  0  0  0  0  0  0  0
  1 30  1  6  0  0  0
  1  3  1  0  0  0  0
  2 19  1  6  0  0  0
  2  5  1  0  0  0  0
  3  5  1  0  0  0  0
  4  6  1  6  0  0  0
  4  1  1  0  0  0  0
  4  2  1  0  0  0  0
  6  7  1  6  0  0  0
  6 16  1  0  0  0  0
  8  7  2  0  0  0  0
  9  7  1  0  0  0  0
 10 13  1  0  0  0  0
 11 10  2  0  0  0  0
 11 12  1  0  0  0  0
 12 15  2  0  0  0  0
 13  9  1  0  0  0  0
 13 14  2  0  0  0  0
 15 14  1  0  0  0  0
 17 18  1  0  0  0  0
 18 16  1  0  0  0  0
 20 24  2  0  0  0  0
 21 25  1  0  0  0  0
 22 20  1  0  0  0  0
 22 27  2  0  0  0  0
 23 27  1  0  0  0  0
 24 29  1  0  0  0  0
 24 21  1  0  0  0  0
 25 19  1  0  0  0  0
 26 20  1  0  0  0  0
 26 28  1  0  0  0  0
 27 29  1  0  0  0  0
 28 21  2  0  0  0  0
 30 31  1  0  0  0  0
 32 33  1  1  0  0  0
 32 35  1  0  0  0  0
 32 31  1  0  0  0  0
 35 34  1  1  0  0  0
 36 37  1  0  0  0  0
 37 39  1  0  0  0  0
 37 35  1  0  0  0  0
 38 37  1  0  0  0  0
M  END
>  <MODEL>
6

>  <REMARK>
 VINA RESULT:      -6.7      2.518      4.465
  Name = 
  13 active torsions:
  status: ('A' for Active; 'I' for Inactive)
    1  A    between atoms: O_1  and  C_11
    2  A    between atoms: O_1  and  C_21
    3  A    between atoms: C_3  and  C_35
    4  A    between atoms: C_9  and  C_28
    5  A    between atoms: C_9  and  C_29
    6  A    between atoms: C_11  and  C_20
    7  A    between atoms: C_11  and  C_26
    8  A    between atoms: C_12  and  C_28
    9  A    between atoms: C_15  and  C_22
   10  A    between atoms: C_18  and  C_22
   11  A    between atoms: C_19  and  C_20
   12  A    between atoms: C_19  and  C_27
   13  A    between atoms: C_29  and  C_35
                            x       y       z     vdW  Elec       q    Type
                         _______ _______ _______ _____ _____    ______ ____

>  <TORSDO>
F 13

$$$$
=
 OpenBabel11042414563D

 39 42  0  0  1  0  0  0  0  0999 V2000
  191.5680  173.5740  143.8830 C   0  0  2  0  0  3  0  0  0  0  0  0
  189.6930  174.5060  144.9150 C   0  0  2  0  0  3  0  0  0  0  0  0
  190.5670  173.9770  142.8150 C   0  0  0  0  0  2  0  0  0  0  0  0
  191.2080  174.3980  145.1040 C   0  0  2  0  0  3  0  0  0  0  0  0
  189.3930  174.5310  143.4860 N   0  0  0  0  0  2  0  0  0  0  0  0
  191.9860  175.7360  145.1790 C   0  0  2  0  0  3  0  0  0  0  0  0
  192.7210  175.8700  146.4900 C   0  0  0  0  0  0  0  0  0  0  0  0
  192.2210  175.3970  147.4970 O   0  0  0  0  0  0  0  0  0  0  0  0
  194.0580  176.5450  146.5910 C   0  0  0  0  0  2  0  0  0  0  0  0
  195.3350  176.8000  144.4610 C   0  0  0  0  0  3  0  0  0  0  0  0
  196.2620  176.3350  143.5230 C   0  0  0  0  0  3  0  0  0  0  0  0
  196.8810  175.0920  143.7090 C   0  0  0  0  0  3  0  0  0  0  0  0
  195.0210  176.0220  145.5780 C   0  0  0  0  0  0  0  0  0  0  0  0
  195.6470  174.7810  145.7660 C   0  0  0  0  0  3  0  0  0  0  0  0
  196.5740  174.3140  144.8310 C   0  0  0  0  0  3  0  0  0  0  0  0
  191.1750  176.8410  144.8930 O   0  0  0  0  0  0  0  0  0  0  0  0
  191.1010  178.6660  143.5180 O   0  0  0  0  0  1  0  0  0  0  0  0
  191.7390  177.4490  143.7670 C   0  0  0  0  0  2  0  0  0  0  0  0
  188.9150  175.5440  145.7430 C   0  0  0  0  0  2  0  0  0  0  0  0
  185.3040  178.7200  145.4170 C   0  0  0  0  0  0  0  0  0  0  0  0
  187.1260  177.2580  145.4720 C   0  0  0  0  0  0  0  0  0  0  0  0
  184.1700  178.9060  144.7210 N   0  0  0  0  0  0  0  0  0  0  0  0
  183.5040  178.2880  142.3890 C   0  0  0  0  0  1  0  0  0  0  0  0
  186.1770  178.0100  144.6920 C   0  0  0  0  0  0  0  0  0  0  0  0
  188.0090  176.4190  144.9350 C   0  0  0  0  0  2  0  0  0  0  0  0
  185.5120  178.6530  147.1860 S   0  0  0  0  0  0  0  0  0  0  0  0
  184.4750  178.3470  143.5210 C   0  0  0  0  0  0  0  0  0  0  0  0
  186.9210  177.4690  146.9500 C   0  0  0  0  0  3  0  0  0  0  0  0
  185.6800  177.7260  143.4780 N   0  0  0  0  0  2  0  0  0  0  0  0
  193.0090  173.6830  143.4080 C   0  0  0  0  0  2  0  0  0  0  0  0
  193.5090  172.3140  142.9970 C   0  0  0  0  0  2  0  0  0  0  0  0
  192.8680  171.2230  143.8420 C   0  0  1  0  0  3  0  0  0  0  0  0
  192.0010  170.4770  143.0380 O   0  0  0  0  0  1  0  0  0  0  0  0
  193.3500  168.9430  144.7850 C   0  0  0  0  0  1  0  0  0  0  0  0
  193.9380  170.3120  144.4600 C   0  0  2  0  0  3  0  0  0  0  0  0
  194.5650  169.9890  146.7550 F   0  0  0  0  0  0  0  0  0  0  0  0
  194.5670  170.9160  145.7260 C   0  0  0  0  0  0  0  0  0  0  0  0
  193.8360  172.0160  146.1380 F   0  0  0  0  0  0  0  0  0  0  0  0
  195.8720  171.3090  145.4750 F   0  0  0  0  0  0  0  0  0  0  0  0
  1 30  1  6  0  0  0
  1  4  1  0  0  0  0
  2  4  1  0  0  0  0
  2 19  1  1  0  0  0
  3  5  1  0  0  0  0
  3  1  1  0  0  0  0
  4  6  1  6  0  0  0
  5  2  1  0  0  0  0
  6 16  1  1  0  0  0
  6  7  1  0  0  0  0
  7  9  1  0  0  0  0
  7  8  2  0  0  0  0
 10 13  1  0  0  0  0
 11 12  1  0  0  0  0
 11 10  2  0  0  0  0
 12 15  2  0  0  0  0
 13 14  2  0  0  0  0
 13  9  1  0  0  0  0
 15 14  1  0  0  0  0
 17 18  1  0  0  0  0
 18 16  1  0  0  0  0
 20 26  1  0  0  0  0
 21 28  2  0  0  0  0
 22 20  1  0  0  0  0
 23 27  1  0  0  0  0
 24 20  2  0  0  0  0
 24 21  1  0  0  0  0
 25 21  1  0  0  0  0
 25 19  1  0  0  0  0
 27 22  2  0  0  0  0
 28 26  1  0  0  0  0
 29 27  1  0  0  0  0
 29 24  1  0  0  0  0
 31 30  1  0  0  0  0
 31 32  1  0  0  0  0
 32 33  1  6  0  0  0
 32 35  1  0  0  0  0
 35 34  1  1  0  0  0
 35 37  1  0  0  0  0
 37 38  1  0  0  0  0
 37 36  1  0  0  0  0
 39 37  1  0  0  0  0
M  END
>  <MODEL>
7

>  <REMARK>
 VINA RESULT:      -6.6      4.390      8.199
  Name = 
  13 active torsions:
  status: ('A' for Active; 'I' for Inactive)
    1  A    between atoms: O_1  and  C_11
    2  A    between atoms: O_1  and  C_21
    3  A    between atoms: C_3  and  C_35
    4  A    between atoms: C_9  and  C_28
    5  A    between atoms: C_9  and  C_29
    6  A    between atoms: C_11  and  C_20
    7  A    between atoms: C_11  and  C_26
    8  A    between atoms: C_12  and  C_28
    9  A    between atoms: C_15  and  C_22
   10  A    between atoms: C_18  and  C_22
   11  A    between atoms: C_19  and  C_20
   12  A    between atoms: C_19  and  C_27
   13  A    between atoms: C_29  and  C_35
                            x       y       z     vdW  Elec       q    Type
                         _______ _______ _______ _____ _____    ______ ____

>  <TORSDO>
F 13

$$$$
=
 OpenBabel11042414563D

 39 42  0  0  1  0  0  0  0  0999 V2000
  189.5730  175.2540  146.5550 C   0  0  2  0  0  3  0  0  0  0  0  0
  191.7400  174.6230  145.9610 C   0  0  2  0  0  3  0  0  0  0  0  0
  190.5630  176.1340  147.2960 C   0  0  0  0  0  2  0  0  0  0  0  0
  190.3340  174.7070  145.3630 C   0  0  2  0  0  3  0  0  0  0  0  0
  191.9100  175.7020  146.9300 N   0  0  0  0  0  2  0  0  0  0  0  0
  190.1800  175.5850  144.0950 C   0  0  2  0  0  3  0  0  0  0  0  0
  189.7930  174.7540  142.8970 C   0  0  0  0  0  0  0  0  0  0  0  0
  190.6680  174.3630  142.1430 O   0  0  0  0  0  0  0  0  0  0  0  0
  188.3680  174.3730  142.6160 C   0  0  0  0  0  2  0  0  0  0  0  0
  186.5820  176.0680  143.0250 C   0  0  0  0  0  3  0  0  0  0  0  0
  185.8390  177.1860  142.6330 C   0  0  0  0  0  3  0  0  0  0  0  0
  186.0800  177.7840  141.3890 C   0  0  0  0  0  3  0  0  0  0  0  0
  187.5580  175.5430  142.1730 C   0  0  0  0  0  0  0  0  0  0  0  0
  187.8010  176.1480  140.9310 C   0  0  0  0  0  3  0  0  0  0  0  0
  187.0610  177.2650  140.5370 C   0  0  0  0  0  3  0  0  0  0  0  0
  191.3040  176.3870  143.8620 O   0  0  0  0  0  0  0  0  0  0  0  0
  189.6060  177.9170  143.8550 O   0  0  0  0  0  1  0  0  0  0  0  0
  190.8230  177.5600  143.2730 C   0  0  0  0  0  2  0  0  0  0  0  0
  192.9380  174.4290  145.0150 C   0  0  0  0  0  2  0  0  0  0  0  0
  193.9930  169.7460  144.5830 C   0  0  0  0  0  0  0  0  0  0  0  0
  193.6260  172.0450  144.7840 C   0  0  0  0  0  0  0  0  0  0  0  0
  194.2830  168.6910  145.3620 N   0  0  0  0  0  0  0  0  0  0  0  0
  195.4560  168.4950  147.5660 C   0  0  0  0  0  1  0  0  0  0  0  0
  194.3720  170.8800  145.1850 C   0  0  0  0  0  0  0  0  0  0  0  0
  193.7910  173.2430  145.3400 C   0  0  0  0  0  2  0  0  0  0  0  0
  192.6970  169.8950  143.3690 S   0  0  0  0  0  0  0  0  0  0  0  0
  194.9370  169.2730  146.4020 C   0  0  0  0  0  0  0  0  0  0  0  0
  192.5890  171.7080  143.7430 C   0  0  0  0  0  3  0  0  0  0  0  0
  194.9600  170.6290  146.3660 N   0  0  0  0  0  2  0  0  0  0  0  0
  188.2690  175.9730  146.2390 C   0  0  0  0  0  2  0  0  0  0  0  0
  188.3190  177.3760  146.8070 C   0  0  0  0  0  2  0  0  0  0  0  0
  186.9670  177.7840  147.3730 C   0  0  1  0  0  3  0  0  0  0  0  0
  187.1640  178.7380  148.3760 O   0  0  0  0  0  1  0  0  0  0  0  0
  185.9480  179.8660  146.4000 C   0  0  0  0  0  1  0  0  0  0  0  0
  186.0620  178.3510  146.2690 C   0  0  2  0  0  3  0  0  0  0  0  0
  184.7380  176.3600  146.4930 F   0  0  0  0  0  0  0  0  0  0  0  0
  184.6570  177.7260  146.2800 C   0  0  0  0  0  0  0  0  0  0  0  0
  184.0370  177.9350  145.0610 F   0  0  0  0  0  0  0  0  0  0  0  0
  183.8860  178.2950  147.2820 F   0  0  0  0  0  0  0  0  0  0  0  0
  1 30  1  6  0  0  0
  1  3  1  0  0  0  0
  2 19  1  6  0  0  0
  2  5  1  0  0  0  0
  4  6  1  6  0  0  0
  4  2  1  0  0  0  0
  4  1  1  0  0  0  0
  5  3  1  0  0  0  0
  6  7  1  6  0  0  0
  8  7  2  0  0  0  0
  9  7  1  0  0  0  0
 11 10  1  0  0  0  0
 12 11  2  0  0  0  0
 13  9  1  0  0  0  0
 13 10  2  0  0  0  0
 14 13  1  0  0  0  0
 15 14  2  0  0  0  0
 15 12  1  0  0  0  0
 16  6  1  0  0  0  0
 18 17  1  0  0  0  0
 18 16  1  0  0  0  0
 19 25  1  0  0  0  0
 20 24  2  0  0  0  0
 20 22  1  0  0  0  0
 21 24  1  0  0  0  0
 21 25  1  0  0  0  0
 22 27  2  0  0  0  0
 24 29  1  0  0  0  0
 26 28  1  0  0  0  0
 26 20  1  0  0  0  0
 27 23  1  0  0  0  0
 28 21  2  0  0  0  0
 29 27  1  0  0  0  0
 30 31  1  0  0  0  0
 31 32  1  0  0  0  0
 32 33  1  1  0  0  0
 35 37  1  0  0  0  0
 35 34  1  1  0  0  0
 35 32  1  0  0  0  0
 37 36  1  0  0  0  0
 37 39  1  0  0  0  0
 38 37  1  0  0  0  0
M  END
>  <MODEL>
8

>  <REMARK>
 VINA RESULT:      -6.6      2.849      5.396
  Name = 
  13 active torsions:
  status: ('A' for Active; 'I' for Inactive)
    1  A    between atoms: O_1  and  C_11
    2  A    between atoms: O_1  and  C_21
    3  A    between atoms: C_3  and  C_35
    4  A    between atoms: C_9  and  C_28
    5  A    between atoms: C_9  and  C_29
    6  A    between atoms: C_11  and  C_20
    7  A    between atoms: C_11  and  C_26
    8  A    between atoms: C_12  and  C_28
    9  A    between atoms: C_15  and  C_22
   10  A    between atoms: C_18  and  C_22
   11  A    between atoms: C_19  and  C_20
   12  A    between atoms: C_19  and  C_27
   13  A    between atoms: C_29  and  C_35
                            x       y       z     vdW  Elec       q    Type
                         _______ _______ _______ _____ _____    ______ ____

>  <TORSDO>
F 13

$$$$
=
 OpenBabel11042414563D

 39 42  0  0  1  0  0  0  0  0999 V2000
  191.5620  173.7520  144.0700 C   0  0  2  0  0  3  0  0  0  0  0  0
  189.6430  174.6220  145.0750 C   0  0  2  0  0  3  0  0  0  0  0  0
  190.5480  174.0840  142.9900 C   0  0  0  0  0  2  0  0  0  0  0  0
  191.1600  174.5870  145.2710 C   0  0  2  0  0  3  0  0  0  0  0  0
  189.3470  174.5990  143.6450 N   0  0  0  0  0  2  0  0  0  0  0  0
  191.8760  175.9610  145.3170 C   0  0  2  0  0  3  0  0  0  0  0  0
  192.5360  176.1900  146.6540 C   0  0  0  0  0  0  0  0  0  0  0  0
  191.9460  175.8560  147.6670 O   0  0  0  0  0  0  0  0  0  0  0  0
  193.9060  176.7920  146.7750 C   0  0  0  0  0  2  0  0  0  0  0  0
  195.3920  174.8910  146.1380 C   0  0  0  0  0  3  0  0  0  0  0  0
  196.2770  174.2690  145.2530 C   0  0  0  0  0  3  0  0  0  0  0  0
  196.6410  174.9120  144.0620 C   0  0  0  0  0  3  0  0  0  0  0  0
  194.8770  176.1550  145.8400 C   0  0  0  0  0  0  0  0  0  0  0  0
  195.2380  176.7930  144.6440 C   0  0  0  0  0  3  0  0  0  0  0  0
  196.1220  176.1750  143.7570 C   0  0  0  0  0  3  0  0  0  0  0  0
  191.0350  177.0130  144.9350 O   0  0  0  0  0  0  0  0  0  0  0  0
  190.6820  177.6750  142.7760 O   0  0  0  0  0  1  0  0  0  0  0  0
  191.6230  177.5840  143.8030 C   0  0  0  0  0  2  0  0  0  0  0  0
  188.8150  175.6410  145.8760 C   0  0  0  0  0  2  0  0  0  0  0  0
  185.1490  178.7370  145.4240 C   0  0  0  0  0  0  0  0  0  0  0  0
  187.0000  177.3160  145.5440 C   0  0  0  0  0  0  0  0  0  0  0  0
  184.0410  178.9040  144.6830 N   0  0  0  0  0  0  0  0  0  0  0  0
  183.4860  178.2900  142.3200 C   0  0  0  0  0  1  0  0  0  0  0  0
  186.0670  178.0540  144.7310 C   0  0  0  0  0  0  0  0  0  0  0  0
  187.9230  176.5020  145.0380 C   0  0  0  0  0  2  0  0  0  0  0  0
  185.2850  178.6610  147.1990 S   0  0  0  0  0  0  0  0  0  0  0  0
  184.4070  178.3620  143.4920 C   0  0  0  0  0  0  0  0  0  0  0  0
  186.7290  177.5110  147.0140 C   0  0  0  0  0  3  0  0  0  0  0  0
  185.6280  177.7690  143.4950 N   0  0  0  0  0  2  0  0  0  0  0  0
  192.9990  173.9160  143.5960 C   0  0  0  0  0  2  0  0  0  0  0  0
  193.0120  174.6600  142.2770 C   0  0  0  0  0  2  0  0  0  0  0  0
  193.8690  173.9360  141.2510 C   0  0  1  0  0  3  0  0  0  0  0  0
  193.1840  172.8030  140.8040 O   0  0  0  0  0  1  0  0  0  0  0  0
  193.8480  174.1800  138.7490 C   0  0  0  0  0  1  0  0  0  0  0  0
  194.1990  174.8590  140.0680 C   0  0  2  0  0  3  0  0  0  0  0  0
  196.1520  175.3220  138.7490 F   0  0  0  0  0  0  0  0  0  0  0  0
  195.6760  175.2880  140.0490 C   0  0  0  0  0  0  0  0  0  0  0  0
  196.4400  174.3820  140.7620 F   0  0  0  0  0  0  0  0  0  0  0  0
  195.8190  176.5440  140.6160 F   0  0  0  0  0  0  0  0  0  0  0  0
  1 30  1  6  0  0  0
  1  4  1  0  0  0  0
  2  4  1  0  0  0  0
  2 19  1  6  0  0  0
  3  5  1  0  0  0  0
  3  1  1  0  0  0  0
  4  6  1  6  0  0  0
  5  2  1  0  0  0  0
  6 16  1  1  0  0  0
  6  7  1  0  0  0  0
  7  9  1  0  0  0  0
  7  8  2  0  0  0  0
 11 10  2  0  0  0  0
 12 11  1  0  0  0  0
 13 10  1  0  0  0  0
 13  9  1  0  0  0  0
 14 13  2  0  0  0  0
 15 12  2  0  0  0  0
 15 14  1  0  0  0  0
 17 18  1  0  0  0  0
 18 16  1  0  0  0  0
 20 26  1  0  0  0  0
 21 28  2  0  0  0  0
 22 20  1  0  0  0  0
 23 27  1  0  0  0  0
 24 20  2  0  0  0  0
 24 21  1  0  0  0  0
 25 21  1  0  0  0  0
 25 19  1  0  0  0  0
 27 29  1  0  0  0  0
 27 22  2  0  0  0  0
 28 26  1  0  0  0  0
 29 24  1  0  0  0  0
 31 30  1  0  0  0  0
 32 33  1  6  0  0  0
 32 31  1  0  0  0  0
 35 34  1  6  0  0  0
 35 32  1  0  0  0  0
 36 37  1  0  0  0  0
 37 35  1  0  0  0  0
 37 39  1  0  0  0  0
 37 38  1  0  0  0  0
M  END
>  <MODEL>
9

>  <REMARK>
 VINA RESULT:      -6.5      4.763      8.396
  Name = 
  13 active torsions:
  status: ('A' for Active; 'I' for Inactive)
    1  A    between atoms: O_1  and  C_11
    2  A    between atoms: O_1  and  C_21
    3  A    between atoms: C_3  and  C_35
    4  A    between atoms: C_9  and  C_28
    5  A    between atoms: C_9  and  C_29
    6  A    between atoms: C_11  and  C_20
    7  A    between atoms: C_11  and  C_26
    8  A    between atoms: C_12  and  C_28
    9  A    between atoms: C_15  and  C_22
   10  A    between atoms: C_18  and  C_22
   11  A    between atoms: C_19  and  C_20
   12  A    between atoms: C_19  and  C_27
   13  A    between atoms: C_29  and  C_35
                            x       y       z     vdW  Elec       q    Type
                         _______ _______ _______ _____ _____    ______ ____

>  <TORSDO>
F 13

$$$$
