=
 OpenBabel11042413433D

 30 34  0  0  1  0  0  0  0  0999 V2000
  189.5420  176.4680  145.7610 O   0  0  0  0  0  0  0  0  0  0  0  0
  192.4160  177.3680  145.2980 C   0  0  0  0  0  3  0  0  0  0  0  0
  191.2520  174.6970  142.9090 N   0  0  0  0  0  2  0  0  0  0  0  0
  189.0280  173.8260  139.2190 N   0  0  0  0  0  0  0  0  0  0  0  0
  190.0980  176.8330  144.6930 C   0  0  0  0  0  0  0  0  0  0  0  0
  188.5960  174.3500  140.3130 C   0  0  0  0  0  3  0  0  0  0  0  0
  187.7060  175.7490  142.8430 C   0  0  0  0  0  0  0  0  0  0  0  0
  192.0630  175.5650  143.7140 C   0  0  0  0  0  0  0  0  0  0  0  0
  187.9260  177.1530  143.3720 C   0  0  2  0  0  3  0  0  0  0  0  0
  186.6130  175.4520  142.3850 O   0  0  0  0  0  0  0  0  0  0  0  0
  193.4400  175.3280  143.7320 C   0  0  0  0  0  3  0  0  0  0  0  0
  191.5370  176.6070  144.5210 C   0  0  0  0  0  0  0  0  0  0  0  0
  189.3360  177.4430  143.6440 N   0  0  0  0  0  2  0  0  0  0  0  0
  189.8880  172.5780  141.7180 C   0  0  2  0  0  3  0  0  0  0  0  0
  194.2760  176.1260  144.5130 C   0  0  0  0  0  3  0  0  0  0  0  0
  189.9670  171.8790  140.3530 C   0  0  0  0  0  2  0  0  0  0  0  0
  189.1870  171.7580  142.6030 O   0  0  0  0  0  1  0  0  0  0  0  0
  193.7530  177.1240  145.2700 N   0  0  0  0  0  0  0  0  0  0  0  0
  190.0640  175.1300  142.1790 C   0  0  1  0  0  3  0  0  0  0  0  0
  188.9770  174.0330  144.1000 F   0  0  0  0  0  0  0  0  0  0  0  0
  190.1340  172.8890  139.2170 C   0  0  0  0  0  2  0  0  0  0  0  0
  189.2250  173.9720  141.6280 C   0  0  1  0  0  0  0  0  0  0  0  0
  188.7860  174.6990  142.9000 C   0  0  1  0  0  0  0  0  0  0  0  0
  187.0260  177.5490  144.5150 C   0  0  0  0  0  0  0  0  0  0  0  0
  185.2100  179.2320  144.7860 C   0  0  0  0  0  3  0  0  0  0  0  0
  184.3930  178.6630  145.6720 C   0  0  0  0  0  3  0  0  0  0  0  0
  186.6820  178.9910  144.7540 C   0  0  0  0  0  2  0  0  0  0  0  0
  186.6670  176.5950  145.3760 C   0  0  0  0  0  3  0  0  0  0  0  0
  184.7940  177.6580  146.6730 C   0  0  0  0  0  3  0  0  0  0  0  0
  185.7800  176.7630  146.5440 C   0  0  0  0  0  3  0  0  0  0  0  0
  3  8  1  0  0  0  0
  4  6  2  0  0  0  0
  5  1  2  0  0  0  0
  7 23  1  0  0  0  0
  7  9  1  0  0  0  0
  8 11  2  0  0  0  0
  8 12  1  0  0  0  0
  9 13  1  0  0  0  0
  9 24  1  1  0  0  0
 10  7  2  0  0  0  0
 11 15  1  0  0  0  0
 12  5  1  0  0  0  0
 12  2  2  0  0  0  0
 13  5  1  0  0  0  0
 14 17  1  1  0  0  0
 15 18  2  0  0  0  0
 16 14  1  0  0  0  0
 18  2  1  0  0  0  0
 19 23  1  0  0  0  0
 19  3  1  1  0  0  0
 21  4  1  0  0  0  0
 21 16  1  0  0  0  0
 22  6  1  6  0  0  0
 22 14  1  0  0  0  0
 22 19  1  0  0  0  0
 22 23  1  0  0  0  0
 23 20  1  1  0  0  0
 24 27  1  0  0  0  0
 24 28  2  0  0  0  0
 25 26  2  0  0  0  0
 26 29  1  0  0  0  0
 27 25  1  0  0  0  0
 28 30  1  0  0  0  0
 30 29  2  0  0  0  0
M  END
>  <MODEL>
1

>  <REMARK>
 VINA RESULT:      -8.4      0.000      0.000
  Name = 
  1 active torsions:
  status: ('A' for Active; 'I' for Inactive)
    1  A    between atoms: C_1  and  C_14
                            x       y       z     vdW  Elec       q    Type
                         _______ _______ _______ _____ _____    ______ ____

>  <TORSDO>
F 1

$$$$
=
 OpenBabel11042413433D

 30 34  0  0  1  0  0  0  0  0999 V2000
  189.7440  174.8590  143.3450 O   0  0  0  0  0  0  0  0  0  0  0  0
  189.7480  171.9200  142.5380 C   0  0  0  0  0  3  0  0  0  0  0  0
  193.1880  173.3560  143.0830 N   0  0  0  0  0  2  0  0  0  0  0  0
  196.2720  174.4100  146.0340 N   0  0  0  0  0  0  0  0  0  0  0  0
  190.3330  173.8870  143.8850 C   0  0  0  0  0  0  0  0  0  0  0  0
  195.0750  174.8750  145.9200 C   0  0  0  0  0  3  0  0  0  0  0  0
  192.1950  175.7700  145.7040 C   0  0  0  0  0  0  0  0  0  0  0  0
  192.0900  172.5410  142.6480 C   0  0  0  0  0  0  0  0  0  0  0  0
  190.8810  175.1060  146.0710 C   0  0  2  0  0  3  0  0  0  0  0  0
  192.6270  176.6630  146.4160 O   0  0  0  0  0  0  0  0  0  0  0  0
  192.3660  171.5210  141.7330 C   0  0  0  0  0  3  0  0  0  0  0  0
  190.7470  172.7500  143.0560 C   0  0  0  0  0  0  0  0  0  0  0  0
  190.6200  173.8960  145.2890 N   0  0  0  0  0  2  0  0  0  0  0  0
  195.3600  175.0840  143.3390 C   0  0  2  0  0  3  0  0  0  0  0  0
  191.3350  170.7110  141.2580 C   0  0  0  0  0  3  0  0  0  0  0  0
  196.8400  174.9050  143.7120 C   0  0  0  0  0  2  0  0  0  0  0  0
  195.1980  176.3280  142.7290 O   0  0  0  0  0  1  0  0  0  0  0  0
  190.0580  170.9220  141.6700 N   0  0  0  0  0  0  0  0  0  0  0  0
  193.3200  173.9000  144.4320 C   0  0  1  0  0  3  0  0  0  0  0  0
  192.5480  175.9230  143.2560 F   0  0  0  0  0  0  0  0  0  0  0  0
  197.0080  173.9330  144.8810 C   0  0  0  0  0  2  0  0  0  0  0  0
  194.4250  174.9530  144.5640 C   0  0  1  0  0  0  0  0  0  0  0  0
  192.9620  175.3860  144.4640 C   0  0  1  0  0  0  0  0  0  0  0  0
  189.6920  176.0310  146.1150 C   0  0  0  0  0  0  0  0  0  0  0  0
  188.7580  177.7260  144.5470 C   0  0  0  0  0  3  0  0  0  0  0  0
  187.4480  177.6760  144.7860 C   0  0  0  0  0  3  0  0  0  0  0  0
  189.7920  177.4310  145.5820 C   0  0  0  0  0  2  0  0  0  0  0  0
  188.6060  175.6080  146.7650 C   0  0  0  0  0  3  0  0  0  0  0  0
  186.8310  177.2390  146.0510 C   0  0  0  0  0  3  0  0  0  0  0  0
  187.3340  176.3440  146.9080 C   0  0  0  0  0  3  0  0  0  0  0  0
  1  5  2  0  0  0  0
  2 12  1  0  0  0  0
  5 13  1  0  0  0  0
  6  4  2  0  0  0  0
  7  9  1  0  0  0  0
  7 10  2  0  0  0  0
  8 12  2  0  0  0  0
  8  3  1  0  0  0  0
  9 24  1  6  0  0  0
 11  8  1  0  0  0  0
 12  5  1  0  0  0  0
 13  9  1  0  0  0  0
 14 17  1  1  0  0  0
 14 16  1  0  0  0  0
 14 22  1  0  0  0  0
 15 18  1  0  0  0  0
 15 11  2  0  0  0  0
 16 21  1  0  0  0  0
 18  2  2  0  0  0  0
 19  3  1  6  0  0  0
 19 23  1  0  0  0  0
 19 22  1  0  0  0  0
 21  4  1  0  0  0  0
 22  6  1  1  0  0  0
 23 20  1  6  0  0  0
 23 22  1  0  0  0  0
 23  7  1  0  0  0  0
 24 28  2  0  0  0  0
 25 26  2  0  0  0  0
 25 27  1  0  0  0  0
 26 29  1  0  0  0  0
 27 24  1  0  0  0  0
 28 30  1  0  0  0  0
 29 30  2  0  0  0  0
M  END
>  <MODEL>
2

>  <REMARK>
 VINA RESULT:      -8.1      2.593      5.542
  Name = 
  1 active torsions:
  status: ('A' for Active; 'I' for Inactive)
    1  A    between atoms: C_1  and  C_14
                            x       y       z     vdW  Elec       q    Type
                         _______ _______ _______ _____ _____    ______ ____

>  <TORSDO>
F 1

$$$$
=
 OpenBabel11042413433D

 30 34  0  0  1  0  0  0  0  0999 V2000
  187.9060  176.7910  142.0620 O   0  0  0  0  0  0  0  0  0  0  0  0
  188.3650  174.1880  140.5440 C   0  0  0  0  0  3  0  0  0  0  0  0
  191.1990  175.1350  142.8400 N   0  0  0  0  0  2  0  0  0  0  0  0
  192.7140  175.0970  146.9660 N   0  0  0  0  0  0  0  0  0  0  0  0
  188.2520  175.6640  142.5030 C   0  0  0  0  0  0  0  0  0  0  0  0
  191.6590  175.6730  146.5020 C   0  0  0  0  0  3  0  0  0  0  0  0
  189.1020  176.8280  145.3730 C   0  0  0  0  0  0  0  0  0  0  0  0
  190.4180  174.5610  141.7810 C   0  0  0  0  0  0  0  0  0  0  0  0
  187.7830  176.2000  144.9640 C   0  0  2  0  0  3  0  0  0  0  0  0
  189.1600  177.4580  146.4190 O   0  0  0  0  0  0  0  0  0  0  0  0
  191.0930  173.8060  140.8180 C   0  0  0  0  0  3  0  0  0  0  0  0
  189.0200  174.7620  141.6380 C   0  0  0  0  0  0  0  0  0  0  0  0
  187.9230  175.2710  143.8400 N   0  0  0  0  0  2  0  0  0  0  0  0
  192.9920  176.5440  144.4420 C   0  0  2  0  0  3  0  0  0  0  0  0
  190.3900  173.2410  139.7540 C   0  0  0  0  0  3  0  0  0  0  0  0
  194.1840  176.1510  145.3260 C   0  0  0  0  0  2  0  0  0  0  0  0
  193.0520  177.9160  144.1920 O   0  0  0  0  0  1  0  0  0  0  0  0
  189.0500  173.4390  139.6420 N   0  0  0  0  0  0  0  0  0  0  0  0
  190.7300  175.2830  144.2150 C   0  0  1  0  0  3  0  0  0  0  0  0
  190.4440  177.6050  143.4400 F   0  0  0  0  0  0  0  0  0  0  0  0
  193.8850  174.8890  146.1380 C   0  0  0  0  0  2  0  0  0  0  0  0
  191.6350  176.1670  145.0800 C   0  0  1  0  0  0  0  0  0  0  0  0
  190.3330  176.7290  144.5090 C   0  0  1  0  0  0  0  0  0  0  0  0
  186.6500  177.1740  144.7680 C   0  0  0  0  0  0  0  0  0  0  0  0
  184.6140  177.7490  146.0830 C   0  0  0  0  0  3  0  0  0  0  0  0
  184.4280  179.0410  145.8130 C   0  0  0  0  0  3  0  0  0  0  0  0
  185.2430  176.7930  145.1260 C   0  0  0  0  0  2  0  0  0  0  0  0
  186.9240  178.3220  144.1430 C   0  0  0  0  0  3  0  0  0  0  0  0
  184.8890  179.7280  144.5930 C   0  0  0  0  0  3  0  0  0  0  0  0
  185.9700  179.4150  143.8700 C   0  0  0  0  0  3  0  0  0  0  0  0
  1  5  2  0  0  0  0
  2 12  1  0  0  0  0
  5 13  1  0  0  0  0
  6  4  2  0  0  0  0
  7 10  2  0  0  0  0
  8  3  1  0  0  0  0
  9 24  1  6  0  0  0
  9  7  1  0  0  0  0
 11  8  1  0  0  0  0
 12  8  2  0  0  0  0
 12  5  1  0  0  0  0
 13  9  1  0  0  0  0
 14 17  1  1  0  0  0
 14 22  1  0  0  0  0
 14 16  1  0  0  0  0
 15 11  2  0  0  0  0
 16 21  1  0  0  0  0
 18 15  1  0  0  0  0
 18  2  2  0  0  0  0
 19  3  1  6  0  0  0
 19 23  1  0  0  0  0
 19 22  1  0  0  0  0
 21  4  1  0  0  0  0
 22  6  1  1  0  0  0
 23 20  1  6  0  0  0
 23 22  1  0  0  0  0
 23  7  1  0  0  0  0
 24 27  1  0  0  0  0
 26 25  2  0  0  0  0
 27 25  1  0  0  0  0
 28 24  2  0  0  0  0
 29 26  1  0  0  0  0
 30 28  1  0  0  0  0
 30 29  2  0  0  0  0
M  END
>  <MODEL>
3

>  <REMARK>
 VINA RESULT:      -7.7      1.716      4.856
  Name = 
  1 active torsions:
  status: ('A' for Active; 'I' for Inactive)
    1  A    between atoms: C_1  and  C_14
                            x       y       z     vdW  Elec       q    Type
                         _______ _______ _______ _____ _____    ______ ____

>  <TORSDO>
F 1

$$$$
=
 OpenBabel11042413433D

 30 34  0  0  1  0  0  0  0  0999 V2000
  189.2240  174.7990  141.6810 O   0  0  0  0  0  0  0  0  0  0  0  0
  189.4700  171.7880  142.0880 C   0  0  0  0  0  3  0  0  0  0  0  0
  192.4700  173.7360  143.2730 N   0  0  0  0  0  2  0  0  0  0  0  0
  194.2070  176.1340  146.5220 N   0  0  0  0  0  0  0  0  0  0  0  0
  189.5390  174.1590  142.7190 C   0  0  0  0  0  0  0  0  0  0  0  0
  193.1570  176.3770  145.8160 C   0  0  0  0  0  3  0  0  0  0  0  0
  190.6020  176.7770  144.2480 C   0  0  0  0  0  0  0  0  0  0  0  0
  191.6040  172.6920  142.8040 C   0  0  0  0  0  0  0  0  0  0  0  0
  189.2330  176.1280  144.3300 C   0  0  2  0  0  3  0  0  0  0  0  0
  190.7480  177.9100  144.6820 O   0  0  0  0  0  0  0  0  0  0  0  0
  192.1870  171.4580  142.5040 C   0  0  0  0  0  3  0  0  0  0  0  0
  190.2120  172.8640  142.5850 C   0  0  0  0  0  0  0  0  0  0  0  0
  189.2650  174.6970  144.0180 N   0  0  0  0  0  2  0  0  0  0  0  0
  194.4160  175.6970  143.6390 C   0  0  2  0  0  3  0  0  0  0  0  0
  191.3990  170.4120  142.0240 C   0  0  0  0  0  3  0  0  0  0  0  0
  195.6340  175.8450  144.5630 C   0  0  0  0  0  2  0  0  0  0  0  0
  194.5290  176.6160  142.5950 O   0  0  0  0  0  1  0  0  0  0  0  0
  190.0670  170.5950  141.8320 N   0  0  0  0  0  0  0  0  0  0  0  0
  192.0850  174.7320  144.2690 C   0  0  1  0  0  3  0  0  0  0  0  0
  191.8720  176.1000  142.2300 F   0  0  0  0  0  0  0  0  0  0  0  0
  195.3180  175.3750  145.9840 C   0  0  0  0  0  2  0  0  0  0  0  0
  193.0790  175.8920  144.3930 C   0  0  1  0  0  0  0  0  0  0  0  0
  191.7770  176.0780  143.6130 C   0  0  1  0  0  0  0  0  0  0  0  0
  188.1400  176.8550  143.5900 C   0  0  0  0  0  0  0  0  0  0  0  0
  187.8960  177.7090  141.2630 C   0  0  0  0  0  3  0  0  0  0  0  0
  186.5880  177.6000  141.0310 C   0  0  0  0  0  3  0  0  0  0  0  0
  188.4720  177.9500  142.6180 C   0  0  0  0  0  2  0  0  0  0  0  0
  186.8790  176.5870  143.9340 C   0  0  0  0  0  3  0  0  0  0  0  0
  185.5390  177.6060  142.0660 C   0  0  0  0  0  3  0  0  0  0  0  0
  185.6660  177.1680  143.3240 C   0  0  0  0  0  3  0  0  0  0  0  0
  1  5  2  0  0  0  0
  2 12  1  0  0  0  0
  5 13  1  0  0  0  0
  6  4  2  0  0  0  0
  7  9  1  0  0  0  0
  7 10  2  0  0  0  0
  8  3  1  0  0  0  0
  9 24  1  6  0  0  0
 11  8  1  0  0  0  0
 12  5  1  0  0  0  0
 12  8  2  0  0  0  0
 13  9  1  0  0  0  0
 14 17  1  6  0  0  0
 14 22  1  0  0  0  0
 14 16  1  0  0  0  0
 15 11  2  0  0  0  0
 16 21  1  0  0  0  0
 18 15  1  0  0  0  0
 18  2  2  0  0  0  0
 19  3  1  6  0  0  0
 19 22  1  0  0  0  0
 21  4  1  0  0  0  0
 22  6  1  1  0  0  0
 23 20  1  6  0  0  0
 23  7  1  0  0  0  0
 23 19  1  0  0  0  0
 23 22  1  0  0  0  0
 24 28  2  0  0  0  0
 25 27  1  0  0  0  0
 26 25  2  0  0  0  0
 26 29  1  0  0  0  0
 27 24  1  0  0  0  0
 29 30  2  0  0  0  0
 30 28  1  0  0  0  0
M  END
>  <MODEL>
4

>  <REMARK>
 VINA RESULT:      -7.7      2.252      5.246
  Name = 
  1 active torsions:
  status: ('A' for Active; 'I' for Inactive)
    1  A    between atoms: C_1  and  C_14
                            x       y       z     vdW  Elec       q    Type
                         _______ _______ _______ _____ _____    ______ ____

>  <TORSDO>
F 1

$$$$
=
 OpenBabel11042413433D

 30 34  0  0  1  0  0  0  0  0999 V2000
  191.2700  173.8660  143.5820 O   0  0  0  0  0  0  0  0  0  0  0  0
  191.0630  172.7110  140.7700 C   0  0  0  0  0  3  0  0  0  0  0  0
  188.1640  174.9190  141.7270 N   0  0  0  0  0  2  0  0  0  0  0  0
  186.6880  179.0440  142.0850 N   0  0  0  0  0  0  0  0  0  0  0  0
  191.0410  174.4570  142.4950 C   0  0  0  0  0  0  0  0  0  0  0  0
  187.6780  178.4880  142.6950 C   0  0  0  0  0  3  0  0  0  0  0  0
  190.0980  177.1680  143.9380 C   0  0  0  0  0  0  0  0  0  0  0  0
  188.9920  173.9290  141.0980 C   0  0  0  0  0  0  0  0  0  0  0  0
  191.4700  176.8170  143.3940 C   0  0  2  0  0  3  0  0  0  0  0  0
  189.9850  178.1230  144.6910 O   0  0  0  0  0  0  0  0  0  0  0  0
  188.3900  173.0860  140.1600 C   0  0  0  0  0  3  0  0  0  0  0  0
  190.3610  173.7330  141.4160 C   0  0  0  0  0  0  0  0  0  0  0  0
  191.4170  175.8280  142.3160 N   0  0  0  0  0  2  0  0  0  0  0  0
  186.2500  176.3580  143.1520 C   0  0  2  0  0  3  0  0  0  0  0  0
  189.1390  172.0910  139.5330 C   0  0  0  0  0  3  0  0  0  0  0  0
  185.1090  177.3100  142.7630 C   0  0  0  0  0  2  0  0  0  0  0  0
  186.0510  175.9330  144.4660 O   0  0  0  0  0  1  0  0  0  0  0  0
  190.4510  171.9280  139.8440 N   0  0  0  0  0  0  0  0  0  0  0  0
  188.6250  176.2530  142.1010 C   0  0  1  0  0  3  0  0  0  0  0  0
  188.6720  175.1770  144.3170 F   0  0  0  0  0  0  0  0  0  0  0  0
  185.5390  178.2730  141.6550 C   0  0  0  0  0  2  0  0  0  0  0  0
  187.6420  177.0140  142.9970 C   0  0  1  0  0  0  0  0  0  0  0  0
  188.8770  176.3480  143.6050 C   0  0  1  0  0  0  0  0  0  0  0  0
  192.4990  176.4740  144.4410 C   0  0  0  0  0  0  0  0  0  0  0  0
  192.5090  174.9810  146.4350 C   0  0  0  0  0  3  0  0  0  0  0  0
  193.7770  174.5780  146.5110 C   0  0  0  0  0  3  0  0  0  0  0  0
  192.1010  176.3040  145.8790 C   0  0  0  0  0  2  0  0  0  0  0  0
  193.7800  176.4660  144.0670 C   0  0  0  0  0  3  0  0  0  0  0  0
  194.9370  175.3180  145.9820 C   0  0  0  0  0  3  0  0  0  0  0  0
  194.9370  176.1370  144.9240 C   0  0  0  0  0  3  0  0  0  0  0  0
  2 12  1  0  0  0  0
  4  6  2  0  0  0  0
  5  1  2  0  0  0  0
  7 10  2  0  0  0  0
  8 12  2  0  0  0  0
  8  3  1  0  0  0  0
  9  7  1  0  0  0  0
  9 24  1  1  0  0  0
 11  8  1  0  0  0  0
 12  5  1  0  0  0  0
 13  5  1  0  0  0  0
 13  9  1  0  0  0  0
 14 17  1  1  0  0  0
 15 18  1  0  0  0  0
 15 11  2  0  0  0  0
 16 14  1  0  0  0  0
 18  2  2  0  0  0  0
 19  3  1  1  0  0  0
 19 22  1  0  0  0  0
 19 23  1  0  0  0  0
 21  4  1  0  0  0  0
 21 16  1  0  0  0  0
 22  6  1  6  0  0  0
 22 14  1  0  0  0  0
 22 23  1  0  0  0  0
 23  7  1  0  0  0  0
 23 20  1  1  0  0  0
 24 27  1  0  0  0  0
 25 26  2  0  0  0  0
 27 25  1  0  0  0  0
 28 24  2  0  0  0  0
 28 30  1  0  0  0  0
 29 26  1  0  0  0  0
 30 29  2  0  0  0  0
M  END
>  <MODEL>
5

>  <REMARK>
 VINA RESULT:      -7.6      2.092      6.081
  Name = 
  1 active torsions:
  status: ('A' for Active; 'I' for Inactive)
    1  A    between atoms: C_1  and  C_14
                            x       y       z     vdW  Elec       q    Type
                         _______ _______ _______ _____ _____    ______ ____

>  <TORSDO>
F 1

$$$$
=
 OpenBabel11042413433D

 30 34  0  0  1  0  0  0  0  0999 V2000
  190.0820  175.0260  142.6170 O   0  0  0  0  0  0  0  0  0  0  0  0
  190.1740  172.1220  141.6960 C   0  0  0  0  0  3  0  0  0  0  0  0
  193.5560  173.7730  141.8710 N   0  0  0  0  0  2  0  0  0  0  0  0
  196.9120  174.9410  144.4600 N   0  0  0  0  0  0  0  0  0  0  0  0
  190.7960  174.0800  143.0400 C   0  0  0  0  0  0  0  0  0  0  0  0
  195.6830  175.3260  144.5130 C   0  0  0  0  0  3  0  0  0  0  0  0
  192.7470  176.0270  144.6900 C   0  0  0  0  0  0  0  0  0  0  0  0
  192.4660  172.8990  141.5420 C   0  0  0  0  0  0  0  0  0  0  0  0
  191.5350  175.2630  145.1890 C   0  0  2  0  0  3  0  0  0  0  0  0
  193.2070  176.9240  145.3800 O   0  0  0  0  0  0  0  0  0  0  0  0
  192.6900  171.9310  140.5590 C   0  0  0  0  0  3  0  0  0  0  0  0
  191.1740  173.0020  142.1200 C   0  0  0  0  0  0  0  0  0  0  0  0
  191.2560  174.0630  144.3960 N   0  0  0  0  0  2  0  0  0  0  0  0
  195.6280  175.6370  141.9280 C   0  0  2  0  0  3  0  0  0  0  0  0
  191.6620  171.0680  140.1820 C   0  0  0  0  0  3  0  0  0  0  0  0
  197.1500  175.5490  142.1080 C   0  0  0  0  0  2  0  0  0  0  0  0
  195.3100  176.8860  141.3930 O   0  0  0  0  0  1  0  0  0  0  0  0
  190.4360  171.1770  140.7560 N   0  0  0  0  0  0  0  0  0  0  0  0
  193.8210  174.2810  143.2150 C   0  0  1  0  0  3  0  0  0  0  0  0
  192.7790  176.2840  142.2260 F   0  0  0  0  0  0  0  0  0  0  0  0
  197.5260  174.5530  143.2060 C   0  0  0  0  0  2  0  0  0  0  0  0
  194.8640  175.4030  143.2520 C   0  0  1  0  0  0  0  0  0  0  0  0
  193.3750  175.7370  143.3510 C   0  0  1  0  0  0  0  0  0  0  0  0
  190.3040  176.1020  145.4170 C   0  0  0  0  0  0  0  0  0  0  0  0
  189.0920  177.8020  144.0590 C   0  0  0  0  0  3  0  0  0  0  0  0
  187.8230  177.6520  144.4400 C   0  0  0  0  0  3  0  0  0  0  0  0
  190.2550  177.5290  144.9540 C   0  0  0  0  0  2  0  0  0  0  0  0
  189.3280  175.5760  146.1610 C   0  0  0  0  0  3  0  0  0  0  0  0
  187.3850  177.1150  145.7410 C   0  0  0  0  0  3  0  0  0  0  0  0
  188.0380  176.2160  146.4860 C   0  0  0  0  0  3  0  0  0  0  0  0
  1  5  2  0  0  0  0
  2 12  1  0  0  0  0
  4  6  2  0  0  0  0
  5 13  1  0  0  0  0
  7  9  1  0  0  0  0
  7 10  2  0  0  0  0
  8  3  1  0  0  0  0
  8 12  2  0  0  0  0
  9 24  1  6  0  0  0
 11  8  1  0  0  0  0
 12  5  1  0  0  0  0
 13  9  1  0  0  0  0
 14 17  1  1  0  0  0
 14 16  1  0  0  0  0
 14 22  1  0  0  0  0
 15 11  2  0  0  0  0
 15 18  1  0  0  0  0
 16 21  1  0  0  0  0
 18  2  2  0  0  0  0
 19  3  1  6  0  0  0
 19 22  1  0  0  0  0
 19 23  1  0  0  0  0
 21  4  1  0  0  0  0
 22 23  1  0  0  0  0
 22  6  1  1  0  0  0
 23 20  1  6  0  0  0
 23  7  1  0  0  0  0
 24 28  2  0  0  0  0
 25 26  2  0  0  0  0
 25 27  1  0  0  0  0
 26 29  1  0  0  0  0
 27 24  1  0  0  0  0
 28 30  1  0  0  0  0
 29 30  2  0  0  0  0
M  END
>  <MODEL>
6

>  <REMARK>
 VINA RESULT:      -7.6      2.713      5.642
  Name = 
  1 active torsions:
  status: ('A' for Active; 'I' for Inactive)
    1  A    between atoms: C_1  and  C_14
                            x       y       z     vdW  Elec       q    Type
                         _______ _______ _______ _____ _____    ______ ____

>  <TORSDO>
F 1

$$$$
=
 OpenBabel11042413433D

 30 34  0  0  1  0  0  0  0  0999 V2000
  193.5640  173.0540  143.6540 O   0  0  0  0  0  0  0  0  0  0  0  0
  192.0770  172.5070  141.0500 C   0  0  0  0  0  3  0  0  0  0  0  0
  189.9830  174.2250  143.6700 N   0  0  0  0  0  2  0  0  0  0  0  0
  188.9350  178.0500  145.5660 N   0  0  0  0  0  0  0  0  0  0  0  0
  192.8830  173.8410  142.9470 C   0  0  0  0  0  0  0  0  0  0  0  0
  190.0790  177.4580  145.5280 C   0  0  0  0  0  3  0  0  0  0  0  0
  192.7650  176.1010  145.2270 C   0  0  0  0  0  0  0  0  0  0  0  0
  190.4110  173.4590  142.5340 C   0  0  0  0  0  0  0  0  0  0  0  0
  193.7330  175.9840  144.0650 C   0  0  2  0  0  3  0  0  0  0  0  0
  193.0290  176.8640  146.1440 O   0  0  0  0  0  0  0  0  0  0  0  0
  189.4280  172.7890  141.8010 C   0  0  0  0  0  3  0  0  0  0  0  0
  191.7700  173.3100  142.1530 C   0  0  0  0  0  0  0  0  0  0  0  0
  193.1720  175.2440  142.9320 N   0  0  0  0  0  2  0  0  0  0  0  0
  188.9580  175.1730  146.0830 C   0  0  2  0  0  3  0  0  0  0  0  0
  189.7860  172.0120  140.6990 C   0  0  0  0  0  3  0  0  0  0  0  0
  187.7900  176.0920  146.4690 C   0  0  0  0  0  2  0  0  0  0  0  0
  189.3660  174.4640  147.2140 O   0  0  0  0  0  1  0  0  0  0  0  0
  191.0920  171.8910  140.3470 N   0  0  0  0  0  0  0  0  0  0  0  0
  190.5970  175.4820  144.0880 C   0  0  1  0  0  3  0  0  0  0  0  0
  191.6150  173.9680  145.7450 F   0  0  0  0  0  0  0  0  0  0  0  0
  187.6960  177.2980  145.5330 C   0  0  0  0  0  2  0  0  0  0  0  0
  190.1460  175.9550  145.4740 C   0  0  1  0  0  0  0  0  0  0  0  0
  191.5050  175.2760  145.3000 C   0  0  1  0  0  0  0  0  0  0  0  0
  195.1150  175.5100  144.4350 C   0  0  0  0  0  0  0  0  0  0  0  0
  195.9880  173.6880  145.8920 C   0  0  0  0  0  3  0  0  0  0  0  0
  197.1290  173.3400  145.2980 C   0  0  0  0  0  3  0  0  0  0  0  0
  195.4220  175.0680  145.8360 C   0  0  0  0  0  2  0  0  0  0  0  0
  196.0750  175.6310  143.5160 C   0  0  0  0  0  3  0  0  0  0  0  0
  197.9400  174.2180  144.4350 C   0  0  0  0  0  3  0  0  0  0  0  0
  197.4830  175.2110  143.6640 C   0  0  0  0  0  3  0  0  0  0  0  0
  2 12  1  0  0  0  0
  5  1  2  0  0  0  0
  6  4  2  0  0  0  0
  7 23  1  0  0  0  0
  7 10  2  0  0  0  0
  8  3  1  0  0  0  0
  9 24  1  1  0  0  0
  9  7  1  0  0  0  0
 11  8  1  0  0  0  0
 12  8  2  0  0  0  0
 12  5  1  0  0  0  0
 13  5  1  0  0  0  0
 13  9  1  0  0  0  0
 14 16  1  0  0  0  0
 14 17  1  1  0  0  0
 15 11  2  0  0  0  0
 18 15  1  0  0  0  0
 18  2  2  0  0  0  0
 19  3  1  1  0  0  0
 19 23  1  0  0  0  0
 19 22  1  0  0  0  0
 21  4  1  0  0  0  0
 21 16  1  0  0  0  0
 22  6  1  1  0  0  0
 22 14  1  0  0  0  0
 23 22  1  0  0  0  0
 23 20  1  1  0  0  0
 24 27  1  0  0  0  0
 26 25  2  0  0  0  0
 27 25  1  0  0  0  0
 28 30  1  0  0  0  0
 28 24  2  0  0  0  0
 29 26  1  0  0  0  0
 30 29  2  0  0  0  0
M  END
>  <MODEL>
7

>  <REMARK>
 VINA RESULT:      -7.5      2.454      7.435
  Name = 
  1 active torsions:
  status: ('A' for Active; 'I' for Inactive)
    1  A    between atoms: C_1  and  C_14
                            x       y       z     vdW  Elec       q    Type
                         _______ _______ _______ _____ _____    ______ ____

>  <TORSDO>
F 1

$$$$
=
 OpenBabel11042413433D

 30 34  0  0  1  0  0  0  0  0999 V2000
  189.4210  174.6920  141.6870 O   0  0  0  0  0  0  0  0  0  0  0  0
  189.6990  171.6650  141.9020 C   0  0  0  0  0  3  0  0  0  0  0  0
  192.7360  173.5610  143.0740 N   0  0  0  0  0  2  0  0  0  0  0  0
  194.5980  175.7730  146.3850 N   0  0  0  0  0  0  0  0  0  0  0  0
  189.7820  173.9950  142.6710 C   0  0  0  0  0  0  0  0  0  0  0  0
  193.5180  176.0510  145.7400 C   0  0  0  0  0  3  0  0  0  0  0  0
  190.8970  176.5240  144.3080 C   0  0  0  0  0  0  0  0  0  0  0  0
  191.8570  172.5400  142.5800 C   0  0  0  0  0  0  0  0  0  0  0  0
  189.5360  175.8610  144.4090 C   0  0  2  0  0  3  0  0  0  0  0  0
  191.0550  177.6300  144.8020 O   0  0  0  0  0  0  0  0  0  0  0  0
  192.4320  171.3310  142.1830 C   0  0  0  0  0  3  0  0  0  0  0  0
  190.4560  172.7140  142.4310 C   0  0  0  0  0  0  0  0  0  0  0  0
  189.5610  174.4520  144.0100 N   0  0  0  0  0  2  0  0  0  0  0  0
  194.6870  175.5120  143.4760 C   0  0  2  0  0  3  0  0  0  0  0  0
  191.6300  170.3090  141.6750 C   0  0  0  0  0  3  0  0  0  0  0  0
  195.9420  175.6130  144.3540 C   0  0  0  0  0  2  0  0  0  0  0  0
  194.7510  176.4920  142.4850 O   0  0  0  0  0  1  0  0  0  0  0  0
  190.2900  170.4940  141.5490 N   0  0  0  0  0  0  0  0  0  0  0  0
  192.3900  174.4930  144.1440 C   0  0  1  0  0  3  0  0  0  0  0  0
  192.0830  175.9790  142.2010 F   0  0  0  0  0  0  0  0  0  0  0  0
  195.6890  175.0570  145.7560 C   0  0  0  0  0  2  0  0  0  0  0  0
  193.3820  175.6510  144.2950 C   0  0  1  0  0  0  0  0  0  0  0  0
  192.0470  175.8730  143.5830 C   0  0  1  0  0  0  0  0  0  0  0  0
  188.4090  176.6230  143.7600 C   0  0  0  0  0  0  0  0  0  0  0  0
  186.3110  177.6660  144.6060 C   0  0  0  0  0  3  0  0  0  0  0  0
  186.1320  178.7030  143.7890 C   0  0  0  0  0  3  0  0  0  0  0  0
  186.9880  176.4020  144.1920 C   0  0  0  0  0  2  0  0  0  0  0  0
  188.7070  177.3870  142.7060 C   0  0  0  0  0  3  0  0  0  0  0  0
  186.6470  178.7990  142.4120 C   0  0  0  0  0  3  0  0  0  0  0  0
  187.7620  178.2270  141.9430 C   0  0  0  0  0  3  0  0  0  0  0  0
  1  5  2  0  0  0  0
  2 12  1  0  0  0  0
  5 13  1  0  0  0  0
  6  4  2  0  0  0  0
  7  9  1  0  0  0  0
  7 10  2  0  0  0  0
  8  3  1  0  0  0  0
  9 24  1  6  0  0  0
 11  8  1  0  0  0  0
 12  8  2  0  0  0  0
 12  5  1  0  0  0  0
 13  9  1  0  0  0  0
 14 17  1  6  0  0  0
 14 22  1  0  0  0  0
 14 16  1  0  0  0  0
 15 11  2  0  0  0  0
 16 21  1  0  0  0  0
 18 15  1  0  0  0  0
 18  2  2  0  0  0  0
 19  3  1  6  0  0  0
 19 22  1  0  0  0  0
 21  4  1  0  0  0  0
 22  6  1  1  0  0  0
 23 20  1  6  0  0  0
 23 19  1  0  0  0  0
 23 22  1  0  0  0  0
 23  7  1  0  0  0  0
 24 27  1  0  0  0  0
 26 25  2  0  0  0  0
 27 25  1  0  0  0  0
 28 24  2  0  0  0  0
 29 26  1  0  0  0  0
 30 29  2  0  0  0  0
 30 28  1  0  0  0  0
M  END
>  <MODEL>
8

>  <REMARK>
 VINA RESULT:      -7.4      2.234      5.285
  Name = 
  1 active torsions:
  status: ('A' for Active; 'I' for Inactive)
    1  A    between atoms: C_1  and  C_14
                            x       y       z     vdW  Elec       q    Type
                         _______ _______ _______ _____ _____    ______ ____

>  <TORSDO>
F 1

$$$$
=
 OpenBabel11042413433D

 30 34  0  0  1  0  0  0  0  0999 V2000
  188.0040  176.0540  140.9880 O   0  0  0  0  0  0  0  0  0  0  0  0
  188.4710  173.0710  140.5740 C   0  0  0  0  0  3  0  0  0  0  0  0
  190.5650  174.5750  143.3220 N   0  0  0  0  0  2  0  0  0  0  0  0
  190.6910  175.8430  147.5290 N   0  0  0  0  0  0  0  0  0  0  0  0
  188.0020  175.1240  141.8360 C   0  0  0  0  0  0  0  0  0  0  0  0
  189.9440  176.2870  146.5770 C   0  0  0  0  0  3  0  0  0  0  0  0
  188.0970  177.1360  144.3380 C   0  0  0  0  0  0  0  0  0  0  0  0
  190.0690  173.7230  142.2780 C   0  0  0  0  0  0  0  0  0  0  0  0
  186.8860  176.4820  143.7000 C   0  0  2  0  0  3  0  0  0  0  0  0
  187.9310  178.0760  145.1000 O   0  0  0  0  0  0  0  0  0  0  0  0
  190.8740  172.6520  141.8830 C   0  0  0  0  0  3  0  0  0  0  0  0
  188.8400  173.9420  141.6040 C   0  0  0  0  0  0  0  0  0  0  0  0
  187.2120  175.2230  143.0260 N   0  0  0  0  0  2  0  0  0  0  0  0
  191.9790  176.3390  144.9520 C   0  0  2  0  0  3  0  0  0  0  0  0
  190.4530  171.8030  140.8600 C   0  0  0  0  0  3  0  0  0  0  0  0
  192.7530  176.2000  146.2710 C   0  0  0  0  0  2  0  0  0  0  0  0
  192.3420  177.5410  144.3430 O   0  0  0  0  0  1  0  0  0  0  0  0
  189.2680  172.0250  140.2340 N   0  0  0  0  0  0  0  0  0  0  0  0
  189.7230  175.2030  144.3360 C   0  0  1  0  0  3  0  0  0  0  0  0
  190.0850  177.1410  142.8570 F   0  0  0  0  0  0  0  0  0  0  0  0
  192.0100  175.3030  147.2630 C   0  0  0  0  0  2  0  0  0  0  0  0
  190.4480  176.2740  145.1580 C   0  0  1  0  0  0  0  0  0  0  0  0
  189.5020  176.6840  144.0290 C   0  0  1  0  0  0  0  0  0  0  0  0
  186.0500  177.3950  142.8410 C   0  0  0  0  0  0  0  0  0  0  0  0
  186.1410  178.0890  140.4510 C   0  0  0  0  0  3  0  0  0  0  0  0
  184.8610  178.2910  140.1400 C   0  0  0  0  0  3  0  0  0  0  0  0
  186.6940  178.2890  141.8220 C   0  0  0  0  0  2  0  0  0  0  0  0
  184.7470  177.4780  143.1170 C   0  0  0  0  0  3  0  0  0  0  0  0
  183.7990  178.6420  141.1000 C   0  0  0  0  0  3  0  0  0  0  0  0
  183.7510  178.2910  142.3900 C   0  0  0  0  0  3  0  0  0  0  0  0
  1  5  2  0  0  0  0
  2 12  1  0  0  0  0
  5 13  1  0  0  0  0
  6  4  2  0  0  0  0
  7 10  2  0  0  0  0
  8  3  1  0  0  0  0
  9 24  1  6  0  0  0
  9  7  1  0  0  0  0
 11  8  1  0  0  0  0
 12  5  1  0  0  0  0
 12  8  2  0  0  0  0
 13  9  1  0  0  0  0
 14 17  1  1  0  0  0
 14 22  1  0  0  0  0
 14 16  1  0  0  0  0
 15 11  2  0  0  0  0
 16 21  1  0  0  0  0
 18  2  2  0  0  0  0
 18 15  1  0  0  0  0
 19  3  1  6  0  0  0
 19 22  1  0  0  0  0
 21  4  1  0  0  0  0
 22  6  1  1  0  0  0
 23 20  1  6  0  0  0
 23 19  1  0  0  0  0
 23  7  1  0  0  0  0
 23 22  1  0  0  0  0
 24 28  2  0  0  0  0
 25 27  1  0  0  0  0
 26 25  2  0  0  0  0
 26 29  1  0  0  0  0
 27 24  1  0  0  0  0
 29 30  2  0  0  0  0
 30 28  1  0  0  0  0
M  END
>  <MODEL>
9

>  <REMARK>
 VINA RESULT:      -7.3      2.351      5.171
  Name = 
  1 active torsions:
  status: ('A' for Active; 'I' for Inactive)
    1  A    between atoms: C_1  and  C_14
                            x       y       z     vdW  Elec       q    Type
                         _______ _______ _______ _____ _____    ______ ____

>  <TORSDO>
F 1

$$$$
