=
 OpenBabel11042419313D

 32 33  0  0  1  0  0  0  0  0999 V2000
  191.9260  176.8080  147.6130 O   0  0  0  0  0  0  0  0  0  0  0  0
  191.3440  175.0940  146.3900 C   0  0  0  0  0  0  0  0  0  0  0  0
  192.3800  175.9260  146.7530 C   0  0  0  0  0  0  0  0  0  0  0  0
  190.2650  175.5770  147.0990 C   0  0  0  0  0  0  0  0  0  0  0  0
  190.6550  176.6330  147.8420 N   0  0  0  0  0  0  0  0  0  0  0  0
  188.8590  175.0790  147.0280 C   0  0  0  0  0  2  0  0  0  0  0  0
  187.9510  176.1100  146.3820 C   0  0  0  0  0  2  0  0  0  0  0  0
  186.9780  176.5260  147.2900 O   0  0  0  0  0  0  0  0  0  0  0  0
  185.9170  176.9610  146.4970 C   0  0  0  0  0  2  0  0  0  0  0  0
  185.5240  178.3740  146.8960 C   0  0  0  0  0  2  0  0  0  0  0  0
  185.6840  179.4280  144.8190 C   0  0  0  0  0  1  0  0  0  0  0  0
  184.7410  178.9860  145.8340 N   0  0  0  0  0  2  0  0  0  0  0  0
  191.3630  173.9830  145.3970 C   0  0  0  0  0  2  0  0  0  0  0  0
  190.3160  174.1960  144.4080 N   0  0  0  0  0  2  0  0  0  0  0  0
  190.8440  175.1480  143.4430 C   0  0  1  0  0  3  0  0  0  0  0  0
  191.5870  174.4150  142.3390 C   0  0  0  0  0  1  0  0  0  0  0  0
  189.9820  177.4660  142.7670 C   0  0  0  0  0  0  0  0  0  0  0  0
  189.7470  176.0150  142.8820 C   0  0  0  0  0  0  0  0  0  0  0  0
  189.0320  178.2880  142.0830 N   0  0  0  0  0  0  0  0  0  0  0  0
  188.5870  175.5030  142.4260 C   0  0  0  0  0  0  0  0  0  0  0  0
  191.0320  177.9830  143.2270 O   0  0  0  0  0  0  0  0  0  0  0  0
  187.9060  177.8130  141.6450 C   0  0  0  0  0  3  0  0  0  0  0  0
  188.3610  174.1300  142.4720 O   0  0  0  0  0  1  0  0  0  0  0  0
  186.2860  176.3510  142.7900 C   0  0  0  0  0  1  0  0  0  0  0  0
  187.4900  176.3830  141.8680 C   0  0  2  0  0  3  0  0  0  0  0  0
  193.7980  175.8420  146.2930 C   0  0  0  0  0  2  0  0  0  0  0  0
  193.9750  176.6180  144.9980 C   0  0  0  0  0  2  0  0  0  0  0  0
  195.2750  177.1280  144.9170 O   0  0  0  0  0  0  0  0  0  0  0  0
  194.9380  175.6250  142.6020 O   0  0  0  0  0  0  0  0  0  0  0  0
  196.0610  176.1850  143.7410 P   0  0  0  0  0  0  0  0  0  0  0  0
  197.1260  177.0030  143.0430 O   0  0  0  0  0  1  0  0  0  0  0  0
  196.7940  174.8590  144.4950 O   0  0  0  0  0  1  0  0  0  0  0  0
  1  5  1  0  0  0  0
  2  3  2  0  0  0  0
  2  4  1  0  0  0  0
  3  1  1  0  0  0  0
  4  5  2  0  0  0  0
  6  4  1  0  0  0  0
  7  6  1  0  0  0  0
  7  8  1  0  0  0  0
  9 10  1  0  0  0  0
  9  8  1  0  0  0  0
 11 12  1  0  0  0  0
 12 10  1  0  0  0  0
 13  2  1  0  0  0  0
 14 13  1  0  0  0  0
 15 16  1  6  0  0  0
 15 14  1  0  0  0  0
 17 18  1  0  0  0  0
 17 21  2  0  0  0  0
 18 15  1  0  0  0  0
 19 17  1  0  0  0  0
 20 23  1  0  0  0  0
 20 18  2  0  0  0  0
 22 25  1  0  0  0  0
 22 19  2  0  0  0  0
 25 20  1  0  0  0  0
 25 24  1  1  0  0  0
 26  3  1  0  0  0  0
 27 26  1  0  0  0  0
 28 27  1  0  0  0  0
 29 30  2  0  0  0  0
 30 32  1  0  0  0  0
 30 28  1  0  0  0  0
 31 30  1  0  0  0  0
M  END
>  <MODEL>
1

>  <REMARK>
 VINA RESULT:      -6.0      0.000      0.000
  Name = 
  14 active torsions:
  status: ('A' for Active; 'I' for Inactive)
    1  A    between atoms: O_1  and  C_10
    2  A    between atoms: O_1  and  C_28
    3  A    between atoms: C_2  and  N_27
    4  A    between atoms: C_2  and  C_28
    5  A    between atoms: C_5  and  C_15
    6  A    between atoms: C_6  and  O_11
    7  A    between atoms: C_6  and  C_32
    8  A    between atoms: C_7  and  C_17
    9  A    between atoms: C_10  and  C_13
   10  A    between atoms: O_11  and  P_26
   11  A    between atoms: C_13  and  C_22
   12  A    between atoms: C_15  and  N_25
   13  A    between atoms: C_17  and  N_25
   14  A    between atoms: C_21  and  C_32
                            x       y       z     vdW  Elec       q    Type
                         _______ _______ _______ _____ _____    ______ ____

>  <TORSDO>
F 14

$$$$
=
 OpenBabel11042419313D

 32 33  0  0  1  0  0  0  0  0999 V2000
  189.7610  177.2690  147.3520 O   0  0  0  0  0  0  0  0  0  0  0  0
  190.1260  175.3310  146.4120 C   0  0  0  0  0  0  0  0  0  0  0  0
  189.1630  176.2030  146.8720 C   0  0  0  0  0  0  0  0  0  0  0  0
  191.3140  175.9750  146.6780 C   0  0  0  0  0  0  0  0  0  0  0  0
  191.0570  177.1660  147.2570 N   0  0  0  0  0  0  0  0  0  0  0  0
  192.6880  175.4420  146.4400 C   0  0  0  0  0  2  0  0  0  0  0  0
  193.5990  176.5240  145.8860 C   0  0  0  0  0  2  0  0  0  0  0  0
  194.9330  176.1900  146.1180 O   0  0  0  0  0  0  0  0  0  0  0  0
  195.0630  174.8890  145.6350 C   0  0  0  0  0  2  0  0  0  0  0  0
  196.3030  174.7870  144.7620 C   0  0  0  0  0  2  0  0  0  0  0  0
  196.9110  176.4880  143.2820 C   0  0  0  0  0  1  0  0  0  0  0  0
  196.0280  175.3450  143.4470 N   0  0  0  0  0  2  0  0  0  0  0  0
  189.9320  173.9690  145.8380 C   0  0  0  0  0  2  0  0  0  0  0  0
  189.2020  174.0700  144.5830 N   0  0  0  0  0  2  0  0  0  0  0  0
  190.0560  174.8040  143.6630 C   0  0  1  0  0  3  0  0  0  0  0  0
  190.7020  173.8490  142.6730 C   0  0  0  0  0  1  0  0  0  0  0  0
  189.8180  177.2620  142.9710 C   0  0  0  0  0  0  0  0  0  0  0  0
  189.2850  175.8880  142.9540 C   0  0  0  0  0  0  0  0  0  0  0  0
  189.2030  178.2730  142.1680 N   0  0  0  0  0  0  0  0  0  0  0  0
  188.1610  175.6320  142.2560 C   0  0  0  0  0  0  0  0  0  0  0  0
  190.8360  177.5460  143.6540 O   0  0  0  0  0  0  0  0  0  0  0  0
  188.1160  178.0450  141.4960 C   0  0  0  0  0  3  0  0  0  0  0  0
  187.6660  174.3330  142.1770 O   0  0  0  0  0  1  0  0  0  0  0  0
  186.0460  176.9230  142.2220 C   0  0  0  0  0  1  0  0  0  0  0  0
  187.3920  176.7260  141.5510 C   0  0  2  0  0  3  0  0  0  0  0  0
  187.6830  176.0140  146.8130 C   0  0  0  0  0  2  0  0  0  0  0  0
  187.0810  176.9240  145.7550 C   0  0  0  0  0  2  0  0  0  0  0  0
  185.6860  176.9270  145.8600 O   0  0  0  0  0  0  0  0  0  0  0  0
  185.9880  179.4740  144.7870 O   0  0  0  0  0  0  0  0  0  0  0  0
  185.2430  178.5610  146.0060 P   0  0  0  0  0  0  0  0  0  0  0  0
  183.7410  178.7050  145.9000 O   0  0  0  0  0  1  0  0  0  0  0  0
  185.7450  179.1370  147.5160 O   0  0  0  0  0  1  0  0  0  0  0  0
  2  4  1  0  0  0  0
  2  3  2  0  0  0  0
  3  1  1  0  0  0  0
  4  5  2  0  0  0  0
  5  1  1  0  0  0  0
  6  4  1  0  0  0  0
  7  8  1  0  0  0  0
  7  6  1  0  0  0  0
  9  8  1  0  0  0  0
 10  9  1  0  0  0  0
 11 12  1  0  0  0  0
 12 10  1  0  0  0  0
 13  2  1  0  0  0  0
 14 13  1  0  0  0  0
 15 16  1  6  0  0  0
 15 14  1  0  0  0  0
 17 21  2  0  0  0  0
 18 17  1  0  0  0  0
 18 15  1  0  0  0  0
 19 17  1  0  0  0  0
 20 18  2  0  0  0  0
 22 25  1  0  0  0  0
 22 19  2  0  0  0  0
 23 20  1  0  0  0  0
 25 24  1  1  0  0  0
 25 20  1  0  0  0  0
 26  3  1  0  0  0  0
 27 28  1  0  0  0  0
 27 26  1  0  0  0  0
 28 30  1  0  0  0  0
 29 30  2  0  0  0  0
 30 32  1  0  0  0  0
 31 30  1  0  0  0  0
M  END
>  <MODEL>
2

>  <REMARK>
 VINA RESULT:      -5.9      2.816      6.594
  Name = 
  14 active torsions:
  status: ('A' for Active; 'I' for Inactive)
    1  A    between atoms: O_1  and  C_10
    2  A    between atoms: O_1  and  C_28
    3  A    between atoms: C_2  and  N_27
    4  A    between atoms: C_2  and  C_28
    5  A    between atoms: C_5  and  C_15
    6  A    between atoms: C_6  and  O_11
    7  A    between atoms: C_6  and  C_32
    8  A    between atoms: C_7  and  C_17
    9  A    between atoms: C_10  and  C_13
   10  A    between atoms: O_11  and  P_26
   11  A    between atoms: C_13  and  C_22
   12  A    between atoms: C_15  and  N_25
   13  A    between atoms: C_17  and  N_25
   14  A    between atoms: C_21  and  C_32
                            x       y       z     vdW  Elec       q    Type
                         _______ _______ _______ _____ _____    ______ ____

>  <TORSDO>
F 14

$$$$
=
 OpenBabel11042419313D

 32 33  0  0  1  0  0  0  0  0999 V2000
  191.9170  172.3360  144.5200 O   0  0  0  0  0  0  0  0  0  0  0  0
  190.7300  174.0480  145.1750 C   0  0  0  0  0  0  0  0  0  0  0  0
  190.6920  172.8030  144.5870 C   0  0  0  0  0  0  0  0  0  0  0  0
  192.0680  174.2580  145.4250 C   0  0  0  0  0  0  0  0  0  0  0  0
  192.7740  173.1860  145.0100 N   0  0  0  0  0  0  0  0  0  0  0  0
  192.6830  175.4910  146.0000 C   0  0  0  0  0  2  0  0  0  0  0  0
  194.1970  175.3800  146.0240 C   0  0  0  0  0  2  0  0  0  0  0  0
  194.7590  176.3100  145.1500 O   0  0  0  0  0  0  0  0  0  0  0  0
  195.7150  175.5920  144.4330 C   0  0  0  0  0  2  0  0  0  0  0  0
  195.1150  175.1020  143.1260 C   0  0  0  0  0  2  0  0  0  0  0  0
  193.0330  175.5600  142.1740 C   0  0  0  0  0  1  0  0  0  0  0  0
  194.3110  176.1570  142.5270 N   0  0  0  0  0  2  0  0  0  0  0  0
  189.5960  174.9890  145.4080 C   0  0  0  0  0  2  0  0  0  0  0  0
  189.3820  175.7970  144.2170 N   0  0  0  0  0  2  0  0  0  0  0  0
  189.1090  177.1490  144.6750 C   0  0  1  0  0  3  0  0  0  0  0  0
  190.3360  178.0250  144.4830 C   0  0  0  0  0  1  0  0  0  0  0  0
  187.9860  177.9660  142.5200 C   0  0  0  0  0  0  0  0  0  0  0  0
  187.9090  177.7290  143.9720 C   0  0  0  0  0  0  0  0  0  0  0  0
  186.8130  178.3520  141.7990 N   0  0  0  0  0  0  0  0  0  0  0  0
  186.7500  177.9790  144.6140 C   0  0  0  0  0  0  0  0  0  0  0  0
  189.0660  177.7910  141.8990 O   0  0  0  0  0  0  0  0  0  0  0  0
  185.6910  178.6050  142.4020 C   0  0  0  0  0  3  0  0  0  0  0  0
  186.6320  177.7130  145.9760 O   0  0  0  0  0  1  0  0  0  0  0  0
  185.2830  179.9670  144.4150 C   0  0  0  0  0  1  0  0  0  0  0  0
  185.5520  178.5650  143.9010 C   0  0  2  0  0  3  0  0  0  0  0  0
  189.4760  172.0670  144.1280 C   0  0  0  0  0  2  0  0  0  0  0  0
  189.3970  172.0820  142.6100 C   0  0  0  0  0  2  0  0  0  0  0  0
  188.3260  172.8790  142.1920 O   0  0  0  0  0  0  0  0  0  0  0  0
  190.4520  173.4860  140.5060 O   0  0  0  0  0  1  0  0  0  0  0  0
  188.7640  173.4610  140.6570 P   0  0  0  0  0  0  0  0  0  0  0  0
  188.1720  172.5800  139.5780 O   0  0  0  0  0  0  0  0  0  0  0  0
  188.1670  175.0340  140.4700 O   0  0  0  0  0  1  0  0  0  0  0  0
  1  3  1  0  0  0  0
  1  5  1  0  0  0  0
  2 13  1  0  0  0  0
  2  4  1  0  0  0  0
  3  2  2  0  0  0  0
  4  6  1  0  0  0  0
  5  4  2  0  0  0  0
  6  7  1  0  0  0  0
  8  7  1  0  0  0  0
  9  8  1  0  0  0  0
 10  9  1  0  0  0  0
 11 12  1  0  0  0  0
 12 10  1  0  0  0  0
 14 15  1  0  0  0  0
 14 13  1  0  0  0  0
 15 16  1  6  0  0  0
 17 18  1  0  0  0  0
 18 20  2  0  0  0  0
 18 15  1  0  0  0  0
 19 22  2  0  0  0  0
 19 17  1  0  0  0  0
 20 23  1  0  0  0  0
 21 17  2  0  0  0  0
 22 25  1  0  0  0  0
 25 24  1  1  0  0  0
 25 20  1  0  0  0  0
 26  3  1  0  0  0  0
 27 26  1  0  0  0  0
 28 27  1  0  0  0  0
 29 30  1  0  0  0  0
 30 28  1  0  0  0  0
 31 30  2  0  0  0  0
 32 30  1  0  0  0  0
M  END
>  <MODEL>
3

>  <REMARK>
 VINA RESULT:      -5.8      2.696      6.134
  Name = 
  14 active torsions:
  status: ('A' for Active; 'I' for Inactive)
    1  A    between atoms: O_1  and  C_10
    2  A    between atoms: O_1  and  C_28
    3  A    between atoms: C_2  and  N_27
    4  A    between atoms: C_2  and  C_28
    5  A    between atoms: C_5  and  C_15
    6  A    between atoms: C_6  and  O_11
    7  A    between atoms: C_6  and  C_32
    8  A    between atoms: C_7  and  C_17
    9  A    between atoms: C_10  and  C_13
   10  A    between atoms: O_11  and  P_26
   11  A    between atoms: C_13  and  C_22
   12  A    between atoms: C_15  and  N_25
   13  A    between atoms: C_17  and  N_25
   14  A    between atoms: C_21  and  C_32
                            x       y       z     vdW  Elec       q    Type
                         _______ _______ _______ _____ _____    ______ ____

>  <TORSDO>
F 14

$$$$
=
 OpenBabel11042419313D

 32 33  0  0  1  0  0  0  0  0999 V2000
  187.6690  175.9270  140.6140 O   0  0  0  0  0  0  0  0  0  0  0  0
  187.5840  176.4310  142.7380 C   0  0  0  0  0  0  0  0  0  0  0  0
  188.0710  175.5440  141.8040 C   0  0  0  0  0  0  0  0  0  0  0  0
  186.8640  177.3380  141.9920 C   0  0  0  0  0  0  0  0  0  0  0  0
  186.9350  177.0020  140.6880 N   0  0  0  0  0  0  0  0  0  0  0  0
  186.0650  178.4860  142.5160 C   0  0  0  0  0  2  0  0  0  0  0  0
  184.6660  178.0380  142.9040 C   0  0  0  0  0  2  0  0  0  0  0  0
  184.1120  178.9370  143.8150 O   0  0  0  0  0  0  0  0  0  0  0  0
  184.9840  178.9250  144.9020 C   0  0  0  0  0  2  0  0  0  0  0  0
  184.2850  178.3330  146.1140 C   0  0  0  0  0  2  0  0  0  0  0  0
  185.9780  177.3340  147.3740 C   0  0  0  0  0  1  0  0  0  0  0  0
  184.8870  177.0530  146.4540 N   0  0  0  0  0  2  0  0  0  0  0  0
  187.7280  176.3740  144.2210 C   0  0  0  0  0  2  0  0  0  0  0  0
  188.5690  177.4740  144.6700 N   0  0  0  0  0  2  0  0  0  0  0  0
  189.9280  177.1490  144.2670 C   0  0  1  0  0  3  0  0  0  0  0  0
  190.6360  178.3960  143.7620 C   0  0  0  0  0  1  0  0  0  0  0  0
  190.3550  176.8860  146.7810 C   0  0  0  0  0  0  0  0  0  0  0  0
  190.6900  176.5080  145.3970 C   0  0  0  0  0  0  0  0  0  0  0  0
  190.9390  176.1740  147.8740 N   0  0  0  0  0  0  0  0  0  0  0  0
  191.6230  175.5570  145.1870 C   0  0  0  0  0  0  0  0  0  0  0  0
  189.5270  177.8050  147.0110 O   0  0  0  0  0  0  0  0  0  0  0  0
  191.8440  175.2610  147.6910 C   0  0  0  0  0  3  0  0  0  0  0  0
  191.9190  175.1400  143.8920 O   0  0  0  0  0  1  0  0  0  0  0  0
  193.8460  175.3250  146.2570 C   0  0  0  0  0  1  0  0  0  0  0  0
  192.3860  174.9220  146.3280 C   0  0  2  0  0  3  0  0  0  0  0  0
  188.9440  174.3600  142.0630 C   0  0  0  0  0  2  0  0  0  0  0  0
  188.8020  173.3490  140.9370 C   0  0  0  0  0  2  0  0  0  0  0  0
  190.0250  173.1900  140.2760 O   0  0  0  0  0  0  0  0  0  0  0  0
  188.0930  173.6420  138.3290 O   0  0  0  0  0  1  0  0  0  0  0  0
  189.6350  173.0070  138.6330 P   0  0  0  0  0  0  0  0  0  0  0  0
  190.6540  173.7210  137.7720 O   0  0  0  0  0  0  0  0  0  0  0  0
  189.6430  171.3600  138.2430 O   0  0  0  0  0  1  0  0  0  0  0  0
  1  5  1  0  0  0  0
  1  3  1  0  0  0  0
  2 13  1  0  0  0  0
  3 26  1  0  0  0  0
  3  2  2  0  0  0  0
  4  6  1  0  0  0  0
  4  2  1  0  0  0  0
  5  4  2  0  0  0  0
  6  7  1  0  0  0  0
  7  8  1  0  0  0  0
  8  9  1  0  0  0  0
  9 10  1  0  0  0  0
 10 12  1  0  0  0  0
 12 11  1  0  0  0  0
 13 14  1  0  0  0  0
 15 16  1  1  0  0  0
 15 14  1  0  0  0  0
 15 18  1  0  0  0  0
 17 21  2  0  0  0  0
 17 19  1  0  0  0  0
 18 17  1  0  0  0  0
 20 18  2  0  0  0  0
 20 25  1  0  0  0  0
 22 19  2  0  0  0  0
 23 20  1  0  0  0  0
 25 24  1  1  0  0  0
 25 22  1  0  0  0  0
 27 26  1  0  0  0  0
 28 27  1  0  0  0  0
 29 30  1  0  0  0  0
 30 28  1  0  0  0  0
 31 30  2  0  0  0  0
 32 30  1  0  0  0  0
M  END
>  <MODEL>
4

>  <REMARK>
 VINA RESULT:      -5.8      2.914      6.131
  Name = 
  14 active torsions:
  status: ('A' for Active; 'I' for Inactive)
    1  A    between atoms: O_1  and  C_10
    2  A    between atoms: O_1  and  C_28
    3  A    between atoms: C_2  and  N_27
    4  A    between atoms: C_2  and  C_28
    5  A    between atoms: C_5  and  C_15
    6  A    between atoms: C_6  and  O_11
    7  A    between atoms: C_6  and  C_32
    8  A    between atoms: C_7  and  C_17
    9  A    between atoms: C_10  and  C_13
   10  A    between atoms: O_11  and  P_26
   11  A    between atoms: C_13  and  C_22
   12  A    between atoms: C_15  and  N_25
   13  A    between atoms: C_17  and  N_25
   14  A    between atoms: C_21  and  C_32
                            x       y       z     vdW  Elec       q    Type
                         _______ _______ _______ _____ _____    ______ ____

>  <TORSDO>
F 14

$$$$
=
 OpenBabel11042419313D

 32 33  0  0  1  0  0  0  0  0999 V2000
  192.8410  173.6640  144.7980 O   0  0  0  0  0  0  0  0  0  0  0  0
  190.7980  174.1390  145.4080 C   0  0  0  0  0  0  0  0  0  0  0  0
  192.1180  174.5260  145.4750 C   0  0  0  0  0  0  0  0  0  0  0  0
  190.8270  172.9870  144.6540 C   0  0  0  0  0  0  0  0  0  0  0  0
  192.0980  172.7200  144.2930 N   0  0  0  0  0  0  0  0  0  0  0  0
  189.6640  172.1100  144.3250 C   0  0  0  0  0  2  0  0  0  0  0  0
  189.4970  171.9740  142.8220 C   0  0  0  0  0  2  0  0  0  0  0  0
  188.1990  172.3200  142.4510 O   0  0  0  0  0  0  0  0  0  0  0  0
  188.3490  173.4430  141.6390 C   0  0  0  0  0  2  0  0  0  0  0  0
  188.2450  173.0380  140.1780 C   0  0  0  0  0  2  0  0  0  0  0  0
  188.8190  173.7170  138.0190 C   0  0  0  0  0  1  0  0  0  0  0  0
  188.4170  174.2060  139.3290 N   0  0  0  0  0  2  0  0  0  0  0  0
  189.6210  174.7710  146.0700 C   0  0  0  0  0  2  0  0  0  0  0  0
  188.8560  175.5240  145.0870 N   0  0  0  0  0  2  0  0  0  0  0  0
  187.9890  176.4220  145.8330 C   0  0  1  0  0  3  0  0  0  0  0  0
  188.8230  177.3780  146.6710 C   0  0  0  0  0  1  0  0  0  0  0  0
  185.6290  177.2380  145.2550 C   0  0  0  0  0  0  0  0  0  0  0  0
  187.0610  177.1690  144.9120 C   0  0  0  0  0  0  0  0  0  0  0  0
  184.7560  178.0790  144.4970 N   0  0  0  0  0  0  0  0  0  0  0  0
  187.5040  177.8260  143.8220 C   0  0  0  0  0  0  0  0  0  0  0  0
  185.1730  176.5960  146.2350 O   0  0  0  0  0  0  0  0  0  0  0  0
  185.1640  178.7130  143.4390 C   0  0  0  0  0  3  0  0  0  0  0  0
  188.8600  177.8240  143.5050 O   0  0  0  0  0  1  0  0  0  0  0  0
  186.5110  177.8790  141.5520 C   0  0  0  0  0  1  0  0  0  0  0  0
  186.5630  178.5710  142.9000 C   0  0  2  0  0  3  0  0  0  0  0  0
  192.6630  175.7360  146.1610 C   0  0  0  0  0  2  0  0  0  0  0  0
  193.3110  176.6650  145.1470 C   0  0  0  0  0  2  0  0  0  0  0  0
  194.6810  176.7770  145.4050 O   0  0  0  0  0  0  0  0  0  0  0  0
  196.7190  177.1010  143.5410 O   0  0  0  0  0  1  0  0  0  0  0  0
  195.4560  176.0940  144.0560 P   0  0  0  0  0  0  0  0  0  0  0  0
  196.0080  174.7300  144.4070 O   0  0  0  0  0  1  0  0  0  0  0  0
  194.3340  175.9260  142.7990 O   0  0  0  0  0  0  0  0  0  0  0  0
  1  3  1  0  0  0  0
  2  3  2  0  0  0  0
  2 13  1  0  0  0  0
  3 26  1  0  0  0  0
  4  2  1  0  0  0  0
  5  4  2  0  0  0  0
  5  1  1  0  0  0  0
  6  4  1  0  0  0  0
  7  6  1  0  0  0  0
  8  7  1  0  0  0  0
  9  8  1  0  0  0  0
 10  9  1  0  0  0  0
 11 12  1  0  0  0  0
 12 10  1  0  0  0  0
 14 15  1  0  0  0  0
 14 13  1  0  0  0  0
 15 16  1  6  0  0  0
 17 21  2  0  0  0  0
 18 17  1  0  0  0  0
 18 15  1  0  0  0  0
 19 17  1  0  0  0  0
 20 18  2  0  0  0  0
 22 19  2  0  0  0  0
 23 20  1  0  0  0  0
 25 24  1  6  0  0  0
 25 22  1  0  0  0  0
 25 20  1  0  0  0  0
 27 28  1  0  0  0  0
 27 26  1  0  0  0  0
 29 30  1  0  0  0  0
 30 31  1  0  0  0  0
 30 28  1  0  0  0  0
 32 30  2  0  0  0  0
M  END
>  <MODEL>
5

>  <REMARK>
 VINA RESULT:      -5.7      2.162      4.640
  Name = 
  14 active torsions:
  status: ('A' for Active; 'I' for Inactive)
    1  A    between atoms: O_1  and  C_10
    2  A    between atoms: O_1  and  C_28
    3  A    between atoms: C_2  and  N_27
    4  A    between atoms: C_2  and  C_28
    5  A    between atoms: C_5  and  C_15
    6  A    between atoms: C_6  and  O_11
    7  A    between atoms: C_6  and  C_32
    8  A    between atoms: C_7  and  C_17
    9  A    between atoms: C_10  and  C_13
   10  A    between atoms: O_11  and  P_26
   11  A    between atoms: C_13  and  C_22
   12  A    between atoms: C_15  and  N_25
   13  A    between atoms: C_17  and  N_25
   14  A    between atoms: C_21  and  C_32
                            x       y       z     vdW  Elec       q    Type
                         _______ _______ _______ _____ _____    ______ ____

>  <TORSDO>
F 14

$$$$
=
 OpenBabel11042419313D

 32 33  0  0  1  0  0  0  0  0999 V2000
  192.9920  173.4560  145.2540 O   0  0  0  0  0  0  0  0  0  0  0  0
  190.9460  174.2210  145.2400 C   0  0  0  0  0  0  0  0  0  0  0  0
  192.2410  174.4590  145.6440 C   0  0  0  0  0  0  0  0  0  0  0  0
  191.0160  173.0010  144.6030 C   0  0  0  0  0  0  0  0  0  0  0  0
  192.2880  172.5550  144.6280 N   0  0  0  0  0  0  0  0  0  0  0  0
  189.8730  172.2340  144.0240 C   0  0  0  0  0  2  0  0  0  0  0  0
  190.0560  172.0350  142.5290 C   0  0  0  0  0  2  0  0  0  0  0  0
  189.0180  172.6530  141.8340 O   0  0  0  0  0  0  0  0  0  0  0  0
  189.4290  172.6450  140.5020 C   0  0  0  0  0  2  0  0  0  0  0  0
  188.2140  172.6430  139.5900 C   0  0  0  0  0  2  0  0  0  0  0  0
  189.3400  173.7860  137.8940 C   0  0  0  0  0  1  0  0  0  0  0  0
  188.1960  173.8570  138.7890 N   0  0  0  0  0  2  0  0  0  0  0  0
  189.7340  175.0480  145.5040 C   0  0  0  0  0  2  0  0  0  0  0  0
  189.3830  175.7930  144.3050 N   0  0  0  0  0  2  0  0  0  0  0  0
  189.1040  177.1560  144.7290 C   0  0  1  0  0  3  0  0  0  0  0  0
  190.3090  178.0440  144.4620 C   0  0  0  0  0  1  0  0  0  0  0  0
  187.9050  177.9310  142.5990 C   0  0  0  0  0  0  0  0  0  0  0  0
  187.8700  177.6930  144.0530 C   0  0  0  0  0  0  0  0  0  0  0  0
  186.7040  178.2760  141.9050 N   0  0  0  0  0  0  0  0  0  0  0  0
  186.7180  177.9040  144.7210 C   0  0  0  0  0  0  0  0  0  0  0  0
  188.9760  177.7930  141.9540 O   0  0  0  0  0  0  0  0  0  0  0  0
  185.5880  178.4900  142.5340 C   0  0  0  0  0  3  0  0  0  0  0  0
  186.6400  177.6340  146.0850 O   0  0  0  0  0  1  0  0  0  0  0  0
  185.1780  179.8390  144.5550 C   0  0  0  0  0  1  0  0  0  0  0  0
  185.4840  178.4470  144.0350 C   0  0  2  0  0  3  0  0  0  0  0  0
  192.7450  175.6640  146.3700 C   0  0  0  0  0  2  0  0  0  0  0  0
  194.2330  175.8400  146.1210 C   0  0  0  0  0  2  0  0  0  0  0  0
  194.4410  176.7300  145.0610 O   0  0  0  0  0  0  0  0  0  0  0  0
  196.4030  174.7660  144.9050 O   0  0  0  0  0  1  0  0  0  0  0  0
  195.5800  175.9750  144.0500 P   0  0  0  0  0  0  0  0  0  0  0  0
  194.8870  175.3650  142.8510 O   0  0  0  0  0  0  0  0  0  0  0  0
  196.6940  177.1310  143.5120 O   0  0  0  0  0  1  0  0  0  0  0  0
  1  3  1  0  0  0  0
  2 13  1  0  0  0  0
  2  3  2  0  0  0  0
  3 26  1  0  0  0  0
  4  5  2  0  0  0  0
  4  2  1  0  0  0  0
  5  1  1  0  0  0  0
  6  4  1  0  0  0  0
  7  6  1  0  0  0  0
  8  7  1  0  0  0  0
  9  8  1  0  0  0  0
 10  9  1  0  0  0  0
 11 12  1  0  0  0  0
 12 10  1  0  0  0  0
 14 15  1  0  0  0  0
 14 13  1  0  0  0  0
 15 16  1  6  0  0  0
 17 18  1  0  0  0  0
 18 20  2  0  0  0  0
 18 15  1  0  0  0  0
 19 22  2  0  0  0  0
 19 17  1  0  0  0  0
 20 23  1  0  0  0  0
 21 17  2  0  0  0  0
 22 25  1  0  0  0  0
 25 24  1  1  0  0  0
 25 20  1  0  0  0  0
 27 26  1  0  0  0  0
 28 27  1  0  0  0  0
 30 29  1  0  0  0  0
 30 28  1  0  0  0  0
 31 30  2  0  0  0  0
 32 30  1  0  0  0  0
M  END
>  <MODEL>
6

>  <REMARK>
 VINA RESULT:      -5.7      2.338      4.593
  Name = 
  14 active torsions:
  status: ('A' for Active; 'I' for Inactive)
    1  A    between atoms: O_1  and  C_10
    2  A    between atoms: O_1  and  C_28
    3  A    between atoms: C_2  and  N_27
    4  A    between atoms: C_2  and  C_28
    5  A    between atoms: C_5  and  C_15
    6  A    between atoms: C_6  and  O_11
    7  A    between atoms: C_6  and  C_32
    8  A    between atoms: C_7  and  C_17
    9  A    between atoms: C_10  and  C_13
   10  A    between atoms: O_11  and  P_26
   11  A    between atoms: C_13  and  C_22
   12  A    between atoms: C_15  and  N_25
   13  A    between atoms: C_17  and  N_25
   14  A    between atoms: C_21  and  C_32
                            x       y       z     vdW  Elec       q    Type
                         _______ _______ _______ _____ _____    ______ ____

>  <TORSDO>
F 14

$$$$
=
 OpenBabel11042419313D

 32 33  0  0  1  0  0  0  0  0999 V2000
  189.3760  171.9190  143.6780 O   0  0  0  0  0  0  0  0  0  0  0  0
  189.8740  174.0270  143.3990 C   0  0  0  0  0  0  0  0  0  0  0  0
  189.1270  172.9700  142.9310 C   0  0  0  0  0  0  0  0  0  0  0  0
  190.5750  173.4970  144.4600 C   0  0  0  0  0  0  0  0  0  0  0  0
  190.2480  172.1970  144.6070 N   0  0  0  0  0  0  0  0  0  0  0  0
  191.5940  174.2000  145.2940 C   0  0  0  0  0  2  0  0  0  0  0  0
  190.9360  174.9180  146.4600 C   0  0  0  0  0  2  0  0  0  0  0  0
  191.9020  175.5670  147.2290 O   0  0  0  0  0  0  0  0  0  0  0  0
  192.9730  175.7660  146.3590 C   0  0  0  0  0  2  0  0  0  0  0  0
  193.8590  176.8830  146.8840 C   0  0  0  0  0  2  0  0  0  0  0  0
  194.9150  176.4260  144.8520 C   0  0  0  0  0  1  0  0  0  0  0  0
  194.5860  177.4950  145.7820 N   0  0  0  0  0  2  0  0  0  0  0  0
  189.9690  175.4050  142.8370 C   0  0  0  0  0  2  0  0  0  0  0  0
  188.7080  176.1020  143.0440 N   0  0  0  0  0  2  0  0  0  0  0  0
  188.7920  176.7350  144.3510 C   0  0  1  0  0  3  0  0  0  0  0  0
  189.7940  177.8780  144.3160 C   0  0  0  0  0  1  0  0  0  0  0  0
  186.6230  178.0230  143.8950 C   0  0  0  0  0  0  0  0  0  0  0  0
  187.4390  177.2080  144.8130 C   0  0  0  0  0  0  0  0  0  0  0  0
  185.2720  178.3410  144.2370 N   0  0  0  0  0  0  0  0  0  0  0  0
  186.9250  176.8600  146.0100 C   0  0  0  0  0  0  0  0  0  0  0  0
  187.0910  178.4070  142.7930 O   0  0  0  0  0  0  0  0  0  0  0  0
  184.7630  178.0210  145.3880 C   0  0  0  0  0  3  0  0  0  0  0  0
  187.6510  176.0450  146.8740 O   0  0  0  0  0  1  0  0  0  0  0  0
  185.7260  178.2910  147.6400 C   0  0  0  0  0  1  0  0  0  0  0  0
  185.5670  177.3440  146.4670 C   0  0  2  0  0  3  0  0  0  0  0  0
  188.1610  172.9910  141.7920 C   0  0  0  0  0  2  0  0  0  0  0  0
  188.8750  172.6550  140.4930 C   0  0  0  0  0  2  0  0  0  0  0  0
  187.9700  172.6780  139.4270 O   0  0  0  0  0  0  0  0  0  0  0  0
  190.3830  173.7900  138.6090 O   0  0  0  0  0  1  0  0  0  0  0  0
  188.8310  173.3220  138.1120 P   0  0  0  0  0  0  0  0  0  0  0  0
  188.9420  172.2940  137.0070 O   0  0  0  0  0  0  0  0  0  0  0  0
  188.0060  174.6770  137.5210 O   0  0  0  0  0  1  0  0  0  0  0  0
  1  5  1  0  0  0  0
  2  4  1  0  0  0  0
  3  2  2  0  0  0  0
  3  1  1  0  0  0  0
  4  5  2  0  0  0  0
  4  6  1  0  0  0  0
  6  7  1  0  0  0  0
  7  8  1  0  0  0  0
  9 10  1  0  0  0  0
  9  8  1  0  0  0  0
 11 12  1  0  0  0  0
 12 10  1  0  0  0  0
 13 14  1  0  0  0  0
 13  2  1  0  0  0  0
 14 15  1  0  0  0  0
 15 16  1  6  0  0  0
 15 18  1  0  0  0  0
 17 19  1  0  0  0  0
 17 18  1  0  0  0  0
 18 20  2  0  0  0  0
 19 22  2  0  0  0  0
 20 25  1  0  0  0  0
 20 23  1  0  0  0  0
 21 17  2  0  0  0  0
 22 25  1  0  0  0  0
 25 24  1  1  0  0  0
 26  3  1  0  0  0  0
 27 26  1  0  0  0  0
 28 27  1  0  0  0  0
 30 29  1  0  0  0  0
 30 28  1  0  0  0  0
 31 30  2  0  0  0  0
 32 30  1  0  0  0  0
M  END
>  <MODEL>
7

>  <REMARK>
 VINA RESULT:      -5.7      3.177      6.441
  Name = 
  14 active torsions:
  status: ('A' for Active; 'I' for Inactive)
    1  A    between atoms: O_1  and  C_10
    2  A    between atoms: O_1  and  C_28
    3  A    between atoms: C_2  and  N_27
    4  A    between atoms: C_2  and  C_28
    5  A    between atoms: C_5  and  C_15
    6  A    between atoms: C_6  and  O_11
    7  A    between atoms: C_6  and  C_32
    8  A    between atoms: C_7  and  C_17
    9  A    between atoms: C_10  and  C_13
   10  A    between atoms: O_11  and  P_26
   11  A    between atoms: C_13  and  C_22
   12  A    between atoms: C_15  and  N_25
   13  A    between atoms: C_17  and  N_25
   14  A    between atoms: C_21  and  C_32
                            x       y       z     vdW  Elec       q    Type
                         _______ _______ _______ _____ _____    ______ ____

>  <TORSDO>
F 14

$$$$
=
 OpenBabel11042419313D

 32 33  0  0  1  0  0  0  0  0999 V2000
  191.7180  172.5660  144.2430 O   0  0  0  0  0  0  0  0  0  0  0  0
  190.4800  173.9100  145.4390 C   0  0  0  0  0  0  0  0  0  0  0  0
  190.4870  172.7850  144.6450 C   0  0  0  0  0  0  0  0  0  0  0  0
  191.7950  174.3220  145.4460 C   0  0  0  0  0  0  0  0  0  0  0  0
  192.5330  173.4740  144.7000 N   0  0  0  0  0  0  0  0  0  0  0  0
  192.3410  175.5440  146.1080 C   0  0  0  0  0  2  0  0  0  0  0  0
  192.2640  176.7420  145.1780 C   0  0  0  0  0  2  0  0  0  0  0  0
  193.4460  176.8590  144.4480 O   0  0  0  0  0  0  0  0  0  0  0  0
  194.4600  176.6260  145.3760 C   0  0  0  0  0  2  0  0  0  0  0  0
  195.6200  175.9150  144.6990 C   0  0  0  0  0  2  0  0  0  0  0  0
  197.2020  176.6480  143.1460 C   0  0  0  0  0  1  0  0  0  0  0  0
  195.7800  176.4130  143.3420 N   0  0  0  0  0  2  0  0  0  0  0  0
  189.3080  174.5790  146.0730 C   0  0  0  0  0  2  0  0  0  0  0  0
  188.7340  175.5400  145.1420 N   0  0  0  0  0  2  0  0  0  0  0  0
  187.9490  176.4710  145.9370 C   0  0  1  0  0  3  0  0  0  0  0  0
  188.8680  177.3920  146.7230 C   0  0  0  0  0  1  0  0  0  0  0  0
  185.5980  177.3990  145.5060 C   0  0  0  0  0  0  0  0  0  0  0  0
  186.9990  177.2560  145.0710 C   0  0  0  0  0  0  0  0  0  0  0  0
  184.7190  178.2760  144.7980 N   0  0  0  0  0  0  0  0  0  0  0  0
  187.4000  177.8830  143.9460 C   0  0  0  0  0  0  0  0  0  0  0  0
  185.1780  176.7870  146.5210 O   0  0  0  0  0  0  0  0  0  0  0  0
  185.0860  178.8810  143.7090 C   0  0  0  0  0  3  0  0  0  0  0  0
  188.7310  177.8110  143.5420 O   0  0  0  0  0  1  0  0  0  0  0  0
  186.2630  177.9680  141.7460 C   0  0  0  0  0  1  0  0  0  0  0  0
  186.4380  178.6660  143.0810 C   0  0  2  0  0  3  0  0  0  0  0  0
  189.3190  171.9170  144.3120 C   0  0  0  0  0  2  0  0  0  0  0  0
  188.6470  172.4090  143.0410 C   0  0  0  0  0  2  0  0  0  0  0  0
  189.6010  172.6020  142.0360 O   0  0  0  0  0  0  0  0  0  0  0  0
  190.5120  175.2290  142.0260 O   0  0  0  0  0  1  0  0  0  0  0  0
  189.3250  174.1700  141.4410 P   0  0  0  0  0  0  0  0  0  0  0  0
  189.3520  174.1650  139.9280 O   0  0  0  0  0  0  0  0  0  0  0  0
  187.8040  174.6990  141.9620 O   0  0  0  0  0  1  0  0  0  0  0  0
  1  3  1  0  0  0  0
  1  5  1  0  0  0  0
  2  4  1  0  0  0  0
  2 13  1  0  0  0  0
  3  2  2  0  0  0  0
  4  6  1  0  0  0  0
  5  4  2  0  0  0  0
  7  6  1  0  0  0  0
  8  7  1  0  0  0  0
  8  9  1  0  0  0  0
 10  9  1  0  0  0  0
 11 12  1  0  0  0  0
 12 10  1  0  0  0  0
 14 15  1  0  0  0  0
 14 13  1  0  0  0  0
 15 16  1  6  0  0  0
 17 21  2  0  0  0  0
 18 17  1  0  0  0  0
 18 15  1  0  0  0  0
 19 17  1  0  0  0  0
 20 18  2  0  0  0  0
 22 19  2  0  0  0  0
 23 20  1  0  0  0  0
 25 24  1  6  0  0  0
 25 22  1  0  0  0  0
 25 20  1  0  0  0  0
 26  3  1  0  0  0  0
 27 26  1  0  0  0  0
 28 27  1  0  0  0  0
 30 32  1  0  0  0  0
 30 29  1  0  0  0  0
 30 28  1  0  0  0  0
 31 30  2  0  0  0  0
M  END
>  <MODEL>
8

>  <REMARK>
 VINA RESULT:      -5.6      2.637      6.234
  Name = 
  14 active torsions:
  status: ('A' for Active; 'I' for Inactive)
    1  A    between atoms: O_1  and  C_10
    2  A    between atoms: O_1  and  C_28
    3  A    between atoms: C_2  and  N_27
    4  A    between atoms: C_2  and  C_28
    5  A    between atoms: C_5  and  C_15
    6  A    between atoms: C_6  and  O_11
    7  A    between atoms: C_6  and  C_32
    8  A    between atoms: C_7  and  C_17
    9  A    between atoms: C_10  and  C_13
   10  A    between atoms: O_11  and  P_26
   11  A    between atoms: C_13  and  C_22
   12  A    between atoms: C_15  and  N_25
   13  A    between atoms: C_17  and  N_25
   14  A    between atoms: C_21  and  C_32
                            x       y       z     vdW  Elec       q    Type
                         _______ _______ _______ _____ _____    ______ ____

>  <TORSDO>
F 14

$$$$
=
 OpenBabel11042419313D

 32 33  0  0  1  0  0  0  0  0999 V2000
  192.0250  176.2380  146.6420 O   0  0  0  0  0  0  0  0  0  0  0  0
  190.6580  177.1330  145.1910 C   0  0  0  0  0  0  0  0  0  0  0  0
  191.9210  176.6180  145.3890 C   0  0  0  0  0  0  0  0  0  0  0  0
  190.0590  177.0290  146.4270 C   0  0  0  0  0  0  0  0  0  0  0  0
  190.9250  176.4750  147.3000 N   0  0  0  0  0  0  0  0  0  0  0  0
  188.6920  177.5060  146.7960 C   0  0  0  0  0  2  0  0  0  0  0  0
  187.7210  176.3430  146.8890 C   0  0  0  0  0  2  0  0  0  0  0  0
  186.4800  176.7910  147.3430 O   0  0  0  0  0  0  0  0  0  0  0  0
  186.1290  177.8130  146.4630 C   0  0  0  0  0  2  0  0  0  0  0  0
  184.7960  178.4120  146.8800 C   0  0  0  0  0  2  0  0  0  0  0  0
  184.8190  178.3780  144.5450 C   0  0  0  0  0  1  0  0  0  0  0  0
  184.0260  178.7720  145.6990 N   0  0  0  0  0  2  0  0  0  0  0  0
  190.0990  177.7410  143.9500 C   0  0  0  0  0  2  0  0  0  0  0  0
  189.9070  176.7060  142.9450 N   0  0  0  0  0  2  0  0  0  0  0  0
  188.9610  175.7540  143.5050 C   0  0  1  0  0  3  0  0  0  0  0  0
  187.5400  176.1500  143.1370 C   0  0  0  0  0  1  0  0  0  0  0  0
  189.6900  173.3590  144.0600 C   0  0  0  0  0  0  0  0  0  0  0  0
  189.2710  174.3510  143.0530 C   0  0  0  0  0  0  0  0  0  0  0  0
  189.8260  171.9850  143.6920 N   0  0  0  0  0  0  0  0  0  0  0  0
  189.1200  173.9570  141.7730 C   0  0  0  0  0  0  0  0  0  0  0  0
  189.8900  173.7040  145.2530 O   0  0  0  0  0  0  0  0  0  0  0  0
  189.6910  171.5890  142.4620 C   0  0  0  0  0  3  0  0  0  0  0  0
  188.6720  174.8580  140.8110 O   0  0  0  0  0  1  0  0  0  0  0  0
  190.6430  172.5580  140.4060 C   0  0  0  0  0  1  0  0  0  0  0  0
  189.4380  172.5470  141.3280 C   0  0  2  0  0  3  0  0  0  0  0  0
  192.9970  176.4680  144.3650 C   0  0  0  0  0  2  0  0  0  0  0  0
  194.3530  176.7640  144.9840 C   0  0  0  0  0  2  0  0  0  0  0  0
  195.0400  175.5700  145.2310 O   0  0  0  0  0  0  0  0  0  0  0  0
  195.4610  174.5960  142.6610 O   0  0  0  0  0  0  0  0  0  0  0  0
  196.1630  175.4210  143.9640 P   0  0  0  0  0  0  0  0  0  0  0  0
  196.6210  176.7900  143.5100 O   0  0  0  0  0  1  0  0  0  0  0  0
  197.5050  174.5480  144.5150 O   0  0  0  0  0  1  0  0  0  0  0  0
  1  5  1  0  0  0  0
  2  3  2  0  0  0  0
  2  4  1  0  0  0  0
  3  1  1  0  0  0  0
  4  6  1  0  0  0  0
  4  5  2  0  0  0  0
  6  7  1  0  0  0  0
  7  8  1  0  0  0  0
  9 10  1  0  0  0  0
  9  8  1  0  0  0  0
 11 12  1  0  0  0  0
 12 10  1  0  0  0  0
 13  2  1  0  0  0  0
 14 15  1  0  0  0  0
 14 13  1  0  0  0  0
 15 16  1  6  0  0  0
 17 21  2  0  0  0  0
 18 15  1  0  0  0  0
 18 17  1  0  0  0  0
 19 17  1  0  0  0  0
 20 18  2  0  0  0  0
 22 19  2  0  0  0  0
 23 20  1  0  0  0  0
 25 24  1  6  0  0  0
 25 20  1  0  0  0  0
 25 22  1  0  0  0  0
 26 27  1  0  0  0  0
 26  3  1  0  0  0  0
 27 28  1  0  0  0  0
 29 30  2  0  0  0  0
 30 32  1  0  0  0  0
 30 28  1  0  0  0  0
 31 30  1  0  0  0  0
M  END
>  <MODEL>
9

>  <REMARK>
 VINA RESULT:      -5.6      1.712      2.956
  Name = 
  14 active torsions:
  status: ('A' for Active; 'I' for Inactive)
    1  A    between atoms: O_1  and  C_10
    2  A    between atoms: O_1  and  C_28
    3  A    between atoms: C_2  and  N_27
    4  A    between atoms: C_2  and  C_28
    5  A    between atoms: C_5  and  C_15
    6  A    between atoms: C_6  and  O_11
    7  A    between atoms: C_6  and  C_32
    8  A    between atoms: C_7  and  C_17
    9  A    between atoms: C_10  and  C_13
   10  A    between atoms: O_11  and  P_26
   11  A    between atoms: C_13  and  C_22
   12  A    between atoms: C_15  and  N_25
   13  A    between atoms: C_17  and  N_25
   14  A    between atoms: C_21  and  C_32
                            x       y       z     vdW  Elec       q    Type
                         _______ _______ _______ _____ _____    ______ ____

>  <TORSDO>
F 14

$$$$
