=
 OpenBabel11042418363D

 37 41  0  0  1  0  0  0  0  0999 V2000
  185.6520  177.4790  143.5050 C   0  0  0  0  0  0  0  0  0  0  0  0
  186.5900  176.9590  144.4120 C   0  0  0  0  0  0  0  0  0  0  0  0
  183.7290  178.6170  142.6960 N   0  0  0  0  0  0  0  0  0  0  0  0
  188.6140  175.7450  145.9270 C   0  0  0  0  0  0  0  0  0  0  0  0
  187.3440  176.2120  142.1090 S   0  0  0  0  0  0  0  0  0  0  0  0
  184.5060  178.2420  143.7530 C   0  0  0  0  0  0  0  0  0  0  0  0
  185.9440  177.1420  142.1950 C   0  0  0  0  0  0  0  0  0  0  0  0
  187.5840  176.4840  146.5490 C   0  0  0  0  0  3  0  0  0  0  0  0
  184.1390  178.6320  145.0730 N   0  0  0  0  0  1  0  0  0  0  0  0
  184.0400  178.2580  141.4150 C   0  0  0  0  0  0  0  0  0  0  0  0
  188.6330  175.6100  144.5170 C   0  0  0  0  0  0  0  0  0  0  0  0
  185.1530  177.5130  141.1620 N   0  0  0  0  0  2  0  0  0  0  0  0
  186.5740  177.0960  145.7990 C   0  0  0  0  0  3  0  0  0  0  0  0
  183.2930  178.6120  140.4690 O   0  0  0  0  0  0  0  0  0  0  0  0
  187.6030  176.2270  143.7860 C   0  0  0  0  0  0  0  0  0  0  0  0
  191.0050  175.4950  143.9360 N   0  0  0  0  0  2  0  0  0  0  0  0
  191.6610  173.2750  144.5610 C   0  0  1  0  0  3  0  0  0  0  0  0
  192.0160  174.4770  143.7160 C   0  0  0  0  0  2  0  0  0  0  0  0
  189.7250  174.8110  143.8530 C   0  0  1  0  0  3  0  0  0  0  0  0
  189.8590  173.1350  144.5530 S   0  0  0  0  0  0  0  0  0  0  0  0
  192.2510  172.0810  143.9820 N   0  0  0  0  0  2  0  0  0  0  0  0
  194.0200  172.7520  145.8250 O   0  0  0  0  0  0  0  0  0  0  0  0
  194.8710  172.3630  143.5660 O   0  0  0  0  0  0  0  0  0  0  0  0
  193.8670  171.9090  144.5910 S   0  0  0  0  0  0  0  0  0  0  0  0
  194.1880  170.1900  145.0240 C   0  0  0  0  0  2  0  0  0  0  0  0
  195.2270  170.0000  146.0460 N   0  0  0  0  0  0  0  0  0  0  0  0
  196.3040  168.2220  147.6960 S   0  0  0  0  0  0  0  0  0  0  0  0
  196.4250  169.6030  145.4280 N   0  0  0  0  0  2  0  0  0  0  0  0
  194.8200  168.9450  146.9630 C   0  0  0  0  0  2  0  0  0  0  0  0
  197.3020  169.1100  146.4760 C   0  0  0  0  0  2  0  0  0  0  0  0
  189.0430  174.3640  147.8120 O   0  0  0  0  0  1  0  0  0  0  0  0
  189.6540  175.0650  146.7680 C   0  0  2  0  0  3  0  0  0  0  0  0
  190.6700  176.0550  147.3200 C   0  0  0  0  0  2  0  0  0  0  0  0
  193.0700  175.9800  147.0000 C   0  0  0  0  0  0  0  0  0  0  0  0
  194.1420  176.5640  146.5450 C   0  0  0  0  0  3  0  0  0  0  0  0
  194.1840  177.0530  145.1430 C   0  0  0  0  0  1  0  0  0  0  0  0
  191.9990  175.3980  147.4630 C   0  0  0  0  0  3  0  0  0  0  0  0
  1  6  1  0  0  0  0
  1  2  1  0  0  0  0
  2 13  1  0  0  0  0
  3  6  2  0  0  0  0
  4  8  1  0  0  0  0
  4 32  1  0  0  0  0
  5  7  1  0  0  0  0
  5 15  1  0  0  0  0
  6  9  1  0  0  0  0
  7  1  2  0  0  0  0
 10  3  1  0  0  0  0
 11  4  2  0  0  0  0
 12 10  1  0  0  0  0
 12  7  1  0  0  0  0
 13  8  2  0  0  0  0
 14 10  2  0  0  0  0
 15  2  2  0  0  0  0
 15 11  1  0  0  0  0
 17 21  1  6  0  0  0
 18 16  1  0  0  0  0
 18 17  1  0  0  0  0
 19 16  1  0  0  0  0
 19 11  1  1  0  0  0
 19 20  1  0  0  0  0
 20 17  1  0  0  0  0
 21 24  1  0  0  0  0
 23 24  2  0  0  0  0
 24 25  1  0  0  0  0
 24 22  2  0  0  0  0
 25 26  1  0  0  0  0
 26 29  1  0  0  0  0
 28 26  1  0  0  0  0
 28 30  1  0  0  0  0
 29 27  1  0  0  0  0
 30 27  1  0  0  0  0
 32 33  1  0  0  0  0
 32 31  1  1  0  0  0
 33 37  1  0  0  0  0
 34 37  2  0  0  0  0
 35 34  2  0  0  0  0
 36 35  1  0  0  0  0
M  END
>  <MODEL>
1

>  <REMARK>
 VINA RESULT:      -8.2      0.000      0.000
  Name = 
  8 active torsions:
  status: ('A' for Active; 'I' for Inactive)
    1  A    between atoms: C_6  and  C_31
    2  A    between atoms: C_6  and  C_34
    3  A    between atoms: C_7  and  N_21
    4  A    between atoms: C_9  and  C_31
    5  A    between atoms: N_11  and  C_27
    6  A    between atoms: C_20  and  C_25
    7  A    between atoms: N_21  and  S_36
    8  A    between atoms: C_27  and  S_36
                            x       y       z     vdW  Elec       q    Type
                         _______ _______ _______ _____ _____    ______ ____

>  <TORSDO>
F 8

$$$$
=
 OpenBabel11042418363D

 37 41  0  0  1  0  0  0  0  0999 V2000
  185.5840  177.5100  143.4790 C   0  0  0  0  0  0  0  0  0  0  0  0
  186.5470  176.9980  144.3620 C   0  0  0  0  0  0  0  0  0  0  0  0
  183.6220  178.6150  142.7190 N   0  0  0  0  0  0  0  0  0  0  0  0
  188.6230  175.8080  145.8250 C   0  0  0  0  0  0  0  0  0  0  0  0
  187.2820  176.3060  142.0350 S   0  0  0  0  0  0  0  0  0  0  0  0
  184.4240  178.2420  143.7560 C   0  0  0  0  0  0  0  0  0  0  0  0
  185.8620  177.2010  142.1590 C   0  0  0  0  0  0  0  0  0  0  0  0
  187.5860  176.5120  146.4760 C   0  0  0  0  0  3  0  0  0  0  0  0
  184.0690  178.6020  145.0880 N   0  0  0  0  0  1  0  0  0  0  0  0
  183.9210  178.2850  141.4270 C   0  0  0  0  0  0  0  0  0  0  0  0
  188.6230  175.6960  144.4130 C   0  0  0  0  0  0  0  0  0  0  0  0
  185.0470  177.5700  141.1440 N   0  0  0  0  0  2  0  0  0  0  0  0
  186.5510  177.1120  145.7510 C   0  0  0  0  0  3  0  0  0  0  0  0
  183.1510  178.6360  140.4990 O   0  0  0  0  0  0  0  0  0  0  0  0
  187.5670  176.3000  143.7080 C   0  0  0  0  0  0  0  0  0  0  0  0
  190.9900  175.6390  143.8070 N   0  0  0  0  0  2  0  0  0  0  0  0
  191.6920  173.4160  144.3710 C   0  0  1  0  0  3  0  0  0  0  0  0
  192.0170  174.6460  143.5520 C   0  0  0  0  0  2  0  0  0  0  0  0
  189.7220  174.9330  143.7190 C   0  0  1  0  0  3  0  0  0  0  0  0
  189.8940  173.2430  144.3770 S   0  0  0  0  0  0  0  0  0  0  0  0
  192.2980  172.2480  143.7570 N   0  0  0  0  0  2  0  0  0  0  0  0
  193.9060  170.4640  144.8570 O   0  0  0  0  0  0  0  0  0  0  0  0
  193.9150  172.7080  145.8280 O   0  0  0  0  0  0  0  0  0  0  0  0
  193.8120  171.9300  144.5440 S   0  0  0  0  0  0  0  0  0  0  0  0
  195.1810  172.3780  143.4610 C   0  0  0  0  0  2  0  0  0  0  0  0
  195.4650  173.8180  143.3970 N   0  0  0  0  0  0  0  0  0  0  0  0
  197.4080  175.6050  143.1190 S   0  0  0  0  0  0  0  0  0  0  0  0
  195.3750  174.2550  142.0650 N   0  0  0  0  0  2  0  0  0  0  0  0
  196.8200  174.0680  143.8650 C   0  0  0  0  0  2  0  0  0  0  0  0
  195.9820  175.5740  142.0060 C   0  0  0  0  0  2  0  0  0  0  0  0
  189.1160  174.4360  147.7010 O   0  0  0  0  0  1  0  0  0  0  0  0
  189.6910  175.1380  146.6390 C   0  0  2  0  0  3  0  0  0  0  0  0
  190.7140  176.1390  147.1590 C   0  0  0  0  0  2  0  0  0  0  0  0
  193.1230  175.9980  146.9440 C   0  0  0  0  0  0  0  0  0  0  0  0
  194.2250  176.5360  146.5070 C   0  0  0  0  0  3  0  0  0  0  0  0
  194.3360  176.9560  145.0850 C   0  0  0  0  0  1  0  0  0  0  0  0
  192.0210  175.4620  147.3890 C   0  0  0  0  0  3  0  0  0  0  0  0
  1  6  1  0  0  0  0
  1  2  1  0  0  0  0
  2 13  1  0  0  0  0
  3  6  2  0  0  0  0
  4  8  1  0  0  0  0
  4 32  1  0  0  0  0
  5  7  1  0  0  0  0
  5 15  1  0  0  0  0
  6  9  1  0  0  0  0
  7  1  2  0  0  0  0
 10  3  1  0  0  0  0
 11  4  2  0  0  0  0
 12 10  1  0  0  0  0
 12  7  1  0  0  0  0
 13  8  2  0  0  0  0
 14 10  2  0  0  0  0
 15  2  2  0  0  0  0
 15 11  1  0  0  0  0
 17 21  1  6  0  0  0
 17 20  1  0  0  0  0
 18 16  1  0  0  0  0
 18 17  1  0  0  0  0
 19 16  1  0  0  0  0
 19 20  1  0  0  0  0
 19 11  1  1  0  0  0
 21 24  1  0  0  0  0
 24 22  2  0  0  0  0
 24 23  2  0  0  0  0
 25 24  1  0  0  0  0
 26 25  1  0  0  0  0
 26 29  1  0  0  0  0
 27 29  1  0  0  0  0
 28 26  1  0  0  0  0
 30 28  1  0  0  0  0
 30 27  1  0  0  0  0
 32 33  1  0  0  0  0
 32 31  1  1  0  0  0
 33 37  1  0  0  0  0
 34 37  2  0  0  0  0
 35 34  2  0  0  0  0
 36 35  1  0  0  0  0
M  END
>  <MODEL>
2

>  <REMARK>
 VINA RESULT:      -8.2      1.910      2.635
  Name = 
  8 active torsions:
  status: ('A' for Active; 'I' for Inactive)
    1  A    between atoms: C_6  and  C_31
    2  A    between atoms: C_6  and  C_34
    3  A    between atoms: C_7  and  N_21
    4  A    between atoms: C_9  and  C_31
    5  A    between atoms: N_11  and  C_27
    6  A    between atoms: C_20  and  C_25
    7  A    between atoms: N_21  and  S_36
    8  A    between atoms: C_27  and  S_36
                            x       y       z     vdW  Elec       q    Type
                         _______ _______ _______ _____ _____    ______ ____

>  <TORSDO>
F 8

$$$$
=
 OpenBabel11042418363D

 37 41  0  0  1  0  0  0  0  0999 V2000
  185.8840  177.4540  143.3300 C   0  0  0  0  0  0  0  0  0  0  0  0
  186.7540  176.9200  144.2940 C   0  0  0  0  0  0  0  0  0  0  0  0
  184.0200  178.6000  142.4020 N   0  0  0  0  0  0  0  0  0  0  0  0
  188.6660  175.6840  145.9320 C   0  0  0  0  0  0  0  0  0  0  0  0
  187.6840  176.2250  142.0390 S   0  0  0  0  0  0  0  0  0  0  0  0
  184.7180  178.2070  143.5060 C   0  0  0  0  0  0  0  0  0  0  0  0
  186.2750  177.1460  142.0390 C   0  0  0  0  0  0  0  0  0  0  0  0
  187.5880  176.4050  146.4900 C   0  0  0  0  0  3  0  0  0  0  0  0
  184.2510  178.5680  144.8030 N   0  0  0  0  0  1  0  0  0  0  0  0
  184.4290  178.2700  141.1410 C   0  0  0  0  0  0  0  0  0  0  0  0
  188.7920  175.5780  144.5250 C   0  0  0  0  0  0  0  0  0  0  0  0
  185.5620  177.5350  140.9570 N   0  0  0  0  0  2  0  0  0  0  0  0
  186.6340  177.0280  145.6780 C   0  0  0  0  0  3  0  0  0  0  0  0
  183.7530  178.6400  140.1490 O   0  0  0  0  0  0  0  0  0  0  0  0
  187.8160  176.2050  143.7310 C   0  0  0  0  0  0  0  0  0  0  0  0
  189.4580  173.6180  143.2240 N   0  0  0  0  0  2  0  0  0  0  0  0
  191.0220  174.4760  141.6210 C   0  0  1  0  0  3  0  0  0  0  0  0
  190.5290  173.2310  142.3240 C   0  0  0  0  0  2  0  0  0  0  0  0
  189.9350  174.7980  143.9280 C   0  0  1  0  0  3  0  0  0  0  0  0
  190.9510  175.8250  142.8200 S   0  0  0  0  0  0  0  0  0  0  0  0
  192.3920  174.2770  141.1820 N   0  0  0  0  0  2  0  0  0  0  0  0
  190.9630  173.6920  139.0380 O   0  0  0  0  0  0  0  0  0  0  0  0
  192.8580  172.2280  139.5380 O   0  0  0  0  0  0  0  0  0  0  0  0
  192.3710  173.6520  139.5630 S   0  0  0  0  0  0  0  0  0  0  0  0
  193.4130  174.6610  138.4940 C   0  0  0  0  0  2  0  0  0  0  0  0
  194.8560  174.4250  138.6470 N   0  0  0  0  0  0  0  0  0  0  0  0
  197.2500  175.1860  137.7920 S   0  0  0  0  0  0  0  0  0  0  0  0
  195.3610  175.2590  139.6600 N   0  0  0  0  0  2  0  0  0  0  0  0
  195.5380  174.7580  137.4060 C   0  0  0  0  0  2  0  0  0  0  0  0
  196.8090  175.2400  139.5450 C   0  0  0  0  0  2  0  0  0  0  0  0
  188.9620  174.3220  147.8560 O   0  0  0  0  0  1  0  0  0  0  0  0
  189.6440  174.9900  146.8350 C   0  0  2  0  0  3  0  0  0  0  0  0
  190.6560  175.9630  147.4230 C   0  0  0  0  0  2  0  0  0  0  0  0
  193.0210  175.8650  146.9070 C   0  0  0  0  0  0  0  0  0  0  0  0
  194.0450  176.4140  146.3190 C   0  0  0  0  0  3  0  0  0  0  0  0
  193.9650  176.7950  144.8840 C   0  0  0  0  0  1  0  0  0  0  0  0
  191.9980  175.3200  147.5020 C   0  0  0  0  0  3  0  0  0  0  0  0
  1  6  1  0  0  0  0
  1  2  1  0  0  0  0
  2 13  1  0  0  0  0
  3  6  2  0  0  0  0
  4  8  1  0  0  0  0
  4 32  1  0  0  0  0
  5 15  1  0  0  0  0
  6  9  1  0  0  0  0
  7  5  1  0  0  0  0
  7  1  2  0  0  0  0
 10  3  1  0  0  0  0
 11  4  2  0  0  0  0
 12 10  1  0  0  0  0
 12  7  1  0  0  0  0
 13  8  2  0  0  0  0
 14 10  2  0  0  0  0
 15  2  2  0  0  0  0
 15 11  1  0  0  0  0
 16 19  1  0  0  0  0
 17 21  1  1  0  0  0
 17 18  1  0  0  0  0
 17 20  1  0  0  0  0
 18 16  1  0  0  0  0
 19 11  1  6  0  0  0
 20 19  1  0  0  0  0
 22 24  2  0  0  0  0
 23 24  2  0  0  0  0
 24 21  1  0  0  0  0
 25 26  1  0  0  0  0
 25 24  1  0  0  0  0
 26 28  1  0  0  0  0
 27 30  1  0  0  0  0
 29 27  1  0  0  0  0
 29 26  1  0  0  0  0
 30 28  1  0  0  0  0
 32 33  1  0  0  0  0
 32 31  1  1  0  0  0
 33 37  1  0  0  0  0
 34 37  2  0  0  0  0
 35 34  2  0  0  0  0
 36 35  1  0  0  0  0
M  END
>  <MODEL>
3

>  <REMARK>
 VINA RESULT:      -7.9      3.600      4.408
  Name = 
  8 active torsions:
  status: ('A' for Active; 'I' for Inactive)
    1  A    between atoms: C_6  and  C_31
    2  A    between atoms: C_6  and  C_34
    3  A    between atoms: C_7  and  N_21
    4  A    between atoms: C_9  and  C_31
    5  A    between atoms: N_11  and  C_27
    6  A    between atoms: C_20  and  C_25
    7  A    between atoms: N_21  and  S_36
    8  A    between atoms: C_27  and  S_36
                            x       y       z     vdW  Elec       q    Type
                         _______ _______ _______ _____ _____    ______ ____

>  <TORSDO>
F 8

$$$$
=
 OpenBabel11042418363D

 37 41  0  0  1  0  0  0  0  0999 V2000
  185.8550  177.4140  143.3820 C   0  0  0  0  0  0  0  0  0  0  0  0
  186.7270  176.8750  144.3420 C   0  0  0  0  0  0  0  0  0  0  0  0
  183.9860  178.5600  142.4650 N   0  0  0  0  0  0  0  0  0  0  0  0
  188.6440  175.6340  145.9680 C   0  0  0  0  0  0  0  0  0  0  0  0
  187.6590  176.2030  142.0810 S   0  0  0  0  0  0  0  0  0  0  0  0
  184.6850  178.1600  143.5650 C   0  0  0  0  0  0  0  0  0  0  0  0
  186.2470  177.1180  142.0890 C   0  0  0  0  0  0  0  0  0  0  0  0
  187.5640  176.3450  146.5330 C   0  0  0  0  0  3  0  0  0  0  0  0
  184.2170  178.5080  144.8650 N   0  0  0  0  0  1  0  0  0  0  0  0
  184.3960  178.2420  141.2010 C   0  0  0  0  0  0  0  0  0  0  0  0
  188.7700  175.5400  144.5610 C   0  0  0  0  0  0  0  0  0  0  0  0
  185.5320  177.5140  141.0100 N   0  0  0  0  0  2  0  0  0  0  0  0
  186.6060  176.9710  145.7270 C   0  0  0  0  0  3  0  0  0  0  0  0
  183.7180  178.6170  140.2120 O   0  0  0  0  0  0  0  0  0  0  0  0
  187.7920  176.1700  143.7720 C   0  0  0  0  0  0  0  0  0  0  0  0
  189.4480  173.5720  143.2780 N   0  0  0  0  0  2  0  0  0  0  0  0
  190.9720  174.4310  141.6380 C   0  0  1  0  0  3  0  0  0  0  0  0
  190.5110  173.1890  142.3670 C   0  0  0  0  0  2  0  0  0  0  0  0
  189.9170  174.7700  143.9570 C   0  0  1  0  0  3  0  0  0  0  0  0
  190.8980  175.7980  142.8180 S   0  0  0  0  0  0  0  0  0  0  0  0
  192.3390  174.2490  141.1800 N   0  0  0  0  0  2  0  0  0  0  0  0
  192.6390  171.9870  139.8480 O   0  0  0  0  0  0  0  0  0  0  0  0
  193.3140  174.0410  138.7050 O   0  0  0  0  0  0  0  0  0  0  0  0
  192.3050  173.4380  139.6460 S   0  0  0  0  0  0  0  0  0  0  0  0
  190.6610  173.5560  138.9170 C   0  0  0  0  0  2  0  0  0  0  0  0
  190.6340  173.4630  137.4510 N   0  0  0  0  0  0  0  0  0  0  0  0
  189.6900  172.0470  135.4140 S   0  0  0  0  0  0  0  0  0  0  0  0
  189.5510  174.2090  136.9550 N   0  0  0  0  0  2  0  0  0  0  0  0
  190.4470  172.0760  137.0540 C   0  0  0  0  0  2  0  0  0  0  0  0
  189.3660  173.8200  135.5670 C   0  0  0  0  0  2  0  0  0  0  0  0
  188.9540  174.3320  147.9320 O   0  0  0  0  0  1  0  0  0  0  0  0
  189.6250  174.9370  146.8650 C   0  0  2  0  0  3  0  0  0  0  0  0
  190.6920  175.8910  147.3840 C   0  0  0  0  0  2  0  0  0  0  0  0
  193.0640  175.8350  146.8960 C   0  0  0  0  0  0  0  0  0  0  0  0
  194.1070  176.4500  146.4170 C   0  0  0  0  0  3  0  0  0  0  0  0
  194.0580  177.0500  145.0580 C   0  0  0  0  0  1  0  0  0  0  0  0
  192.0220  175.2210  147.3840 C   0  0  0  0  0  3  0  0  0  0  0  0
  1  6  1  0  0  0  0
  1  2  1  0  0  0  0
  2 13  1  0  0  0  0
  3  6  2  0  0  0  0
  4  8  1  0  0  0  0
  4 32  1  0  0  0  0
  5  7  1  0  0  0  0
  5 15  1  0  0  0  0
  6  9  1  0  0  0  0
  7  1  2  0  0  0  0
 10  3  1  0  0  0  0
 11  4  2  0  0  0  0
 12 10  1  0  0  0  0
 12  7  1  0  0  0  0
 13  8  2  0  0  0  0
 14 10  2  0  0  0  0
 15  2  2  0  0  0  0
 15 11  1  0  0  0  0
 16 19  1  0  0  0  0
 17 21  1  1  0  0  0
 17 18  1  0  0  0  0
 17 20  1  0  0  0  0
 18 16  1  0  0  0  0
 19 11  1  6  0  0  0
 20 19  1  0  0  0  0
 23 24  2  0  0  0  0
 24 22  2  0  0  0  0
 24 21  1  0  0  0  0
 25 24  1  0  0  0  0
 26 25  1  0  0  0  0
 27 30  1  0  0  0  0
 27 29  1  0  0  0  0
 28 26  1  0  0  0  0
 29 26  1  0  0  0  0
 30 28  1  0  0  0  0
 32 33  1  0  0  0  0
 32 31  1  1  0  0  0
 33 37  1  0  0  0  0
 34 37  2  0  0  0  0
 35 34  2  0  0  0  0
 36 35  1  0  0  0  0
M  END
>  <MODEL>
4

>  <REMARK>
 VINA RESULT:      -7.9      3.577      5.181
  Name = 
  8 active torsions:
  status: ('A' for Active; 'I' for Inactive)
    1  A    between atoms: C_6  and  C_31
    2  A    between atoms: C_6  and  C_34
    3  A    between atoms: C_7  and  N_21
    4  A    between atoms: C_9  and  C_31
    5  A    between atoms: N_11  and  C_27
    6  A    between atoms: C_20  and  C_25
    7  A    between atoms: N_21  and  S_36
    8  A    between atoms: C_27  and  S_36
                            x       y       z     vdW  Elec       q    Type
                         _______ _______ _______ _____ _____    ______ ____

>  <TORSDO>
F 8

$$$$
=
 OpenBabel11042418363D

 37 41  0  0  1  0  0  0  0  0999 V2000
  185.6180  177.6840  143.5390 C   0  0  0  0  0  0  0  0  0  0  0  0
  186.5920  177.2360  144.4460 C   0  0  0  0  0  0  0  0  0  0  0  0
  183.6710  178.7710  142.7170 N   0  0  0  0  0  0  0  0  0  0  0  0
  188.6710  176.1370  145.9720 C   0  0  0  0  0  0  0  0  0  0  0  0
  187.2280  176.2690  142.1900 S   0  0  0  0  0  0  0  0  0  0  0  0
  184.4930  178.4830  143.7670 C   0  0  0  0  0  0  0  0  0  0  0  0
  185.8440  177.2230  142.2540 C   0  0  0  0  0  0  0  0  0  0  0  0
  187.6800  176.9460  146.5700 C   0  0  0  0  0  3  0  0  0  0  0  0
  184.1930  179.0000  145.0600 N   0  0  0  0  0  1  0  0  0  0  0  0
  183.9180  178.2910  141.4620 C   0  0  0  0  0  0  0  0  0  0  0  0
  188.6230  175.8720  144.5820 C   0  0  0  0  0  0  0  0  0  0  0  0
  185.0090  177.5090  141.2280 N   0  0  0  0  0  2  0  0  0  0  0  0
  186.6430  177.5010  145.8130 C   0  0  0  0  0  3  0  0  0  0  0  0
  183.1310  178.5670  140.5220 O   0  0  0  0  0  0  0  0  0  0  0  0
  187.5660  176.4340  143.8440 C   0  0  0  0  0  0  0  0  0  0  0  0
  189.0880  173.7880  143.3910 N   0  0  0  0  0  2  0  0  0  0  0  0
  190.5140  174.4480  141.5790 C   0  0  1  0  0  3  0  0  0  0  0  0
  190.0510  173.2850  142.4280 C   0  0  0  0  0  2  0  0  0  0  0  0
  189.6730  174.9990  143.9450 C   0  0  1  0  0  3  0  0  0  0  0  0
  190.6090  175.8910  142.6620 S   0  0  0  0  0  0  0  0  0  0  0  0
  191.8260  174.1570  141.0280 N   0  0  0  0  0  2  0  0  0  0  0  0
  192.6480  174.0000  138.5220 O   0  0  0  0  0  0  0  0  0  0  0  0
  190.2500  173.7270  138.9190 O   0  0  0  0  0  0  0  0  0  0  0  0
  191.6220  173.4340  139.4630 S   0  0  0  0  0  0  0  0  0  0  0  0
  191.8570  171.6510  139.5680 C   0  0  0  0  0  2  0  0  0  0  0  0
  191.2110  170.8840  138.4930 N   0  0  0  0  0  0  0  0  0  0  0  0
  191.5370  168.8440  136.8270 S   0  0  0  0  0  0  0  0  0  0  0  0
  190.4670  169.8310  139.0510 N   0  0  0  0  0  2  0  0  0  0  0  0
  192.2280  170.3100  137.6260 C   0  0  0  0  0  2  0  0  0  0  0  0
  190.1350  168.9220  137.9670 C   0  0  0  0  0  2  0  0  0  0  0  0
  189.1900  174.5430  147.6560 O   0  0  0  0  0  1  0  0  0  0  0  0
  189.7430  175.5220  146.8250 C   0  0  2  0  0  3  0  0  0  0  0  0
  190.4750  176.5680  147.6530 C   0  0  0  0  0  2  0  0  0  0  0  0
  192.5380  175.5550  146.8860 C   0  0  0  0  0  0  0  0  0  0  0  0
  193.1810  174.9510  145.9280 C   0  0  0  0  0  3  0  0  0  0  0  0
  192.5990  173.7430  145.2870 C   0  0  0  0  0  1  0  0  0  0  0  0
  191.8980  176.1670  147.8420 C   0  0  0  0  0  3  0  0  0  0  0  0
  1  6  1  0  0  0  0
  1  2  1  0  0  0  0
  2 13  1  0  0  0  0
  3  6  2  0  0  0  0
  4  8  1  0  0  0  0
  4 32  1  0  0  0  0
  5  7  1  0  0  0  0
  5 15  1  0  0  0  0
  6  9  1  0  0  0  0
  7  1  2  0  0  0  0
 10  3  1  0  0  0  0
 11  4  2  0  0  0  0
 12 10  1  0  0  0  0
 12  7  1  0  0  0  0
 13  8  2  0  0  0  0
 14 10  2  0  0  0  0
 15  2  2  0  0  0  0
 15 11  1  0  0  0  0
 16 19  1  0  0  0  0
 17 21  1  1  0  0  0
 17 18  1  0  0  0  0
 17 20  1  0  0  0  0
 18 16  1  0  0  0  0
 19 11  1  6  0  0  0
 20 19  1  0  0  0  0
 22 24  2  0  0  0  0
 23 24  2  0  0  0  0
 24 25  1  0  0  0  0
 24 21  1  0  0  0  0
 26 28  1  0  0  0  0
 26 25  1  0  0  0  0
 27 29  1  0  0  0  0
 27 30  1  0  0  0  0
 29 26  1  0  0  0  0
 30 28  1  0  0  0  0
 32 33  1  0  0  0  0
 32 31  1  1  0  0  0
 33 37  1  0  0  0  0
 34 37  2  0  0  0  0
 35 34  2  0  0  0  0
 36 35  1  0  0  0  0
M  END
>  <MODEL>
5

>  <REMARK>
 VINA RESULT:      -7.7      3.547      4.516
  Name = 
  8 active torsions:
  status: ('A' for Active; 'I' for Inactive)
    1  A    between atoms: C_6  and  C_31
    2  A    between atoms: C_6  and  C_34
    3  A    between atoms: C_7  and  N_21
    4  A    between atoms: C_9  and  C_31
    5  A    between atoms: N_11  and  C_27
    6  A    between atoms: C_20  and  C_25
    7  A    between atoms: N_21  and  S_36
    8  A    between atoms: C_27  and  S_36
                            x       y       z     vdW  Elec       q    Type
                         _______ _______ _______ _____ _____    ______ ____

>  <TORSDO>
F 8

$$$$
=
 OpenBabel11042418363D

 37 41  0  0  1  0  0  0  0  0999 V2000
  186.6460  177.5870  144.5710 C   0  0  0  0  0  0  0  0  0  0  0  0
  187.8460  177.1770  145.1760 C   0  0  0  0  0  0  0  0  0  0  0  0
  184.5810  178.7220  144.2620 N   0  0  0  0  0  0  0  0  0  0  0  0
  190.2670  176.1100  146.1030 C   0  0  0  0  0  0  0  0  0  0  0  0
  187.6680  175.8780  143.0050 S   0  0  0  0  0  0  0  0  0  0  0  0
  185.6900  178.5020  145.0250 C   0  0  0  0  0  0  0  0  0  0  0  0
  186.4190  176.9470  143.3650 C   0  0  0  0  0  0  0  0  0  0  0  0
  189.5590  177.0700  146.8590 C   0  0  0  0  0  3  0  0  0  0  0  0
  185.8520  179.2040  146.2540 N   0  0  0  0  0  1  0  0  0  0  0  0
  184.3830  178.0660  143.0800 C   0  0  0  0  0  0  0  0  0  0  0  0
  189.7540  175.6740  144.8570 C   0  0  0  0  0  0  0  0  0  0  0  0
  185.3060  177.1700  142.6290 N   0  0  0  0  0  2  0  0  0  0  0  0
  188.3530  177.6100  146.3990 C   0  0  0  0  0  3  0  0  0  0  0  0
  183.3430  178.2850  142.4110 O   0  0  0  0  0  0  0  0  0  0  0  0
  188.5370  176.2250  144.4210 C   0  0  0  0  0  0  0  0  0  0  0  0
  189.7340  173.4110  143.9320 N   0  0  0  0  0  2  0  0  0  0  0  0
  190.4700  173.6920  141.6660 C   0  0  1  0  0  3  0  0  0  0  0  0
  190.2970  172.7020  142.7970 C   0  0  0  0  0  2  0  0  0  0  0  0
  190.5020  174.6400  144.0560 C   0  0  1  0  0  3  0  0  0  0  0  0
  190.9640  175.2630  142.4080 S   0  0  0  0  0  0  0  0  0  0  0  0
  191.5070  173.2240  140.7640 N   0  0  0  0  0  2  0  0  0  0  0  0
  189.5990  173.7990  139.0290 O   0  0  0  0  0  0  0  0  0  0  0  0
  190.3420  171.4710  139.1250 O   0  0  0  0  0  0  0  0  0  0  0  0
  190.7920  172.9040  139.2150 S   0  0  0  0  0  0  0  0  0  0  0  0
  191.9780  173.2430  137.9020 C   0  0  0  0  0  2  0  0  0  0  0  0
  191.8070  174.5460  137.2440 N   0  0  0  0  0  0  0  0  0  0  0  0
  192.9820  176.3020  135.6380 S   0  0  0  0  0  0  0  0  0  0  0  0
  191.2000  174.3610  135.9890 N   0  0  0  0  0  2  0  0  0  0  0  0
  193.1090  175.1580  137.0300 C   0  0  0  0  0  2  0  0  0  0  0  0
  191.3590  175.6030  135.2520 C   0  0  0  0  0  2  0  0  0  0  0  0
  191.3930  175.2670  148.0180 O   0  0  0  0  0  1  0  0  0  0  0  0
  191.5340  175.5190  146.6510 C   0  0  2  0  0  3  0  0  0  0  0  0
  192.7320  176.4240  146.4000 C   0  0  0  0  0  2  0  0  0  0  0  0
  194.1680  174.5750  145.7760 C   0  0  0  0  0  0  0  0  0  0  0  0
  194.3450  173.5150  145.0410 C   0  0  0  0  0  3  0  0  0  0  0  0
  193.3150  172.4440  145.0190 C   0  0  0  0  0  1  0  0  0  0  0  0
  193.9950  175.6410  146.5050 C   0  0  0  0  0  3  0  0  0  0  0  0
  1  6  1  0  0  0  0
  1  2  1  0  0  0  0
  2 13  1  0  0  0  0
  3  6  2  0  0  0  0
  4 32  1  0  0  0  0
  4  8  1  0  0  0  0
  5  7  1  0  0  0  0
  5 15  1  0  0  0  0
  6  9  1  0  0  0  0
  7  1  2  0  0  0  0
 10  3  1  0  0  0  0
 11  4  2  0  0  0  0
 12 10  1  0  0  0  0
 12  7  1  0  0  0  0
 13  8  2  0  0  0  0
 14 10  2  0  0  0  0
 15 11  1  0  0  0  0
 15  2  2  0  0  0  0
 16 19  1  0  0  0  0
 17 21  1  6  0  0  0
 17 20  1  0  0  0  0
 17 18  1  0  0  0  0
 18 16  1  0  0  0  0
 19 11  1  6  0  0  0
 20 19  1  0  0  0  0
 22 24  2  0  0  0  0
 23 24  2  0  0  0  0
 24 21  1  0  0  0  0
 25 24  1  0  0  0  0
 26 25  1  0  0  0  0
 27 29  1  0  0  0  0
 28 26  1  0  0  0  0
 29 26  1  0  0  0  0
 30 27  1  0  0  0  0
 30 28  1  0  0  0  0
 32 31  1  1  0  0  0
 33 37  1  0  0  0  0
 33 32  1  0  0  0  0
 34 37  2  0  0  0  0
 35 34  2  0  0  0  0
 36 35  1  0  0  0  0
M  END
>  <MODEL>
6

>  <REMARK>
 VINA RESULT:      -7.6      3.867      5.628
  Name = 
  8 active torsions:
  status: ('A' for Active; 'I' for Inactive)
    1  A    between atoms: C_6  and  C_31
    2  A    between atoms: C_6  and  C_34
    3  A    between atoms: C_7  and  N_21
    4  A    between atoms: C_9  and  C_31
    5  A    between atoms: N_11  and  C_27
    6  A    between atoms: C_20  and  C_25
    7  A    between atoms: N_21  and  S_36
    8  A    between atoms: C_27  and  S_36
                            x       y       z     vdW  Elec       q    Type
                         _______ _______ _______ _____ _____    ______ ____

>  <TORSDO>
F 8

$$$$
=
 OpenBabel11042418363D

 37 41  0  0  1  0  0  0  0  0999 V2000
  186.4490  178.0110  145.1520 C   0  0  0  0  0  0  0  0  0  0  0  0
  187.7240  177.5160  145.4690 C   0  0  0  0  0  0  0  0  0  0  0  0
  184.2030  178.7320  145.4440 N   0  0  0  0  0  0  0  0  0  0  0  0
  190.3310  176.5170  145.7310 C   0  0  0  0  0  0  0  0  0  0  0  0
  187.7010  177.8560  142.9560 S   0  0  0  0  0  0  0  0  0  0  0  0
  185.3620  178.2680  145.9940 C   0  0  0  0  0  0  0  0  0  0  0  0
  186.2950  178.2410  143.7960 C   0  0  0  0  0  0  0  0  0  0  0  0
  189.4920  176.6610  146.8570 C   0  0  0  0  0  3  0  0  0  0  0  0
  185.4410  178.0590  147.4010 N   0  0  0  0  0  1  0  0  0  0  0  0
  184.0820  178.9390  144.0990 C   0  0  0  0  0  0  0  0  0  0  0  0
  189.8590  176.8810  144.4460 C   0  0  0  0  0  0  0  0  0  0  0  0
  185.1330  178.6900  143.2680 N   0  0  0  0  0  2  0  0  0  0  0  0
  188.1910  177.1630  146.7330 C   0  0  0  0  0  3  0  0  0  0  0  0
  182.9940  179.3550  143.6270 O   0  0  0  0  0  0  0  0  0  0  0  0
  188.5460  177.3760  144.3470 C   0  0  0  0  0  0  0  0  0  0  0  0
  192.1410  176.9810  143.5750 N   0  0  0  0  0  2  0  0  0  0  0  0
  192.3770  174.9620  142.3020 C   0  0  1  0  0  3  0  0  0  0  0  0
  192.9270  176.3520  142.5300 C   0  0  0  0  0  2  0  0  0  0  0  0
  190.7500  176.7170  143.2420 C   0  0  1  0  0  3  0  0  0  0  0  0
  190.5830  175.0630  142.4970 S   0  0  0  0  0  0  0  0  0  0  0  0
  192.7030  174.5230  140.9570 N   0  0  0  0  0  2  0  0  0  0  0  0
  192.7950  172.2870  142.3610 O   0  0  0  0  0  0  0  0  0  0  0  0
  194.0470  172.3250  140.2600 O   0  0  0  0  0  0  0  0  0  0  0  0
  192.7890  172.7890  140.9450 S   0  0  0  0  0  0  0  0  0  0  0  0
  191.3560  172.1030  140.0950 C   0  0  0  0  0  2  0  0  0  0  0  0
  190.4630  173.1040  139.4950 N   0  0  0  0  0  0  0  0  0  0  0  0
  189.2200  173.7910  137.2530 S   0  0  0  0  0  0  0  0  0  0  0  0
  189.1270  172.7080  139.6780 N   0  0  0  0  0  2  0  0  0  0  0  0
  190.7170  173.1870  138.0650 C   0  0  0  0  0  2  0  0  0  0  0  0
  188.3150  173.5280  138.7960 C   0  0  0  0  0  2  0  0  0  0  0  0
  191.6330  174.5360  145.8880 O   0  0  0  0  0  1  0  0  0  0  0  0
  191.7030  175.9320  145.8960 C   0  0  2  0  0  3  0  0  0  0  0  0
  192.3750  176.4190  147.1720 C   0  0  0  0  0  2  0  0  0  0  0  0
  194.5440  176.0950  146.1430 C   0  0  0  0  0  0  0  0  0  0  0  0
  195.3100  175.3550  145.3930 C   0  0  0  0  0  3  0  0  0  0  0  0
  195.4730  173.9080  145.6940 C   0  0  0  0  0  1  0  0  0  0  0  0
  193.7750  176.8400  146.8860 C   0  0  0  0  0  3  0  0  0  0  0  0
  1  2  1  0  0  0  0
  1  6  1  0  0  0  0
  2 13  1  0  0  0  0
  3  6  2  0  0  0  0
  4 32  1  0  0  0  0
  4  8  1  0  0  0  0
  5  7  1  0  0  0  0
  5 15  1  0  0  0  0
  6  9  1  0  0  0  0
  7  1  2  0  0  0  0
 10  3  1  0  0  0  0
 11  4  2  0  0  0  0
 12  7  1  0  0  0  0
 12 10  1  0  0  0  0
 13  8  2  0  0  0  0
 14 10  2  0  0  0  0
 15 11  1  0  0  0  0
 15  2  2  0  0  0  0
 17 21  1  6  0  0  0
 17 20  1  0  0  0  0
 17 18  1  0  0  0  0
 18 16  1  0  0  0  0
 19 16  1  0  0  0  0
 19 11  1  1  0  0  0
 20 19  1  0  0  0  0
 23 24  2  0  0  0  0
 24 21  1  0  0  0  0
 24 22  2  0  0  0  0
 25 24  1  0  0  0  0
 26 28  1  0  0  0  0
 26 25  1  0  0  0  0
 27 29  1  0  0  0  0
 27 30  1  0  0  0  0
 29 26  1  0  0  0  0
 30 28  1  0  0  0  0
 32 31  1  1  0  0  0
 32 33  1  0  0  0  0
 34 37  2  0  0  0  0
 35 36  1  0  0  0  0
 35 34  2  0  0  0  0
 37 33  1  0  0  0  0
M  END
>  <MODEL>
7

>  <REMARK>
 VINA RESULT:      -7.6      3.284      4.869
  Name = 
  8 active torsions:
  status: ('A' for Active; 'I' for Inactive)
    1  A    between atoms: C_6  and  C_31
    2  A    between atoms: C_6  and  C_34
    3  A    between atoms: C_7  and  N_21
    4  A    between atoms: C_9  and  C_31
    5  A    between atoms: N_11  and  C_27
    6  A    between atoms: C_20  and  C_25
    7  A    between atoms: N_21  and  S_36
    8  A    between atoms: C_27  and  S_36
                            x       y       z     vdW  Elec       q    Type
                         _______ _______ _______ _____ _____    ______ ____

>  <TORSDO>
F 8

$$$$
=
 OpenBabel11042418363D

 37 41  0  0  1  0  0  0  0  0999 V2000
  190.4260  173.0330  141.8640 C   0  0  0  0  0  0  0  0  0  0  0  0
  191.0860  173.3690  143.0570 C   0  0  0  0  0  0  0  0  0  0  0  0
  189.9530  171.9220  139.8170 N   0  0  0  0  0  0  0  0  0  0  0  0
  192.1630  174.3300  145.4610 C   0  0  0  0  0  0  0  0  0  0  0  0
  189.1240  174.9640  142.8590 S   0  0  0  0  0  0  0  0  0  0  0  0
  190.7420  172.0470  140.9230 C   0  0  0  0  0  0  0  0  0  0  0  0
  189.3240  173.8350  141.6270 C   0  0  0  0  0  0  0  0  0  0  0  0
  192.7710  173.2610  144.7690 C   0  0  0  0  0  3  0  0  0  0  0  0
  191.8590  171.1790  141.0950 N   0  0  0  0  0  1  0  0  0  0  0  0
  188.8770  172.7370  139.6090 C   0  0  0  0  0  0  0  0  0  0  0  0
  190.9910  174.9330  144.9420 C   0  0  0  0  0  0  0  0  0  0  0  0
  188.5610  173.7030  140.5180 N   0  0  0  0  0  2  0  0  0  0  0  0
  192.2360  172.7740  143.5710 C   0  0  0  0  0  3  0  0  0  0  0  0
  188.1810  172.6000  138.5720 O   0  0  0  0  0  0  0  0  0  0  0  0
  190.4770  174.4310  143.7330 C   0  0  0  0  0  0  0  0  0  0  0  0
  190.1750  177.2330  144.8020 N   0  0  0  0  0  2  0  0  0  0  0  0
  188.0220  177.1620  145.8560 C   0  0  1  0  0  3  0  0  0  0  0  0
  189.1610  178.0600  145.4300 C   0  0  0  0  0  2  0  0  0  0  0  0
  190.3480  176.0820  145.6740 C   0  0  1  0  0  3  0  0  0  0  0  0
  188.7530  175.6070  146.4140 S   0  0  0  0  0  0  0  0  0  0  0  0
  187.2930  177.7840  146.9470 N   0  0  0  0  0  2  0  0  0  0  0  0
  184.8700  178.6200  147.5900 O   0  0  0  0  0  0  0  0  0  0  0  0
  185.0150  176.6160  146.1960 O   0  0  0  0  0  0  0  0  0  0  0  0
  185.6320  177.9600  146.4760 S   0  0  0  0  0  0  0  0  0  0  0  0
  185.5100  178.9920  145.0030 C   0  0  0  0  0  2  0  0  0  0  0  0
  185.4230  178.2470  143.7390 N   0  0  0  0  0  0  0  0  0  0  0  0
  184.2470  178.2010  141.3610 S   0  0  0  0  0  0  0  0  0  0  0  0
  186.3880  178.7350  142.8410 N   0  0  0  0  0  2  0  0  0  0  0  0
  184.1100  178.4490  143.1450 C   0  0  0  0  0  2  0  0  0  0  0  0
  186.0480  178.2180  141.5270 C   0  0  0  0  0  2  0  0  0  0  0  0
  191.8290  174.9670  147.7260 O   0  0  0  0  0  1  0  0  0  0  0  0
  192.7920  174.8560  146.7190 C   0  0  2  0  0  3  0  0  0  0  0  0
  193.4760  176.1960  146.4900 C   0  0  0  0  0  2  0  0  0  0  0  0
  195.1650  176.1060  144.7570 C   0  0  0  0  0  0  0  0  0  0  0  0
  195.4590  176.2360  143.4950 C   0  0  0  0  0  3  0  0  0  0  0  0
  194.6710  175.5060  142.4680 C   0  0  0  0  0  1  0  0  0  0  0  0
  194.8740  175.9840  146.0210 C   0  0  0  0  0  3  0  0  0  0  0  0
  1  2  1  0  0  0  0
  2 13  2  0  0  0  0
  2 15  1  0  0  0  0
  3  6  2  0  0  0  0
  4 32  1  0  0  0  0
  5 15  1  0  0  0  0
  6  9  1  0  0  0  0
  6  1  1  0  0  0  0
  7  1  2  0  0  0  0
  7  5  1  0  0  0  0
  8  4  2  0  0  0  0
 10  3  1  0  0  0  0
 10 12  1  0  0  0  0
 11  4  1  0  0  0  0
 12  7  1  0  0  0  0
 13  8  1  0  0  0  0
 14 10  2  0  0  0  0
 15 11  2  0  0  0  0
 16 18  1  0  0  0  0
 16 19  1  0  0  0  0
 17 20  1  0  0  0  0
 17 21  1  1  0  0  0
 18 17  1  0  0  0  0
 19 11  1  6  0  0  0
 19 20  1  0  0  0  0
 23 24  2  0  0  0  0
 24 21  1  0  0  0  0
 24 22  2  0  0  0  0
 25 24  1  0  0  0  0
 26 25  1  0  0  0  0
 27 30  1  0  0  0  0
 27 29  1  0  0  0  0
 28 26  1  0  0  0  0
 29 26  1  0  0  0  0
 30 28  1  0  0  0  0
 32 31  1  1  0  0  0
 33 32  1  0  0  0  0
 34 37  2  0  0  0  0
 35 34  2  0  0  0  0
 36 35  1  0  0  0  0
 37 33  1  0  0  0  0
M  END
>  <MODEL>
8

>  <REMARK>
 VINA RESULT:      -7.5      3.616      8.226
  Name = 
  8 active torsions:
  status: ('A' for Active; 'I' for Inactive)
    1  A    between atoms: C_6  and  C_31
    2  A    between atoms: C_6  and  C_34
    3  A    between atoms: C_7  and  N_21
    4  A    between atoms: C_9  and  C_31
    5  A    between atoms: N_11  and  C_27
    6  A    between atoms: C_20  and  C_25
    7  A    between atoms: N_21  and  S_36
    8  A    between atoms: C_27  and  S_36
                            x       y       z     vdW  Elec       q    Type
                         _______ _______ _______ _____ _____    ______ ____

>  <TORSDO>
F 8

$$$$
=
 OpenBabel11042418363D

 37 41  0  0  1  0  0  0  0  0999 V2000
  191.8760  171.8640  143.0500 C   0  0  0  0  0  0  0  0  0  0  0  0
  192.1950  172.9100  143.9310 C   0  0  0  0  0  0  0  0  0  0  0  0
  191.9130  169.7130  142.0390 N   0  0  0  0  0  0  0  0  0  0  0  0
  192.6210  175.2160  145.4680 C   0  0  0  0  0  0  0  0  0  0  0  0
  190.5130  173.8570  142.2870 S   0  0  0  0  0  0  0  0  0  0  0  0
  192.3620  170.5520  143.0160 C   0  0  0  0  0  0  0  0  0  0  0  0
  190.9590  172.2470  142.0880 C   0  0  0  0  0  0  0  0  0  0  0  0
  193.3080  174.0160  145.7530 C   0  0  0  0  0  3  0  0  0  0  0  0
  193.3050  170.0800  143.9740 N   0  0  0  0  0  1  0  0  0  0  0  0
  191.0140  170.1270  141.0980 C   0  0  0  0  0  0  0  0  0  0  0  0
  191.7010  175.2650  144.3920 C   0  0  0  0  0  0  0  0  0  0  0  0
  190.5360  171.4030  141.1190 N   0  0  0  0  0  2  0  0  0  0  0  0
  193.0970  172.8610  144.9930 C   0  0  0  0  0  3  0  0  0  0  0  0
  190.6330  169.3290  140.2050 O   0  0  0  0  0  0  0  0  0  0  0  0
  191.5120  174.0930  143.6390 C   0  0  0  0  0  0  0  0  0  0  0  0
  191.3920  177.0910  142.7960 N   0  0  0  0  0  2  0  0  0  0  0  0
  189.0120  177.3180  142.6100 C   0  0  1  0  0  3  0  0  0  0  0  0
  190.3410  178.0050  142.3900 C   0  0  0  0  0  2  0  0  0  0  0  0
  190.9760  176.5490  144.0800 C   0  0  1  0  0  3  0  0  0  0  0  0
  189.1680  176.3330  144.1160 S   0  0  0  0  0  0  0  0  0  0  0  0
  187.9690  178.3160  142.7790 N   0  0  0  0  0  2  0  0  0  0  0  0
  186.7240  176.3450  141.5360 O   0  0  0  0  0  0  0  0  0  0  0  0
  185.7360  178.5740  141.3420 O   0  0  0  0  0  0  0  0  0  0  0  0
  186.4590  177.6310  142.2660 S   0  0  0  0  0  0  0  0  0  0  0  0
  185.4200  177.2800  143.6960 C   0  0  0  0  0  2  0  0  0  0  0  0
  186.0240  177.6230  144.9910 N   0  0  0  0  0  0  0  0  0  0  0  0
  185.6310  178.9670  147.2450 S   0  0  0  0  0  0  0  0  0  0  0  0
  185.6740  176.6500  145.9430 N   0  0  0  0  0  2  0  0  0  0  0  0
  185.5080  178.9050  145.4440 C   0  0  0  0  0  2  0  0  0  0  0  0
  185.9990  177.1960  147.2490 C   0  0  0  0  0  2  0  0  0  0  0  0
  194.2850  176.6870  146.3120 O   0  0  0  0  0  1  0  0  0  0  0  0
  192.9080  176.4480  146.2770 C   0  0  2  0  0  3  0  0  0  0  0  0
  192.3540  176.3370  147.6900 C   0  0  0  0  0  2  0  0  0  0  0  0
  190.0400  175.6270  147.5880 C   0  0  0  0  0  0  0  0  0  0  0  0
  189.1910  174.6440  147.4960 C   0  0  0  0  0  3  0  0  0  0  0  0
  189.3230  173.6460  146.4020 C   0  0  0  0  0  1  0  0  0  0  0  0
  190.8900  176.6100  147.6900 C   0  0  0  0  0  3  0  0  0  0  0  0
  1  2  1  0  0  0  0
  2 13  1  0  0  0  0
  3  6  2  0  0  0  0
  4  8  1  0  0  0  0
  4 32  1  0  0  0  0
  5 15  1  0  0  0  0
  6  1  1  0  0  0  0
  6  9  1  0  0  0  0
  7  5  1  0  0  0  0
  7  1  2  0  0  0  0
 10 12  1  0  0  0  0
 10  3  1  0  0  0  0
 11  4  2  0  0  0  0
 12  7  1  0  0  0  0
 13  8  2  0  0  0  0
 14 10  2  0  0  0  0
 15  2  2  0  0  0  0
 15 11  1  0  0  0  0
 16 19  1  0  0  0  0
 17 21  1  1  0  0  0
 17 20  1  0  0  0  0
 18 17  1  0  0  0  0
 18 16  1  0  0  0  0
 19 20  1  0  0  0  0
 19 11  1  6  0  0  0
 22 24  2  0  0  0  0
 23 24  2  0  0  0  0
 24 21  1  0  0  0  0
 24 25  1  0  0  0  0
 25 26  1  0  0  0  0
 26 29  1  0  0  0  0
 26 28  1  0  0  0  0
 27 30  1  0  0  0  0
 28 30  1  0  0  0  0
 29 27  1  0  0  0  0
 32 31  1  1  0  0  0
 32 33  1  0  0  0  0
 33 37  1  0  0  0  0
 34 37  2  0  0  0  0
 35 34  2  0  0  0  0
 36 35  1  0  0  0  0
M  END
>  <MODEL>
9

>  <REMARK>
 VINA RESULT:      -7.3      3.191      8.516
  Name = 
  8 active torsions:
  status: ('A' for Active; 'I' for Inactive)
    1  A    between atoms: C_6  and  C_31
    2  A    between atoms: C_6  and  C_34
    3  A    between atoms: C_7  and  N_21
    4  A    between atoms: C_9  and  C_31
    5  A    between atoms: N_11  and  C_27
    6  A    between atoms: C_20  and  C_25
    7  A    between atoms: N_21  and  S_36
    8  A    between atoms: C_27  and  S_36
                            x       y       z     vdW  Elec       q    Type
                         _______ _______ _______ _____ _____    ______ ____

>  <TORSDO>
F 8

$$$$
