=
 OpenBabel11042419433D

 40 43  0  0  1  0  0  0  0  0999 V2000
  191.4140  172.9220  142.3030 C   0  0  0  0  0  0  0  0  0  0  0  0
  189.1700  174.1850  140.1310 N   0  0  0  0  0  2  0  0  0  0  0  0
  190.6950  172.8240  141.3420 C   0  0  0  0  0  0  0  0  0  0  0  0
  190.4180  175.4150  145.6780 C   0  0  2  0  0  3  0  0  0  0  0  0
  186.9040  176.5220  142.1880 C   0  0  1  0  0  3  0  0  0  0  0  0
  188.1370  176.1250  141.3700 C   0  0  0  0  0  2  0  0  0  0  0  0
  190.3670  174.5190  144.5320 C   0  0  0  0  0  0  0  0  0  0  0  0
  191.0900  176.9830  147.8660 C   0  0  0  0  0  3  0  0  0  0  0  0
  192.0510  176.1200  147.3160 C   0  0  0  0  0  3  0  0  0  0  0  0
  189.4330  176.2650  146.2050 C   0  0  0  0  0  0  0  0  0  0  0  0
  188.0600  176.7330  144.2230 N   0  0  0  0  0  2  0  0  0  0  0  0
  188.2310  174.6530  141.1010 C   0  0  0  0  0  0  0  0  0  0  0  0
  186.9990  176.0690  143.5780 N   0  0  0  0  0  2  0  0  0  0  0  0
  189.7630  172.8530  140.2070 C   0  0  2  0  0  3  0  0  0  0  0  0
  192.2070  173.1940  143.4730 C   0  0  0  0  0  2  0  0  0  0  0  0
  187.5520  173.8270  141.7720 O   0  0  0  0  0  0  0  0  0  0  0  0
  191.6870  175.3430  146.2180 C   0  0  0  0  0  0  0  0  0  0  0  0
  191.7200  173.9420  144.4670 C   0  0  0  0  0  0  0  0  0  0  0  0
  188.0390  176.3000  145.6160 C   0  0  2  0  0  3  0  0  0  0  0  0
  189.3040  173.8550  144.2170 N   0  0  0  0  0  1  0  0  0  0  0  0
  192.5400  174.4330  145.5300 N   0  0  0  0  0  0  0  0  0  0  0  0
  189.7960  177.0550  147.3170 C   0  0  0  0  0  3  0  0  0  0  0  0
  190.9920  173.0980  136.6340 C   0  0  0  0  0  3  0  0  0  0  0  0
  190.4730  172.5250  138.9320 C   0  0  0  0  0  0  0  0  0  0  0  0
  190.3450  173.3870  137.8390 C   0  0  0  0  0  3  0  0  0  0  0  0
  191.7710  171.9430  136.5090 C   0  0  0  0  0  0  0  0  0  0  0  0
  191.2520  171.3630  138.8110 C   0  0  0  0  0  3  0  0  0  0  0  0
  191.8970  171.0740  137.6060 C   0  0  0  0  0  3  0  0  0  0  0  0
  193.7050  172.1660  134.9820 C   0  0  0  0  0  1  0  0  0  0  0  0
  192.4050  171.6820  135.2910 O   0  0  0  0  0  0  0  0  0  0  0  0
  187.0590  177.1130  146.4110 C   0  0  0  0  0  0  0  0  0  0  0  0
  186.5540  176.6420  147.4670 O   0  0  0  0  0  0  0  0  0  0  0  0
  186.6950  178.3780  145.9490 O   0  0  0  0  0  0  0  0  0  0  0  0
  184.3500  178.7330  145.6220 C   0  0  0  0  0  1  0  0  0  0  0  0
  185.5640  179.0650  146.4620 C   0  0  0  0  0  2  0  0  0  0  0  0
  186.6430  178.0240  142.1130 C   0  0  0  0  0  2  0  0  0  0  0  0
  185.4620  178.3300  141.2070 C   0  0  1  0  0  3  0  0  0  0  0  0
  185.5600  177.5780  140.0340 O   0  0  0  0  0  1  0  0  0  0  0  0
  184.1750  177.9820  141.9300 C   0  0  0  0  0  2  0  0  0  0  0  0
  183.0340  178.3240  141.1000 N   0  0  0  0  0  1  0  0  0  0  0  0
  1 15  1  0  0  0  0
  2 14  1  0  0  0  0
  2 12  1  0  0  0  0
  3  1  3  0  0  0  0
  4  7  1  6  0  0  0
  4 10  1  0  0  0  0
  4 17  1  0  0  0  0
  5 36  1  1  0  0  0
  5 13  1  0  0  0  0
  6  5  1  0  0  0  0
  9  8  2  0  0  0  0
 10 22  2  0  0  0  0
 11 19  1  0  0  0  0
 12  6  1  0  0  0  0
 12 16  2  0  0  0  0
 13 11  1  0  0  0  0
 14 24  1  6  0  0  0
 14  3  1  0  0  0  0
 15 18  1  0  0  0  0
 17  9  1  0  0  0  0
 18  7  2  0  0  0  0
 18 21  1  0  0  0  0
 19 10  1  0  0  0  0
 19 31  1  1  0  0  0
 20  7  1  0  0  0  0
 21 17  2  0  0  0  0
 22  8  1  0  0  0  0
 23 25  1  0  0  0  0
 25 24  2  0  0  0  0
 26 23  2  0  0  0  0
 26 28  1  0  0  0  0
 27 24  1  0  0  0  0
 28 27  2  0  0  0  0
 29 30  1  0  0  0  0
 30 26  1  0  0  0  0
 31 32  2  0  0  0  0
 33 31  1  0  0  0  0
 33 35  1  0  0  0  0
 34 35  1  0  0  0  0
 37 38  1  6  0  0  0
 37 39  1  0  0  0  0
 37 36  1  0  0  0  0
 40 39  1  0  0  0  0
M  END
>  <MODEL>
1

>  <REMARK>
 VINA RESULT:      -7.3      0.000      0.000
  Name = 
  8 active torsions:
  status: ('A' for Active; 'I' for Inactive)
    1  A    between atoms: C_1  and  O_28
    2  A    between atoms: C_1  and  C_33
    3  A    between atoms: C_4  and  C_7
    4  A    between atoms: C_4  and  C_10
    5  A    between atoms: C_7  and  C_19
    6  A    between atoms: C_16  and  C_25
    7  A    between atoms: C_23  and  O_34
    8  A    between atoms: C_27  and  O_28
                            x       y       z     vdW  Elec       q    Type
                         _______ _______ _______ _____ _____    ______ ____

>  <TORSDO>
F 8

$$$$
=
 OpenBabel11042419433D

 40 43  0  0  1  0  0  0  0  0999 V2000
  186.5980  178.3930  144.5180 C   0  0  0  0  0  0  0  0  0  0  0  0
  186.1060  176.7600  141.6140 N   0  0  0  0  0  2  0  0  0  0  0  0
  186.1700  178.3310  143.3950 C   0  0  0  0  0  0  0  0  0  0  0  0
  190.2010  176.3550  145.7260 C   0  0  0  0  0  0  0  0  0  0  0  0
  189.2720  174.6460  141.0380 C   0  0  1  0  0  3  0  0  0  0  0  0
  187.8860  174.9710  141.6030 C   0  0  0  0  0  2  0  0  0  0  0  0
  189.1820  177.0800  144.9820 C   0  0  0  0  0  0  0  0  0  0  0  0
  191.8240  175.1300  147.6130 C   0  0  0  0  0  3  0  0  0  0  0  0
  190.7640  175.9430  148.0410 C   0  0  0  0  0  3  0  0  0  0  0  0
  191.2530  175.5490  145.2640 C   0  0  0  0  0  0  0  0  0  0  0  0
  190.3760  174.7610  143.1090 N   0  0  0  0  0  2  0  0  0  0  0  0
  187.4690  176.3950  141.3840 C   0  0  0  0  0  0  0  0  0  0  0  0
  190.3430  175.2890  141.8050 N   0  0  0  0  0  2  0  0  0  0  0  0
  185.7230  178.1100  142.0140 C   0  0  2  0  0  3  0  0  0  0  0  0
  187.1780  178.3150  145.8330 C   0  0  0  0  0  3  0  0  0  0  0  0
  188.3150  177.2800  141.0800 O   0  0  0  0  0  0  0  0  0  0  0  0
  189.9650  176.5470  147.0730 C   0  0  0  0  0  0  0  0  0  0  0  0
  188.3440  177.6930  146.0280 C   0  0  0  0  0  0  0  0  0  0  0  0
  191.5130  175.3810  143.7820 C   0  0  2  0  0  3  0  0  0  0  0  0
  189.4250  177.6550  143.8510 N   0  0  0  0  0  1  0  0  0  0  0  0
  188.8420  177.3850  147.3310 N   0  0  0  0  0  0  0  0  0  0  0  0
  192.0660  174.9340  146.2410 C   0  0  0  0  0  3  0  0  0  0  0  0
  182.2330  178.2040  140.5470 C   0  0  0  0  0  3  0  0  0  0  0  0
  184.2410  178.2860  141.9030 C   0  0  0  0  0  0  0  0  0  0  0  0
  183.6150  178.0380  140.6770 C   0  0  0  0  0  3  0  0  0  0  0  0
  181.4640  178.6200  141.6390 C   0  0  0  0  0  0  0  0  0  0  0  0
  183.4740  178.7060  143.0010 C   0  0  0  0  0  3  0  0  0  0  0  0
  182.0920  178.8720  142.8690 C   0  0  0  0  0  3  0  0  0  0  0  0
  179.1720  178.7320  142.5640 C   0  0  0  0  0  1  0  0  0  0  0  0
  180.0850  178.7750  141.4750 O   0  0  0  0  0  0  0  0  0  0  0  0
  192.7840  174.6490  143.4620 C   0  0  0  0  0  0  0  0  0  0  0  0
  192.7720  173.3960  143.3100 O   0  0  0  0  0  0  0  0  0  0  0  0
  193.9760  175.3670  143.3690 O   0  0  0  0  0  0  0  0  0  0  0  0
  195.5080  174.9430  145.1590 C   0  0  0  0  0  1  0  0  0  0  0  0
  195.2290  174.7800  143.6800 C   0  0  0  0  0  2  0  0  0  0  0  0
  189.4950  173.1390  140.9370 C   0  0  0  0  0  2  0  0  0  0  0  0
  189.2960  172.6500  139.5120 C   0  0  1  0  0  3  0  0  0  0  0  0
  187.9400  172.4040  139.2840 O   0  0  0  0  0  1  0  0  0  0  0  0
  189.7920  173.7100  138.5470 C   0  0  0  0  0  2  0  0  0  0  0  0
  188.7710  173.9890  137.5530 N   0  0  0  0  0  1  0  0  0  0  0  0
  1 15  1  0  0  0  0
  2 14  1  0  0  0  0
  3  1  3  0  0  0  0
  4 17  1  0  0  0  0
  5 36  1  1  0  0  0
  5  6  1  0  0  0  0
  5 13  1  0  0  0  0
  7  4  2  0  0  0  0
  7 18  1  0  0  0  0
  8  9  2  0  0  0  0
 10  4  1  0  0  0  0
 10 22  2  0  0  0  0
 11 19  1  0  0  0  0
 12  6  1  0  0  0  0
 12  2  1  0  0  0  0
 13 11  1  0  0  0  0
 14 24  1  1  0  0  0
 14  3  1  0  0  0  0
 15 18  2  0  0  0  0
 16 12  2  0  0  0  0
 17 21  2  0  0  0  0
 17  9  1  0  0  0  0
 18 21  1  0  0  0  0
 19 31  1  1  0  0  0
 19 10  1  0  0  0  0
 20  7  1  0  0  0  0
 22  8  1  0  0  0  0
 23 25  2  0  0  0  0
 23 26  1  0  0  0  0
 24 27  2  0  0  0  0
 25 24  1  0  0  0  0
 26 28  2  0  0  0  0
 28 27  1  0  0  0  0
 30 26  1  0  0  0  0
 30 29  1  0  0  0  0
 32 31  2  0  0  0  0
 33 31  1  0  0  0  0
 33 35  1  0  0  0  0
 35 34  1  0  0  0  0
 37 38  1  6  0  0  0
 37 36  1  0  0  0  0
 39 37  1  0  0  0  0
 40 39  1  0  0  0  0
M  END
>  <MODEL>
2

>  <REMARK>
 VINA RESULT:      -7.1      2.600      7.767
  Name = 
  8 active torsions:
  status: ('A' for Active; 'I' for Inactive)
    1  A    between atoms: C_1  and  O_28
    2  A    between atoms: C_1  and  C_33
    3  A    between atoms: C_4  and  C_7
    4  A    between atoms: C_4  and  C_10
    5  A    between atoms: C_7  and  C_19
    6  A    between atoms: C_16  and  C_25
    7  A    between atoms: C_23  and  O_34
    8  A    between atoms: C_27  and  O_28
                            x       y       z     vdW  Elec       q    Type
                         _______ _______ _______ _____ _____    ______ ____

>  <TORSDO>
F 8

$$$$
=
 OpenBabel11042419433D

 40 43  0  0  1  0  0  0  0  0999 V2000
  189.9820  177.4230  143.1420 C   0  0  0  0  0  0  0  0  0  0  0  0
  188.1530  174.9220  141.8230 N   0  0  0  0  0  2  0  0  0  0  0  0
  189.1330  177.0080  142.3950 C   0  0  0  0  0  0  0  0  0  0  0  0
  193.4650  175.1050  144.1850 C   0  0  0  0  0  0  0  0  0  0  0  0
  190.5120  171.8870  141.6010 C   0  0  1  0  0  3  0  0  0  0  0  0
  189.5270  172.8520  142.2670 C   0  0  0  0  0  2  0  0  0  0  0  0
  192.3380  175.7070  143.4890 C   0  0  0  0  0  0  0  0  0  0  0  0
  195.5360  174.4010  145.8920 C   0  0  0  0  0  3  0  0  0  0  0  0
  194.8540  175.6110  146.0980 C   0  0  0  0  0  3  0  0  0  0  0  0
  194.1270  173.8900  143.9490 C   0  0  0  0  0  0  0  0  0  0  0  0
  192.3620  172.5520  142.8880 N   0  0  0  0  0  2  0  0  0  0  0  0
  189.2470  174.0800  141.4520 C   0  0  0  0  0  0  0  0  0  0  0  0
  191.8750  172.4260  141.5740 N   0  0  0  0  0  2  0  0  0  0  0  0
  188.1430  176.3520  141.5320 C   0  0  2  0  0  3  0  0  0  0  0  0
  191.0270  177.7580  144.0730 C   0  0  0  0  0  3  0  0  0  0  0  0
  190.0070  174.4160  140.5030 O   0  0  0  0  0  0  0  0  0  0  0  0
  193.8190  175.9410  145.2260 C   0  0  0  0  0  0  0  0  0  0  0  0
  192.0800  176.9520  144.2340 C   0  0  0  0  0  0  0  0  0  0  0  0
  193.7440  173.0080  142.7800 C   0  0  2  0  0  3  0  0  0  0  0  0
  192.1780  175.6080  142.2110 N   0  0  0  0  0  1  0  0  0  0  0  0
  193.0160  177.1140  145.3010 N   0  0  0  0  0  0  0  0  0  0  0  0
  195.1770  173.5510  144.8300 C   0  0  0  0  0  3  0  0  0  0  0  0
  184.8190  178.0450  140.8850 C   0  0  0  0  0  3  0  0  0  0  0  0
  186.7800  176.9220  141.7640 C   0  0  0  0  0  0  0  0  0  0  0  0
  186.0910  177.4980  140.6910 C   0  0  0  0  0  3  0  0  0  0  0  0
  184.2240  178.0240  142.1500 C   0  0  0  0  0  0  0  0  0  0  0  0
  186.1880  176.9010  143.0360 C   0  0  0  0  0  3  0  0  0  0  0  0
  184.9170  177.4490  143.2280 C   0  0  0  0  0  3  0  0  0  0  0  0
  181.8980  178.3670  141.3790 C   0  0  0  0  0  1  0  0  0  0  0  0
  182.9510  178.5790  142.3090 O   0  0  0  0  0  0  0  0  0  0  0  0
  194.6700  171.8490  142.5580 C   0  0  0  0  0  0  0  0  0  0  0  0
  195.7030  171.9900  141.8460 O   0  0  0  0  0  0  0  0  0  0  0  0
  194.3570  170.6120  143.1220 O   0  0  0  0  0  0  0  0  0  0  0  0
  194.4800  169.8600  145.3930 C   0  0  0  0  0  1  0  0  0  0  0  0
  195.2060  169.9850  144.0700 C   0  0  0  0  0  2  0  0  0  0  0  0
  190.4760  170.5100  142.2580 C   0  0  0  0  0  2  0  0  0  0  0  0
  191.1260  169.4620  141.3690 C   0  0  1  0  0  3  0  0  0  0  0  0
  190.7870  168.1850  141.8210 O   0  0  0  0  0  1  0  0  0  0  0  0
  190.6400  169.6450  139.9440 C   0  0  0  0  0  2  0  0  0  0  0  0
  191.7390  169.4440  139.0170 N   0  0  0  0  0  1  0  0  0  0  0  0
  1 15  1  0  0  0  0
  3  1  3  0  0  0  0
  4 17  1  0  0  0  0
  5 36  1  1  0  0  0
  5  6  1  0  0  0  0
  7  4  2  0  0  0  0
  7 18  1  0  0  0  0
  8  9  2  0  0  0  0
 10  4  1  0  0  0  0
 10 22  2  0  0  0  0
 12  2  1  0  0  0  0
 12  6  1  0  0  0  0
 13  5  1  0  0  0  0
 13 11  1  0  0  0  0
 14 24  1  1  0  0  0
 14  2  1  0  0  0  0
 14  3  1  0  0  0  0
 15 18  2  0  0  0  0
 16 12  2  0  0  0  0
 17 21  2  0  0  0  0
 17  9  1  0  0  0  0
 18 21  1  0  0  0  0
 19 31  1  1  0  0  0
 19 11  1  0  0  0  0
 19 10  1  0  0  0  0
 20  7  1  0  0  0  0
 22  8  1  0  0  0  0
 23 26  1  0  0  0  0
 24 27  2  0  0  0  0
 25 23  2  0  0  0  0
 25 24  1  0  0  0  0
 26 30  1  0  0  0  0
 26 28  2  0  0  0  0
 27 28  1  0  0  0  0
 29 30  1  0  0  0  0
 31 33  1  0  0  0  0
 32 31  2  0  0  0  0
 33 35  1  0  0  0  0
 35 34  1  0  0  0  0
 37 38  1  1  0  0  0
 37 36  1  0  0  0  0
 39 37  1  0  0  0  0
 40 39  1  0  0  0  0
M  END
>  <MODEL>
3

>  <REMARK>
 VINA RESULT:      -7.0      3.345      8.131
  Name = 
  8 active torsions:
  status: ('A' for Active; 'I' for Inactive)
    1  A    between atoms: C_1  and  O_28
    2  A    between atoms: C_1  and  C_33
    3  A    between atoms: C_4  and  C_7
    4  A    between atoms: C_4  and  C_10
    5  A    between atoms: C_7  and  C_19
    6  A    between atoms: C_16  and  C_25
    7  A    between atoms: C_23  and  O_34
    8  A    between atoms: C_27  and  O_28
                            x       y       z     vdW  Elec       q    Type
                         _______ _______ _______ _____ _____    ______ ____

>  <TORSDO>
F 8

$$$$
=
 OpenBabel11042419433D

 40 43  0  0  1  0  0  0  0  0999 V2000
  191.7080  176.5660  145.4390 C   0  0  0  0  0  0  0  0  0  0  0  0
  189.3180  174.8910  143.7590 N   0  0  0  0  0  2  0  0  0  0  0  0
  190.6720  176.5240  144.8270 C   0  0  0  0  0  0  0  0  0  0  0  0
  194.9860  173.8910  144.6020 C   0  0  0  0  0  0  0  0  0  0  0  0
  191.1410  172.1210  141.8030 C   0  0  1  0  0  3  0  0  0  0  0  0
  190.4600  172.7680  143.0120 C   0  0  0  0  0  2  0  0  0  0  0  0
  193.8280  174.7670  144.4980 C   0  0  0  0  0  0  0  0  0  0  0  0
  197.2560  172.4730  145.3310 C   0  0  0  0  0  3  0  0  0  0  0  0
  196.8050  173.5190  146.1510 C   0  0  0  0  0  3  0  0  0  0  0  0
  195.4110  172.8520  143.7590 C   0  0  0  0  0  0  0  0  0  0  0  0
  193.2950  172.1320  142.7410 N   0  0  0  0  0  2  0  0  0  0  0  0
  190.1830  174.2320  142.8320 C   0  0  0  0  0  0  0  0  0  0  0  0
  192.5270  172.5700  141.6460 N   0  0  0  0  0  2  0  0  0  0  0  0
  189.4410  176.3150  144.0540 C   0  0  2  0  0  3  0  0  0  0  0  0
  192.9630  176.4510  146.1340 C   0  0  0  0  0  3  0  0  0  0  0  0
  190.7630  174.8950  141.9280 O   0  0  0  0  0  0  0  0  0  0  0  0
  195.6630  174.2150  145.7610 C   0  0  0  0  0  0  0  0  0  0  0  0
  193.9070  175.6100  145.7030 C   0  0  0  0  0  0  0  0  0  0  0  0
  194.6710  172.5380  142.4760 C   0  0  2  0  0  3  0  0  0  0  0  0
  193.3880  175.2030  143.3640 N   0  0  0  0  0  1  0  0  0  0  0  0
  195.0610  175.2870  146.4810 N   0  0  0  0  0  0  0  0  0  0  0  0
  196.5670  172.1430  144.1490 C   0  0  0  0  0  3  0  0  0  0  0  0
  186.2290  178.1320  144.8990 C   0  0  0  0  0  3  0  0  0  0  0  0
  188.2490  176.7940  144.8200 C   0  0  0  0  0  0  0  0  0  0  0  0
  187.3460  177.6640  144.2010 C   0  0  0  0  0  3  0  0  0  0  0  0
  186.0040  177.7370  146.2210 C   0  0  0  0  0  0  0  0  0  0  0  0
  188.0280  176.3970  146.1480 C   0  0  0  0  0  3  0  0  0  0  0  0
  186.9110  176.8660  146.8450 C   0  0  0  0  0  3  0  0  0  0  0  0
  183.7110  178.6670  146.2100 C   0  0  0  0  0  1  0  0  0  0  0  0
  184.8770  178.2230  146.8910 O   0  0  0  0  0  0  0  0  0  0  0  0
  195.3620  171.5340  141.6010 C   0  0  0  0  0  0  0  0  0  0  0  0
  195.0910  170.3060  141.7090 O   0  0  0  0  0  0  0  0  0  0  0  0
  196.3270  171.9740  140.6950 O   0  0  0  0  0  0  0  0  0  0  0  0
  197.7390  173.8910  140.9510 C   0  0  0  0  0  1  0  0  0  0  0  0
  196.4610  173.3440  140.3510 C   0  0  0  0  0  2  0  0  0  0  0  0
  191.0580  170.5980  141.8640 C   0  0  0  0  0  2  0  0  0  0  0  0
  190.8170  170.0060  140.4850 C   0  0  1  0  0  3  0  0  0  0  0  0
  190.3990  171.0090  139.6080 O   0  0  0  0  0  1  0  0  0  0  0  0
  192.1040  169.3860  139.9760 C   0  0  0  0  0  2  0  0  0  0  0  0
  192.7140  170.2580  138.9880 N   0  0  0  0  0  1  0  0  0  0  0  0
  1 15  1  0  0  0  0
  2 14  1  0  0  0  0
  3  1  3  0  0  0  0
  4 17  1  0  0  0  0
  5 36  1  1  0  0  0
  5  6  1  0  0  0  0
  7  4  2  0  0  0  0
  7 18  1  0  0  0  0
  8  9  2  0  0  0  0
 10 22  2  0  0  0  0
 10  4  1  0  0  0  0
 12  6  1  0  0  0  0
 12  2  1  0  0  0  0
 13  5  1  0  0  0  0
 13 11  1  0  0  0  0
 14 24  1  1  0  0  0
 14  3  1  0  0  0  0
 16 12  2  0  0  0  0
 17  9  1  0  0  0  0
 17 21  2  0  0  0  0
 18 15  2  0  0  0  0
 18 21  1  0  0  0  0
 19 31  1  1  0  0  0
 19 11  1  0  0  0  0
 19 10  1  0  0  0  0
 20  7  1  0  0  0  0
 22  8  1  0  0  0  0
 23 26  1  0  0  0  0
 24 27  2  0  0  0  0
 25 24  1  0  0  0  0
 25 23  2  0  0  0  0
 26 28  2  0  0  0  0
 26 30  1  0  0  0  0
 27 28  1  0  0  0  0
 29 30  1  0  0  0  0
 31 32  2  0  0  0  0
 33 31  1  0  0  0  0
 35 33  1  0  0  0  0
 35 34  1  0  0  0  0
 37 38  1  6  0  0  0
 37 36  1  0  0  0  0
 39 37  1  0  0  0  0
 40 39  1  0  0  0  0
M  END
>  <MODEL>
4

>  <REMARK>
 VINA RESULT:      -7.0      3.410      8.936
  Name = 
  8 active torsions:
  status: ('A' for Active; 'I' for Inactive)
    1  A    between atoms: C_1  and  O_28
    2  A    between atoms: C_1  and  C_33
    3  A    between atoms: C_4  and  C_7
    4  A    between atoms: C_4  and  C_10
    5  A    between atoms: C_7  and  C_19
    6  A    between atoms: C_16  and  C_25
    7  A    between atoms: C_23  and  O_34
    8  A    between atoms: C_27  and  O_28
                            x       y       z     vdW  Elec       q    Type
                         _______ _______ _______ _____ _____    ______ ____

>  <TORSDO>
F 8

$$$$
=
 OpenBabel11042419433D

 40 43  0  0  1  0  0  0  0  0999 V2000
  189.3550  172.8980  141.9090 C   0  0  0  0  0  0  0  0  0  0  0  0
  189.9460  175.5750  143.8650 N   0  0  0  0  0  2  0  0  0  0  0  0
  188.9830  173.8080  142.6040 C   0  0  0  0  0  0  0  0  0  0  0  0
  193.0710  170.8290  142.6220 C   0  0  0  0  0  0  0  0  0  0  0  0
  193.1680  174.7720  145.8150 C   0  0  1  0  0  3  0  0  0  0  0  0
  192.3300  175.2660  144.6310 C   0  0  0  0  0  2  0  0  0  0  0  0
  191.8140  171.5480  142.7720 C   0  0  0  0  0  0  0  0  0  0  0  0
  195.2690  169.3540  141.7910 C   0  0  0  0  0  3  0  0  0  0  0  0
  194.1450  169.4460  140.9540 C   0  0  0  0  0  2  0  0  0  0  0  0
  194.1770  170.7550  143.4830 C   0  0  0  0  0  0  0  0  0  0  0  0
  194.0060  172.8780  144.7060 N   0  0  0  0  0  2  0  0  0  0  0  0
  190.8700  174.9440  144.7530 C   0  0  0  0  0  0  0  0  0  0  0  0
  193.2850  173.3120  145.8340 N   0  0  0  0  0  2  0  0  0  0  0  0
  188.6860  174.9450  143.4830 C   0  0  2  0  0  3  0  0  0  0  0  0
  189.9580  171.8550  141.1220 C   0  0  0  0  0  2  0  0  0  0  0  0
  190.4650  174.0710  145.5700 O   0  0  0  0  0  0  0  0  0  0  0  0
  193.0550  170.1930  141.3960 C   0  0  0  0  0  0  0  0  0  0  0  0
  191.0910  171.2680  141.5200 C   0  0  0  0  0  0  0  0  0  0  0  0
  194.1570  171.4330  144.8370 C   0  0  2  0  0  3  0  0  0  0  0  0
  191.2210  171.6770  143.9120 N   0  0  0  0  0  1  0  0  0  0  0  0
  191.8480  170.4050  140.6700 N   0  0  0  0  0  0  0  0  0  0  0  0
  195.2850  170.0010  143.0400 C   0  0  0  0  0  3  0  0  0  0  0  0
  185.7100  177.1620  142.7270 C   0  0  0  0  0  3  0  0  0  0  0  0
  187.7990  175.9310  142.7910 C   0  0  0  0  0  0  0  0  0  0  0  0
  186.5610  176.2490  143.3590 C   0  0  0  0  0  3  0  0  0  0  0  0
  186.0870  177.7620  141.5220 C   0  0  0  0  0  0  0  0  0  0  0  0
  188.1800  176.5290  141.5800 C   0  0  0  0  0  3  0  0  0  0  0  0
  187.3280  177.4410  140.9490 C   0  0  0  0  0  3  0  0  0  0  0  0
  183.9110  178.3080  140.4780 C   0  0  0  0  0  1  0  0  0  0  0  0
  185.2140  178.6700  140.9160 O   0  0  0  0  0  0  0  0  0  0  0  0
  195.3330  171.0980  145.7060 C   0  0  0  0  0  0  0  0  0  0  0  0
  195.3670  170.0020  146.3320 O   0  0  0  0  0  0  0  0  0  0  0  0
  196.3670  172.0250  145.8370 O   0  0  0  0  0  0  0  0  0  0  0  0
  197.8460  173.3990  144.5480 C   0  0  0  0  0  1  0  0  0  0  0  0
  197.5110  171.9930  144.9980 C   0  0  0  0  0  2  0  0  0  0  0  0
  194.5420  175.4370  145.8430 C   0  0  0  0  0  2  0  0  0  0  0  0
  194.5920  176.6330  144.9060 C   0  0  1  0  0  3  0  0  0  0  0  0
  194.7420  177.8060  145.6490 O   0  0  0  0  0  1  0  0  0  0  0  0
  195.7650  176.4740  143.9580 C   0  0  0  0  0  2  0  0  0  0  0  0
  195.3190  175.8670  142.7170 N   0  0  0  0  0  1  0  0  0  0  0  0
  1  3  3  0  0  0  0
  2 12  1  0  0  0  0
  3 14  1  0  0  0  0
  4  7  1  0  0  0  0
  4 10  2  0  0  0  0
  5 13  1  0  0  0  0
  5 36  1  6  0  0  0
  6 12  1  0  0  0  0
  6  5  1  0  0  0  0
  7 20  1  0  0  0  0
  8 22  2  0  0  0  0
  9 17  1  0  0  0  0
  9  8  1  0  0  0  0
 10 19  1  0  0  0  0
 11 19  1  0  0  0  0
 11 13  1  0  0  0  0
 12 16  2  0  0  0  0
 14 24  1  6  0  0  0
 14  2  1  0  0  0  0
 15 18  1  0  0  0  0
 15  1  1  0  0  0  0
 17  4  1  0  0  0  0
 18  7  2  0  0  0  0
 19 31  1  6  0  0  0
 21 17  2  0  0  0  0
 21 18  1  0  0  0  0
 22 10  1  0  0  0  0
 23 25  1  0  0  0  0
 24 25  2  0  0  0  0
 26 23  2  0  0  0  0
 27 24  1  0  0  0  0
 28 26  1  0  0  0  0
 28 27  2  0  0  0  0
 29 30  1  0  0  0  0
 30 26  1  0  0  0  0
 31 33  1  0  0  0  0
 31 32  2  0  0  0  0
 34 35  1  0  0  0  0
 35 33  1  0  0  0  0
 37 38  1  1  0  0  0
 37 36  1  0  0  0  0
 39 37  1  0  0  0  0
 40 39  1  0  0  0  0
M  END
>  <MODEL>
5

>  <REMARK>
 VINA RESULT:      -6.9      3.879      8.537
  Name = 
  8 active torsions:
  status: ('A' for Active; 'I' for Inactive)
    1  A    between atoms: C_1  and  O_28
    2  A    between atoms: C_1  and  C_33
    3  A    between atoms: C_4  and  C_7
    4  A    between atoms: C_4  and  C_10
    5  A    between atoms: C_7  and  C_19
    6  A    between atoms: C_16  and  C_25
    7  A    between atoms: C_23  and  O_34
    8  A    between atoms: C_27  and  O_28
                            x       y       z     vdW  Elec       q    Type
                         _______ _______ _______ _____ _____    ______ ____

>  <TORSDO>
F 8

$$$$
=
 OpenBabel11042419433D

 40 43  0  0  1  0  0  0  0  0999 V2000
  188.7010  173.8680  142.3750 C   0  0  0  0  0  0  0  0  0  0  0  0
  190.6670  176.1330  143.9060 N   0  0  0  0  0  2  0  0  0  0  0  0
  189.0140  174.5270  143.3330 C   0  0  0  0  0  0  0  0  0  0  0  0
  191.6010  172.4070  139.5380 C   0  0  0  0  0  0  0  0  0  0  0  0
  194.2220  175.5380  142.5520 C   0  0  1  0  0  3  0  0  0  0  0  0
  192.8010  176.1090  142.5590 C   0  0  0  0  0  2  0  0  0  0  0  0
  190.9150  172.8370  140.7470 C   0  0  0  0  0  0  0  0  0  0  0  0
  192.3650  171.5670  137.0070 C   0  0  0  0  0  3  0  0  0  0  0  0
  191.0010  171.6270  137.3290 C   0  0  0  0  0  3  0  0  0  0  0  0
  192.9740  172.3560  139.2490 C   0  0  0  0  0  0  0  0  0  0  0  0
  193.8650  174.1050  140.7240 N   0  0  0  0  0  2  0  0  0  0  0  0
  191.9180  175.5080  143.6130 C   0  0  0  0  0  0  0  0  0  0  0  0
  194.2550  174.1520  142.0750 N   0  0  0  0  0  2  0  0  0  0  0  0
  189.5250  175.3800  144.4130 C   0  0  2  0  0  3  0  0  0  0  0  0
  188.4650  173.1420  141.1550 C   0  0  0  0  0  3  0  0  0  0  0  0
  192.2290  174.4240  144.1780 O   0  0  0  0  0  0  0  0  0  0  0  0
  190.6450  172.0520  138.6080 C   0  0  0  0  0  0  0  0  0  0  0  0
  189.4870  172.7010  140.4160 C   0  0  0  0  0  0  0  0  0  0  0  0
  194.0050  172.7170  140.2970 C   0  0  2  0  0  3  0  0  0  0  0  0
  191.3860  172.6120  141.9290 N   0  0  0  0  0  1  0  0  0  0  0  0
  189.3130  172.1890  139.0930 N   0  0  0  0  0  0  0  0  0  0  0  0
  193.3410  171.9270  137.9550 C   0  0  0  0  0  3  0  0  0  0  0  0
  186.8780  178.0870  144.4310 C   0  0  0  0  0  3  0  0  0  0  0  0
  188.4600  176.3100  144.9000 C   0  0  0  0  0  0  0  0  0  0  0  0
  187.8690  177.2010  143.9980 C   0  0  0  0  0  3  0  0  0  0  0  0
  186.4690  178.0920  145.7690 C   0  0  0  0  0  0  0  0  0  0  0  0
  188.0550  176.3150  146.2440 C   0  0  0  0  0  3  0  0  0  0  0  0
  187.0640  177.2010  146.6760 C   0  0  0  0  0  3  0  0  0  0  0  0
  184.0910  178.6680  146.1400 C   0  0  0  0  0  1  0  0  0  0  0  0
  185.4750  178.9900  146.1690 O   0  0  0  0  0  0  0  0  0  0  0  0
  195.4200  172.4260  139.8890 C   0  0  0  0  0  0  0  0  0  0  0  0
  195.8770  171.2530  139.9820 O   0  0  0  0  0  0  0  0  0  0  0  0
  196.2260  173.4720  139.4400 O   0  0  0  0  0  0  0  0  0  0  0  0
  195.6390  174.9160  137.6220 C   0  0  0  0  0  1  0  0  0  0  0  0
  196.4420  173.7100  138.0580 C   0  0  0  0  0  2  0  0  0  0  0  0
  195.1750  176.4200  141.7500 C   0  0  0  0  0  2  0  0  0  0  0  0
  196.4010  176.7890  142.5700 C   0  0  1  0  0  3  0  0  0  0  0  0
  196.0770  176.7910  143.9280 O   0  0  0  0  0  1  0  0  0  0  0  0
  197.4990  175.7760  142.3090 C   0  0  0  0  0  2  0  0  0  0  0  0
  197.7480  174.9980  143.5090 N   0  0  0  0  0  1  0  0  0  0  0  0
  1  3  3  0  0  0  0
  2 14  1  0  0  0  0
  3 14  1  0  0  0  0
  4  7  2  0  0  0  0
  5 36  1  6  0  0  0
  5  6  1  0  0  0  0
  6 12  1  0  0  0  0
  7 20  1  0  0  0  0
  8  9  2  0  0  0  0
  8 22  1  0  0  0  0
  9 17  1  0  0  0  0
 10  4  1  0  0  0  0
 10 19  1  0  0  0  0
 11 13  1  0  0  0  0
 12  2  1  0  0  0  0
 12 16  2  0  0  0  0
 13  5  1  0  0  0  0
 14 24  1  6  0  0  0
 15  1  1  0  0  0  0
 17 21  2  0  0  0  0
 17  4  1  0  0  0  0
 18  7  1  0  0  0  0
 18 15  2  0  0  0  0
 19 31  1  6  0  0  0
 19 11  1  0  0  0  0
 21 18  1  0  0  0  0
 22 10  2  0  0  0  0
 23 26  1  0  0  0  0
 24 27  2  0  0  0  0
 25 23  2  0  0  0  0
 25 24  1  0  0  0  0
 26 30  1  0  0  0  0
 26 28  2  0  0  0  0
 27 28  1  0  0  0  0
 29 30  1  0  0  0  0
 31 32  2  0  0  0  0
 33 31  1  0  0  0  0
 34 35  1  0  0  0  0
 35 33  1  0  0  0  0
 36 37  1  0  0  0  0
 37 38  1  1  0  0  0
 39 37  1  0  0  0  0
 39 40  1  0  0  0  0
M  END
>  <MODEL>
6

>  <REMARK>
 VINA RESULT:      -6.7      3.501      9.751
  Name = 
  8 active torsions:
  status: ('A' for Active; 'I' for Inactive)
    1  A    between atoms: C_1  and  O_28
    2  A    between atoms: C_1  and  C_33
    3  A    between atoms: C_4  and  C_7
    4  A    between atoms: C_4  and  C_10
    5  A    between atoms: C_7  and  C_19
    6  A    between atoms: C_16  and  C_25
    7  A    between atoms: C_23  and  O_34
    8  A    between atoms: C_27  and  O_28
                            x       y       z     vdW  Elec       q    Type
                         _______ _______ _______ _____ _____    ______ ____

>  <TORSDO>
F 8

$$$$
=
 OpenBabel11042419433D

 40 43  0  0  1  0  0  0  0  0999 V2000
  189.4100  173.1010  143.4500 C   0  0  0  0  0  0  0  0  0  0  0  0
  191.0960  175.7780  144.6050 N   0  0  0  0  0  2  0  0  0  0  0  0
  189.4840  174.1060  144.1090 C   0  0  0  0  0  0  0  0  0  0  0  0
  192.7990  170.5130  142.8140 C   0  0  0  0  0  0  0  0  0  0  0  0
  194.7270  174.6030  145.1180 C   0  0  1  0  0  3  0  0  0  0  0  0
  193.5230  175.1410  144.3380 C   0  0  0  0  0  2  0  0  0  0  0  0
  191.8250  171.4340  143.3780 C   0  0  0  0  0  0  0  0  0  0  0  0
  194.2320  168.6450  141.3450 C   0  0  0  0  0  3  0  0  0  0  0  0
  192.8770  168.8600  141.0500 C   0  0  0  0  0  2  0  0  0  0  0  0
  194.1520  170.3210  143.1360 C   0  0  0  0  0  0  0  0  0  0  0  0
  194.7760  172.5240  144.0230 N   0  0  0  0  0  2  0  0  0  0  0  0
  192.2340  175.0690  145.1010 C   0  0  0  0  0  0  0  0  0  0  0  0
  194.6700  173.1470  145.2810 N   0  0  0  0  0  2  0  0  0  0  0  0
  189.7320  175.3360  144.8720 C   0  0  2  0  0  3  0  0  0  0  0  0
  189.4870  171.9210  142.6300 C   0  0  0  0  0  2  0  0  0  0  0  0
  192.1230  174.3340  146.1200 O   0  0  0  0  0  0  0  0  0  0  0  0
  192.1810  169.8020  141.8040 C   0  0  0  0  0  0  0  0  0  0  0  0
  190.6030  171.1880  142.5930 C   0  0  0  0  0  0  0  0  0  0  0  0
  194.7990  171.0860  144.2700 C   0  0  2  0  0  3  0  0  0  0  0  0
  191.8030  171.7380  144.6340 N   0  0  0  0  0  1  0  0  0  0  0  0
  190.8120  170.1560  141.6270 N   0  0  0  0  0  0  0  0  0  0  0  0
  194.8630  169.3670  142.3750 C   0  0  0  0  0  3  0  0  0  0  0  0
  186.9220  177.8630  145.1130 C   0  0  0  0  0  3  0  0  0  0  0  0
  188.7540  176.4010  144.4900 C   0  0  0  0  0  0  0  0  0  0  0  0
  187.8510  176.8730  145.4490 C   0  0  0  0  0  3  0  0  0  0  0  0
  186.8840  178.3880  143.8180 C   0  0  0  0  0  0  0  0  0  0  0  0
  188.7180  176.9240  143.1880 C   0  0  0  0  0  3  0  0  0  0  0  0
  187.7880  177.9120  142.8540 C   0  0  0  0  0  3  0  0  0  0  0  0
  184.6910  179.4740  144.1800 C   0  0  0  0  0  1  0  0  0  0  0  0
  185.9430  179.3770  143.5150 O   0  0  0  0  0  0  0  0  0  0  0  0
  196.1880  170.6270  144.6050 C   0  0  0  0  0  0  0  0  0  0  0  0
  197.1850  171.1570  144.0390 O   0  0  0  0  0  0  0  0  0  0  0  0
  196.3580  169.5900  145.5220 O   0  0  0  0  0  0  0  0  0  0  0  0
  196.0600  168.5090  147.6380 C   0  0  0  0  0  1  0  0  0  0  0  0
  195.4120  169.3380  146.5500 C   0  0  0  0  0  2  0  0  0  0  0  0
  196.0450  175.0350  144.4810 C   0  0  0  0  0  2  0  0  0  0  0  0
  195.8050  175.9750  143.3100 C   0  0  1  0  0  3  0  0  0  0  0  0
  196.5070  177.1660  143.5110 O   0  0  0  0  0  1  0  0  0  0  0  0
  196.2820  175.3110  142.0320 C   0  0  0  0  0  2  0  0  0  0  0  0
  196.2820  176.2740  140.9460 N   0  0  0  0  0  1  0  0  0  0  0  0
  1  3  3  0  0  0  0
  2 14  1  0  0  0  0
  2 12  1  0  0  0  0
  3 14  1  0  0  0  0
  4 10  2  0  0  0  0
  4  7  1  0  0  0  0
  5 36  1  6  0  0  0
  5 13  1  0  0  0  0
  6 12  1  0  0  0  0
  6  5  1  0  0  0  0
  7 20  1  0  0  0  0
  8 22  2  0  0  0  0
  9  8  1  0  0  0  0
  9 17  1  0  0  0  0
 10 19  1  0  0  0  0
 11 19  1  0  0  0  0
 11 13  1  0  0  0  0
 12 16  2  0  0  0  0
 14 24  1  6  0  0  0
 15  1  1  0  0  0  0
 17  4  1  0  0  0  0
 18 15  1  0  0  0  0
 18  7  2  0  0  0  0
 19 31  1  6  0  0  0
 21 17  2  0  0  0  0
 21 18  1  0  0  0  0
 22 10  1  0  0  0  0
 23 25  1  0  0  0  0
 24 25  2  0  0  0  0
 26 23  2  0  0  0  0
 27 24  1  0  0  0  0
 28 27  2  0  0  0  0
 28 26  1  0  0  0  0
 30 26  1  0  0  0  0
 30 29  1  0  0  0  0
 31 33  1  0  0  0  0
 32 31  2  0  0  0  0
 33 35  1  0  0  0  0
 35 34  1  0  0  0  0
 37 38  1  1  0  0  0
 37 36  1  0  0  0  0
 39 37  1  0  0  0  0
 40 39  1  0  0  0  0
M  END
>  <MODEL>
7

>  <REMARK>
 VINA RESULT:      -6.6      4.378      9.343
  Name = 
  8 active torsions:
  status: ('A' for Active; 'I' for Inactive)
    1  A    between atoms: C_1  and  O_28
    2  A    between atoms: C_1  and  C_33
    3  A    between atoms: C_4  and  C_7
    4  A    between atoms: C_4  and  C_10
    5  A    between atoms: C_7  and  C_19
    6  A    between atoms: C_16  and  C_25
    7  A    between atoms: C_23  and  O_34
    8  A    between atoms: C_27  and  O_28
                            x       y       z     vdW  Elec       q    Type
                         _______ _______ _______ _____ _____    ______ ____

>  <TORSDO>
F 8

$$$$
=
 OpenBabel11042419433D

 40 43  0  0  1  0  0  0  0  0999 V2000
  193.6180  172.1160  142.0210 C   0  0  0  0  0  0  0  0  0  0  0  0
  193.0630  172.9920  145.2250 N   0  0  0  0  0  2  0  0  0  0  0  0
  194.0030  172.4020  143.1250 C   0  0  0  0  0  0  0  0  0  0  0  0
  190.0180  173.7860  140.3340 C   0  0  0  0  0  0  0  0  0  0  0  0
  189.9920  175.3130  145.1730 C   0  0  1  0  0  3  0  0  0  0  0  0
  190.7400  173.9770  145.2030 C   0  0  0  0  0  2  0  0  0  0  0  0
  191.2590  173.5770  141.0650 C   0  0  0  0  0  0  0  0  0  0  0  0
  187.8210  173.7020  138.6410 C   0  0  0  0  0  3  0  0  0  0  0  0
  188.8880  172.8160  138.4280 C   0  0  0  0  0  3  0  0  0  0  0  0
  188.9690  174.6870  140.5730 C   0  0  0  0  0  0  0  0  0  0  0  0
  189.1470  175.0340  142.9980 N   0  0  0  0  0  2  0  0  0  0  0  0
  192.2140  174.1100  144.9580 C   0  0  0  0  0  0  0  0  0  0  0  0
  189.9220  175.8730  143.8200 N   0  0  0  0  0  2  0  0  0  0  0  0
  194.3170  172.7830  144.5080 C   0  0  2  0  0  3  0  0  0  0  0  0
  193.0010  171.8070  140.7580 C   0  0  0  0  0  3  0  0  0  0  0  0
  192.6950  175.1590  144.4490 O   0  0  0  0  0  0  0  0  0  0  0  0
  189.9800  172.8800  139.2920 C   0  0  0  0  0  0  0  0  0  0  0  0
  191.9140  172.4680  140.3510 C   0  0  0  0  0  0  0  0  0  0  0  0
  189.0500  175.6940  141.7010 C   0  0  2  0  0  3  0  0  0  0  0  0
  191.9160  174.5480  141.6090 N   0  0  0  0  0  1  0  0  0  0  0  0
  191.1330  172.0460  139.2310 N   0  0  0  0  0  0  0  0  0  0  0  0
  187.8600  174.6270  139.7010 C   0  0  0  0  0  3  0  0  0  0  0  0
  197.3060  170.8280  145.7650 C   0  0  0  0  0  3  0  0  0  0  0  0
  195.1300  171.7200  145.1770 C   0  0  0  0  0  0  0  0  0  0  0  0
  196.5250  171.8130  145.1540 C   0  0  0  0  0  3  0  0  0  0  0  0
  196.7020  169.7400  146.4030 C   0  0  0  0  0  0  0  0  0  0  0  0
  194.5190  170.6280  145.8140 C   0  0  0  0  0  3  0  0  0  0  0  0
  195.3010  169.6440  146.4240 C   0  0  0  0  0  3  0  0  0  0  0  0
  197.1900  168.1660  148.2480 C   0  0  0  0  0  1  0  0  0  0  0  0
  197.5120  168.7720  147.0040 O   0  0  0  0  0  0  0  0  0  0  0  0
  187.9390  176.7040  141.7000 C   0  0  0  0  0  0  0  0  0  0  0  0
  188.1380  177.8650  141.2460 O   0  0  0  0  0  0  0  0  0  0  0  0
  186.7010  176.3510  142.2360 O   0  0  0  0  0  0  0  0  0  0  0  0
  184.8490  177.6620  143.0010 C   0  0  0  0  0  1  0  0  0  0  0  0
  186.1620  177.0070  143.3730 C   0  0  0  0  0  2  0  0  0  0  0  0
  188.6020  175.1900  145.7920 C   0  0  0  0  0  2  0  0  0  0  0  0
  188.4110  176.1960  146.9150 C   0  0  1  0  0  3  0  0  0  0  0  0
  189.3210  177.2450  146.7680 O   0  0  0  0  0  1  0  0  0  0  0  0
  186.9950  176.7370  146.8640 C   0  0  0  0  0  2  0  0  0  0  0  0
  186.9680  178.0980  147.3680 N   0  0  0  0  0  1  0  0  0  0  0  0
  1  3  3  0  0  0  0
  3 14  1  0  0  0  0
  4 10  1  0  0  0  0
  4  7  2  0  0  0  0
  5  6  1  0  0  0  0
  5 36  1  6  0  0  0
  7 20  1  0  0  0  0
  8 22  1  0  0  0  0
  9  8  2  0  0  0  0
  9 17  1  0  0  0  0
 10 19  1  0  0  0  0
 11 13  1  0  0  0  0
 12  6  1  0  0  0  0
 12  2  1  0  0  0  0
 13  5  1  0  0  0  0
 14 24  1  1  0  0  0
 14  2  1  0  0  0  0
 15  1  1  0  0  0  0
 16 12  2  0  0  0  0
 17  4  1  0  0  0  0
 18 15  2  0  0  0  0
 18  7  1  0  0  0  0
 19 31  1  1  0  0  0
 19 11  1  0  0  0  0
 21 17  2  0  0  0  0
 21 18  1  0  0  0  0
 22 10  2  0  0  0  0
 23 26  1  0  0  0  0
 24 27  2  0  0  0  0
 25 24  1  0  0  0  0
 25 23  2  0  0  0  0
 26 28  2  0  0  0  0
 26 30  1  0  0  0  0
 27 28  1  0  0  0  0
 30 29  1  0  0  0  0
 31 33  1  0  0  0  0
 32 31  2  0  0  0  0
 33 35  1  0  0  0  0
 34 35  1  0  0  0  0
 36 37  1  0  0  0  0
 37 38  1  6  0  0  0
 39 37  1  0  0  0  0
 39 40  1  0  0  0  0
M  END
>  <MODEL>
8

>  <REMARK>
 VINA RESULT:      -6.3      3.670      7.089
  Name = 
  8 active torsions:
  status: ('A' for Active; 'I' for Inactive)
    1  A    between atoms: C_1  and  O_28
    2  A    between atoms: C_1  and  C_33
    3  A    between atoms: C_4  and  C_7
    4  A    between atoms: C_4  and  C_10
    5  A    between atoms: C_7  and  C_19
    6  A    between atoms: C_16  and  C_25
    7  A    between atoms: C_23  and  O_34
    8  A    between atoms: C_27  and  O_28
                            x       y       z     vdW  Elec       q    Type
                         _______ _______ _______ _____ _____    ______ ____

>  <TORSDO>
F 8

$$$$
=
 OpenBabel11042419433D

 40 43  0  0  1  0  0  0  0  0999 V2000
  185.0400  178.2030  141.0520 C   0  0  0  0  0  0  0  0  0  0  0  0
  187.2860  175.9150  140.0200 N   0  0  0  0  0  2  0  0  0  0  0  0
  185.7790  177.7400  140.2220 C   0  0  0  0  0  0  0  0  0  0  0  0
  185.9000  177.9940  145.2720 C   0  0  2  0  0  3  0  0  0  0  0  0
  189.4440  175.0850  143.0980 C   0  0  1  0  0  3  0  0  0  0  0  0
  188.2390  174.9770  142.1590 C   0  0  0  0  0  2  0  0  0  0  0  0
  185.9990  178.1000  143.8240 C   0  0  0  0  0  0  0  0  0  0  0  0
  185.1430  177.9160  147.9400 C   0  0  0  0  0  3  0  0  0  0  0  0
  184.2170  178.3410  146.9740 C   0  0  0  0  0  3  0  0  0  0  0  0
  186.8500  177.5670  146.2130 C   0  0  0  0  0  0  0  0  0  0  0  0
  188.2460  176.0570  144.8700 N   0  0  0  0  0  2  0  0  0  0  0  0
  188.1930  176.0530  141.1150 C   0  0  0  0  0  0  0  0  0  0  0  0
  189.3370  176.2360  143.9990 N   0  0  0  0  0  2  0  0  0  0  0  0
  186.7300  177.0720  139.3250 C   0  0  2  0  0  3  0  0  0  0  0  0
  184.2180  178.6380  142.1500 C   0  0  0  0  0  2  0  0  0  0  0  0
  188.8820  177.1030  141.2350 O   0  0  0  0  0  0  0  0  0  0  0  0
  184.6240  178.3710  145.6420 C   0  0  0  0  0  0  0  0  0  0  0  0
  184.6630  178.5620  143.4070 C   0  0  0  0  0  0  0  0  0  0  0  0
  188.2540  177.1910  145.7880 C   0  0  2  0  0  3  0  0  0  0  0  0
  187.0850  178.4630  143.2270 N   0  0  0  0  0  1  0  0  0  0  0  0
  183.8110  178.7560  144.5370 N   0  0  0  0  0  0  0  0  0  0  0  0
  186.4440  177.5330  147.5650 C   0  0  0  0  0  3  0  0  0  0  0  0
  184.0190  176.0220  136.8990 C   0  0  0  0  0  3  0  0  0  0  0  0
  186.0540  176.6460  138.0600 C   0  0  0  0  0  0  0  0  0  0  0  0
  184.6730  176.4280  138.0670 C   0  0  0  0  0  3  0  0  0  0  0  0
  184.7390  175.8280  135.7160 C   0  0  0  0  0  0  0  0  0  0  0  0
  186.7810  176.4500  136.8760 C   0  0  0  0  0  3  0  0  0  0  0  0
  186.1270  176.0440  135.7100 C   0  0  0  0  0  3  0  0  0  0  0  0
  182.6400  175.3110  134.5130 C   0  0  0  0  0  1  0  0  0  0  0  0
  184.0560  175.4210  134.5670 O   0  0  0  0  0  0  0  0  0  0  0  0
  189.1940  176.9440  146.9300 C   0  0  0  0  0  0  0  0  0  0  0  0
  189.6900  177.9160  147.5650 O   0  0  0  0  0  0  0  0  0  0  0  0
  189.5340  175.6310  147.2580 O   0  0  0  0  0  0  0  0  0  0  0  0
  191.7950  175.2920  146.5470 C   0  0  0  0  0  1  0  0  0  0  0  0
  190.8320  175.2860  147.7150 C   0  0  0  0  0  2  0  0  0  0  0  0
  189.6640  173.7920  143.8780 C   0  0  0  0  0  2  0  0  0  0  0  0
  190.7080  172.9160  143.2060 C   0  0  1  0  0  3  0  0  0  0  0  0
  191.5370  173.7030  142.4030 O   0  0  0  0  0  1  0  0  0  0  0  0
  191.5370  172.2230  144.2700 C   0  0  0  0  0  2  0  0  0  0  0  0
  192.9210  172.6540  144.1770 N   0  0  0  0  0  1  0  0  0  0  0  0
  1 15  1  0  0  0  0
  2 12  1  0  0  0  0
  3  1  3  0  0  0  0
  4  7  1  6  0  0  0
  4 17  1  0  0  0  0
  4 10  1  0  0  0  0
  5 36  1  1  0  0  0
  5 13  1  0  0  0  0
  6  5  1  0  0  0  0
  9  8  2  0  0  0  0
 10 22  2  0  0  0  0
 11 19  1  0  0  0  0
 12 16  2  0  0  0  0
 12  6  1  0  0  0  0
 13 11  1  0  0  0  0
 14 24  1  6  0  0  0
 14  2  1  0  0  0  0
 14  3  1  0  0  0  0
 15 18  1  0  0  0  0
 17  9  1  0  0  0  0
 18  7  2  0  0  0  0
 18 21  1  0  0  0  0
 19 10  1  0  0  0  0
 19 31  1  1  0  0  0
 20  7  1  0  0  0  0
 21 17  2  0  0  0  0
 22  8  1  0  0  0  0
 23 25  1  0  0  0  0
 24 25  2  0  0  0  0
 26 23  2  0  0  0  0
 27 24  1  0  0  0  0
 28 26  1  0  0  0  0
 28 27  2  0  0  0  0
 29 30  1  0  0  0  0
 30 26  1  0  0  0  0
 31 33  1  0  0  0  0
 31 32  2  0  0  0  0
 33 35  1  0  0  0  0
 34 35  1  0  0  0  0
 37 38  1  6  0  0  0
 37 36  1  0  0  0  0
 37 39  1  0  0  0  0
 40 39  1  0  0  0  0
M  END
>  <MODEL>
9

>  <REMARK>
 VINA RESULT:      -6.3      3.247      6.659
  Name = 
  8 active torsions:
  status: ('A' for Active; 'I' for Inactive)
    1  A    between atoms: C_1  and  O_28
    2  A    between atoms: C_1  and  C_33
    3  A    between atoms: C_4  and  C_7
    4  A    between atoms: C_4  and  C_10
    5  A    between atoms: C_7  and  C_19
    6  A    between atoms: C_16  and  C_25
    7  A    between atoms: C_23  and  O_34
    8  A    between atoms: C_27  and  O_28
                            x       y       z     vdW  Elec       q    Type
                         _______ _______ _______ _____ _____    ______ ____

>  <TORSDO>
F 8

$$$$
