=
 OpenBabel11042419213D

 42 46  0  0  1  0  0  0  0  0999 V2000
  195.1790  175.9460  143.6320 C   0  0  0  0  0  0  0  0  0  0  0  0
  194.7910  176.3780  144.8040 N   0  0  0  0  0  0  0  0  0  0  0  0
  193.5260  172.8160  142.3030 C   0  0  0  0  0  3  0  0  0  0  0  0
  194.2070  173.6430  143.1000 C   0  0  0  0  0  3  0  0  0  0  0  0
  192.7910  174.7540  140.9770 N   0  0  0  0  0  2  0  0  0  0  0  0
  192.9500  173.2970  140.9970 C   0  0  2  0  0  3  0  0  0  0  0  0
  194.3490  175.0770  142.7730 C   0  0  0  0  0  0  0  0  0  0  0  0
  193.6160  175.6000  141.7840 C   0  0  0  0  0  3  0  0  0  0  0  0
  191.3000  172.7440  139.1820 C   0  0  0  0  0  2  0  0  0  0  0  0
  189.8620  172.6290  139.0530 N   0  0  0  0  0  2  0  0  0  0  0  0
  187.9470  172.7340  140.3810 O   0  0  0  0  0  0  0  0  0  0  0  0
  190.2380  173.1830  141.6750 S   0  0  0  0  0  0  0  0  0  0  0  0
  189.1970  172.8410  140.2800 C   0  0  0  0  0  0  0  0  0  0  0  0
  191.6440  172.5830  140.6640 C   0  0  2  0  0  3  0  0  0  0  0  0
  191.9120  175.2260  146.9270 C   0  0  0  0  0  3  0  0  0  0  0  0
  191.1660  176.9810  145.4370 C   0  0  0  0  0  3  0  0  0  0  0  0
  193.2020  175.3300  146.4010 C   0  0  0  0  0  3  0  0  0  0  0  0
  192.4590  177.0870  144.9140 C   0  0  0  0  0  3  0  0  0  0  0  0
  190.8920  176.0500  146.4420 C   0  0  0  0  0  0  0  0  0  0  0  0
  193.4910  176.2800  145.4070 C   0  0  0  0  0  0  0  0  0  0  0  0
  189.5290  175.9680  147.0340 C   0  0  0  0  0  2  0  0  0  0  0  0
  188.6060  175.6000  146.0390 O   0  0  0  0  0  0  0  0  0  0  0  0
  183.9120  178.8310  145.7360 C   0  0  0  0  0  1  0  0  0  0  0  0
  187.6430  176.6250  145.9020 C   0  0  1  0  0  3  0  0  0  0  0  0
  184.9180  177.7080  145.8600 C   0  0  2  0  0  3  0  0  0  0  0  0
  185.8540  177.9950  147.0250 C   0  0  0  0  0  2  0  0  0  0  0  0
  186.7470  176.4740  144.6440 C   0  0  1  0  0  3  0  0  0  0  0  0
  186.8400  176.8460  147.1930 C   0  0  0  0  0  2  0  0  0  0  0  0
  185.7230  177.6080  144.5690 C   0  0  0  0  0  2  0  0  0  0  0  0
  186.8370  175.8060  142.3220 O   0  0  0  0  0  1  0  0  0  0  0  0
  187.5450  176.4560  143.3370 C   0  0  1  0  0  3  0  0  0  0  0  0
  189.3650  177.8820  142.4040 C   0  0  0  0  0  1  0  0  0  0  0  0
  187.9340  177.8590  142.9030 C   0  0  0  0  0  2  0  0  0  0  0  0
  196.5640  176.2750  143.1540 C   0  0  2  0  0  3  0  0  0  0  0  0
  197.7920  174.4950  144.2780 O   0  0  0  0  0  0  0  0  0  0  0  0
  196.5560  176.5530  141.7230 N   0  0  0  0  0  0  0  0  0  0  0  0
  197.9410  174.7300  141.9400 N   0  0  0  0  0  2  0  0  0  0  0  0
  197.4630  175.0950  143.2210 C   0  0  0  0  0  0  0  0  0  0  0  0
  197.3190  175.7040  141.1090 C   0  0  0  0  0  0  0  0  0  0  0  0
  197.5030  175.7320  139.6340 C   0  0  0  0  0  2  0  0  0  0  0  0
  196.3080  175.3880  139.0030 O   0  0  0  0  0  0  0  0  0  0  0  0
  196.7020  174.6550  137.8860 C   0  0  0  0  0  1  0  0  0  0  0  0
  1  2  2  0  0  0  0
  2 20  1  0  0  0  0
  3  4  2  0  0  0  0
  5  6  1  0  0  0  0
  5  8  1  0  0  0  0
  6  3  1  1  0  0  0
  7  4  1  0  0  0  0
  7  1  1  0  0  0  0
  8  7  2  0  0  0  0
 10  9  1  0  0  0  0
 10 13  1  0  0  0  0
 13 11  2  0  0  0  0
 13 12  1  0  0  0  0
 14  9  1  6  0  0  0
 14  6  1  0  0  0  0
 14 12  1  0  0  0  0
 16 19  2  0  0  0  0
 17 15  2  0  0  0  0
 18 20  2  0  0  0  0
 18 16  1  0  0  0  0
 19 15  1  0  0  0  0
 19 21  1  0  0  0  0
 20 17  1  0  0  0  0
 22 21  1  0  0  0  0
 24 22  1  1  0  0  0
 24 28  1  0  0  0  0
 25 23  1  6  0  0  0
 25 26  1  0  0  0  0
 26 28  1  0  0  0  0
 27 31  1  6  0  0  0
 27 24  1  0  0  0  0
 29 27  1  0  0  0  0
 29 25  1  0  0  0  0
 31 30  1  6  0  0  0
 32 33  1  0  0  0  0
 33 31  1  0  0  0  0
 34 38  1  0  0  0  0
 34  1  1  6  0  0  0
 36 34  1  0  0  0  0
 37 38  1  0  0  0  0
 38 35  2  0  0  0  0
 39 36  2  0  0  0  0
 39 37  1  0  0  0  0
 40 39  1  0  0  0  0
 41 40  1  0  0  0  0
 42 41  1  0  0  0  0
M  END
>  <MODEL>
1

>  <REMARK>
 VINA RESULT:      -7.5      0.000      0.000
  Name = 
  11 active torsions:
  status: ('A' for Active; 'I' for Inactive)
    1  A    between atoms: C_7  and  C_17
    2  A    between atoms: C_7  and  C_20
    3  A    between atoms: O_8  and  C_34
    4  A    between atoms: C_9  and  O_37
    5  A    between atoms: C_15  and  C_29
    6  A    between atoms: C_15  and  O_37
    7  A    between atoms: C_18  and  C_35
    8  A    between atoms: C_24  and  C_26
    9  A    between atoms: C_24  and  C_31
   10  A    between atoms: C_34  and  C_41
   11  A    between atoms: N_40  and  C_42
                            x       y       z     vdW  Elec       q    Type
                         _______ _______ _______ _____ _____    ______ ____

>  <TORSDO>
F 11

$$$$
=
 OpenBabel11042419213D

 42 46  0  0  1  0  0  0  0  0999 V2000
  193.0530  174.6050  145.6640 C   0  0  0  0  0  0  0  0  0  0  0  0
  192.3490  175.0660  146.6650 N   0  0  0  0  0  0  0  0  0  0  0  0
  192.2850  175.2030  142.0090 C   0  0  0  0  0  3  0  0  0  0  0  0
  192.8330  175.3260  143.2210 C   0  0  0  0  0  3  0  0  0  0  0  0
  191.2870  173.0670  142.7160 N   0  0  0  0  0  2  0  0  0  0  0  0
  191.2380  174.1560  141.7340 C   0  0  2  0  0  3  0  0  0  0  0  0
  192.4950  174.3900  144.3130 C   0  0  0  0  0  0  0  0  0  0  0  0
  191.7980  173.2810  144.0350 C   0  0  0  0  0  3  0  0  0  0  0  0
  190.7160  172.2350  140.1990 C   0  0  0  0  0  2  0  0  0  0  0  0
  191.3520  171.5610  139.0860 N   0  0  0  0  0  2  0  0  0  0  0  0
  193.2580  171.7480  137.7530 O   0  0  0  0  0  0  0  0  0  0  0  0
  193.0570  173.5750  139.6890 S   0  0  0  0  0  0  0  0  0  0  0  0
  192.5800  172.1610  138.7300 C   0  0  0  0  0  0  0  0  0  0  0  0
  191.3310  173.6310  140.3060 C   0  0  2  0  0  3  0  0  0  0  0  0
  188.6060  175.3740  146.7870 C   0  0  0  0  0  3  0  0  0  0  0  0
  189.5750  177.5170  146.2170 C   0  0  0  0  0  3  0  0  0  0  0  0
  189.8850  174.8180  146.8660 C   0  0  0  0  0  3  0  0  0  0  0  0
  190.8560  176.9610  146.3000 C   0  0  0  0  0  3  0  0  0  0  0  0
  188.4500  176.7240  146.4590 C   0  0  0  0  0  0  0  0  0  0  0  0
  191.0220  175.6140  146.6470 C   0  0  0  0  0  0  0  0  0  0  0  0
  187.0890  177.3240  146.4190 C   0  0  0  0  0  2  0  0  0  0  0  0
  186.2580  176.5520  145.5880 O   0  0  0  0  0  0  0  0  0  0  0  0
  184.3250  178.6210  140.6340 C   0  0  0  0  0  1  0  0  0  0  0  0
  186.0090  177.2650  144.3940 C   0  0  1  0  0  3  0  0  0  0  0  0
  184.5860  177.8210  141.8920 C   0  0  2  0  0  3  0  0  0  0  0  0
  184.4070  178.7190  143.1080 C   0  0  0  0  0  2  0  0  0  0  0  0
  186.3160  176.4540  143.1080 C   0  0  1  0  0  3  0  0  0  0  0  0
  184.6160  177.9120  144.3820 C   0  0  0  0  0  2  0  0  0  0  0  0
  186.0110  177.2820  141.8590 C   0  0  0  0  0  2  0  0  0  0  0  0
  187.8410  174.6210  142.7040 O   0  0  0  0  0  1  0  0  0  0  0  0
  187.7700  175.9790  143.0300 C   0  0  1  0  0  3  0  0  0  0  0  0
  189.5820  177.6730  142.7750 C   0  0  0  0  0  1  0  0  0  0  0  0
  188.5740  176.8080  142.0430 C   0  0  0  0  0  2  0  0  0  0  0  0
  194.4780  174.1960  145.8990 C   0  0  2  0  0  3  0  0  0  0  0  0
  194.2420  171.7890  145.5920 O   0  0  0  0  0  0  0  0  0  0  0  0
  195.3870  175.0760  145.1760 N   0  0  0  0  0  0  0  0  0  0  0  0
  195.7870  172.9940  144.2860 N   0  0  0  0  0  2  0  0  0  0  0  0
  194.7810  172.8820  145.2760 C   0  0  0  0  0  0  0  0  0  0  0  0
  196.0810  174.3860  144.3260 C   0  0  0  0  0  0  0  0  0  0  0  0
  197.0890  175.0170  143.4340 C   0  0  0  0  0  2  0  0  0  0  0  0
  196.5430  175.2080  142.1650 O   0  0  0  0  0  0  0  0  0  0  0  0
  196.3770  176.5870  142.0610 C   0  0  0  0  0  1  0  0  0  0  0  0
  1  2  2  0  0  0  0
  3  4  2  0  0  0  0
  4  7  1  0  0  0  0
  5  8  1  0  0  0  0
  6  3  1  1  0  0  0
  6  5  1  0  0  0  0
  7  1  1  0  0  0  0
  8  7  2  0  0  0  0
 10  9  1  0  0  0  0
 11 13  2  0  0  0  0
 12 14  1  0  0  0  0
 13 10  1  0  0  0  0
 13 12  1  0  0  0  0
 14  9  1  1  0  0  0
 14  6  1  0  0  0  0
 15 17  1  0  0  0  0
 16 18  2  0  0  0  0
 16 19  1  0  0  0  0
 18 20  1  0  0  0  0
 19 15  2  0  0  0  0
 20  2  1  0  0  0  0
 20 17  2  0  0  0  0
 21 19  1  0  0  0  0
 22 21  1  0  0  0  0
 24 22  1  1  0  0  0
 25 23  1  6  0  0  0
 25 26  1  0  0  0  0
 26 28  1  0  0  0  0
 27 31  1  1  0  0  0
 27 24  1  0  0  0  0
 28 24  1  0  0  0  0
 29 25  1  0  0  0  0
 29 27  1  0  0  0  0
 31 30  1  6  0  0  0
 33 32  1  0  0  0  0
 33 31  1  0  0  0  0
 34  1  1  6  0  0  0
 36 34  1  0  0  0  0
 37 39  1  0  0  0  0
 37 38  1  0  0  0  0
 38 35  2  0  0  0  0
 38 34  1  0  0  0  0
 39 36  2  0  0  0  0
 40 39  1  0  0  0  0
 41 40  1  0  0  0  0
 42 41  1  0  0  0  0
M  END
>  <MODEL>
2

>  <REMARK>
 VINA RESULT:      -7.2      2.193      3.208
  Name = 
  11 active torsions:
  status: ('A' for Active; 'I' for Inactive)
    1  A    between atoms: C_7  and  C_17
    2  A    between atoms: C_7  and  C_20
    3  A    between atoms: O_8  and  C_34
    4  A    between atoms: C_9  and  O_37
    5  A    between atoms: C_15  and  C_29
    6  A    between atoms: C_15  and  O_37
    7  A    between atoms: C_18  and  C_35
    8  A    between atoms: C_24  and  C_26
    9  A    between atoms: C_24  and  C_31
   10  A    between atoms: C_34  and  C_41
   11  A    between atoms: N_40  and  C_42
                            x       y       z     vdW  Elec       q    Type
                         _______ _______ _______ _____ _____    ______ ____

>  <TORSDO>
F 11

$$$$
=
 OpenBabel11042419213D

 42 46  0  0  1  0  0  0  0  0999 V2000
  189.4440  176.1620  144.2350 C   0  0  0  0  0  0  0  0  0  0  0  0
  188.9410  175.0020  143.8990 N   0  0  0  0  0  0  0  0  0  0  0  0
  192.7330  176.4140  146.0850 C   0  0  0  0  0  3  0  0  0  0  0  0
  191.4510  176.1520  145.8190 C   0  0  0  0  0  3  0  0  0  0  0  0
  193.1090  176.8310  143.6890 N   0  0  0  0  0  2  0  0  0  0  0  0
  193.6300  177.0310  145.0450 C   0  0  2  0  0  3  0  0  0  0  0  0
  190.8860  176.3810  144.4730 C   0  0  0  0  0  0  0  0  0  0  0  0
  191.7100  176.6510  143.4530 C   0  0  0  0  0  3  0  0  0  0  0  0
  195.7270  176.4160  143.8010 C   0  0  0  0  0  2  0  0  0  0  0  0
  196.7640  175.4100  143.8990 N   0  0  0  0  0  2  0  0  0  0  0  0
  197.4110  173.6580  145.2980 O   0  0  0  0  0  0  0  0  0  0  0  0
  195.1720  174.9150  146.0310 S   0  0  0  0  0  0  0  0  0  0  0  0
  196.5840  174.5640  145.0160 C   0  0  0  0  0  0  0  0  0  0  0  0
  195.0660  176.5320  145.1750 C   0  0  2  0  0  3  0  0  0  0  0  0
  190.4840  172.2640  141.8390 C   0  0  0  0  0  3  0  0  0  0  0  0
  190.6380  171.6940  144.1860 C   0  0  0  0  0  3  0  0  0  0  0  0
  189.8540  173.4650  142.1740 C   0  0  0  0  0  3  0  0  0  0  0  0
  190.0110  172.8990  144.5210 C   0  0  0  0  0  3  0  0  0  0  0  0
  190.8740  171.3760  142.8460 C   0  0  0  0  0  0  0  0  0  0  0  0
  189.6350  173.8030  143.5200 C   0  0  0  0  0  0  0  0  0  0  0  0
  191.5840  170.1180  142.4900 C   0  0  0  0  0  2  0  0  0  0  0  0
  192.8780  170.4210  142.0320 O   0  0  0  0  0  0  0  0  0  0  0  0
  195.7080  169.2900  146.8570 C   0  0  0  0  0  1  0  0  0  0  0  0
  193.8140  170.0870  143.0370 C   0  0  1  0  0  3  0  0  0  0  0  0
  194.6930  169.6810  145.8040 C   0  0  2  0  0  3  0  0  0  0  0  0
  194.4370  168.4960  144.8850 C   0  0  0  0  0  2  0  0  0  0  0  0
  194.2350  171.2900  143.9220 C   0  0  1  0  0  3  0  0  0  0  0  0
  193.3790  168.8600  143.8530 C   0  0  0  0  0  2  0  0  0  0  0  0
  195.2360  170.8510  144.9920 C   0  0  0  0  0  2  0  0  0  0  0  0
  195.5000  171.9600  141.9730 O   0  0  0  0  0  1  0  0  0  0  0  0
  194.8570  172.4370  143.1200 C   0  0  1  0  0  3  0  0  0  0  0  0
  193.9960  173.9240  141.3130 C   0  0  0  0  0  1  0  0  0  0  0  0
  193.8210  173.4860  142.7540 C   0  0  0  0  0  2  0  0  0  0  0  0
  188.5190  177.3190  144.4720 C   0  0  2  0  0  3  0  0  0  0  0  0
  187.8310  177.7390  142.1720 O   0  0  0  0  0  0  0  0  0  0  0  0
  187.6400  177.0460  145.6030 N   0  0  0  0  0  0  0  0  0  0  0  0
  186.2080  177.3140  143.8240 N   0  0  0  0  0  2  0  0  0  0  0  0
  187.5380  177.4740  143.3670 C   0  0  0  0  0  0  0  0  0  0  0  0
  186.4050  177.0640  145.2120 C   0  0  0  0  0  0  0  0  0  0  0  0
  185.2770  176.8070  146.1460 C   0  0  0  0  0  2  0  0  0  0  0  0
  184.4290  177.9130  146.1750 O   0  0  0  0  0  0  0  0  0  0  0  0
  184.8750  178.6660  147.2590 C   0  0  0  0  0  1  0  0  0  0  0  0
  1  7  1  0  0  0  0
  2  1  2  0  0  0  0
  4  3  2  0  0  0  0
  5  6  1  0  0  0  0
  6 14  1  0  0  0  0
  6  3  1  1  0  0  0
  7  4  1  0  0  0  0
  8  5  1  0  0  0  0
  8  7  2  0  0  0  0
  9 10  1  0  0  0  0
 10 13  1  0  0  0  0
 13 11  2  0  0  0  0
 13 12  1  0  0  0  0
 14  9  1  6  0  0  0
 14 12  1  0  0  0  0
 15 17  2  0  0  0  0
 15 19  1  0  0  0  0
 16 18  1  0  0  0  0
 17 20  1  0  0  0  0
 19 16  2  0  0  0  0
 20  2  1  0  0  0  0
 20 18  2  0  0  0  0
 21 19  1  0  0  0  0
 22 21  1  0  0  0  0
 24 22  1  6  0  0  0
 24 28  1  0  0  0  0
 24 27  1  0  0  0  0
 25 23  1  1  0  0  0
 26 25  1  0  0  0  0
 27 31  1  6  0  0  0
 27 29  1  0  0  0  0
 28 26  1  0  0  0  0
 29 25  1  0  0  0  0
 31 30  1  6  0  0  0
 32 33  1  0  0  0  0
 33 31  1  0  0  0  0
 34  1  1  6  0  0  0
 34 36  1  0  0  0  0
 35 38  2  0  0  0  0
 37 39  1  0  0  0  0
 38 37  1  0  0  0  0
 38 34  1  0  0  0  0
 39 36  2  0  0  0  0
 39 40  1  0  0  0  0
 40 41  1  0  0  0  0
 41 42  1  0  0  0  0
M  END
>  <MODEL>
3

>  <REMARK>
 VINA RESULT:      -7.2      3.413      9.064
  Name = 
  11 active torsions:
  status: ('A' for Active; 'I' for Inactive)
    1  A    between atoms: C_7  and  C_17
    2  A    between atoms: C_7  and  C_20
    3  A    between atoms: O_8  and  C_34
    4  A    between atoms: C_9  and  O_37
    5  A    between atoms: C_15  and  C_29
    6  A    between atoms: C_15  and  O_37
    7  A    between atoms: C_18  and  C_35
    8  A    between atoms: C_24  and  C_26
    9  A    between atoms: C_24  and  C_31
   10  A    between atoms: C_34  and  C_41
   11  A    between atoms: N_40  and  C_42
                            x       y       z     vdW  Elec       q    Type
                         _______ _______ _______ _____ _____    ______ ____

>  <TORSDO>
F 11

$$$$
=
 OpenBabel11042419213D

 42 46  0  0  1  0  0  0  0  0999 V2000
  188.3140  176.4150  145.3500 C   0  0  0  0  0  0  0  0  0  0  0  0
  189.3080  176.9370  146.0200 N   0  0  0  0  0  0  0  0  0  0  0  0
  188.3970  175.8040  141.6190 C   0  0  0  0  0  3  0  0  0  0  0  0
  188.3220  176.4350  142.7940 C   0  0  0  0  0  3  0  0  0  0  0  0
  189.1200  173.7680  142.7960 N   0  0  0  0  0  2  0  0  0  0  0  0
  188.5680  174.3100  141.5500 C   0  0  2  0  0  3  0  0  0  0  0  0
  188.4870  175.7030  144.0670 C   0  0  0  0  0  0  0  0  0  0  0  0
  188.9260  174.4390  144.0450 C   0  0  0  0  0  3  0  0  0  0  0  0
  188.5150  173.7420  139.1020 C   0  0  0  0  0  2  0  0  0  0  0  0
  189.1670  172.8000  138.2150 N   0  0  0  0  0  2  0  0  0  0  0  0
  190.8290  171.1640  138.2760 O   0  0  0  0  0  0  0  0  0  0  0  0
  190.3190  172.3360  140.6200 S   0  0  0  0  0  0  0  0  0  0  0  0
  190.1230  172.0070  138.8880 C   0  0  0  0  0  0  0  0  0  0  0  0
  189.3990  173.8960  140.3400 C   0  0  2  0  0  3  0  0  0  0  0  0
  192.9520  176.1630  146.5200 C   0  0  0  0  0  3  0  0  0  0  0  0
  192.6380  177.2200  144.3650 C   0  0  0  0  0  3  0  0  0  0  0  0
  191.5780  176.2430  146.7570 C   0  0  0  0  0  3  0  0  0  0  0  0
  191.2620  177.2960  144.6020 C   0  0  0  0  0  3  0  0  0  0  0  0
  193.4840  176.6550  145.3240 C   0  0  0  0  0  0  0  0  0  0  0  0
  190.7180  176.7880  145.7890 C   0  0  0  0  0  0  0  0  0  0  0  0
  194.9410  176.5290  145.0540 C   0  0  0  0  0  2  0  0  0  0  0  0
  195.1560  175.5400  144.0780 O   0  0  0  0  0  0  0  0  0  0  0  0
  196.9660  170.4470  145.9080 C   0  0  0  0  0  1  0  0  0  0  0  0
  195.3620  174.2980  144.7190 C   0  0  1  0  0  3  0  0  0  0  0  0
  196.7530  171.7590  145.1850 C   0  0  2  0  0  3  0  0  0  0  0  0
  196.8710  172.9080  146.1770 C   0  0  0  0  0  2  0  0  0  0  0  0
  195.1110  173.0730  143.8000 C   0  0  1  0  0  3  0  0  0  0  0  0
  196.7110  174.2370  145.4510 C   0  0  0  0  0  2  0  0  0  0  0  0
  195.3660  171.7670  144.5550 C   0  0  0  0  0  2  0  0  0  0  0  0
  193.4890  171.8810  142.4600 O   0  0  0  0  0  1  0  0  0  0  0  0
  193.6910  173.0320  143.2290 C   0  0  1  0  0  3  0  0  0  0  0  0
  191.7570  171.9030  144.3240 C   0  0  0  0  0  1  0  0  0  0  0  0
  192.6460  173.1310  144.3270 C   0  0  0  0  0  2  0  0  0  0  0  0
  186.9130  176.6060  145.8540 C   0  0  2  0  0  3  0  0  0  0  0  0
  187.3540  178.2400  147.6080 O   0  0  0  0  0  0  0  0  0  0  0  0
  185.9880  176.7600  144.7390 N   0  0  0  0  0  0  0  0  0  0  0  0
  185.8080  178.7350  145.9020 N   0  0  0  0  0  2  0  0  0  0  0  0
  186.7540  177.9060  146.5530 C   0  0  0  0  0  0  0  0  0  0  0  0
  185.4060  177.9160  144.8100 C   0  0  0  0  0  0  0  0  0  0  0  0
  184.4120  178.3630  143.7990 C   0  0  0  0  0  2  0  0  0  0  0  0
  185.0700  178.9270  142.7070 O   0  0  0  0  0  0  0  0  0  0  0  0
  184.7340  178.1050  141.6350 C   0  0  0  0  0  1  0  0  0  0  0  0
  1  2  2  0  0  0  0
  3  4  2  0  0  0  0
  4  7  1  0  0  0  0
  5  8  1  0  0  0  0
  6  3  1  1  0  0  0
  6  5  1  0  0  0  0
  7  1  1  0  0  0  0
  8  7  2  0  0  0  0
 10 13  1  0  0  0  0
 10  9  1  0  0  0  0
 11 13  2  0  0  0  0
 13 12  1  0  0  0  0
 14  9  1  6  0  0  0
 14 12  1  0  0  0  0
 14  6  1  0  0  0  0
 15 17  1  0  0  0  0
 16 18  2  0  0  0  0
 16 19  1  0  0  0  0
 18 20  1  0  0  0  0
 19 15  2  0  0  0  0
 20  2  1  0  0  0  0
 20 17  2  0  0  0  0
 21 19  1  0  0  0  0
 22 21  1  0  0  0  0
 24 22  1  6  0  0  0
 24 28  1  0  0  0  0
 25 23  1  1  0  0  0
 25 26  1  0  0  0  0
 27 31  1  1  0  0  0
 27 29  1  0  0  0  0
 27 24  1  0  0  0  0
 28 26  1  0  0  0  0
 29 25  1  0  0  0  0
 31 30  1  1  0  0  0
 31 33  1  0  0  0  0
 32 33  1  0  0  0  0
 34  1  1  6  0  0  0
 34 38  1  0  0  0  0
 36 39  2  0  0  0  0
 36 34  1  0  0  0  0
 37 38  1  0  0  0  0
 38 35  2  0  0  0  0
 39 37  1  0  0  0  0
 40 39  1  0  0  0  0
 41 40  1  0  0  0  0
 42 41  1  0  0  0  0
M  END
>  <MODEL>
4

>  <REMARK>
 VINA RESULT:      -7.1      3.193      8.314
  Name = 
  11 active torsions:
  status: ('A' for Active; 'I' for Inactive)
    1  A    between atoms: C_7  and  C_17
    2  A    between atoms: C_7  and  C_20
    3  A    between atoms: O_8  and  C_34
    4  A    between atoms: C_9  and  O_37
    5  A    between atoms: C_15  and  C_29
    6  A    between atoms: C_15  and  O_37
    7  A    between atoms: C_18  and  C_35
    8  A    between atoms: C_24  and  C_26
    9  A    between atoms: C_24  and  C_31
   10  A    between atoms: C_34  and  C_41
   11  A    between atoms: N_40  and  C_42
                            x       y       z     vdW  Elec       q    Type
                         _______ _______ _______ _____ _____    ______ ____

>  <TORSDO>
F 11

$$$$
=
 OpenBabel11042419213D

 42 46  0  0  1  0  0  0  0  0999 V2000
  188.7810  175.9500  144.8150 C   0  0  0  0  0  0  0  0  0  0  0  0
  189.6240  176.9020  145.1190 N   0  0  0  0  0  0  0  0  0  0  0  0
  189.6550  173.2250  142.3420 C   0  0  0  0  0  3  0  0  0  0  0  0
  189.3520  174.4250  142.8440 C   0  0  0  0  0  3  0  0  0  0  0  0
  190.0090  172.3950  144.6320 N   0  0  0  0  0  2  0  0  0  0  0  0
  189.7700  172.0180  143.2350 C   0  0  2  0  0  3  0  0  0  0  0  0
  189.2000  174.6300  144.2990 C   0  0  0  0  0  0  0  0  0  0  0  0
  189.5750  173.6600  145.1410 C   0  0  0  0  0  3  0  0  0  0  0  0
  192.0910  171.1180  143.5850 C   0  0  0  0  0  2  0  0  0  0  0  0
  193.2060  170.7020  142.7590 N   0  0  0  0  0  2  0  0  0  0  0  0
  193.7320  170.4130  140.5040 O   0  0  0  0  0  0  0  0  0  0  0  0
  191.2750  171.3430  140.9740 S   0  0  0  0  0  0  0  0  0  0  0  0
  192.9070  170.7800  141.3800 C   0  0  0  0  0  0  0  0  0  0  0  0
  190.8280  171.0440  142.7260 C   0  0  2  0  0  3  0  0  0  0  0  0
  193.2670  176.9400  144.1950 C   0  0  0  0  0  3  0  0  0  0  0  0
  193.0280  176.2860  146.5130 C   0  0  0  0  0  3  0  0  0  0  0  0
  191.8800  177.0690  144.0900 C   0  0  0  0  0  3  0  0  0  0  0  0
  191.6390  176.4190  146.4080 C   0  0  0  0  0  3  0  0  0  0  0  0
  193.8420  176.5450  145.4070 C   0  0  0  0  0  0  0  0  0  0  0  0
  191.0560  176.8330  145.2040 C   0  0  0  0  0  0  0  0  0  0  0  0
  195.3210  176.4500  145.5300 C   0  0  0  0  0  2  0  0  0  0  0  0
  195.8560  175.8860  144.3580 O   0  0  0  0  0  0  0  0  0  0  0  0
  197.5740  170.4820  144.9980 C   0  0  0  0  0  1  0  0  0  0  0  0
  195.9810  174.4900  144.5340 C   0  0  1  0  0  3  0  0  0  0  0  0
  197.4690  171.9760  144.7790 C   0  0  2  0  0  3  0  0  0  0  0  0
  196.8200  172.6200  145.9950 C   0  0  0  0  0  2  0  0  0  0  0  0
  196.4990  173.7460  143.2740 C   0  0  1  0  0  3  0  0  0  0  0  0
  196.7580  174.1300  145.8090 C   0  0  0  0  0  2  0  0  0  0  0  0
  196.6200  172.2450  143.5420 C   0  0  0  0  0  2  0  0  0  0  0  0
  195.8400  172.9630  141.0830 O   0  0  0  0  0  1  0  0  0  0  0  0
  195.6040  173.9480  142.0480 C   0  0  1  0  0  3  0  0  0  0  0  0
  193.3070  174.5750  141.3090 C   0  0  0  0  0  1  0  0  0  0  0  0
  194.1340  173.9790  142.4310 C   0  0  0  0  0  2  0  0  0  0  0  0
  187.3080  176.2200  144.9130 C   0  0  2  0  0  3  0  0  0  0  0  0
  187.1140  176.4210  147.3350 O   0  0  0  0  0  0  0  0  0  0  0  0
  186.9050  177.2150  143.9260 N   0  0  0  0  0  0  0  0  0  0  0  0
  186.3940  178.1830  145.9480 N   0  0  0  0  0  2  0  0  0  0  0  0
  186.9590  176.9060  146.1830 C   0  0  0  0  0  0  0  0  0  0  0  0
  186.4080  178.2510  144.5270 C   0  0  0  0  0  0  0  0  0  0  0  0
  185.9180  179.4380  143.7780 C   0  0  0  0  0  2  0  0  0  0  0  0
  184.6090  179.7290  144.1590 O   0  0  0  0  0  0  0  0  0  0  0  0
  183.8350  178.7740  143.5040 C   0  0  0  0  0  1  0  0  0  0  0  0
  1  2  2  0  0  0  0
  2 20  1  0  0  0  0
  3  4  2  0  0  0  0
  4  7  1  0  0  0  0
  5  8  1  0  0  0  0
  6  3  1  6  0  0  0
  6  5  1  0  0  0  0
  7  1  1  0  0  0  0
  7  8  2  0  0  0  0
 10  9  1  0  0  0  0
 11 13  2  0  0  0  0
 12 13  1  0  0  0  0
 12 14  1  0  0  0  0
 13 10  1  0  0  0  0
 14  6  1  0  0  0  0
 14  9  1  1  0  0  0
 15 19  1  0  0  0  0
 17 15  2  0  0  0  0
 17 20  1  0  0  0  0
 18 16  1  0  0  0  0
 19 21  1  0  0  0  0
 19 16  2  0  0  0  0
 20 18  2  0  0  0  0
 22 21  1  0  0  0  0
 24 22  1  6  0  0  0
 24 28  1  0  0  0  0
 25 23  1  1  0  0  0
 25 26  1  0  0  0  0
 27 31  1  6  0  0  0
 27 29  1  0  0  0  0
 27 24  1  0  0  0  0
 28 26  1  0  0  0  0
 29 25  1  0  0  0  0
 31 30  1  6  0  0  0
 31 33  1  0  0  0  0
 32 33  1  0  0  0  0
 34  1  1  1  0  0  0
 34 38  1  0  0  0  0
 36 39  2  0  0  0  0
 36 34  1  0  0  0  0
 37 38  1  0  0  0  0
 38 35  2  0  0  0  0
 39 37  1  0  0  0  0
 40 41  1  0  0  0  0
 40 39  1  0  0  0  0
 42 41  1  0  0  0  0
M  END
>  <MODEL>
5

>  <REMARK>
 VINA RESULT:      -7.0      3.229      8.521
  Name = 
  11 active torsions:
  status: ('A' for Active; 'I' for Inactive)
    1  A    between atoms: C_7  and  C_17
    2  A    between atoms: C_7  and  C_20
    3  A    between atoms: O_8  and  C_34
    4  A    between atoms: C_9  and  O_37
    5  A    between atoms: C_15  and  C_29
    6  A    between atoms: C_15  and  O_37
    7  A    between atoms: C_18  and  C_35
    8  A    between atoms: C_24  and  C_26
    9  A    between atoms: C_24  and  C_31
   10  A    between atoms: C_34  and  C_41
   11  A    between atoms: N_40  and  C_42
                            x       y       z     vdW  Elec       q    Type
                         _______ _______ _______ _____ _____    ______ ____

>  <TORSDO>
F 11

$$$$
=
 OpenBabel11042419213D

 42 46  0  0  1  0  0  0  0  0999 V2000
  188.6270  176.9900  143.7470 C   0  0  0  0  0  0  0  0  0  0  0  0
  189.4390  177.5700  144.5920 N   0  0  0  0  0  0  0  0  0  0  0  0
  189.6910  173.4360  143.0100 C   0  0  0  0  0  3  0  0  0  0  0  0
  189.2870  174.5210  143.6760 C   0  0  0  0  0  3  0  0  0  0  0  0
  189.2420  174.6110  140.8940 N   0  0  0  0  0  2  0  0  0  0  0  0
  189.9400  173.4860  141.5260 C   0  0  2  0  0  3  0  0  0  0  0  0
  188.9890  175.7860  142.9720 C   0  0  0  0  0  0  0  0  0  0  0  0
  188.9180  175.7910  141.6350 C   0  0  0  0  0  3  0  0  0  0  0  0
  190.7720  171.1890  140.9340 C   0  0  0  0  0  2  0  0  0  0  0  0
  190.6570  170.2710  139.8200 N   0  0  0  0  0  2  0  0  0  0  0  0
  189.5570  170.0990  137.7690 O   0  0  0  0  0  0  0  0  0  0  0  0
  189.1050  172.3680  139.1000 S   0  0  0  0  0  0  0  0  0  0  0  0
  189.8200  170.7740  138.7980 C   0  0  0  0  0  0  0  0  0  0  0  0
  189.5940  172.1610  140.8540 C   0  0  2  0  0  3  0  0  0  0  0  0
  192.0860  176.0350  146.7740 C   0  0  0  0  0  3  0  0  0  0  0  0
  193.1210  177.0240  144.8230 C   0  0  0  0  0  3  0  0  0  0  0  0
  190.8300  176.4290  146.3060 C   0  0  0  0  0  3  0  0  0  0  0  0
  191.8630  177.4150  144.3530 C   0  0  0  0  0  3  0  0  0  0  0  0
  193.2330  176.3350  146.0340 C   0  0  0  0  0  0  0  0  0  0  0  0
  190.7070  177.1010  145.0780 C   0  0  0  0  0  0  0  0  0  0  0  0
  194.5650  175.8770  146.5120 C   0  0  0  0  0  2  0  0  0  0  0  0
  195.4760  175.8780  145.4410 O   0  0  0  0  0  0  0  0  0  0  0  0
  197.7920  170.8610  144.0190 C   0  0  0  0  0  1  0  0  0  0  0  0
  195.7570  174.5440  145.0720 C   0  0  1  0  0  3  0  0  0  0  0  0
  197.5190  172.3030  144.3850 C   0  0  2  0  0  3  0  0  0  0  0  0
  196.8160  172.3580  145.7330 C   0  0  0  0  0  2  0  0  0  0  0  0
  196.3410  174.4010  143.6420 C   0  0  1  0  0  3  0  0  0  0  0  0
  196.5830  173.8070  146.1380 C   0  0  0  0  0  2  0  0  0  0  0  0
  196.6320  172.9350  143.3190 C   0  0  0  0  0  2  0  0  0  0  0  0
  196.0160  174.8890  141.2960 O   0  0  0  0  0  1  0  0  0  0  0  0
  195.4160  174.9610  142.5570 C   0  0  1  0  0  3  0  0  0  0  0  0
  193.1400  174.8930  141.5430 C   0  0  0  0  0  1  0  0  0  0  0  0
  194.0730  174.2520  142.5510 C   0  0  0  0  0  2  0  0  0  0  0  0
  187.2860  177.6090  143.4800 C   0  0  2  0  0  3  0  0  0  0  0  0
  185.9840  175.5770  143.1390 O   0  0  0  0  0  0  0  0  0  0  0  0
  187.0100  178.6630  144.4480 N   0  0  0  0  0  0  0  0  0  0  0  0
  185.3290  177.1300  144.7830 N   0  0  0  0  0  2  0  0  0  0  0  0
  186.1780  176.6590  143.7530 C   0  0  0  0  0  0  0  0  0  0  0  0
  185.9410  178.3700  145.1210 C   0  0  0  0  0  0  0  0  0  0  0  0
  185.4140  179.2560  146.1920 C   0  0  0  0  0  2  0  0  0  0  0  0
  185.0980  178.4980  147.3180 O   0  0  0  0  0  0  0  0  0  0  0  0
  186.3050  178.3680  148.0010 C   0  0  0  0  0  1  0  0  0  0  0  0
  1  2  2  0  0  0  0
  2 20  1  0  0  0  0
  3  4  2  0  0  0  0
  5  6  1  0  0  0  0
  5  8  1  0  0  0  0
  6  3  1  1  0  0  0
  7  4  1  0  0  0  0
  7  1  1  0  0  0  0
  8  7  2  0  0  0  0
 10  9  1  0  0  0  0
 11 13  2  0  0  0  0
 12 14  1  0  0  0  0
 13 12  1  0  0  0  0
 13 10  1  0  0  0  0
 14  9  1  6  0  0  0
 14  6  1  0  0  0  0
 16 19  1  0  0  0  0
 17 15  1  0  0  0  0
 18 16  2  0  0  0  0
 18 20  1  0  0  0  0
 19 21  1  0  0  0  0
 19 15  2  0  0  0  0
 20 17  2  0  0  0  0
 22 21  1  0  0  0  0
 24 22  1  1  0  0  0
 24 28  1  0  0  0  0
 25 23  1  6  0  0  0
 25 26  1  0  0  0  0
 26 28  1  0  0  0  0
 27 31  1  6  0  0  0
 27 24  1  0  0  0  0
 29 27  1  0  0  0  0
 29 25  1  0  0  0  0
 31 30  1  6  0  0  0
 32 33  1  0  0  0  0
 33 31  1  0  0  0  0
 34  1  1  1  0  0  0
 34 38  1  0  0  0  0
 34 36  1  0  0  0  0
 35 38  2  0  0  0  0
 36 39  2  0  0  0  0
 37 39  1  0  0  0  0
 38 37  1  0  0  0  0
 39 40  1  0  0  0  0
 40 41  1  0  0  0  0
 41 42  1  0  0  0  0
M  END
>  <MODEL>
6

>  <REMARK>
 VINA RESULT:      -7.0      2.919      8.452
  Name = 
  11 active torsions:
  status: ('A' for Active; 'I' for Inactive)
    1  A    between atoms: C_7  and  C_17
    2  A    between atoms: C_7  and  C_20
    3  A    between atoms: O_8  and  C_34
    4  A    between atoms: C_9  and  O_37
    5  A    between atoms: C_15  and  C_29
    6  A    between atoms: C_15  and  O_37
    7  A    between atoms: C_18  and  C_35
    8  A    between atoms: C_24  and  C_26
    9  A    between atoms: C_24  and  C_31
   10  A    between atoms: C_34  and  C_41
   11  A    between atoms: N_40  and  C_42
                            x       y       z     vdW  Elec       q    Type
                         _______ _______ _______ _____ _____    ______ ____

>  <TORSDO>
F 11

$$$$
=
 OpenBabel11042419213D

 42 46  0  0  1  0  0  0  0  0999 V2000
  194.2610  174.0740  143.6000 C   0  0  0  0  0  0  0  0  0  0  0  0
  194.2520  174.7600  144.7140 N   0  0  0  0  0  0  0  0  0  0  0  0
  191.3400  174.1640  141.2000 C   0  0  0  0  0  3  0  0  0  0  0  0
  192.4890  174.4790  141.8030 C   0  0  0  0  0  3  0  0  0  0  0  0
  191.3070  172.0430  142.4480 N   0  0  0  0  0  2  0  0  0  0  0  0
  190.5100  173.0000  141.6740 C   0  0  2  0  0  3  0  0  0  0  0  0
  193.0320  173.6510  142.8990 C   0  0  0  0  0  0  0  0  0  0  0  0
  192.4810  172.4570  143.1540 C   0  0  0  0  0  3  0  0  0  0  0  0
  190.5200  171.0520  140.0850 C   0  0  0  0  0  2  0  0  0  0  0  0
  190.2010  170.8160  138.6920 N   0  0  0  0  0  2  0  0  0  0  0  0
  189.3330  171.9570  136.8510 O   0  0  0  0  0  0  0  0  0  0  0  0
  189.5880  173.4250  139.0660 S   0  0  0  0  0  0  0  0  0  0  0  0
  189.7110  171.9760  138.0510 C   0  0  0  0  0  0  0  0  0  0  0  0
  189.7840  172.3220  140.5170 C   0  0  2  0  0  3  0  0  0  0  0  0
  191.3460  175.3850  147.0140 C   0  0  0  0  0  3  0  0  0  0  0  0
  191.5300  177.2070  145.4320 C   0  0  0  0  0  3  0  0  0  0  0  0
  192.4610  174.7730  146.4370 C   0  0  0  0  0  3  0  0  0  0  0  0
  192.6490  176.5950  144.8560 C   0  0  0  0  0  3  0  0  0  0  0  0
  190.8780  176.6020  146.5100 C   0  0  0  0  0  0  0  0  0  0  0  0
  193.1370  175.3860  145.3680 C   0  0  0  0  0  0  0  0  0  0  0  0
  189.7180  177.2740  147.1540 C   0  0  0  0  0  2  0  0  0  0  0  0
  188.5500  176.5290  146.9150 O   0  0  0  0  0  0  0  0  0  0  0  0
  183.6970  179.0410  145.2710 C   0  0  0  0  0  1  0  0  0  0  0  0
  187.5230  177.4020  146.4920 C   0  0  1  0  0  3  0  0  0  0  0  0
  184.7830  178.0770  145.6980 C   0  0  2  0  0  3  0  0  0  0  0  0
  185.3280  178.4970  147.0540 C   0  0  0  0  0  2  0  0  0  0  0  0
  187.0210  177.1220  145.0510 C   0  0  1  0  0  3  0  0  0  0  0  0
  186.3850  177.5040  147.5180 C   0  0  0  0  0  2  0  0  0  0  0  0
  185.9050  178.0950  144.6670 C   0  0  0  0  0  2  0  0  0  0  0  0
  188.5720  175.9500  143.6120 O   0  0  0  0  0  1  0  0  0  0  0  0
  188.1310  177.2190  143.9990 C   0  0  1  0  0  3  0  0  0  0  0  0
  187.8710  177.2140  141.5190 C   0  0  0  0  0  1  0  0  0  0  0  0
  187.6820  178.0210  142.7890 C   0  0  0  0  0  2  0  0  0  0  0  0
  195.5740  173.6180  143.0340 C   0  0  2  0  0  3  0  0  0  0  0  0
  196.8810  175.6400  143.4150 O   0  0  0  0  0  0  0  0  0  0  0  0
  195.8950  172.2770  143.5080 N   0  0  0  0  0  0  0  0  0  0  0  0
  197.6140  173.5840  144.2980 N   0  0  0  0  0  2  0  0  0  0  0  0
  196.7100  174.4030  143.5800 C   0  0  0  0  0  0  0  0  0  0  0  0
  197.0070  172.3020  144.1740 C   0  0  0  0  0  0  0  0  0  0  0  0
  197.5850  171.0800  144.7900 C   0  0  0  0  0  2  0  0  0  0  0  0
  197.1890  170.9920  146.1240 O   0  0  0  0  0  0  0  0  0  0  0  0
  196.2460  169.9670  146.1410 C   0  0  0  0  0  1  0  0  0  0  0  0
  1  2  2  0  0  0  0
  2 20  1  0  0  0  0
  3  4  2  0  0  0  0
  4  7  1  0  0  0  0
  5  8  1  0  0  0  0
  6  3  1  6  0  0  0
  6  5  1  0  0  0  0
  7  8  2  0  0  0  0
  7  1  1  0  0  0  0
 10  9  1  0  0  0  0
 11 13  2  0  0  0  0
 12 14  1  0  0  0  0
 13 10  1  0  0  0  0
 13 12  1  0  0  0  0
 14  9  1  6  0  0  0
 14  6  1  0  0  0  0
 16 19  2  0  0  0  0
 17 15  2  0  0  0  0
 18 20  2  0  0  0  0
 18 16  1  0  0  0  0
 19 15  1  0  0  0  0
 19 21  1  0  0  0  0
 20 17  1  0  0  0  0
 22 21  1  0  0  0  0
 24 22  1  1  0  0  0
 24 28  1  0  0  0  0
 25 23  1  6  0  0  0
 25 26  1  0  0  0  0
 26 28  1  0  0  0  0
 27 31  1  6  0  0  0
 27 24  1  0  0  0  0
 29 27  1  0  0  0  0
 29 25  1  0  0  0  0
 31 30  1  6  0  0  0
 32 33  1  0  0  0  0
 33 31  1  0  0  0  0
 34 36  1  0  0  0  0
 34 38  1  0  0  0  0
 34  1  1  1  0  0  0
 35 38  2  0  0  0  0
 36 39  2  0  0  0  0
 38 37  1  0  0  0  0
 39 37  1  0  0  0  0
 39 40  1  0  0  0  0
 40 41  1  0  0  0  0
 41 42  1  0  0  0  0
M  END
>  <MODEL>
7

>  <REMARK>
 VINA RESULT:      -6.9      2.103      3.032
  Name = 
  11 active torsions:
  status: ('A' for Active; 'I' for Inactive)
    1  A    between atoms: C_7  and  C_17
    2  A    between atoms: C_7  and  C_20
    3  A    between atoms: O_8  and  C_34
    4  A    between atoms: C_9  and  O_37
    5  A    between atoms: C_15  and  C_29
    6  A    between atoms: C_15  and  O_37
    7  A    between atoms: C_18  and  C_35
    8  A    between atoms: C_24  and  C_26
    9  A    between atoms: C_24  and  C_31
   10  A    between atoms: C_34  and  C_41
   11  A    between atoms: N_40  and  C_42
                            x       y       z     vdW  Elec       q    Type
                         _______ _______ _______ _____ _____    ______ ____

>  <TORSDO>
F 11

$$$$
=
 OpenBabel11042419213D

 42 46  0  0  1  0  0  0  0  0999 V2000
  188.3400  176.4600  145.4430 C   0  0  0  0  0  0  0  0  0  0  0  0
  189.3190  177.0240  146.1000 N   0  0  0  0  0  0  0  0  0  0  0  0
  188.4900  175.7750  141.7260 C   0  0  0  0  0  3  0  0  0  0  0  0
  188.3960  176.4280  142.8870 C   0  0  0  0  0  3  0  0  0  0  0  0
  189.1780  173.7580  142.9580 N   0  0  0  0  0  2  0  0  0  0  0  0
  188.6540  174.2780  141.6910 C   0  0  2  0  0  3  0  0  0  0  0  0
  188.5330  175.7220  144.1780 C   0  0  0  0  0  0  0  0  0  0  0  0
  188.9650  174.4550  144.1890 C   0  0  0  0  0  3  0  0  0  0  0  0
  188.6850  173.8400  139.2150 C   0  0  0  0  0  2  0  0  0  0  0  0
  189.2830  172.8770  138.3140 N   0  0  0  0  0  2  0  0  0  0  0  0
  190.7540  171.0670  138.3720 O   0  0  0  0  0  0  0  0  0  0  0  0
  190.2350  172.1720  140.7470 S   0  0  0  0  0  0  0  0  0  0  0  0
  190.1070  171.9520  138.9910 C   0  0  0  0  0  0  0  0  0  0  0  0
  189.5060  173.8360  140.5060 C   0  0  2  0  0  3  0  0  0  0  0  0
  192.7050  177.1790  144.4770 C   0  0  0  0  0  3  0  0  0  0  0  0
  192.8810  176.0460  146.6080 C   0  0  0  0  0  3  0  0  0  0  0  0
  191.3360  177.3590  144.6880 C   0  0  0  0  0  3  0  0  0  0  0  0
  191.5110  176.2300  146.8200 C   0  0  0  0  0  3  0  0  0  0  0  0
  193.4790  176.5190  145.4360 C   0  0  0  0  0  0  0  0  0  0  0  0
  190.7320  176.9070  145.8740 C   0  0  0  0  0  0  0  0  0  0  0  0
  194.9440  176.3670  145.2310 C   0  0  0  0  0  2  0  0  0  0  0  0
  195.2500  175.0140  145.0060 O   0  0  0  0  0  0  0  0  0  0  0  0
  197.4090  175.6100  139.7570 C   0  0  0  0  0  1  0  0  0  0  0  0
  195.9170  174.8910  143.7660 C   0  0  1  0  0  3  0  0  0  0  0  0
  196.6600  175.7540  141.0640 C   0  0  2  0  0  3  0  0  0  0  0  0
  197.6560  175.8360  142.2120 C   0  0  0  0  0  2  0  0  0  0  0  0
  194.9630  174.6550  142.5650 C   0  0  1  0  0  3  0  0  0  0  0  0
  196.9160  176.0330  143.5280 C   0  0  0  0  0  2  0  0  0  0  0  0
  195.7520  174.5450  141.2600 C   0  0  0  0  0  2  0  0  0  0  0  0
  194.7110  172.4740  143.5810 O   0  0  0  0  0  1  0  0  0  0  0  0
  194.1060  173.3950  142.7190 C   0  0  1  0  0  3  0  0  0  0  0  0
  192.3990  173.0130  144.4960 C   0  0  0  0  0  1  0  0  0  0  0  0
  192.7030  173.7300  143.1960 C   0  0  0  0  0  2  0  0  0  0  0  0
  186.9330  176.6260  145.9410 C   0  0  2  0  0  3  0  0  0  0  0  0
  187.3350  178.2870  147.6790 O   0  0  0  0  0  0  0  0  0  0  0  0
  186.0080  176.7500  144.8210 N   0  0  0  0  0  0  0  0  0  0  0  0
  185.7840  178.7330  145.9640 N   0  0  0  0  0  2  0  0  0  0  0  0
  186.7440  177.9300  146.6260 C   0  0  0  0  0  0  0  0  0  0  0  0
  185.4020  177.8950  144.8790 C   0  0  0  0  0  0  0  0  0  0  0  0
  184.4020  178.3100  143.8600 C   0  0  0  0  0  2  0  0  0  0  0  0
  184.6130  177.6050  142.6770 O   0  0  0  0  0  0  0  0  0  0  0  0
  185.3220  178.4890  141.8660 C   0  0  0  0  0  1  0  0  0  0  0  0
  1  2  2  0  0  0  0
  3  4  2  0  0  0  0
  4  7  1  0  0  0  0
  5  8  1  0  0  0  0
  6  3  1  1  0  0  0
  6  5  1  0  0  0  0
  7  8  2  0  0  0  0
  7  1  1  0  0  0  0
 10 13  1  0  0  0  0
 10  9  1  0  0  0  0
 11 13  2  0  0  0  0
 13 12  1  0  0  0  0
 14  9  1  6  0  0  0
 14 12  1  0  0  0  0
 14  6  1  0  0  0  0
 15 17  2  0  0  0  0
 15 19  1  0  0  0  0
 16 18  1  0  0  0  0
 17 20  1  0  0  0  0
 19 16  2  0  0  0  0
 20  2  1  0  0  0  0
 20 18  2  0  0  0  0
 21 19  1  0  0  0  0
 22 21  1  0  0  0  0
 24 22  1  1  0  0  0
 25 23  1  6  0  0  0
 25 29  1  0  0  0  0
 25 26  1  0  0  0  0
 26 28  1  0  0  0  0
 27 31  1  1  0  0  0
 27 24  1  0  0  0  0
 28 24  1  0  0  0  0
 29 27  1  0  0  0  0
 31 33  1  0  0  0  0
 31 30  1  1  0  0  0
 33 32  1  0  0  0  0
 34  1  1  6  0  0  0
 34 38  1  0  0  0  0
 36 39  2  0  0  0  0
 36 34  1  0  0  0  0
 37 38  1  0  0  0  0
 38 35  2  0  0  0  0
 39 37  1  0  0  0  0
 40 39  1  0  0  0  0
 41 40  1  0  0  0  0
 42 41  1  0  0  0  0
M  END
>  <MODEL>
8

>  <REMARK>
 VINA RESULT:      -6.9      2.757      8.336
  Name = 
  11 active torsions:
  status: ('A' for Active; 'I' for Inactive)
    1  A    between atoms: C_7  and  C_17
    2  A    between atoms: C_7  and  C_20
    3  A    between atoms: O_8  and  C_34
    4  A    between atoms: C_9  and  O_37
    5  A    between atoms: C_15  and  C_29
    6  A    between atoms: C_15  and  O_37
    7  A    between atoms: C_18  and  C_35
    8  A    between atoms: C_24  and  C_26
    9  A    between atoms: C_24  and  C_31
   10  A    between atoms: C_34  and  C_41
   11  A    between atoms: N_40  and  C_42
                            x       y       z     vdW  Elec       q    Type
                         _______ _______ _______ _____ _____    ______ ____

>  <TORSDO>
F 11

$$$$
=
 OpenBabel11042419213D

 42 46  0  0  1  0  0  0  0  0999 V2000
  188.5670  176.0810  144.7870 C   0  0  0  0  0  0  0  0  0  0  0  0
  189.4330  176.8750  145.3600 N   0  0  0  0  0  0  0  0  0  0  0  0
  189.3540  174.3120  141.5380 C   0  0  0  0  0  3  0  0  0  0  0  0
  189.0820  175.2830  142.4130 C   0  0  0  0  0  3  0  0  0  0  0  0
  189.7170  172.7670  143.4190 N   0  0  0  0  0  2  0  0  0  0  0  0
  189.4540  172.8760  141.9800 C   0  0  2  0  0  3  0  0  0  0  0  0
  188.9520  174.9990  143.8570 C   0  0  0  0  0  0  0  0  0  0  0  0
  189.3170  173.7990  144.3250 C   0  0  0  0  0  3  0  0  0  0  0  0
  190.9800  170.8780  141.9240 C   0  0  0  0  0  2  0  0  0  0  0  0
  192.3100  170.5700  141.4410 N   0  0  0  0  0  2  0  0  0  0  0  0
  194.0460  171.5820  140.2540 O   0  0  0  0  0  0  0  0  0  0  0  0
  191.9230  173.1420  140.6910 S   0  0  0  0  0  0  0  0  0  0  0  0
  192.9080  171.6700  140.7860 C   0  0  0  0  0  0  0  0  0  0  0  0
  190.4850  172.1070  141.1600 C   0  0  2  0  0  3  0  0  0  0  0  0
  192.9630  176.2990  146.5150 C   0  0  0  0  0  3  0  0  0  0  0  0
  192.9830  177.1840  144.2630 C   0  0  0  0  0  3  0  0  0  0  0  0
  191.5660  176.3350  146.5150 C   0  0  0  0  0  3  0  0  0  0  0  0
  191.5850  177.2170  144.2620 C   0  0  0  0  0  3  0  0  0  0  0  0
  193.6730  176.7260  145.3900 C   0  0  0  0  0  0  0  0  0  0  0  0
  190.8650  176.7720  145.3780 C   0  0  0  0  0  0  0  0  0  0  0  0
  195.1580  176.6460  145.3750 C   0  0  0  0  0  2  0  0  0  0  0  0
  195.5610  175.3320  145.6710 O   0  0  0  0  0  0  0  0  0  0  0  0
  197.7630  173.7960  140.6350 C   0  0  0  0  0  1  0  0  0  0  0  0
  196.3300  174.8320  144.5960 C   0  0  1  0  0  3  0  0  0  0  0  0
  196.9040  174.3150  141.7680 C   0  0  2  0  0  3  0  0  0  0  0  0
  197.6730  175.3780  142.5390 C   0  0  0  0  0  2  0  0  0  0  0  0
  195.6680  173.6410  143.8550 C   0  0  1  0  0  3  0  0  0  0  0  0
  196.7990  175.9470  143.6490 C   0  0  0  0  0  2  0  0  0  0  0  0
  196.5490  173.1630  142.7000 C   0  0  0  0  0  2  0  0  0  0  0  0
  196.3590  172.3310  145.7670 O   0  0  0  0  0  1  0  0  0  0  0  0
  195.3840  172.4470  144.7720 C   0  0  1  0  0  3  0  0  0  0  0  0
  193.0240  173.1670  144.4140 C   0  0  0  0  0  1  0  0  0  0  0  0
  193.9990  172.5370  145.3890 C   0  0  0  0  0  2  0  0  0  0  0  0
  187.1010  176.3150  145.0090 C   0  0  2  0  0  3  0  0  0  0  0  0
  187.0940  176.4190  147.4450 O   0  0  0  0  0  0  0  0  0  0  0  0
  186.6040  177.3370  144.0970 N   0  0  0  0  0  0  0  0  0  0  0  0
  186.2340  178.2160  146.1890 N   0  0  0  0  0  2  0  0  0  0  0  0
  186.8400  176.9440  146.3290 C   0  0  0  0  0  0  0  0  0  0  0  0
  186.1360  178.3380  144.7740 C   0  0  0  0  0  0  0  0  0  0  0  0
  185.5670  179.5410  144.1120 C   0  0  0  0  0  2  0  0  0  0  0  0
  184.1780  179.5330  144.2320 O   0  0  0  0  0  0  0  0  0  0  0  0
  183.7460  178.6870  143.2130 C   0  0  0  0  0  1  0  0  0  0  0  0
  1  2  2  0  0  0  0
  2 20  1  0  0  0  0
  3  4  2  0  0  0  0
  4  7  1  0  0  0  0
  5  8  1  0  0  0  0
  6  3  1  6  0  0  0
  6  5  1  0  0  0  0
  7  8  2  0  0  0  0
  7  1  1  0  0  0  0
 10  9  1  0  0  0  0
 11 13  2  0  0  0  0
 12 13  1  0  0  0  0
 12 14  1  0  0  0  0
 13 10  1  0  0  0  0
 14  9  1  1  0  0  0
 14  6  1  0  0  0  0
 16 19  1  0  0  0  0
 17 15  1  0  0  0  0
 18 16  2  0  0  0  0
 18 20  1  0  0  0  0
 19 15  2  0  0  0  0
 20 17  2  0  0  0  0
 21 19  1  0  0  0  0
 21 22  1  0  0  0  0
 24 22  1  1  0  0  0
 25 23  1  6  0  0  0
 25 26  1  0  0  0  0
 25 29  1  0  0  0  0
 26 28  1  0  0  0  0
 27 24  1  0  0  0  0
 27 31  1  1  0  0  0
 28 24  1  0  0  0  0
 29 27  1  0  0  0  0
 31 33  1  0  0  0  0
 31 30  1  1  0  0  0
 32 33  1  0  0  0  0
 34  1  1  6  0  0  0
 34 38  1  0  0  0  0
 36 39  2  0  0  0  0
 36 34  1  0  0  0  0
 37 38  1  0  0  0  0
 38 35  2  0  0  0  0
 39 37  1  0  0  0  0
 40 41  1  0  0  0  0
 40 39  1  0  0  0  0
 42 41  1  0  0  0  0
M  END
>  <MODEL>
9

>  <REMARK>
 VINA RESULT:      -6.9      2.928      8.548
  Name = 
  11 active torsions:
  status: ('A' for Active; 'I' for Inactive)
    1  A    between atoms: C_7  and  C_17
    2  A    between atoms: C_7  and  C_20
    3  A    between atoms: O_8  and  C_34
    4  A    between atoms: C_9  and  O_37
    5  A    between atoms: C_15  and  C_29
    6  A    between atoms: C_15  and  O_37
    7  A    between atoms: C_18  and  C_35
    8  A    between atoms: C_24  and  C_26
    9  A    between atoms: C_24  and  C_31
   10  A    between atoms: C_34  and  C_41
   11  A    between atoms: N_40  and  C_42
                            x       y       z     vdW  Elec       q    Type
                         _______ _______ _______ _____ _____    ______ ____

>  <TORSDO>
F 11

$$$$
