=
 OpenBabel11042417043D

 44 48  0  0  1  0  0  0  0  0999 V2000
  184.2520  178.1760  140.2230 C   0  0  0  0  0  3  0  0  0  0  0  0
  185.3050  177.5810  144.1780 C   0  0  0  0  0  3  0  0  0  0  0  0
  183.2360  178.4070  141.1840 C   0  0  0  0  0  0  0  0  0  0  0  0
  186.9010  177.2060  142.6020 N   0  0  0  0  0  0  0  0  0  0  0  0
  186.6280  177.2050  143.9300 C   0  0  0  0  0  0  0  0  0  0  0  0
  185.5340  177.7610  140.6190 C   0  0  0  0  0  3  0  0  0  0  0  0
  184.7890  177.8190  142.9160 C   0  0  0  0  0  0  0  0  0  0  0  0
  183.5080  178.2270  142.5520 C   0  0  0  0  0  3  0  0  0  0  0  0
  185.7680  177.5870  141.9840 C   0  0  0  0  0  0  0  0  0  0  0  0
  187.5920  176.8480  144.9880 C   0  0  0  0  0  0  0  0  0  0  0  0
  189.3960  176.6690  146.0730 C   0  0  0  0  0  0  0  0  0  0  0  0
  187.2710  176.1090  146.0700 N   0  0  0  0  0  0  0  0  0  0  0  0
  188.4170  175.9950  146.7690 C   0  0  0  0  0  2  0  0  0  0  0  0
  188.8880  177.2180  144.9550 N   0  0  0  0  0  0  0  0  0  0  0  0
  191.7580  176.7120  145.3700 C   0  0  0  0  0  2  0  0  0  0  0  0
  190.8120  176.8270  146.5260 C   0  0  2  0  0  3  0  0  0  0  0  0
  191.2240  175.7020  147.4430 C   0  0  0  0  0  2  0  0  0  0  0  0
  192.7400  175.6330  145.8010 C   0  0  2  0  0  3  0  0  0  0  0  0
  192.5650  175.3930  147.1770 O   0  0  0  0  0  0  0  0  0  0  0  0
  194.3690  177.3840  145.8020 O   0  0  0  0  0  1  0  0  0  0  0  0
  194.1960  176.0330  145.4830 C   0  0  0  0  0  0  0  0  0  0  0  0
  195.0760  175.2700  146.2580 O   0  0  0  0  0  1  0  0  0  0  0  0
  194.5030  175.8380  143.9870 C   0  0  2  0  0  3  0  0  0  0  0  0
  193.7440  174.7250  143.4330 N   0  0  0  0  0  1  0  0  0  0  0  0
  195.9950  175.6010  143.7500 C   0  0  0  0  0  2  0  0  0  0  0  0
  197.5220  177.3710  143.2670 O   0  0  0  0  0  1  0  0  0  0  0  0
  196.5640  176.6600  142.8650 C   0  0  0  0  0  0  0  0  0  0  0  0
  196.0570  176.8420  141.5850 O   0  0  0  0  0  0  0  0  0  0  0  0
  180.8190  178.9330  141.7210 C   0  0  0  0  0  1  0  0  0  0  0  0
  181.9270  178.8240  140.7870 N   0  0  0  0  0  2  0  0  0  0  0  0
  188.1260  176.8300  142.0170 N   0  0  0  0  0  2  0  0  0  0  0  0
  188.3620  175.5250  141.4170 C   0  0  0  0  0  2  0  0  0  0  0  0
  188.7530  174.5780  142.4470 N   0  0  0  0  0  2  0  0  0  0  0  0
  188.7690  173.1660  142.2290 C   0  0  0  0  0  0  0  0  0  0  0  0
  188.3700  172.6840  141.1330 O   0  0  0  0  0  0  0  0  0  0  0  0
  189.2600  172.2670  143.3200 C   0  0  1  0  0  3  0  0  0  0  0  0
  190.4370  171.5320  142.8850 N   0  0  0  0  0  0  0  0  0  0  0  0
  189.7870  173.0690  144.4690 C   0  0  0  0  0  3  0  0  0  0  0  0
  191.0400  172.8240  144.6560 N   0  0  0  0  0  0  0  0  0  0  0  0
  191.4050  171.8770  143.6640 C   0  0  0  0  0  0  0  0  0  0  0  0
  192.7900  171.3360  143.5140 C   0  0  0  0  0  2  0  0  0  0  0  0
  193.3860  170.8220  144.8230 C   0  0  0  0  0  3  0  0  0  0  0  0
  194.3690  171.8090  145.4270 C   0  0  0  0  0  1  0  0  0  0  0  0
  194.0310  169.4580  144.6560 C   0  0  0  0  0  1  0  0  0  0  0  0
  1  6  2  0  0  0  0
  1  3  1  0  0  0  0
  3  8  2  0  0  0  0
  4  5  1  0  0  0  0
  5  2  2  0  0  0  0
  5 10  1  0  0  0  0
  6  9  1  0  0  0  0
  7  2  1  0  0  0  0
  8  7  1  0  0  0  0
  9  4  1  0  0  0  0
  9  7  2  0  0  0  0
 10 12  2  0  0  0  0
 11 13  1  0  0  0  0
 12 13  1  0  0  0  0
 14 10  1  0  0  0  0
 14 11  2  0  0  0  0
 15 18  1  0  0  0  0
 15 16  1  0  0  0  0
 16 11  1  6  0  0  0
 16 17  1  0  0  0  0
 18 21  1  1  0  0  0
 18 19  1  0  0  0  0
 19 17  1  0  0  0  0
 21 20  1  0  0  0  0
 21 22  1  0  0  0  0
 23 24  1  1  0  0  0
 23 21  1  0  0  0  0
 25 23  1  0  0  0  0
 27 26  1  0  0  0  0
 27 25  1  0  0  0  0
 28 27  2  0  0  0  0
 30  3  1  0  0  0  0
 30 29  1  0  0  0  0
 31  4  1  0  0  0  0
 32 31  1  0  0  0  0
 32 33  1  0  0  0  0
 34 33  1  0  0  0  0
 35 34  2  0  0  0  0
 36 34  1  6  0  0  0
 36 38  1  0  0  0  0
 37 36  1  0  0  0  0
 37 40  2  0  0  0  0
 38 39  2  0  0  0  0
 40 39  1  0  0  0  0
 41 40  1  0  0  0  0
 41 42  1  0  0  0  0
 42 43  1  0  0  0  0
 44 42  1  0  0  0  0
M  END
>  <MODEL>
1

>  <REMARK>
 VINA RESULT:      -7.4      0.000      0.000
  Name = 
  13 active torsions:
  status: ('A' for Active; 'I' for Inactive)
    1  A    between atoms: C_6  and  C_33
    2  A    between atoms: C_7  and  C_41
    3  A    between atoms: C_8  and  C_18
    4  A    between atoms: C_8  and  C_25
    5  A    between atoms: C_9  and  C_12
    6  A    between atoms: C_13  and  N_24
    7  A    between atoms: C_14  and  C_17
    8  A    between atoms: N_15  and  C_38
    9  A    between atoms: N_16  and  N_23
   10  A    between atoms: C_18  and  C_27
   11  A    between atoms: C_19  and  C_25
   12  A    between atoms: N_23  and  C_38
   13  A    between atoms: C_41  and  C_44
                            x       y       z     vdW  Elec       q    Type
                         _______ _______ _______ _____ _____    ______ ____

>  <TORSDO>
F 13

$$$$
=
 OpenBabel11042417043D

 44 48  0  0  1  0  0  0  0  0999 V2000
  197.6190  174.7840  141.6780 C   0  0  0  0  0  3  0  0  0  0  0  0
  193.5210  175.2980  141.4750 C   0  0  0  0  0  3  0  0  0  0  0  0
  196.9820  174.2830  140.5160 C   0  0  0  0  0  0  0  0  0  0  0  0
  194.5820  176.0730  143.3310 N   0  0  0  0  0  0  0  0  0  0  0  0
  193.3850  175.9470  142.7050 C   0  0  0  0  0  0  0  0  0  0  0  0
  196.8750  175.4090  142.6930 C   0  0  0  0  0  3  0  0  0  0  0  0
  194.8770  175.0420  141.3860 C   0  0  0  0  0  0  0  0  0  0  0  0
  195.5890  174.4140  140.3660 C   0  0  0  0  0  3  0  0  0  0  0  0
  195.4950  175.5180  142.5140 C   0  0  0  0  0  0  0  0  0  0  0  0
  192.0980  176.4230  143.2450 C   0  0  0  0  0  0  0  0  0  0  0  0
  190.1620  176.4270  144.0890 C   0  0  0  0  0  0  0  0  0  0  0  0
  191.7370  177.7240  143.2720 N   0  0  0  0  0  0  0  0  0  0  0  0
  190.5040  177.7330  143.8140 C   0  0  0  0  0  2  0  0  0  0  0  0
  191.1600  175.5940  143.7440 N   0  0  0  0  0  0  0  0  0  0  0  0
  188.0000  177.1750  145.0080 C   0  0  0  0  0  2  0  0  0  0  0  0
  188.8870  175.9970  144.7420 C   0  0  2  0  0  3  0  0  0  0  0  0
  189.1400  175.4180  146.1120 C   0  0  0  0  0  2  0  0  0  0  0  0
  187.6850  177.0730  146.4930 C   0  0  2  0  0  3  0  0  0  0  0  0
  188.0820  175.8010  146.9480 O   0  0  0  0  0  0  0  0  0  0  0  0
  185.4310  176.4950  145.9390 O   0  0  0  0  0  1  0  0  0  0  0  0
  186.1890  177.3250  146.7720 C   0  0  0  0  0  0  0  0  0  0  0  0
  185.8970  177.0150  148.1050 O   0  0  0  0  0  1  0  0  0  0  0  0
  185.8160  178.7900  146.4770 C   0  0  2  0  0  3  0  0  0  0  0  0
  185.8460  179.5960  147.6900 N   0  0  0  0  0  1  0  0  0  0  0  0
  184.4330  178.8950  145.8330 C   0  0  0  0  0  2  0  0  0  0  0  0
  183.8400  178.7720  143.5240 O   0  0  0  0  0  0  0  0  0  0  0  0
  184.5470  179.3240  144.4070 C   0  0  0  0  0  0  0  0  0  0  0  0
  185.4090  180.3550  144.0590 O   0  0  0  0  0  1  0  0  0  0  0  0
  197.3570  173.7060  138.0800 C   0  0  0  0  0  1  0  0  0  0  0  0
  197.7320  173.6400  139.4830 N   0  0  0  0  0  2  0  0  0  0  0  0
  194.7850  176.6370  144.6050 N   0  0  0  0  0  2  0  0  0  0  0  0
  194.6800  175.8800  145.8440 C   0  0  0  0  0  2  0  0  0  0  0  0
  194.5480  174.4650  145.5420 N   0  0  0  0  0  2  0  0  0  0  0  0
  195.6350  173.5470  145.6650 C   0  0  0  0  0  0  0  0  0  0  0  0
  196.7860  173.9570  145.9820 O   0  0  0  0  0  0  0  0  0  0  0  0
  195.3920  172.0930  145.4080 C   0  0  1  0  0  3  0  0  0  0  0  0
  193.9660  171.8030  145.4240 N   0  0  0  0  0  0  0  0  0  0  0  0
  195.7790  171.7310  144.0090 C   0  0  0  0  0  3  0  0  0  0  0  0
  194.7540  171.3040  143.3500 N   0  0  0  0  0  0  0  0  0  0  0  0
  193.6600  171.3630  144.2510 C   0  0  0  0  0  0  0  0  0  0  0  0
  192.2660  170.9730  143.8790 C   0  0  0  0  0  2  0  0  0  0  0  0
  191.3420  172.1690  143.6500 C   0  0  0  0  0  3  0  0  0  0  0  0
  190.1330  172.1380  144.5670 C   0  0  0  0  0  1  0  0  0  0  0  0
  190.9130  172.2830  142.1990 C   0  0  0  0  0  1  0  0  0  0  0  0
  1  6  1  0  0  0  0
  2  5  2  0  0  0  0
  3  1  2  0  0  0  0
  4 31  1  0  0  0  0
  5 10  1  0  0  0  0
  5  4  1  0  0  0  0
  7  2  1  0  0  0  0
  7  9  1  0  0  0  0
  8  3  1  0  0  0  0
  8  7  2  0  0  0  0
  9  6  2  0  0  0  0
  9  4  1  0  0  0  0
 10 12  2  0  0  0  0
 10 14  1  0  0  0  0
 12 13  1  0  0  0  0
 13 11  1  0  0  0  0
 14 11  2  0  0  0  0
 15 18  1  0  0  0  0
 16 11  1  1  0  0  0
 16 15  1  0  0  0  0
 16 17  1  0  0  0  0
 17 19  1  0  0  0  0
 18 21  1  6  0  0  0
 18 19  1  0  0  0  0
 20 21  1  0  0  0  0
 21 22  1  0  0  0  0
 23 21  1  0  0  0  0
 23 24  1  1  0  0  0
 25 23  1  0  0  0  0
 26 27  2  0  0  0  0
 27 25  1  0  0  0  0
 28 27  1  0  0  0  0
 29 30  1  0  0  0  0
 30  3  1  0  0  0  0
 31 32  1  0  0  0  0
 33 34  1  0  0  0  0
 33 32  1  0  0  0  0
 34 35  2  0  0  0  0
 36 37  1  0  0  0  0
 36 34  1  6  0  0  0
 38 36  1  0  0  0  0
 39 38  2  0  0  0  0
 39 40  1  0  0  0  0
 40 37  2  0  0  0  0
 41 40  1  0  0  0  0
 42 41  1  0  0  0  0
 42 43  1  0  0  0  0
 44 42  1  0  0  0  0
M  END
>  <MODEL>
2

>  <REMARK>
 VINA RESULT:      -7.2      3.381      8.784
  Name = 
  13 active torsions:
  status: ('A' for Active; 'I' for Inactive)
    1  A    between atoms: C_6  and  C_33
    2  A    between atoms: C_7  and  C_41
    3  A    between atoms: C_8  and  C_18
    4  A    between atoms: C_8  and  C_25
    5  A    between atoms: C_9  and  C_12
    6  A    between atoms: C_13  and  N_24
    7  A    between atoms: C_14  and  C_17
    8  A    between atoms: N_15  and  C_38
    9  A    between atoms: N_16  and  N_23
   10  A    between atoms: C_18  and  C_27
   11  A    between atoms: C_19  and  C_25
   12  A    between atoms: N_23  and  C_38
   13  A    between atoms: C_41  and  C_44
                            x       y       z     vdW  Elec       q    Type
                         _______ _______ _______ _____ _____    ______ ____

>  <TORSDO>
F 13

$$$$
=
 OpenBabel11042417043D

 44 48  0  0  1  0  0  0  0  0999 V2000
  188.1060  178.3480  142.5860 C   0  0  0  0  0  3  0  0  0  0  0  0
  188.1100  174.2290  142.2200 C   0  0  0  0  0  3  0  0  0  0  0  0
  186.8360  177.7240  142.5170 C   0  0  0  0  0  0  0  0  0  0  0  0
  190.1280  175.2730  142.3190 N   0  0  0  0  0  0  0  0  0  0  0  0
  189.4990  174.0750  142.2180 C   0  0  0  0  0  0  0  0  0  0  0  0
  189.2850  177.5870  142.5240 C   0  0  0  0  0  3  0  0  0  0  0  0
  187.9300  175.5960  142.3340 C   0  0  0  0  0  0  0  0  0  0  0  0
  186.7450  176.3260  142.3890 C   0  0  0  0  0  3  0  0  0  0  0  0
  189.1590  176.2030  142.3930 C   0  0  0  0  0  0  0  0  0  0  0  0
  190.1810  172.7720  142.1140 C   0  0  0  0  0  0  0  0  0  0  0  0
  191.3610  171.0870  142.5970 C   0  0  0  0  0  0  0  0  0  0  0  0
  190.1550  172.0040  141.0040 N   0  0  0  0  0  0  0  0  0  0  0  0
  190.9030  170.9260  141.3080 C   0  0  0  0  0  2  0  0  0  0  0  0
  190.9060  172.2410  143.1190 N   0  0  0  0  0  0  0  0  0  0  0  0
  193.1380  170.7800  144.2770 C   0  0  0  0  0  2  0  0  0  0  0  0
  192.1930  170.0920  143.3390 C   0  0  2  0  0  3  0  0  0  0  0  0
  193.1020  169.3300  142.4060 C   0  0  0  0  0  2  0  0  0  0  0  0
  194.5030  170.2210  143.9050 C   0  0  2  0  0  3  0  0  0  0  0  0
  194.3160  169.1030  143.0700 O   0  0  0  0  0  0  0  0  0  0  0  0
  194.6790  170.3700  146.2850 O   0  0  0  0  0  1  0  0  0  0  0  0
  195.3250  169.8530  145.1570 C   0  0  0  0  0  0  0  0  0  0  0  0
  195.4020  168.4620  145.2800 O   0  0  0  0  0  1  0  0  0  0  0  0
  196.7400  170.4570  145.0810 C   0  0  2  0  0  3  0  0  0  0  0  0
  197.7380  169.5260  145.5900 N   0  0  0  0  0  1  0  0  0  0  0  0
  196.8280  171.7710  145.8590 C   0  0  0  0  0  2  0  0  0  0  0  0
  197.3580  172.6890  143.7200 O   0  0  0  0  0  0  0  0  0  0  0  0
  197.2010  172.8960  144.9520 C   0  0  0  0  0  0  0  0  0  0  0  0
  197.3430  174.1810  145.4610 O   0  0  0  0  0  1  0  0  0  0  0  0
  184.3150  177.9100  142.3870 C   0  0  0  0  0  1  0  0  0  0  0  0
  185.6330  178.4940  142.5740 N   0  0  0  0  0  2  0  0  0  0  0  0
  191.5220  175.4700  142.2990 N   0  0  0  0  0  2  0  0  0  0  0  0
  192.3190  175.6890  143.4970 C   0  0  0  0  0  2  0  0  0  0  0  0
  191.4450  176.0110  144.6130 N   0  0  0  0  0  2  0  0  0  0  0  0
  191.5880  175.4130  145.9010 C   0  0  0  0  0  0  0  0  0  0  0  0
  192.4550  174.5160  146.0970 O   0  0  0  0  0  0  0  0  0  0  0  0
  190.6940  175.8600  147.0150 C   0  0  1  0  0  3  0  0  0  0  0  0
  189.9300  177.0310  146.6160 N   0  0  0  0  0  0  0  0  0  0  0  0
  189.6230  174.8470  147.2720 C   0  0  0  0  0  3  0  0  0  0  0  0
  188.4560  175.3580  147.0630 N   0  0  0  0  0  0  0  0  0  0  0  0
  188.6840  176.7000  146.6610 C   0  0  0  0  0  0  0  0  0  0  0  0
  187.5870  177.6480  146.2990 C   0  0  0  0  0  2  0  0  0  0  0  0
  186.2400  177.2830  146.9210 C   0  0  0  0  0  3  0  0  0  0  0  0
  185.2680  176.7360  145.8920 C   0  0  0  0  0  1  0  0  0  0  0  0
  185.6270  178.4520  147.6710 C   0  0  0  0  0  1  0  0  0  0  0  0
  2  7  1  0  0  0  0
  3 30  1  0  0  0  0
  3  1  2  0  0  0  0
  4  9  1  0  0  0  0
  5  2  2  0  0  0  0
  5  4  1  0  0  0  0
  6  1  1  0  0  0  0
  7  8  2  0  0  0  0
  7  9  1  0  0  0  0
  8  3  1  0  0  0  0
  9  6  2  0  0  0  0
 10  5  1  0  0  0  0
 10 14  1  0  0  0  0
 11 14  2  0  0  0  0
 12 13  1  0  0  0  0
 12 10  2  0  0  0  0
 13 11  1  0  0  0  0
 16 11  1  6  0  0  0
 16 15  1  0  0  0  0
 17 19  1  0  0  0  0
 17 16  1  0  0  0  0
 18 15  1  0  0  0  0
 18 21  1  1  0  0  0
 19 18  1  0  0  0  0
 21 22  1  0  0  0  0
 21 20  1  0  0  0  0
 23 21  1  0  0  0  0
 23 24  1  1  0  0  0
 23 25  1  0  0  0  0
 26 27  2  0  0  0  0
 27 28  1  0  0  0  0
 27 25  1  0  0  0  0
 29 30  1  0  0  0  0
 31  4  1  0  0  0  0
 31 32  1  0  0  0  0
 32 33  1  0  0  0  0
 33 34  1  0  0  0  0
 34 35  2  0  0  0  0
 36 34  1  6  0  0  0
 36 38  1  0  0  0  0
 37 40  2  0  0  0  0
 37 36  1  0  0  0  0
 39 38  2  0  0  0  0
 40 39  1  0  0  0  0
 41 40  1  0  0  0  0
 41 42  1  0  0  0  0
 42 44  1  0  0  0  0
 43 42  1  0  0  0  0
M  END
>  <MODEL>
3

>  <REMARK>
 VINA RESULT:      -7.1      2.737      6.169
  Name = 
  13 active torsions:
  status: ('A' for Active; 'I' for Inactive)
    1  A    between atoms: C_6  and  C_33
    2  A    between atoms: C_7  and  C_41
    3  A    between atoms: C_8  and  C_18
    4  A    between atoms: C_8  and  C_25
    5  A    between atoms: C_9  and  C_12
    6  A    between atoms: C_13  and  N_24
    7  A    between atoms: C_14  and  C_17
    8  A    between atoms: N_15  and  C_38
    9  A    between atoms: N_16  and  N_23
   10  A    between atoms: C_18  and  C_27
   11  A    between atoms: C_19  and  C_25
   12  A    between atoms: N_23  and  C_38
   13  A    between atoms: C_41  and  C_44
                            x       y       z     vdW  Elec       q    Type
                         _______ _______ _______ _____ _____    ______ ____

>  <TORSDO>
F 13

$$$$
=
 OpenBabel11042417043D

 44 48  0  0  1  0  0  0  0  0999 V2000
  185.4300  177.5970  146.3140 C   0  0  0  0  0  3  0  0  0  0  0  0
  188.6170  177.8450  143.6900 C   0  0  0  0  0  3  0  0  0  0  0  0
  185.1870  178.2770  145.0950 C   0  0  0  0  0  0  0  0  0  0  0  0
  188.9690  176.7740  145.6650 N   0  0  0  0  0  0  0  0  0  0  0  0
  189.5310  177.1540  144.4900 C   0  0  0  0  0  0  0  0  0  0  0  0
  186.6950  177.0530  146.5930 C   0  0  0  0  0  3  0  0  0  0  0  0
  187.4590  177.8570  144.4470 C   0  0  0  0  0  0  0  0  0  0  0  0
  186.2160  178.4100  144.1460 C   0  0  0  0  0  3  0  0  0  0  0  0
  187.6950  177.2070  145.6310 C   0  0  0  0  0  0  0  0  0  0  0  0
  190.9260  176.8840  144.0980 C   0  0  0  0  0  0  0  0  0  0  0  0
  193.0140  176.5800  144.2140 C   0  0  0  0  0  0  0  0  0  0  0  0
  191.3200  176.7100  142.8190 N   0  0  0  0  0  0  0  0  0  0  0  0
  192.6500  176.5110  142.8870 C   0  0  0  0  0  2  0  0  0  0  0  0
  191.9360  176.8060  144.9870 N   0  0  0  0  0  0  0  0  0  0  0  0
  195.0080  175.1340  144.1420 C   0  0  0  0  0  2  0  0  0  0  0  0
  194.4000  176.3690  144.7330 C   0  0  2  0  0  3  0  0  0  0  0  0
  194.3940  176.0940  146.2170 C   0  0  0  0  0  2  0  0  0  0  0  0
  195.4520  174.3240  145.3510 C   0  0  2  0  0  3  0  0  0  0  0  0
  195.3960  175.1520  146.4880 O   0  0  0  0  0  0  0  0  0  0  0  0
  197.5700  174.5630  144.2660 O   0  0  0  0  0  1  0  0  0  0  0  0
  196.8660  173.7410  145.1530 C   0  0  0  0  0  0  0  0  0  0  0  0
  197.5440  173.7140  146.3770 O   0  0  0  0  0  1  0  0  0  0  0  0
  196.7950  172.3230  144.5570 C   0  0  2  0  0  3  0  0  0  0  0  0
  196.7950  172.3620  143.1010 N   0  0  0  0  0  1  0  0  0  0  0  0
  195.5540  171.5750  145.0440 C   0  0  0  0  0  2  0  0  0  0  0  0
  195.9070  169.8120  146.6140 O   0  0  0  0  0  1  0  0  0  0  0  0
  195.8950  170.1670  145.4070 C   0  0  0  0  0  0  0  0  0  0  0  0
  196.1680  169.2390  144.4100 O   0  0  0  0  0  0  0  0  0  0  0  0
  183.3800  178.9570  143.4570 C   0  0  0  0  0  1  0  0  0  0  0  0
  183.9040  178.8390  144.8080 N   0  0  0  0  0  2  0  0  0  0  0  0
  189.6310  176.1030  146.7110 N   0  0  0  0  0  2  0  0  0  0  0  0
  189.6160  174.6560  146.8720 C   0  0  0  0  0  2  0  0  0  0  0  0
  189.4000  174.0230  145.5810 N   0  0  0  0  0  2  0  0  0  0  0  0
  190.4600  173.4380  144.8240 C   0  0  0  0  0  0  0  0  0  0  0  0
  191.6530  173.5140  145.2280 O   0  0  0  0  0  0  0  0  0  0  0  0
  190.1370  172.7390  143.5410 C   0  0  1  0  0  3  0  0  0  0  0  0
  189.0460  173.4130  142.8530 N   0  0  0  0  0  0  0  0  0  0  0  0
  191.2650  172.8720  142.5660 C   0  0  0  0  0  3  0  0  0  0  0  0
  190.8790  173.5040  141.5090 N   0  0  0  0  0  0  0  0  0  0  0  0
  189.5120  173.8200  141.7210 C   0  0  0  0  0  0  0  0  0  0  0  0
  188.6800  174.5780  140.7370 C   0  0  0  0  0  2  0  0  0  0  0  0
  188.6850  173.9620  139.3390 C   0  0  0  0  0  3  0  0  0  0  0  0
  187.8920  174.7940  138.3470 C   0  0  0  0  0  1  0  0  0  0  0  0
  188.1920  172.5270  139.3500 C   0  0  0  0  0  1  0  0  0  0  0  0
  1  6  1  0  0  0  0
  2  7  1  0  0  0  0
  2  5  2  0  0  0  0
  3  1  2  0  0  0  0
  4 31  1  0  0  0  0
  5  4  1  0  0  0  0
  7  9  1  0  0  0  0
  8  7  2  0  0  0  0
  8  3  1  0  0  0  0
  9  4  1  0  0  0  0
  9  6  2  0  0  0  0
 10  5  1  0  0  0  0
 10 14  1  0  0  0  0
 11 14  2  0  0  0  0
 12 13  1  0  0  0  0
 12 10  2  0  0  0  0
 13 11  1  0  0  0  0
 15 16  1  0  0  0  0
 15 18  1  0  0  0  0
 16 11  1  6  0  0  0
 16 17  1  0  0  0  0
 17 19  1  0  0  0  0
 18 21  1  6  0  0  0
 18 19  1  0  0  0  0
 20 21  1  0  0  0  0
 21 22  1  0  0  0  0
 23 24  1  6  0  0  0
 23 25  1  0  0  0  0
 23 21  1  0  0  0  0
 25 27  1  0  0  0  0
 27 26  1  0  0  0  0
 28 27  2  0  0  0  0
 29 30  1  0  0  0  0
 30  3  1  0  0  0  0
 31 32  1  0  0  0  0
 33 32  1  0  0  0  0
 34 35  2  0  0  0  0
 34 33  1  0  0  0  0
 36 34  1  1  0  0  0
 37 36  1  0  0  0  0
 38 36  1  0  0  0  0
 39 40  1  0  0  0  0
 39 38  2  0  0  0  0
 40 37  2  0  0  0  0
 41 40  1  0  0  0  0
 42 44  1  0  0  0  0
 42 41  1  0  0  0  0
 43 42  1  0  0  0  0
M  END
>  <MODEL>
4

>  <REMARK>
 VINA RESULT:      -7.0      2.428      4.866
  Name = 
  13 active torsions:
  status: ('A' for Active; 'I' for Inactive)
    1  A    between atoms: C_6  and  C_33
    2  A    between atoms: C_7  and  C_41
    3  A    between atoms: C_8  and  C_18
    4  A    between atoms: C_8  and  C_25
    5  A    between atoms: C_9  and  C_12
    6  A    between atoms: C_13  and  N_24
    7  A    between atoms: C_14  and  C_17
    8  A    between atoms: N_15  and  C_38
    9  A    between atoms: N_16  and  N_23
   10  A    between atoms: C_18  and  C_27
   11  A    between atoms: C_19  and  C_25
   12  A    between atoms: N_23  and  C_38
   13  A    between atoms: C_41  and  C_44
                            x       y       z     vdW  Elec       q    Type
                         _______ _______ _______ _____ _____    ______ ____

>  <TORSDO>
F 13

$$$$
=
 OpenBabel11042417043D

 44 48  0  0  1  0  0  0  0  0999 V2000
  186.2240  178.9750  142.6390 C   0  0  0  0  0  3  0  0  0  0  0  0
  187.7760  175.1430  142.5610 C   0  0  0  0  0  3  0  0  0  0  0  0
  185.2820  177.9170  142.6600 C   0  0  0  0  0  0  0  0  0  0  0  0
  189.2530  176.8710  142.5130 N   0  0  0  0  0  0  0  0  0  0  0  0
  189.1210  175.5210  142.5200 C   0  0  0  0  0  0  0  0  0  0  0  0
  187.6020  178.7090  142.5870 C   0  0  0  0  0  3  0  0  0  0  0  0
  187.0950  176.3470  142.5870 C   0  0  0  0  0  0  0  0  0  0  0  0
  185.7230  176.5810  142.6340 C   0  0  0  0  0  3  0  0  0  0  0  0
  188.0050  177.3730  142.5580 C   0  0  0  0  0  0  0  0  0  0  0  0
  190.2420  174.5640  142.4820 C   0  0  0  0  0  0  0  0  0  0  0  0
  192.2040  173.7830  142.4490 C   0  0  0  0  0  0  0  0  0  0  0  0
  190.0790  173.2290  142.3660 N   0  0  0  0  0  0  0  0  0  0  0  0
  191.3280  172.7250  142.3500 C   0  0  0  0  0  2  0  0  0  0  0  0
  191.5340  174.9450  142.5430 N   0  0  0  0  0  0  0  0  0  0  0  0
  194.1530  173.4860  143.9290 C   0  0  0  0  0  2  0  0  0  0  0  0
  193.6930  173.6570  142.5130 C   0  0  2  0  0  3  0  0  0  0  0  0
  194.3720  174.9270  142.0630 C   0  0  0  0  0  2  0  0  0  0  0  0
  195.1890  174.5840  144.1160 C   0  0  2  0  0  3  0  0  0  0  0  0
  195.5150  175.1120  142.8530 O   0  0  0  0  0  0  0  0  0  0  0  0
  197.5650  174.7350  144.3500 O   0  0  0  0  0  1  0  0  0  0  0  0
  196.4440  174.0590  144.8440 C   0  0  0  0  0  0  0  0  0  0  0  0
  196.3350  174.3110  146.2170 O   0  0  0  0  0  1  0  0  0  0  0  0
  196.6300  172.5500  144.5970 C   0  0  2  0  0  3  0  0  0  0  0  0
  197.0030  171.8570  145.8230 N   0  0  0  0  0  1  0  0  0  0  0  0
  197.6890  172.2870  143.5250 C   0  0  0  0  0  2  0  0  0  0  0  0
  196.3310  170.9110  142.1250 O   0  0  0  0  0  1  0  0  0  0  0  0
  197.0460  171.9430  142.2230 C   0  0  0  0  0  0  0  0  0  0  0  0
  197.2100  172.7770  141.1250 O   0  0  0  0  0  0  0  0  0  0  0  0
  183.0370  178.1820  141.5210 C   0  0  0  0  0  1  0  0  0  0  0  0
  183.8780  178.1810  142.7070 N   0  0  0  0  0  2  0  0  0  0  0  0
  190.4700  177.5740  142.4290 N   0  0  0  0  0  2  0  0  0  0  0  0
  191.1370  178.1650  143.5800 C   0  0  0  0  0  2  0  0  0  0  0  0
  190.3940  177.8530  144.7890 N   0  0  0  0  0  2  0  0  0  0  0  0
  190.8780  176.9440  145.7780 C   0  0  0  0  0  0  0  0  0  0  0  0
  191.9590  176.3180  145.5960 O   0  0  0  0  0  0  0  0  0  0  0  0
  190.0840  176.7400  147.0300 C   0  0  1  0  0  3  0  0  0  0  0  0
  188.7750  177.3640  146.9110 N   0  0  0  0  0  0  0  0  0  0  0  0
  189.7370  175.2950  147.2070 C   0  0  0  0  0  3  0  0  0  0  0  0
  188.4570  175.1300  147.1980 N   0  0  0  0  0  0  0  0  0  0  0  0
  187.8990  176.4220  147.0130 C   0  0  0  0  0  0  0  0  0  0  0  0
  186.4300  176.6780  146.9230 C   0  0  0  0  0  2  0  0  0  0  0  0
  186.0830  178.1520  146.7190 C   0  0  0  0  0  3  0  0  0  0  0  0
  186.2940  178.9670  147.9820 C   0  0  0  0  0  1  0  0  0  0  0  0
  184.6700  178.3340  146.1930 C   0  0  0  0  0  1  0  0  0  0  0  0
  1  3  1  0  0  0  0
  2  7  1  0  0  0  0
  3 30  1  0  0  0  0
  4  5  1  0  0  0  0
  4  9  1  0  0  0  0
  5  2  2  0  0  0  0
  6  1  2  0  0  0  0
  7  8  1  0  0  0  0
  8  3  2  0  0  0  0
  9  7  2  0  0  0  0
  9  6  1  0  0  0  0
 10  5  1  0  0  0  0
 10 14  1  0  0  0  0
 11 14  2  0  0  0  0
 12 10  2  0  0  0  0
 13 12  1  0  0  0  0
 13 11  1  0  0  0  0
 15 18  1  0  0  0  0
 16 11  1  1  0  0  0
 16 15  1  0  0  0  0
 17 16  1  0  0  0  0
 17 19  1  0  0  0  0
 18 21  1  6  0  0  0
 19 18  1  0  0  0  0
 20 21  1  0  0  0  0
 21 22  1  0  0  0  0
 23 21  1  0  0  0  0
 23 24  1  1  0  0  0
 25 23  1  0  0  0  0
 26 27  1  0  0  0  0
 27 25  1  0  0  0  0
 28 27  2  0  0  0  0
 29 30  1  0  0  0  0
 31  4  1  0  0  0  0
 31 32  1  0  0  0  0
 32 33  1  0  0  0  0
 33 34  1  0  0  0  0
 35 34  2  0  0  0  0
 36 34  1  6  0  0  0
 36 38  1  0  0  0  0
 37 40  2  0  0  0  0
 37 36  1  0  0  0  0
 39 38  2  0  0  0  0
 40 39  1  0  0  0  0
 41 40  1  0  0  0  0
 42 41  1  0  0  0  0
 42 43  1  0  0  0  0
 44 42  1  0  0  0  0
M  END
>  <MODEL>
5

>  <REMARK>
 VINA RESULT:      -6.9      2.454      5.422
  Name = 
  13 active torsions:
  status: ('A' for Active; 'I' for Inactive)
    1  A    between atoms: C_6  and  C_33
    2  A    between atoms: C_7  and  C_41
    3  A    between atoms: C_8  and  C_18
    4  A    between atoms: C_8  and  C_25
    5  A    between atoms: C_9  and  C_12
    6  A    between atoms: C_13  and  N_24
    7  A    between atoms: C_14  and  C_17
    8  A    between atoms: N_15  and  C_38
    9  A    between atoms: N_16  and  N_23
   10  A    between atoms: C_18  and  C_27
   11  A    between atoms: C_19  and  C_25
   12  A    between atoms: N_23  and  C_38
   13  A    between atoms: C_41  and  C_44
                            x       y       z     vdW  Elec       q    Type
                         _______ _______ _______ _____ _____    ______ ____

>  <TORSDO>
F 13

$$$$
=
 OpenBabel11042417043D

 44 48  0  0  1  0  0  0  0  0999 V2000
  197.2100  171.8790  144.9790 C   0  0  0  0  0  3  0  0  0  0  0  0
  193.2300  172.8300  145.5750 C   0  0  0  0  0  3  0  0  0  0  0  0
  196.2930  170.8010  144.9210 C   0  0  0  0  0  0  0  0  0  0  0  0
  194.7380  174.5290  145.6740 N   0  0  0  0  0  0  0  0  0  0  0  0
  193.4250  174.2010  145.7610 C   0  0  0  0  0  0  0  0  0  0  0  0
  196.7660  173.1880  145.2330 C   0  0  0  0  0  3  0  0  0  0  0  0
  194.5070  172.3420  145.3610 C   0  0  0  0  0  0  0  0  0  0  0  0
  194.9200  171.0340  145.1150 C   0  0  0  0  0  3  0  0  0  0  0  0
  195.3970  173.3830  145.4250 C   0  0  0  0  0  0  0  0  0  0  0  0
  192.3330  175.1570  146.0250 C   0  0  0  0  0  0  0  0  0  0  0  0
  190.7890  176.5650  145.7150 C   0  0  0  0  0  0  0  0  0  0  0  0
  191.9310  175.5050  147.2650 N   0  0  0  0  0  0  0  0  0  0  0  0
  190.9420  176.3990  147.0740 C   0  0  0  0  0  2  0  0  0  0  0  0
  191.6520  175.7810  145.0430 N   0  0  0  0  0  0  0  0  0  0  0  0
  188.4690  177.3890  145.8240 C   0  0  0  0  0  2  0  0  0  0  0  0
  189.7630  177.4410  145.0710 C   0  0  2  0  0  3  0  0  0  0  0  0
  189.4000  176.9400  143.6940 C   0  0  0  0  0  2  0  0  0  0  0  0
  187.4390  177.0200  144.7670 C   0  0  2  0  0  3  0  0  0  0  0  0
  188.0300  177.1650  143.4980 O   0  0  0  0  0  0  0  0  0  0  0  0
  185.0720  177.0370  145.1150 O   0  0  0  0  0  1  0  0  0  0  0  0
  186.1650  177.8820  144.8930 C   0  0  0  0  0  0  0  0  0  0  0  0
  186.2900  178.7540  145.9800 O   0  0  0  0  0  1  0  0  0  0  0  0
  185.9150  178.6810  143.6010 C   0  0  2  0  0  3  0  0  0  0  0  0
  185.5620  180.0630  143.8960 N   0  0  0  0  0  1  0  0  0  0  0  0
  184.8090  178.0450  142.7570 C   0  0  0  0  0  2  0  0  0  0  0  0
  184.0910  178.6290  140.5570 O   0  0  0  0  0  0  0  0  0  0  0  0
  185.0460  178.2920  141.3040 C   0  0  0  0  0  0  0  0  0  0  0  0
  186.3280  178.1820  140.7810 O   0  0  0  0  0  1  0  0  0  0  0  0
  197.0730  168.9860  143.3380 C   0  0  0  0  0  1  0  0  0  0  0  0
  196.7400  169.4660  144.6680 N   0  0  0  0  0  2  0  0  0  0  0  0
  195.2750  175.8170  145.8600 N   0  0  0  0  0  2  0  0  0  0  0  0
  195.2760  176.8430  144.8270 C   0  0  0  0  0  2  0  0  0  0  0  0
  195.1930  176.2180  143.5180 N   0  0  0  0  0  2  0  0  0  0  0  0
  196.3490  175.9100  142.7370 C   0  0  0  0  0  0  0  0  0  0  0  0
  197.4990  176.2410  143.1390 O   0  0  0  0  0  0  0  0  0  0  0  0
  196.1770  175.1960  141.4340 C   0  0  1  0  0  3  0  0  0  0  0  0
  195.4380  173.9570  141.6240 N   0  0  0  0  0  0  0  0  0  0  0  0
  195.2800  175.9700  140.5200 C   0  0  0  0  0  3  0  0  0  0  0  0
  194.2220  175.2870  140.2370 N   0  0  0  0  0  0  0  0  0  0  0  0
  194.3540  174.0570  140.9330 C   0  0  0  0  0  0  0  0  0  0  0  0
  193.3240  172.9750  140.8940 C   0  0  0  0  0  2  0  0  0  0  0  0
  192.3380  173.0330  142.0600 C   0  0  0  0  0  3  0  0  0  0  0  0
  191.8020  171.6600  142.4210 C   0  0  0  0  0  1  0  0  0  0  0  0
  191.2000  174.0010  141.7920 C   0  0  0  0  0  1  0  0  0  0  0  0
  1  6  1  0  0  0  0
  2  5  2  0  0  0  0
  3  1  2  0  0  0  0
  3  8  1  0  0  0  0
  4  5  1  0  0  0  0
  4 31  1  0  0  0  0
  5 10  1  0  0  0  0
  6  9  2  0  0  0  0
  7  9  1  0  0  0  0
  7  2  1  0  0  0  0
  8  7  2  0  0  0  0
  9  4  1  0  0  0  0
 10 12  2  0  0  0  0
 11 13  1  0  0  0  0
 13 12  1  0  0  0  0
 14 11  2  0  0  0  0
 14 10  1  0  0  0  0
 16 11  1  1  0  0  0
 16 15  1  0  0  0  0
 17 16  1  0  0  0  0
 18 21  1  6  0  0  0
 18 15  1  0  0  0  0
 19 17  1  0  0  0  0
 19 18  1  0  0  0  0
 21 20  1  0  0  0  0
 21 22  1  0  0  0  0
 23 24  1  1  0  0  0
 23 21  1  0  0  0  0
 25 23  1  0  0  0  0
 26 27  2  0  0  0  0
 27 25  1  0  0  0  0
 28 27  1  0  0  0  0
 29 30  1  0  0  0  0
 30  3  1  0  0  0  0
 32 31  1  0  0  0  0
 33 32  1  0  0  0  0
 34 35  2  0  0  0  0
 34 33  1  0  0  0  0
 36 37  1  0  0  0  0
 36 34  1  1  0  0  0
 38 36  1  0  0  0  0
 39 38  2  0  0  0  0
 39 40  1  0  0  0  0
 40 37  2  0  0  0  0
 41 40  1  0  0  0  0
 41 42  1  0  0  0  0
 42 43  1  0  0  0  0
 44 42  1  0  0  0  0
M  END
>  <MODEL>
6

>  <REMARK>
 VINA RESULT:      -6.9      3.126      9.245
  Name = 
  13 active torsions:
  status: ('A' for Active; 'I' for Inactive)
    1  A    between atoms: C_6  and  C_33
    2  A    between atoms: C_7  and  C_41
    3  A    between atoms: C_8  and  C_18
    4  A    between atoms: C_8  and  C_25
    5  A    between atoms: C_9  and  C_12
    6  A    between atoms: C_13  and  N_24
    7  A    between atoms: C_14  and  C_17
    8  A    between atoms: N_15  and  C_38
    9  A    between atoms: N_16  and  N_23
   10  A    between atoms: C_18  and  C_27
   11  A    between atoms: C_19  and  C_25
   12  A    between atoms: N_23  and  C_38
   13  A    between atoms: C_41  and  C_44
                            x       y       z     vdW  Elec       q    Type
                         _______ _______ _______ _____ _____    ______ ____

>  <TORSDO>
F 13

$$$$
=
 OpenBabel11042417043D

 44 48  0  0  1  0  0  0  0  0999 V2000
  197.5790  170.1350  144.9770 C   0  0  0  0  0  3  0  0  0  0  0  0
  193.4720  170.6040  144.9030 C   0  0  0  0  0  3  0  0  0  0  0  0
  196.8660  169.5860  146.0710 C   0  0  0  0  0  0  0  0  0  0  0  0
  194.6570  171.4840  143.1730 N   0  0  0  0  0  0  0  0  0  0  0  0
  193.4170  171.3010  143.6930 C   0  0  0  0  0  0  0  0  0  0  0  0
  196.9050  170.8040  143.9420 C   0  0  0  0  0  3  0  0  0  0  0  0
  194.8220  170.3650  145.0850 C   0  0  0  0  0  0  0  0  0  0  0  0
  195.4650  169.7020  146.1280 C   0  0  0  0  0  3  0  0  0  0  0  0
  195.5150  170.9040  144.0310 C   0  0  0  0  0  0  0  0  0  0  0  0
  192.1660  171.7780  143.0750 C   0  0  0  0  0  0  0  0  0  0  0  0
  190.6240  173.0610  142.4140 C   0  0  0  0  0  0  0  0  0  0  0  0
  191.2450  170.9560  142.5290 N   0  0  0  0  0  0  0  0  0  0  0  0
  190.2610  171.7700  142.1010 C   0  0  0  0  0  2  0  0  0  0  0  0
  191.8250  173.0810  143.0200 N   0  0  0  0  0  0  0  0  0  0  0  0
  190.1370  175.4010  143.0170 C   0  0  0  0  0  2  0  0  0  0  0  0
  189.8280  174.2800  142.0720 C   0  0  2  0  0  3  0  0  0  0  0  0
  188.3500  174.0430  142.2630 C   0  0  0  0  0  2  0  0  0  0  0  0
  188.7750  175.8230  143.5490 C   0  0  2  0  0  3  0  0  0  0  0  0
  187.7800  175.2270  142.7520 O   0  0  0  0  0  0  0  0  0  0  0  0
  188.9970  177.8250  144.8380 O   0  0  0  0  0  1  0  0  0  0  0  0
  188.6280  177.3580  143.5720 C   0  0  0  0  0  0  0  0  0  0  0  0
  189.4760  177.9300  142.6160 O   0  0  0  0  0  1  0  0  0  0  0  0
  187.1700  177.7730  143.3010 C   0  0  2  0  0  3  0  0  0  0  0  0
  187.0680  178.5840  142.0950 N   0  0  0  0  0  1  0  0  0  0  0  0
  186.5800  178.5450  144.4810 C   0  0  0  0  0  2  0  0  0  0  0  0
  185.9690  176.6020  145.7260 O   0  0  0  0  0  1  0  0  0  0  0  0
  185.6040  177.7000  145.2300 C   0  0  0  0  0  0  0  0  0  0  0  0
  184.2970  178.1380  145.4060 O   0  0  0  0  0  0  0  0  0  0  0  0
  196.8520  168.1700  148.1700 C   0  0  0  0  0  1  0  0  0  0  0  0
  197.5480  168.9110  147.1310 N   0  0  0  0  0  2  0  0  0  0  0  0
  194.9530  172.1880  141.9900 N   0  0  0  0  0  2  0  0  0  0  0  0
  195.5000  173.5370  141.9750 C   0  0  0  0  0  2  0  0  0  0  0  0
  195.0240  174.2700  143.1360 N   0  0  0  0  0  2  0  0  0  0  0  0
  194.9600  175.6960  143.1730 C   0  0  0  0  0  0  0  0  0  0  0  0
  195.3870  176.3810  142.2020 O   0  0  0  0  0  0  0  0  0  0  0  0
  194.3850  176.3670  144.3800 C   0  0  1  0  0  3  0  0  0  0  0  0
  193.0480  175.8620  144.6570 N   0  0  0  0  0  0  0  0  0  0  0  0
  195.1380  175.9760  145.6130 C   0  0  0  0  0  3  0  0  0  0  0  0
  194.3640  175.3640  146.4440 N   0  0  0  0  0  0  0  0  0  0  0  0
  193.0880  175.3120  145.8230 C   0  0  0  0  0  0  0  0  0  0  0  0
  191.8960  174.6620  146.4460 C   0  0  0  0  0  2  0  0  0  0  0  0
  190.8150  175.6550  146.8690 C   0  0  0  0  0  3  0  0  0  0  0  0
  191.2790  176.5530  148.0010 C   0  0  0  0  0  1  0  0  0  0  0  0
  189.5170  174.9580  147.2340 C   0  0  0  0  0  1  0  0  0  0  0  0
  1  3  1  0  0  0  0
  2  7  1  0  0  0  0
  3  8  2  0  0  0  0
  3 30  1  0  0  0  0
  4  5  1  0  0  0  0
  4  9  1  0  0  0  0
  5  2  2  0  0  0  0
  6  9  1  0  0  0  0
  6  1  2  0  0  0  0
  7  8  1  0  0  0  0
  9  7  2  0  0  0  0
 10  5  1  0  0  0  0
 11 14  2  0  0  0  0
 12 10  2  0  0  0  0
 13 11  1  0  0  0  0
 13 12  1  0  0  0  0
 14 10  1  0  0  0  0
 15 18  1  0  0  0  0
 16 17  1  0  0  0  0
 16 11  1  1  0  0  0
 16 15  1  0  0  0  0
 17 19  1  0  0  0  0
 18 21  1  6  0  0  0
 19 18  1  0  0  0  0
 21 20  1  0  0  0  0
 22 21  1  0  0  0  0
 23 24  1  6  0  0  0
 23 21  1  0  0  0  0
 23 25  1  0  0  0  0
 25 27  1  0  0  0  0
 27 28  2  0  0  0  0
 27 26  1  0  0  0  0
 30 29  1  0  0  0  0
 31  4  1  0  0  0  0
 32 31  1  0  0  0  0
 32 33  1  0  0  0  0
 33 34  1  0  0  0  0
 35 34  2  0  0  0  0
 36 34  1  6  0  0  0
 36 37  1  0  0  0  0
 36 38  1  0  0  0  0
 37 40  2  0  0  0  0
 38 39  2  0  0  0  0
 40 39  1  0  0  0  0
 40 41  1  0  0  0  0
 41 42  1  0  0  0  0
 42 44  1  0  0  0  0
 42 43  1  0  0  0  0
M  END
>  <MODEL>
7

>  <REMARK>
 VINA RESULT:      -6.8      2.966      9.579
  Name = 
  13 active torsions:
  status: ('A' for Active; 'I' for Inactive)
    1  A    between atoms: C_6  and  C_33
    2  A    between atoms: C_7  and  C_41
    3  A    between atoms: C_8  and  C_18
    4  A    between atoms: C_8  and  C_25
    5  A    between atoms: C_9  and  C_12
    6  A    between atoms: C_13  and  N_24
    7  A    between atoms: C_14  and  C_17
    8  A    between atoms: N_15  and  C_38
    9  A    between atoms: N_16  and  N_23
   10  A    between atoms: C_18  and  C_27
   11  A    between atoms: C_19  and  C_25
   12  A    between atoms: N_23  and  C_38
   13  A    between atoms: C_41  and  C_44
                            x       y       z     vdW  Elec       q    Type
                         _______ _______ _______ _____ _____    ______ ____

>  <TORSDO>
F 13

$$$$
=
 OpenBabel11042417043D

 44 48  0  0  1  0  0  0  0  0999 V2000
  197.8690  174.5130  141.4630 C   0  0  0  0  0  3  0  0  0  0  0  0
  194.0860  176.0700  142.0620 C   0  0  0  0  0  3  0  0  0  0  0  0
  197.2580  175.1230  140.3400 C   0  0  0  0  0  0  0  0  0  0  0  0
  195.0970  175.0670  143.8350 N   0  0  0  0  0  0  0  0  0  0  0  0
  193.9850  175.7160  143.4110 C   0  0  0  0  0  0  0  0  0  0  0  0
  197.2020  174.4470  142.6980 C   0  0  0  0  0  3  0  0  0  0  0  0
  195.3330  175.6020  141.6910 C   0  0  0  0  0  0  0  0  0  0  0  0
  195.9700  175.6770  140.4550 C   0  0  0  0  0  3  0  0  0  0  0  0
  195.9240  175.0030  142.7750 C   0  0  0  0  0  0  0  0  0  0  0  0
  192.8100  176.0120  144.2510 C   0  0  0  0  0  0  0  0  0  0  0  0
  190.8170  176.0850  144.9500 C   0  0  0  0  0  0  0  0  0  0  0  0
  192.8650  176.7600  145.3730 N   0  0  0  0  0  0  0  0  0  0  0  0
  191.5980  176.8070  145.8260 C   0  0  0  0  0  2  0  0  0  0  0  0
  191.5690  175.5720  143.9590 N   0  0  0  0  0  0  0  0  0  0  0  0
  188.5930  177.1390  145.0710 C   0  0  0  0  0  2  0  0  0  0  0  0
  189.3500  175.8470  145.1100 C   0  0  2  0  0  3  0  0  0  0  0  0
  189.0310  175.2810  146.4720 C   0  0  0  0  0  2  0  0  0  0  0  0
  187.7700  177.1250  146.3510 C   0  0  2  0  0  3  0  0  0  0  0  0
  187.8100  175.8260  146.8930 O   0  0  0  0  0  0  0  0  0  0  0  0
  185.4930  176.4510  146.0590 O   0  0  0  0  0  1  0  0  0  0  0  0
  186.3180  177.5800  146.0950 C   0  0  0  0  0  0  0  0  0  0  0  0
  185.8940  178.4150  147.1360 O   0  0  0  0  0  1  0  0  0  0  0  0
  186.2040  178.3160  144.7470 C   0  0  2  0  0  3  0  0  0  0  0  0
  185.9220  179.7320  144.9420 N   0  0  0  0  0  1  0  0  0  0  0  0
  185.1180  177.6990  143.8650 C   0  0  0  0  0  2  0  0  0  0  0  0
  186.4050  176.1140  142.6280 O   0  0  0  0  0  1  0  0  0  0  0  0
  185.7070  177.1610  142.6030 C   0  0  0  0  0  0  0  0  0  0  0  0
  185.4580  177.7980  141.3940 O   0  0  0  0  0  0  0  0  0  0  0  0
  197.2620  174.9180  137.8170 C   0  0  0  0  0  1  0  0  0  0  0  0
  197.9300  175.1880  139.0790 N   0  0  0  0  0  2  0  0  0  0  0  0
  195.2950  174.5370  145.1240 N   0  0  0  0  0  2  0  0  0  0  0  0
  195.3790  173.1110  145.4020 C   0  0  0  0  0  2  0  0  0  0  0  0
  194.0500  172.5250  145.3530 N   0  0  0  0  0  2  0  0  0  0  0  0
  193.5320  171.8860  144.1850 C   0  0  0  0  0  0  0  0  0  0  0  0
  194.2010  171.8700  143.1150 O   0  0  0  0  0  0  0  0  0  0  0  0
  192.1830  171.2410  144.2470 C   0  0  1  0  0  3  0  0  0  0  0  0
  191.1610  172.1470  143.7460 N   0  0  0  0  0  0  0  0  0  0  0  0
  192.0990  170.0970  143.2850 C   0  0  0  0  0  3  0  0  0  0  0  0
  191.1850  170.3140  142.4000 N   0  0  0  0  0  0  0  0  0  0  0  0
  190.6310  171.5820  142.7150 C   0  0  0  0  0  0  0  0  0  0  0  0
  189.5440  172.2260  141.9160 C   0  0  0  0  0  2  0  0  0  0  0  0
  190.0400  173.3620  141.0220 C   0  0  0  0  0  3  0  0  0  0  0  0
  189.2670  174.6470  141.2530 C   0  0  0  0  0  1  0  0  0  0  0  0
  190.0160  172.9780  139.5540 C   0  0  0  0  0  1  0  0  0  0  0  0
  1  6  1  0  0  0  0
  2  5  2  0  0  0  0
  3  8  1  0  0  0  0
  3  1  2  0  0  0  0
  4 31  1  0  0  0  0
  5  4  1  0  0  0  0
  5 10  1  0  0  0  0
  6  9  2  0  0  0  0
  7  2  1  0  0  0  0
  7  9  1  0  0  0  0
  8  7  2  0  0  0  0
  9  4  1  0  0  0  0
 10 12  2  0  0  0  0
 11 13  1  0  0  0  0
 12 13  1  0  0  0  0
 14 10  1  0  0  0  0
 14 11  2  0  0  0  0
 15 16  1  0  0  0  0
 15 18  1  0  0  0  0
 16 11  1  1  0  0  0
 16 17  1  0  0  0  0
 17 19  1  0  0  0  0
 18 21  1  6  0  0  0
 18 19  1  0  0  0  0
 20 21  1  0  0  0  0
 21 22  1  0  0  0  0
 23 24  1  1  0  0  0
 23 21  1  0  0  0  0
 25 23  1  0  0  0  0
 27 26  1  0  0  0  0
 27 25  1  0  0  0  0
 28 27  2  0  0  0  0
 29 30  1  0  0  0  0
 30  3  1  0  0  0  0
 31 32  1  0  0  0  0
 33 32  1  0  0  0  0
 34 33  1  0  0  0  0
 35 34  2  0  0  0  0
 36 34  1  6  0  0  0
 37 36  1  0  0  0  0
 38 36  1  0  0  0  0
 39 40  1  0  0  0  0
 39 38  2  0  0  0  0
 40 37  2  0  0  0  0
 41 40  1  0  0  0  0
 42 43  1  0  0  0  0
 42 41  1  0  0  0  0
 44 42  1  0  0  0  0
M  END
>  <MODEL>
8

>  <REMARK>
 VINA RESULT:      -6.8      2.970      8.556
  Name = 
  13 active torsions:
  status: ('A' for Active; 'I' for Inactive)
    1  A    between atoms: C_6  and  C_33
    2  A    between atoms: C_7  and  C_41
    3  A    between atoms: C_8  and  C_18
    4  A    between atoms: C_8  and  C_25
    5  A    between atoms: C_9  and  C_12
    6  A    between atoms: C_13  and  N_24
    7  A    between atoms: C_14  and  C_17
    8  A    between atoms: N_15  and  C_38
    9  A    between atoms: N_16  and  N_23
   10  A    between atoms: C_18  and  C_27
   11  A    between atoms: C_19  and  C_25
   12  A    between atoms: N_23  and  C_38
   13  A    between atoms: C_41  and  C_44
                            x       y       z     vdW  Elec       q    Type
                         _______ _______ _______ _____ _____    ______ ____

>  <TORSDO>
F 13

$$$$
=
 OpenBabel11042417043D

 44 48  0  0  1  0  0  0  0  0999 V2000
  197.1970  172.2010  145.9040 C   0  0  0  0  0  3  0  0  0  0  0  0
  193.1900  172.8720  145.1340 C   0  0  0  0  0  3  0  0  0  0  0  0
  196.3950  171.0490  145.7090 C   0  0  0  0  0  0  0  0  0  0  0  0
  194.5100  174.6920  145.4690 N   0  0  0  0  0  0  0  0  0  0  0  0
  193.2520  174.2670  145.1930 C   0  0  0  0  0  0  0  0  0  0  0  0
  196.6350  173.4870  145.8420 C   0  0  0  0  0  3  0  0  0  0  0  0
  194.4910  172.4730  145.3830 C   0  0  0  0  0  0  0  0  0  0  0  0
  195.0200  171.1860  145.4440 C   0  0  0  0  0  3  0  0  0  0  0  0
  195.2670  173.5860  145.5810 C   0  0  0  0  0  0  0  0  0  0  0  0
  192.0900  175.1500  144.9880 C   0  0  0  0  0  0  0  0  0  0  0  0
  190.4910  176.1670  144.0540 C   0  0  0  0  0  0  0  0  0  0  0  0
  191.5790  175.9460  145.9500 N   0  0  0  0  0  0  0  0  0  0  0  0
  190.5550  176.5940  145.3620 C   0  0  0  0  0  2  0  0  0  0  0  0
  191.4450  175.2520  143.8080 N   0  0  0  0  0  0  0  0  0  0  0  0
  188.4520  177.5070  143.7030 C   0  0  0  0  0  2  0  0  0  0  0  0
  189.4640  176.6080  143.0600 C   0  0  2  0  0  3  0  0  0  0  0  0
  188.6460  175.4410  142.5630 C   0  0  0  0  0  2  0  0  0  0  0  0
  187.1160  176.8580  143.3720 C   0  0  2  0  0  3  0  0  0  0  0  0
  187.3270  175.8820  142.3810 O   0  0  0  0  0  0  0  0  0  0  0  0
  186.7530  178.9950  142.3590 O   0  0  0  0  0  1  0  0  0  0  0  0
  186.0770  177.9040  142.9160 C   0  0  0  0  0  0  0  0  0  0  0  0
  185.2410  177.3460  141.9420 O   0  0  0  0  0  1  0  0  0  0  0  0
  185.2400  178.4010  144.1100 C   0  0  2  0  0  3  0  0  0  0  0  0
  185.5090  179.8040  144.3940 N   0  0  0  0  0  1  0  0  0  0  0  0
  185.5090  177.5690  145.3640 C   0  0  0  0  0  2  0  0  0  0  0  0
  183.8600  178.2950  146.9300 O   0  0  0  0  0  0  0  0  0  0  0  0
  185.0710  178.3040  146.5880 C   0  0  0  0  0  0  0  0  0  0  0  0
  186.0050  178.9740  147.3670 O   0  0  0  0  0  1  0  0  0  0  0  0
  196.7300  168.8380  146.8960 C   0  0  0  0  0  1  0  0  0  0  0  0
  196.9600  169.7380  145.7770 N   0  0  0  0  0  2  0  0  0  0  0  0
  194.9010  176.0340  145.6430 N   0  0  0  0  0  2  0  0  0  0  0  0
  195.4700  176.8490  144.5790 C   0  0  0  0  0  2  0  0  0  0  0  0
  195.1830  176.2390  143.2910 N   0  0  0  0  0  2  0  0  0  0  0  0
  196.1700  175.5350  142.5360 C   0  0  0  0  0  0  0  0  0  0  0  0
  197.3640  175.4770  142.9410 O   0  0  0  0  0  0  0  0  0  0  0  0
  195.7700  174.8710  141.2560 C   0  0  1  0  0  3  0  0  0  0  0  0
  195.1530  173.5810  141.5210 N   0  0  0  0  0  0  0  0  0  0  0  0
  194.6620  175.6280  140.5920 C   0  0  0  0  0  3  0  0  0  0  0  0
  193.6060  174.8920  140.4920 N   0  0  0  0  0  0  0  0  0  0  0  0
  193.9450  173.6420  141.0730 C   0  0  0  0  0  0  0  0  0  0  0  0
  192.9880  172.4990  141.1830 C   0  0  0  0  0  2  0  0  0  0  0  0
  191.5250  172.9360  141.2280 C   0  0  0  0  0  3  0  0  0  0  0  0
  190.7180  172.1190  142.2210 C   0  0  0  0  0  1  0  0  0  0  0  0
  190.8800  172.9010  139.8540 C   0  0  0  0  0  1  0  0  0  0  0  0
  2  5  2  0  0  0  0
  2  7  1  0  0  0  0
  3 30  1  0  0  0  0
  3  1  2  0  0  0  0
  4  9  1  0  0  0  0
  4 31  1  0  0  0  0
  5  4  1  0  0  0  0
  6  1  1  0  0  0  0
  7  8  2  0  0  0  0
  7  9  1  0  0  0  0
  8  3  1  0  0  0  0
  9  6  2  0  0  0  0
 10  5  1  0  0  0  0
 10 12  2  0  0  0  0
 11 13  1  0  0  0  0
 13 12  1  0  0  0  0
 14 11  2  0  0  0  0
 14 10  1  0  0  0  0
 16 15  1  0  0  0  0
 16 11  1  1  0  0  0
 17 16  1  0  0  0  0
 18 21  1  6  0  0  0
 18 15  1  0  0  0  0
 19 17  1  0  0  0  0
 19 18  1  0  0  0  0
 20 21  1  0  0  0  0
 21 23  1  0  0  0  0
 22 21  1  0  0  0  0
 23 24  1  1  0  0  0
 23 25  1  0  0  0  0
 25 27  1  0  0  0  0
 27 26  2  0  0  0  0
 27 28  1  0  0  0  0
 30 29  1  0  0  0  0
 32 31  1  0  0  0  0
 33 32  1  0  0  0  0
 34 35  2  0  0  0  0
 34 33  1  0  0  0  0
 36 37  1  0  0  0  0
 36 34  1  1  0  0  0
 38 36  1  0  0  0  0
 39 38  2  0  0  0  0
 39 40  1  0  0  0  0
 40 41  1  0  0  0  0
 40 37  2  0  0  0  0
 41 42  1  0  0  0  0
 42 43  1  0  0  0  0
 44 42  1  0  0  0  0
M  END
>  <MODEL>
9

>  <REMARK>
 VINA RESULT:      -6.7      3.245      9.389
  Name = 
  13 active torsions:
  status: ('A' for Active; 'I' for Inactive)
    1  A    between atoms: C_6  and  C_33
    2  A    between atoms: C_7  and  C_41
    3  A    between atoms: C_8  and  C_18
    4  A    between atoms: C_8  and  C_25
    5  A    between atoms: C_9  and  C_12
    6  A    between atoms: C_13  and  N_24
    7  A    between atoms: C_14  and  C_17
    8  A    between atoms: N_15  and  C_38
    9  A    between atoms: N_16  and  N_23
   10  A    between atoms: C_18  and  C_27
   11  A    between atoms: C_19  and  C_25
   12  A    between atoms: N_23  and  C_38
   13  A    between atoms: C_41  and  C_44
                            x       y       z     vdW  Elec       q    Type
                         _______ _______ _______ _____ _____    ______ ____

>  <TORSDO>
F 13

$$$$
