=
 OpenBabel11042419293D

 40 45  0  0  1  0  0  0  0  0999 V2000
  191.2200  173.8810  142.7810 C   0  0  1  0  0  3  0  0  0  0  0  0
  191.0270  171.7830  141.8250 C   0  0  0  0  0  0  0  0  0  0  0  0
  189.0680  173.2870  142.2790 C   0  0  0  0  0  0  0  0  0  0  0  0
  190.3380  172.6890  142.7850 C   0  0  2  0  0  3  0  0  0  0  0  0
  190.4820  170.8020  141.3480 O   0  0  0  0  0  0  0  0  0  0  0  0
  189.2200  174.5920  142.1190 C   0  0  0  0  0  0  0  0  0  0  0  0
  192.7570  172.1620  141.4950 S   0  0  0  0  0  0  0  0  0  0  0  0
  187.7870  172.5450  142.1030 C   0  0  0  0  0  1  0  0  0  0  0  0
  192.6700  173.6450  142.5640 C   0  0  2  0  0  3  0  0  0  0  0  0
  190.6000  174.9770  142.3570 C   0  0  0  0  0  2  0  0  0  0  0  0
  186.9090  176.2120  141.8660 C   0  0  1  0  0  3  0  0  0  0  0  0
  187.6050  176.4310  140.6940 C   0  0  0  0  0  2  0  0  0  0  0  0
  188.1990  175.4830  141.6790 N   0  0  0  0  0  0  0  0  0  0  0  0
  186.6180  177.2450  144.1580 N   0  0  0  0  0  2  0  0  0  0  0  0
  187.1100  177.3460  142.8180 C   0  0  0  0  0  0  0  0  0  0  0  0
  187.7420  178.3720  142.4460 O   0  0  0  0  0  0  0  0  0  0  0  0
  185.7600  177.1480  147.1350 C   0  0  0  0  0  2  0  0  0  0  0  0
  184.8140  178.3170  147.3770 C   0  0  0  0  0  2  0  0  0  0  0  0
  186.8140  178.2940  145.1500 C   0  0  1  0  0  3  0  0  0  0  0  0
  185.6230  179.2090  145.1540 C   0  0  0  0  0  0  0  0  0  0  0  0
  185.4830  180.0540  144.2330 O   0  0  0  0  0  0  0  0  0  0  0  0
  187.0560  177.6770  146.5320 C   0  0  0  0  0  2  0  0  0  0  0  0
  184.5990  179.0690  146.1460 N   0  0  0  0  0  2  0  0  0  0  0  0
  193.3720  173.3460  143.8830 C   0  0  0  0  0  2  0  0  0  0  0  0
  194.1690  175.6610  143.4790 C   0  0  1  0  0  3  0  0  0  0  0  0
  194.5180  174.6590  145.6110 C   0  0  0  0  0  2  0  0  0  0  0  0
  194.4910  174.3380  144.1490 C   0  0  1  0  0  3  0  0  0  0  0  0
  193.9350  176.6390  144.4650 O   0  0  0  0  0  0  0  0  0  0  0  0
  194.5310  176.1640  145.6460 C   0  0  1  0  0  3  0  0  0  0  0  0
  196.7990  175.2010  140.9420 N   0  0  0  0  0  1  0  0  0  0  0  0
  195.3170  176.0910  142.5750 C   0  0  1  0  0  3  0  0  0  0  0  0
  195.4460  175.1490  141.4680 C   0  0  1  0  0  3  0  0  0  0  0  0
  194.7920  176.4450  141.2480 N   0  0  0  0  0  2  0  0  0  0  0  0
  193.7690  176.6490  146.8410 C   0  0  0  0  0  3  0  0  0  0  0  0
  192.4330  176.6050  146.9300 C   0  0  0  0  0  3  0  0  0  0  0  0
  191.5500  176.0820  145.8350 C   0  0  1  0  0  3  0  0  0  0  0  0
  189.4100  174.8050  145.9560 C   0  0  0  0  0  1  0  0  0  0  0  0
  190.8910  174.7860  146.2850 C   0  0  0  0  0  2  0  0  0  0  0  0
  190.9480  177.8710  144.3310 O   0  0  0  0  0  1  0  0  0  0  0  0
  190.5060  177.1230  145.4250 C   0  0  0  0  0  2  0  0  0  0  0  0
  1 10  1  6  0  0  0
  1  4  1  0  0  0  0
  3  4  1  0  0  0  0
  4  2  1  6  0  0  0
  5  2  2  0  0  0  0
  6  3  2  0  0  0  0
  6 10  1  0  0  0  0
  7  2  1  0  0  0  0
  7  9  1  0  0  0  0
  8  3  1  0  0  0  0
  9  1  1  0  0  0  0
  9 24  1  1  0  0  0
 11 15  1  1  0  0  0
 12 13  1  0  0  0  0
 12 11  1  0  0  0  0
 13 11  1  0  0  0  0
 13  6  1  0  0  0  0
 15 14  1  0  0  0  0
 16 15  2  0  0  0  0
 17 18  1  0  0  0  0
 19 14  1  6  0  0  0
 19 20  1  0  0  0  0
 19 22  1  0  0  0  0
 20 23  1  0  0  0  0
 21 20  2  0  0  0  0
 22 17  1  0  0  0  0
 23 18  1  0  0  0  0
 25 27  1  0  0  0  0
 25 28  1  1  0  0  0
 26 29  1  0  0  0  0
 27 24  1  1  0  0  0
 27 26  1  0  0  0  0
 28 29  1  0  0  0  0
 29 34  1  1  0  0  0
 31 33  1  6  0  0  0
 31 25  1  0  0  0  0
 32 30  1  6  0  0  0
 32 31  1  0  0  0  0
 33 32  1  0  0  0  0
 34 35  2  0  0  0  0
 36 40  1  1  0  0  0
 36 38  1  0  0  0  0
 36 35  1  0  0  0  0
 37 38  1  0  0  0  0
 39 40  1  0  0  0  0
M  END
>  <MODEL>
1

>  <REMARK>
 VINA RESULT:      -7.5      0.000      0.000
  Name = 
  10 active torsions:
  status: ('A' for Active; 'I' for Inactive)
    1  A    between atoms: C_1  and  C_16
    2  A    between atoms: N_3  and  C_18
    3  A    between atoms: C_4  and  C_28
    4  A    between atoms: C_8  and  C_13
    5  A    between atoms: C_8  and  C_31
    6  A    between atoms: C_8  and  C_39
    7  A    between atoms: C_14  and  C_15
    8  A    between atoms: C_15  and  C_37
    9  A    between atoms: C_17  and  C_21
   10  A    between atoms: C_34  and  N_40
                            x       y       z     vdW  Elec       q    Type
                         _______ _______ _______ _____ _____    ______ ____

>  <TORSDO>
F 10

$$$$
=
 OpenBabel11042419293D

 40 45  0  0  1  0  0  0  0  0999 V2000
  191.0210  173.5460  143.2030 C   0  0  1  0  0  3  0  0  0  0  0  0
  190.8550  171.4610  142.2140 C   0  0  0  0  0  0  0  0  0  0  0  0
  188.9250  173.0520  142.4310 C   0  0  0  0  0  0  0  0  0  0  0  0
  190.0930  172.3960  143.0880 C   0  0  2  0  0  3  0  0  0  0  0  0
  190.3290  170.5070  141.6650 O   0  0  0  0  0  0  0  0  0  0  0  0
  189.1550  174.3490  142.3010 C   0  0  0  0  0  0  0  0  0  0  0  0
  192.6280  171.7600  142.1060 S   0  0  0  0  0  0  0  0  0  0  0  0
  187.6430  172.3710  142.0900 C   0  0  0  0  0  1  0  0  0  0  0  0
  192.4750  173.2440  143.1680 C   0  0  2  0  0  3  0  0  0  0  0  0
  190.5100  174.6700  142.7130 C   0  0  0  0  0  2  0  0  0  0  0  0
  186.9840  176.0960  141.7870 C   0  0  1  0  0  3  0  0  0  0  0  0
  187.8030  176.2420  140.6850 C   0  0  0  0  0  2  0  0  0  0  0  0
  188.2390  175.2870  141.7440 N   0  0  0  0  0  0  0  0  0  0  0  0
  186.4950  177.2300  143.9960 N   0  0  0  0  0  2  0  0  0  0  0  0
  187.1610  177.2420  142.7300 C   0  0  0  0  0  0  0  0  0  0  0  0
  187.9230  178.1970  142.4200 O   0  0  0  0  0  0  0  0  0  0  0  0
  185.4320  177.2160  146.9080 C   0  0  0  0  0  2  0  0  0  0  0  0
  184.5090  178.4170  147.0640 C   0  0  0  0  0  2  0  0  0  0  0  0
  186.6540  178.2920  144.9810 C   0  0  1  0  0  3  0  0  0  0  0  0
  185.4930  179.2410  144.8860 C   0  0  0  0  0  0  0  0  0  0  0  0
  185.4430  180.0710  143.9420 O   0  0  0  0  0  0  0  0  0  0  0  0
  186.7830  177.6960  146.3870 C   0  0  0  0  0  2  0  0  0  0  0  0
  184.4000  179.1500  145.8070 N   0  0  0  0  0  2  0  0  0  0  0  0
  192.9910  172.9100  144.5610 C   0  0  0  0  0  2  0  0  0  0  0  0
  194.2770  175.0040  144.2190 C   0  0  1  0  0  3  0  0  0  0  0  0
  192.4440  174.9920  145.7400 C   0  0  0  0  0  2  0  0  0  0  0  0
  193.5690  174.1380  145.2440 C   0  0  1  0  0  3  0  0  0  0  0  0
  193.5730  176.2140  144.0630 O   0  0  0  0  0  0  0  0  0  0  0  0
  192.7790  176.3630  145.2130 C   0  0  1  0  0  3  0  0  0  0  0  0
  197.6970  174.1340  145.2740 N   0  0  0  0  0  1  0  0  0  0  0  0
  195.7090  175.2840  144.6590 C   0  0  1  0  0  3  0  0  0  0  0  0
  196.5380  174.1110  144.4000 C   0  0  1  0  0  3  0  0  0  0  0  0
  196.5970  175.2600  143.4870 N   0  0  0  0  0  2  0  0  0  0  0  0
  191.5180  177.0990  144.8790 C   0  0  0  0  0  3  0  0  0  0  0  0
  190.4610  177.1590  145.7010 C   0  0  0  0  0  3  0  0  0  0  0  0
  190.4160  176.4810  147.0380 C   0  0  1  0  0  3  0  0  0  0  0  0
  191.6410  177.5290  148.9420 C   0  0  0  0  0  1  0  0  0  0  0  0
  190.3520  177.5280  148.1410 C   0  0  0  0  0  2  0  0  0  0  0  0
  189.0750  174.8100  145.9260 O   0  0  0  0  0  1  0  0  0  0  0  0
  189.2350  175.5110  147.1240 C   0  0  0  0  0  2  0  0  0  0  0  0
  1 10  1  6  0  0  0
  3  4  1  0  0  0  0
  4  2  1  6  0  0  0
  4  1  1  0  0  0  0
  5  2  2  0  0  0  0
  6  3  2  0  0  0  0
  6 10  1  0  0  0  0
  7  2  1  0  0  0  0
  7  9  1  0  0  0  0
  8  3  1  0  0  0  0
  9  1  1  0  0  0  0
  9 24  1  1  0  0  0
 11 15  1  1  0  0  0
 12 13  1  0  0  0  0
 12 11  1  0  0  0  0
 13 11  1  0  0  0  0
 13  6  1  0  0  0  0
 15 14  1  0  0  0  0
 16 15  2  0  0  0  0
 17 18  1  0  0  0  0
 19 14  1  6  0  0  0
 19 22  1  0  0  0  0
 20 19  1  0  0  0  0
 20 23  1  0  0  0  0
 21 20  2  0  0  0  0
 22 17  1  0  0  0  0
 23 18  1  0  0  0  0
 25 28  1  1  0  0  0
 25 31  1  0  0  0  0
 25 27  1  0  0  0  0
 27 24  1  6  0  0  0
 27 26  1  0  0  0  0
 28 29  1  0  0  0  0
 29 34  1  6  0  0  0
 29 26  1  0  0  0  0
 31 33  1  6  0  0  0
 32 31  1  0  0  0  0
 32 30  1  1  0  0  0
 33 32  1  0  0  0  0
 34 35  2  0  0  0  0
 36 35  1  6  0  0  0
 36 40  1  0  0  0  0
 36 38  1  0  0  0  0
 38 37  1  0  0  0  0
 39 40  1  0  0  0  0
M  END
>  <MODEL>
2

>  <REMARK>
 VINA RESULT:      -6.8      1.403      1.837
  Name = 
  10 active torsions:
  status: ('A' for Active; 'I' for Inactive)
    1  A    between atoms: C_1  and  C_16
    2  A    between atoms: N_3  and  C_18
    3  A    between atoms: C_4  and  C_28
    4  A    between atoms: C_8  and  C_13
    5  A    between atoms: C_8  and  C_31
    6  A    between atoms: C_8  and  C_39
    7  A    between atoms: C_14  and  C_15
    8  A    between atoms: C_15  and  C_37
    9  A    between atoms: C_17  and  C_21
   10  A    between atoms: C_34  and  N_40
                            x       y       z     vdW  Elec       q    Type
                         _______ _______ _______ _____ _____    ______ ____

>  <TORSDO>
F 10

$$$$
=
 OpenBabel11042419293D

 40 45  0  0  1  0  0  0  0  0999 V2000
  187.2920  177.3660  144.5180 C   0  0  1  0  0  3  0  0  0  0  0  0
  186.2120  178.1800  146.3960 C   0  0  0  0  0  0  0  0  0  0  0  0
  185.7400  178.9850  144.0650 C   0  0  0  0  0  0  0  0  0  0  0  0
  186.7660  178.6290  145.0890 C   0  0  2  0  0  3  0  0  0  0  0  0
  185.4540  178.8700  147.0560 O   0  0  0  0  0  0  0  0  0  0  0  0
  185.7760  178.1100  143.0730 C   0  0  0  0  0  0  0  0  0  0  0  0
  186.8190  176.5940  146.9990 S   0  0  0  0  0  0  0  0  0  0  0  0
  184.8930  180.2110  144.0970 C   0  0  0  0  0  1  0  0  0  0  0  0
  187.8110  176.3580  145.4780 C   0  0  2  0  0  3  0  0  0  0  0  0
  186.6990  177.0310  143.3780 C   0  0  0  0  0  2  0  0  0  0  0  0
  183.7590  177.7490  141.1150 C   0  0  1  0  0  3  0  0  0  0  0  0
  184.6020  178.6920  140.5610 C   0  0  0  0  0  2  0  0  0  0  0  0
  184.9540  178.1630  141.9100 N   0  0  0  0  0  0  0  0  0  0  0  0
  181.4490  178.7330  140.8100 N   0  0  0  0  0  2  0  0  0  0  0  0
  182.5370  178.4000  141.6760 C   0  0  0  0  0  0  0  0  0  0  0  0
  182.4560  178.6200  142.9150 O   0  0  0  0  0  0  0  0  0  0  0  0
  178.6050  177.5210  140.5800 C   0  0  0  0  0  2  0  0  0  0  0  0
  177.7460  178.5120  139.8060 C   0  0  0  0  0  2  0  0  0  0  0  0
  180.2110  179.3310  141.2930 C   0  0  1  0  0  3  0  0  0  0  0  0
  179.6060  180.1760  140.2090 C   0  0  0  0  0  0  0  0  0  0  0  0
  180.0970  181.3060  139.9530 O   0  0  0  0  0  0  0  0  0  0  0  0
  179.2430  178.2400  141.7640 C   0  0  0  0  0  2  0  0  0  0  0  0
  178.5330  179.6730  139.4040 N   0  0  0  0  0  2  0  0  0  0  0  0
  189.2760  176.6210  145.7980 C   0  0  0  0  0  2  0  0  0  0  0  0
  190.9090  175.6060  144.2300 C   0  0  1  0  0  3  0  0  0  0  0  0
  191.1840  175.2870  146.5740 C   0  0  0  0  0  2  0  0  0  0  0  0
  190.1310  175.3980  145.5160 C   0  0  1  0  0  3  0  0  0  0  0  0
  192.2820  175.7040  144.5260 O   0  0  0  0  0  0  0  0  0  0  0  0
  192.4600  175.1180  145.7910 C   0  0  1  0  0  3  0  0  0  0  0  0
  188.9430  172.9380  142.6220 N   0  0  0  0  0  1  0  0  0  0  0  0
  190.6600  174.4520  143.2670 C   0  0  1  0  0  3  0  0  0  0  0  0
  189.2250  174.2970  143.0510 C   0  0  1  0  0  3  0  0  0  0  0  0
  190.0450  174.9660  142.0330 N   0  0  0  0  0  2  0  0  0  0  0  0
  193.5890  175.7840  146.5140 C   0  0  0  0  0  3  0  0  0  0  0  0
  194.8780  175.6080  146.1900 C   0  0  0  0  0  3  0  0  0  0  0  0
  195.3330  174.7110  145.0770 C   0  0  1  0  0  3  0  0  0  0  0  0
  195.6060  174.7640  142.5980 C   0  0  0  0  0  1  0  0  0  0  0  0
  195.7640  175.5520  143.8850 C   0  0  0  0  0  2  0  0  0  0  0  0
  195.9580  172.5420  145.9320 O   0  0  0  0  0  1  0  0  0  0  0  0
  196.4600  173.7860  145.5420 C   0  0  0  0  0  2  0  0  0  0  0  0
  1 10  1  1  0  0  0
  1  4  1  0  0  0  0
  1  9  1  0  0  0  0
  2  7  1  0  0  0  0
  2  5  2  0  0  0  0
  3  8  1  0  0  0  0
  4  3  1  6  0  0  0
  4  2  1  0  0  0  0
  6 10  1  0  0  0  0
  6  3  2  0  0  0  0
  9 24  1  1  0  0  0
  9  7  1  0  0  0  0
 11 15  1  1  0  0  0
 11 13  1  0  0  0  0
 12 11  1  0  0  0  0
 12 13  1  0  0  0  0
 13  6  1  0  0  0  0
 14 15  1  0  0  0  0
 15 16  2  0  0  0  0
 17 22  1  0  0  0  0
 18 17  1  0  0  0  0
 19 14  1  6  0  0  0
 19 22  1  0  0  0  0
 20 19  1  0  0  0  0
 21 20  2  0  0  0  0
 23 18  1  0  0  0  0
 23 20  1  0  0  0  0
 25 28  1  1  0  0  0
 25 27  1  0  0  0  0
 27 24  1  1  0  0  0
 27 26  1  0  0  0  0
 28 29  1  0  0  0  0
 29 34  1  1  0  0  0
 29 26  1  0  0  0  0
 31 33  1  6  0  0  0
 31 25  1  0  0  0  0
 32 30  1  6  0  0  0
 32 31  1  0  0  0  0
 33 32  1  0  0  0  0
 35 34  2  0  0  0  0
 36 38  1  6  0  0  0
 36 40  1  0  0  0  0
 36 35  1  0  0  0  0
 37 38  1  0  0  0  0
 40 39  1  0  0  0  0
M  END
>  <MODEL>
3

>  <REMARK>
 VINA RESULT:      -6.6      4.269      6.538
  Name = 
  10 active torsions:
  status: ('A' for Active; 'I' for Inactive)
    1  A    between atoms: C_1  and  C_16
    2  A    between atoms: N_3  and  C_18
    3  A    between atoms: C_4  and  C_28
    4  A    between atoms: C_8  and  C_13
    5  A    between atoms: C_8  and  C_31
    6  A    between atoms: C_8  and  C_39
    7  A    between atoms: C_14  and  C_15
    8  A    between atoms: C_15  and  C_37
    9  A    between atoms: C_17  and  C_21
   10  A    between atoms: C_34  and  N_40
                            x       y       z     vdW  Elec       q    Type
                         _______ _______ _______ _____ _____    ______ ____

>  <TORSDO>
F 10

$$$$
=
 OpenBabel11042419293D

 40 45  0  0  1  0  0  0  0  0999 V2000
  192.3520  174.2260  143.7080 C   0  0  1  0  0  3  0  0  0  0  0  0
  194.1910  173.1080  144.5570 C   0  0  0  0  0  0  0  0  0  0  0  0
  193.3470  175.2890  145.4720 C   0  0  0  0  0  0  0  0  0  0  0  0
  193.7000  174.4840  144.2660 C   0  0  2  0  0  3  0  0  0  0  0  0
  195.1580  172.8980  145.2690 O   0  0  0  0  0  0  0  0  0  0  0  0
  192.0410  175.5010  145.5010 C   0  0  0  0  0  0  0  0  0  0  0  0
  193.3340  171.7750  143.7010 S   0  0  0  0  0  0  0  0  0  0  0  0
  194.3330  175.8730  146.4260 C   0  0  0  0  0  1  0  0  0  0  0  0
  192.1700  172.9660  142.9420 C   0  0  2  0  0  3  0  0  0  0  0  0
  191.3820  174.7690  144.4340 C   0  0  0  0  0  2  0  0  0  0  0  0
  190.3520  177.2730  146.9280 C   0  0  1  0  0  3  0  0  0  0  0  0
  191.0860  176.6410  147.9120 C   0  0  0  0  0  2  0  0  0  0  0  0
  191.3620  176.2610  146.4970 N   0  0  0  0  0  0  0  0  0  0  0  0
  187.9100  177.4610  146.2910 N   0  0  0  0  0  2  0  0  0  0  0  0
  188.9820  176.6830  146.8320 C   0  0  0  0  0  0  0  0  0  0  0  0
  188.7850  175.4920  147.1970 O   0  0  0  0  0  0  0  0  0  0  0  0
  185.6210  178.7450  144.6420 C   0  0  0  0  0  2  0  0  0  0  0  0
  184.4590  179.0000  145.5920 C   0  0  0  0  0  2  0  0  0  0  0  0
  186.5600  176.9370  146.1290 C   0  0  1  0  0  3  0  0  0  0  0  0
  185.6760  177.4880  147.2120 C   0  0  0  0  0  0  0  0  0  0  0  0
  185.7580  177.0240  148.3780 O   0  0  0  0  0  0  0  0  0  0  0  0
  186.0230  177.2770  144.7350 C   0  0  0  0  0  2  0  0  0  0  0  0
  184.8060  178.5950  146.9500 N   0  0  0  0  0  2  0  0  0  0  0  0
  192.5470  173.1630  141.4800 C   0  0  0  0  0  2  0  0  0  0  0  0
  190.5220  171.9310  140.7490 C   0  0  1  0  0  3  0  0  0  0  0  0
  190.3960  174.2830  141.1020 C   0  0  0  0  0  2  0  0  0  0  0  0
  191.3140  173.2160  140.5940 C   0  0  1  0  0  3  0  0  0  0  0  0
  189.2940  172.2130  141.3780 O   0  0  0  0  0  0  0  0  0  0  0  0
  189.0630  173.5880  141.2030 C   0  0  1  0  0  3  0  0  0  0  0  0
  191.3400  171.0030  137.2800 N   0  0  0  0  0  1  0  0  0  0  0  0
  190.2790  171.2900  139.3880 C   0  0  1  0  0  3  0  0  0  0  0  0
  191.5560  171.0770  138.7140 C   0  0  1  0  0  3  0  0  0  0  0  0
  190.8790  169.9470  139.3640 N   0  0  0  0  0  2  0  0  0  0  0  0
  188.2940  174.1350  142.3660 C   0  0  0  0  0  3  0  0  0  0  0  0
  187.9320  175.4220  142.4700 C   0  0  0  0  0  3  0  0  0  0  0  0
  188.2730  176.4600  141.4420 C   0  0  1  0  0  3  0  0  0  0  0  0
  186.2990  177.9380  141.0650 C   0  0  0  0  0  1  0  0  0  0  0  0
  187.0610  176.7260  140.5620 C   0  0  0  0  0  2  0  0  0  0  0  0
  189.4200  177.4690  143.3110 O   0  0  0  0  0  1  0  0  0  0  0  0
  188.7730  177.7460  142.1040 C   0  0  0  0  0  2  0  0  0  0  0  0
  1  4  1  0  0  0  0
  1 10  1  1  0  0  0
  2  5  2  0  0  0  0
  3  6  2  0  0  0  0
  3  8  1  0  0  0  0
  4  2  1  1  0  0  0
  4  3  1  0  0  0  0
  6 13  1  0  0  0  0
  7  2  1  0  0  0  0
  9 24  1  6  0  0  0
  9  7  1  0  0  0  0
  9  1  1  0  0  0  0
 10  6  1  0  0  0  0
 11 15  1  1  0  0  0
 11 12  1  0  0  0  0
 13 11  1  0  0  0  0
 13 12  1  0  0  0  0
 14 15  1  0  0  0  0
 15 16  2  0  0  0  0
 17 22  1  0  0  0  0
 17 18  1  0  0  0  0
 18 23  1  0  0  0  0
 19 14  1  1  0  0  0
 19 20  1  0  0  0  0
 20 21  2  0  0  0  0
 22 19  1  0  0  0  0
 23 20  1  0  0  0  0
 25 28  1  6  0  0  0
 26 29  1  0  0  0  0
 27 25  1  0  0  0  0
 27 26  1  0  0  0  0
 27 24  1  1  0  0  0
 29 28  1  0  0  0  0
 29 34  1  1  0  0  0
 31 33  1  1  0  0  0
 31 25  1  0  0  0  0
 32 30  1  6  0  0  0
 32 33  1  0  0  0  0
 32 31  1  0  0  0  0
 34 35  2  0  0  0  0
 36 38  1  1  0  0  0
 36 40  1  0  0  0  0
 36 35  1  0  0  0  0
 38 37  1  0  0  0  0
 40 39  1  0  0  0  0
M  END
>  <MODEL>
4

>  <REMARK>
 VINA RESULT:      -6.5      2.583      5.329
  Name = 
  10 active torsions:
  status: ('A' for Active; 'I' for Inactive)
    1  A    between atoms: C_1  and  C_16
    2  A    between atoms: N_3  and  C_18
    3  A    between atoms: C_4  and  C_28
    4  A    between atoms: C_8  and  C_13
    5  A    between atoms: C_8  and  C_31
    6  A    between atoms: C_8  and  C_39
    7  A    between atoms: C_14  and  C_15
    8  A    between atoms: C_15  and  C_37
    9  A    between atoms: C_17  and  C_21
   10  A    between atoms: C_34  and  N_40
                            x       y       z     vdW  Elec       q    Type
                         _______ _______ _______ _____ _____    ______ ____

>  <TORSDO>
F 10

$$$$
=
 OpenBabel11042419293D

 40 45  0  0  1  0  0  0  0  0999 V2000
  186.9300  177.2140  142.1840 C   0  0  1  0  0  3  0  0  0  0  0  0
  185.0720  178.0350  141.0770 C   0  0  0  0  0  0  0  0  0  0  0  0
  187.0030  176.9260  139.9160 C   0  0  0  0  0  0  0  0  0  0  0  0
  186.5500  177.9160  140.9360 C   0  0  2  0  0  3  0  0  0  0  0  0
  184.3480  178.3190  140.1370 O   0  0  0  0  0  0  0  0  0  0  0  0
  187.6040  175.9110  140.5150 C   0  0  0  0  0  0  0  0  0  0  0  0
  184.4270  177.8400  142.7470 S   0  0  0  0  0  0  0  0  0  0  0  0
  186.9060  177.1160  138.4400 C   0  0  0  0  0  1  0  0  0  0  0  0
  186.1050  177.4870  143.3890 C   0  0  2  0  0  3  0  0  0  0  0  0
  187.4990  176.0350  141.9580 C   0  0  0  0  0  2  0  0  0  0  0  0
  189.2600  173.7730  139.6660 C   0  0  1  0  0  3  0  0  0  0  0  0
  188.1900  173.7390  138.7930 C   0  0  0  0  0  2  0  0  0  0  0  0
  188.1880  174.7980  139.8420 N   0  0  0  0  0  0  0  0  0  0  0  0
  190.2870  172.1300  141.2930 N   0  0  0  0  0  2  0  0  0  0  0  0
  189.1180  172.7170  140.7140 C   0  0  0  0  0  0  0  0  0  0  0  0
  187.9700  172.3740  141.1070 O   0  0  0  0  0  0  0  0  0  0  0  0
  192.0710  172.0050  143.8250 C   0  0  0  0  0  2  0  0  0  0  0  0
  192.7960  170.6670  143.8080 C   0  0  0  0  0  2  0  0  0  0  0  0
  190.2250  171.1260  142.3470 C   0  0  1  0  0  3  0  0  0  0  0  0
  191.1500  169.9910  142.0130 C   0  0  0  0  0  0  0  0  0  0  0  0
  190.8130  169.1500  141.1400 O   0  0  0  0  0  0  0  0  0  0  0  0
  190.5720  171.7570  143.7010 C   0  0  0  0  0  2  0  0  0  0  0  0
  192.4480  169.9060  142.6130 N   0  0  0  0  0  2  0  0  0  0  0  0
  186.6190  178.7150  144.1290 C   0  0  0  0  0  2  0  0  0  0  0  0
  186.5740  177.2480  146.1290 C   0  0  1  0  0  3  0  0  0  0  0  0
  188.6450  177.6630  145.0310 C   0  0  0  0  0  2  0  0  0  0  0  0
  187.3540  178.3250  145.4000 C   0  0  1  0  0  3  0  0  0  0  0  0
  187.3020  176.0430  146.1020 O   0  0  0  0  0  0  0  0  0  0  0  0
  188.6380  176.3920  145.8390 C   0  0  1  0  0  3  0  0  0  0  0  0
  186.6290  179.5170  149.0300 N   0  0  0  0  0  1  0  0  0  0  0  0
  186.3070  177.6690  147.5690 C   0  0  1  0  0  3  0  0  0  0  0  0
  186.3280  179.1250  147.6650 C   0  0  1  0  0  3  0  0  0  0  0  0
  185.0420  178.4160  147.6360 N   0  0  0  0  0  2  0  0  0  0  0  0
  189.3160  175.3000  145.0710 C   0  0  0  0  0  3  0  0  0  0  0  0
  190.6470  175.1680  144.9970 C   0  0  0  0  0  3  0  0  0  0  0  0
  191.6080  176.1100  145.6610 C   0  0  1  0  0  3  0  0  0  0  0  0
  191.4140  175.2910  148.0100 C   0  0  0  0  0  1  0  0  0  0  0  0
  192.3220  175.3950  146.7990 C   0  0  0  0  0  2  0  0  0  0  0  0
  192.0130  177.6840  143.8760 O   0  0  0  0  0  1  0  0  0  0  0  0
  192.6040  176.6830  144.6510 C   0  0  0  0  0  2  0  0  0  0  0  0
  1 10  1  6  0  0  0
  1  9  1  0  0  0  0
  2  7  1  0  0  0  0
  3  6  2  0  0  0  0
  4  3  1  6  0  0  0
  4  2  1  0  0  0  0
  4  1  1  0  0  0  0
  5  2  2  0  0  0  0
  6 10  1  0  0  0  0
  7  9  1  0  0  0  0
  8  3  1  0  0  0  0
  9 24  1  6  0  0  0
 11 13  1  0  0  0  0
 11 15  1  1  0  0  0
 12 11  1  0  0  0  0
 12 13  1  0  0  0  0
 13  6  1  0  0  0  0
 15 16  2  0  0  0  0
 15 14  1  0  0  0  0
 18 17  1  0  0  0  0
 19 14  1  6  0  0  0
 19 22  1  0  0  0  0
 20 19  1  0  0  0  0
 20 23  1  0  0  0  0
 21 20  2  0  0  0  0
 22 17  1  0  0  0  0
 23 18  1  0  0  0  0
 25 28  1  1  0  0  0
 25 31  1  0  0  0  0
 26 27  1  0  0  0  0
 26 29  1  0  0  0  0
 27 24  1  6  0  0  0
 27 25  1  0  0  0  0
 29 34  1  6  0  0  0
 29 28  1  0  0  0  0
 31 33  1  6  0  0  0
 31 32  1  0  0  0  0
 32 30  1  1  0  0  0
 33 32  1  0  0  0  0
 35 34  2  0  0  0  0
 35 36  1  0  0  0  0
 36 40  1  6  0  0  0
 36 38  1  0  0  0  0
 38 37  1  0  0  0  0
 39 40  1  0  0  0  0
M  END
>  <MODEL>
5

>  <REMARK>
 VINA RESULT:      -6.4      3.057      7.697
  Name = 
  10 active torsions:
  status: ('A' for Active; 'I' for Inactive)
    1  A    between atoms: C_1  and  C_16
    2  A    between atoms: N_3  and  C_18
    3  A    between atoms: C_4  and  C_28
    4  A    between atoms: C_8  and  C_13
    5  A    between atoms: C_8  and  C_31
    6  A    between atoms: C_8  and  C_39
    7  A    between atoms: C_14  and  C_15
    8  A    between atoms: C_15  and  C_37
    9  A    between atoms: C_17  and  C_21
   10  A    between atoms: C_34  and  N_40
                            x       y       z     vdW  Elec       q    Type
                         _______ _______ _______ _____ _____    ______ ____

>  <TORSDO>
F 10

$$$$
=
 OpenBabel11042419293D

 40 45  0  0  1  0  0  0  0  0999 V2000
  190.1530  176.0060  144.3730 C   0  0  1  0  0  3  0  0  0  0  0  0
  188.6810  177.0000  145.8550 C   0  0  0  0  0  0  0  0  0  0  0  0
  190.9680  176.1920  146.5020 C   0  0  0  0  0  0  0  0  0  0  0  0
  189.6940  175.9120  145.7790 C   0  0  2  0  0  3  0  0  0  0  0  0
  188.2580  177.4250  146.9170 O   0  0  0  0  0  0  0  0  0  0  0  0
  191.9570  176.3240  145.6320 C   0  0  0  0  0  0  0  0  0  0  0  0
  188.0340  177.5790  144.2760 S   0  0  0  0  0  0  0  0  0  0  0  0
  191.1250  176.1960  147.9850 C   0  0  0  0  0  1  0  0  0  0  0  0
  189.1550  176.4530  143.3670 C   0  0  2  0  0  3  0  0  0  0  0  0
  191.4470  176.2870  144.2720 C   0  0  0  0  0  2  0  0  0  0  0  0
  194.6430  176.1350  146.5130 C   0  0  1  0  0  3  0  0  0  0  0  0
  194.5290  177.4320  146.0530 C   0  0  0  0  0  2  0  0  0  0  0  0
  193.3180  176.5660  145.9760 N   0  0  0  0  0  0  0  0  0  0  0  0
  195.4590  175.7290  144.1520 N   0  0  0  0  0  2  0  0  0  0  0  0
  195.3360  175.2770  145.5030 C   0  0  0  0  0  0  0  0  0  0  0  0
  195.8370  174.1750  145.8560 O   0  0  0  0  0  0  0  0  0  0  0  0
  196.0780  176.6630  141.2610 C   0  0  0  0  0  2  0  0  0  0  0  0
  195.4260  175.6690  140.3100 C   0  0  0  0  0  2  0  0  0  0  0  0
  196.1560  174.9650  143.1260 C   0  0  1  0  0  3  0  0  0  0  0  0
  195.1600  174.1710  142.3290 C   0  0  0  0  0  0  0  0  0  0  0  0
  194.6600  173.1270  142.8210 O   0  0  0  0  0  0  0  0  0  0  0  0
  196.9750  175.9020  142.2310 C   0  0  0  0  0  2  0  0  0  0  0  0
  194.7080  174.6380  141.0530 N   0  0  0  0  0  2  0  0  0  0  0  0
  188.3500  175.2720  142.8420 C   0  0  0  0  0  2  0  0  0  0  0  0
  188.6080  172.8400  142.4250 C   0  0  1  0  0  3  0  0  0  0  0  0
  189.3460  174.3940  140.7780 C   0  0  0  0  0  2  0  0  0  0  0  0
  189.2570  174.2020  142.2600 C   0  0  1  0  0  3  0  0  0  0  0  0
  188.2630  172.3300  141.1580 O   0  0  0  0  0  0  0  0  0  0  0  0
  189.0470  173.0260  140.2220 C   0  0  1  0  0  3  0  0  0  0  0  0
  191.6690  171.8660  144.2250 N   0  0  0  0  0  1  0  0  0  0  0  0
  189.5560  171.8830  143.1350 C   0  0  1  0  0  3  0  0  0  0  0  0
  190.4630  172.6400  143.9920 C   0  0  1  0  0  3  0  0  0  0  0  0
  189.3160  171.9400  144.5860 N   0  0  0  0  0  2  0  0  0  0  0  0
  188.3090  173.1570  138.9250 C   0  0  0  0  0  3  0  0  0  0  0  0
  188.8090  172.7520  137.7500 C   0  0  0  0  0  3  0  0  0  0  0  0
  190.1700  172.1390  137.5990 C   0  0  1  0  0  3  0  0  0  0  0  0
  189.6960  169.6980  137.8060 C   0  0  0  0  0  1  0  0  0  0  0  0
  190.0570  170.8190  136.8500 C   0  0  0  0  0  2  0  0  0  0  0  0
  191.5510  174.1120  137.7570 O   0  0  0  0  0  1  0  0  0  0  0  0
  191.1300  173.0980  136.8930 C   0  0  0  0  0  2  0  0  0  0  0  0
  1 10  1  1  0  0  0
  1  4  1  0  0  0  0
  2  5  2  0  0  0  0
  3  8  1  0  0  0  0
  4  2  1  6  0  0  0
  4  3  1  0  0  0  0
  6 13  1  0  0  0  0
  6  3  2  0  0  0  0
  7  2  1  0  0  0  0
  9 24  1  1  0  0  0
  9  7  1  0  0  0  0
  9  1  1  0  0  0  0
 10  6  1  0  0  0  0
 11 15  1  6  0  0  0
 12 11  1  0  0  0  0
 13 12  1  0  0  0  0
 13 11  1  0  0  0  0
 14 15  1  0  0  0  0
 15 16  2  0  0  0  0
 17 22  1  0  0  0  0
 18 23  1  0  0  0  0
 18 17  1  0  0  0  0
 19 14  1  1  0  0  0
 20 21  2  0  0  0  0
 20 19  1  0  0  0  0
 22 19  1  0  0  0  0
 23 20  1  0  0  0  0
 25 28  1  6  0  0  0
 25 31  1  0  0  0  0
 26 27  1  0  0  0  0
 27 25  1  0  0  0  0
 27 24  1  1  0  0  0
 29 34  1  6  0  0  0
 29 26  1  0  0  0  0
 29 28  1  0  0  0  0
 31 32  1  0  0  0  0
 31 33  1  1  0  0  0
 32 30  1  1  0  0  0
 32 33  1  0  0  0  0
 35 34  2  0  0  0  0
 36 38  1  6  0  0  0
 36 35  1  0  0  0  0
 38 37  1  0  0  0  0
 40 36  1  0  0  0  0
 40 39  1  0  0  0  0
M  END
>  <MODEL>
6

>  <REMARK>
 VINA RESULT:      -6.4      3.138      8.488
  Name = 
  10 active torsions:
  status: ('A' for Active; 'I' for Inactive)
    1  A    between atoms: C_1  and  C_16
    2  A    between atoms: N_3  and  C_18
    3  A    between atoms: C_4  and  C_28
    4  A    between atoms: C_8  and  C_13
    5  A    between atoms: C_8  and  C_31
    6  A    between atoms: C_8  and  C_39
    7  A    between atoms: C_14  and  C_15
    8  A    between atoms: C_15  and  C_37
    9  A    between atoms: C_17  and  C_21
   10  A    between atoms: C_34  and  N_40
                            x       y       z     vdW  Elec       q    Type
                         _______ _______ _______ _____ _____    ______ ____

>  <TORSDO>
F 10

$$$$
=
 OpenBabel11042419293D

 40 45  0  0  1  0  0  0  0  0999 V2000
  188.8710  175.3960  143.7920 C   0  0  1  0  0  3  0  0  0  0  0  0
  187.6060  177.3220  143.5860 C   0  0  0  0  0  0  0  0  0  0  0  0
  188.6790  176.5890  145.7350 C   0  0  0  0  0  0  0  0  0  0  0  0
  187.8780  176.2070  144.5350 C   0  0  2  0  0  3  0  0  0  0  0  0
  187.0400  178.3460  143.9280 O   0  0  0  0  0  0  0  0  0  0  0  0
  189.8660  176.0070  145.6840 C   0  0  0  0  0  0  0  0  0  0  0  0
  188.0660  177.0190  141.8710 S   0  0  0  0  0  0  0  0  0  0  0  0
  188.1710  177.4010  146.8770 C   0  0  0  0  0  1  0  0  0  0  0  0
  188.7560  175.3810  142.3110 C   0  0  2  0  0  3  0  0  0  0  0  0
  190.0370  175.3080  144.4220 C   0  0  0  0  0  2  0  0  0  0  0  0
  192.1420  175.6870  147.3420 C   0  0  1  0  0  3  0  0  0  0  0  0
  191.5050  176.8000  147.8530 C   0  0  0  0  0  2  0  0  0  0  0  0
  190.8760  176.1260  146.6820 N   0  0  0  0  0  0  0  0  0  0  0  0
  193.5390  175.4350  145.2480 N   0  0  0  0  0  2  0  0  0  0  0  0
  193.3100  176.0880  146.5000 C   0  0  0  0  0  0  0  0  0  0  0  0
  194.0660  177.0210  146.8820 O   0  0  0  0  0  0  0  0  0  0  0  0
  193.8580  174.5990  142.2800 C   0  0  0  0  0  2  0  0  0  0  0  0
  195.1790  173.8510  142.1550 C   0  0  0  0  0  2  0  0  0  0  0  0
  194.6330  175.8020  144.3570 C   0  0  1  0  0  3  0  0  0  0  0  0
  195.7200  174.7690  144.4470 C   0  0  0  0  0  0  0  0  0  0  0  0
  196.4860  174.7560  145.4450 O   0  0  0  0  0  0  0  0  0  0  0  0
  194.1180  175.9570  142.9220 C   0  0  0  0  0  2  0  0  0  0  0  0
  195.8370  173.7450  143.4530 N   0  0  0  0  0  2  0  0  0  0  0  0
  187.7890  174.2980  141.8550 C   0  0  0  0  0  2  0  0  0  0  0  0
  189.8550  173.4640  140.7640 C   0  0  1  0  0  3  0  0  0  0  0  0
  188.9120  172.2380  142.5740 C   0  0  0  0  0  2  0  0  0  0  0  0
  188.5300  173.0590  141.3820 C   0  0  1  0  0  3  0  0  0  0  0  0
  190.9100  173.0020  141.5750 O   0  0  0  0  0  0  0  0  0  0  0  0
  190.3800  171.9700  142.3670 C   0  0  1  0  0  3  0  0  0  0  0  0
  188.9630  173.0390  137.2160 N   0  0  0  0  0  1  0  0  0  0  0  0
  189.9820  172.8900  139.3590 C   0  0  1  0  0  3  0  0  0  0  0  0
  189.3380  173.7850  138.4040 C   0  0  1  0  0  3  0  0  0  0  0  0
  190.8010  173.7890  138.5320 N   0  0  0  0  0  2  0  0  0  0  0  0
  191.0770  171.9250  143.6920 C   0  0  0  0  0  3  0  0  0  0  0  0
  192.0350  171.0370  143.9900 C   0  0  0  0  0  3  0  0  0  0  0  0
  192.5030  169.9770  143.0370 C   0  0  1  0  0  3  0  0  0  0  0  0
  193.5190  170.6420  140.8570 C   0  0  0  0  0  1  0  0  0  0  0  0
  193.7740  170.4410  142.3390 C   0  0  0  0  0  2  0  0  0  0  0  0
  193.3080  168.8420  145.0090 O   0  0  0  0  0  1  0  0  0  0  0  0
  192.7190  168.6450  143.7580 C   0  0  0  0  0  2  0  0  0  0  0  0
  1 10  1  6  0  0  0
  1  4  1  0  0  0  0
  2  5  2  0  0  0  0
  3  8  1  0  0  0  0
  4  2  1  6  0  0  0
  4  3  1  0  0  0  0
  6  3  2  0  0  0  0
  6 13  1  0  0  0  0
  7  9  1  0  0  0  0
  7  2  1  0  0  0  0
  9 24  1  1  0  0  0
  9  1  1  0  0  0  0
 10  6  1  0  0  0  0
 11 15  1  6  0  0  0
 11 12  1  0  0  0  0
 13 11  1  0  0  0  0
 13 12  1  0  0  0  0
 14 15  1  0  0  0  0
 15 16  2  0  0  0  0
 17 22  1  0  0  0  0
 18 17  1  0  0  0  0
 18 23  1  0  0  0  0
 19 20  1  0  0  0  0
 19 14  1  1  0  0  0
 20 21  2  0  0  0  0
 22 19  1  0  0  0  0
 23 20  1  0  0  0  0
 25 27  1  0  0  0  0
 25 28  1  1  0  0  0
 27 24  1  1  0  0  0
 27 26  1  0  0  0  0
 28 29  1  0  0  0  0
 29 26  1  0  0  0  0
 29 34  1  1  0  0  0
 31 33  1  6  0  0  0
 31 25  1  0  0  0  0
 32 30  1  6  0  0  0
 32 33  1  0  0  0  0
 32 31  1  0  0  0  0
 34 35  2  0  0  0  0
 36 38  1  1  0  0  0
 36 40  1  0  0  0  0
 36 35  1  0  0  0  0
 37 38  1  0  0  0  0
 40 39  1  0  0  0  0
M  END
>  <MODEL>
7

>  <REMARK>
 VINA RESULT:      -6.3      2.772      7.559
  Name = 
  10 active torsions:
  status: ('A' for Active; 'I' for Inactive)
    1  A    between atoms: C_1  and  C_16
    2  A    between atoms: N_3  and  C_18
    3  A    between atoms: C_4  and  C_28
    4  A    between atoms: C_8  and  C_13
    5  A    between atoms: C_8  and  C_31
    6  A    between atoms: C_8  and  C_39
    7  A    between atoms: C_14  and  C_15
    8  A    between atoms: C_15  and  C_37
    9  A    between atoms: C_17  and  C_21
   10  A    between atoms: C_34  and  N_40
                            x       y       z     vdW  Elec       q    Type
                         _______ _______ _______ _____ _____    ______ ____

>  <TORSDO>
F 10

$$$$
=
 OpenBabel11042419293D

 40 45  0  0  1  0  0  0  0  0999 V2000
  187.7050  177.5700  143.8650 C   0  0  1  0  0  3  0  0  0  0  0  0
  186.6540  177.8830  145.9020 C   0  0  0  0  0  0  0  0  0  0  0  0
  185.8300  178.8740  143.7470 C   0  0  0  0  0  0  0  0  0  0  0  0
  186.9910  178.6070  144.6460 C   0  0  2  0  0  3  0  0  0  0  0  0
  185.8330  178.3060  146.6990 O   0  0  0  0  0  0  0  0  0  0  0  0
  185.9520  178.1670  142.6360 C   0  0  0  0  0  0  0  0  0  0  0  0
  187.6130  176.3930  146.2270 S   0  0  0  0  0  0  0  0  0  0  0  0
  184.7620  179.8820  144.0090 C   0  0  0  0  0  1  0  0  0  0  0  0
  188.4960  176.5740  144.6330 C   0  0  2  0  0  3  0  0  0  0  0  0
  187.0940  177.2730  142.7240 C   0  0  0  0  0  2  0  0  0  0  0  0
  183.8070  177.7400  140.8340 C   0  0  1  0  0  3  0  0  0  0  0  0
  184.5520  178.7400  140.2410 C   0  0  0  0  0  2  0  0  0  0  0  0
  185.0380  178.2010  141.5430 N   0  0  0  0  0  0  0  0  0  0  0  0
  181.4890  178.7500  140.7200 N   0  0  0  0  0  2  0  0  0  0  0  0
  182.6000  178.3110  141.5070 C   0  0  0  0  0  0  0  0  0  0  0  0
  182.5550  178.3720  142.7660 O   0  0  0  0  0  0  0  0  0  0  0  0
  178.6810  177.4400  140.6210 C   0  0  0  0  0  2  0  0  0  0  0  0
  177.7380  178.4290  139.9500 C   0  0  0  0  0  2  0  0  0  0  0  0
  180.2660  179.2780  141.3100 C   0  0  1  0  0  3  0  0  0  0  0  0
  179.5600  180.1450  140.3070 C   0  0  0  0  0  0  0  0  0  0  0  0
  179.9920  181.3030  140.0710 O   0  0  0  0  0  0  0  0  0  0  0  0
  179.3710  178.1300  141.7920 C   0  0  0  0  0  2  0  0  0  0  0  0
  178.4550  179.6360  139.5510 N   0  0  0  0  0  2  0  0  0  0  0  0
  189.9020  177.0920  144.9030 C   0  0  0  0  0  2  0  0  0  0  0  0
  191.4950  175.3880  145.7470 C   0  0  1  0  0  3  0  0  0  0  0  0
  190.2920  174.9690  143.7360 C   0  0  0  0  0  2  0  0  0  0  0  0
  190.9520  176.0700  144.5050 C   0  0  1  0  0  3  0  0  0  0  0  0
  191.1030  174.0360  145.7470 O   0  0  0  0  0  0  0  0  0  0  0  0
  190.7760  173.7170  144.4180 C   0  0  1  0  0  3  0  0  0  0  0  0
  194.7820  176.8580  144.9710 N   0  0  0  0  0  1  0  0  0  0  0  0
  193.0140  175.4950  145.7900 C   0  0  1  0  0  3  0  0  0  0  0  0
  193.4180  176.8600  145.4690 C   0  0  1  0  0  3  0  0  0  0  0  0
  193.4130  176.4130  146.8680 N   0  0  0  0  0  2  0  0  0  0  0  0
  189.7000  172.6750  144.3870 C   0  0  0  0  0  3  0  0  0  0  0  0
  189.3100  172.0530  143.2660 C   0  0  0  0  0  3  0  0  0  0  0  0
  189.8950  172.3430  141.9150 C   0  0  1  0  0  3  0  0  0  0  0  0
  190.7830  171.1150  139.9330 C   0  0  0  0  0  1  0  0  0  0  0  0
  190.7200  171.1520  141.4490 C   0  0  0  0  0  2  0  0  0  0  0  0
  187.9410  173.6680  141.4120 O   0  0  0  0  0  1  0  0  0  0  0  0
  188.8000  172.6900  140.9040 C   0  0  0  0  0  2  0  0  0  0  0  0
  1 10  1  1  0  0  0
  1  9  1  0  0  0  0
  1  4  1  0  0  0  0
  2  7  1  0  0  0  0
  2  5  2  0  0  0  0
  3  8  1  0  0  0  0
  4  3  1  6  0  0  0
  4  2  1  0  0  0  0
  6 10  1  0  0  0  0
  6  3  2  0  0  0  0
  9 24  1  1  0  0  0
  9  7  1  0  0  0  0
 11 15  1  1  0  0  0
 11 13  1  0  0  0  0
 12 11  1  0  0  0  0
 12 13  1  0  0  0  0
 13  6  1  0  0  0  0
 14 15  1  0  0  0  0
 15 16  2  0  0  0  0
 17 22  1  0  0  0  0
 18 17  1  0  0  0  0
 19 14  1  6  0  0  0
 19 22  1  0  0  0  0
 20 19  1  0  0  0  0
 21 20  2  0  0  0  0
 23 18  1  0  0  0  0
 23 20  1  0  0  0  0
 25 28  1  6  0  0  0
 25 31  1  0  0  0  0
 26 29  1  0  0  0  0
 26 27  1  0  0  0  0
 27 24  1  1  0  0  0
 27 25  1  0  0  0  0
 29 34  1  1  0  0  0
 29 28  1  0  0  0  0
 31 33  1  1  0  0  0
 32 30  1  6  0  0  0
 32 31  1  0  0  0  0
 32 33  1  0  0  0  0
 35 34  2  0  0  0  0
 36 40  1  6  0  0  0
 36 35  1  0  0  0  0
 37 38  1  0  0  0  0
 38 36  1  0  0  0  0
 40 39  1  0  0  0  0
M  END
>  <MODEL>
8

>  <REMARK>
 VINA RESULT:      -6.3      4.344      6.446
  Name = 
  10 active torsions:
  status: ('A' for Active; 'I' for Inactive)
    1  A    between atoms: C_1  and  C_16
    2  A    between atoms: N_3  and  C_18
    3  A    between atoms: C_4  and  C_28
    4  A    between atoms: C_8  and  C_13
    5  A    between atoms: C_8  and  C_31
    6  A    between atoms: C_8  and  C_39
    7  A    between atoms: C_14  and  C_15
    8  A    between atoms: C_15  and  C_37
    9  A    between atoms: C_17  and  C_21
   10  A    between atoms: C_34  and  N_40
                            x       y       z     vdW  Elec       q    Type
                         _______ _______ _______ _____ _____    ______ ____

>  <TORSDO>
F 10

$$$$
=
 OpenBabel11042419293D

 40 45  0  0  1  0  0  0  0  0999 V2000
  187.4480  176.7810  141.4970 C   0  0  1  0  0  3  0  0  0  0  0  0
  185.4430  177.5970  140.6830 C   0  0  0  0  0  0  0  0  0  0  0  0
  187.1020  176.3390  139.2790 C   0  0  0  0  0  0  0  0  0  0  0  0
  186.8670  177.4130  140.2890 C   0  0  2  0  0  3  0  0  0  0  0  0
  184.5680  177.8460  139.8700 O   0  0  0  0  0  0  0  0  0  0  0  0
  187.7750  175.3440  139.8340 C   0  0  0  0  0  0  0  0  0  0  0  0
  185.1060  177.5400  142.4520 S   0  0  0  0  0  0  0  0  0  0  0  0
  186.7440  176.4330  137.8350 C   0  0  0  0  0  1  0  0  0  0  0  0
  186.8630  177.1660  142.8070 C   0  0  2  0  0  3  0  0  0  0  0  0
  187.9360  175.5690  141.2590 C   0  0  0  0  0  2  0  0  0  0  0  0
  189.0310  173.4540  138.1370 C   0  0  1  0  0  3  0  0  0  0  0  0
  188.1760  172.6960  138.9120 C   0  0  0  0  0  2  0  0  0  0  0  0
  188.1980  174.1670  139.1500 N   0  0  0  0  0  0  0  0  0  0  0  0
  190.7260  172.4960  139.7540 N   0  0  0  0  0  2  0  0  0  0  0  0
  190.4360  173.3400  138.6360 C   0  0  0  0  0  0  0  0  0  0  0  0
  191.3620  173.9610  138.0480 O   0  0  0  0  0  0  0  0  0  0  0  0
  191.6280  170.3680  141.8200 C   0  0  0  0  0  2  0  0  0  0  0  0
  192.2300  171.1090  143.0060 C   0  0  0  0  0  2  0  0  0  0  0  0
  192.0760  172.3060  140.2680 C   0  0  1  0  0  3  0  0  0  0  0  0
  192.2650  173.1400  141.5020 C   0  0  0  0  0  0  0  0  0  0  0  0
  192.4400  174.3810  141.3940 O   0  0  0  0  0  0  0  0  0  0  0  0
  192.3330  170.8200  140.5460 C   0  0  0  0  0  2  0  0  0  0  0  0
  192.1590  172.5520  142.8040 N   0  0  0  0  0  2  0  0  0  0  0  0
  187.5350  178.4200  143.3510 C   0  0  0  0  0  2  0  0  0  0  0  0
  187.7520  176.8270  145.2410 C   0  0  1  0  0  3  0  0  0  0  0  0
  189.6990  177.8940  144.3810 C   0  0  0  0  0  2  0  0  0  0  0  0
  188.2490  178.1380  144.6620 C   0  0  1  0  0  3  0  0  0  0  0  0
  188.7920  175.8780  145.2100 O   0  0  0  0  0  0  0  0  0  0  0  0
  189.9900  176.6050  145.1030 C   0  0  1  0  0  3  0  0  0  0  0  0
  186.3090  178.6990  148.0650 N   0  0  0  0  0  1  0  0  0  0  0  0
  187.2670  177.0280  146.6710 C   0  0  1  0  0  3  0  0  0  0  0  0
  186.3420  178.1560  146.7190 C   0  0  1  0  0  3  0  0  0  0  0  0
  185.8180  176.7840  146.7380 N   0  0  0  0  0  2  0  0  0  0  0  0
  191.0070  175.8150  144.3380 C   0  0  0  0  0  3  0  0  0  0  0  0
  192.2410  175.5630  144.7960 C   0  0  0  0  0  3  0  0  0  0  0  0
  192.7480  176.0590  146.1180 C   0  0  1  0  0  3  0  0  0  0  0  0
  191.1990  175.6890  148.0380 C   0  0  0  0  0  1  0  0  0  0  0  0
  192.3310  175.0960  147.2200 C   0  0  0  0  0  2  0  0  0  0  0  0
  194.6000  177.5830  145.8500 O   0  0  0  0  0  1  0  0  0  0  0  0
  194.2660  176.2480  146.0900 C   0  0  0  0  0  2  0  0  0  0  0  0
  1 10  1  6  0  0  0
  1  9  1  0  0  0  0
  2  7  1  0  0  0  0
  3  6  2  0  0  0  0
  4  3  1  6  0  0  0
  4  2  1  0  0  0  0
  4  1  1  0  0  0  0
  5  2  2  0  0  0  0
  6 10  1  0  0  0  0
  7  9  1  0  0  0  0
  8  3  1  0  0  0  0
  9 24  1  6  0  0  0
 11 15  1  1  0  0  0
 11 12  1  0  0  0  0
 11 13  1  0  0  0  0
 12 13  1  0  0  0  0
 13  6  1  0  0  0  0
 15 14  1  0  0  0  0
 16 15  2  0  0  0  0
 17 18  1  0  0  0  0
 19 14  1  1  0  0  0
 19 22  1  0  0  0  0
 19 20  1  0  0  0  0
 20 23  1  0  0  0  0
 21 20  2  0  0  0  0
 22 17  1  0  0  0  0
 23 18  1  0  0  0  0
 25 28  1  1  0  0  0
 25 31  1  0  0  0  0
 26 27  1  0  0  0  0
 26 29  1  0  0  0  0
 27 24  1  6  0  0  0
 27 25  1  0  0  0  0
 29 34  1  6  0  0  0
 29 28  1  0  0  0  0
 31 32  1  0  0  0  0
 31 33  1  6  0  0  0
 32 33  1  0  0  0  0
 32 30  1  1  0  0  0
 34 35  2  0  0  0  0
 36 35  1  6  0  0  0
 36 38  1  0  0  0  0
 38 37  1  0  0  0  0
 39 40  1  0  0  0  0
 40 36  1  0  0  0  0
M  END
>  <MODEL>
9

>  <REMARK>
 VINA RESULT:      -6.3      2.954      7.335
  Name = 
  10 active torsions:
  status: ('A' for Active; 'I' for Inactive)
    1  A    between atoms: C_1  and  C_16
    2  A    between atoms: N_3  and  C_18
    3  A    between atoms: C_4  and  C_28
    4  A    between atoms: C_8  and  C_13
    5  A    between atoms: C_8  and  C_31
    6  A    between atoms: C_8  and  C_39
    7  A    between atoms: C_14  and  C_15
    8  A    between atoms: C_15  and  C_37
    9  A    between atoms: C_17  and  C_21
   10  A    between atoms: C_34  and  N_40
                            x       y       z     vdW  Elec       q    Type
                         _______ _______ _______ _____ _____    ______ ____

>  <TORSDO>
F 10

$$$$
