=
 OpenBabel11042414353D

 46 50  0  0  1  0  0  0  0  0999 V2000
  191.3650  171.8940  144.1270 C   0  0  0  0  0  1  0  0  0  0  0  0
  189.8940  173.7260  144.9540 C   0  0  0  0  0  2  0  0  0  0  0  0
  189.2290  175.5580  143.3540 C   0  0  0  0  0  0  0  0  0  0  0  0
  187.6430  177.2750  144.0150 C   0  0  0  0  0  0  0  0  0  0  0  0
  189.0870  174.9420  144.6070 C   0  0  0  0  0  0  0  0  0  0  0  0
  186.9750  178.5580  143.6580 C   0  0  0  0  0  1  0  0  0  0  0  0
  187.4820  176.6520  145.2800 C   0  0  0  0  0  0  0  0  0  0  0  0
  190.9680  173.9250  142.6740 C   0  0  2  0  0  3  0  0  0  0  0  0
  190.0740  175.0060  142.3840 O   0  0  0  0  0  0  0  0  0  0  0  0
  190.3490  172.9470  143.7070 C   0  0  1  0  0  0  0  0  0  0  0  0
  188.5110  176.7190  143.0680 C   0  0  0  0  0  3  0  0  0  0  0  0
  188.2290  175.4940  145.5580 C   0  0  0  0  0  3  0  0  0  0  0  0
  195.2700  175.4310  143.1490 N   0  0  0  0  0  0  0  0  0  0  0  0
  194.4610  176.5070  143.7060 C   0  0  0  0  0  2  0  0  0  0  0  0
  192.4790  175.1640  144.3390 C   0  0  0  0  0  3  0  0  0  0  0  0
  194.6050  172.7350  140.8340 N   0  0  0  0  0  2  0  0  0  0  0  0
  195.5740  173.4790  141.6650 C   0  0  2  0  0  3  0  0  0  0  0  0
  192.3330  174.4630  143.0400 C   0  0  1  0  0  3  0  0  0  0  0  0
  193.3850  174.1400  142.2660 C   0  0  0  0  0  0  0  0  0  0  0  0
  193.4370  176.5890  146.0510 C   0  0  0  0  0  1  0  0  0  0  0  0
  194.7760  174.4180  142.5030 C   0  0  0  0  0  0  0  0  0  0  0  0
  193.3290  173.1730  141.2370 N   0  0  0  0  0  0  0  0  0  0  0  0
  193.4550  176.0040  144.6850 C   0  0  0  0  0  0  0  0  0  0  0  0
  197.9310  175.9900  138.9530 O   0  0  0  0  0  0  0  0  0  0  0  0
  196.2000  174.4810  139.4200 N   0  0  0  0  0  2  0  0  0  0  0  0
  197.6150  174.6400  141.2810 O   0  0  0  0  0  0  0  0  0  0  0  0
  196.9510  175.3200  138.5350 C   0  0  0  0  0  0  0  0  0  0  0  0
  196.5320  174.2210  140.7900 C   0  0  0  0  0  0  0  0  0  0  0  0
  196.5310  175.4410  137.1090 C   0  0  0  0  0  2  0  0  0  0  0  0
  195.6640  173.8510  135.4030 C   0  0  0  0  0  1  0  0  0  0  0  0
  194.0920  175.1560  136.7960 C   0  0  0  0  0  1  0  0  0  0  0  0
  195.4320  174.4470  136.7800 C   0  0  0  0  0  3  0  0  0  0  0  0
  185.1520  176.8600  146.2090 C   0  0  0  0  0  2  0  0  0  0  0  0
  184.7670  178.6100  147.8070 O   0  0  0  0  0  0  0  0  0  0  0  0
  186.0540  179.1410  147.6160 C   0  0  0  0  0  2  0  0  0  0  0  0
  186.5850  177.1590  146.2890 N   0  0  0  0  0  0  0  0  0  0  0  0
  187.0540  178.0060  147.3870 C   0  0  0  0  0  2  0  0  0  0  0  0
  184.3510  178.1130  146.5590 C   0  0  0  0  0  2  0  0  0  0  0  0
  189.1580  172.2400  143.0450 C   0  0  0  0  0  2  0  0  0  0  0  0
  189.5510  171.4750  141.7880 C   0  0  0  0  0  2  0  0  0  0  0  0
  188.9640  172.1080  140.6230 N   0  0  0  0  0  2  0  0  0  0  0  0
  189.9940  172.1120  139.5980 C   0  0  0  0  0  2  0  0  0  0  0  0
  190.3240  173.2740  137.5560 O   0  0  0  0  0  1  0  0  0  0  0  0
  190.0340  173.4600  138.9070 C   0  0  1  0  0  3  0  0  0  0  0  0
  187.9090  173.9130  137.9250 O   0  0  0  0  0  1  0  0  0  0  0  0
  188.6950  174.1650  139.0490 C   0  0  0  0  0  2  0  0  0  0  0  0
  3  5  1  0  0  0  0
  4  7  2  0  0  0  0
  5  2  1  0  0  0  0
  5 12  2  0  0  0  0
  6  4  1  0  0  0  0
  7 12  1  0  0  0  0
  7 36  1  0  0  0  0
  8  9  1  1  0  0  0
  8 18  1  0  0  0  0
  8 10  1  0  0  0  0
  9  3  1  0  0  0  0
 10  1  1  1  0  0  0
 10  2  1  0  0  0  0
 11  3  2  0  0  0  0
 11  4  1  0  0  0  0
 13 14  1  0  0  0  0
 14 23  1  0  0  0  0
 15 23  2  0  0  0  0
 16 22  1  0  0  0  0
 16 17  1  0  0  0  0
 17 28  1  6  0  0  0
 17 21  1  0  0  0  0
 18 15  1  1  0  0  0
 19 21  1  0  0  0  0
 19 18  1  0  0  0  0
 21 13  2  0  0  0  0
 22 19  2  0  0  0  0
 23 20  1  0  0  0  0
 25 28  1  0  0  0  0
 27 24  2  0  0  0  0
 27 25  1  0  0  0  0
 28 26  2  0  0  0  0
 29 27  1  0  0  0  0
 30 32  1  0  0  0  0
 32 31  1  0  0  0  0
 32 29  1  0  0  0  0
 33 36  1  0  0  0  0
 33 38  1  0  0  0  0
 35 34  1  0  0  0  0
 36 37  1  0  0  0  0
 37 35  1  0  0  0  0
 38 34  1  0  0  0  0
 39 10  1  0  0  0  0
 40 39  1  0  0  0  0
 41 40  1  0  0  0  0
 42 41  1  0  0  0  0
 44 43  1  6  0  0  0
 44 46  1  0  0  0  0
 44 42  1  0  0  0  0
 45 46  1  0  0  0  0
M  END
>  <MODEL>
1

>  <REMARK>
 VINA RESULT:      -6.4      0.000      0.000
  Name = 
  11 active torsions:
  status: ('A' for Active; 'I' for Inactive)
    1  A    between atoms: C_4  and  C_34
    2  A    between atoms: C_4  and  C_42
    3  A    between atoms: N_6  and  C_42
    4  A    between atoms: N_6  and  C_44
    5  A    between atoms: N_18  and  C_22
    6  A    between atoms: C_23  and  C_40
    7  A    between atoms: C_24  and  C_46
    8  A    between atoms: C_25  and  C_33
    9  A    between atoms: C_25  and  C_44
   10  A    between atoms: C_27  and  C_29
   11  A    between atoms: C_37  and  C_46
                            x       y       z     vdW  Elec       q    Type
                         _______ _______ _______ _____ _____    ______ ____

>  <TORSDO>
F 11

$$$$
=
 OpenBabel11042414353D

 46 50  0  0  1  0  0  0  0  0999 V2000
  194.3960  176.2510  145.9690 C   0  0  0  0  0  1  0  0  0  0  0  0
  192.2940  176.6060  144.6800 C   0  0  0  0  0  2  0  0  0  0  0  0
  191.0190  174.5880  143.8660 C   0  0  0  0  0  0  0  0  0  0  0  0
  188.8630  174.8330  142.7750 C   0  0  0  0  0  0  0  0  0  0  0  0
  191.0860  175.9780  144.0490 C   0  0  0  0  0  0  0  0  0  0  0  0
  187.7580  174.1610  142.0360 C   0  0  0  0  0  1  0  0  0  0  0  0
  188.9150  176.2380  142.9670 C   0  0  0  0  0  0  0  0  0  0  0  0
  193.2830  174.2850  144.8330 C   0  0  2  0  0  3  0  0  0  0  0  0
  192.0470  173.7610  144.3340 O   0  0  0  0  0  0  0  0  0  0  0  0
  193.0620  175.6250  145.5820 C   0  0  1  0  0  0  0  0  0  0  0  0
  189.9130  174.0270  143.2300 C   0  0  0  0  0  3  0  0  0  0  0  0
  190.0470  176.7890  143.5930 C   0  0  0  0  0  3  0  0  0  0  0  0
  196.0000  174.0090  141.1530 N   0  0  0  0  0  0  0  0  0  0  0  0
  195.8640  175.4420  141.3780 C   0  0  0  0  0  2  0  0  0  0  0  0
  195.3690  175.3700  143.8050 C   0  0  0  0  0  3  0  0  0  0  0  0
  194.0380  171.1250  142.0990 N   0  0  0  0  0  2  0  0  0  0  0  0
  195.1900  171.6840  141.3640 C   0  0  2  0  0  3  0  0  0  0  0  0
  194.3120  174.3320  143.7270 C   0  0  1  0  0  3  0  0  0  0  0  0
  194.3330  173.3410  142.8180 C   0  0  0  0  0  0  0  0  0  0  0  0
  197.1530  176.8470  143.0870 C   0  0  0  0  0  1  0  0  0  0  0  0
  195.3020  173.1110  141.7800 C   0  0  0  0  0  0  0  0  0  0  0  0
  193.5750  172.1540  142.9410 N   0  0  0  0  0  0  0  0  0  0  0  0
  196.1240  175.8140  142.7990 C   0  0  0  0  0  0  0  0  0  0  0  0
  194.3130  171.8960  137.0740 O   0  0  0  0  0  0  0  0  0  0  0  0
  193.6900  171.9340  139.3330 N   0  0  0  0  0  2  0  0  0  0  0  0
  195.9030  171.1840  139.1500 O   0  0  0  0  0  0  0  0  0  0  0  0
  193.4030  172.0300  137.9330 C   0  0  0  0  0  0  0  0  0  0  0  0
  194.9600  171.5710  139.8900 C   0  0  0  0  0  0  0  0  0  0  0  0
  192.0140  172.3450  137.4910 C   0  0  0  0  0  2  0  0  0  0  0  0
  189.9630  171.1010  138.1520 C   0  0  0  0  0  1  0  0  0  0  0  0
  190.3440  173.3980  138.9840 C   0  0  0  0  0  1  0  0  0  0  0  0
  191.0180  172.0920  138.6090 C   0  0  0  0  0  3  0  0  0  0  0  0
  186.7110  177.3610  143.4300 C   0  0  0  0  0  2  0  0  0  0  0  0
  185.5350  178.2740  141.5450 O   0  0  0  0  0  0  0  0  0  0  0  0
  186.4540  177.7230  140.6360 C   0  0  0  0  0  2  0  0  0  0  0  0
  187.8560  177.1210  142.5460 N   0  0  0  0  0  0  0  0  0  0  0  0
  187.8620  177.7680  141.2320 C   0  0  0  0  0  2  0  0  0  0  0  0
  185.4230  177.3580  142.6060 C   0  0  0  0  0  2  0  0  0  0  0  0
  192.2700  175.3330  146.8650 C   0  0  0  0  0  2  0  0  0  0  0  0
  191.7000  176.5920  147.5050 C   0  0  0  0  0  2  0  0  0  0  0  0
  190.2920  176.4000  147.8000 N   0  0  0  0  0  2  0  0  0  0  0  0
  189.5930  177.5210  147.1990 C   0  0  0  0  0  2  0  0  0  0  0  0
  188.1330  175.6860  146.8310 O   0  0  0  0  0  1  0  0  0  0  0  0
  188.2750  177.0560  146.6110 C   0  0  1  0  0  3  0  0  0  0  0  0
  186.1350  176.8910  147.6500 O   0  0  0  0  0  1  0  0  0  0  0  0
  187.1180  177.8000  147.2580 C   0  0  0  0  0  2  0  0  0  0  0  0
  2 10  1  0  0  0  0
  3  5  1  0  0  0  0
  3  9  1  0  0  0  0
  4  7  2  0  0  0  0
  4 11  1  0  0  0  0
  5  2  1  0  0  0  0
  6  4  1  0  0  0  0
  7 12  1  0  0  0  0
  8  9  1  6  0  0  0
  8 10  1  0  0  0  0
 10  1  1  1  0  0  0
 10 39  1  0  0  0  0
 11  3  2  0  0  0  0
 12  5  2  0  0  0  0
 13 14  1  0  0  0  0
 13 21  2  0  0  0  0
 14 23  1  0  0  0  0
 16 22  1  0  0  0  0
 17 28  1  6  0  0  0
 17 21  1  0  0  0  0
 17 16  1  0  0  0  0
 18 15  1  1  0  0  0
 18  8  1  0  0  0  0
 19 22  2  0  0  0  0
 19 18  1  0  0  0  0
 21 19  1  0  0  0  0
 23 20  1  0  0  0  0
 23 15  2  0  0  0  0
 24 27  2  0  0  0  0
 25 28  1  0  0  0  0
 26 28  2  0  0  0  0
 27 25  1  0  0  0  0
 29 27  1  0  0  0  0
 29 32  1  0  0  0  0
 30 32  1  0  0  0  0
 32 31  1  0  0  0  0
 34 38  1  0  0  0  0
 35 37  1  0  0  0  0
 35 34  1  0  0  0  0
 36  7  1  0  0  0  0
 36 33  1  0  0  0  0
 37 36  1  0  0  0  0
 38 33  1  0  0  0  0
 39 40  1  0  0  0  0
 40 41  1  0  0  0  0
 42 41  1  0  0  0  0
 44 43  1  1  0  0  0
 44 42  1  0  0  0  0
 44 46  1  0  0  0  0
 46 45  1  0  0  0  0
M  END
>  <MODEL>
2

>  <REMARK>
 VINA RESULT:      -6.3      2.619      5.205
  Name = 
  11 active torsions:
  status: ('A' for Active; 'I' for Inactive)
    1  A    between atoms: C_4  and  C_34
    2  A    between atoms: C_4  and  C_42
    3  A    between atoms: N_6  and  C_42
    4  A    between atoms: N_6  and  C_44
    5  A    between atoms: N_18  and  C_22
    6  A    between atoms: C_23  and  C_40
    7  A    between atoms: C_24  and  C_46
    8  A    between atoms: C_25  and  C_33
    9  A    between atoms: C_25  and  C_44
   10  A    between atoms: C_27  and  C_29
   11  A    between atoms: C_37  and  C_46
                            x       y       z     vdW  Elec       q    Type
                         _______ _______ _______ _____ _____    ______ ____

>  <TORSDO>
F 11

$$$$
=
 OpenBabel11042414353D

 46 50  0  0  1  0  0  0  0  0999 V2000
  192.6250  174.7820  146.4990 C   0  0  0  0  0  1  0  0  0  0  0  0
  193.4370  173.8990  144.3150 C   0  0  0  0  0  2  0  0  0  0  0  0
  193.4880  175.4500  142.3280 C   0  0  0  0  0  0  0  0  0  0  0  0
  194.4460  174.7360  140.2130 C   0  0  0  0  0  0  0  0  0  0  0  0
  193.8170  174.2110  142.8970 C   0  0  0  0  0  0  0  0  0  0  0  0
  194.6720  175.0570  138.7760 C   0  0  0  0  0  1  0  0  0  0  0  0
  194.7950  173.4840  140.7840 C   0  0  0  0  0  0  0  0  0  0  0  0
  192.3590  176.1830  144.4110 C   0  0  2  0  0  3  0  0  0  0  0  0
  192.8640  176.4410  143.0950 O   0  0  0  0  0  0  0  0  0  0  0  0
  193.2550  175.1670  145.1670 C   0  0  1  0  0  0  0  0  0  0  0  0
  193.8010  175.7030  140.9920 C   0  0  0  0  0  3  0  0  0  0  0  0
  194.4540  173.2390  142.1250 C   0  0  0  0  0  3  0  0  0  0  0  0
  187.8090  175.6490  144.5290 N   0  0  0  0  0  0  0  0  0  0  0  0
  188.1500  175.4180  143.1320 C   0  0  0  0  0  2  0  0  0  0  0  0
  190.4970  174.6950  143.4590 C   0  0  0  0  0  3  0  0  0  0  0  0
  189.4400  177.3710  147.2570 N   0  0  0  0  0  0  0  0  0  0  0  0
  188.2640  176.6360  146.7480 C   0  0  2  0  0  3  0  0  0  0  0  0
  190.8930  175.8170  144.3430 C   0  0  0  0  0  0  0  0  0  0  0  0
  190.0400  176.4010  145.2040 C   0  0  0  0  0  0  0  0  0  0  0  0
  189.0750  173.2530  142.1250 C   0  0  0  0  0  1  0  0  0  0  0  0
  188.6490  176.1010  145.4110 C   0  0  0  0  0  0  0  0  0  0  0  0
  190.4560  177.1950  146.2970 N   0  0  0  0  0  0  0  0  0  0  0  0
  189.2760  174.4510  142.9810 C   0  0  0  0  0  0  0  0  0  0  0  0
  184.7120  179.0730  145.9320 O   0  0  0  0  0  0  0  0  0  0  0  0
  186.8640  178.2900  145.4290 N   0  0  0  0  0  2  0  0  0  0  0  0
  186.2980  177.6580  147.6140 O   0  0  0  0  0  0  0  0  0  0  0  0
  185.6950  179.0680  145.1460 C   0  0  0  0  0  0  0  0  0  0  0  0
  187.0920  177.5590  146.6410 C   0  0  0  0  0  0  0  0  0  0  0  0
  185.6220  179.8420  143.8730 C   0  0  0  0  0  2  0  0  0  0  0  0
  184.8220  177.6140  143.1060 C   0  0  0  0  0  1  0  0  0  0  0  0
  186.8570  178.6100  142.1170 C   0  0  0  0  0  1  0  0  0  0  0  0
  185.4820  178.9130  142.6800 C   0  0  0  0  0  3  0  0  0  0  0  0
  194.7180  171.3920  139.3870 C   0  0  0  0  0  2  0  0  0  0  0  0
  196.7620  170.1480  139.1710 O   0  0  0  0  0  0  0  0  0  0  0  0
  197.4210  170.9670  140.1050 C   0  0  0  0  0  2  0  0  0  0  0  0
  195.4830  172.4560  140.0430 N   0  0  0  0  0  0  0  0  0  0  0  0
  196.9450  172.4130  139.9530 C   0  0  0  0  0  2  0  0  0  0  0  0
  195.4250  170.0530  139.5970 C   0  0  0  0  0  2  0  0  0  0  0  0
  194.6100  175.8350  145.4430 C   0  0  0  0  0  2  0  0  0  0  0  0
  195.6730  174.8440  145.8980 C   0  0  0  0  0  2  0  0  0  0  0  0
  196.7330  174.7710  144.9100 N   0  0  0  0  0  2  0  0  0  0  0  0
  197.5260  173.6030  145.2480 C   0  0  0  0  0  2  0  0  0  0  0  0
  197.5260  171.8920  143.6040 O   0  0  0  0  0  1  0  0  0  0  0  0
  196.8480  172.3490  144.7340 C   0  0  1  0  0  3  0  0  0  0  0  0
  195.5610  170.7870  145.9960 O   0  0  0  0  0  1  0  0  0  0  0  0
  196.8560  171.2690  145.8040 C   0  0  0  0  0  2  0  0  0  0  0  0
  2 10  1  0  0  0  0
  3  5  1  0  0  0  0
  3  9  1  0  0  0  0
  4  7  2  0  0  0  0
  4 11  1  0  0  0  0
  5  2  1  0  0  0  0
  6  4  1  0  0  0  0
  7 12  1  0  0  0  0
  8 18  1  6  0  0  0
  8 10  1  0  0  0  0
  9  8  1  0  0  0  0
 10 39  1  0  0  0  0
 10  1  1  1  0  0  0
 11  3  2  0  0  0  0
 12  5  2  0  0  0  0
 13 21  2  0  0  0  0
 14 13  1  0  0  0  0
 15 18  1  0  0  0  0
 17 28  1  6  0  0  0
 17 16  1  0  0  0  0
 18 19  2  0  0  0  0
 19 21  1  0  0  0  0
 19 22  1  0  0  0  0
 20 23  1  0  0  0  0
 21 17  1  0  0  0  0
 22 16  2  0  0  0  0
 23 14  1  0  0  0  0
 23 15  2  0  0  0  0
 25 28  1  0  0  0  0
 27 25  1  0  0  0  0
 27 24  2  0  0  0  0
 28 26  2  0  0  0  0
 29 27  1  0  0  0  0
 31 32  1  0  0  0  0
 32 30  1  0  0  0  0
 32 29  1  0  0  0  0
 33 38  1  0  0  0  0
 33 36  1  0  0  0  0
 34 38  1  0  0  0  0
 34 35  1  0  0  0  0
 36  7  1  0  0  0  0
 37 36  1  0  0  0  0
 37 35  1  0  0  0  0
 39 40  1  0  0  0  0
 41 42  1  0  0  0  0
 41 40  1  0  0  0  0
 44 43  1  6  0  0  0
 44 42  1  0  0  0  0
 44 46  1  0  0  0  0
 46 45  1  0  0  0  0
M  END
>  <MODEL>
3

>  <REMARK>
 VINA RESULT:      -6.3      2.755      9.782
  Name = 
  11 active torsions:
  status: ('A' for Active; 'I' for Inactive)
    1  A    between atoms: C_4  and  C_34
    2  A    between atoms: C_4  and  C_42
    3  A    between atoms: N_6  and  C_42
    4  A    between atoms: N_6  and  C_44
    5  A    between atoms: N_18  and  C_22
    6  A    between atoms: C_23  and  C_40
    7  A    between atoms: C_24  and  C_46
    8  A    between atoms: C_25  and  C_33
    9  A    between atoms: C_25  and  C_44
   10  A    between atoms: C_27  and  C_29
   11  A    between atoms: C_37  and  C_46
                            x       y       z     vdW  Elec       q    Type
                         _______ _______ _______ _____ _____    ______ ____

>  <TORSDO>
F 11

$$$$
=
 OpenBabel11042414353D

 46 50  0  0  1  0  0  0  0  0999 V2000
  192.2850  171.8230  144.0280 C   0  0  0  0  0  1  0  0  0  0  0  0
  192.6220  171.9680  141.5640 C   0  0  0  0  0  2  0  0  0  0  0  0
  193.4850  174.1270  140.5870 C   0  0  0  0  0  0  0  0  0  0  0  0
  194.0310  174.2960  138.2260 C   0  0  0  0  0  0  0  0  0  0  0  0
  193.1470  172.7760  140.4130 C   0  0  0  0  0  0  0  0  0  0  0  0
  194.4270  175.1870  137.1000 C   0  0  0  0  0  1  0  0  0  0  0  0
  193.7040  172.9270  138.0430 C   0  0  0  0  0  0  0  0  0  0  0  0
  192.8010  174.0610  142.9700 C   0  0  2  0  0  3  0  0  0  0  0  0
  193.4040  174.7210  141.8520 O   0  0  0  0  0  0  0  0  0  0  0  0
  193.0610  172.5320  142.9270 C   0  0  1  0  0  0  0  0  0  0  0  0
  193.9200  174.8760  139.4950 C   0  0  0  0  0  3  0  0  0  0  0  0
  193.2480  172.1910  139.1510 C   0  0  0  0  0  3  0  0  0  0  0  0
  188.5820  175.6100  143.8640 N   0  0  0  0  0  0  0  0  0  0  0  0
  188.7750  175.9210  142.4540 C   0  0  0  0  0  2  0  0  0  0  0  0
  190.4540  174.1750  141.9370 C   0  0  0  0  0  3  0  0  0  0  0  0
  190.8290  174.9650  146.6210 N   0  0  0  0  0  0  0  0  0  0  0  0
  189.4470  175.1520  146.1330 C   0  0  2  0  0  3  0  0  0  0  0  0
  191.3470  174.4590  143.0860 C   0  0  0  0  0  0  0  0  0  0  0  0
  190.8870  174.8920  144.2740 C   0  0  0  0  0  0  0  0  0  0  0  0
  188.5160  174.3050  140.4860 C   0  0  0  0  0  1  0  0  0  0  0  0
  189.5280  175.1820  144.6440 C   0  0  0  0  0  0  0  0  0  0  0  0
  191.6320  174.8190  145.4730 N   0  0  0  0  0  0  0  0  0  0  0  0
  189.2760  174.7470  141.6830 C   0  0  0  0  0  0  0  0  0  0  0  0
  187.4210  178.5720  147.9820 O   0  0  0  0  0  0  0  0  0  0  0  0
  187.4770  176.6810  146.5980 N   0  0  0  0  0  2  0  0  0  0  0  0
  189.6650  177.2660  147.2020 O   0  0  0  0  0  0  0  0  0  0  0  0
  186.8050  177.7820  147.2200 C   0  0  0  0  0  0  0  0  0  0  0  0
  188.8870  176.4320  146.6660 C   0  0  0  0  0  0  0  0  0  0  0  0
  185.3410  177.9630  147.0030 C   0  0  0  0  0  2  0  0  0  0  0  0
  183.6470  178.9450  145.4680 C   0  0  0  0  0  1  0  0  0  0  0  0
  186.0300  178.8790  144.8090 C   0  0  0  0  0  1  0  0  0  0  0  0
  185.0740  179.0470  145.9750 C   0  0  0  0  0  3  0  0  0  0  0  0
  192.6530  172.1600  135.8880 C   0  0  0  0  0  2  0  0  0  0  0  0
  193.8250  170.4730  134.6430 O   0  0  0  0  0  0  0  0  0  0  0  0
  194.7710  170.2970  135.6690 C   0  0  0  0  0  2  0  0  0  0  0  0
  193.8210  172.2620  136.7690 N   0  0  0  0  0  0  0  0  0  0  0  0
  195.0730  171.6420  136.3310 C   0  0  0  0  0  2  0  0  0  0  0  0
  192.6010  170.7620  135.2730 C   0  0  0  0  0  2  0  0  0  0  0  0
  194.5600  172.2940  143.1560 C   0  0  0  0  0  2  0  0  0  0  0  0
  195.0710  172.9400  144.4370 C   0  0  0  0  0  2  0  0  0  0  0  0
  196.3520  173.5750  144.1910 N   0  0  0  0  0  2  0  0  0  0  0  0
  196.3340  174.8280  144.9250 C   0  0  0  0  0  2  0  0  0  0  0  0
  195.1510  176.8850  144.8960 O   0  0  0  0  0  1  0  0  0  0  0  0
  195.7280  175.9220  144.0680 C   0  0  1  0  0  3  0  0  0  0  0  0
  196.2700  176.8680  141.9470 O   0  0  0  0  0  1  0  0  0  0  0  0
  196.7980  176.5680  143.2030 C   0  0  0  0  0  2  0  0  0  0  0  0
  2 10  1  0  0  0  0
  3  9  1  0  0  0  0
  4 11  1  0  0  0  0
  5  3  1  0  0  0  0
  5  2  1  0  0  0  0
  6  4  1  0  0  0  0
  7  4  2  0  0  0  0
  7 12  1  0  0  0  0
  8 18  1  6  0  0  0
  9  8  1  0  0  0  0
 10  8  1  0  0  0  0
 10 39  1  0  0  0  0
 10  1  1  1  0  0  0
 11  3  2  0  0  0  0
 12  5  2  0  0  0  0
 13 21  2  0  0  0  0
 14 13  1  0  0  0  0
 15 18  1  0  0  0  0
 17 16  1  0  0  0  0
 17 28  1  1  0  0  0
 18 19  2  0  0  0  0
 19 21  1  0  0  0  0
 19 22  1  0  0  0  0
 20 23  1  0  0  0  0
 21 17  1  0  0  0  0
 22 16  2  0  0  0  0
 23 15  2  0  0  0  0
 23 14  1  0  0  0  0
 25 28  1  0  0  0  0
 25 27  1  0  0  0  0
 27 24  2  0  0  0  0
 28 26  2  0  0  0  0
 29 27  1  0  0  0  0
 30 32  1  0  0  0  0
 31 32  1  0  0  0  0
 32 29  1  0  0  0  0
 33 36  1  0  0  0  0
 34 38  1  0  0  0  0
 34 35  1  0  0  0  0
 35 37  1  0  0  0  0
 36  7  1  0  0  0  0
 37 36  1  0  0  0  0
 38 33  1  0  0  0  0
 39 40  1  0  0  0  0
 41 40  1  0  0  0  0
 41 42  1  0  0  0  0
 44 43  1  1  0  0  0
 44 42  1  0  0  0  0
 45 46  1  0  0  0  0
 46 44  1  0  0  0  0
M  END
>  <MODEL>
4

>  <REMARK>
 VINA RESULT:      -6.1      2.675      9.856
  Name = 
  11 active torsions:
  status: ('A' for Active; 'I' for Inactive)
    1  A    between atoms: C_4  and  C_34
    2  A    between atoms: C_4  and  C_42
    3  A    between atoms: N_6  and  C_42
    4  A    between atoms: N_6  and  C_44
    5  A    between atoms: N_18  and  C_22
    6  A    between atoms: C_23  and  C_40
    7  A    between atoms: C_24  and  C_46
    8  A    between atoms: C_25  and  C_33
    9  A    between atoms: C_25  and  C_44
   10  A    between atoms: C_27  and  C_29
   11  A    between atoms: C_37  and  C_46
                            x       y       z     vdW  Elec       q    Type
                         _______ _______ _______ _____ _____    ______ ____

>  <TORSDO>
F 11

$$$$
=
 OpenBabel11042414353D

 46 50  0  0  1  0  0  0  0  0999 V2000
  193.6090  175.7230  142.2950 C   0  0  0  0  0  1  0  0  0  0  0  0
  194.2250  173.6520  143.5350 C   0  0  0  0  0  2  0  0  0  0  0  0
  192.6670  171.6720  143.4310 C   0  0  0  0  0  0  0  0  0  0  0  0
  193.2780  169.5500  144.4440 C   0  0  0  0  0  0  0  0  0  0  0  0
  193.9030  172.2140  143.8170 C   0  0  0  0  0  0  0  0  0  0  0  0
  192.8430  168.1740  144.8120 C   0  0  0  0  0  1  0  0  0  0  0  0
  194.5360  170.0860  144.8270 C   0  0  0  0  0  0  0  0  0  0  0  0
  191.9220  173.8520  142.5130 C   0  0  2  0  0  3  0  0  0  0  0  0
  191.7460  172.4450  142.7140 O   0  0  0  0  0  0  0  0  0  0  0  0
  193.4220  174.2120  142.3490 C   0  0  1  0  0  0  0  0  0  0  0  0
  192.3630  170.3490  143.7480 C   0  0  0  0  0  3  0  0  0  0  0  0
  194.8180  171.4270  144.5160 C   0  0  0  0  0  3  0  0  0  0  0  0
  189.2040  176.2310  145.3330 N   0  0  0  0  0  0  0  0  0  0  0  0
  189.6590  175.1130  146.1490 C   0  0  0  0  0  2  0  0  0  0  0  0
  191.7750  174.6410  144.9510 C   0  0  0  0  0  3  0  0  0  0  0  0
  188.9560  176.7990  141.7720 N   0  0  0  0  0  2  0  0  0  0  0  0
  188.7100  177.2750  143.1490 C   0  0  2  0  0  3  0  0  0  0  0  0
  191.1920  174.6260  143.5870 C   0  0  1  0  0  3  0  0  0  0  0  0
  190.1510  175.4010  143.2330 C   0  0  0  0  0  0  0  0  0  0  0  0
  191.9080  174.9190  147.3560 C   0  0  0  0  0  1  0  0  0  0  0  0
  189.4140  176.3220  144.0550 C   0  0  0  0  0  0  0  0  0  0  0  0
  189.8140  175.6880  141.8900 N   0  0  0  0  0  0  0  0  0  0  0  0
  191.1380  174.9360  146.0850 C   0  0  0  0  0  0  0  0  0  0  0  0
  184.4400  177.9100  143.9110 O   0  0  0  0  0  0  0  0  0  0  0  0
  186.7110  178.1790  144.4230 N   0  0  0  0  0  2  0  0  0  0  0  0
  186.4790  176.5500  142.7540 O   0  0  0  0  0  0  0  0  0  0  0  0
  185.3180  178.4110  144.6610 C   0  0  0  0  0  0  0  0  0  0  0  0
  187.2410  177.2950  143.4270 C   0  0  0  0  0  0  0  0  0  0  0  0
  184.9050  179.3010  145.7830 C   0  0  0  0  0  2  0  0  0  0  0  0
  186.2430  179.0480  147.8660 C   0  0  0  0  0  1  0  0  0  0  0  0
  185.1130  177.0860  146.8700 C   0  0  0  0  0  1  0  0  0  0  0  0
  185.0090  178.5790  147.1150 C   0  0  0  0  0  3  0  0  0  0  0  0
  195.4270  169.1120  146.9710 C   0  0  0  0  0  2  0  0  0  0  0  0
  197.7180  168.3920  146.9720 O   0  0  0  0  0  0  0  0  0  0  0  0
  197.9400  168.9180  145.6870 C   0  0  0  0  0  2  0  0  0  0  0  0
  195.5330  169.3090  145.5220 N   0  0  0  0  0  0  0  0  0  0  0  0
  196.6880  168.7340  144.8290 C   0  0  0  0  0  2  0  0  0  0  0  0
  196.8090  169.2570  147.6070 C   0  0  0  0  0  2  0  0  0  0  0  0
  193.9180  173.6120  141.0260 C   0  0  0  0  0  2  0  0  0  0  0  0
  193.4610  174.4060  139.8090 C   0  0  0  0  0  2  0  0  0  0  0  0
  193.0940  173.4980  138.7380 N   0  0  0  0  0  2  0  0  0  0  0  0
  191.7570  173.0220  139.0470 C   0  0  0  0  0  2  0  0  0  0  0  0
  191.4960  174.0760  136.9360 O   0  0  0  0  0  1  0  0  0  0  0  0
  190.7860  173.4730  137.9740 C   0  0  1  0  0  3  0  0  0  0  0  0
  190.8530  171.1820  137.3150 O   0  0  0  0  0  1  0  0  0  0  0  0
  190.0060  172.2840  137.4360 C   0  0  0  0  0  2  0  0  0  0  0  0
  2  5  1  0  0  0  0
  3 11  2  0  0  0  0
  3  5  1  0  0  0  0
  4  6  1  0  0  0  0
  4  7  2  0  0  0  0
  5 12  2  0  0  0  0
  7 36  1  0  0  0  0
  8  9  1  1  0  0  0
  8 18  1  0  0  0  0
  9  3  1  0  0  0  0
 10  1  1  6  0  0  0
 10  8  1  0  0  0  0
 10  2  1  0  0  0  0
 11  4  1  0  0  0  0
 12  7  1  0  0  0  0
 13 14  1  0  0  0  0
 15 23  2  0  0  0  0
 16 22  1  0  0  0  0
 16 17  1  0  0  0  0
 17 28  1  1  0  0  0
 17 21  1  0  0  0  0
 18 15  1  6  0  0  0
 19 18  1  0  0  0  0
 19 21  1  0  0  0  0
 21 13  2  0  0  0  0
 22 19  2  0  0  0  0
 23 14  1  0  0  0  0
 23 20  1  0  0  0  0
 24 27  2  0  0  0  0
 25 27  1  0  0  0  0
 26 28  2  0  0  0  0
 27 29  1  0  0  0  0
 28 25  1  0  0  0  0
 29 32  1  0  0  0  0
 31 32  1  0  0  0  0
 32 30  1  0  0  0  0
 33 38  1  0  0  0  0
 34 38  1  0  0  0  0
 35 34  1  0  0  0  0
 36 33  1  0  0  0  0
 37 36  1  0  0  0  0
 37 35  1  0  0  0  0
 39 10  1  0  0  0  0
 40 39  1  0  0  0  0
 41 42  1  0  0  0  0
 41 40  1  0  0  0  0
 44 43  1  6  0  0  0
 44 42  1  0  0  0  0
 45 46  1  0  0  0  0
 46 44  1  0  0  0  0
M  END
>  <MODEL>
5

>  <REMARK>
 VINA RESULT:      -6.1      3.236      9.175
  Name = 
  11 active torsions:
  status: ('A' for Active; 'I' for Inactive)
    1  A    between atoms: C_4  and  C_34
    2  A    between atoms: C_4  and  C_42
    3  A    between atoms: N_6  and  C_42
    4  A    between atoms: N_6  and  C_44
    5  A    between atoms: N_18  and  C_22
    6  A    between atoms: C_23  and  C_40
    7  A    between atoms: C_24  and  C_46
    8  A    between atoms: C_25  and  C_33
    9  A    between atoms: C_25  and  C_44
   10  A    between atoms: C_27  and  C_29
   11  A    between atoms: C_37  and  C_46
                            x       y       z     vdW  Elec       q    Type
                         _______ _______ _______ _____ _____    ______ ____

>  <TORSDO>
F 11

$$$$
=
 OpenBabel11042414353D

 46 50  0  0  1  0  0  0  0  0999 V2000
  194.5090  176.1830  145.8450 C   0  0  0  0  0  1  0  0  0  0  0  0
  192.3870  176.6300  144.6170 C   0  0  0  0  0  2  0  0  0  0  0  0
  190.9110  174.6790  144.0030 C   0  0  0  0  0  0  0  0  0  0  0  0
  188.7360  175.0350  142.9830 C   0  0  0  0  0  0  0  0  0  0  0  0
  191.1030  176.0670  144.0810 C   0  0  0  0  0  0  0  0  0  0  0  0
  187.5460  174.4130  142.3390 C   0  0  0  0  0  1  0  0  0  0  0  0
  188.9150  176.4400  143.0700 C   0  0  0  0  0  0  0  0  0  0  0  0
  193.1830  174.2480  144.8990 C   0  0  2  0  0  3  0  0  0  0  0  0
  191.8860  173.8000  144.4890 O   0  0  0  0  0  0  0  0  0  0  0  0
  193.1110  175.6500  145.5570 C   0  0  1  0  0  0  0  0  0  0  0  0
  189.7340  174.1740  143.4530 C   0  0  0  0  0  3  0  0  0  0  0  0
  190.1170  176.9330  143.6090 C   0  0  0  0  0  3  0  0  0  0  0  0
  196.0490  173.2290  141.4710 N   0  0  0  0  0  0  0  0  0  0  0  0
  195.1880  174.2620  140.9100 C   0  0  0  0  0  2  0  0  0  0  0  0
  194.5390  175.3670  143.0290 C   0  0  0  0  0  3  0  0  0  0  0  0
  195.7140  170.9060  144.2200 N   0  0  0  0  0  0  0  0  0  0  0  0
  196.5000  171.4020  143.0720 C   0  0  2  0  0  3  0  0  0  0  0  0
  194.1620  174.1290  143.7530 C   0  0  0  0  0  0  0  0  0  0  0  0
  194.7760  172.9500  143.5440 C   0  0  0  0  0  0  0  0  0  0  0  0
  195.4040  176.7870  141.2650 C   0  0  0  0  0  1  0  0  0  0  0  0
  195.8340  172.6550  142.6160 C   0  0  0  0  0  0  0  0  0  0  0  0
  194.7080  171.8650  144.4480 N   0  0  0  0  0  0  0  0  0  0  0  0
  195.0720  175.4450  141.8090 C   0  0  0  0  0  0  0  0  0  0  0  0
  196.1110  168.6920  139.6480 O   0  0  0  0  0  0  0  0  0  0  0  0
  195.3010  169.7310  141.5860 N   0  0  0  0  0  2  0  0  0  0  0  0
  197.6060  170.1140  141.4050 O   0  0  0  0  0  0  0  0  0  0  0  0
  195.1610  168.8650  140.4550 C   0  0  0  0  0  0  0  0  0  0  0  0
  196.5180  170.3760  141.9840 C   0  0  0  0  0  0  0  0  0  0  0  0
  193.8510  168.1980  140.2010 C   0  0  0  0  0  2  0  0  0  0  0  0
  191.4590  168.4520  140.8350 C   0  0  0  0  0  1  0  0  0  0  0  0
  192.4160  169.8350  139.0220 C   0  0  0  0  0  1  0  0  0  0  0  0
  192.7030  169.1790  140.3590 C   0  0  0  0  0  3  0  0  0  0  0  0
  186.9360  177.9090  143.5830 C   0  0  0  0  0  2  0  0  0  0  0  0
  185.6270  178.6660  141.7180 O   0  0  0  0  0  0  0  0  0  0  0  0
  186.3460  177.8610  140.8170 C   0  0  0  0  0  2  0  0  0  0  0  0
  187.9160  177.3820  142.6280 N   0  0  0  0  0  0  0  0  0  0  0  0
  187.8170  177.8080  141.2300 C   0  0  0  0  0  2  0  0  0  0  0  0
  185.5570  177.9510  142.9260 C   0  0  0  0  0  2  0  0  0  0  0  0
  192.3560  175.5180  146.8880 C   0  0  0  0  0  2  0  0  0  0  0  0
  191.6220  176.7940  147.2780 C   0  0  0  0  0  2  0  0  0  0  0  0
  190.2700  176.4740  147.6970 N   0  0  0  0  0  2  0  0  0  0  0  0
  189.4240  177.5410  147.1900 C   0  0  0  0  0  2  0  0  0  0  0  0
  188.1740  175.5730  146.7460 O   0  0  0  0  0  1  0  0  0  0  0  0
  188.1540  176.9600  146.6000 C   0  0  1  0  0  3  0  0  0  0  0  0
  185.7780  176.9350  146.8070 O   0  0  0  0  0  1  0  0  0  0  0  0
  186.9350  177.5300  147.3080 C   0  0  0  0  0  2  0  0  0  0  0  0
  2 10  1  0  0  0  0
  3  5  1  0  0  0  0
  3  9  1  0  0  0  0
  4  7  2  0  0  0  0
  4 11  1  0  0  0  0
  5  2  1  0  0  0  0
  6  4  1  0  0  0  0
  7 12  1  0  0  0  0
  8 18  1  6  0  0  0
  8 10  1  0  0  0  0
  9  8  1  0  0  0  0
 10  1  1  1  0  0  0
 10 39  1  0  0  0  0
 11  3  2  0  0  0  0
 12  5  2  0  0  0  0
 13 21  2  0  0  0  0
 14 13  1  0  0  0  0
 14 23  1  0  0  0  0
 15 18  1  0  0  0  0
 16 22  2  0  0  0  0
 17 28  1  6  0  0  0
 17 16  1  0  0  0  0
 19 18  2  0  0  0  0
 19 22  1  0  0  0  0
 20 23  1  0  0  0  0
 21 17  1  0  0  0  0
 21 19  1  0  0  0  0
 23 15  2  0  0  0  0
 24 27  2  0  0  0  0
 25 28  1  0  0  0  0
 26 28  2  0  0  0  0
 27 25  1  0  0  0  0
 29 32  1  0  0  0  0
 29 27  1  0  0  0  0
 31 32  1  0  0  0  0
 32 30  1  0  0  0  0
 34 38  1  0  0  0  0
 35 37  1  0  0  0  0
 35 34  1  0  0  0  0
 36  7  1  0  0  0  0
 36 33  1  0  0  0  0
 37 36  1  0  0  0  0
 38 33  1  0  0  0  0
 39 40  1  0  0  0  0
 40 41  1  0  0  0  0
 42 41  1  0  0  0  0
 44 43  1  1  0  0  0
 44 42  1  0  0  0  0
 44 46  1  0  0  0  0
 45 46  1  0  0  0  0
M  END
>  <MODEL>
6

>  <REMARK>
 VINA RESULT:      -6.0      3.122      5.569
  Name = 
  11 active torsions:
  status: ('A' for Active; 'I' for Inactive)
    1  A    between atoms: C_4  and  C_34
    2  A    between atoms: C_4  and  C_42
    3  A    between atoms: N_6  and  C_42
    4  A    between atoms: N_6  and  C_44
    5  A    between atoms: N_18  and  C_22
    6  A    between atoms: C_23  and  C_40
    7  A    between atoms: C_24  and  C_46
    8  A    between atoms: C_25  and  C_33
    9  A    between atoms: C_25  and  C_44
   10  A    between atoms: C_27  and  C_29
   11  A    between atoms: C_37  and  C_46
                            x       y       z     vdW  Elec       q    Type
                         _______ _______ _______ _____ _____    ______ ____

>  <TORSDO>
F 11

$$$$
=
 OpenBabel11042414353D

 46 50  0  0  1  0  0  0  0  0999 V2000
  194.9950  175.7480  144.2150 C   0  0  0  0  0  1  0  0  0  0  0  0
  192.6770  176.4010  143.5770 C   0  0  0  0  0  2  0  0  0  0  0  0
  190.9660  174.5840  143.2140 C   0  0  0  0  0  0  0  0  0  0  0  0
  188.6390  175.1310  142.7830 C   0  0  0  0  0  0  0  0  0  0  0  0
  191.2660  175.9490  143.3360 C   0  0  0  0  0  0  0  0  0  0  0  0
  187.2890  174.6250  142.4100 C   0  0  0  0  0  1  0  0  0  0  0  0
  188.9310  176.5140  142.9170 C   0  0  0  0  0  0  0  0  0  0  0  0
  193.3520  173.9660  143.4960 C   0  0  2  0  0  3  0  0  0  0  0  0
  191.9660  173.6200  143.3860 O   0  0  0  0  0  0  0  0  0  0  0  0
  193.5360  175.3120  144.2440 C   0  0  1  0  0  0  0  0  0  0  0  0
  189.6590  174.1850  142.9360 C   0  0  0  0  0  3  0  0  0  0  0  0
  190.2570  176.8990  143.1780 C   0  0  0  0  0  3  0  0  0  0  0  0
  194.8290  173.3870  139.1970 N   0  0  0  0  0  0  0  0  0  0  0  0
  194.9620  174.8210  139.4200 C   0  0  0  0  0  2  0  0  0  0  0  0
  195.1820  174.7720  141.8870 C   0  0  0  0  0  3  0  0  0  0  0  0
  192.8460  170.7840  140.7300 N   0  0  0  0  0  2  0  0  0  0  0  0
  193.8030  171.1930  139.6820 C   0  0  2  0  0  3  0  0  0  0  0  0
  194.0150  173.8920  142.1390 C   0  0  1  0  0  3  0  0  0  0  0  0
  193.6370  172.9240  141.2850 C   0  0  0  0  0  0  0  0  0  0  0  0
  196.8690  176.0020  140.6540 C   0  0  0  0  0  1  0  0  0  0  0  0
  194.2250  172.5830  140.0180 C   0  0  0  0  0  0  0  0  0  0  0  0
  192.7900  171.8510  141.6470 N   0  0  0  0  0  0  0  0  0  0  0  0
  195.6690  175.1270  140.6970 C   0  0  0  0  0  0  0  0  0  0  0  0
  191.7230  171.5910  135.8440 O   0  0  0  0  0  0  0  0  0  0  0  0
  191.7930  171.5900  138.1870 N   0  0  0  0  0  2  0  0  0  0  0  0
  193.8040  170.7260  137.3490 O   0  0  0  0  0  0  0  0  0  0  0  0
  191.1150  171.7470  136.9350 C   0  0  0  0  0  0  0  0  0  0  0  0
  193.1450  171.1400  138.3410 C   0  0  0  0  0  0  0  0  0  0  0  0
  189.6800  172.1520  136.9250 C   0  0  0  0  0  2  0  0  0  0  0  0
  188.3780  173.6480  138.4280 C   0  0  0  0  0  1  0  0  0  0  0  0
  189.2000  174.4850  136.2510 C   0  0  0  0  0  1  0  0  0  0  0  0
  189.5140  173.5760  137.4230 C   0  0  0  0  0  3  0  0  0  0  0  0
  187.2350  178.0300  143.9960 C   0  0  0  0  0  2  0  0  0  0  0  0
  185.5750  179.0050  142.5610 O   0  0  0  0  0  0  0  0  0  0  0  0
  186.0030  178.2440  141.4590 C   0  0  0  0  0  2  0  0  0  0  0  0
  187.9210  177.5370  142.7980 N   0  0  0  0  0  0  0  0  0  0  0  0
  187.5230  178.0840  141.4990 C   0  0  0  0  0  2  0  0  0  0  0  0
  185.7450  178.1950  143.6970 C   0  0  0  0  0  2  0  0  0  0  0  0
  193.1160  175.1100  145.7070 C   0  0  0  0  0  2  0  0  0  0  0  0
  192.9600  176.4230  146.4620 C   0  0  0  0  0  2  0  0  0  0  0  0
  191.6170  176.5230  147.0030 N   0  0  0  0  0  2  0  0  0  0  0  0
  191.1070  175.1650  147.0810 C   0  0  0  0  0  2  0  0  0  0  0  0
  188.9520  174.3410  147.6350 O   0  0  0  0  0  1  0  0  0  0  0  0
  189.6350  175.1420  146.7210 C   0  0  1  0  0  3  0  0  0  0  0  0
  187.6970  176.4990  147.0260 O   0  0  0  0  0  1  0  0  0  0  0  0
  189.0640  176.5500  146.7500 C   0  0  0  0  0  2  0  0  0  0  0  0
  2 10  1  0  0  0  0
  3  5  1  0  0  0  0
  3  9  1  0  0  0  0
  4  7  2  0  0  0  0
  4 11  1  0  0  0  0
  5  2  1  0  0  0  0
  6  4  1  0  0  0  0
  7 12  1  0  0  0  0
  8  9  1  6  0  0  0
  8 10  1  0  0  0  0
 10  1  1  6  0  0  0
 10 39  1  0  0  0  0
 11  3  2  0  0  0  0
 12  5  2  0  0  0  0
 13 14  1  0  0  0  0
 13 21  2  0  0  0  0
 14 23  1  0  0  0  0
 16 22  1  0  0  0  0
 17 28  1  6  0  0  0
 17 21  1  0  0  0  0
 17 16  1  0  0  0  0
 18 15  1  1  0  0  0
 18  8  1  0  0  0  0
 19 22  2  0  0  0  0
 19 18  1  0  0  0  0
 20 23  1  0  0  0  0
 21 19  1  0  0  0  0
 23 15  2  0  0  0  0
 24 27  2  0  0  0  0
 25 28  1  0  0  0  0
 26 28  2  0  0  0  0
 27 25  1  0  0  0  0
 29 27  1  0  0  0  0
 29 32  1  0  0  0  0
 31 32  1  0  0  0  0
 32 30  1  0  0  0  0
 34 38  1  0  0  0  0
 35 37  1  0  0  0  0
 35 34  1  0  0  0  0
 36  7  1  0  0  0  0
 36 33  1  0  0  0  0
 37 36  1  0  0  0  0
 38 33  1  0  0  0  0
 39 40  1  0  0  0  0
 40 41  1  0  0  0  0
 41 42  1  0  0  0  0
 44 46  1  0  0  0  0
 44 42  1  0  0  0  0
 44 43  1  1  0  0  0
 46 45  1  0  0  0  0
M  END
>  <MODEL>
7

>  <REMARK>
 VINA RESULT:      -6.0      2.721      5.466
  Name = 
  11 active torsions:
  status: ('A' for Active; 'I' for Inactive)
    1  A    between atoms: C_4  and  C_34
    2  A    between atoms: C_4  and  C_42
    3  A    between atoms: N_6  and  C_42
    4  A    between atoms: N_6  and  C_44
    5  A    between atoms: N_18  and  C_22
    6  A    between atoms: C_23  and  C_40
    7  A    between atoms: C_24  and  C_46
    8  A    between atoms: C_25  and  C_33
    9  A    between atoms: C_25  and  C_44
   10  A    between atoms: C_27  and  C_29
   11  A    between atoms: C_37  and  C_46
                            x       y       z     vdW  Elec       q    Type
                         _______ _______ _______ _____ _____    ______ ____

>  <TORSDO>
F 11

$$$$
=
 OpenBabel11042414353D

 46 50  0  0  1  0  0  0  0  0999 V2000
  188.8850  175.4800  146.7400 C   0  0  0  0  0  1  0  0  0  0  0  0
  191.0900  174.6720  145.9080 C   0  0  0  0  0  2  0  0  0  0  0  0
  192.4150  176.1560  144.3580 C   0  0  0  0  0  0  0  0  0  0  0  0
  194.6570  175.5390  143.6560 C   0  0  0  0  0  0  0  0  0  0  0  0
  192.3430  174.9990  145.1490 C   0  0  0  0  0  0  0  0  0  0  0  0
  195.8160  175.8500  142.7740 C   0  0  0  0  0  1  0  0  0  0  0  0
  194.5980  174.3730  144.4630 C   0  0  0  0  0  0  0  0  0  0  0  0
  190.0760  176.7640  144.9150 C   0  0  2  0  0  3  0  0  0  0  0  0
  191.3460  177.0590  144.3220 O   0  0  0  0  0  0  0  0  0  0  0  0
  190.2420  175.9210  146.2070 C   0  0  1  0  0  0  0  0  0  0  0  0
  193.5670  176.4160  143.6170 C   0  0  0  0  0  3  0  0  0  0  0  0
  193.4220  174.1160  145.1890 C   0  0  0  0  0  3  0  0  0  0  0  0
  186.9770  175.5840  141.7530 N   0  0  0  0  0  0  0  0  0  0  0  0
  188.2370  175.1030  141.2010 C   0  0  0  0  0  2  0  0  0  0  0  0
  189.4720  174.8360  143.3320 C   0  0  0  0  0  3  0  0  0  0  0  0
  186.1070  178.0960  144.2020 N   0  0  0  0  0  0  0  0  0  0  0  0
  185.6710  177.0960  143.2060 C   0  0  2  0  0  3  0  0  0  0  0  0
  189.1430  176.1740  143.8820 C   0  0  0  0  0  0  0  0  0  0  0  0
  187.9780  176.7970  143.6300 C   0  0  0  0  0  0  0  0  0  0  0  0
  189.4470  172.9360  141.8260 C   0  0  0  0  0  1  0  0  0  0  0  0
  186.8920  176.3430  142.8040 C   0  0  0  0  0  0  0  0  0  0  0  0
  187.4820  177.8680  144.4080 N   0  0  0  0  0  0  0  0  0  0  0  0
  189.0170  174.3100  142.1940 C   0  0  0  0  0  0  0  0  0  0  0  0
  183.4650  179.3180  140.1380 O   0  0  0  0  0  0  0  0  0  0  0  0
  183.6420  177.6700  141.7940 N   0  0  0  0  0  2  0  0  0  0  0  0
  185.7780  178.4840  141.2770 O   0  0  0  0  0  0  0  0  0  0  0  0
  182.9110  178.4110  140.8110 C   0  0  0  0  0  0  0  0  0  0  0  0
  185.0510  177.7830  142.0310 C   0  0  0  0  0  0  0  0  0  0  0  0
  181.4580  178.1370  140.6200 C   0  0  0  0  0  2  0  0  0  0  0  0
  179.4740  178.3560  142.1050 C   0  0  0  0  0  1  0  0  0  0  0  0
  180.0380  180.1620  140.5130 C   0  0  0  0  0  1  0  0  0  0  0  0
  180.6120  179.1020  141.4320 C   0  0  0  0  0  3  0  0  0  0  0  0
  195.9020  172.4350  143.5240 C   0  0  0  0  0  2  0  0  0  0  0  0
  197.3610  171.2680  145.0320 O   0  0  0  0  0  0  0  0  0  0  0  0
  196.8920  172.0000  146.1370 C   0  0  0  0  0  2  0  0  0  0  0  0
  195.6950  173.4420  144.5690 N   0  0  0  0  0  0  0  0  0  0  0  0
  196.6030  173.4420  145.7180 C   0  0  0  0  0  2  0  0  0  0  0  0
  196.2630  171.0980  144.1700 C   0  0  0  0  0  2  0  0  0  0  0  0
  190.9210  176.7980  147.2680 C   0  0  0  0  0  2  0  0  0  0  0  0
  189.9330  177.3910  148.2640 C   0  0  0  0  0  2  0  0  0  0  0  0
  189.2740  178.5420  147.6770 N   0  0  0  0  0  2  0  0  0  0  0  0
  188.0360  178.7240  148.4140 C   0  0  0  0  0  2  0  0  0  0  0  0
  186.3100  177.1200  148.1320 O   0  0  0  0  0  1  0  0  0  0  0  0
  186.8600  178.2720  147.5710 C   0  0  1  0  0  3  0  0  0  0  0  0
  184.5540  178.7980  147.2660 O   0  0  0  0  0  1  0  0  0  0  0  0
  185.8040  179.3640  147.5130 C   0  0  0  0  0  2  0  0  0  0  0  0
  2 10  1  0  0  0  0
  3  5  1  0  0  0  0
  4  7  2  0  0  0  0
  5 12  2  0  0  0  0
  5  2  1  0  0  0  0
  6  4  1  0  0  0  0
  7 36  1  0  0  0  0
  7 12  1  0  0  0  0
  8 18  1  6  0  0  0
  8 10  1  0  0  0  0
  9  3  1  0  0  0  0
  9  8  1  0  0  0  0
 10  1  1  1  0  0  0
 10 39  1  0  0  0  0
 11  4  1  0  0  0  0
 11  3  2  0  0  0  0
 13 21  2  0  0  0  0
 14 13  1  0  0  0  0
 14 23  1  0  0  0  0
 15 18  1  0  0  0  0
 16 22  2  0  0  0  0
 17 28  1  6  0  0  0
 17 16  1  0  0  0  0
 19 18  2  0  0  0  0
 19 22  1  0  0  0  0
 20 23  1  0  0  0  0
 21 17  1  0  0  0  0
 21 19  1  0  0  0  0
 23 15  2  0  0  0  0
 24 27  2  0  0  0  0
 25 28  1  0  0  0  0
 26 28  2  0  0  0  0
 27 25  1  0  0  0  0
 29 27  1  0  0  0  0
 29 32  1  0  0  0  0
 31 32  1  0  0  0  0
 32 30  1  0  0  0  0
 33 38  1  0  0  0  0
 33 36  1  0  0  0  0
 34 35  1  0  0  0  0
 36 37  1  0  0  0  0
 37 35  1  0  0  0  0
 38 34  1  0  0  0  0
 39 40  1  0  0  0  0
 41 40  1  0  0  0  0
 41 42  1  0  0  0  0
 44 43  1  1  0  0  0
 44 42  1  0  0  0  0
 45 46  1  0  0  0  0
 46 44  1  0  0  0  0
M  END
>  <MODEL>
8

>  <REMARK>
 VINA RESULT:      -5.9      3.522     10.104
  Name = 
  11 active torsions:
  status: ('A' for Active; 'I' for Inactive)
    1  A    between atoms: C_4  and  C_34
    2  A    between atoms: C_4  and  C_42
    3  A    between atoms: N_6  and  C_42
    4  A    between atoms: N_6  and  C_44
    5  A    between atoms: N_18  and  C_22
    6  A    between atoms: C_23  and  C_40
    7  A    between atoms: C_24  and  C_46
    8  A    between atoms: C_25  and  C_33
    9  A    between atoms: C_25  and  C_44
   10  A    between atoms: C_27  and  C_29
   11  A    between atoms: C_37  and  C_46
                            x       y       z     vdW  Elec       q    Type
                         _______ _______ _______ _____ _____    ______ ____

>  <TORSDO>
F 11

$$$$
=
 OpenBabel11042414353D

 46 50  0  0  1  0  0  0  0  0999 V2000
  191.5830  176.0140  147.7000 C   0  0  0  0  0  1  0  0  0  0  0  0
  190.3370  176.5650  145.6130 C   0  0  0  0  0  2  0  0  0  0  0  0
  189.9240  174.7310  143.9320 C   0  0  0  0  0  0  0  0  0  0  0  0
  188.5520  175.1280  141.9680 C   0  0  0  0  0  0  0  0  0  0  0  0
  189.6900  176.0460  144.3630 C   0  0  0  0  0  0  0  0  0  0  0  0
  188.0520  174.5960  140.6700 C   0  0  0  0  0  1  0  0  0  0  0  0
  188.2990  176.4550  142.4010 C   0  0  0  0  0  0  0  0  0  0  0  0
  191.4570  174.3100  145.8350 C   0  0  2  0  0  3  0  0  0  0  0  0
  190.7070  173.8620  144.7010 O   0  0  0  0  0  0  0  0  0  0  0  0
  190.7090  175.4380  146.5930 C   0  0  1  0  0  0  0  0  0  0  0  0
  189.3570  174.2830  142.7400 C   0  0  0  0  0  3  0  0  0  0  0  0
  188.8930  176.8970  143.5960 C   0  0  0  0  0  3  0  0  0  0  0  0
  195.7150  174.7810  144.2070 N   0  0  0  0  0  0  0  0  0  0  0  0
  195.1170  176.0940  144.0030 C   0  0  0  0  0  2  0  0  0  0  0  0
  193.4050  175.9800  145.7900 C   0  0  0  0  0  3  0  0  0  0  0  0
  194.3690  171.4550  144.6510 N   0  0  0  0  0  2  0  0  0  0  0  0
  195.5480  172.3320  144.4950 C   0  0  2  0  0  3  0  0  0  0  0  0
  192.8730  174.6460  145.4240 C   0  0  1  0  0  3  0  0  0  0  0  0
  193.6430  173.6750  144.9010 C   0  0  0  0  0  0  0  0  0  0  0  0
  194.8420  177.9330  145.7620 C   0  0  0  0  0  1  0  0  0  0  0  0
  195.0430  173.7330  144.5780 C   0  0  0  0  0  0  0  0  0  0  0  0
  193.2750  172.3100  144.8860 N   0  0  0  0  0  0  0  0  0  0  0  0
  194.4470  176.6020  145.2350 C   0  0  0  0  0  0  0  0  0  0  0  0
  197.3590  172.1330  140.5080 O   0  0  0  0  0  0  0  0  0  0  0  0
  195.5490  172.4560  141.9610 N   0  0  0  0  0  2  0  0  0  0  0  0
  197.3510  171.5500  143.1550 O   0  0  0  0  0  0  0  0  0  0  0  0
  196.1420  172.4180  140.6590 C   0  0  0  0  0  0  0  0  0  0  0  0
  196.2050  172.0750  143.1770 C   0  0  0  0  0  0  0  0  0  0  0  0
  195.3180  172.7710  139.4680 C   0  0  0  0  0  2  0  0  0  0  0  0
  194.1900  174.9180  138.9090 C   0  0  0  0  0  1  0  0  0  0  0  0
  196.2830  174.2790  137.7580 C   0  0  0  0  0  1  0  0  0  0  0  0
  195.5290  174.2220  139.0730 C   0  0  0  0  0  3  0  0  0  0  0  0
  186.5550  178.2710  142.3870 C   0  0  0  0  0  2  0  0  0  0  0  0
  185.3980  178.6560  140.3190 O   0  0  0  0  0  0  0  0  0  0  0  0
  186.0000  177.5410  139.7120 C   0  0  0  0  0  2  0  0  0  0  0  0
  187.4570  177.3680  141.6670 N   0  0  0  0  0  0  0  0  0  0  0  0
  187.4420  177.3990  140.2020 C   0  0  0  0  0  2  0  0  0  0  0  0
  185.2060  178.3210  141.6710 C   0  0  0  0  0  2  0  0  0  0  0  0
  189.4490  174.8350  147.2300 C   0  0  0  0  0  2  0  0  0  0  0  0
  188.5010  175.8930  147.7790 C   0  0  0  0  0  2  0  0  0  0  0  0
  187.3390  176.0060  146.9180 N   0  0  0  0  0  2  0  0  0  0  0  0
  187.0410  177.4240  146.8200 C   0  0  0  0  0  2  0  0  0  0  0  0
  184.7990  176.7080  146.5130 O   0  0  0  0  0  1  0  0  0  0  0  0
  185.7440  177.6310  146.0630 C   0  0  1  0  0  3  0  0  0  0  0  0
  185.3980  179.7950  145.1220 O   0  0  0  0  0  1  0  0  0  0  0  0
  185.2240  179.0420  146.2830 C   0  0  0  0  0  2  0  0  0  0  0  0
  2 10  1  0  0  0  0
  3  5  1  0  0  0  0
  3  9  1  0  0  0  0
  4  7  2  0  0  0  0
  4 11  1  0  0  0  0
  5  2  1  0  0  0  0
  6  4  1  0  0  0  0
  7 12  1  0  0  0  0
  8  9  1  6  0  0  0
  8 10  1  0  0  0  0
 10 39  1  0  0  0  0
 10  1  1  1  0  0  0
 11  3  2  0  0  0  0
 12  5  2  0  0  0  0
 13 21  2  0  0  0  0
 14 13  1  0  0  0  0
 14 23  1  0  0  0  0
 16 22  1  0  0  0  0
 17 28  1  6  0  0  0
 17 21  1  0  0  0  0
 17 16  1  0  0  0  0
 18 15  1  1  0  0  0
 18  8  1  0  0  0  0
 19 18  1  0  0  0  0
 21 19  1  0  0  0  0
 22 19  2  0  0  0  0
 23 20  1  0  0  0  0
 23 15  2  0  0  0  0
 24 27  2  0  0  0  0
 25 28  1  0  0  0  0
 26 28  2  0  0  0  0
 27 25  1  0  0  0  0
 29 27  1  0  0  0  0
 30 32  1  0  0  0  0
 31 32  1  0  0  0  0
 32 29  1  0  0  0  0
 34 38  1  0  0  0  0
 35 37  1  0  0  0  0
 35 34  1  0  0  0  0
 36 33  1  0  0  0  0
 36  7  1  0  0  0  0
 37 36  1  0  0  0  0
 38 33  1  0  0  0  0
 39 40  1  0  0  0  0
 41 40  1  0  0  0  0
 42 41  1  0  0  0  0
 44 46  1  0  0  0  0
 44 43  1  1  0  0  0
 44 42  1  0  0  0  0
 45 46  1  0  0  0  0
M  END
>  <MODEL>
9

>  <REMARK>
 VINA RESULT:      -5.8      2.527      5.032
  Name = 
  11 active torsions:
  status: ('A' for Active; 'I' for Inactive)
    1  A    between atoms: C_4  and  C_34
    2  A    between atoms: C_4  and  C_42
    3  A    between atoms: N_6  and  C_42
    4  A    between atoms: N_6  and  C_44
    5  A    between atoms: N_18  and  C_22
    6  A    between atoms: C_23  and  C_40
    7  A    between atoms: C_24  and  C_46
    8  A    between atoms: C_25  and  C_33
    9  A    between atoms: C_25  and  C_44
   10  A    between atoms: C_27  and  C_29
   11  A    between atoms: C_37  and  C_46
                            x       y       z     vdW  Elec       q    Type
                         _______ _______ _______ _____ _____    ______ ____

>  <TORSDO>
F 11

$$$$
