=
 OpenBabel11042416533D

 35 38  0  0  1  0  0  0  0  0999 V2000
  190.7240  173.3570  143.3580 N   0  0  0  0  0  0  0  0  0  0  0  0
  191.5460  175.4770  142.4690 C   0  0  0  0  0  3  0  0  0  0  0  0
  192.2050  175.9140  143.6700 N   0  0  0  0  0  0  0  0  0  0  0  0
  190.5510  174.9650  145.1850 C   0  0  1  0  0  3  0  0  0  0  0  0
  192.6440  176.1640  145.9770 N   0  0  0  0  0  2  0  0  0  0  0  0
  190.8250  174.3500  142.3200 C   0  0  0  0  0  0  0  0  0  0  0  0
  191.8370  175.6820  144.8960 C   0  0  0  0  0  0  0  0  0  0  0  0
  190.6210  173.5840  144.6310 C   0  0  0  0  0  3  0  0  0  0  0  0
  188.9250  174.2210  140.6070 C   0  0  0  0  0  0  0  0  0  0  0  0
  188.8870  172.9230  137.1780 N   0  0  0  0  0  1  0  0  0  0  0  0
  191.1030  173.4060  140.0860 N   0  0  0  0  0  0  0  0  0  0  0  0
  191.6560  172.4070  137.9070 C   0  0  0  0  0  1  0  0  0  0  0  0
  190.6890  173.0460  138.8440 C   0  0  0  0  0  0  0  0  0  0  0  0
  188.5170  173.8590  139.3630 N   0  0  0  0  0  0  0  0  0  0  0  0
  190.2700  173.9980  140.9870 C   0  0  0  0  0  0  0  0  0  0  0  0
  189.3630  173.2850  138.4710 C   0  0  0  0  0  0  0  0  0  0  0  0
  187.9710  174.7760  141.5090 N   0  0  0  0  0  1  0  0  0  0  0  0
  190.2240  174.9220  146.6760 C   0  0  0  0  0  2  0  0  0  0  0  0
  188.6050  176.7040  146.1390 C   0  0  0  0  0  3  0  0  0  0  0  0
  189.0390  175.7740  146.9960 C   0  0  0  0  0  3  0  0  0  0  0  0
  186.9070  178.2410  145.1750 C   0  0  0  0  0  2  0  0  0  0  0  0
  186.2610  176.7780  146.9870 C   0  0  0  0  0  2  0  0  0  0  0  0
  187.4220  177.5820  146.4310 C   0  0  1  0  0  3  0  0  0  0  0  0
  185.4310  177.9160  145.1430 C   0  0  2  0  0  3  0  0  0  0  0  0
  185.2120  176.7440  145.9770 N   0  0  0  0  0  2  0  0  0  0  0  0
  185.5690  176.7620  143.0650 O   0  0  0  0  0  0  0  0  0  0  0  0
  183.9240  178.3550  143.1940 O   0  0  0  0  0  1  0  0  0  0  0  0
  184.9860  177.6460  143.7460 C   0  0  0  0  0  0  0  0  0  0  0  0
  193.8850  176.8920  145.7640 C   0  0  0  0  0  2  0  0  0  0  0  0
  196.8630  174.7040  144.3980 C   0  0  0  0  0  3  0  0  0  0  0  0
  195.8980  176.0290  144.0080 S   0  0  0  0  0  0  0  0  0  0  0  0
  194.9640  175.9360  145.3970 C   0  0  0  0  0  0  0  0  0  0  0  0
  196.4060  174.2440  145.6310 C   0  0  0  0  0  0  0  0  0  0  0  0
  196.9950  173.1260  146.2840 N   0  0  0  0  0  1  0  0  0  0  0  0
  195.3670  174.9230  146.1880 N   0  0  0  0  0  0  0  0  0  0  0  0
  1  8  2  0  0  0  0
  2  3  1  0  0  0  0
  3  7  2  0  0  0  0
  4 18  1  1  0  0  0
  6  2  2  0  0  0  0
  6  1  1  0  0  0  0
  7  4  1  0  0  0  0
  7  5  1  0  0  0  0
  8  4  1  0  0  0  0
  9 15  1  0  0  0  0
  9 17  1  0  0  0  0
 10 16  1  0  0  0  0
 11 15  2  0  0  0  0
 12 13  1  0  0  0  0
 13 11  1  0  0  0  0
 14  9  2  0  0  0  0
 15  6  1  0  0  0  0
 16 13  2  0  0  0  0
 16 14  1  0  0  0  0
 18 20  1  0  0  0  0
 19 20  2  0  0  0  0
 21 23  1  0  0  0  0
 23 19  1  6  0  0  0
 23 22  1  0  0  0  0
 24 28  1  6  0  0  0
 24 21  1  0  0  0  0
 24 25  1  0  0  0  0
 25 22  1  0  0  0  0
 26 28  2  0  0  0  0
 27 28  1  0  0  0  0
 29  5  1  0  0  0  0
 30 33  2  0  0  0  0
 31 30  1  0  0  0  0
 31 32  1  0  0  0  0
 32 29  1  0  0  0  0
 32 35  2  0  0  0  0
 33 35  1  0  0  0  0
 33 34  1  0  0  0  0
M  END
>  <MODEL>
1

>  <REMARK>
 VINA RESULT:      -7.5      0.000      0.000
  Name = 
  7 active torsions:
  status: ('A' for Active; 'I' for Inactive)
    1  A    between atoms: C_10  and  CA_25
    2  A    between atoms: C_11  and  C_13
    3  A    between atoms: C_11  and  C_20
    4  A    between atoms: C_15  and  C_19
    5  A    between atoms: C_16  and  C_24
    6  A    between atoms: N_17  and  C_19
    7  A    between atoms: C_22  and  C_31
                            x       y       z     vdW  Elec       q    Type
                         _______ _______ _______ _____ _____    ______ ____

>  <TORSDO>
F 7

$$$$
=
 OpenBabel11042416533D

 35 38  0  0  1  0  0  0  0  0999 V2000
  190.7930  174.4200  141.5620 N   0  0  0  0  0  0  0  0  0  0  0  0
  188.4020  174.3640  141.0740 C   0  0  0  0  0  3  0  0  0  0  0  0
  188.0550  175.5420  141.8230 N   0  0  0  0  0  0  0  0  0  0  0  0
  189.6740  175.1560  143.6010 C   0  0  1  0  0  3  0  0  0  0  0  0
  188.1580  177.1900  143.5110 N   0  0  0  0  0  2  0  0  0  0  0  0
  189.6240  173.8080  140.9850 C   0  0  0  0  0  0  0  0  0  0  0  0
  188.6090  175.9660  142.9210 C   0  0  0  0  0  0  0  0  0  0  0  0
  190.8550  175.0390  142.7000 C   0  0  0  0  0  3  0  0  0  0  0  0
  190.2720  171.3650  140.5650 C   0  0  0  0  0  0  0  0  0  0  0  0
  190.3980  169.4320  137.4520 N   0  0  0  0  0  1  0  0  0  0  0  0
  189.6240  172.7900  138.7670 N   0  0  0  0  0  0  0  0  0  0  0  0
  189.5360  172.0180  136.4330 C   0  0  0  0  0  1  0  0  0  0  0  0
  189.7940  171.7750  137.8810 C   0  0  0  0  0  0  0  0  0  0  0  0
  190.4410  170.3540  139.6730 N   0  0  0  0  0  0  0  0  0  0  0  0
  189.8380  172.6320  140.1030 C   0  0  0  0  0  0  0  0  0  0  0  0
  190.2070  170.5240  138.3470 C   0  0  0  0  0  0  0  0  0  0  0  0
  190.5810  171.1300  141.9360 N   0  0  0  0  0  1  0  0  0  0  0  0
  190.0910  175.7450  144.9470 C   0  0  0  0  0  2  0  0  0  0  0  0
  192.1920  175.3720  146.1850 C   0  0  0  0  0  3  0  0  0  0  0  0
  191.5800  175.7990  145.0760 C   0  0  0  0  0  3  0  0  0  0  0  0
  194.3880  174.9170  145.1140 C   0  0  0  0  0  2  0  0  0  0  0  0
  194.1740  176.8390  146.5640 C   0  0  0  0  0  2  0  0  0  0  0  0
  193.6840  175.4180  146.3520 C   0  0  1  0  0  3  0  0  0  0  0  0
  195.3680  176.0100  144.7540 C   0  0  2  0  0  3  0  0  0  0  0  0
  194.9080  177.2450  145.3730 N   0  0  0  0  0  2  0  0  0  0  0  0
  194.5330  175.7080  142.5440 O   0  0  0  0  0  0  0  0  0  0  0  0
  196.5180  176.8460  142.6950 O   0  0  0  0  0  1  0  0  0  0  0  0
  195.4470  176.1730  143.2740 C   0  0  0  0  0  0  0  0  0  0  0  0
  187.1090  178.0050  142.9190 C   0  0  0  0  0  2  0  0  0  0  0  0
  184.0990  178.8630  145.3120 C   0  0  0  0  0  3  0  0  0  0  0  0
  184.4700  178.5630  143.6950 S   0  0  0  0  0  0  0  0  0  0  0  0
  186.1130  178.3690  143.9620 C   0  0  0  0  0  0  0  0  0  0  0  0
  185.3060  178.7870  146.0050 C   0  0  0  0  0  0  0  0  0  0  0  0
  185.3810  178.9820  147.4120 N   0  0  0  0  0  1  0  0  0  0  0  0
  186.4150  178.5070  145.2680 N   0  0  0  0  0  0  0  0  0  0  0  0
  1  8  2  0  0  0  0
  2  3  1  0  0  0  0
  3  7  2  0  0  0  0
  4 18  1  1  0  0  0
  6  2  2  0  0  0  0
  6  1  1  0  0  0  0
  7  5  1  0  0  0  0
  7  4  1  0  0  0  0
  8  4  1  0  0  0  0
  9 17  1  0  0  0  0
 10 16  1  0  0  0  0
 11 15  2  0  0  0  0
 12 13  1  0  0  0  0
 13 16  2  0  0  0  0
 13 11  1  0  0  0  0
 14  9  2  0  0  0  0
 15  9  1  0  0  0  0
 15  6  1  0  0  0  0
 16 14  1  0  0  0  0
 18 20  1  0  0  0  0
 20 19  2  0  0  0  0
 21 23  1  0  0  0  0
 23 19  1  6  0  0  0
 23 22  1  0  0  0  0
 24 28  1  6  0  0  0
 24 21  1  0  0  0  0
 24 25  1  0  0  0  0
 25 22  1  0  0  0  0
 26 28  2  0  0  0  0
 27 28  1  0  0  0  0
 29  5  1  0  0  0  0
 29 32  1  0  0  0  0
 30 33  2  0  0  0  0
 31 32  1  0  0  0  0
 31 30  1  0  0  0  0
 32 35  2  0  0  0  0
 33 34  1  0  0  0  0
 35 33  1  0  0  0  0
M  END
>  <MODEL>
2

>  <REMARK>
 VINA RESULT:      -7.2      3.646      7.174
  Name = 
  7 active torsions:
  status: ('A' for Active; 'I' for Inactive)
    1  A    between atoms: C_10  and  CA_25
    2  A    between atoms: C_11  and  C_13
    3  A    between atoms: C_11  and  C_20
    4  A    between atoms: C_15  and  C_19
    5  A    between atoms: C_16  and  C_24
    6  A    between atoms: N_17  and  C_19
    7  A    between atoms: C_22  and  C_31
                            x       y       z     vdW  Elec       q    Type
                         _______ _______ _______ _____ _____    ______ ____

>  <TORSDO>
F 7

$$$$
=
 OpenBabel11042416533D

 35 38  0  0  1  0  0  0  0  0999 V2000
  188.5670  173.6010  141.5550 N   0  0  0  0  0  0  0  0  0  0  0  0
  190.9930  173.8630  141.4530 C   0  0  0  0  0  3  0  0  0  0  0  0
  191.0720  174.9930  142.3390 N   0  0  0  0  0  0  0  0  0  0  0  0
  188.9860  176.0050  141.5930 C   0  0  1  0  0  3  0  0  0  0  0  0
  190.4260  176.9780  143.4430 N   0  0  0  0  0  2  0  0  0  0  0  0
  189.8660  173.2500  141.0430 C   0  0  0  0  0  0  0  0  0  0  0  0
  190.1980  175.9460  142.4760 C   0  0  0  0  0  0  0  0  0  0  0  0
  188.1460  174.7970  141.8290 C   0  0  0  0  0  3  0  0  0  0  0  0
  189.3700  171.9380  138.9000 C   0  0  0  0  0  0  0  0  0  0  0  0
  190.3010  168.5290  137.9200 N   0  0  0  0  0  1  0  0  0  0  0  0
  190.6190  170.9570  140.6780 N   0  0  0  0  0  0  0  0  0  0  0  0
  191.4970  168.6620  140.5700 C   0  0  0  0  0  1  0  0  0  0  0  0
  190.7520  169.8060  139.9710 C   0  0  0  0  0  0  0  0  0  0  0  0
  189.5070  170.7820  138.1980 N   0  0  0  0  0  0  0  0  0  0  0  0
  189.9550  172.0400  140.1860 C   0  0  0  0  0  0  0  0  0  0  0  0
  190.1860  169.7180  138.6960 C   0  0  0  0  0  0  0  0  0  0  0  0
  188.6040  172.9980  138.3350 N   0  0  0  0  0  1  0  0  0  0  0  0
  188.1630  177.2730  141.8070 C   0  0  0  0  0  2  0  0  0  0  0  0
  185.9340  177.6600  142.7920 C   0  0  0  0  0  3  0  0  0  0  0  0
  187.1360  177.0780  142.8750 C   0  0  0  0  0  3  0  0  0  0  0  0
  185.4930  177.0930  145.1710 C   0  0  0  0  0  2  0  0  0  0  0  0
  184.1410  178.7910  144.1060 C   0  0  0  0  0  2  0  0  0  0  0  0
  184.8820  177.4910  143.8490 C   0  0  1  0  0  3  0  0  0  0  0  0
  184.9530  178.0950  146.1670 C   0  0  2  0  0  3  0  0  0  0  0  0
  184.5210  179.2720  145.4270 N   0  0  0  0  0  2  0  0  0  0  0  0
  185.9180  179.5540  147.7820 O   0  0  0  0  0  1  0  0  0  0  0  0
  187.0700  177.6080  147.4070 O   0  0  0  0  0  0  0  0  0  0  0  0
  186.0040  178.4640  147.1580 C   0  0  0  0  0  0  0  0  0  0  0  0
  191.5950  176.9960  144.3090 C   0  0  0  0  0  2  0  0  0  0  0  0
  191.1940  175.4130  147.8940 C   0  0  0  0  0  3  0  0  0  0  0  0
  192.2930  176.2390  146.9190 S   0  0  0  0  0  0  0  0  0  0  0  0
  191.2750  176.3130  145.5900 C   0  0  0  0  0  0  0  0  0  0  0  0
  190.0480  175.2380  147.1190 C   0  0  0  0  0  0  0  0  0  0  0  0
  188.8930  174.5770  147.6210 N   0  0  0  0  0  1  0  0  0  0  0  0
  190.0860  175.7370  145.8540 N   0  0  0  0  0  0  0  0  0  0  0  0
  1  8  2  0  0  0  0
  2  3  1  0  0  0  0
  3  7  2  0  0  0  0
  4 18  1  1  0  0  0
  4  8  1  0  0  0  0
  4  7  1  0  0  0  0
  5 29  1  0  0  0  0
  6  2  2  0  0  0  0
  6  1  1  0  0  0  0
  7  5  1  0  0  0  0
  9 15  1  0  0  0  0
 10 16  1  0  0  0  0
 13 12  1  0  0  0  0
 13 11  1  0  0  0  0
 14 16  1  0  0  0  0
 14  9  2  0  0  0  0
 15 11  2  0  0  0  0
 15  6  1  0  0  0  0
 16 13  2  0  0  0  0
 17  9  1  0  0  0  0
 18 20  1  0  0  0  0
 19 20  2  0  0  0  0
 21 24  1  0  0  0  0
 22 25  1  0  0  0  0
 23 19  1  6  0  0  0
 23 22  1  0  0  0  0
 23 21  1  0  0  0  0
 24 28  1  1  0  0  0
 25 24  1  0  0  0  0
 28 27  2  0  0  0  0
 28 26  1  0  0  0  0
 29 32  1  0  0  0  0
 31 30  1  0  0  0  0
 32 35  2  0  0  0  0
 32 31  1  0  0  0  0
 33 34  1  0  0  0  0
 33 30  2  0  0  0  0
 35 33  1  0  0  0  0
M  END
>  <MODEL>
3

>  <REMARK>
 VINA RESULT:      -7.1      3.010      4.151
  Name = 
  7 active torsions:
  status: ('A' for Active; 'I' for Inactive)
    1  A    between atoms: C_10  and  CA_25
    2  A    between atoms: C_11  and  C_13
    3  A    between atoms: C_11  and  C_20
    4  A    between atoms: C_15  and  C_19
    5  A    between atoms: C_16  and  C_24
    6  A    between atoms: N_17  and  C_19
    7  A    between atoms: C_22  and  C_31
                            x       y       z     vdW  Elec       q    Type
                         _______ _______ _______ _____ _____    ______ ____

>  <TORSDO>
F 7

$$$$
=
 OpenBabel11042416533D

 35 38  0  0  1  0  0  0  0  0999 V2000
  192.3150  174.5420  144.0980 N   0  0  0  0  0  0  0  0  0  0  0  0
  192.8980  175.2140  146.3720 C   0  0  0  0  0  3  0  0  0  0  0  0
  191.7620  176.0700  146.5850 N   0  0  0  0  0  0  0  0  0  0  0  0
  191.6690  176.8870  144.2930 C   0  0  1  0  0  3  0  0  0  0  0  0
  190.0030  177.5630  146.0850 N   0  0  0  0  0  2  0  0  0  0  0  0
  193.1970  174.5550  145.2370 C   0  0  0  0  0  0  0  0  0  0  0  0
  191.1500  176.7980  145.6980 C   0  0  0  0  0  0  0  0  0  0  0  0
  191.6100  175.5390  143.6610 C   0  0  0  0  0  3  0  0  0  0  0  0
  195.6510  174.0220  144.7320 C   0  0  0  0  0  0  0  0  0  0  0  0
  197.5540  170.9170  145.1570 N   0  0  0  0  0  1  0  0  0  0  0  0
  194.1910  172.3590  145.6190 N   0  0  0  0  0  0  0  0  0  0  0  0
  194.9360  170.0640  146.0990 C   0  0  0  0  0  1  0  0  0  0  0  0
  195.2000  171.4510  145.6200 C   0  0  0  0  0  0  0  0  0  0  0  0
  196.6570  173.1080  144.7360 N   0  0  0  0  0  0  0  0  0  0  0  0
  194.3690  173.6430  145.1990 C   0  0  0  0  0  0  0  0  0  0  0  0
  196.4670  171.8380  145.1730 C   0  0  0  0  0  0  0  0  0  0  0  0
  195.9080  175.3240  144.2150 N   0  0  0  0  0  1  0  0  0  0  0  0
  190.9040  177.9020  143.4470 C   0  0  0  0  0  2  0  0  0  0  0  0
  188.5500  177.5240  142.8100 C   0  0  0  0  0  3  0  0  0  0  0  0
  189.8440  177.2370  142.6290 C   0  0  0  0  0  3  0  0  0  0  0  0
  186.1650  176.8260  142.7870 C   0  0  0  0  0  2  0  0  0  0  0  0
  187.1600  177.6490  140.7430 C   0  0  0  0  0  2  0  0  0  0  0  0
  187.4600  176.8710  142.0110 C   0  0  1  0  0  3  0  0  0  0  0  0
  185.1380  177.4440  141.8650 C   0  0  2  0  0  3  0  0  0  0  0  0
  185.8460  178.2610  140.8900 N   0  0  0  0  0  2  0  0  0  0  0  0
  184.5770  178.9110  143.6550 O   0  0  0  0  0  1  0  0  0  0  0  0
  182.8500  178.3810  142.2430 O   0  0  0  0  0  0  0  0  0  0  0  0
  184.1780  178.2810  142.6400 C   0  0  0  0  0  0  0  0  0  0  0  0
  189.4680  177.5450  147.4380 C   0  0  0  0  0  2  0  0  0  0  0  0
  185.6410  178.4770  147.5170 C   0  0  0  0  0  3  0  0  0  0  0  0
  187.1470  178.9900  148.0730 S   0  0  0  0  0  0  0  0  0  0  0  0
  187.9910  177.7130  147.3910 C   0  0  0  0  0  0  0  0  0  0  0  0
  185.8740  177.3060  146.7980 C   0  0  0  0  0  0  0  0  0  0  0  0
  184.8210  176.5850  146.1690 N   0  0  0  0  0  1  0  0  0  0  0  0
  187.1660  176.8860  146.7190 N   0  0  0  0  0  0  0  0  0  0  0  0
  1  6  1  0  0  0  0
  2  3  1  0  0  0  0
  4 18  1  6  0  0  0
  4  7  1  0  0  0  0
  5 29  1  0  0  0  0
  6  2  2  0  0  0  0
  7  5  1  0  0  0  0
  7  3  2  0  0  0  0
  8  1  2  0  0  0  0
  8  4  1  0  0  0  0
  9 14  2  0  0  0  0
  9 15  1  0  0  0  0
 10 16  1  0  0  0  0
 11 13  1  0  0  0  0
 13 12  1  0  0  0  0
 14 16  1  0  0  0  0
 15  6  1  0  0  0  0
 15 11  2  0  0  0  0
 16 13  2  0  0  0  0
 17  9  1  0  0  0  0
 20 19  2  0  0  0  0
 20 18  1  0  0  0  0
 22 25  1  0  0  0  0
 22 23  1  0  0  0  0
 23 21  1  0  0  0  0
 23 19  1  1  0  0  0
 24 28  1  1  0  0  0
 24 21  1  0  0  0  0
 25 24  1  0  0  0  0
 27 28  2  0  0  0  0
 28 26  1  0  0  0  0
 30 31  1  0  0  0  0
 32 29  1  0  0  0  0
 32 31  1  0  0  0  0
 33 30  2  0  0  0  0
 34 33  1  0  0  0  0
 35 33  1  0  0  0  0
 35 32  2  0  0  0  0
M  END
>  <MODEL>
4

>  <REMARK>
 VINA RESULT:      -7.1      3.451      6.803
  Name = 
  7 active torsions:
  status: ('A' for Active; 'I' for Inactive)
    1  A    between atoms: C_10  and  CA_25
    2  A    between atoms: C_11  and  C_13
    3  A    between atoms: C_11  and  C_20
    4  A    between atoms: C_15  and  C_19
    5  A    between atoms: C_16  and  C_24
    6  A    between atoms: N_17  and  C_19
    7  A    between atoms: C_22  and  C_31
                            x       y       z     vdW  Elec       q    Type
                         _______ _______ _______ _____ _____    ______ ____

>  <TORSDO>
F 7

$$$$
=
 OpenBabel11042416533D

 35 38  0  0  1  0  0  0  0  0999 V2000
  189.0180  175.8040  143.2680 N   0  0  0  0  0  0  0  0  0  0  0  0
  190.4850  176.7530  144.9730 C   0  0  0  0  0  3  0  0  0  0  0  0
  191.7250  176.3630  144.3570 N   0  0  0  0  0  0  0  0  0  0  0  0
  190.8830  174.2470  143.4920 C   0  0  1  0  0  3  0  0  0  0  0  0
  193.2450  175.0830  143.0810 N   0  0  0  0  0  2  0  0  0  0  0  0
  189.2480  176.4660  144.5260 C   0  0  0  0  0  0  0  0  0  0  0  0
  191.9490  175.2910  143.6550 C   0  0  0  0  0  0  0  0  0  0  0  0
  189.7230  174.8370  142.7670 C   0  0  0  0  0  3  0  0  0  0  0  0
  187.6080  176.5430  146.4920 C   0  0  0  0  0  0  0  0  0  0  0  0
  184.6770  178.6710  147.0710 N   0  0  0  0  0  1  0  0  0  0  0  0
  187.3570  178.0050  144.6250 N   0  0  0  0  0  0  0  0  0  0  0  0
  185.5390  179.6550  144.4710 C   0  0  0  0  0  1  0  0  0  0  0  0
  186.2580  178.5660  145.1920 C   0  0  0  0  0  0  0  0  0  0  0  0
  186.5070  177.1090  147.0530 N   0  0  0  0  0  0  0  0  0  0  0  0
  188.0620  177.0110  145.2350 C   0  0  0  0  0  0  0  0  0  0  0  0
  185.8260  178.1110  146.4410 C   0  0  0  0  0  0  0  0  0  0  0  0
  188.2460  175.4650  147.1680 N   0  0  0  0  0  1  0  0  0  0  0  0
  191.3850  173.0020  142.7640 C   0  0  0  0  0  2  0  0  0  0  0  0
  191.1880  172.0150  140.5120 C   0  0  0  0  0  3  0  0  0  0  0  0
  190.6910  172.8250  141.4530 C   0  0  0  0  0  3  0  0  0  0  0  0
  189.0940  172.3140  139.2070 C   0  0  0  0  0  2  0  0  0  0  0  0
  191.2170  172.6090  138.0890 C   0  0  0  0  0  2  0  0  0  0  0  0
  190.5200  171.8190  139.1820 C   0  0  1  0  0  3  0  0  0  0  0  0
  188.9890  173.2560  138.0290 C   0  0  2  0  0  3  0  0  0  0  0  0
  190.3330  173.6940  137.6840 N   0  0  0  0  0  2  0  0  0  0  0  0
  188.0980  174.8470  139.5610 O   0  0  0  0  0  1  0  0  0  0  0  0
  187.3920  175.0730  137.3910 O   0  0  0  0  0  0  0  0  0  0  0  0
  188.1360  174.4300  138.3740 C   0  0  0  0  0  0  0  0  0  0  0  0
  194.3300  176.0410  143.2270 C   0  0  0  0  0  2  0  0  0  0  0  0
  197.7870  174.4700  144.2750 C   0  0  0  0  0  3  0  0  0  0  0  0
  197.0440  175.3500  143.0450 S   0  0  0  0  0  0  0  0  0  0  0  0
  195.5310  175.3510  143.7670 C   0  0  0  0  0  0  0  0  0  0  0  0
  196.7960  174.2190  145.2220 C   0  0  0  0  0  0  0  0  0  0  0  0
  197.0620  173.4960  146.4180 N   0  0  0  0  0  1  0  0  0  0  0  0
  195.5560  174.7090  144.9510 N   0  0  0  0  0  0  0  0  0  0  0  0
  1  6  1  0  0  0  0
  3  2  1  0  0  0  0
  4 18  1  6  0  0  0
  4  7  1  0  0  0  0
  5 29  1  0  0  0  0
  5  7  1  0  0  0  0
  6  2  2  0  0  0  0
  6 15  1  0  0  0  0
  7  3  2  0  0  0  0
  8  1  2  0  0  0  0
  8  4  1  0  0  0  0
  9 14  1  0  0  0  0
  9 17  1  0  0  0  0
 11 13  2  0  0  0  0
 11 15  1  0  0  0  0
 12 13  1  0  0  0  0
 13 16  1  0  0  0  0
 15  9  2  0  0  0  0
 16 14  2  0  0  0  0
 16 10  1  0  0  0  0
 19 20  2  0  0  0  0
 20 18  1  0  0  0  0
 22 23  1  0  0  0  0
 23 21  1  0  0  0  0
 23 19  1  1  0  0  0
 24 28  1  1  0  0  0
 24 21  1  0  0  0  0
 25 24  1  0  0  0  0
 25 22  1  0  0  0  0
 27 28  2  0  0  0  0
 28 26  1  0  0  0  0
 29 32  1  0  0  0  0
 30 33  2  0  0  0  0
 31 32  1  0  0  0  0
 31 30  1  0  0  0  0
 32 35  2  0  0  0  0
 33 34  1  0  0  0  0
 35 33  1  0  0  0  0
M  END
>  <MODEL>
5

>  <REMARK>
 VINA RESULT:      -7.0      2.120      6.563
  Name = 
  7 active torsions:
  status: ('A' for Active; 'I' for Inactive)
    1  A    between atoms: C_10  and  CA_25
    2  A    between atoms: C_11  and  C_13
    3  A    between atoms: C_11  and  C_20
    4  A    between atoms: C_15  and  C_19
    5  A    between atoms: C_16  and  C_24
    6  A    between atoms: N_17  and  C_19
    7  A    between atoms: C_22  and  C_31
                            x       y       z     vdW  Elec       q    Type
                         _______ _______ _______ _____ _____    ______ ____

>  <TORSDO>
F 7

$$$$
=
 OpenBabel11042416533D

 35 38  0  0  1  0  0  0  0  0999 V2000
  191.1890  175.1990  144.0290 N   0  0  0  0  0  0  0  0  0  0  0  0
  191.1280  177.4080  142.9930 C   0  0  0  0  0  3  0  0  0  0  0  0
  189.6990  177.5600  143.0160 N   0  0  0  0  0  0  0  0  0  0  0  0
  189.2210  175.2110  142.5880 C   0  0  1  0  0  3  0  0  0  0  0  0
  187.4170  176.9530  142.9770 N   0  0  0  0  0  2  0  0  0  0  0  0
  191.8210  176.3270  143.3970 C   0  0  0  0  0  0  0  0  0  0  0  0
  188.8070  176.6220  142.8870 C   0  0  0  0  0  0  0  0  0  0  0  0
  190.0390  174.6880  143.7180 C   0  0  0  0  0  3  0  0  0  0  0  0
  194.1050  176.5550  144.5360 C   0  0  0  0  0  0  0  0  0  0  0  0
  197.4920  176.4160  143.1380 N   0  0  0  0  0  1  0  0  0  0  0  0
  193.9360  176.2010  142.1840 N   0  0  0  0  0  0  0  0  0  0  0  0
  195.9100  176.0340  140.7260 C   0  0  0  0  0  1  0  0  0  0  0  0
  195.2880  176.2140  142.0690 C   0  0  0  0  0  0  0  0  0  0  0  0
  195.4580  176.5670  144.4130 N   0  0  0  0  0  0  0  0  0  0  0  0
  193.3070  176.3550  143.3830 C   0  0  0  0  0  0  0  0  0  0  0  0
  196.0700  176.3950  143.2140 C   0  0  0  0  0  0  0  0  0  0  0  0
  193.5290  176.7880  145.8180 N   0  0  0  0  0  1  0  0  0  0  0  0
  188.0300  174.2910  142.3260 C   0  0  0  0  0  2  0  0  0  0  0  0
  189.2240  173.7930  140.2250 C   0  0  0  0  0  3  0  0  0  0  0  0
  188.1920  173.5490  141.0390 C   0  0  0  0  0  3  0  0  0  0  0  0
  188.4200  173.5390  137.8880 C   0  0  0  0  0  2  0  0  0  0  0  0
  190.7870  173.3390  138.3350 C   0  0  0  0  0  2  0  0  0  0  0  0
  189.4140  173.0710  138.9230 C   0  0  1  0  0  3  0  0  0  0  0  0
  189.2580  173.9150  136.6860 C   0  0  2  0  0  3  0  0  0  0  0  0
  190.6150  174.1660  137.1480 N   0  0  0  0  0  2  0  0  0  0  0  0
  189.3380  175.6690  135.0780 O   0  0  0  0  0  0  0  0  0  0  0  0
  187.4890  175.6650  136.4330 O   0  0  0  0  0  1  0  0  0  0  0  0
  188.7050  175.1300  136.0230 C   0  0  0  0  0  0  0  0  0  0  0  0
  186.9490  178.3070  143.2350 C   0  0  0  0  0  2  0  0  0  0  0  0
  184.4340  178.4680  146.2630 C   0  0  0  0  0  3  0  0  0  0  0  0
  184.5610  178.8160  144.6190 S   0  0  0  0  0  0  0  0  0  0  0  0
  186.1600  178.3280  144.4940 C   0  0  0  0  0  0  0  0  0  0  0  0
  185.6760  177.9640  146.6470 C   0  0  0  0  0  0  0  0  0  0  0  0
  185.9410  177.5520  147.9820 N   0  0  0  0  0  1  0  0  0  0  0  0
  186.6250  177.8780  145.6760 N   0  0  0  0  0  0  0  0  0  0  0  0
  2  3  1  0  0  0  0
  2  6  2  0  0  0  0
  4 18  1  1  0  0  0
  4  7  1  0  0  0  0
  4  8  1  0  0  0  0
  5 29  1  0  0  0  0
  6  1  1  0  0  0  0
  7  5  1  0  0  0  0
  7  3  2  0  0  0  0
  8  1  2  0  0  0  0
  9 17  1  0  0  0  0
 10 16  1  0  0  0  0
 11 15  1  0  0  0  0
 12 13  1  0  0  0  0
 13 11  2  0  0  0  0
 13 16  1  0  0  0  0
 14  9  1  0  0  0  0
 15  6  1  0  0  0  0
 15  9  2  0  0  0  0
 16 14  2  0  0  0  0
 19 20  2  0  0  0  0
 20 18  1  0  0  0  0
 21 23  1  0  0  0  0
 22 23  1  0  0  0  0
 23 19  1  1  0  0  0
 24 28  1  1  0  0  0
 24 25  1  0  0  0  0
 24 21  1  0  0  0  0
 25 22  1  0  0  0  0
 26 28  2  0  0  0  0
 28 27  1  0  0  0  0
 29 32  1  0  0  0  0
 30 33  2  0  0  0  0
 31 30  1  0  0  0  0
 32 31  1  0  0  0  0
 32 35  2  0  0  0  0
 33 34  1  0  0  0  0
 35 33  1  0  0  0  0
M  END
>  <MODEL>
6

>  <REMARK>
 VINA RESULT:      -7.0      3.434      7.952
  Name = 
  7 active torsions:
  status: ('A' for Active; 'I' for Inactive)
    1  A    between atoms: C_10  and  CA_25
    2  A    between atoms: C_11  and  C_13
    3  A    between atoms: C_11  and  C_20
    4  A    between atoms: C_15  and  C_19
    5  A    between atoms: C_16  and  C_24
    6  A    between atoms: N_17  and  C_19
    7  A    between atoms: C_22  and  C_31
                            x       y       z     vdW  Elec       q    Type
                         _______ _______ _______ _____ _____    ______ ____

>  <TORSDO>
F 7

$$$$
=
 OpenBabel11042416533D

 35 38  0  0  1  0  0  0  0  0999 V2000
  189.0150  175.6310  143.3980 N   0  0  0  0  0  0  0  0  0  0  0  0
  189.4910  176.7610  145.5090 C   0  0  0  0  0  3  0  0  0  0  0  0
  190.7880  176.1760  145.7180 N   0  0  0  0  0  0  0  0  0  0  0  0
  190.2060  174.0070  144.7760 C   0  0  1  0  0  3  0  0  0  0  0  0
  192.5260  174.5800  145.6300 N   0  0  0  0  0  2  0  0  0  0  0  0
  188.6490  176.4890  144.4950 C   0  0  0  0  0  0  0  0  0  0  0  0
  191.1750  174.9820  145.3770 C   0  0  0  0  0  0  0  0  0  0  0  0
  189.7140  174.5410  143.4750 C   0  0  0  0  0  3  0  0  0  0  0  0
  187.0280  178.0420  143.2610 C   0  0  0  0  0  0  0  0  0  0  0  0
  183.7190  179.2920  144.2270 N   0  0  0  0  0  1  0  0  0  0  0  0
  186.4890  177.1640  145.4110 N   0  0  0  0  0  0  0  0  0  0  0  0
  184.3780  177.6840  146.5610 C   0  0  0  0  0  1  0  0  0  0  0  0
  185.2980  177.8140  145.3950 C   0  0  0  0  0  0  0  0  0  0  0  0
  185.8340  178.6900  143.2520 N   0  0  0  0  0  0  0  0  0  0  0  0
  187.3710  177.2380  144.3750 C   0  0  0  0  0  0  0  0  0  0  0  0
  184.9590  178.5920  144.2850 C   0  0  0  0  0  0  0  0  0  0  0  0
  187.9180  178.2280  142.1640 N   0  0  0  0  0  1  0  0  0  0  0  0
  190.8110  172.6180  144.5830 C   0  0  0  0  0  2  0  0  0  0  0  0
  191.8310  171.9900  142.4260 C   0  0  0  0  0  3  0  0  0  0  0  0
  190.7270  172.1840  143.1560 C   0  0  0  0  0  3  0  0  0  0  0  0
  190.3660  171.2840  140.5480 C   0  0  0  0  0  2  0  0  0  0  0  0
  192.3030  172.6480  140.0670 C   0  0  0  0  0  2  0  0  0  0  0  0
  191.7830  171.5590  140.9890 C   0  0  1  0  0  3  0  0  0  0  0  0
  190.1800  172.1120  139.2960 C   0  0  2  0  0  3  0  0  0  0  0  0
  191.1750  173.1740  139.3110 N   0  0  0  0  0  2  0  0  0  0  0  0
  188.1540  172.8320  140.3190 O   0  0  0  0  0  1  0  0  0  0  0  0
  188.2470  173.0870  138.0420 O   0  0  0  0  0  0  0  0  0  0  0  0
  188.8070  172.6910  139.2520 C   0  0  0  0  0  0  0  0  0  0  0  0
  193.5070  175.4660  146.2380 C   0  0  0  0  0  2  0  0  0  0  0  0
  196.9180  174.8690  144.3600 C   0  0  0  0  0  3  0  0  0  0  0  0
  195.9430  174.2370  145.5810 S   0  0  0  0  0  0  0  0  0  0  0  0
  194.7680  175.4250  145.4520 C   0  0  0  0  0  0  0  0  0  0  0  0
  196.2590  176.0030  143.8880 C   0  0  0  0  0  0  0  0  0  0  0  0
  196.7890  176.8010  142.8370 N   0  0  0  0  0  1  0  0  0  0  0  0
  195.0730  176.3080  144.4800 N   0  0  0  0  0  0  0  0  0  0  0  0
  1  8  2  0  0  0  0
  1  6  1  0  0  0  0
  2  3  1  0  0  0  0
  4 18  1  6  0  0  0
  4  7  1  0  0  0  0
  5 29  1  0  0  0  0
  6  2  2  0  0  0  0
  7  5  1  0  0  0  0
  7  3  2  0  0  0  0
  8  4  1  0  0  0  0
  9 15  1  0  0  0  0
 10 16  1  0  0  0  0
 13 11  1  0  0  0  0
 13 12  1  0  0  0  0
 14  9  2  0  0  0  0
 14 16  1  0  0  0  0
 15  6  1  0  0  0  0
 15 11  2  0  0  0  0
 16 13  2  0  0  0  0
 17  9  1  0  0  0  0
 19 20  2  0  0  0  0
 20 18  1  0  0  0  0
 21 23  1  0  0  0  0
 22 23  1  0  0  0  0
 23 19  1  1  0  0  0
 24 28  1  1  0  0  0
 24 25  1  0  0  0  0
 24 21  1  0  0  0  0
 25 22  1  0  0  0  0
 27 28  2  0  0  0  0
 28 26  1  0  0  0  0
 30 31  1  0  0  0  0
 32 31  1  0  0  0  0
 32 29  1  0  0  0  0
 33 30  2  0  0  0  0
 33 35  1  0  0  0  0
 34 33  1  0  0  0  0
 35 32  2  0  0  0  0
M  END
>  <MODEL>
7

>  <REMARK>
 VINA RESULT:      -6.9      2.439      6.376
  Name = 
  7 active torsions:
  status: ('A' for Active; 'I' for Inactive)
    1  A    between atoms: C_10  and  CA_25
    2  A    between atoms: C_11  and  C_13
    3  A    between atoms: C_11  and  C_20
    4  A    between atoms: C_15  and  C_19
    5  A    between atoms: C_16  and  C_24
    6  A    between atoms: N_17  and  C_19
    7  A    between atoms: C_22  and  C_31
                            x       y       z     vdW  Elec       q    Type
                         _______ _______ _______ _____ _____    ______ ____

>  <TORSDO>
F 7

$$$$
=
 OpenBabel11042416533D

 35 38  0  0  1  0  0  0  0  0999 V2000
  189.0340  172.7420  141.6180 N   0  0  0  0  0  0  0  0  0  0  0  0
  191.3580  173.3280  141.1550 C   0  0  0  0  0  3  0  0  0  0  0  0
  191.7260  173.6220  142.5140 N   0  0  0  0  0  0  0  0  0  0  0  0
  189.5750  174.5870  143.1200 C   0  0  1  0  0  3  0  0  0  0  0  0
  191.4970  174.3240  144.7570 N   0  0  0  0  0  2  0  0  0  0  0  0
  190.1330  172.9790  140.7190 C   0  0  0  0  0  0  0  0  0  0  0  0
  190.9700  174.1370  143.4380 C   0  0  0  0  0  0  0  0  0  0  0  0
  188.7630  173.4130  142.6950 C   0  0  0  0  0  3  0  0  0  0  0  0
  190.0810  171.3220  138.7670 C   0  0  0  0  0  0  0  0  0  0  0  0
  189.3260  171.8400  135.2160 N   0  0  0  0  0  1  0  0  0  0  0  0
  189.6000  173.6320  138.4280 N   0  0  0  0  0  0  0  0  0  0  0  0
  189.0310  174.5550  136.2200 C   0  0  0  0  0  1  0  0  0  0  0  0
  189.3960  173.4120  137.1050 C   0  0  0  0  0  0  0  0  0  0  0  0
  189.8750  171.1080  137.4410 N   0  0  0  0  0  0  0  0  0  0  0  0
  189.9300  172.6290  139.2900 C   0  0  0  0  0  0  0  0  0  0  0  0
  189.5310  172.1150  136.5990 C   0  0  0  0  0  0  0  0  0  0  0  0
  190.4870  170.2270  139.5840 N   0  0  0  0  0  1  0  0  0  0  0  0
  188.9040  175.2980  144.2940 C   0  0  0  0  0  2  0  0  0  0  0  0
  187.2920  177.1270  144.6690 C   0  0  0  0  0  3  0  0  0  0  0  0
  188.1030  176.4710  143.8320 C   0  0  0  0  0  3  0  0  0  0  0  0
  186.6930  178.6240  142.7780 C   0  0  0  0  0  2  0  0  0  0  0  0
  184.9830  178.0250  144.3770 C   0  0  0  0  0  2  0  0  0  0  0  0
  186.4680  178.3050  144.2360 C   0  0  1  0  0  3  0  0  0  0  0  0
  185.3100  178.6660  142.1700 C   0  0  2  0  0  3  0  0  0  0  0  0
  184.4160  177.9150  143.0390 N   0  0  0  0  0  2  0  0  0  0  0  0
  184.2530  178.0080  140.1400 O   0  0  0  0  0  0  0  0  0  0  0  0
  186.5060  177.5960  140.2520 O   0  0  0  0  0  1  0  0  0  0  0  0
  185.3210  178.0710  140.8030 C   0  0  0  0  0  0  0  0  0  0  0  0
  192.8510  173.9370  145.1220 C   0  0  0  0  0  2  0  0  0  0  0  0
  195.0370  177.2040  145.3880 C   0  0  0  0  0  3  0  0  0  0  0  0
  193.7530  176.3990  146.1240 S   0  0  0  0  0  0  0  0  0  0  0  0
  193.7460  175.1220  145.0390 C   0  0  0  0  0  0  0  0  0  0  0  0
  195.4180  176.4130  144.3050 C   0  0  0  0  0  0  0  0  0  0  0  0
  196.4890  176.7790  143.4440 N   0  0  0  0  0  1  0  0  0  0  0  0
  194.7160  175.2640  144.1140 N   0  0  0  0  0  0  0  0  0  0  0  0
  1  8  2  0  0  0  0
  2  3  1  0  0  0  0
  3  7  2  0  0  0  0
  4  7  1  0  0  0  0
  4 18  1  1  0  0  0
  5 29  1  0  0  0  0
  6  2  2  0  0  0  0
  6  1  1  0  0  0  0
  7  5  1  0  0  0  0
  8  4  1  0  0  0  0
  9 15  1  0  0  0  0
  9 17  1  0  0  0  0
 10 16  1  0  0  0  0
 11 15  2  0  0  0  0
 12 13  1  0  0  0  0
 13 11  1  0  0  0  0
 14  9  2  0  0  0  0
 15  6  1  0  0  0  0
 16 13  2  0  0  0  0
 16 14  1  0  0  0  0
 20 18  1  0  0  0  0
 20 19  2  0  0  0  0
 21 23  1  0  0  0  0
 23 22  1  0  0  0  0
 23 19  1  6  0  0  0
 24 28  1  6  0  0  0
 24 21  1  0  0  0  0
 24 25  1  0  0  0  0
 25 22  1  0  0  0  0
 26 28  2  0  0  0  0
 27 28  1  0  0  0  0
 30 31  1  0  0  0  0
 32 29  1  0  0  0  0
 32 31  1  0  0  0  0
 33 30  2  0  0  0  0
 34 33  1  0  0  0  0
 35 33  1  0  0  0  0
 35 32  2  0  0  0  0
M  END
>  <MODEL>
8

>  <REMARK>
 VINA RESULT:      -6.9      2.123      2.989
  Name = 
  7 active torsions:
  status: ('A' for Active; 'I' for Inactive)
    1  A    between atoms: C_10  and  CA_25
    2  A    between atoms: C_11  and  C_13
    3  A    between atoms: C_11  and  C_20
    4  A    between atoms: C_15  and  C_19
    5  A    between atoms: C_16  and  C_24
    6  A    between atoms: N_17  and  C_19
    7  A    between atoms: C_22  and  C_31
                            x       y       z     vdW  Elec       q    Type
                         _______ _______ _______ _____ _____    ______ ____

>  <TORSDO>
F 7

$$$$
=
 OpenBabel11042416533D

 35 38  0  0  1  0  0  0  0  0999 V2000
  189.3030  175.3890  143.9180 N   0  0  0  0  0  0  0  0  0  0  0  0
  190.3990  177.0600  145.3210 C   0  0  0  0  0  3  0  0  0  0  0  0
  191.7490  176.6850  144.9970 N   0  0  0  0  0  0  0  0  0  0  0  0
  191.2820  174.3000  144.8400 C   0  0  1  0  0  3  0  0  0  0  0  0
  193.5680  175.3070  144.3900 N   0  0  0  0  0  2  0  0  0  0  0  0
  189.2780  176.4550  144.8860 C   0  0  0  0  0  0  0  0  0  0  0  0
  192.1900  175.4900  144.7330 C   0  0  0  0  0  0  0  0  0  0  0  0
  190.1770  174.4330  143.8500 C   0  0  0  0  0  3  0  0  0  0  0  0
  187.2390  176.6650  146.4220 C   0  0  0  0  0  0  0  0  0  0  0  0
  184.1990  178.6890  146.0880 N   0  0  0  0  0  1  0  0  0  0  0  0
  187.3720  177.8950  144.3850 N   0  0  0  0  0  0  0  0  0  0  0  0
  185.5920  179.4210  143.6400 C   0  0  0  0  0  1  0  0  0  0  0  0
  186.1610  178.4580  144.6260 C   0  0  0  0  0  0  0  0  0  0  0  0
  186.0260  177.2320  146.6570 N   0  0  0  0  0  0  0  0  0  0  0  0
  187.9490  177.0130  145.2480 C   0  0  0  0  0  0  0  0  0  0  0  0
  185.4730  178.1220  145.7960 C   0  0  0  0  0  0  0  0  0  0  0  0
  187.7380  175.7030  147.3460 N   0  0  0  0  0  1  0  0  0  0  0  0
  192.0190  172.9780  144.6370 C   0  0  0  0  0  2  0  0  0  0  0  0
  192.3410  171.9940  142.3970 C   0  0  0  0  0  3  0  0  0  0  0  0
  191.5240  172.2630  143.4210 C   0  0  0  0  0  3  0  0  0  0  0  0
  190.3690  171.2580  141.0770 C   0  0  0  0  0  2  0  0  0  0  0  0
  192.3510  171.9920  139.9030 C   0  0  0  0  0  2  0  0  0  0  0  0
  191.8760  171.2840  141.1590 C   0  0  1  0  0  3  0  0  0  0  0  0
  190.0450  171.8130  139.7080 C   0  0  2  0  0  3  0  0  0  0  0  0
  191.1900  172.5890  139.2570 N   0  0  0  0  0  2  0  0  0  0  0  0
  188.3830  173.0470  140.8840 O   0  0  0  0  0  1  0  0  0  0  0  0
  188.1910  173.0740  138.6000 O   0  0  0  0  0  0  0  0  0  0  0  0
  188.8280  172.6730  139.7680 C   0  0  0  0  0  0  0  0  0  0  0  0
  194.5070  176.4150  144.2990 C   0  0  0  0  0  2  0  0  0  0  0  0
  197.2510  175.9290  141.5150 C   0  0  0  0  0  3  0  0  0  0  0  0
  197.0590  176.3560  143.1340 S   0  0  0  0  0  0  0  0  0  0  0  0
  195.3890  176.2230  143.1180 C   0  0  0  0  0  0  0  0  0  0  0  0
  195.9690  175.6860  141.0260 C   0  0  0  0  0  0  0  0  0  0  0  0
  195.7380  175.2910  139.6790 N   0  0  0  0  0  1  0  0  0  0  0  0
  194.9420  175.8390  141.9050 N   0  0  0  0  0  0  0  0  0  0  0  0
  1  6  1  0  0  0  0
  3  2  1  0  0  0  0
  4 18  1  6  0  0  0
  5  7  1  0  0  0  0
  6 15  1  0  0  0  0
  6  2  2  0  0  0  0
  7  4  1  0  0  0  0
  7  3  2  0  0  0  0
  8  1  2  0  0  0  0
  8  4  1  0  0  0  0
  9 14  1  0  0  0  0
  9 17  1  0  0  0  0
 11 13  2  0  0  0  0
 11 15  1  0  0  0  0
 12 13  1  0  0  0  0
 13 16  1  0  0  0  0
 15  9  2  0  0  0  0
 16 10  1  0  0  0  0
 16 14  2  0  0  0  0
 19 20  2  0  0  0  0
 20 18  1  0  0  0  0
 21 23  1  0  0  0  0
 22 23  1  0  0  0  0
 23 19  1  1  0  0  0
 24 28  1  1  0  0  0
 24 21  1  0  0  0  0
 25 24  1  0  0  0  0
 25 22  1  0  0  0  0
 27 28  2  0  0  0  0
 28 26  1  0  0  0  0
 29  5  1  0  0  0  0
 30 31  1  0  0  0  0
 32 31  1  0  0  0  0
 32 29  1  0  0  0  0
 33 30  2  0  0  0  0
 33 35  1  0  0  0  0
 34 33  1  0  0  0  0
 35 32  2  0  0  0  0
M  END
>  <MODEL>
9

>  <REMARK>
 VINA RESULT:      -6.8      2.557      6.589
  Name = 
  7 active torsions:
  status: ('A' for Active; 'I' for Inactive)
    1  A    between atoms: C_10  and  CA_25
    2  A    between atoms: C_11  and  C_13
    3  A    between atoms: C_11  and  C_20
    4  A    between atoms: C_15  and  C_19
    5  A    between atoms: C_16  and  C_24
    6  A    between atoms: N_17  and  C_19
    7  A    between atoms: C_22  and  C_31
                            x       y       z     vdW  Elec       q    Type
                         _______ _______ _______ _____ _____    ______ ____

>  <TORSDO>
F 7

$$$$
