=
 OpenBabel11042418213D

 37 40  0  0  1  0  0  0  0  0999 V2000
  188.4460  175.3580  147.2750 C   0  0  0  0  0  2  0  0  0  0  0  0
  187.5750  177.5480  146.8570 O   0  0  0  0  0  1  0  0  0  0  0  0
  189.9250  177.1590  146.7460 C   0  0  0  0  0  2  0  0  0  0  0  0
  188.5400  176.6220  146.4520 C   0  0  1  0  0  0  0  0  0  0  0  0
  189.8750  174.8940  147.4140 C   0  0  0  0  0  2  0  0  0  0  0  0
  190.7350  176.0660  147.2900 N   0  0  0  0  0  0  0  0  0  0  0  0
  191.8730  175.7690  146.4090 C   0  0  0  0  0  2  0  0  0  0  0  0
  191.9330  176.6340  145.1740 C   0  0  0  0  0  3  0  0  0  0  0  0
  193.0310  177.0710  144.6290 N   0  0  0  0  0  0  0  0  0  0  0  0
  194.3760  176.8740  145.0940 C   0  0  0  0  0  0  0  0  0  0  0  0
  194.7300  177.2650  146.2400 O   0  0  0  0  0  0  0  0  0  0  0  0
  193.7640  172.5290  145.7460 O   0  0  0  0  0  0  0  0  0  0  0  0
  194.7670  175.6560  142.8760 C   0  0  0  0  0  2  0  0  0  0  0  0
  194.3270  173.2670  143.5270 C   0  0  1  0  0  3  0  0  0  0  0  0
  193.7060  174.5710  143.0480 C   0  0  0  0  0  2  0  0  0  0  0  0
  196.1730  175.0860  144.9240 C   0  0  0  0  0  2  0  0  0  0  0  0
  194.4620  173.2930  145.0260 C   0  0  0  0  0  0  0  0  0  0  0  0
  195.3400  174.1840  145.6480 O   0  0  0  0  0  0  0  0  0  0  0  0
  195.3590  176.1630  144.1980 C   0  0  2  0  0  3  0  0  0  0  0  0
  192.6070  172.4930  142.0550 O   0  0  0  0  0  1  0  0  0  0  0  0
  193.4990  172.0830  143.0450 C   0  0  0  0  0  2  0  0  0  0  0  0
  188.4250  176.3490  145.0150 N   0  0  0  0  0  2  0  0  0  0  0  0
  187.4570  177.2410  144.3850 C   0  0  0  0  0  2  0  0  0  0  0  0
  186.4140  176.4160  143.6510 C   0  0  0  0  0  2  0  0  0  0  0  0
  185.9180  177.1540  142.4530 C   0  0  0  0  0  0  0  0  0  0  0  0
  184.8860  177.9810  142.4420 C   0  0  0  0  0  0  0  0  0  0  0  0
  184.6770  178.5500  141.1900 O   0  0  0  0  0  0  0  0  0  0  0  0
  187.4540  176.4570  140.6170 N   0  0  0  0  0  2  0  0  0  0  0  0
  185.6500  178.0840  140.2620 C   0  0  0  0  0  3  0  0  0  0  0  0
  186.4640  177.1530  141.0940 C   0  0  0  0  0  0  0  0  0  0  0  0
  188.4290  174.2870  141.8720 C   0  0  0  0  0  2  0  0  0  0  0  0
  188.2600  175.5270  141.3430 C   0  0  0  0  0  0  0  0  0  0  0  0
  189.4390  175.1850  142.0380 N   0  0  0  0  0  0  0  0  0  0  0  0
  184.0800  178.2670  143.5860 N   0  0  0  0  0  2  0  0  0  0  0  0
  184.5260  179.2010  144.6050 C   0  0  0  0  0  2  0  0  0  0  0  0
  184.4470  177.5890  146.3640 O   0  0  0  0  0  1  0  0  0  0  0  0
  183.9350  178.8180  145.9490 C   0  0  0  0  0  2  0  0  0  0  0  0
  1  5  1  0  0  0  0
  3  6  1  0  0  0  0
  4  3  1  0  0  0  0
  4  2  1  1  0  0  0
  4  1  1  0  0  0  0
  6  5  1  0  0  0  0
  7  6  1  0  0  0  0
  8  7  1  0  0  0  0
  9 10  1  0  0  0  0
  9  8  2  0  0  0  0
 10 11  2  0  0  0  0
 13 15  1  0  0  0  0
 13 19  1  0  0  0  0
 14 21  1  1  0  0  0
 14 17  1  0  0  0  0
 15 14  1  0  0  0  0
 16 18  1  0  0  0  0
 17 18  1  0  0  0  0
 17 12  2  0  0  0  0
 19 16  1  0  0  0  0
 19 10  1  1  0  0  0
 20 21  1  0  0  0  0
 22  4  1  0  0  0  0
 23 22  1  0  0  0  0
 24 23  1  0  0  0  0
 25 24  1  0  0  0  0
 26 25  2  0  0  0  0
 26 34  1  0  0  0  0
 27 26  1  0  0  0  0
 28 30  1  0  0  0  0
 28 32  1  0  0  0  0
 29 30  2  0  0  0  0
 29 27  1  0  0  0  0
 30 25  1  0  0  0  0
 31 33  1  0  0  0  0
 32 31  1  0  0  0  0
 32 33  2  0  0  0  0
 34 35  1  0  0  0  0
 35 37  1  0  0  0  0
 37 36  1  0  0  0  0
M  END
>  <MODEL>
1

>  <REMARK>
 VINA RESULT:      -6.7      0.000      0.000
  Name = 
  13 active torsions:
  status: ('A' for Active; 'I' for Inactive)
    1  A    between atoms: C_1  and  C_13
    2  A    between atoms: C_1  and  C_17
    3  A    between atoms: C_7  and  C_33
    4  A    between atoms: C_11  and  C_18
    5  A    between atoms: C_12  and  C_22
    6  A    between atoms: C_15  and  N_26
    7  A    between atoms: C_17  and  N_26
    8  A    between atoms: C_18  and  N_19
    9  A    between atoms: N_19  and  C_20
   10  A    between atoms: C_22  and  N_30
   11  A    between atoms: C_24  and  C_28
   12  A    between atoms: C_24  and  N_35
   13  A    between atoms: C_25  and  N_29
                            x       y       z     vdW  Elec       q    Type
                         _______ _______ _______ _____ _____    ______ ____

>  <TORSDO>
F 13

$$$$
=
 OpenBabel11042418213D

 37 40  0  0  1  0  0  0  0  0999 V2000
  189.3940  172.1220  142.1490 C   0  0  0  0  0  2  0  0  0  0  0  0
  191.7590  172.4860  142.1080 O   0  0  0  0  0  1  0  0  0  0  0  0
  190.2710  174.2430  141.4830 C   0  0  0  0  0  2  0  0  0  0  0  0
  190.5320  173.0790  142.4180 C   0  0  1  0  0  0  0  0  0  0  0  0
  188.2690  173.0030  141.6650 C   0  0  0  0  0  2  0  0  0  0  0  0
  188.8650  174.1980  141.0770 N   0  0  0  0  0  0  0  0  0  0  0  0
  188.1500  175.3990  141.5310 C   0  0  0  0  0  2  0  0  0  0  0  0
  187.1450  175.1350  142.6260 C   0  0  0  0  0  3  0  0  0  0  0  0
  186.2340  175.9800  143.0140 N   0  0  0  0  0  0  0  0  0  0  0  0
  186.0240  177.3190  142.5370 C   0  0  0  0  0  0  0  0  0  0  0  0
  185.2040  177.5550  141.6070 O   0  0  0  0  0  0  0  0  0  0  0  0
  183.5080  178.7550  145.8970 O   0  0  0  0  0  0  0  0  0  0  0  0
  187.5610  178.0550  144.4460 C   0  0  0  0  0  2  0  0  0  0  0  0
  185.8960  178.7730  146.1880 C   0  0  1  0  0  3  0  0  0  0  0  0
  186.6780  177.6050  145.6070 C   0  0  0  0  0  2  0  0  0  0  0  0
  185.9290  179.7080  143.3960 C   0  0  0  0  0  2  0  0  0  0  0  0
  184.6390  178.9870  145.3880 C   0  0  0  0  0  0  0  0  0  0  0  0
  184.7020  179.4160  144.0610 O   0  0  0  0  0  0  0  0  0  0  0  0
  186.7800  178.4500  143.1860 C   0  0  2  0  0  3  0  0  0  0  0  0
  186.0380  177.2560  148.0330 O   0  0  0  0  0  1  0  0  0  0  0  0
  185.6040  178.5280  147.6630 C   0  0  0  0  0  2  0  0  0  0  0  0
  190.5250  173.5640  143.8020 N   0  0  0  0  0  2  0  0  0  0  0  0
  191.6790  173.0620  144.5410 C   0  0  0  0  0  2  0  0  0  0  0  0
  192.3450  174.2110  145.2780 C   0  0  0  0  0  2  0  0  0  0  0  0
  192.2320  175.4700  144.4870 C   0  0  0  0  0  0  0  0  0  0  0  0
  192.9740  175.7780  143.4360 C   0  0  0  0  0  0  0  0  0  0  0  0
  192.6210  177.0030  142.8800 O   0  0  0  0  0  0  0  0  0  0  0  0
  190.3960  176.7380  145.5990 N   0  0  0  0  0  2  0  0  0  0  0  0
  191.5400  177.5850  143.6000 C   0  0  0  0  0  3  0  0  0  0  0  0
  191.2900  176.5770  144.6690 C   0  0  0  0  0  0  0  0  0  0  0  0
  189.2900  174.9260  147.2510 C   0  0  0  0  0  2  0  0  0  0  0  0
  190.1180  175.8320  146.6690 C   0  0  0  0  0  0  0  0  0  0  0  0
  190.4620  175.2050  147.8860 N   0  0  0  0  0  0  0  0  0  0  0  0
  194.0150  174.9470  142.9220 N   0  0  0  0  0  2  0  0  0  0  0  0
  195.4090  175.3470  143.0080 C   0  0  0  0  0  2  0  0  0  0  0  0
  196.6730  174.7130  144.9320 O   0  0  0  0  0  1  0  0  0  0  0  0
  196.2170  174.2610  143.6930 C   0  0  0  0  0  2  0  0  0  0  0  0
  1  4  1  0  0  0  0
  3  4  1  0  0  0  0
  4  2  1  6  0  0  0
  4 22  1  0  0  0  0
  5  1  1  0  0  0  0
  6  3  1  0  0  0  0
  6  7  1  0  0  0  0
  6  5  1  0  0  0  0
  7  8  1  0  0  0  0
  8  9  2  0  0  0  0
 10  9  1  0  0  0  0
 11 10  2  0  0  0  0
 13 15  1  0  0  0  0
 14 21  1  1  0  0  0
 15 14  1  0  0  0  0
 16 18  1  0  0  0  0
 17 12  2  0  0  0  0
 17 14  1  0  0  0  0
 18 17  1  0  0  0  0
 19 10  1  1  0  0  0
 19 16  1  0  0  0  0
 19 13  1  0  0  0  0
 21 20  1  0  0  0  0
 22 23  1  0  0  0  0
 23 24  1  0  0  0  0
 25 30  1  0  0  0  0
 25 24  1  0  0  0  0
 26 25  2  0  0  0  0
 27 26  1  0  0  0  0
 27 29  1  0  0  0  0
 28 32  1  0  0  0  0
 29 30  2  0  0  0  0
 30 28  1  0  0  0  0
 31 33  1  0  0  0  0
 32 31  1  0  0  0  0
 32 33  2  0  0  0  0
 34 35  1  0  0  0  0
 34 26  1  0  0  0  0
 35 37  1  0  0  0  0
 37 36  1  0  0  0  0
M  END
>  <MODEL>
2

>  <REMARK>
 VINA RESULT:      -6.7      1.864      8.581
  Name = 
  13 active torsions:
  status: ('A' for Active; 'I' for Inactive)
    1  A    between atoms: C_1  and  C_13
    2  A    between atoms: C_1  and  C_17
    3  A    between atoms: C_7  and  C_33
    4  A    between atoms: C_11  and  C_18
    5  A    between atoms: C_12  and  C_22
    6  A    between atoms: C_15  and  N_26
    7  A    between atoms: C_17  and  N_26
    8  A    between atoms: C_18  and  N_19
    9  A    between atoms: N_19  and  C_20
   10  A    between atoms: C_22  and  N_30
   11  A    between atoms: C_24  and  C_28
   12  A    between atoms: C_24  and  N_35
   13  A    between atoms: C_25  and  N_29
                            x       y       z     vdW  Elec       q    Type
                         _______ _______ _______ _____ _____    ______ ____

>  <TORSDO>
F 13

$$$$
=
 OpenBabel11042418213D

 37 40  0  0  1  0  0  0  0  0999 V2000
  188.9470  172.1550  142.2270 C   0  0  0  0  0  2  0  0  0  0  0  0
  191.2970  172.5450  141.9970 O   0  0  0  0  0  1  0  0  0  0  0  0
  189.7480  174.3040  141.5560 C   0  0  0  0  0  2  0  0  0  0  0  0
  190.0970  173.1150  142.4280 C   0  0  1  0  0  0  0  0  0  0  0  0
  187.7780  173.0380  141.8670 C   0  0  0  0  0  2  0  0  0  0  0  0
  188.3120  174.2570  141.2690 N   0  0  0  0  0  0  0  0  0  0  0  0
  187.6290  175.4360  141.8200 C   0  0  0  0  0  2  0  0  0  0  0  0
  187.6170  176.6250  140.8910 C   0  0  0  0  0  3  0  0  0  0  0  0
  187.3940  177.8520  141.2630 N   0  0  0  0  0  0  0  0  0  0  0  0
  187.0740  178.3210  142.5840 C   0  0  0  0  0  0  0  0  0  0  0  0
  187.9340  178.2940  143.5070 O   0  0  0  0  0  0  0  0  0  0  0  0
  185.5490  176.2570  146.2030 O   0  0  0  0  0  0  0  0  0  0  0  0
  185.6430  179.9710  143.9180 C   0  0  0  0  0  2  0  0  0  0  0  0
  184.9560  178.5670  145.8880 C   0  0  1  0  0  3  0  0  0  0  0  0
  186.0230  179.4890  145.3170 C   0  0  0  0  0  2  0  0  0  0  0  0
  184.6370  177.7900  143.0650 C   0  0  0  0  0  2  0  0  0  0  0  0
  185.1890  177.1620  145.4010 C   0  0  0  0  0  0  0  0  0  0  0  0
  185.0410  176.8420  144.0490 O   0  0  0  0  0  0  0  0  0  0  0  0
  185.6970  178.8750  142.8460 C   0  0  2  0  0  3  0  0  0  0  0  0
  186.2190  178.9730  147.8790 O   0  0  0  0  0  1  0  0  0  0  0  0
  184.9460  178.6540  147.4090 C   0  0  0  0  0  2  0  0  0  0  0  0
  190.2040  173.5570  143.8230 N   0  0  0  0  0  2  0  0  0  0  0  0
  191.4380  174.3020  144.0460 C   0  0  0  0  0  2  0  0  0  0  0  0
  192.0060  173.9420  145.4080 C   0  0  0  0  0  2  0  0  0  0  0  0
  192.9900  174.9720  145.8490 C   0  0  0  0  0  0  0  0  0  0  0  0
  194.2730  174.9830  145.5320 C   0  0  0  0  0  0  0  0  0  0  0  0
  194.9390  176.0840  146.0590 O   0  0  0  0  0  0  0  0  0  0  0  0
  191.6520  176.5500  147.2410 N   0  0  0  0  0  2  0  0  0  0  0  0
  194.0400  176.9070  146.7950 C   0  0  0  0  0  3  0  0  0  0  0  0
  192.7530  176.1650  146.6650 C   0  0  0  0  0  0  0  0  0  0  0  0
  189.1240  175.8080  146.7020 C   0  0  0  0  0  2  0  0  0  0  0  0
  190.3910  175.8800  147.1860 C   0  0  0  0  0  0  0  0  0  0  0  0
  189.5240  174.8340  147.5660 N   0  0  0  0  0  0  0  0  0  0  0  0
  194.9070  173.9850  144.7310 N   0  0  0  0  0  2  0  0  0  0  0  0
  195.4890  172.7970  145.3310 C   0  0  0  0  0  2  0  0  0  0  0  0
  194.3240  170.7440  145.6870 O   0  0  0  0  0  1  0  0  0  0  0  0
  194.8890  171.5540  144.7010 C   0  0  0  0  0  2  0  0  0  0  0  0
  1  4  1  0  0  0  0
  3  4  1  0  0  0  0
  4  2  1  6  0  0  0
  4 22  1  0  0  0  0
  5  1  1  0  0  0  0
  6  3  1  0  0  0  0
  6  7  1  0  0  0  0
  6  5  1  0  0  0  0
  8  9  2  0  0  0  0
  8  7  1  0  0  0  0
  9 10  1  0  0  0  0
 10 11  2  0  0  0  0
 13 15  1  0  0  0  0
 14 21  1  1  0  0  0
 15 14  1  0  0  0  0
 16 18  1  0  0  0  0
 17 14  1  0  0  0  0
 17 12  2  0  0  0  0
 18 17  1  0  0  0  0
 19 10  1  1  0  0  0
 19 16  1  0  0  0  0
 19 13  1  0  0  0  0
 21 20  1  0  0  0  0
 22 23  1  0  0  0  0
 23 24  1  0  0  0  0
 24 25  1  0  0  0  0
 25 30  1  0  0  0  0
 26 25  2  0  0  0  0
 26 27  1  0  0  0  0
 27 29  1  0  0  0  0
 30 29  2  0  0  0  0
 30 28  1  0  0  0  0
 31 32  1  0  0  0  0
 31 33  1  0  0  0  0
 32 28  1  0  0  0  0
 32 33  2  0  0  0  0
 34 35  1  0  0  0  0
 34 26  1  0  0  0  0
 37 35  1  0  0  0  0
 37 36  1  0  0  0  0
M  END
>  <MODEL>
3

>  <REMARK>
 VINA RESULT:      -6.6      1.971      8.916
  Name = 
  13 active torsions:
  status: ('A' for Active; 'I' for Inactive)
    1  A    between atoms: C_1  and  C_13
    2  A    between atoms: C_1  and  C_17
    3  A    between atoms: C_7  and  C_33
    4  A    between atoms: C_11  and  C_18
    5  A    between atoms: C_12  and  C_22
    6  A    between atoms: C_15  and  N_26
    7  A    between atoms: C_17  and  N_26
    8  A    between atoms: C_18  and  N_19
    9  A    between atoms: N_19  and  C_20
   10  A    between atoms: C_22  and  N_30
   11  A    between atoms: C_24  and  C_28
   12  A    between atoms: C_24  and  N_35
   13  A    between atoms: C_25  and  N_29
                            x       y       z     vdW  Elec       q    Type
                         _______ _______ _______ _____ _____    ______ ____

>  <TORSDO>
F 13

$$$$
=
 OpenBabel11042418213D

 37 40  0  0  1  0  0  0  0  0999 V2000
  188.7300  173.8670  140.4040 C   0  0  0  0  0  2  0  0  0  0  0  0
  187.2670  173.5240  142.2670 O   0  0  0  0  0  1  0  0  0  0  0  0
  189.5980  173.8800  142.6300 C   0  0  0  0  0  2  0  0  0  0  0  0
  188.3730  174.2530  141.8210 C   0  0  1  0  0  0  0  0  0  0  0  0
  190.2360  173.9600  140.3580 C   0  0  0  0  0  2  0  0  0  0  0  0
  190.7330  173.7550  141.7140 N   0  0  0  0  0  0  0  0  0  0  0  0
  191.7730  174.7450  142.0290 C   0  0  0  0  0  2  0  0  0  0  0  0
  191.2810  175.9030  142.8640 C   0  0  0  0  0  3  0  0  0  0  0  0
  191.9690  176.4780  143.8070 N   0  0  0  0  0  0  0  0  0  0  0  0
  193.2790  176.1210  144.2770 C   0  0  0  0  0  0  0  0  0  0  0  0
  194.3010  176.3280  143.5670 O   0  0  0  0  0  0  0  0  0  0  0  0
  194.8780  172.0240  143.7010 O   0  0  0  0  0  0  0  0  0  0  0  0
  194.8400  175.5760  146.2310 C   0  0  0  0  0  2  0  0  0  0  0  0
  195.6080  173.2570  145.6330 C   0  0  1  0  0  3  0  0  0  0  0  0
  195.8600  174.7470  145.4550 C   0  0  0  0  0  2  0  0  0  0  0  0
  192.7960  174.1230  145.7690 C   0  0  0  0  0  2  0  0  0  0  0  0
  194.5670  172.7990  144.6450 C   0  0  0  0  0  0  0  0  0  0  0  0
  193.2480  173.2480  144.7390 O   0  0  0  0  0  0  0  0  0  0  0  0
  193.4200  175.5180  145.6510 C   0  0  2  0  0  3  0  0  0  0  0  0
  196.8660  171.3230  146.2660 O   0  0  0  0  0  1  0  0  0  0  0  0
  196.9130  172.4830  145.4940 C   0  0  0  0  0  2  0  0  0  0  0  0
  188.1300  175.6940  141.9510 N   0  0  0  0  0  2  0  0  0  0  0  0
  187.0390  175.9620  142.8820 C   0  0  0  0  0  2  0  0  0  0  0  0
  187.3550  177.2150  143.6820 C   0  0  0  0  0  2  0  0  0  0  0  0
  186.2190  177.5520  144.5870 C   0  0  0  0  0  0  0  0  0  0  0  0
  185.1310  178.2130  144.2290 C   0  0  0  0  0  0  0  0  0  0  0  0
  184.2270  178.3510  145.2770 O   0  0  0  0  0  0  0  0  0  0  0  0
  186.8810  176.5980  146.7940 N   0  0  0  0  0  2  0  0  0  0  0  0
  184.7280  177.7280  146.4540 C   0  0  0  0  0  3  0  0  0  0  0  0
  186.0500  177.2090  146.0010 C   0  0  0  0  0  0  0  0  0  0  0  0
  189.5180  176.2720  146.3790 C   0  0  0  0  0  2  0  0  0  0  0  0
  188.1720  176.0980  146.4410 C   0  0  0  0  0  0  0  0  0  0  0  0
  189.0130  175.0960  145.9120 N   0  0  0  0  0  0  0  0  0  0  0  0
  184.9010  178.7200  142.9140 N   0  0  0  0  0  2  0  0  0  0  0  0
  183.9980  178.0490  141.9960 C   0  0  0  0  0  2  0  0  0  0  0  0
  185.7040  178.0160  140.3260 O   0  0  0  0  0  1  0  0  0  0  0  0
  184.3780  178.3790  140.5650 C   0  0  0  0  0  2  0  0  0  0  0  0
  1  4  1  0  0  0  0
  4 22  1  0  0  0  0
  4  2  1  1  0  0  0
  4  3  1  0  0  0  0
  5  1  1  0  0  0  0
  5  6  1  0  0  0  0
  6  7  1  0  0  0  0
  6  3  1  0  0  0  0
  7  8  1  0  0  0  0
  8  9  2  0  0  0  0
  9 10  1  0  0  0  0
 11 10  2  0  0  0  0
 12 17  2  0  0  0  0
 14 21  1  6  0  0  0
 15 14  1  0  0  0  0
 15 13  1  0  0  0  0
 17 18  1  0  0  0  0
 17 14  1  0  0  0  0
 18 16  1  0  0  0  0
 19 10  1  6  0  0  0
 19 16  1  0  0  0  0
 19 13  1  0  0  0  0
 21 20  1  0  0  0  0
 22 23  1  0  0  0  0
 23 24  1  0  0  0  0
 24 25  1  0  0  0  0
 25 30  1  0  0  0  0
 26 25  2  0  0  0  0
 26 27  1  0  0  0  0
 27 29  1  0  0  0  0
 30 29  2  0  0  0  0
 30 28  1  0  0  0  0
 31 32  1  0  0  0  0
 32 28  1  0  0  0  0
 33 31  1  0  0  0  0
 33 32  2  0  0  0  0
 34 26  1  0  0  0  0
 35 34  1  0  0  0  0
 36 37  1  0  0  0  0
 37 35  1  0  0  0  0
M  END
>  <MODEL>
4

>  <REMARK>
 VINA RESULT:      -6.5      1.924      4.254
  Name = 
  13 active torsions:
  status: ('A' for Active; 'I' for Inactive)
    1  A    between atoms: C_1  and  C_13
    2  A    between atoms: C_1  and  C_17
    3  A    between atoms: C_7  and  C_33
    4  A    between atoms: C_11  and  C_18
    5  A    between atoms: C_12  and  C_22
    6  A    between atoms: C_15  and  N_26
    7  A    between atoms: C_17  and  N_26
    8  A    between atoms: C_18  and  N_19
    9  A    between atoms: N_19  and  C_20
   10  A    between atoms: C_22  and  N_30
   11  A    between atoms: C_24  and  C_28
   12  A    between atoms: C_24  and  N_35
   13  A    between atoms: C_25  and  N_29
                            x       y       z     vdW  Elec       q    Type
                         _______ _______ _______ _____ _____    ______ ____

>  <TORSDO>
F 13

$$$$
=
 OpenBabel11042418213D

 37 40  0  0  1  0  0  0  0  0999 V2000
  191.4340  172.1630  142.1930 C   0  0  0  0  0  2  0  0  0  0  0  0
  193.1110  173.0050  140.7080 O   0  0  0  0  0  1  0  0  0  0  0  0
  190.8330  172.9170  140.0060 C   0  0  0  0  0  2  0  0  0  0  0  0
  191.7970  173.1880  141.1440 C   0  0  1  0  0  0  0  0  0  0  0  0
  189.9760  171.8660  141.9400 C   0  0  0  0  0  2  0  0  0  0  0  0
  189.7050  172.1480  140.5340 N   0  0  0  0  0  0  0  0  0  0  0  0
  188.4490  172.8990  140.3990 C   0  0  0  0  0  2  0  0  0  0  0  0
  187.7940  173.2370  141.7160 C   0  0  0  0  0  3  0  0  0  0  0  0
  187.5780  174.4470  142.1450 N   0  0  0  0  0  0  0  0  0  0  0  0
  187.9440  175.6800  141.5060 C   0  0  0  0  0  0  0  0  0  0  0  0
  187.5920  175.9250  140.3190 O   0  0  0  0  0  0  0  0  0  0  0  0
  185.0880  178.8610  142.6950 O   0  0  0  0  0  0  0  0  0  0  0  0
  188.6230  176.5620  143.8110 C   0  0  0  0  0  2  0  0  0  0  0  0
  186.8460  178.2910  144.2350 C   0  0  1  0  0  3  0  0  0  0  0  0
  187.2190  176.8210  144.3540 C   0  0  0  0  0  2  0  0  0  0  0  0
  188.5110  178.1380  141.8100 C   0  0  0  0  0  2  0  0  0  0  0  0
  186.3030  178.5640  142.8570 C   0  0  0  0  0  0  0  0  0  0  0  0
  187.1260  178.4640  141.7330 O   0  0  0  0  0  0  0  0  0  0  0  0
  188.7360  176.6980  142.2870 C   0  0  2  0  0  3  0  0  0  0  0  0
  185.7850  177.6590  146.2840 O   0  0  0  0  0  1  0  0  0  0  0  0
  185.8580  178.6720  145.3290 C   0  0  0  0  0  2  0  0  0  0  0  0
  191.5970  174.5590  141.6270 N   0  0  0  0  0  2  0  0  0  0  0  0
  192.0510  174.7030  143.0060 C   0  0  0  0  0  2  0  0  0  0  0  0
  192.3890  176.1590  143.2770 C   0  0  0  0  0  2  0  0  0  0  0  0
  193.0660  176.2970  144.5980 C   0  0  0  0  0  0  0  0  0  0  0  0
  192.4480  176.4270  145.7600 C   0  0  0  0  0  0  0  0  0  0  0  0
  193.3370  176.5020  146.8270 O   0  0  0  0  0  0  0  0  0  0  0  0
  195.4990  176.2190  144.0580 N   0  0  0  0  0  2  0  0  0  0  0  0
  194.6800  176.4080  146.3650 C   0  0  0  0  0  3  0  0  0  0  0  0
  194.5010  176.2840  144.8900 C   0  0  0  0  0  0  0  0  0  0  0  0
  195.4640  175.3760  141.5050 C   0  0  0  0  0  2  0  0  0  0  0  0
  195.4070  176.1270  142.6360 C   0  0  0  0  0  0  0  0  0  0  0  0
  195.2000  176.7050  141.3650 N   0  0  0  0  0  0  0  0  0  0  0  0
  191.0290  176.4750  145.9090 N   0  0  0  0  0  2  0  0  0  0  0  0
  190.4060  176.3850  147.2180 C   0  0  0  0  0  2  0  0  0  0  0  0
  189.7280  174.3380  146.1910 O   0  0  0  0  0  1  0  0  0  0  0  0
  189.8240  174.9980  147.4170 C   0  0  0  0  0  2  0  0  0  0  0  0
  3  6  1  0  0  0  0
  3  4  1  0  0  0  0
  4  2  1  6  0  0  0
  4 22  1  0  0  0  0
  4  1  1  0  0  0  0
  5  1  1  0  0  0  0
  6  5  1  0  0  0  0
  7  6  1  0  0  0  0
  7  8  1  0  0  0  0
  8  9  2  0  0  0  0
 10  9  1  0  0  0  0
 11 10  2  0  0  0  0
 12 17  2  0  0  0  0
 13 15  1  0  0  0  0
 14 15  1  0  0  0  0
 14 21  1  1  0  0  0
 16 19  1  0  0  0  0
 17 14  1  0  0  0  0
 18 16  1  0  0  0  0
 18 17  1  0  0  0  0
 19 10  1  6  0  0  0
 19 13  1  0  0  0  0
 21 20  1  0  0  0  0
 22 23  1  0  0  0  0
 23 24  1  0  0  0  0
 24 25  1  0  0  0  0
 25 30  1  0  0  0  0
 25 26  2  0  0  0  0
 26 34  1  0  0  0  0
 26 27  1  0  0  0  0
 28 30  1  0  0  0  0
 29 27  1  0  0  0  0
 30 29  2  0  0  0  0
 31 32  1  0  0  0  0
 32 28  1  0  0  0  0
 33 31  1  0  0  0  0
 33 32  2  0  0  0  0
 34 35  1  0  0  0  0
 35 37  1  0  0  0  0
 36 37  1  0  0  0  0
M  END
>  <MODEL>
5

>  <REMARK>
 VINA RESULT:      -6.5      2.102      8.043
  Name = 
  13 active torsions:
  status: ('A' for Active; 'I' for Inactive)
    1  A    between atoms: C_1  and  C_13
    2  A    between atoms: C_1  and  C_17
    3  A    between atoms: C_7  and  C_33
    4  A    between atoms: C_11  and  C_18
    5  A    between atoms: C_12  and  C_22
    6  A    between atoms: C_15  and  N_26
    7  A    between atoms: C_17  and  N_26
    8  A    between atoms: C_18  and  N_19
    9  A    between atoms: N_19  and  C_20
   10  A    between atoms: C_22  and  N_30
   11  A    between atoms: C_24  and  C_28
   12  A    between atoms: C_24  and  N_35
   13  A    between atoms: C_25  and  N_29
                            x       y       z     vdW  Elec       q    Type
                         _______ _______ _______ _____ _____    ______ ____

>  <TORSDO>
F 13

$$$$
=
 OpenBabel11042418213D

 37 40  0  0  1  0  0  0  0  0999 V2000
  189.6000  174.1750  141.0120 C   0  0  0  0  0  2  0  0  0  0  0  0
  187.6430  174.6610  142.3010 O   0  0  0  0  0  1  0  0  0  0  0  0
  189.4080  173.3710  143.2540 C   0  0  0  0  0  2  0  0  0  0  0  0
  189.0340  174.5390  142.3650 C   0  0  1  0  0  0  0  0  0  0  0  0
  190.7660  173.2690  141.3240 C   0  0  0  0  0  2  0  0  0  0  0  0
  190.5040  172.6400  142.6150 N   0  0  0  0  0  0  0  0  0  0  0  0
  191.7130  172.6710  143.4500 C   0  0  0  0  0  2  0  0  0  0  0  0
  192.7760  171.6870  143.0240 C   0  0  0  0  0  3  0  0  0  0  0  0
  193.9510  171.5850  143.5740 N   0  0  0  0  0  0  0  0  0  0  0  0
  194.4940  172.3890  144.6350 C   0  0  0  0  0  0  0  0  0  0  0  0
  193.9960  172.3540  145.7940 O   0  0  0  0  0  0  0  0  0  0  0  0
  192.9450  176.4880  143.9410 O   0  0  0  0  0  0  0  0  0  0  0  0
  196.1950  174.0660  145.5530 C   0  0  0  0  0  2  0  0  0  0  0  0
  195.0610  176.2570  145.0630 C   0  0  1  0  0  3  0  0  0  0  0  0
  195.2020  175.1130  146.0550 C   0  0  0  0  0  2  0  0  0  0  0  0
  195.5320  174.1190  143.0920 C   0  0  0  0  0  2  0  0  0  0  0  0
  194.0530  175.8880  144.0070 C   0  0  0  0  0  0  0  0  0  0  0  0
  194.3120  174.8560  143.1020 O   0  0  0  0  0  0  0  0  0  0  0  0
  195.6920  173.2580  144.3500 C   0  0  2  0  0  3  0  0  0  0  0  0
  194.1220  177.2420  147.0310 O   0  0  0  0  0  1  0  0  0  0  0  0
  194.6860  177.5410  145.7910 C   0  0  0  0  0  2  0  0  0  0  0  0
  189.6380  175.7640  142.9000 N   0  0  0  0  0  2  0  0  0  0  0  0
  188.7220  176.8940  142.7930 C   0  0  0  0  0  2  0  0  0  0  0  0
  188.6970  177.6500  144.1100 C   0  0  0  0  0  2  0  0  0  0  0  0
  187.3940  177.4390  144.8050 C   0  0  0  0  0  0  0  0  0  0  0  0
  186.2280  177.9110  144.3960 C   0  0  0  0  0  0  0  0  0  0  0  0
  185.1810  177.5260  145.2270 O   0  0  0  0  0  0  0  0  0  0  0  0
  187.9720  176.0550  146.7970 N   0  0  0  0  0  2  0  0  0  0  0  0
  185.6620  176.7150  146.2930 C   0  0  0  0  0  3  0  0  0  0  0  0
  187.1270  176.6660  146.0200 C   0  0  0  0  0  0  0  0  0  0  0  0
  190.6210  176.5230  146.8180 C   0  0  0  0  0  2  0  0  0  0  0  0
  189.3880  175.9880  146.6170 C   0  0  0  0  0  0  0  0  0  0  0  0
  190.5480  175.3550  146.1210 N   0  0  0  0  0  0  0  0  0  0  0  0
  186.0570  178.7160  143.2300 N   0  0  0  0  0  2  0  0  0  0  0  0
  184.9280  178.5190  142.3380 C   0  0  0  0  0  2  0  0  0  0  0  0
  184.3410  177.9860  140.0860 O   0  0  0  0  0  1  0  0  0  0  0  0
  185.4240  178.1870  140.9430 C   0  0  0  0  0  2  0  0  0  0  0  0
  1  5  1  0  0  0  0
  1  4  1  0  0  0  0
  4  2  1  6  0  0  0
  4 22  1  0  0  0  0
  4  3  1  0  0  0  0
  5  6  1  0  0  0  0
  6  3  1  0  0  0  0
  6  7  1  0  0  0  0
  8  7  1  0  0  0  0
  8  9  2  0  0  0  0
  9 10  1  0  0  0  0
 10 11  2  0  0  0  0
 12 17  2  0  0  0  0
 13 15  1  0  0  0  0
 14 21  1  1  0  0  0
 14 15  1  0  0  0  0
 16 18  1  0  0  0  0
 16 19  1  0  0  0  0
 17 14  1  0  0  0  0
 18 17  1  0  0  0  0
 19 10  1  1  0  0  0
 19 13  1  0  0  0  0
 21 20  1  0  0  0  0
 23 22  1  0  0  0  0
 23 24  1  0  0  0  0
 24 25  1  0  0  0  0
 25 30  1  0  0  0  0
 26 25  2  0  0  0  0
 26 27  1  0  0  0  0
 27 29  1  0  0  0  0
 30 29  2  0  0  0  0
 30 28  1  0  0  0  0
 32 28  1  0  0  0  0
 32 31  1  0  0  0  0
 33 32  2  0  0  0  0
 33 31  1  0  0  0  0
 34 26  1  0  0  0  0
 35 34  1  0  0  0  0
 36 37  1  0  0  0  0
 37 35  1  0  0  0  0
M  END
>  <MODEL>
6

>  <REMARK>
 VINA RESULT:      -6.5      2.001      4.650
  Name = 
  13 active torsions:
  status: ('A' for Active; 'I' for Inactive)
    1  A    between atoms: C_1  and  C_13
    2  A    between atoms: C_1  and  C_17
    3  A    between atoms: C_7  and  C_33
    4  A    between atoms: C_11  and  C_18
    5  A    between atoms: C_12  and  C_22
    6  A    between atoms: C_15  and  N_26
    7  A    between atoms: C_17  and  N_26
    8  A    between atoms: C_18  and  N_19
    9  A    between atoms: N_19  and  C_20
   10  A    between atoms: C_22  and  N_30
   11  A    between atoms: C_24  and  C_28
   12  A    between atoms: C_24  and  N_35
   13  A    between atoms: C_25  and  N_29
                            x       y       z     vdW  Elec       q    Type
                         _______ _______ _______ _____ _____    ______ ____

>  <TORSDO>
F 13

$$$$
=
 OpenBabel11042418213D

 37 40  0  0  1  0  0  0  0  0999 V2000
  190.1750  174.1710  141.1560 C   0  0  0  0  0  2  0  0  0  0  0  0
  187.8690  173.5990  141.4420 O   0  0  0  0  0  1  0  0  0  0  0  0
  189.3090  173.7280  143.3390 C   0  0  0  0  0  2  0  0  0  0  0  0
  188.9280  174.3210  141.9980 C   0  0  1  0  0  0  0  0  0  0  0  0
  191.3050  174.1700  142.1560 C   0  0  0  0  0  2  0  0  0  0  0  0
  190.7700  173.6930  143.4270 N   0  0  0  0  0  0  0  0  0  0  0  0
  191.2490  174.5390  144.5290 C   0  0  0  0  0  2  0  0  0  0  0  0
  191.5970  175.9470  144.1130 C   0  0  0  0  0  3  0  0  0  0  0  0
  192.4810  176.6960  144.7050 N   0  0  0  0  0  0  0  0  0  0  0  0
  193.2570  176.3770  145.8720 C   0  0  0  0  0  0  0  0  0  0  0  0
  192.6980  176.1520  146.9810 O   0  0  0  0  0  0  0  0  0  0  0  0
  194.1130  172.6830  143.5710 O   0  0  0  0  0  0  0  0  0  0  0  0
  195.3170  176.7900  144.4110 C   0  0  0  0  0  2  0  0  0  0  0  0
  195.5420  174.5860  143.2200 C   0  0  1  0  0  3  0  0  0  0  0  0
  194.8850  175.9580  143.2050 C   0  0  0  0  0  2  0  0  0  0  0  0
  195.3170  174.9150  146.1380 C   0  0  0  0  0  2  0  0  0  0  0  0
  194.7380  173.6500  144.0840 C   0  0  0  0  0  0  0  0  0  0  0  0
  194.6470  173.8540  145.4620 O   0  0  0  0  0  0  0  0  0  0  0  0
  194.7570  176.2870  145.7480 C   0  0  2  0  0  3  0  0  0  0  0  0
  194.9730  174.8590  140.9120 O   0  0  0  0  0  1  0  0  0  0  0  0
  195.6990  174.0630  141.7980 C   0  0  0  0  0  2  0  0  0  0  0  0
  188.5580  175.7280  142.1820 N   0  0  0  0  0  2  0  0  0  0  0  0
  187.7430  175.9060  143.3790 C   0  0  0  0  0  2  0  0  0  0  0  0
  187.8980  177.3290  143.8890 C   0  0  0  0  0  2  0  0  0  0  0  0
  186.5970  177.8390  144.4070 C   0  0  0  0  0  0  0  0  0  0  0  0
  185.6910  178.4830  143.6910 C   0  0  0  0  0  0  0  0  0  0  0  0
  184.5610  178.8080  144.4340 O   0  0  0  0  0  0  0  0  0  0  0  0
  186.5930  177.1890  146.8150 N   0  0  0  0  0  2  0  0  0  0  0  0
  184.6930  178.3420  145.7720 C   0  0  0  0  0  3  0  0  0  0  0  0
  186.0430  177.7110  145.7580 C   0  0  0  0  0  0  0  0  0  0  0  0
  188.6650  175.4770  146.9080 C   0  0  0  0  0  2  0  0  0  0  0  0
  187.8890  176.5920  146.8850 C   0  0  0  0  0  0  0  0  0  0  0  0
  189.2940  176.6830  146.9800 N   0  0  0  0  0  0  0  0  0  0  0  0
  185.8480  178.8040  142.3080 N   0  0  0  0  0  2  0  0  0  0  0  0
  185.4040  177.8900  141.2700 C   0  0  0  0  0  2  0  0  0  0  0  0
  186.6790  176.6110  139.7080 O   0  0  0  0  0  1  0  0  0  0  0  0
  186.3830  177.9140  140.1100 C   0  0  0  0  0  2  0  0  0  0  0  0
  1  4  1  0  0  0  0
  1  5  1  0  0  0  0
  3  6  1  0  0  0  0
  4  2  1  6  0  0  0
  4 22  1  0  0  0  0
  4  3  1  0  0  0  0
  5  6  1  0  0  0  0
  6  7  1  0  0  0  0
  8  7  1  0  0  0  0
  8  9  2  0  0  0  0
  9 10  1  0  0  0  0
 10 11  2  0  0  0  0
 12 17  2  0  0  0  0
 13 19  1  0  0  0  0
 14 21  1  6  0  0  0
 14 17  1  0  0  0  0
 15 14  1  0  0  0  0
 15 13  1  0  0  0  0
 17 18  1  0  0  0  0
 18 16  1  0  0  0  0
 19 10  1  6  0  0  0
 19 16  1  0  0  0  0
 20 21  1  0  0  0  0
 22 23  1  0  0  0  0
 23 24  1  0  0  0  0
 24 25  1  0  0  0  0
 25 30  1  0  0  0  0
 26 25  2  0  0  0  0
 26 27  1  0  0  0  0
 27 29  1  0  0  0  0
 28 32  1  0  0  0  0
 30 29  2  0  0  0  0
 30 28  1  0  0  0  0
 31 33  1  0  0  0  0
 32 31  1  0  0  0  0
 32 33  2  0  0  0  0
 34 26  1  0  0  0  0
 35 34  1  0  0  0  0
 36 37  1  0  0  0  0
 37 35  1  0  0  0  0
M  END
>  <MODEL>
7

>  <REMARK>
 VINA RESULT:      -6.3      1.893      3.919
  Name = 
  13 active torsions:
  status: ('A' for Active; 'I' for Inactive)
    1  A    between atoms: C_1  and  C_13
    2  A    between atoms: C_1  and  C_17
    3  A    between atoms: C_7  and  C_33
    4  A    between atoms: C_11  and  C_18
    5  A    between atoms: C_12  and  C_22
    6  A    between atoms: C_15  and  N_26
    7  A    between atoms: C_17  and  N_26
    8  A    between atoms: C_18  and  N_19
    9  A    between atoms: N_19  and  C_20
   10  A    between atoms: C_22  and  N_30
   11  A    between atoms: C_24  and  C_28
   12  A    between atoms: C_24  and  N_35
   13  A    between atoms: C_25  and  N_29
                            x       y       z     vdW  Elec       q    Type
                         _______ _______ _______ _____ _____    ______ ____

>  <TORSDO>
F 13

$$$$
=
 OpenBabel11042418213D

 37 40  0  0  1  0  0  0  0  0999 V2000
  190.6080  172.2600  144.6420 C   0  0  0  0  0  2  0  0  0  0  0  0
  192.3380  170.7040  144.0820 O   0  0  0  0  0  1  0  0  0  0  0  0
  191.3480  172.0500  142.3800 C   0  0  0  0  0  2  0  0  0  0  0  0
  191.8390  171.9810  143.8110 C   0  0  1  0  0  0  0  0  0  0  0  0
  189.7320  173.1000  143.7450 C   0  0  0  0  0  2  0  0  0  0  0  0
  190.0800  172.7830  142.3640 N   0  0  0  0  0  0  0  0  0  0  0  0
  190.1970  174.0160  141.5730 C   0  0  0  0  0  2  0  0  0  0  0  0
  189.1190  174.1780  140.5300 C   0  0  0  0  0  3  0  0  0  0  0  0
  188.0750  174.9450  140.6590 N   0  0  0  0  0  0  0  0  0  0  0  0
  187.7080  175.7380  141.8000 C   0  0  0  0  0  0  0  0  0  0  0  0
  187.0690  175.2320  142.7630 O   0  0  0  0  0  0  0  0  0  0  0  0
  183.9810  178.1140  142.1820 O   0  0  0  0  0  0  0  0  0  0  0  0
  188.1960  177.7880  143.2540 C   0  0  0  0  0  2  0  0  0  0  0  0
  185.9440  178.9060  143.3240 C   0  0  1  0  0  3  0  0  0  0  0  0
  186.8460  177.8620  143.9650 C   0  0  0  0  0  2  0  0  0  0  0  0
  187.3420  178.0730  140.8690 C   0  0  0  0  0  2  0  0  0  0  0  0
  185.2280  178.2990  142.1460 C   0  0  0  0  0  0  0  0  0  0  0  0
  185.9330  177.9040  141.0080 O   0  0  0  0  0  0  0  0  0  0  0  0
  188.1240  177.1870  141.8440 C   0  0  2  0  0  3  0  0  0  0  0  0
  185.1060  178.7800  145.5610 O   0  0  0  0  0  1  0  0  0  0  0  0
  184.9770  179.4700  144.3570 C   0  0  0  0  0  2  0  0  0  0  0  0
  192.8770  172.9970  144.0130 N   0  0  0  0  0  2  0  0  0  0  0  0
  193.2650  173.0830  145.4170 C   0  0  0  0  0  2  0  0  0  0  0  0
  193.7230  174.4970  145.7290 C   0  0  0  0  0  2  0  0  0  0  0  0
  192.9930  175.4790  144.8770 C   0  0  0  0  0  0  0  0  0  0  0  0
  191.7770  175.9400  145.1170 C   0  0  0  0  0  0  0  0  0  0  0  0
  191.3660  176.8700  144.1690 O   0  0  0  0  0  0  0  0  0  0  0  0
  194.5750  175.9820  143.0170 N   0  0  0  0  0  2  0  0  0  0  0  0
  192.3850  177.0760  143.1970 C   0  0  0  0  0  3  0  0  0  0  0  0
  193.4570  176.1480  143.6590 C   0  0  0  0  0  0  0  0  0  0  0  0
  196.2720  173.9050  143.2230 C   0  0  0  0  0  2  0  0  0  0  0  0
  195.6340  175.0940  143.3810 C   0  0  0  0  0  0  0  0  0  0  0  0
  196.7790  174.7740  144.1420 N   0  0  0  0  0  0  0  0  0  0  0  0
  190.9760  175.5370  146.2290 N   0  0  0  0  0  2  0  0  0  0  0  0
  189.8210  176.3130  146.6440 C   0  0  0  0  0  2  0  0  0  0  0  0
  187.4710  176.1470  147.0380 O   0  0  0  0  0  1  0  0  0  0  0  0
  188.5530  175.5060  146.4320 C   0  0  0  0  0  2  0  0  0  0  0  0
  3  4  1  0  0  0  0
  4 22  1  0  0  0  0
  4  2  1  1  0  0  0
  4  1  1  0  0  0  0
  5  1  1  0  0  0  0
  6  3  1  0  0  0  0
  6  5  1  0  0  0  0
  7  6  1  0  0  0  0
  8  9  2  0  0  0  0
  8  7  1  0  0  0  0
  9 10  1  0  0  0  0
 10 11  2  0  0  0  0
 13 15  1  0  0  0  0
 14 15  1  0  0  0  0
 14 21  1  1  0  0  0
 16 18  1  0  0  0  0
 16 19  1  0  0  0  0
 17 12  2  0  0  0  0
 17 14  1  0  0  0  0
 18 17  1  0  0  0  0
 19 10  1  1  0  0  0
 19 13  1  0  0  0  0
 21 20  1  0  0  0  0
 22 23  1  0  0  0  0
 23 24  1  0  0  0  0
 25 26  2  0  0  0  0
 25 24  1  0  0  0  0
 26 34  1  0  0  0  0
 27 26  1  0  0  0  0
 28 32  1  0  0  0  0
 28 30  1  0  0  0  0
 29 30  2  0  0  0  0
 29 27  1  0  0  0  0
 30 25  1  0  0  0  0
 31 32  1  0  0  0  0
 31 33  1  0  0  0  0
 32 33  2  0  0  0  0
 34 35  1  0  0  0  0
 37 35  1  0  0  0  0
 37 36  1  0  0  0  0
M  END
>  <MODEL>
8

>  <REMARK>
 VINA RESULT:      -6.3      2.132      7.856
  Name = 
  13 active torsions:
  status: ('A' for Active; 'I' for Inactive)
    1  A    between atoms: C_1  and  C_13
    2  A    between atoms: C_1  and  C_17
    3  A    between atoms: C_7  and  C_33
    4  A    between atoms: C_11  and  C_18
    5  A    between atoms: C_12  and  C_22
    6  A    between atoms: C_15  and  N_26
    7  A    between atoms: C_17  and  N_26
    8  A    between atoms: C_18  and  N_19
    9  A    between atoms: N_19  and  C_20
   10  A    between atoms: C_22  and  N_30
   11  A    between atoms: C_24  and  C_28
   12  A    between atoms: C_24  and  N_35
   13  A    between atoms: C_25  and  N_29
                            x       y       z     vdW  Elec       q    Type
                         _______ _______ _______ _____ _____    ______ ____

>  <TORSDO>
F 13

$$$$
=
 OpenBabel11042418213D

 37 40  0  0  1  0  0  0  0  0999 V2000
  190.2260  171.6410  143.3370 C   0  0  0  0  0  2  0  0  0  0  0  0
  192.3450  170.8580  142.5470 O   0  0  0  0  0  1  0  0  0  0  0  0
  191.8130  173.1800  142.4300 C   0  0  0  0  0  2  0  0  0  0  0  0
  191.7120  171.8990  143.2310 C   0  0  1  0  0  0  0  0  0  0  0  0
  189.5990  173.0100  143.2360 C   0  0  0  0  0  2  0  0  0  0  0  0
  190.5190  173.8630  142.4900 N   0  0  0  0  0  0  0  0  0  0  0  0
  190.6470  175.1700  143.1500 C   0  0  0  0  0  2  0  0  0  0  0  0
  190.0420  176.3110  142.3700 C   0  0  0  0  0  3  0  0  0  0  0  0
  189.2380  177.2050  142.8690 N   0  0  0  0  0  0  0  0  0  0  0  0
  188.7320  177.2720  144.2120 C   0  0  0  0  0  0  0  0  0  0  0  0
  189.3060  177.9770  145.0870 O   0  0  0  0  0  0  0  0  0  0  0  0
  185.3710  180.1540  143.9300 O   0  0  0  0  0  0  0  0  0  0  0  0
  186.6680  176.0310  143.3450 C   0  0  0  0  0  2  0  0  0  0  0  0
  184.9660  177.8810  143.2560 C   0  0  1  0  0  3  0  0  0  0  0  0
  186.0820  177.1660  142.5080 C   0  0  0  0  0  2  0  0  0  0  0  0
  186.6090  177.2080  145.6060 C   0  0  0  0  0  2  0  0  0  0  0  0
  185.5560  178.9280  144.1620 C   0  0  0  0  0  0  0  0  0  0  0  0
  186.3430  178.5640  145.2570 O   0  0  0  0  0  0  0  0  0  0  0  0
  187.4800  176.5070  144.5570 C   0  0  2  0  0  3  0  0  0  0  0  0
  184.5340  178.5450  140.9990 O   0  0  0  0  0  1  0  0  0  0  0  0
  183.9660  178.4700  142.2700 C   0  0  0  0  0  2  0  0  0  0  0  0
  192.3270  172.1040  144.5470 N   0  0  0  0  0  2  0  0  0  0  0  0
  193.6570  172.6900  144.4210 C   0  0  0  0  0  2  0  0  0  0  0  0
  194.0890  173.2560  145.7630 C   0  0  0  0  0  2  0  0  0  0  0  0
  193.9930  174.7440  145.7530 C   0  0  0  0  0  0  0  0  0  0  0  0
  192.9430  175.4420  146.1520 C   0  0  0  0  0  0  0  0  0  0  0  0
  193.1520  176.8140  146.0610 O   0  0  0  0  0  0  0  0  0  0  0  0
  196.1900  175.5010  144.8500 N   0  0  0  0  0  2  0  0  0  0  0  0
  194.4580  177.0870  145.5650 C   0  0  0  0  0  3  0  0  0  0  0  0
  195.0100  175.7180  145.3510 C   0  0  0  0  0  0  0  0  0  0  0  0
  197.3460  173.0810  145.0550 C   0  0  0  0  0  2  0  0  0  0  0  0
  196.7750  174.2230  144.5910 C   0  0  0  0  0  0  0  0  0  0  0  0
  197.1940  173.2060  143.7080 N   0  0  0  0  0  0  0  0  0  0  0  0
  191.7320  174.8570  146.6330 N   0  0  0  0  0  2  0  0  0  0  0  0
  190.8680  175.5700  147.5590 C   0  0  0  0  0  2  0  0  0  0  0  0
  189.3540  174.1680  146.3570 O   0  0  0  0  0  1  0  0  0  0  0  0
  189.4310  175.1190  147.3750 C   0  0  0  0  0  2  0  0  0  0  0  0
  3  6  1  0  0  0  0
  3  4  1  0  0  0  0
  4  2  1  6  0  0  0
  4  1  1  0  0  0  0
  4 22  1  0  0  0  0
  5  1  1  0  0  0  0
  6  7  1  0  0  0  0
  6  5  1  0  0  0  0
  8  9  2  0  0  0  0
  8  7  1  0  0  0  0
  9 10  1  0  0  0  0
 10 11  2  0  0  0  0
 12 17  2  0  0  0  0
 13 19  1  0  0  0  0
 14 21  1  6  0  0  0
 14 17  1  0  0  0  0
 15 14  1  0  0  0  0
 15 13  1  0  0  0  0
 17 18  1  0  0  0  0
 18 16  1  0  0  0  0
 19 10  1  6  0  0  0
 19 16  1  0  0  0  0
 20 21  1  0  0  0  0
 23 22  1  0  0  0  0
 23 24  1  0  0  0  0
 25 24  1  0  0  0  0
 25 26  2  0  0  0  0
 26 34  1  0  0  0  0
 27 26  1  0  0  0  0
 28 30  1  0  0  0  0
 29 27  1  0  0  0  0
 30 29  2  0  0  0  0
 30 25  1  0  0  0  0
 32 28  1  0  0  0  0
 32 31  1  0  0  0  0
 33 32  2  0  0  0  0
 33 31  1  0  0  0  0
 34 35  1  0  0  0  0
 36 37  1  0  0  0  0
 37 35  1  0  0  0  0
M  END
>  <MODEL>
9

>  <REMARK>
 VINA RESULT:      -6.2      2.226      8.260
  Name = 
  13 active torsions:
  status: ('A' for Active; 'I' for Inactive)
    1  A    between atoms: C_1  and  C_13
    2  A    between atoms: C_1  and  C_17
    3  A    between atoms: C_7  and  C_33
    4  A    between atoms: C_11  and  C_18
    5  A    between atoms: C_12  and  C_22
    6  A    between atoms: C_15  and  N_26
    7  A    between atoms: C_17  and  N_26
    8  A    between atoms: C_18  and  N_19
    9  A    between atoms: N_19  and  C_20
   10  A    between atoms: C_22  and  N_30
   11  A    between atoms: C_24  and  C_28
   12  A    between atoms: C_24  and  N_35
   13  A    between atoms: C_25  and  N_29
                            x       y       z     vdW  Elec       q    Type
                         _______ _______ _______ _____ _____    ______ ____

>  <TORSDO>
F 13

$$$$
