=
 OpenBabel11042417223D

 26 30  0  0  1  0  0  0  0  0999 V2000
  187.2890  176.4020  143.6770 C   0  0  0  0  0  0  0  0  0  0  0  0
  187.9810  174.2540  141.0170 C   0  0  0  0  0  3  0  0  0  0  0  0
  186.8010  175.6930  142.6200 N   0  0  0  0  0  0  0  0  0  0  0  0
  187.8960  175.1030  142.1130 C   0  0  0  0  0  0  0  0  0  0  0  0
  189.0000  175.4380  142.8300 C   0  0  0  0  0  0  0  0  0  0  0  0
  190.3410  174.0920  141.3910 C   0  0  0  0  0  3  0  0  0  0  0  0
  189.2140  173.7670  140.6820 N   0  0  0  0  0  0  0  0  0  0  0  0
  190.2640  174.9510  142.5030 C   0  0  0  0  0  3  0  0  0  0  0  0
  188.6400  176.2660  143.8300 N   0  0  0  0  0  0  0  0  0  0  0  0
  192.3410  175.4080  146.5800 C   0  0  0  0  0  2  0  0  0  0  0  0
  191.8150  177.1130  145.0870 C   0  0  1  0  0  3  0  0  0  0  0  0
  191.5120  175.7430  145.4300 N   0  0  2  0  0  0  0  0  0  0  0  0
  190.1010  175.7970  145.7710 C   0  0  0  0  0  2  0  0  0  0  0  0
  194.0240  176.0780  144.9070 O   0  0  0  0  0  0  0  0  0  0  0  0
  194.1990  176.8430  147.0720 F   0  0  0  0  0  0  0  0  0  0  0  0
  193.8190  175.7690  146.2830 C   0  0  0  0  0  0  0  0  0  0  0  0
  193.2170  177.1760  144.4840 C   0  0  0  0  0  2  0  0  0  0  0  0
  190.6790  177.5940  144.2290 C   0  0  0  0  0  2  0  0  0  0  0  0
  189.4960  176.8650  144.8560 C   0  0  1  0  0  3  0  0  0  0  0  0
  194.6080  174.6850  146.6160 F   0  0  0  0  0  0  0  0  0  0  0  0
  185.7230  176.6080  145.6050 C   0  0  0  0  0  3  0  0  0  0  0  0
  186.2170  178.5930  144.3200 C   0  0  0  0  0  3  0  0  0  0  0  0
  184.8800  177.3530  146.4340 C   0  0  0  0  0  3  0  0  0  0  0  0
  184.7050  178.7200  146.2060 C   0  0  0  0  0  3  0  0  0  0  0  0
  186.4020  177.2200  144.5390 C   0  0  0  0  0  0  0  0  0  0  0  0
  185.3740  179.3390  145.1470 C   0  0  0  0  0  3  0  0  0  0  0  0
  1  9  1  0  0  0  0
  1 25  1  0  0  0  0
  2  4  1  0  0  0  0
  3  1  2  0  0  0  0
  4  3  1  0  0  0  0
  4  5  2  0  0  0  0
  5  9  1  0  0  0  0
  6  8  2  0  0  0  0
  7  2  2  0  0  0  0
  7  6  1  0  0  0  0
  8  5  1  0  0  0  0
 11 18  1  6  0  0  0
 11 12  1  0  0  0  0
 12 13  1  1  0  0  0
 12 10  1  0  0  0  0
 14 16  1  0  0  0  0
 16 10  1  0  0  0  0
 16 20  1  0  0  0  0
 16 15  1  0  0  0  0
 17 14  1  0  0  0  0
 17 11  1  0  0  0  0
 18 19  1  0  0  0  0
 19  9  1  6  0  0  0
 19 13  1  0  0  0  0
 21 23  1  0  0  0  0
 22 25  1  0  0  0  0
 22 26  2  0  0  0  0
 24 23  2  0  0  0  0
 25 21  2  0  0  0  0
 26 24  1  0  0  0  0
M  END
>  <MODEL>
1

>  <REMARK>
 VINA RESULT:      -7.8      0.000      0.000
  Name = 
  2 active torsions:
  status: ('A' for Active; 'I' for Inactive)
    1  A    between atoms: C_1  and  C_19
    2  A    between atoms: C_21  and  N_26
                            x       y       z     vdW  Elec       q    Type
                         _______ _______ _______ _____ _____    ______ ____

>  <TORSDO>
F 2

$$$$
=
 OpenBabel11042417223D

 26 30  0  0  1  0  0  0  0  0999 V2000
  187.5440  177.2170  146.1580 C   0  0  0  0  0  0  0  0  0  0  0  0
  184.3820  178.6800  146.3090 C   0  0  0  0  0  3  0  0  0  0  0  0
  186.5240  177.6610  146.9450 N   0  0  0  0  0  0  0  0  0  0  0  0
  185.6240  178.1140  146.0560 C   0  0  0  0  0  0  0  0  0  0  0  0
  186.0780  177.9530  144.7860 C   0  0  0  0  0  0  0  0  0  0  0  0
  184.0670  178.9190  143.9480 C   0  0  0  0  0  3  0  0  0  0  0  0
  183.6290  179.0720  145.2380 N   0  0  0  0  0  0  0  0  0  0  0  0
  185.3240  178.3470  143.6820 C   0  0  0  0  0  3  0  0  0  0  0  0
  187.2990  177.3860  144.8240 N   0  0  0  0  0  0  0  0  0  0  0  0
  191.7640  177.3190  143.3860 C   0  0  0  0  0  2  0  0  0  0  0  0
  190.0900  175.7070  143.4910 C   0  0  1  0  0  3  0  0  0  0  0  0
  190.5090  176.9740  144.0420 N   0  0  2  0  0  0  0  0  0  0  0  0
  189.4300  177.8680  143.6610 C   0  0  0  0  0  2  0  0  0  0  0  0
  192.2900  175.1290  144.3900 O   0  0  0  0  0  0  0  0  0  0  0  0
  192.9300  175.5760  142.2220 F   0  0  0  0  0  0  0  0  0  0  0  0
  192.7490  176.1270  143.4820 C   0  0  0  0  0  0  0  0  0  0  0  0
  191.0180  174.6090  144.0060 C   0  0  0  0  0  2  0  0  0  0  0  0
  188.6270  175.5720  143.8110 C   0  0  0  0  0  2  0  0  0  0  0  0
  188.1570  177.0180  143.6960 C   0  0  1  0  0  3  0  0  0  0  0  0
  193.9670  176.6030  143.9260 F   0  0  0  0  0  0  0  0  0  0  0  0
  188.8250  175.2360  146.9620 C   0  0  0  0  0  3  0  0  0  0  0  0
  189.8850  177.4030  147.0790 C   0  0  0  0  0  3  0  0  0  0  0  0
  189.9680  174.6460  147.5100 C   0  0  0  0  0  3  0  0  0  0  0  0
  191.0700  175.4360  147.8430 C   0  0  0  0  0  3  0  0  0  0  0  0
  188.7710  176.6210  146.7400 C   0  0  0  0  0  0  0  0  0  0  0  0
  191.0280  176.8160  147.6270 C   0  0  0  0  0  3  0  0  0  0  0  0
  1 25  1  0  0  0  0
  1  3  2  0  0  0  0
  4  2  1  0  0  0  0
  4  3  1  0  0  0  0
  5  9  1  0  0  0  0
  5  4  2  0  0  0  0
  6  7  1  0  0  0  0
  7  2  2  0  0  0  0
  8  6  2  0  0  0  0
  8  5  1  0  0  0  0
  9  1  1  0  0  0  0
 10 16  1  0  0  0  0
 11 18  1  1  0  0  0
 11 17  1  0  0  0  0
 11 12  1  0  0  0  0
 12 10  1  6  0  0  0
 13 12  1  0  0  0  0
 15 16  1  0  0  0  0
 16 20  1  0  0  0  0
 16 14  1  0  0  0  0
 17 14  1  0  0  0  0
 19 13  1  1  0  0  0
 19 18  1  0  0  0  0
 19  9  1  0  0  0  0
 21 23  1  0  0  0  0
 22 26  2  0  0  0  0
 23 24  2  0  0  0  0
 25 21  2  0  0  0  0
 25 22  1  0  0  0  0
 26 24  1  0  0  0  0
M  END
>  <MODEL>
2

>  <REMARK>
 VINA RESULT:      -7.7      2.292      4.878
  Name = 
  2 active torsions:
  status: ('A' for Active; 'I' for Inactive)
    1  A    between atoms: C_1  and  C_19
    2  A    between atoms: C_21  and  N_26
                            x       y       z     vdW  Elec       q    Type
                         _______ _______ _______ _____ _____    ______ ____

>  <TORSDO>
F 2

$$$$
=
 OpenBabel11042417223D

 26 30  0  0  1  0  0  0  0  0999 V2000
  191.1850  175.5150  144.1720 C   0  0  0  0  0  0  0  0  0  0  0  0
  189.7500  173.4450  141.7580 C   0  0  0  0  0  3  0  0  0  0  0  0
  191.3630  174.4980  143.2830 N   0  0  0  0  0  0  0  0  0  0  0  0
  190.1450  174.3490  142.7360 C   0  0  0  0  0  0  0  0  0  0  0  0
  189.2660  175.2360  143.2700 C   0  0  0  0  0  0  0  0  0  0  0  0
  187.5420  174.3630  141.8740 C   0  0  0  0  0  3  0  0  0  0  0  0
  188.4460  173.4760  141.3500 N   0  0  0  0  0  0  0  0  0  0  0  0
  187.9330  175.2820  142.8650 C   0  0  0  0  0  3  0  0  0  0  0  0
  189.9030  175.9880  144.1870 N   0  0  0  0  0  0  0  0  0  0  0  0
  186.1050  178.6820  144.7520 C   0  0  0  0  0  2  0  0  0  0  0  0
  187.3560  177.3540  146.1960 C   0  0  1  0  0  3  0  0  0  0  0  0
  187.0340  177.5610  144.8030 N   0  0  2  0  0  0  0  0  0  0  0  0
  188.3210  177.8910  144.2160 C   0  0  0  0  0  2  0  0  0  0  0  0
  184.9240  177.0980  146.2280 O   0  0  0  0  0  0  0  0  0  0  0  0
  185.0250  179.3290  146.7930 F   0  0  0  0  0  0  0  0  0  0  0  0
  184.9340  178.4360  145.7370 C   0  0  0  0  0  0  0  0  0  0  0  0
  186.1370  176.7750  146.9080 C   0  0  0  0  0  2  0  0  0  0  0  0
  188.6160  176.5340  146.2190 C   0  0  0  0  0  2  0  0  0  0  0  0
  189.3530  177.0760  145.0000 C   0  0  1  0  0  3  0  0  0  0  0  0
  183.7470  178.6720  145.0700 F   0  0  0  0  0  0  0  0  0  0  0  0
  193.4430  176.5470  144.3920 C   0  0  0  0  0  3  0  0  0  0  0  0
  192.2470  175.9780  146.4120 C   0  0  0  0  0  3  0  0  0  0  0  0
  194.5090  177.0270  145.1570 C   0  0  0  0  0  3  0  0  0  0  0  0
  194.4450  176.9830  146.5520 C   0  0  0  0  0  3  0  0  0  0  0  0
  192.2990  176.0180  145.0110 C   0  0  0  0  0  0  0  0  0  0  0  0
  193.3120  176.4570  147.1790 C   0  0  0  0  0  3  0  0  0  0  0  0
  1  9  1  0  0  0  0
  1 25  1  0  0  0  0
  2  4  1  0  0  0  0
  3  1  2  0  0  0  0
  4  5  2  0  0  0  0
  4  3  1  0  0  0  0
  5  9  1  0  0  0  0
  6  8  2  0  0  0  0
  7  2  2  0  0  0  0
  7  6  1  0  0  0  0
  8  5  1  0  0  0  0
 10 12  1  0  0  0  0
 10 16  1  0  0  0  0
 11 18  1  6  0  0  0
 11 17  1  0  0  0  0
 12 13  1  6  0  0  0
 12 11  1  0  0  0  0
 13 19  1  0  0  0  0
 14 17  1  0  0  0  0
 16 14  1  0  0  0  0
 16 15  1  0  0  0  0
 19  9  1  6  0  0  0
 19 18  1  0  0  0  0
 20 16  1  0  0  0  0
 21 25  2  0  0  0  0
 21 23  1  0  0  0  0
 22 26  2  0  0  0  0
 23 24  2  0  0  0  0
 24 26  1  0  0  0  0
 25 22  1  0  0  0  0
M  END
>  <MODEL>
3

>  <REMARK>
 VINA RESULT:      -7.3      3.580      6.359
  Name = 
  2 active torsions:
  status: ('A' for Active; 'I' for Inactive)
    1  A    between atoms: C_1  and  C_19
    2  A    between atoms: C_21  and  N_26
                            x       y       z     vdW  Elec       q    Type
                         _______ _______ _______ _____ _____    ______ ____

>  <TORSDO>
F 2

$$$$
=
 OpenBabel11042417223D

 26 30  0  0  1  0  0  0  0  0999 V2000
  189.0560  176.8600  144.7990 C   0  0  0  0  0  0  0  0  0  0  0  0
  192.5310  177.1590  144.8010 C   0  0  0  0  0  3  0  0  0  0  0  0
  190.1510  177.4950  145.3050 N   0  0  0  0  0  0  0  0  0  0  0  0
  191.1730  176.9000  144.6680 C   0  0  0  0  0  0  0  0  0  0  0  0
  190.7200  175.9460  143.8130 C   0  0  0  0  0  0  0  0  0  0  0  0
  192.9630  175.4560  143.1740 C   0  0  0  0  0  3  0  0  0  0  0  0
  193.3990  176.4230  144.0430 N   0  0  0  0  0  0  0  0  0  0  0  0
  191.5900  175.1870  143.0340 C   0  0  0  0  0  3  0  0  0  0  0  0
  189.3750  175.9010  143.8800 N   0  0  0  0  0  0  0  0  0  0  0  0
  188.3730  174.3960  139.5520 C   0  0  0  0  0  2  0  0  0  0  0  0
  188.7860  173.3130  141.5690 C   0  0  1  0  0  3  0  0  0  0  0  0
  188.9960  174.5530  140.8600 N   0  0  2  0  0  0  0  0  0  0  0  0
  188.2980  175.5230  141.6840 C   0  0  0  0  0  2  0  0  0  0  0  0
  189.9820  172.5280  139.5860 O   0  0  0  0  0  0  0  0  0  0  0  0
  187.8350  172.1720  138.8330 F   0  0  0  0  0  0  0  0  0  0  0  0
  188.8730  173.0880  138.8880 C   0  0  0  0  0  0  0  0  0  0  0  0
  189.6570  172.2270  140.9420 C   0  0  0  0  0  2  0  0  0  0  0  0
  189.0130  173.6170  143.0240 C   0  0  0  0  0  2  0  0  0  0  0  0
  188.4650  175.0360  143.1260 C   0  0  1  0  0  3  0  0  0  0  0  0
  189.2640  173.3780  137.5950 F   0  0  0  0  0  0  0  0  0  0  0  0
  186.9740  178.2060  144.5400 C   0  0  0  0  0  3  0  0  0  0  0  0
  187.0690  176.5840  146.3280 C   0  0  0  0  0  3  0  0  0  0  0  0
  185.6790  178.5600  144.9280 C   0  0  0  0  0  3  0  0  0  0  0  0
  185.0790  177.9260  146.0180 C   0  0  0  0  0  3  0  0  0  0  0  0
  187.6830  177.2130  145.2350 C   0  0  0  0  0  0  0  0  0  0  0  0
  185.7740  176.9370  146.7180 C   0  0  0  0  0  3  0  0  0  0  0  0
  1 25  1  0  0  0  0
  1  3  2  0  0  0  0
  4  2  1  0  0  0  0
  4  3  1  0  0  0  0
  5  9  1  0  0  0  0
  5  4  2  0  0  0  0
  6  7  1  0  0  0  0
  7  2  2  0  0  0  0
  8  6  2  0  0  0  0
  8  5  1  0  0  0  0
  9  1  1  0  0  0  0
 11 17  1  6  0  0  0
 11 18  1  0  0  0  0
 12 10  1  6  0  0  0
 12 11  1  0  0  0  0
 12 13  1  0  0  0  0
 14 17  1  0  0  0  0
 15 16  1  0  0  0  0
 16 10  1  0  0  0  0
 16 14  1  0  0  0  0
 18 19  1  0  0  0  0
 19 13  1  6  0  0  0
 19  9  1  0  0  0  0
 20 16  1  0  0  0  0
 21 23  2  0  0  0  0
 21 25  1  0  0  0  0
 22 26  1  0  0  0  0
 23 24  1  0  0  0  0
 24 26  2  0  0  0  0
 25 22  2  0  0  0  0
M  END
>  <MODEL>
4

>  <REMARK>
 VINA RESULT:      -7.2      3.637      5.506
  Name = 
  2 active torsions:
  status: ('A' for Active; 'I' for Inactive)
    1  A    between atoms: C_1  and  C_19
    2  A    between atoms: C_21  and  N_26
                            x       y       z     vdW  Elec       q    Type
                         _______ _______ _______ _____ _____    ______ ____

>  <TORSDO>
F 2

$$$$
=
 OpenBabel11042417223D

 26 30  0  0  1  0  0  0  0  0999 V2000
  191.4010  175.1230  143.7990 C   0  0  0  0  0  0  0  0  0  0  0  0
  190.1640  172.5380  141.8110 C   0  0  0  0  0  3  0  0  0  0  0  0
  191.5730  173.8540  143.3330 N   0  0  0  0  0  0  0  0  0  0  0  0
  190.4990  173.6670  142.5470 C   0  0  0  0  0  0  0  0  0  0  0  0
  189.7110  174.7740  142.5360 C   0  0  0  0  0  0  0  0  0  0  0  0
  188.2030  173.6800  141.0490 C   0  0  0  0  0  3  0  0  0  0  0  0
  189.0130  172.5750  141.0750 N   0  0  0  0  0  0  0  0  0  0  0  0
  188.5340  174.8280  141.7910 C   0  0  0  0  0  3  0  0  0  0  0  0
  190.2630  175.7130  143.3270 N   0  0  0  0  0  0  0  0  0  0  0  0
  186.7410  178.6660  142.3880 C   0  0  0  0  0  2  0  0  0  0  0  0
  187.7180  177.9130  144.3610 C   0  0  1  0  0  3  0  0  0  0  0  0
  187.5370  177.5910  142.9650 N   0  0  2  0  0  0  0  0  0  0  0  0
  188.8960  177.5830  142.4530 C   0  0  0  0  0  2  0  0  0  0  0  0
  185.2780  177.8540  144.1990 O   0  0  0  0  0  0  0  0  0  0  0  0
  185.5700  180.1180  143.8950 F   0  0  0  0  0  0  0  0  0  0  0  0
  185.4720  178.8970  143.2470 C   0  0  0  0  0  0  0  0  0  0  0  0
  186.3880  177.7350  145.0880 C   0  0  0  0  0  2  0  0  0  0  0  0
  188.8760  177.0820  144.8390 C   0  0  0  0  0  2  0  0  0  0  0  0
  189.7670  177.0640  143.6020 C   0  0  1  0  0  3  0  0  0  0  0  0
  184.3780  178.9380  142.4060 F   0  0  0  0  0  0  0  0  0  0  0  0
  192.0980  175.7950  146.0960 C   0  0  0  0  0  3  0  0  0  0  0  0
  193.5800  176.3080  144.2590 C   0  0  0  0  0  3  0  0  0  0  0  0
  193.0000  176.3810  146.9880 C   0  0  0  0  0  3  0  0  0  0  0  0
  194.1930  176.9320  146.5150 C   0  0  0  0  0  3  0  0  0  0  0  0
  192.3790  175.7510  144.7210 C   0  0  0  0  0  0  0  0  0  0  0  0
  194.4830  176.8940  145.1490 C   0  0  0  0  0  3  0  0  0  0  0  0
  1 25  1  0  0  0  0
  2  4  1  0  0  0  0
  3  1  2  0  0  0  0
  4  3  1  0  0  0  0
  5  4  2  0  0  0  0
  5  9  1  0  0  0  0
  6  7  1  0  0  0  0
  6  8  2  0  0  0  0
  7  2  2  0  0  0  0
  8  5  1  0  0  0  0
  9 19  1  0  0  0  0
  9  1  1  0  0  0  0
 10 16  1  0  0  0  0
 11 18  1  1  0  0  0
 11 17  1  0  0  0  0
 12 10  1  6  0  0  0
 12 11  1  0  0  0  0
 13 12  1  0  0  0  0
 14 17  1  0  0  0  0
 16 15  1  0  0  0  0
 16 14  1  0  0  0  0
 19 13  1  6  0  0  0
 19 18  1  0  0  0  0
 20 16  1  0  0  0  0
 21 23  1  0  0  0  0
 22 25  1  0  0  0  0
 22 26  2  0  0  0  0
 24 23  2  0  0  0  0
 25 21  2  0  0  0  0
 26 24  1  0  0  0  0
M  END
>  <MODEL>
5

>  <REMARK>
 VINA RESULT:      -7.1      3.654      6.328
  Name = 
  2 active torsions:
  status: ('A' for Active; 'I' for Inactive)
    1  A    between atoms: C_1  and  C_19
    2  A    between atoms: C_21  and  N_26
                            x       y       z     vdW  Elec       q    Type
                         _______ _______ _______ _____ _____    ______ ____

>  <TORSDO>
F 2

$$$$
=
 OpenBabel11042417223D

 26 30  0  0  1  0  0  0  0  0999 V2000
  188.1600  175.6830  141.5790 C   0  0  0  0  0  0  0  0  0  0  0  0
  190.1080  173.0910  140.2950 C   0  0  0  0  0  3  0  0  0  0  0  0
  188.3050  174.7270  140.6190 N   0  0  0  0  0  0  0  0  0  0  0  0
  189.4700  174.1410  140.9420 C   0  0  0  0  0  0  0  0  0  0  0  0
  190.0090  174.7170  142.0480 C   0  0  0  0  0  0  0  0  0  0  0  0
  191.8600  173.2200  141.9220 C   0  0  0  0  0  3  0  0  0  0  0  0
  191.2980  172.6540  140.8070 N   0  0  0  0  0  0  0  0  0  0  0  0
  191.2210  174.2850  142.5840 C   0  0  0  0  0  3  0  0  0  0  0  0
  189.1940  175.7030  142.4710 N   0  0  0  0  0  0  0  0  0  0  0  0
  190.0130  175.6730  147.0900 C   0  0  0  0  0  2  0  0  0  0  0  0
  191.0130  176.7600  145.2920 C   0  0  1  0  0  3  0  0  0  0  0  0
  190.1960  175.6230  145.6450 N   0  0  2  0  0  0  0  0  0  0  0  0
  188.9580  175.8750  144.9280 C   0  0  0  0  0  2  0  0  0  0  0  0
  192.4690  175.6040  146.8820 O   0  0  0  0  0  0  0  0  0  0  0  0
  191.4880  177.0810  148.3520 F   0  0  0  0  0  0  0  0  0  0  0  0
  191.3890  175.8200  147.7870 C   0  0  0  0  0  0  0  0  0  0  0  0
  192.4360  176.5240  145.7910 C   0  0  0  0  0  2  0  0  0  0  0  0
  190.8310  176.9670  143.8140 C   0  0  0  0  0  2  0  0  0  0  0  0
  189.3680  176.5790  143.6310 C   0  0  1  0  0  3  0  0  0  0  0  0
  191.4660  174.8830  148.7990 F   0  0  0  0  0  0  0  0  0  0  0  0
  186.1650  176.6150  142.7470 C   0  0  0  0  0  3  0  0  0  0  0  0
  186.6550  177.4090  140.5190 C   0  0  0  0  0  3  0  0  0  0  0  0
  185.0480  177.4530  142.8010 C   0  0  0  0  0  3  0  0  0  0  0  0
  184.7340  178.2690  141.7120 C   0  0  0  0  0  3  0  0  0  0  0  0
  186.9820  176.5840  141.6060 C   0  0  0  0  0  0  0  0  0  0  0  0
  185.5390  178.2470  140.5710 C   0  0  0  0  0  3  0  0  0  0  0  0
  1 25  1  0  0  0  0
  1  9  1  0  0  0  0
  2  7  2  0  0  0  0
  2  4  1  0  0  0  0
  3  4  1  0  0  0  0
  3  1  2  0  0  0  0
  4  5  2  0  0  0  0
  5  9  1  0  0  0  0
  5  8  1  0  0  0  0
  6  8  2  0  0  0  0
  7  6  1  0  0  0  0
 10 16  1  0  0  0  0
 11 18  1  6  0  0  0
 11 12  1  0  0  0  0
 11 17  1  0  0  0  0
 12 13  1  6  0  0  0
 12 10  1  0  0  0  0
 14 16  1  0  0  0  0
 16 15  1  0  0  0  0
 16 20  1  0  0  0  0
 17 14  1  0  0  0  0
 19  9  1  6  0  0  0
 19 18  1  0  0  0  0
 19 13  1  0  0  0  0
 21 23  1  0  0  0  0
 22 26  2  0  0  0  0
 22 25  1  0  0  0  0
 24 23  2  0  0  0  0
 25 21  2  0  0  0  0
 26 24  1  0  0  0  0
M  END
>  <MODEL>
6

>  <REMARK>
 VINA RESULT:      -7.1      2.103      2.648
  Name = 
  2 active torsions:
  status: ('A' for Active; 'I' for Inactive)
    1  A    between atoms: C_1  and  C_19
    2  A    between atoms: C_21  and  N_26
                            x       y       z     vdW  Elec       q    Type
                         _______ _______ _______ _____ _____    ______ ____

>  <TORSDO>
F 2

$$$$
=
 OpenBabel11042417223D

 26 30  0  0  1  0  0  0  0  0999 V2000
  187.7540  177.0260  144.7600 C   0  0  0  0  0  0  0  0  0  0  0  0
  184.5890  177.9720  143.6410 C   0  0  0  0  0  3  0  0  0  0  0  0
  186.4520  177.2680  145.0790 N   0  0  0  0  0  0  0  0  0  0  0  0
  185.9060  177.6180  143.9020 C   0  0  0  0  0  0  0  0  0  0  0  0
  186.8360  177.5890  142.9120 C   0  0  0  0  0  0  0  0  0  0  0  0
  185.1800  178.2700  141.3400 C   0  0  0  0  0  3  0  0  0  0  0  0
  184.2570  178.2920  142.3540 N   0  0  0  0  0  0  0  0  0  0  0  0
  186.5160  177.9130  141.5950 C   0  0  0  0  0  3  0  0  0  0  0  0
  188.0210  177.2170  143.4340 N   0  0  0  0  0  0  0  0  0  0  0  0
  192.6700  177.4040  144.0310 C   0  0  0  0  0  2  0  0  0  0  0  0
  191.2270  175.7870  143.1830 C   0  0  1  0  0  3  0  0  0  0  0  0
  191.2840  176.9520  144.0360 N   0  0  2  0  0  0  0  0  0  0  0  0
  190.4020  177.8900  143.3660 C   0  0  0  0  0  2  0  0  0  0  0  0
  192.8860  175.0830  144.8360 O   0  0  0  0  0  0  0  0  0  0  0  0
  194.3390  175.8760  143.2340 F   0  0  0  0  0  0  0  0  0  0  0  0
  193.6090  176.2160  144.3630 C   0  0  0  0  0  0  0  0  0  0  0  0
  191.9320  174.6260  143.8790 C   0  0  0  0  0  2  0  0  0  0  0  0
  189.7780  175.5960  142.8290 C   0  0  0  0  0  2  0  0  0  0  0  0
  189.2960  177.0390  142.7350 C   0  0  1  0  0  3  0  0  0  0  0  0
  194.4920  176.6200  145.3450 F   0  0  0  0  0  0  0  0  0  0  0  0
  188.9400  175.2320  146.0190 C   0  0  0  0  0  3  0  0  0  0  0  0
  189.4780  177.5300  146.5320 C   0  0  0  0  0  3  0  0  0  0  0  0
  189.8600  174.8010  146.9790 C   0  0  0  0  0  3  0  0  0  0  0  0
  190.5900  175.7370  147.7160 C   0  0  0  0  0  3  0  0  0  0  0  0
  188.7390  176.6010  145.7840 C   0  0  0  0  0  0  0  0  0  0  0  0
  190.3980  177.1020  147.4920 C   0  0  0  0  0  3  0  0  0  0  0  0
  1  3  2  0  0  0  0
  1 25  1  0  0  0  0
  2  4  1  0  0  0  0
  4  3  1  0  0  0  0
  5  9  1  0  0  0  0
  5  4  2  0  0  0  0
  6  8  2  0  0  0  0
  6  7  1  0  0  0  0
  7  2  2  0  0  0  0
  8  5  1  0  0  0  0
  9  1  1  0  0  0  0
 10 12  1  0  0  0  0
 10 16  1  0  0  0  0
 11 18  1  1  0  0  0
 11 17  1  0  0  0  0
 11 12  1  0  0  0  0
 12 13  1  6  0  0  0
 15 16  1  0  0  0  0
 16 14  1  0  0  0  0
 16 20  1  0  0  0  0
 17 14  1  0  0  0  0
 19 18  1  1  0  0  0
 19 13  1  0  0  0  0
 19  9  1  0  0  0  0
 21 23  1  0  0  0  0
 22 26  2  0  0  0  0
 23 24  2  0  0  0  0
 25 21  2  0  0  0  0
 25 22  1  0  0  0  0
 26 24  1  0  0  0  0
M  END
>  <MODEL>
7

>  <REMARK>
 VINA RESULT:      -7.0      1.980      3.967
  Name = 
  2 active torsions:
  status: ('A' for Active; 'I' for Inactive)
    1  A    between atoms: C_1  and  C_19
    2  A    between atoms: C_21  and  N_26
                            x       y       z     vdW  Elec       q    Type
                         _______ _______ _______ _____ _____    ______ ____

>  <TORSDO>
F 2

$$$$
=
 OpenBabel11042417223D

 26 30  0  0  1  0  0  0  0  0999 V2000
  191.2130  176.3930  143.5680 C   0  0  0  0  0  0  0  0  0  0  0  0
  194.6740  176.2040  143.9640 C   0  0  0  0  0  3  0  0  0  0  0  0
  192.4410  176.5280  142.9920 N   0  0  0  0  0  0  0  0  0  0  0  0
  193.2850  176.2280  143.9930 C   0  0  0  0  0  0  0  0  0  0  0  0
  192.6000  175.9250  145.1270 C   0  0  0  0  0  0  0  0  0  0  0  0
  194.6600  175.5560  146.2690 C   0  0  0  0  0  3  0  0  0  0  0  0
  195.3300  175.8660  145.1140 N   0  0  0  0  0  0  0  0  0  0  0  0
  193.2540  175.5780  146.3080 C   0  0  0  0  0  3  0  0  0  0  0  0
  191.2800  176.0240  144.8820 N   0  0  0  0  0  0  0  0  0  0  0  0
  187.7170  178.1200  147.1000 C   0  0  0  0  0  2  0  0  0  0  0  0
  187.8740  176.2370  145.7420 C   0  0  1  0  0  3  0  0  0  0  0  0
  188.5340  177.4780  146.0780 N   0  0  2  0  0  0  0  0  0  0  0  0
  189.8140  177.0340  146.6010 C   0  0  0  0  0  2  0  0  0  0  0  0
  186.1150  177.8620  145.2440 O   0  0  0  0  0  0  0  0  0  0  0  0
  185.4710  177.3320  147.3920 F   0  0  0  0  0  0  0  0  0  0  0  0
  186.2440  178.1900  146.6250 C   0  0  0  0  0  0  0  0  0  0  0  0
  186.5970  176.5490  144.9650 C   0  0  0  0  0  2  0  0  0  0  0  0
  188.9040  175.3860  145.0540 C   0  0  0  0  0  2  0  0  0  0  0  0
  190.1710  175.7750  145.8060 C   0  0  1  0  0  3  0  0  0  0  0  0
  185.7850  179.4780  146.8190 F   0  0  0  0  0  0  0  0  0  0  0  0
  189.3450  175.5600  142.1430 C   0  0  0  0  0  3  0  0  0  0  0  0
  189.3850  177.9070  142.7140 C   0  0  0  0  0  3  0  0  0  0  0  0
  188.1690  175.7570  141.4140 C   0  0  0  0  0  3  0  0  0  0  0  0
  187.6010  177.0300  141.3340 C   0  0  0  0  0  3  0  0  0  0  0  0
  189.9660  176.6330  142.8020 C   0  0  0  0  0  0  0  0  0  0  0  0
  188.2100  178.1050  141.9850 C   0  0  0  0  0  3  0  0  0  0  0  0
  1  9  1  0  0  0  0
  2  4  2  0  0  0  0
  2  7  1  0  0  0  0
  3  1  2  0  0  0  0
  3  4  1  0  0  0  0
  4  5  1  0  0  0  0
  5  8  2  0  0  0  0
  6  8  1  0  0  0  0
  7  6  2  0  0  0  0
  9  5  1  0  0  0  0
 11 17  1  6  0  0  0
 11 12  1  0  0  0  0
 12 13  1  1  0  0  0
 12 10  1  0  0  0  0
 14 16  1  0  0  0  0
 16 20  1  0  0  0  0
 16 10  1  0  0  0  0
 16 15  1  0  0  0  0
 17 14  1  0  0  0  0
 18 11  1  0  0  0  0
 18 19  1  0  0  0  0
 19  9  1  6  0  0  0
 19 13  1  0  0  0  0
 21 25  1  0  0  0  0
 22 25  2  0  0  0  0
 23 21  2  0  0  0  0
 24 23  1  0  0  0  0
 24 26  2  0  0  0  0
 25  1  1  0  0  0  0
 26 22  1  0  0  0  0
M  END
>  <MODEL>
8

>  <REMARK>
 VINA RESULT:      -7.0      3.501      5.774
  Name = 
  2 active torsions:
  status: ('A' for Active; 'I' for Inactive)
    1  A    between atoms: C_1  and  C_19
    2  A    between atoms: C_21  and  N_26
                            x       y       z     vdW  Elec       q    Type
                         _______ _______ _______ _____ _____    ______ ____

>  <TORSDO>
F 2

$$$$
=
 OpenBabel11042417223D

 26 30  0  0  1  0  0  0  0  0999 V2000
  193.1230  175.2440  145.1360 C   0  0  0  0  0  0  0  0  0  0  0  0
  196.5480  174.7000  144.7670 C   0  0  0  0  0  3  0  0  0  0  0  0
  194.2520  174.6700  145.6380 N   0  0  0  0  0  0  0  0  0  0  0  0
  195.1960  175.0170  144.7480 C   0  0  0  0  0  0  0  0  0  0  0  0
  194.6640  175.7690  143.7500 C   0  0  0  0  0  0  0  0  0  0  0  0
  196.8120  175.9290  142.7290 C   0  0  0  0  0  3  0  0  0  0  0  0
  197.3280  175.1680  143.7470 N   0  0  0  0  0  0  0  0  0  0  0  0
  195.4440  176.2550  142.7020 C   0  0  0  0  0  3  0  0  0  0  0  0
  193.3450  175.9260  143.9730 N   0  0  0  0  0  0  0  0  0  0  0  0
  189.0390  175.6860  142.1290 C   0  0  0  0  0  2  0  0  0  0  0  0
  190.1260  177.2520  143.4630 C   0  0  1  0  0  3  0  0  0  0  0  0
  190.1440  175.8640  143.0620 N   0  0  2  0  0  0  0  0  0  0  0  0
  191.4350  175.7300  142.4120 C   0  0  0  0  0  2  0  0  0  0  0  0
  187.8870  176.5340  144.1370 O   0  0  0  0  0  0  0  0  0  0  0  0
  187.3470  177.3840  142.0660 F   0  0  0  0  0  0  0  0  0  0  0  0
  187.7330  176.2430  142.7510 C   0  0  0  0  0  0  0  0  0  0  0  0
  188.9190  177.4930  144.3660 C   0  0  0  0  0  2  0  0  0  0  0  0
  191.4830  177.5400  144.0430 C   0  0  0  0  0  2  0  0  0  0  0  0
  192.3780  176.6720  143.1660 C   0  0  1  0  0  3  0  0  0  0  0  0
  186.7420  175.2920  142.6050 F   0  0  0  0  0  0  0  0  0  0  0  0
  191.4910  175.9920  146.8650 C   0  0  0  0  0  3  0  0  0  0  0  0
  190.8840  174.1270  145.4560 C   0  0  0  0  0  3  0  0  0  0  0  0
  190.2650  175.8910  147.5290 C   0  0  0  0  0  3  0  0  0  0  0  0
  189.3480  174.9060  147.1560 C   0  0  0  0  0  3  0  0  0  0  0  0
  191.8140  175.1120  145.8200 C   0  0  0  0  0  0  0  0  0  0  0  0
  189.6580  174.0240  146.1180 C   0  0  0  0  0  3  0  0  0  0  0  0
  1  3  2  0  0  0  0
  1 25  1  0  0  0  0
  4  2  1  0  0  0  0
  4  3  1  0  0  0  0
  5  9  1  0  0  0  0
  5  4  2  0  0  0  0
  6  7  1  0  0  0  0
  7  2  2  0  0  0  0
  8  6  2  0  0  0  0
  8  5  1  0  0  0  0
  9  1  1  0  0  0  0
 10 16  1  0  0  0  0
 11 18  1  1  0  0  0
 11 17  1  0  0  0  0
 12 10  1  6  0  0  0
 12 11  1  0  0  0  0
 13 12  1  0  0  0  0
 14 17  1  0  0  0  0
 15 16  1  0  0  0  0
 16 14  1  0  0  0  0
 19 13  1  1  0  0  0
 19  9  1  0  0  0  0
 19 18  1  0  0  0  0
 20 16  1  0  0  0  0
 21 23  1  0  0  0  0
 22 25  1  0  0  0  0
 22 26  2  0  0  0  0
 24 23  2  0  0  0  0
 25 21  2  0  0  0  0
 26 24  1  0  0  0  0
M  END
>  <MODEL>
9

>  <REMARK>
 VINA RESULT:      -6.9      3.578      6.251
  Name = 
  2 active torsions:
  status: ('A' for Active; 'I' for Inactive)
    1  A    between atoms: C_1  and  C_19
    2  A    between atoms: C_21  and  N_26
                            x       y       z     vdW  Elec       q    Type
                         _______ _______ _______ _____ _____    ______ ____

>  <TORSDO>
F 2

$$$$
