=
 OpenBabel11042418553D

 31 31  0  0  1  0  0  0  0  0999 V2000
  190.6600  176.8910  146.8810 C   0  0  0  0  0  0  0  0  0  0  0  0
  191.4090  176.5870  145.7970 C   0  0  0  0  0  0  0  0  0  0  0  0
  191.1770  176.7370  148.1650 O   0  0  0  0  0  1  0  0  0  0  0  0
  192.8380  176.0600  145.9800 C   0  0  2  0  0  0  0  0  0  0  0  0
  193.4820  176.8230  146.9560 O   0  0  0  0  0  1  0  0  0  0  0  0
  193.6830  176.1440  144.7170 C   0  0  0  0  0  1  0  0  0  0  0  0
  193.2480  173.7430  145.4270 O   0  0  0  0  0  1  0  0  0  0  0  0
  192.8180  174.6020  146.4430 C   0  0  0  0  0  2  0  0  0  0  0  0
  191.3660  177.9260  143.6290 C   0  0  0  0  0  1  0  0  0  0  0  0
  190.7840  176.7670  144.4270 C   0  0  1  0  0  3  0  0  0  0  0  0
  189.9880  174.3670  144.2120 C   0  0  0  0  0  3  0  0  0  0  0  0
  190.1480  171.9650  141.3640 N   0  0  0  0  0  1  0  0  0  0  0  0
  189.2010  172.0980  144.0270 O   0  0  0  0  0  1  0  0  0  0  0  0
  190.6250  175.4880  143.6570 C   0  0  0  0  0  0  0  0  0  0  0  0
  189.8300  173.1990  143.4600 C   0  0  0  0  0  0  0  0  0  0  0  0
  191.0910  175.4310  142.3380 C   0  0  0  0  0  3  0  0  0  0  0  0
  190.9330  174.2640  141.5850 C   0  0  0  0  0  3  0  0  0  0  0  0
  190.3040  173.1480  142.1420 C   0  0  0  0  0  0  0  0  0  0  0  0
  189.2610  177.4180  146.7580 C   0  0  0  0  0  2  0  0  0  0  0  0
  188.2450  176.2850  146.7900 C   0  0  0  0  0  2  0  0  0  0  0  0
  186.9480  176.6680  146.0860 C   0  0  1  0  0  3  0  0  0  0  0  0
  186.2100  177.6750  146.8980 C   0  0  0  0  0  0  0  0  0  0  0  0
  185.8100  178.8820  146.3350 O   0  0  0  0  0  0  0  0  0  0  0  0
  185.9460  177.4310  148.1040 O   0  0  0  0  0  1  0  0  0  0  0  0
  187.2250  177.2280  144.6960 C   0  0  0  0  0  2  0  0  0  0  0  0
  186.7990  176.3150  143.6920 O   0  0  0  0  0  0  0  0  0  0  0  0
  187.2120  176.4100  142.3590 C   0  0  0  0  0  0  0  0  0  0  0  0
  187.5560  175.3630  141.7490 O   0  0  0  0  0  0  0  0  0  0  0  0
  188.5790  178.1690  141.5500 O   0  0  0  0  0  1  0  0  0  0  0  0
  187.2590  177.7290  141.6520 C   0  0  1  0  0  3  0  0  0  0  0  0
  186.6830  177.6030  140.3240 N   0  0  0  0  0  1  0  0  0  0  0  0
  1  3  1  0  0  0  0
  2  4  1  0  0  0  0
  2  1  2  0  0  0  0
  4  6  1  6  0  0  0
  4  8  1  0  0  0  0
  4  5  1  0  0  0  0
  7  8  1  0  0  0  0
 10  9  1  6  0  0  0
 10  2  1  0  0  0  0
 12 18  1  0  0  0  0
 14 11  1  0  0  0  0
 14 10  1  0  0  0  0
 15 13  1  0  0  0  0
 15 11  2  0  0  0  0
 16 14  2  0  0  0  0
 17 18  2  0  0  0  0
 17 16  1  0  0  0  0
 18 15  1  0  0  0  0
 19 20  1  0  0  0  0
 19  1  1  0  0  0  0
 21 25  1  6  0  0  0
 21 20  1  0  0  0  0
 21 22  1  0  0  0  0
 22 24  1  0  0  0  0
 23 22  2  0  0  0  0
 26 25  1  0  0  0  0
 27 26  1  0  0  0  0
 28 27  2  0  0  0  0
 29 30  1  0  0  0  0
 30 31  1  6  0  0  0
 30 27  1  0  0  0  0
M  END
>  <MODEL>
1

>  <REMARK>
 VINA RESULT:      -5.8      0.000      0.000
  Name = 
  12 active torsions:
  status: ('A' for Active; 'I' for Inactive)
    1  A    between atoms: O_1  and  C_2
    2  A    between atoms: O_1  and  C_26
    3  A    between atoms: C_2  and  C_19
    4  A    between atoms: C_3  and  C_23
    5  A    between atoms: C_5  and  C_9
    6  A    between atoms: C_5  and  C_18
    7  A    between atoms: C_6  and  C_31
    8  A    between atoms: C_9  and  C_16
    9  A    between atoms: C_13  and  C_18
   10  A    between atoms: C_20  and  C_23
   11  A    between atoms: C_20  and  C_31
   12  A    between atoms: C_26  and  C_31
                            x       y       z     vdW  Elec       q    Type
                         _______ _______ _______ _____ _____    ______ ____

>  <TORSDO>
F 12

$$$$
=
 OpenBabel11042418553D

 31 31  0  0  1  0  0  0  0  0999 V2000
  189.6740  174.4170  144.3200 C   0  0  0  0  0  0  0  0  0  0  0  0
  189.1810  175.5380  143.7470 C   0  0  0  0  0  0  0  0  0  0  0  0
  189.6780  173.2100  143.6270 O   0  0  0  0  0  1  0  0  0  0  0  0
  188.6140  175.4800  142.3230 C   0  0  2  0  0  0  0  0  0  0  0  0
  188.5790  176.7720  141.7950 O   0  0  0  0  0  1  0  0  0  0  0  0
  187.1960  174.9310  142.2550 C   0  0  0  0  0  1  0  0  0  0  0  0
  188.7900  174.1380  140.3210 O   0  0  0  0  0  1  0  0  0  0  0  0
  189.5020  174.6170  141.4240 C   0  0  0  0  0  2  0  0  0  0  0  0
  190.0910  177.9060  143.9820 C   0  0  0  0  0  1  0  0  0  0  0  0
  189.1950  176.8180  144.5590 C   0  0  1  0  0  3  0  0  0  0  0  0
  187.2030  178.3790  144.3760 C   0  0  0  0  0  3  0  0  0  0  0  0
  183.9560  178.4530  146.2070 N   0  0  0  0  0  1  0  0  0  0  0  0
  185.3150  179.8600  144.1630 O   0  0  0  0  0  1  0  0  0  0  0  0
  187.8340  177.2840  144.9870 C   0  0  0  0  0  0  0  0  0  0  0  0
  185.9220  178.7710  144.7760 C   0  0  0  0  0  0  0  0  0  0  0  0
  187.1640  176.5800  145.9940 C   0  0  0  0  0  3  0  0  0  0  0  0
  185.8840  176.9700  146.3960 C   0  0  0  0  0  3  0  0  0  0  0  0
  185.2610  178.0650  145.7900 C   0  0  0  0  0  0  0  0  0  0  0  0
  190.2490  174.4200  145.7060 C   0  0  0  0  0  2  0  0  0  0  0  0
  191.7580  174.6180  145.6710 C   0  0  0  0  0  2  0  0  0  0  0  0
  192.1730  175.9250  146.3360 C   0  0  1  0  0  3  0  0  0  0  0  0
  191.3870  176.1280  147.5860 C   0  0  0  0  0  0  0  0  0  0  0  0
  191.4040  175.1720  148.5950 O   0  0  0  0  0  1  0  0  0  0  0  0
  190.7030  177.1750  147.7280 O   0  0  0  0  0  0  0  0  0  0  0  0
  193.6630  175.9260  146.6580 C   0  0  0  0  0  2  0  0  0  0  0  0
  194.4170  176.3890  145.5440 O   0  0  0  0  0  0  0  0  0  0  0  0
  195.4220  175.6250  144.9420 C   0  0  0  0  0  0  0  0  0  0  0  0
  196.0430  174.7760  145.6350 O   0  0  0  0  0  0  0  0  0  0  0  0
  194.6250  176.0660  142.7540 O   0  0  0  0  0  1  0  0  0  0  0  0
  195.7760  175.8040  143.4980 C   0  0  1  0  0  3  0  0  0  0  0  0
  196.7140  176.9030  143.3470 N   0  0  0  0  0  1  0  0  0  0  0  0
  1 19  1  0  0  0  0
  2  1  2  0  0  0  0
  2 10  1  0  0  0  0
  3  1  1  0  0  0  0
  4  6  1  1  0  0  0
  4  2  1  0  0  0  0
  5  4  1  0  0  0  0
  7  8  1  0  0  0  0
  8  4  1  0  0  0  0
 10  9  1  6  0  0  0
 10 14  1  0  0  0  0
 11 15  2  0  0  0  0
 11 14  1  0  0  0  0
 13 15  1  0  0  0  0
 14 16  2  0  0  0  0
 15 18  1  0  0  0  0
 16 17  1  0  0  0  0
 18 12  1  0  0  0  0
 18 17  2  0  0  0  0
 20 19  1  0  0  0  0
 21 20  1  1  0  0  0
 21 25  1  0  0  0  0
 21 22  1  0  0  0  0
 22 24  2  0  0  0  0
 22 23  1  0  0  0  0
 26 25  1  0  0  0  0
 27 26  1  0  0  0  0
 27 28  2  0  0  0  0
 30 29  1  6  0  0  0
 30 27  1  0  0  0  0
 31 30  1  0  0  0  0
M  END
>  <MODEL>
2

>  <REMARK>
 VINA RESULT:      -5.8      2.615      6.603
  Name = 
  12 active torsions:
  status: ('A' for Active; 'I' for Inactive)
    1  A    between atoms: O_1  and  C_2
    2  A    between atoms: O_1  and  C_26
    3  A    between atoms: C_2  and  C_19
    4  A    between atoms: C_3  and  C_23
    5  A    between atoms: C_5  and  C_9
    6  A    between atoms: C_5  and  C_18
    7  A    between atoms: C_6  and  C_31
    8  A    between atoms: C_9  and  C_16
    9  A    between atoms: C_13  and  C_18
   10  A    between atoms: C_20  and  C_23
   11  A    between atoms: C_20  and  C_31
   12  A    between atoms: C_26  and  C_31
                            x       y       z     vdW  Elec       q    Type
                         _______ _______ _______ _____ _____    ______ ____

>  <TORSDO>
F 12

$$$$
=
 OpenBabel11042418553D

 31 31  0  0  1  0  0  0  0  0999 V2000
  190.6460  176.8960  146.7240 C   0  0  0  0  0  0  0  0  0  0  0  0
  191.3830  176.5290  145.6520 C   0  0  0  0  0  0  0  0  0  0  0  0
  191.1190  176.6820  148.0160 O   0  0  0  0  0  1  0  0  0  0  0  0
  192.7490  175.8620  145.8570 C   0  0  2  0  0  0  0  0  0  0  0  0
  193.4050  175.7820  144.6270 O   0  0  0  0  0  1  0  0  0  0  0  0
  192.6590  174.4470  146.4080 C   0  0  0  0  0  1  0  0  0  0  0  0
  194.6140  177.3780  146.1150 O   0  0  0  0  0  1  0  0  0  0  0  0
  193.6140  176.6900  146.8090 C   0  0  0  0  0  2  0  0  0  0  0  0
  191.5160  177.8840  143.4970 C   0  0  0  0  0  1  0  0  0  0  0  0
  190.8070  176.7800  144.2720 C   0  0  1  0  0  3  0  0  0  0  0  0
  191.1390  175.3010  142.2370 C   0  0  0  0  0  3  0  0  0  0  0  0
  189.7890  171.9280  141.3980 N   0  0  0  0  0  1  0  0  0  0  0  0
  191.4920  173.9060  140.3050 O   0  0  0  0  0  1  0  0  0  0  0  0
  190.5390  175.5300  143.4850 C   0  0  0  0  0  0  0  0  0  0  0  0
  190.8930  174.1140  141.5420 C   0  0  0  0  0  0  0  0  0  0  0  0
  189.7010  174.5530  144.0340 C   0  0  0  0  0  3  0  0  0  0  0  0
  189.4540  173.3650  143.3400 C   0  0  0  0  0  3  0  0  0  0  0  0
  190.0470  173.1430  142.0950 C   0  0  0  0  0  0  0  0  0  0  0  0
  189.3090  177.5600  146.5790 C   0  0  0  0  0  2  0  0  0  0  0  0
  188.1850  176.5320  146.5850 C   0  0  0  0  0  2  0  0  0  0  0  0
  186.8980  177.0970  145.9960 C   0  0  1  0  0  3  0  0  0  0  0  0
  186.1760  177.8930  147.0290 C   0  0  0  0  0  0  0  0  0  0  0  0
  185.7480  179.1870  146.7540 O   0  0  0  0  0  0  0  0  0  0  0  0
  185.9520  177.3880  148.1590 O   0  0  0  0  0  1  0  0  0  0  0  0
  187.1890  177.9710  144.7820 C   0  0  0  0  0  2  0  0  0  0  0  0
  187.2960  177.1790  143.6060 O   0  0  0  0  0  0  0  0  0  0  0  0
  187.3490  177.7330  142.3230 C   0  0  0  0  0  0  0  0  0  0  0  0
  188.4570  177.7920  141.7270 O   0  0  0  0  0  0  0  0  0  0  0  0
  186.1600  177.9760  140.2870 O   0  0  0  0  0  1  0  0  0  0  0  0
  186.1170  178.2590  141.6520 C   0  0  1  0  0  3  0  0  0  0  0  0
  184.9330  177.6560  142.2390 N   0  0  0  0  0  1  0  0  0  0  0  0
  1  3  1  0  0  0  0
  2  4  1  0  0  0  0
  2  1  2  0  0  0  0
  4  6  1  1  0  0  0
  4  8  1  0  0  0  0
  5  4  1  0  0  0  0
  7  8  1  0  0  0  0
 10  9  1  6  0  0  0
 10  2  1  0  0  0  0
 11 14  1  0  0  0  0
 12 18  1  0  0  0  0
 13 15  1  0  0  0  0
 14 16  2  0  0  0  0
 14 10  1  0  0  0  0
 15 18  1  0  0  0  0
 15 11  2  0  0  0  0
 17 16  1  0  0  0  0
 18 17  2  0  0  0  0
 19 20  1  0  0  0  0
 19  1  1  0  0  0  0
 21 25  1  6  0  0  0
 21 20  1  0  0  0  0
 21 22  1  0  0  0  0
 22 24  1  0  0  0  0
 23 22  2  0  0  0  0
 26 25  1  0  0  0  0
 27 26  1  0  0  0  0
 28 27  2  0  0  0  0
 30 29  1  6  0  0  0
 30 31  1  0  0  0  0
 30 27  1  0  0  0  0
M  END
>  <MODEL>
3

>  <REMARK>
 VINA RESULT:      -5.7      1.279      1.856
  Name = 
  12 active torsions:
  status: ('A' for Active; 'I' for Inactive)
    1  A    between atoms: O_1  and  C_2
    2  A    between atoms: O_1  and  C_26
    3  A    between atoms: C_2  and  C_19
    4  A    between atoms: C_3  and  C_23
    5  A    between atoms: C_5  and  C_9
    6  A    between atoms: C_5  and  C_18
    7  A    between atoms: C_6  and  C_31
    8  A    between atoms: C_9  and  C_16
    9  A    between atoms: C_13  and  C_18
   10  A    between atoms: C_20  and  C_23
   11  A    between atoms: C_20  and  C_31
   12  A    between atoms: C_26  and  C_31
                            x       y       z     vdW  Elec       q    Type
                         _______ _______ _______ _____ _____    ______ ____

>  <TORSDO>
F 12

$$$$
=
 OpenBabel11042418553D

 31 31  0  0  1  0  0  0  0  0999 V2000
  190.6460  174.6730  144.0340 C   0  0  0  0  0  0  0  0  0  0  0  0
  190.3630  175.4270  145.1200 C   0  0  0  0  0  0  0  0  0  0  0  0
  191.7940  174.9130  143.2840 O   0  0  0  0  0  1  0  0  0  0  0  0
  191.3100  176.5630  145.5270 C   0  0  2  0  0  0  0  0  0  0  0  0
  190.8280  177.1590  146.6940 O   0  0  0  0  0  1  0  0  0  0  0  0
  191.4270  177.6610  144.4800 C   0  0  0  0  0  1  0  0  0  0  0  0
  192.7190  175.2010  146.9400 O   0  0  0  0  0  1  0  0  0  0  0  0
  192.7120  176.0210  145.8080 C   0  0  0  0  0  2  0  0  0  0  0  0
  189.3320  174.4910  147.2540 C   0  0  0  0  0  1  0  0  0  0  0  0
  189.0920  175.1210  145.8880 C   0  0  1  0  0  3  0  0  0  0  0  0
  187.3480  176.5760  147.0190 C   0  0  0  0  0  3  0  0  0  0  0  0
  185.3550  179.4630  145.7560 N   0  0  0  0  0  1  0  0  0  0  0  0
  185.7150  177.9590  148.1250 O   0  0  0  0  0  1  0  0  0  0  0  0
  188.0890  176.2370  145.8760 C   0  0  0  0  0  0  0  0  0  0  0  0
  186.4420  177.6400  146.9850 C   0  0  0  0  0  0  0  0  0  0  0  0
  187.9200  176.9810  144.7020 C   0  0  0  0  0  3  0  0  0  0  0  0
  187.0140  178.0450  144.6660 C   0  0  0  0  0  3  0  0  0  0  0  0
  186.2740  178.3760  145.8040 C   0  0  0  0  0  0  0  0  0  0  0  0
  189.7600  173.5440  143.5980 C   0  0  0  0  0  2  0  0  0  0  0  0
  188.6590  174.0400  142.6710 C   0  0  0  0  0  2  0  0  0  0  0  0
  189.2190  174.5450  141.3460 C   0  0  1  0  0  3  0  0  0  0  0  0
  189.8320  173.4150  140.5930 C   0  0  0  0  0  0  0  0  0  0  0  0
  191.1940  173.4080  140.3120 O   0  0  0  0  0  1  0  0  0  0  0  0
  189.1110  172.4570  140.2110 O   0  0  0  0  0  0  0  0  0  0  0  0
  188.1290  175.1940  140.5030 C   0  0  0  0  0  2  0  0  0  0  0  0
  187.2650  175.9790  141.3170 O   0  0  0  0  0  0  0  0  0  0  0  0
  187.1440  177.3650  141.1750 C   0  0  0  0  0  0  0  0  0  0  0  0
  188.1850  178.0750  141.1970 O   0  0  0  0  0  0  0  0  0  0  0  0
  185.2540  177.6580  139.7750 O   0  0  0  0  0  1  0  0  0  0  0  0
  185.8060  178.0160  141.0050 C   0  0  1  0  0  3  0  0  0  0  0  0
  184.9140  177.6090  142.0770 N   0  0  0  0  0  1  0  0  0  0  0  0
  1  2  2  0  0  0  0
  2  4  1  0  0  0  0
  2 10  1  0  0  0  0
  3  1  1  0  0  0  0
  4  6  1  6  0  0  0
  4  8  1  0  0  0  0
  4  5  1  0  0  0  0
  8  7  1  0  0  0  0
 10  9  1  1  0  0  0
 12 18  1  0  0  0  0
 14 10  1  0  0  0  0
 14 11  2  0  0  0  0
 15 11  1  0  0  0  0
 15 13  1  0  0  0  0
 16 14  1  0  0  0  0
 17 16  2  0  0  0  0
 17 18  1  0  0  0  0
 18 15  2  0  0  0  0
 19  1  1  0  0  0  0
 20 19  1  0  0  0  0
 21 25  1  6  0  0  0
 21 20  1  0  0  0  0
 22 21  1  0  0  0  0
 23 22  1  0  0  0  0
 24 22  2  0  0  0  0
 25 26  1  0  0  0  0
 27 28  2  0  0  0  0
 27 26  1  0  0  0  0
 30 29  1  6  0  0  0
 30 27  1  0  0  0  0
 30 31  1  0  0  0  0
M  END
>  <MODEL>
4

>  <REMARK>
 VINA RESULT:      -5.7      2.095      5.270
  Name = 
  12 active torsions:
  status: ('A' for Active; 'I' for Inactive)
    1  A    between atoms: O_1  and  C_2
    2  A    between atoms: O_1  and  C_26
    3  A    between atoms: C_2  and  C_19
    4  A    between atoms: C_3  and  C_23
    5  A    between atoms: C_5  and  C_9
    6  A    between atoms: C_5  and  C_18
    7  A    between atoms: C_6  and  C_31
    8  A    between atoms: C_9  and  C_16
    9  A    between atoms: C_13  and  C_18
   10  A    between atoms: C_20  and  C_23
   11  A    between atoms: C_20  and  C_31
   12  A    between atoms: C_26  and  C_31
                            x       y       z     vdW  Elec       q    Type
                         _______ _______ _______ _____ _____    ______ ____

>  <TORSDO>
F 12

$$$$
=
 OpenBabel11042418553D

 31 31  0  0  1  0  0  0  0  0999 V2000
  189.2920  177.1490  145.1890 C   0  0  0  0  0  0  0  0  0  0  0  0
  190.3020  176.2540  145.2660 C   0  0  0  0  0  0  0  0  0  0  0  0
  188.5190  177.4430  146.3100 O   0  0  0  0  0  1  0  0  0  0  0  0
  190.5980  175.5470  146.5950 C   0  0  2  0  0  0  0  0  0  0  0  0
  191.6700  174.6710  146.4150 O   0  0  0  0  0  1  0  0  0  0  0  0
  189.4300  174.7240  147.1180 C   0  0  0  0  0  1  0  0  0  0  0  0
  192.3480  176.8610  147.6200 O   0  0  0  0  0  1  0  0  0  0  0  0
  190.9830  176.5650  147.6700 C   0  0  0  0  0  2  0  0  0  0  0  0
  192.5510  176.4260  144.0780 C   0  0  0  0  0  1  0  0  0  0  0  0
  191.0990  175.9710  144.0070 C   0  0  1  0  0  3  0  0  0  0  0  0
  189.6160  174.0570  143.2490 C   0  0  0  0  0  3  0  0  0  0  0  0
  190.4450  170.7190  141.8100 N   0  0  0  0  0  1  0  0  0  0  0  0
  188.1830  172.2650  142.5130 O   0  0  0  0  0  1  0  0  0  0  0  0
  190.8980  174.5890  143.4560 C   0  0  0  0  0  0  0  0  0  0  0  0
  189.4600  172.7780  142.7070 C   0  0  0  0  0  0  0  0  0  0  0  0
  192.0210  173.8310  143.1040 C   0  0  0  0  0  3  0  0  0  0  0  0
  191.8670  172.5520  142.5630 C   0  0  0  0  0  3  0  0  0  0  0  0
  190.5890  172.0230  142.3640 C   0  0  0  0  0  0  0  0  0  0  0  0
  188.9680  177.8740  143.9170 C   0  0  0  0  0  2  0  0  0  0  0  0
  187.6980  177.3240  143.2820 C   0  0  0  0  0  2  0  0  0  0  0  0
  186.9980  178.3670  142.4190 C   0  0  1  0  0  3  0  0  0  0  0  0
  186.6870  177.7890  141.0810 C   0  0  0  0  0  0  0  0  0  0  0  0
  185.6200  178.2740  140.3330 O   0  0  0  0  0  0  0  0  0  0  0  0
  187.3970  176.8560  140.6250 O   0  0  0  0  0  1  0  0  0  0  0  0
  185.7150  178.8540  143.0820 C   0  0  0  0  0  2  0  0  0  0  0  0
  186.0050  179.5440  144.2910 O   0  0  0  0  0  0  0  0  0  0  0  0
  185.5830  179.0850  145.5430 C   0  0  0  0  0  0  0  0  0  0  0  0
  186.0110  179.6580  146.5800 O   0  0  0  0  0  0  0  0  0  0  0  0
  185.3630  176.7450  145.8460 O   0  0  0  0  0  1  0  0  0  0  0  0
  184.6430  177.9270  145.6710 C   0  0  1  0  0  3  0  0  0  0  0  0
  183.7540  178.1280  146.8020 N   0  0  0  0  0  1  0  0  0  0  0  0
  1  2  2  0  0  0  0
  1  3  1  0  0  0  0
  2  4  1  0  0  0  0
  4  6  1  1  0  0  0
  4  8  1  0  0  0  0
  5  4  1  0  0  0  0
  7  8  1  0  0  0  0
 10  9  1  1  0  0  0
 10  2  1  0  0  0  0
 11 14  1  0  0  0  0
 12 18  1  0  0  0  0
 13 15  1  0  0  0  0
 14 10  1  0  0  0  0
 15 11  2  0  0  0  0
 16 14  2  0  0  0  0
 17 16  1  0  0  0  0
 18 17  2  0  0  0  0
 18 15  1  0  0  0  0
 19  1  1  0  0  0  0
 20 19  1  0  0  0  0
 21 25  1  1  0  0  0
 21 20  1  0  0  0  0
 22 21  1  0  0  0  0
 23 22  2  0  0  0  0
 24 22  1  0  0  0  0
 25 26  1  0  0  0  0
 26 27  1  0  0  0  0
 27 30  1  0  0  0  0
 27 28  2  0  0  0  0
 30 29  1  1  0  0  0
 30 31  1  0  0  0  0
M  END
>  <MODEL>
5

>  <REMARK>
 VINA RESULT:      -5.5      2.130      3.849
  Name = 
  12 active torsions:
  status: ('A' for Active; 'I' for Inactive)
    1  A    between atoms: O_1  and  C_2
    2  A    between atoms: O_1  and  C_26
    3  A    between atoms: C_2  and  C_19
    4  A    between atoms: C_3  and  C_23
    5  A    between atoms: C_5  and  C_9
    6  A    between atoms: C_5  and  C_18
    7  A    between atoms: C_6  and  C_31
    8  A    between atoms: C_9  and  C_16
    9  A    between atoms: C_13  and  C_18
   10  A    between atoms: C_20  and  C_23
   11  A    between atoms: C_20  and  C_31
   12  A    between atoms: C_26  and  C_31
                            x       y       z     vdW  Elec       q    Type
                         _______ _______ _______ _____ _____    ______ ____

>  <TORSDO>
F 12

$$$$
=
 OpenBabel11042418553D

 31 31  0  0  1  0  0  0  0  0999 V2000
  190.1680  174.6300  144.6930 C   0  0  0  0  0  0  0  0  0  0  0  0
  189.5990  175.6320  143.9850 C   0  0  0  0  0  0  0  0  0  0  0  0
  190.3030  173.3600  144.1410 O   0  0  0  0  0  1  0  0  0  0  0  0
  189.0900  175.3660  142.5620 C   0  0  2  0  0  0  0  0  0  0  0  0
  188.9410  176.5860  141.8980 O   0  0  0  0  0  1  0  0  0  0  0  0
  187.7400  174.6660  142.5210 C   0  0  0  0  0  1  0  0  0  0  0  0
  189.5830  174.1510  140.5320 O   0  0  0  0  0  1  0  0  0  0  0  0
  190.0930  174.5140  141.7820 C   0  0  0  0  0  2  0  0  0  0  0  0
  190.2850  178.0860  143.9700 C   0  0  0  0  0  1  0  0  0  0  0  0
  189.4730  176.9900  144.6470 C   0  0  1  0  0  3  0  0  0  0  0  0
  187.3630  178.3450  144.2600 C   0  0  0  0  0  3  0  0  0  0  0  0
  184.0570  178.3010  145.9850 N   0  0  0  0  0  1  0  0  0  0  0  0
  185.3640  179.6280  143.8550 O   0  0  0  0  0  1  0  0  0  0  0  0
  188.0620  177.3710  144.9900 C   0  0  0  0  0  0  0  0  0  0  0  0
  186.0400  178.6580  144.5860 C   0  0  0  0  0  0  0  0  0  0  0  0
  187.4190  176.7070  146.0410 C   0  0  0  0  0  3  0  0  0  0  0  0
  186.0960  177.0180  146.3680 C   0  0  0  0  0  3  0  0  0  0  0  0
  185.4050  177.9930  145.6440 C   0  0  0  0  0  0  0  0  0  0  0  0
  190.6910  174.8390  146.0840 C   0  0  0  0  0  2  0  0  0  0  0  0
  192.1840  174.5480  146.1560 C   0  0  0  0  0  2  0  0  0  0  0  0
  193.0020  175.5960  145.4100 C   0  0  1  0  0  3  0  0  0  0  0  0
  194.1650  176.0150  146.2410 C   0  0  0  0  0  0  0  0  0  0  0  0
  195.3190  175.2410  146.2840 O   0  0  0  0  0  0  0  0  0  0  0  0
  194.1020  177.0800  146.9090 O   0  0  0  0  0  1  0  0  0  0  0  0
  193.4920  175.0570  144.0720 C   0  0  0  0  0  2  0  0  0  0  0  0
  193.9710  176.1140  143.2490 O   0  0  0  0  0  0  0  0  0  0  0  0
  195.2640  176.1290  142.7160 C   0  0  0  0  0  0  0  0  0  0  0  0
  196.1940  176.6590  143.3800 O   0  0  0  0  0  0  0  0  0  0  0  0
  194.4480  175.6720  140.5380 O   0  0  0  0  0  1  0  0  0  0  0  0
  195.5580  175.5370  141.3720 C   0  0  1  0  0  3  0  0  0  0  0  0
  196.7020  176.2020  140.7730 N   0  0  0  0  0  1  0  0  0  0  0  0
  1 19  1  0  0  0  0
  2 10  1  0  0  0  0
  2  1  2  0  0  0  0
  3  1  1  0  0  0  0
  4  6  1  1  0  0  0
  4  2  1  0  0  0  0
  5  4  1  0  0  0  0
  7  8  1  0  0  0  0
  8  4  1  0  0  0  0
 10  9  1  6  0  0  0
 10 14  1  0  0  0  0
 11 15  2  0  0  0  0
 11 14  1  0  0  0  0
 13 15  1  0  0  0  0
 14 16  2  0  0  0  0
 15 18  1  0  0  0  0
 16 17  1  0  0  0  0
 18 12  1  0  0  0  0
 18 17  2  0  0  0  0
 19 20  1  0  0  0  0
 21 25  1  6  0  0  0
 21 20  1  0  0  0  0
 21 22  1  0  0  0  0
 22 23  2  0  0  0  0
 22 24  1  0  0  0  0
 26 25  1  0  0  0  0
 27 26  1  0  0  0  0
 27 28  2  0  0  0  0
 30 29  1  6  0  0  0
 30 27  1  0  0  0  0
 31 30  1  0  0  0  0
M  END
>  <MODEL>
6

>  <REMARK>
 VINA RESULT:      -5.5      2.772      6.686
  Name = 
  12 active torsions:
  status: ('A' for Active; 'I' for Inactive)
    1  A    between atoms: O_1  and  C_2
    2  A    between atoms: O_1  and  C_26
    3  A    between atoms: C_2  and  C_19
    4  A    between atoms: C_3  and  C_23
    5  A    between atoms: C_5  and  C_9
    6  A    between atoms: C_5  and  C_18
    7  A    between atoms: C_6  and  C_31
    8  A    between atoms: C_9  and  C_16
    9  A    between atoms: C_13  and  C_18
   10  A    between atoms: C_20  and  C_23
   11  A    between atoms: C_20  and  C_31
   12  A    between atoms: C_26  and  C_31
                            x       y       z     vdW  Elec       q    Type
                         _______ _______ _______ _____ _____    ______ ____

>  <TORSDO>
F 12

$$$$
=
 OpenBabel11042418553D

 31 31  0  0  1  0  0  0  0  0999 V2000
  188.5550  177.5450  145.4360 C   0  0  0  0  0  0  0  0  0  0  0  0
  188.0200  177.5270  144.1940 C   0  0  0  0  0  0  0  0  0  0  0  0
  187.7510  177.7770  146.5490 O   0  0  0  0  0  1  0  0  0  0  0  0
  186.5180  177.7720  144.0060 C   0  0  2  0  0  0  0  0  0  0  0  0
  185.8100  176.7160  144.5820 O   0  0  0  0  0  1  0  0  0  0  0  0
  186.0940  177.8520  142.5470 C   0  0  0  0  0  1  0  0  0  0  0  0
  185.1920  179.7900  143.9090 O   0  0  0  0  0  1  0  0  0  0  0  0
  186.0940  179.0690  144.6970 C   0  0  0  0  0  2  0  0  0  0  0  0
  190.1730  178.1880  143.0000 C   0  0  0  0  0  1  0  0  0  0  0  0
  188.9510  177.2790  143.0230 C   0  0  1  0  0  3  0  0  0  0  0  0
  188.2140  174.9040  142.5170 C   0  0  0  0  0  3  0  0  0  0  0  0
  190.1750  171.7780  141.9820 N   0  0  0  0  0  1  0  0  0  0  0  0
  187.4880  172.6630  142.0110 O   0  0  0  0  0  1  0  0  0  0  0  0
  189.2400  175.8270  142.7710 C   0  0  0  0  0  0  0  0  0  0  0  0
  188.5170  173.5640  142.2570 C   0  0  0  0  0  0  0  0  0  0  0  0
  190.5720  175.3970  142.7510 C   0  0  0  0  0  3  0  0  0  0  0  0
  190.8770  174.0580  142.4930 C   0  0  0  0  0  3  0  0  0  0  0  0
  189.8520  173.1400  142.2460 C   0  0  0  0  0  0  0  0  0  0  0  0
  190.0150  177.3010  145.6760 C   0  0  0  0  0  2  0  0  0  0  0  0
  190.2730  176.9070  147.1240 C   0  0  0  0  0  2  0  0  0  0  0  0
  190.7240  175.4560  147.2440 C   0  0  1  0  0  3  0  0  0  0  0  0
  189.5920  174.5460  146.9090 C   0  0  0  0  0  0  0  0  0  0  0  0
  189.6610  173.7090  145.8010 O   0  0  0  0  0  0  0  0  0  0  0  0
  188.5660  174.5350  147.6370 O   0  0  0  0  0  1  0  0  0  0  0  0
  191.9030  175.1710  146.3230 C   0  0  0  0  0  2  0  0  0  0  0  0
  193.1120  175.6650  146.8880 O   0  0  0  0  0  0  0  0  0  0  0  0
  194.2720  175.8660  146.1330 C   0  0  0  0  0  0  0  0  0  0  0  0
  195.2900  175.1660  146.3790 O   0  0  0  0  0  0  0  0  0  0  0  0
  195.1550  177.9520  145.4350 O   0  0  0  0  0  1  0  0  0  0  0  0
  194.3270  176.8970  145.0490 C   0  0  1  0  0  3  0  0  0  0  0  0
  194.8310  176.3050  143.8220 N   0  0  0  0  0  1  0  0  0  0  0  0
  1 19  1  0  0  0  0
  1  3  1  0  0  0  0
  2  1  2  0  0  0  0
  4  6  1  6  0  0  0
  4  2  1  0  0  0  0
  4  5  1  0  0  0  0
  4  8  1  0  0  0  0
  7  8  1  0  0  0  0
 10  9  1  1  0  0  0
 10  2  1  0  0  0  0
 11 14  1  0  0  0  0
 12 18  1  0  0  0  0
 13 15  1  0  0  0  0
 14 10  1  0  0  0  0
 15 11  2  0  0  0  0
 16 14  2  0  0  0  0
 17 16  1  0  0  0  0
 18 15  1  0  0  0  0
 18 17  2  0  0  0  0
 19 20  1  0  0  0  0
 20 21  1  0  0  0  0
 21 25  1  6  0  0  0
 22 21  1  0  0  0  0
 22 24  1  0  0  0  0
 23 22  2  0  0  0  0
 25 26  1  0  0  0  0
 27 28  2  0  0  0  0
 27 26  1  0  0  0  0
 30 31  1  6  0  0  0
 30 29  1  0  0  0  0
 30 27  1  0  0  0  0
M  END
>  <MODEL>
7

>  <REMARK>
 VINA RESULT:      -5.5      2.189      5.515
  Name = 
  12 active torsions:
  status: ('A' for Active; 'I' for Inactive)
    1  A    between atoms: O_1  and  C_2
    2  A    between atoms: O_1  and  C_26
    3  A    between atoms: C_2  and  C_19
    4  A    between atoms: C_3  and  C_23
    5  A    between atoms: C_5  and  C_9
    6  A    between atoms: C_5  and  C_18
    7  A    between atoms: C_6  and  C_31
    8  A    between atoms: C_9  and  C_16
    9  A    between atoms: C_13  and  C_18
   10  A    between atoms: C_20  and  C_23
   11  A    between atoms: C_20  and  C_31
   12  A    between atoms: C_26  and  C_31
                            x       y       z     vdW  Elec       q    Type
                         _______ _______ _______ _____ _____    ______ ____

>  <TORSDO>
F 12

$$$$
=
 OpenBabel11042418553D

 31 31  0  0  1  0  0  0  0  0999 V2000
  190.9080  176.9850  143.8990 C   0  0  0  0  0  0  0  0  0  0  0  0
  191.5250  175.7910  144.0520 C   0  0  0  0  0  0  0  0  0  0  0  0
  191.6490  178.1590  143.8080 O   0  0  0  0  0  1  0  0  0  0  0  0
  193.0550  175.7280  144.1340 C   0  0  2  0  0  0  0  0  0  0  0  0
  193.5960  176.3140  142.9880 O   0  0  0  0  0  1  0  0  0  0  0  0
  193.6020  174.3100  144.2120 C   0  0  0  0  0  1  0  0  0  0  0  0
  193.2300  175.8410  146.5420 O   0  0  0  0  0  1  0  0  0  0  0  0
  193.5600  176.5010  145.3540 C   0  0  0  0  0  2  0  0  0  0  0  0
  189.7080  174.5560  145.3430 C   0  0  0  0  0  1  0  0  0  0  0  0
  190.6590  174.5500  144.1540 C   0  0  1  0  0  3  0  0  0  0  0  0
  190.7850  174.0780  141.6640 C   0  0  0  0  0  3  0  0  0  0  0  0
  188.2160  172.8420  139.2590 N   0  0  0  0  0  1  0  0  0  0  0  0
  190.9380  173.6130  139.3050 O   0  0  0  0  0  1  0  0  0  0  0  0
  190.0390  174.1300  142.8520 C   0  0  0  0  0  0  0  0  0  0  0  0
  190.1870  173.6550  140.4730 C   0  0  0  0  0  0  0  0  0  0  0  0
  188.6940  173.7440  142.8380 C   0  0  0  0  0  3  0  0  0  0  0  0
  188.0950  173.3220  141.6480 C   0  0  0  0  0  3  0  0  0  0  0  0
  188.8380  173.2760  140.4650 C   0  0  0  0  0  0  0  0  0  0  0  0
  189.4150  177.1000  143.8020 C   0  0  0  0  0  2  0  0  0  0  0  0
  188.9990  177.7190  142.4750 C   0  0  0  0  0  2  0  0  0  0  0  0
  187.5360  178.1470  142.4830 C   0  0  1  0  0  3  0  0  0  0  0  0
  186.7960  177.4370  141.4030 C   0  0  0  0  0  0  0  0  0  0  0  0
  185.4410  177.6760  141.1980 O   0  0  0  0  0  1  0  0  0  0  0  0
  187.4020  176.6140  140.6690 O   0  0  0  0  0  0  0  0  0  0  0  0
  186.8890  177.8550  143.8310 C   0  0  0  0  0  2  0  0  0  0  0  0
  186.1210  178.9680  144.2720 O   0  0  0  0  0  0  0  0  0  0  0  0
  184.8200  178.8410  144.7680 C   0  0  0  0  0  0  0  0  0  0  0  0
  183.8480  178.9640  143.9750 O   0  0  0  0  0  0  0  0  0  0  0  0
  184.5580  177.1940  146.4520 O   0  0  0  0  0  1  0  0  0  0  0  0
  184.5630  178.5690  146.2180 C   0  0  1  0  0  3  0  0  0  0  0  0
  185.5880  179.1980  147.0320 N   0  0  0  0  0  1  0  0  0  0  0  0
  1  2  2  0  0  0  0
  2  4  1  0  0  0  0
  2 10  1  0  0  0  0
  3  1  1  0  0  0  0
  4  6  1  1  0  0  0
  4  8  1  0  0  0  0
  5  4  1  0  0  0  0
  8  7  1  0  0  0  0
 10  9  1  1  0  0  0
 11 14  1  0  0  0  0
 12 18  1  0  0  0  0
 13 15  1  0  0  0  0
 14 10  1  0  0  0  0
 15 11  2  0  0  0  0
 16 14  2  0  0  0  0
 17 16  1  0  0  0  0
 18 15  1  0  0  0  0
 18 17  2  0  0  0  0
 19  1  1  0  0  0  0
 20 19  1  0  0  0  0
 21 20  1  1  0  0  0
 21 25  1  0  0  0  0
 22 21  1  0  0  0  0
 23 22  1  0  0  0  0
 24 22  2  0  0  0  0
 25 26  1  0  0  0  0
 26 27  1  0  0  0  0
 27 30  1  0  0  0  0
 28 27  2  0  0  0  0
 30 29  1  6  0  0  0
 30 31  1  0  0  0  0
M  END
>  <MODEL>
8

>  <REMARK>
 VINA RESULT:      -5.4      2.422      4.048
  Name = 
  12 active torsions:
  status: ('A' for Active; 'I' for Inactive)
    1  A    between atoms: O_1  and  C_2
    2  A    between atoms: O_1  and  C_26
    3  A    between atoms: C_2  and  C_19
    4  A    between atoms: C_3  and  C_23
    5  A    between atoms: C_5  and  C_9
    6  A    between atoms: C_5  and  C_18
    7  A    between atoms: C_6  and  C_31
    8  A    between atoms: C_9  and  C_16
    9  A    between atoms: C_13  and  C_18
   10  A    between atoms: C_20  and  C_23
   11  A    between atoms: C_20  and  C_31
   12  A    between atoms: C_26  and  C_31
                            x       y       z     vdW  Elec       q    Type
                         _______ _______ _______ _____ _____    ______ ____

>  <TORSDO>
F 12

$$$$
=
 OpenBabel11042418553D

 31 31  0  0  1  0  0  0  0  0999 V2000
  189.3670  176.1380  142.9680 C   0  0  0  0  0  0  0  0  0  0  0  0
  189.9320  175.0480  143.5350 C   0  0  0  0  0  0  0  0  0  0  0  0
  188.7100  176.0400  141.7440 O   0  0  0  0  0  1  0  0  0  0  0  0
  189.8560  173.6910  142.8220 C   0  0  2  0  0  0  0  0  0  0  0  0
  188.5380  173.4610  142.4220 O   0  0  0  0  0  1  0  0  0  0  0  0
  190.2680  172.5190  143.7010 C   0  0  0  0  0  1  0  0  0  0  0  0
  191.3750  172.4520  141.4090 O   0  0  0  0  0  1  0  0  0  0  0  0
  190.7440  173.6880  141.5770 C   0  0  0  0  0  2  0  0  0  0  0  0
  189.9870  174.4750  146.0180 C   0  0  0  0  0  1  0  0  0  0  0  0
  190.6410  175.2230  144.8630 C   0  0  1  0  0  3  0  0  0  0  0  0
  192.8870  175.7410  143.8020 C   0  0  0  0  0  3  0  0  0  0  0  0
  196.3420  174.6650  144.7000 N   0  0  0  0  0  1  0  0  0  0  0  0
  195.0080  176.2700  142.7900 O   0  0  0  0  0  1  0  0  0  0  0  0
  192.1330  175.0760  144.7820 C   0  0  0  0  0  0  0  0  0  0  0  0
  194.2780  175.6070  143.7690 C   0  0  0  0  0  0  0  0  0  0  0  0
  192.7870  174.2850  145.7330 C   0  0  0  0  0  3  0  0  0  0  0  0
  194.1780  174.1500  145.7020 C   0  0  0  0  0  3  0  0  0  0  0  0
  194.9250  174.8090  144.7220 C   0  0  0  0  0  0  0  0  0  0  0  0
  189.4040  177.4850  143.6270 C   0  0  0  0  0  2  0  0  0  0  0  0
  188.0180  177.9010  144.0990 C   0  0  0  0  0  2  0  0  0  0  0  0
  187.2710  176.7440  144.7530 C   0  0  1  0  0  3  0  0  0  0  0  0
  187.0810  177.0210  146.2040 C   0  0  0  0  0  0  0  0  0  0  0  0
  185.8640  176.7550  146.8220 O   0  0  0  0  0  0  0  0  0  0  0  0
  188.0310  177.4990  146.8770 O   0  0  0  0  0  1  0  0  0  0  0  0
  185.9180  176.5210  144.0890 C   0  0  0  0  0  2  0  0  0  0  0  0
  185.6400  177.5570  143.1540 O   0  0  0  0  0  0  0  0  0  0  0  0
  184.4460  178.2850  143.1660 C   0  0  0  0  0  0  0  0  0  0  0  0
  183.5580  178.0170  142.3150 O   0  0  0  0  0  0  0  0  0  0  0  0
  183.8240  178.8290  145.3880 O   0  0  0  0  0  1  0  0  0  0  0  0
  184.2110  179.3770  144.1640 C   0  0  1  0  0  3  0  0  0  0  0  0
  185.4210  180.1600  144.3420 N   0  0  0  0  0  1  0  0  0  0  0  0
  1  2  2  0  0  0  0
  1 19  1  0  0  0  0
  2 10  1  0  0  0  0
  3  1  1  0  0  0  0
  4  2  1  0  0  0  0
  4  6  1  1  0  0  0
  5  4  1  0  0  0  0
  7  8  1  0  0  0  0
  8  4  1  0  0  0  0
 10  9  1  1  0  0  0
 11 14  1  0  0  0  0
 12 18  1  0  0  0  0
 13 15  1  0  0  0  0
 14 10  1  0  0  0  0
 14 16  2  0  0  0  0
 15 11  2  0  0  0  0
 15 18  1  0  0  0  0
 17 16  1  0  0  0  0
 18 17  2  0  0  0  0
 19 20  1  0  0  0  0
 20 21  1  0  0  0  0
 21 25  1  6  0  0  0
 21 22  1  0  0  0  0
 22 23  2  0  0  0  0
 22 24  1  0  0  0  0
 26 27  1  0  0  0  0
 26 25  1  0  0  0  0
 27 30  1  0  0  0  0
 28 27  2  0  0  0  0
 30 31  1  1  0  0  0
 30 29  1  0  0  0  0
M  END
>  <MODEL>
9

>  <REMARK>
 VINA RESULT:      -5.4      2.549      4.516
  Name = 
  12 active torsions:
  status: ('A' for Active; 'I' for Inactive)
    1  A    between atoms: O_1  and  C_2
    2  A    between atoms: O_1  and  C_26
    3  A    between atoms: C_2  and  C_19
    4  A    between atoms: C_3  and  C_23
    5  A    between atoms: C_5  and  C_9
    6  A    between atoms: C_5  and  C_18
    7  A    between atoms: C_6  and  C_31
    8  A    between atoms: C_9  and  C_16
    9  A    between atoms: C_13  and  C_18
   10  A    between atoms: C_20  and  C_23
   11  A    between atoms: C_20  and  C_31
   12  A    between atoms: C_26  and  C_31
                            x       y       z     vdW  Elec       q    Type
                         _______ _______ _______ _____ _____    ______ ____

>  <TORSDO>
F 12

$$$$
