=
 OpenBabel11042416133D

 60 69  0  0  1  0  0  0  0  0999 V2000
  188.1530  175.4490  141.3730 C   0  0  0  0  0  3  0  0  0  0  0  0
  190.2860  175.2620  143.1890 C   0  0  0  0  0  0  0  0  0  0  0  0
  188.6480  176.6070  141.9830 C   0  0  0  0  0  0  0  0  0  0  0  0
  189.7870  174.1160  142.5570 C   0  0  0  0  0  3  0  0  0  0  0  0
  190.2270  177.6730  143.4780 O   0  0  0  0  0  1  0  0  0  0  0  0
  189.7170  176.5160  142.8940 C   0  0  0  0  0  0  0  0  0  0  0  0
  188.7290  174.2030  141.6480 C   0  0  0  0  0  0  0  0  0  0  0  0
  193.0610  175.3910  141.2870 C   0  0  0  0  0  3  0  0  0  0  0  0
  195.4990  175.3560  143.8910 C   0  0  0  0  0  0  0  0  0  0  0  0
  192.7100  175.2490  143.8680 N   0  0  0  0  0  0  0  0  0  0  0  0
  194.1180  175.4880  140.5340 N   0  0  0  0  0  0  0  0  0  0  0  0
  196.4760  175.0030  141.1990 C   0  0  0  0  0  3  0  0  0  0  0  0
  193.3540  175.0900  145.0430 C   0  0  0  0  0  0  0  0  0  0  0  0
  193.4190  175.6340  142.6790 C   0  0  0  0  0  0  0  0  0  0  0  0
  196.7140  174.8260  143.6750 C   0  0  0  0  0  0  0  0  0  0  0  0
  194.7220  175.8080  142.7230 C   0  0  0  0  0  0  0  0  0  0  0  0
  195.2650  175.8890  141.3510 C   0  0  2  0  0  3  0  0  0  0  0  0
  192.5350  174.8540  146.0830 N   0  0  0  0  0  0  0  0  0  0  0  0
  194.7880  175.1390  145.1260 N   0  0  0  0  0  2  0  0  0  0  0  0
  197.1680  174.5770  142.2710 C   0  0  0  0  0  3  0  0  0  0  0  0
  191.2980  174.8840  145.5200 C   0  0  0  0  0  0  0  0  0  0  0  0
  191.3970  175.1340  144.1540 C   0  0  0  0  0  0  0  0  0  0  0  0
  189.3260  175.9680  146.5360 C   0  0  1  0  0  3  0  0  0  0  0  0
  190.0720  175.2780  147.6560 C   0  0  0  0  0  2  0  0  0  0  0  0
  190.0200  174.6440  146.2720 C   0  0  2  0  0  3  0  0  0  0  0  0
  187.8400  175.7600  146.7460 C   0  0  0  0  0  2  0  0  0  0  0  0
  185.0260  177.8430  145.5720 C   0  0  0  0  0  2  0  0  0  0  0  0
  185.9770  178.9600  147.3530 C   0  0  0  0  0  2  0  0  0  0  0  0
  186.3050  177.4950  147.4940 C   0  0  2  0  0  3  0  0  0  0  0  0
  184.9390  179.0720  146.3440 N   0  0  0  0  0  2  0  0  0  0  0  0
  187.0970  177.0310  146.3580 C   0  0  2  0  0  3  0  0  0  0  0  0
  185.6420  176.7970  146.3840 N   0  0  2  0  0  0  0  0  0  0  0  0
  197.4820  174.3230  144.7730 N   0  0  0  0  0  2  0  0  0  0  0  0
  197.9020  172.9330  144.8440 C   0  0  0  0  0  2  0  0  0  0  0  0
  196.7500  171.3730  146.2220 O   0  0  0  0  0  1  0  0  0  0  0  0
  196.6950  172.0260  144.9900 C   0  0  0  0  0  2  0  0  0  0  0  0
  188.2320  172.9700  140.9700 C   0  0  0  0  0  2  0  0  0  0  0  0
  188.4140  173.0950  139.4660 C   0  0  0  0  0  2  0  0  0  0  0  0
  190.2370  171.5230  138.7980 C   0  0  0  0  0  0  0  0  0  0  0  0
  189.4040  170.6920  138.3420 O   0  0  0  0  0  0  0  0  0  0  0  0
  189.7980  172.8510  139.1040 N   0  0  0  0  0  2  0  0  0  0  0  0
  192.4800  172.1760  139.7820 C   0  0  2  0  0  3  0  0  0  0  0  0
  191.6860  171.1220  138.9660 C   0  0  2  0  0  3  0  0  0  0  0  0
  193.7060  171.3960  137.3820 C   0  0  1  0  0  0  0  0  0  0  0  0
  192.4810  171.9110  136.6700 C   0  0  0  0  0  2  0  0  0  0  0  0
  194.2730  172.3310  138.4440 C   0  0  0  0  0  2  0  0  0  0  0  0
  192.3580  170.7200  137.6260 C   0  0  2  0  0  3  0  0  0  0  0  0
  193.8600  171.9140  139.7140 O   0  0  0  0  0  0  0  0  0  0  0  0
  194.5850  170.6930  136.5590 O   0  0  0  0  0  1  0  0  0  0  0  0
  192.0700  172.1250  141.1220 O   0  0  0  0  0  0  0  0  0  0  0  0
  193.0330  171.3570  141.7900 C   0  0  1  0  0  3  0  0  0  0  0  0
  193.6340  172.1240  142.7940 O   0  0  0  0  0  1  0  0  0  0  0  0
  192.3700  170.1170  142.3910 C   0  0  2  0  0  3  0  0  0  0  0  0
  190.9200  170.2510  142.3690 N   0  0  0  0  0  1  0  0  0  0  0  0
  192.8500  169.9040  143.8180 C   0  0  0  0  0  2  0  0  0  0  0  0
  193.7910  168.8750  143.8640 O   0  0  0  0  0  1  0  0  0  0  0  0
  188.0560  177.9270  141.6270 C   0  0  0  0  0  2  0  0  0  0  0  0
  186.9440  178.2950  142.5900 C   0  0  0  0  0  2  0  0  0  0  0  0
  185.6650  178.1310  140.4830 C   0  0  0  0  0  1  0  0  0  0  0  0
  185.6140  177.9240  141.9780 C   0  0  0  0  0  2  0  0  0  0  0  0
  1  7  2  0  0  0  0
  1  3  1  0  0  0  0
  2 22  1  0  0  0  0
  3  6  2  0  0  0  0
  4  2  2  0  0  0  0
  6  2  1  0  0  0  0
  6  5  1  0  0  0  0
  7  4  1  0  0  0  0
  8 14  1  0  0  0  0
  9 19  1  0  0  0  0
 10 22  1  0  0  0  0
 10 13  1  0  0  0  0
 11  8  2  0  0  0  0
 11 17  1  0  0  0  0
 12 20  2  0  0  0  0
 13 19  1  0  0  0  0
 13 18  2  0  0  0  0
 14 16  2  0  0  0  0
 14 10  1  0  0  0  0
 15  9  2  0  0  0  0
 15 33  1  0  0  0  0
 16  9  1  0  0  0  0
 17 12  1  1  0  0  0
 17 16  1  0  0  0  0
 20 15  1  0  0  0  0
 21 18  1  0  0  0  0
 22 21  2  0  0  0  0
 23 26  1  1  0  0  0
 23 24  1  0  0  0  0
 25 21  1  6  0  0  0
 25 23  1  0  0  0  0
 25 24  1  0  0  0  0
 27 30  1  0  0  0  0
 29 28  1  6  0  0  0
 30 28  1  0  0  0  0
 31 32  1  0  0  0  0
 31 26  1  1  0  0  0
 31 29  1  0  0  0  0
 32 27  1  6  0  0  0
 32 29  1  0  0  0  0
 33 34  1  0  0  0  0
 34 36  1  0  0  0  0
 36 35  1  0  0  0  0
 37  7  1  0  0  0  0
 38 37  1  0  0  0  0
 39 41  1  0  0  0  0
 40 39  2  0  0  0  0
 41 38  1  0  0  0  0
 42 50  1  1  0  0  0
 43 39  1  6  0  0  0
 43 42  1  0  0  0  0
 44 49  1  6  0  0  0
 44 47  1  0  0  0  0
 44 46  1  0  0  0  0
 45 44  1  0  0  0  0
 46 48  1  0  0  0  0
 47 45  1  6  0  0  0
 47 43  1  0  0  0  0
 48 42  1  0  0  0  0
 50 51  1  0  0  0  0
 51 53  1  0  0  0  0
 51 52  1  1  0  0  0
 53 54  1  1  0  0  0
 53 55  1  0  0  0  0
 55 56  1  0  0  0  0
 57  3  1  0  0  0  0
 57 58  1  0  0  0  0
 59 60  1  0  0  0  0
 60 58  1  0  0  0  0
M  END
>  <MODEL>
1

>  <REMARK>
 VINA RESULT:      -7.0      0.000      0.000
  Name = 
  18 active torsions:
  status: ('A' for Active; 'I' for Inactive)
    1  A    between atoms: C_2  and  C_11
    2  A    between atoms: C_6  and  C_51
    3  A    between atoms: C_9  and  O_27
    4  A    between atoms: C_12  and  C_54
    5  A    between atoms: C_13  and  C_52
    6  A    between atoms: C_13  and  C_54
    7  A    between atoms: N_20  and  C_24
    8  A    between atoms: N_20  and  C_35
    9  A    between atoms: C_21  and  C_38
   10  A    between atoms: C_21  and  C_58
   11  A    between atoms: O_27  and  C_41
   12  A    between atoms: C_30  and  CA_49
   13  A    between atoms: C_31  and  C_33
   14  A    between atoms: C_33  and  C_45
   15  A    between atoms: C_35  and  C_44
   16  A    between atoms: C_36  and  C_47
   17  A    between atoms: C_38  and  N_57
   18  A    between atoms: C_41  and  CA_49
                            x       y       z     vdW  Elec       q    Type
                         _______ _______ _______ _____ _____    ______ ____

>  <TORSDO>
F 18

$$$$
=
 OpenBabel11042416133D

 60 69  0  0  1  0  0  0  0  0999 V2000
  188.3700  175.7310  141.5120 C   0  0  0  0  0  3  0  0  0  0  0  0
  190.5050  175.4260  143.3080 C   0  0  0  0  0  0  0  0  0  0  0  0
  188.8790  176.8500  142.1800 C   0  0  0  0  0  0  0  0  0  0  0  0
  189.9920  174.3200  142.6190 C   0  0  0  0  0  3  0  0  0  0  0  0
  190.4740  177.8190  143.7230 O   0  0  0  0  0  1  0  0  0  0  0  0
  189.9500  176.7000  143.0810 C   0  0  0  0  0  0  0  0  0  0  0  0
  188.9320  174.4670  141.7190 C   0  0  0  0  0  0  0  0  0  0  0  0
  193.2740  175.5820  141.3990 C   0  0  0  0  0  3  0  0  0  0  0  0
  195.7220  175.3880  143.9870 C   0  0  0  0  0  0  0  0  0  0  0  0
  192.9310  175.3370  143.9740 N   0  0  0  0  0  0  0  0  0  0  0  0
  194.3300  175.6890  140.6460 N   0  0  0  0  0  0  0  0  0  0  0  0
  196.6810  175.1300  141.2770 C   0  0  0  0  0  3  0  0  0  0  0  0
  193.5770  175.1150  145.1370 C   0  0  0  0  0  0  0  0  0  0  0  0
  193.6430  175.7570  142.7990 C   0  0  0  0  0  0  0  0  0  0  0  0
  196.9260  174.8440  143.7430 C   0  0  0  0  0  0  0  0  0  0  0  0
  194.9500  175.9040  142.8440 C   0  0  0  0  0  0  0  0  0  0  0  0
  195.4880  176.0330  141.4730 C   0  0  2  0  0  3  0  0  0  0  0  0
  192.7580  174.8510  146.1710 N   0  0  0  0  0  0  0  0  0  0  0  0
  195.0120  175.1320  145.2160 N   0  0  0  0  0  2  0  0  0  0  0  0
  197.3680  174.6460  142.3270 C   0  0  0  0  0  3  0  0  0  0  0  0
  191.5200  174.9290  145.6160 C   0  0  0  0  0  0  0  0  0  0  0  0
  191.6180  175.2350  144.2620 C   0  0  0  0  0  0  0  0  0  0  0  0
  189.4920  175.9910  146.5420 C   0  0  1  0  0  3  0  0  0  0  0  0
  190.2470  175.3960  147.7090 C   0  0  0  0  0  2  0  0  0  0  0  0
  190.2400  174.6830  146.3630 C   0  0  2  0  0  3  0  0  0  0  0  0
  188.0120  175.7380  146.7430 C   0  0  0  0  0  2  0  0  0  0  0  0
  185.1500  177.7960  145.6430 C   0  0  0  0  0  2  0  0  0  0  0  0
  186.0550  178.8520  147.4850 C   0  0  0  0  0  2  0  0  0  0  0  0
  186.4230  177.3910  147.5580 C   0  0  2  0  0  3  0  0  0  0  0  0
  185.0220  178.9840  146.4730 N   0  0  0  0  0  2  0  0  0  0  0  0
  187.2380  177.0050  146.4090 C   0  0  2  0  0  3  0  0  0  0  0  0
  185.7890  176.7300  146.4100 N   0  0  2  0  0  0  0  0  0  0  0  0
  197.6880  174.2800  144.8150 N   0  0  0  0  0  2  0  0  0  0  0  0
  197.9410  172.8510  144.9100 C   0  0  0  0  0  2  0  0  0  0  0  0
  197.1480  170.8200  145.8610 O   0  0  0  0  0  1  0  0  0  0  0  0
  196.9100  172.1940  145.8080 C   0  0  0  0  0  2  0  0  0  0  0  0
  188.4200  173.2760  140.9790 C   0  0  0  0  0  2  0  0  0  0  0  0
  189.4580  172.1640  141.0020 C   0  0  0  0  0  2  0  0  0  0  0  0
  190.9490  172.2610  139.0010 C   0  0  0  0  0  0  0  0  0  0  0  0
  191.9310  172.6240  139.7030 O   0  0  0  0  0  0  0  0  0  0  0  0
  189.7810  171.7480  139.6500 N   0  0  0  0  0  2  0  0  0  0  0  0
  189.7190  172.8470  136.8630 C   0  0  2  0  0  3  0  0  0  0  0  0
  191.0370  172.3240  137.4910 C   0  0  2  0  0  3  0  0  0  0  0  0
  190.7060  170.4900  135.7040 C   0  0  1  0  0  0  0  0  0  0  0  0
  190.5710  169.8500  137.0620 C   0  0  0  0  0  2  0  0  0  0  0  0
  189.4980  171.3010  135.2540 C   0  0  0  0  0  2  0  0  0  0  0  0
  191.5580  171.0040  136.8640 C   0  0  2  0  0  3  0  0  0  0  0  0
  189.7320  172.6640  135.4690 O   0  0  0  0  0  0  0  0  0  0  0  0
  191.3810  169.7030  134.7720 O   0  0  0  0  0  1  0  0  0  0  0  0
  189.5850  174.2140  137.1430 O   0  0  0  0  0  0  0  0  0  0  0  0
  188.2320  174.5180  136.9440 C   0  0  1  0  0  3  0  0  0  0  0  0
  187.7050  175.1000  138.1020 O   0  0  0  0  0  1  0  0  0  0  0  0
  188.0910  175.4700  135.7560 C   0  0  2  0  0  3  0  0  0  0  0  0
  189.3770  176.0640  135.4210 N   0  0  0  0  0  1  0  0  0  0  0  0
  187.0820  176.5620  136.0750 C   0  0  0  0  0  2  0  0  0  0  0  0
  185.8020  176.1680  135.6870 O   0  0  0  0  0  1  0  0  0  0  0  0
  188.3010  178.1930  141.8960 C   0  0  0  0  0  2  0  0  0  0  0  0
  186.9190  178.0660  141.2850 C   0  0  0  0  0  2  0  0  0  0  0  0
  184.5220  178.0350  141.8840 C   0  0  0  0  0  1  0  0  0  0  0  0
  185.8890  178.5400  142.2830 C   0  0  0  0  0  2  0  0  0  0  0  0
  1  7  2  0  0  0  0
  1  3  1  0  0  0  0
  2 22  1  0  0  0  0
  3  6  2  0  0  0  0
  4  2  2  0  0  0  0
  6  2  1  0  0  0  0
  6  5  1  0  0  0  0
  7  4  1  0  0  0  0
  8 14  1  0  0  0  0
  9 19  1  0  0  0  0
 10 22  1  0  0  0  0
 10 13  1  0  0  0  0
 11  8  2  0  0  0  0
 11 17  1  0  0  0  0
 12 20  2  0  0  0  0
 13 19  1  0  0  0  0
 13 18  2  0  0  0  0
 14 16  2  0  0  0  0
 14 10  1  0  0  0  0
 15  9  2  0  0  0  0
 15 33  1  0  0  0  0
 16  9  1  0  0  0  0
 17 12  1  1  0  0  0
 17 16  1  0  0  0  0
 20 15  1  0  0  0  0
 21 18  1  0  0  0  0
 22 21  2  0  0  0  0
 23 26  1  1  0  0  0
 23 24  1  0  0  0  0
 25 21  1  6  0  0  0
 25 23  1  0  0  0  0
 25 24  1  0  0  0  0
 27 30  1  0  0  0  0
 29 28  1  6  0  0  0
 30 28  1  0  0  0  0
 31 32  1  0  0  0  0
 31 26  1  1  0  0  0
 31 29  1  0  0  0  0
 32 27  1  6  0  0  0
 32 29  1  0  0  0  0
 33 34  1  0  0  0  0
 34 36  1  0  0  0  0
 36 35  1  0  0  0  0
 37 38  1  0  0  0  0
 37  7  1  0  0  0  0
 39 41  1  0  0  0  0
 39 40  2  0  0  0  0
 41 38  1  0  0  0  0
 42 50  1  6  0  0  0
 42 43  1  0  0  0  0
 43 39  1  1  0  0  0
 44 49  1  6  0  0  0
 44 47  1  0  0  0  0
 44 45  1  0  0  0  0
 46 48  1  0  0  0  0
 46 44  1  0  0  0  0
 47 45  1  1  0  0  0
 47 43  1  0  0  0  0
 48 42  1  0  0  0  0
 51 50  1  0  0  0  0
 51 52  1  1  0  0  0
 53 54  1  1  0  0  0
 53 55  1  0  0  0  0
 53 51  1  0  0  0  0
 56 55  1  0  0  0  0
 57  3  1  0  0  0  0
 58 57  1  0  0  0  0
 58 60  1  0  0  0  0
 59 60  1  0  0  0  0
M  END
>  <MODEL>
2

>  <REMARK>
 VINA RESULT:      -7.0      1.978      3.654
  Name = 
  18 active torsions:
  status: ('A' for Active; 'I' for Inactive)
    1  A    between atoms: C_2  and  C_11
    2  A    between atoms: C_6  and  C_51
    3  A    between atoms: C_9  and  O_27
    4  A    between atoms: C_12  and  C_54
    5  A    between atoms: C_13  and  C_52
    6  A    between atoms: C_13  and  C_54
    7  A    between atoms: N_20  and  C_24
    8  A    between atoms: N_20  and  C_35
    9  A    between atoms: C_21  and  C_38
   10  A    between atoms: C_21  and  C_58
   11  A    between atoms: O_27  and  C_41
   12  A    between atoms: C_30  and  CA_49
   13  A    between atoms: C_31  and  C_33
   14  A    between atoms: C_33  and  C_45
   15  A    between atoms: C_35  and  C_44
   16  A    between atoms: C_36  and  C_47
   17  A    between atoms: C_38  and  N_57
   18  A    between atoms: C_41  and  CA_49
                            x       y       z     vdW  Elec       q    Type
                         _______ _______ _______ _____ _____    ______ ____

>  <TORSDO>
F 18

$$$$
=
 OpenBabel11042416133D

 60 69  0  0  1  0  0  0  0  0999 V2000
  188.3310  175.5720  141.8530 C   0  0  0  0  0  3  0  0  0  0  0  0
  190.5100  175.4090  143.6140 C   0  0  0  0  0  0  0  0  0  0  0  0
  188.8990  176.7450  142.3630 C   0  0  0  0  0  0  0  0  0  0  0  0
  189.9380  174.2470  143.0820 C   0  0  0  0  0  3  0  0  0  0  0  0
  190.5750  177.8340  143.7300 O   0  0  0  0  0  1  0  0  0  0  0  0
  189.9920  176.6660  143.2460 C   0  0  0  0  0  0  0  0  0  0  0  0
  188.8560  174.3220  142.1990 C   0  0  0  0  0  0  0  0  0  0  0  0
  193.2350  175.4390  141.6360 C   0  0  0  0  0  3  0  0  0  0  0  0
  195.7410  175.4490  144.1750 C   0  0  0  0  0  0  0  0  0  0  0  0
  192.9510  175.3820  144.2290 N   0  0  0  0  0  0  0  0  0  0  0  0
  194.2720  175.4970  140.8530 N   0  0  0  0  0  0  0  0  0  0  0  0
  196.6410  174.9990  141.4700 C   0  0  0  0  0  3  0  0  0  0  0  0
  193.6250  175.2500  145.3910 C   0  0  0  0  0  0  0  0  0  0  0  0
  193.6340  175.7190  143.0100 C   0  0  0  0  0  0  0  0  0  0  0  0
  196.9430  174.8950  143.9440 C   0  0  0  0  0  0  0  0  0  0  0  0
  194.9400  175.8760  143.0140 C   0  0  0  0  0  0  0  0  0  0  0  0
  195.4470  175.9070  141.6260 C   0  0  2  0  0  3  0  0  0  0  0  0
  192.8300  175.0580  146.4590 N   0  0  0  0  0  0  0  0  0  0  0  0
  195.0610  175.2810  145.4350 N   0  0  0  0  0  2  0  0  0  0  0  0
  197.3550  174.5960  142.5360 C   0  0  0  0  0  3  0  0  0  0  0  0
  191.5800  175.0890  145.9290 C   0  0  0  0  0  0  0  0  0  0  0  0
  191.6450  175.2950  144.5530 C   0  0  0  0  0  0  0  0  0  0  0  0
  189.4560  176.1360  146.6290 C   0  0  1  0  0  3  0  0  0  0  0  0
  190.2480  175.8660  147.8890 C   0  0  0  0  0  2  0  0  0  0  0  0
  190.3190  174.8910  146.7210 C   0  0  2  0  0  3  0  0  0  0  0  0
  188.0030  175.8000  146.8900 C   0  0  0  0  0  2  0  0  0  0  0  0
  184.8800  177.5400  145.9640 C   0  0  0  0  0  2  0  0  0  0  0  0
  186.2600  179.1220  146.9210 C   0  0  0  0  0  2  0  0  0  0  0  0
  186.6780  177.7680  147.4360 C   0  0  2  0  0  3  0  0  0  0  0  0
  184.9680  178.9570  146.2790 N   0  0  0  0  0  2  0  0  0  0  0  0
  187.1240  176.9140  146.3380 C   0  0  2  0  0  3  0  0  0  0  0  0
  185.7510  176.7840  146.8600 N   0  0  2  0  0  0  0  0  0  0  0  0
  197.7330  174.4160  145.0360 N   0  0  0  0  0  2  0  0  0  0  0  0
  197.3790  173.2120  145.7710 C   0  0  0  0  0  2  0  0  0  0  0  0
  196.9370  170.8850  145.5460 O   0  0  0  0  0  1  0  0  0  0  0  0
  197.2220  172.0420  144.8180 C   0  0  0  0  0  2  0  0  0  0  0  0
  188.2790  173.0700  141.6280 C   0  0  0  0  0  2  0  0  0  0  0  0
  189.3440  172.3220  140.8400 C   0  0  0  0  0  2  0  0  0  0  0  0
  189.6440  171.8900  138.3990 C   0  0  0  0  0  0  0  0  0  0  0  0
  189.3220  170.6790  138.5350 O   0  0  0  0  0  0  0  0  0  0  0  0
  189.3900  172.8030  139.4720 N   0  0  0  0  0  2  0  0  0  0  0  0
  191.5930  173.0990  137.3190 C   0  0  2  0  0  3  0  0  0  0  0  0
  190.2440  172.3690  137.0940 C   0  0  2  0  0  3  0  0  0  0  0  0
  189.7710  174.4890  135.6990 C   0  0  1  0  0  0  0  0  0  0  0  0
  188.8290  174.4840  136.8760 C   0  0  0  0  0  2  0  0  0  0  0  0
  191.2050  174.8900  136.0250 C   0  0  0  0  0  2  0  0  0  0  0  0
  189.2320  173.1590  136.2220 C   0  0  2  0  0  3  0  0  0  0  0  0
  192.0040  173.7470  136.1400 O   0  0  0  0  0  0  0  0  0  0  0  0
  189.1940  174.9420  134.5130 O   0  0  0  0  0  1  0  0  0  0  0  0
  192.5680  172.1630  137.6900 O   0  0  0  0  0  0  0  0  0  0  0  0
  193.3260  172.7760  138.6970 C   0  0  1  0  0  3  0  0  0  0  0  0
  192.8370  172.3950  139.9510 O   0  0  0  0  0  1  0  0  0  0  0  0
  194.7940  172.3700  138.5500 C   0  0  2  0  0  3  0  0  0  0  0  0
  195.3030  171.8300  139.8030 N   0  0  0  0  0  1  0  0  0  0  0  0
  195.6290  173.5670  138.1230 C   0  0  0  0  0  2  0  0  0  0  0  0
  194.8050  174.5890  137.6530 O   0  0  0  0  0  1  0  0  0  0  0  0
  188.3590  178.0640  141.9300 C   0  0  0  0  0  2  0  0  0  0  0  0
  186.8970  177.9460  141.5440 C   0  0  0  0  0  2  0  0  0  0  0  0
  184.6050  178.3060  142.3930 C   0  0  0  0  0  1  0  0  0  0  0  0
  186.0560  178.6950  142.5510 C   0  0  0  0  0  2  0  0  0  0  0  0
  1  7  2  0  0  0  0
  1  3  1  0  0  0  0
  2 22  1  0  0  0  0
  3  6  2  0  0  0  0
  4  2  2  0  0  0  0
  6  2  1  0  0  0  0
  6  5  1  0  0  0  0
  7  4  1  0  0  0  0
  8 14  1  0  0  0  0
  9 19  1  0  0  0  0
 10 22  1  0  0  0  0
 10 13  1  0  0  0  0
 11 17  1  0  0  0  0
 11  8  2  0  0  0  0
 12 20  2  0  0  0  0
 13 19  1  0  0  0  0
 13 18  2  0  0  0  0
 14 16  2  0  0  0  0
 14 10  1  0  0  0  0
 15  9  2  0  0  0  0
 15 33  1  0  0  0  0
 16  9  1  0  0  0  0
 17 12  1  1  0  0  0
 17 16  1  0  0  0  0
 20 15  1  0  0  0  0
 21 18  1  0  0  0  0
 22 21  2  0  0  0  0
 23 25  1  0  0  0  0
 23 26  1  1  0  0  0
 23 24  1  0  0  0  0
 25 21  1  6  0  0  0
 25 24  1  0  0  0  0
 27 30  1  0  0  0  0
 29 28  1  6  0  0  0
 30 28  1  0  0  0  0
 31 32  1  0  0  0  0
 31 26  1  1  0  0  0
 31 29  1  0  0  0  0
 32 27  1  6  0  0  0
 32 29  1  0  0  0  0
 33 34  1  0  0  0  0
 36 35  1  0  0  0  0
 36 34  1  0  0  0  0
 37  7  1  0  0  0  0
 38 37  1  0  0  0  0
 39 40  2  0  0  0  0
 39 41  1  0  0  0  0
 41 38  1  0  0  0  0
 42 50  1  6  0  0  0
 43 42  1  0  0  0  0
 43 39  1  1  0  0  0
 44 49  1  6  0  0  0
 44 46  1  0  0  0  0
 44 47  1  0  0  0  0
 44 45  1  0  0  0  0
 46 48  1  0  0  0  0
 47 45  1  1  0  0  0
 47 43  1  0  0  0  0
 48 42  1  0  0  0  0
 50 51  1  0  0  0  0
 51 52  1  1  0  0  0
 53 51  1  0  0  0  0
 53 54  1  1  0  0  0
 55 53  1  0  0  0  0
 56 55  1  0  0  0  0
 57  3  1  0  0  0  0
 58 57  1  0  0  0  0
 58 60  1  0  0  0  0
 59 60  1  0  0  0  0
M  END
>  <MODEL>
3

>  <REMARK>
 VINA RESULT:      -6.5      1.609      2.602
  Name = 
  18 active torsions:
  status: ('A' for Active; 'I' for Inactive)
    1  A    between atoms: C_2  and  C_11
    2  A    between atoms: C_6  and  C_51
    3  A    between atoms: C_9  and  O_27
    4  A    between atoms: C_12  and  C_54
    5  A    between atoms: C_13  and  C_52
    6  A    between atoms: C_13  and  C_54
    7  A    between atoms: N_20  and  C_24
    8  A    between atoms: N_20  and  C_35
    9  A    between atoms: C_21  and  C_38
   10  A    between atoms: C_21  and  C_58
   11  A    between atoms: O_27  and  C_41
   12  A    between atoms: C_30  and  CA_49
   13  A    between atoms: C_31  and  C_33
   14  A    between atoms: C_33  and  C_45
   15  A    between atoms: C_35  and  C_44
   16  A    between atoms: C_36  and  C_47
   17  A    between atoms: C_38  and  N_57
   18  A    between atoms: C_41  and  CA_49
                            x       y       z     vdW  Elec       q    Type
                         _______ _______ _______ _____ _____    ______ ____

>  <TORSDO>
F 18

$$$$
=
 OpenBabel11042416133D

 60 69  0  0  1  0  0  0  0  0999 V2000
  192.4260  175.8200  145.7270 C   0  0  0  0  0  3  0  0  0  0  0  0
  190.6930  175.3380  143.5720 C   0  0  0  0  0  0  0  0  0  0  0  0
  191.1060  175.4280  145.9740 C   0  0  0  0  0  0  0  0  0  0  0  0
  192.0210  175.7170  143.3450 C   0  0  0  0  0  3  0  0  0  0  0  0
  188.9290  174.7670  145.1420 O   0  0  0  0  0  1  0  0  0  0  0  0
  190.2340  175.1850  144.8950 C   0  0  0  0  0  0  0  0  0  0  0  0
  192.8910  175.9530  144.4140 C   0  0  0  0  0  0  0  0  0  0  0  0
  192.0450  172.6990  141.9770 C   0  0  0  0  0  3  0  0  0  0  0  0
  189.5350  172.2350  139.4850 C   0  0  1  0  0  3  0  0  0  0  0  0
  189.8690  174.0770  141.5550 N   0  0  0  0  0  0  0  0  0  0  0  0
  192.5630  171.6520  141.4050 N   0  0  0  0  0  0  0  0  0  0  0  0
  191.9780  170.7340  139.1570 C   0  0  0  0  0  3  0  0  0  0  0  0
  188.8470  174.2510  140.6920 C   0  0  0  0  0  0  0  0  0  0  0  0
  190.6720  172.8850  141.5240 C   0  0  0  0  0  0  0  0  0  0  0  0
  189.8550  171.7140  138.2890 C   0  0  0  0  0  0  0  0  0  0  0  0
  190.4280  171.9570  140.6230 C   0  0  0  0  0  0  0  0  0  0  0  0
  191.5480  170.9930  140.5790 C   0  0  0  0  0  0  0  0  0  0  0  0
  188.1180  175.3560  140.9320 N   0  0  0  0  0  0  0  0  0  0  0  0
  188.6150  173.3380  139.6080 N   0  0  0  0  0  2  0  0  0  0  0  0
  191.1650  171.0090  138.1210 C   0  0  0  0  0  3  0  0  0  0  0  0
  188.7170  175.8950  142.0260 C   0  0  0  0  0  0  0  0  0  0  0  0
  189.7960  175.1080  142.4210 C   0  0  0  0  0  0  0  0  0  0  0  0
  187.2690  177.8820  141.8040 C   0  0  1  0  0  3  0  0  0  0  0  0
  188.6960  178.3820  141.8440 C   0  0  0  0  0  2  0  0  0  0  0  0
  188.2880  177.1770  142.6810 C   0  0  2  0  0  3  0  0  0  0  0  0
  186.4070  178.8150  142.6300 C   0  0  0  0  0  2  0  0  0  0  0  0
  185.8820  179.0620  146.2770 C   0  0  0  0  0  2  0  0  0  0  0  0
  185.4260  176.8780  145.6900 C   0  0  0  0  0  2  0  0  0  0  0  0
  185.2280  177.7390  144.4680 C   0  0  2  0  0  3  0  0  0  0  0  0
  185.5160  177.7680  146.8330 N   0  0  0  0  0  2  0  0  0  0  0  0
  186.4770  178.3970  144.0930 C   0  0  2  0  0  3  0  0  0  0  0  0
  185.4660  179.1290  144.8790 N   0  0  2  0  0  0  0  0  0  0  0  0
  189.0470  172.0010  137.1430 N   0  0  0  0  0  2  0  0  0  0  0  0
  189.6180  172.5250  135.9120 C   0  0  0  0  0  2  0  0  0  0  0  0
  190.7290  174.5390  136.5220 O   0  0  0  0  0  1  0  0  0  0  0  0
  189.5740  174.0420  135.9170 C   0  0  0  0  0  2  0  0  0  0  0  0
  194.3090  176.3330  144.1440 C   0  0  0  0  0  2  0  0  0  0  0  0
  195.0990  176.3470  145.4430 C   0  0  0  0  0  2  0  0  0  0  0  0
  196.5650  174.4140  144.8510 C   0  0  0  0  0  0  0  0  0  0  0  0
  197.3210  175.1510  144.1610 O   0  0  0  0  0  0  0  0  0  0  0  0
  195.6170  175.0230  145.7330 N   0  0  0  0  0  2  0  0  0  0  0  0
  196.7270  172.4110  143.3070 C   0  0  2  0  0  3  0  0  0  0  0  0
  196.7050  172.9090  144.7740 C   0  0  2  0  0  3  0  0  0  0  0  0
  194.9350  171.0400  144.9740 C   0  0  1  0  0  0  0  0  0  0  0  0
  194.2470  172.3620  145.2030 C   0  0  0  0  0  2  0  0  0  0  0  0
  195.2590  170.7280  143.5190 C   0  0  0  0  0  2  0  0  0  0  0  0
  195.6890  172.1660  145.6820 C   0  0  2  0  0  3  0  0  0  0  0  0
  196.6050  171.0110  143.2600 O   0  0  0  0  0  0  0  0  0  0  0  0
  194.4810  170.0140  145.8030 O   0  0  0  0  0  1  0  0  0  0  0  0
  197.9400  172.7840  142.7110 O   0  0  0  0  0  0  0  0  0  0  0  0
  197.6570  172.9860  141.3530 C   0  0  1  0  0  3  0  0  0  0  0  0
  197.7140  171.7650  140.6740 O   0  0  0  0  0  1  0  0  0  0  0  0
  196.2690  173.6130  141.2090 C   0  0  2  0  0  3  0  0  0  0  0  0
  195.5080  172.9370  140.1670 N   0  0  0  0  0  1  0  0  0  0  0  0
  196.3930  175.0930  140.8830 C   0  0  0  0  0  2  0  0  0  0  0  0
  196.1470  175.3130  139.5280 O   0  0  0  0  0  1  0  0  0  0  0  0
  190.6540  175.2360  147.3800 C   0  0  0  0  0  2  0  0  0  0  0  0
  191.5120  176.0420  148.3360 C   0  0  0  0  0  2  0  0  0  0  0  0
  191.4650  178.0970  149.7070 C   0  0  0  0  0  1  0  0  0  0  0  0
  190.9530  177.4410  148.4460 C   0  0  0  0  0  2  0  0  0  0  0  0
  1  3  1  0  0  0  0
  2  6  1  0  0  0  0
  3 57  1  0  0  0  0
  4  2  2  0  0  0  0
  4  7  1  0  0  0  0
  6  5  1  0  0  0  0
  6  3  2  0  0  0  0
  7  1  2  0  0  0  0
  9 15  1  6  0  0  0
  9 19  1  0  0  0  0
  9 16  1  0  0  0  0
 10 22  1  0  0  0  0
 11  8  2  0  0  0  0
 12 17  2  0  0  0  0
 13 18  2  0  0  0  0
 13 10  1  0  0  0  0
 14 10  1  0  0  0  0
 14  8  1  0  0  0  0
 16 14  2  0  0  0  0
 17 16  1  0  0  0  0
 17 11  1  0  0  0  0
 18 21  1  0  0  0  0
 19 13  1  0  0  0  0
 20 15  2  0  0  0  0
 20 12  1  0  0  0  0
 21 22  2  0  0  0  0
 22  2  1  0  0  0  0
 23 24  1  0  0  0  0
 23 26  1  1  0  0  0
 23 25  1  0  0  0  0
 24 25  1  0  0  0  0
 25 21  1  6  0  0  0
 27 30  1  0  0  0  0
 28 30  1  0  0  0  0
 29 32  1  0  0  0  0
 29 28  1  1  0  0  0
 31 26  1  6  0  0  0
 31 29  1  0  0  0  0
 31 32  1  0  0  0  0
 32 27  1  1  0  0  0
 33 15  1  0  0  0  0
 34 36  1  0  0  0  0
 34 33  1  0  0  0  0
 36 35  1  0  0  0  0
 37  7  1  0  0  0  0
 37 38  1  0  0  0  0
 38 41  1  0  0  0  0
 39 41  1  0  0  0  0
 40 39  2  0  0  0  0
 42 50  1  1  0  0  0
 42 43  1  0  0  0  0
 43 39  1  6  0  0  0
 43 47  1  0  0  0  0
 44 45  1  0  0  0  0
 44 47  1  0  0  0  0
 44 49  1  1  0  0  0
 46 44  1  0  0  0  0
 47 45  1  6  0  0  0
 48 42  1  0  0  0  0
 48 46  1  0  0  0  0
 51 52  1  6  0  0  0
 51 50  1  0  0  0  0
 53 54  1  6  0  0  0
 53 51  1  0  0  0  0
 55 53  1  0  0  0  0
 56 55  1  0  0  0  0
 57 58  1  0  0  0  0
 58 60  1  0  0  0  0
 60 59  1  0  0  0  0
M  END
>  <MODEL>
4

>  <REMARK>
 VINA RESULT:      -6.3      2.147      6.889
  Name = 
  18 active torsions:
  status: ('A' for Active; 'I' for Inactive)
    1  A    between atoms: C_2  and  C_11
    2  A    between atoms: C_6  and  C_51
    3  A    between atoms: C_9  and  O_27
    4  A    between atoms: C_12  and  C_54
    5  A    between atoms: C_13  and  C_52
    6  A    between atoms: C_13  and  C_54
    7  A    between atoms: N_20  and  C_24
    8  A    between atoms: N_20  and  C_35
    9  A    between atoms: C_21  and  C_38
   10  A    between atoms: C_21  and  C_58
   11  A    between atoms: O_27  and  C_41
   12  A    between atoms: C_30  and  CA_49
   13  A    between atoms: C_31  and  C_33
   14  A    between atoms: C_33  and  C_45
   15  A    between atoms: C_35  and  C_44
   16  A    between atoms: C_36  and  C_47
   17  A    between atoms: C_38  and  N_57
   18  A    between atoms: C_41  and  CA_49
                            x       y       z     vdW  Elec       q    Type
                         _______ _______ _______ _____ _____    ______ ____

>  <TORSDO>
F 18

$$$$
=
 OpenBabel11042416133D

 60 69  0  0  1  0  0  0  0  0999 V2000
  193.3010  171.3490  141.0450 C   0  0  0  0  0  3  0  0  0  0  0  0
  191.1300  173.1200  141.2010 C   0  0  0  0  0  0  0  0  0  0  0  0
  192.1770  171.0020  141.8020 C   0  0  0  0  0  0  0  0  0  0  0  0
  192.2570  173.4440  140.4360 C   0  0  0  0  0  3  0  0  0  0  0  0
  189.9570  171.5290  142.6130 O   0  0  0  0  0  1  0  0  0  0  0  0
  191.0870  171.8880  141.8830 C   0  0  0  0  0  0  0  0  0  0  0  0
  193.3390  172.5630  140.3500 C   0  0  0  0  0  0  0  0  0  0  0  0
  191.6350  174.7520  144.1030 C   0  0  0  0  0  3  0  0  0  0  0  0
  188.9870  177.1300  143.8500 C   0  0  0  0  0  0  0  0  0  0  0  0
  189.8510  175.0340  142.2200 N   0  0  0  0  0  0  0  0  0  0  0  0
  191.8770  175.3970  145.2070 N   0  0  0  0  0  0  0  0  0  0  0  0
  190.3300  176.9550  146.3980 C   0  0  0  0  0  3  0  0  0  0  0  0
  188.7150  175.6850  141.8920 C   0  0  0  0  0  0  0  0  0  0  0  0
  190.6950  175.5070  143.2830 C   0  0  0  0  0  0  0  0  0  0  0  0
  188.4040  177.6160  144.9580 C   0  0  0  0  0  0  0  0  0  0  0  0
  190.3470  176.5740  143.9690 C   0  0  2  0  0  3  0  0  0  0  0  0
  191.1820  176.6860  145.1830 C   0  0  0  0  0  0  0  0  0  0  0  0
  188.1050  175.1920  140.7980 N   0  0  0  0  0  0  0  0  0  0  0  0
  188.2170  176.7750  142.6840 N   0  0  0  0  0  2  0  0  0  0  0  0
  189.0820  177.4420  146.2810 C   0  0  0  0  0  3  0  0  0  0  0  0
  188.9240  174.1780  140.4130 C   0  0  0  0  0  0  0  0  0  0  0  0
  190.0070  174.0780  141.2820 C   0  0  0  0  0  0  0  0  0  0  0  0
  189.6580  173.5850  138.1320 C   0  0  1  0  0  3  0  0  0  0  0  0
  188.2360  174.0860  138.0180 C   0  0  0  0  0  2  0  0  0  0  0  0
  188.6640  173.2800  139.2380 C   0  0  2  0  0  3  0  0  0  0  0  0
  189.8240  172.3900  137.2170 C   0  0  0  0  0  2  0  0  0  0  0  0
  192.9830  170.4770  137.2190 C   0  0  0  0  0  2  0  0  0  0  0  0
  192.9200  171.6470  135.2310 C   0  0  0  0  0  2  0  0  0  0  0  0
  191.5020  171.4700  135.7120 C   0  0  2  0  0  3  0  0  0  0  0  0
  193.7550  170.7570  136.0180 N   0  0  0  0  0  2  0  0  0  0  0  0
  191.3080  172.1250  137.0030 C   0  0  2  0  0  3  0  0  0  0  0  0
  191.5630  170.6740  136.9450 N   0  0  2  0  0  0  0  0  0  0  0  0
  187.0650  178.1160  144.9020 N   0  0  0  0  0  2  0  0  0  0  0  0
  186.0400  177.6740  145.8350 C   0  0  0  0  0  2  0  0  0  0  0  0
  184.0030  178.3040  146.8900 O   0  0  0  0  0  1  0  0  0  0  0  0
  185.0010  178.7610  146.0280 C   0  0  0  0  0  2  0  0  0  0  0  0
  194.5190  172.9210  139.5080 C   0  0  0  0  0  2  0  0  0  0  0  0
  195.7340  172.1210  139.9500 C   0  0  0  0  0  2  0  0  0  0  0  0
  196.6730  172.4110  142.2460 C   0  0  0  0  0  0  0  0  0  0  0  0
  196.6000  171.1730  142.4730 O   0  0  0  0  0  0  0  0  0  0  0  0
  196.5190  172.8820  140.9030 N   0  0  0  0  0  2  0  0  0  0  0  0
  196.4730  172.8160  144.7400 C   0  0  2  0  0  3  0  0  0  0  0  0
  196.9690  173.3690  143.3800 C   0  0  2  0  0  3  0  0  0  0  0  0
  195.6890  175.4560  144.2010 C   0  0  1  0  0  0  0  0  0  0  0  0
  194.9790  174.9220  142.9830 C   0  0  0  0  0  2  0  0  0  0  0  0
  195.4470  174.6680  145.4830 C   0  0  0  0  0  2  0  0  0  0  0  0
  196.5040  174.8190  143.0770 C   0  0  2  0  0  3  0  0  0  0  0  0
  196.5300  173.8160  145.7290 O   0  0  0  0  0  0  0  0  0  0  0  0
  195.7410  176.8480  144.2610 O   0  0  0  0  0  1  0  0  0  0  0  0
  197.2890  171.7440  145.1270 O   0  0  0  0  0  0  0  0  0  0  0  0
  196.5230  170.9790  146.0170 C   0  0  1  0  0  3  0  0  0  0  0  0
  195.2210  170.8460  145.5230 O   0  0  0  0  0  1  0  0  0  0  0  0
  197.1700  169.6040  146.1960 C   0  0  2  0  0  3  0  0  0  0  0  0
  197.1630  168.8690  144.9390 N   0  0  0  0  0  1  0  0  0  0  0  0
  196.4330  168.8120  147.2640 C   0  0  0  0  0  2  0  0  0  0  0  0
  197.3020  168.4720  148.3000 O   0  0  0  0  0  1  0  0  0  0  0  0
  192.1390  169.6780  142.4830 C   0  0  0  0  0  2  0  0  0  0  0  0
  192.1180  168.5510  141.4690 C   0  0  0  0  0  2  0  0  0  0  0  0
  190.5420  168.3220  139.5800 C   0  0  0  0  0  1  0  0  0  0  0  0
  190.6880  168.2570  141.0820 C   0  0  0  0  0  2  0  0  0  0  0  0
  1  3  1  0  0  0  0
  2 22  1  0  0  0  0
  2  6  1  0  0  0  0
  3  6  2  0  0  0  0
  3 57  1  0  0  0  0
  4  2  2  0  0  0  0
  6  5  1  0  0  0  0
  7  4  1  0  0  0  0
  7  1  2  0  0  0  0
  8 11  1  0  0  0  0
  9 16  1  0  0  0  0
  9 15  2  0  0  0  0
 10 14  1  0  0  0  0
 13 10  1  0  0  0  0
 13 19  1  0  0  0  0
 14  8  2  0  0  0  0
 15 20  1  0  0  0  0
 16 14  1  1  0  0  0
 16 17  1  0  0  0  0
 17 11  2  0  0  0  0
 17 12  1  0  0  0  0
 18 13  2  0  0  0  0
 19  9  1  0  0  0  0
 20 12  2  0  0  0  0
 21 18  1  0  0  0  0
 21 22  2  0  0  0  0
 22 10  1  0  0  0  0
 23 26  1  6  0  0  0
 23 25  1  0  0  0  0
 24 23  1  0  0  0  0
 24 25  1  0  0  0  0
 25 21  1  1  0  0  0
 28 30  1  0  0  0  0
 29 28  1  1  0  0  0
 29 32  1  0  0  0  0
 29 31  1  0  0  0  0
 30 27  1  0  0  0  0
 31 26  1  6  0  0  0
 32 31  1  0  0  0  0
 32 27  1  1  0  0  0
 33 15  1  0  0  0  0
 33 34  1  0  0  0  0
 34 36  1  0  0  0  0
 36 35  1  0  0  0  0
 37 38  1  0  0  0  0
 37  7  1  0  0  0  0
 38 41  1  0  0  0  0
 39 40  2  0  0  0  0
 41 39  1  0  0  0  0
 42 50  1  1  0  0  0
 42 48  1  0  0  0  0
 43 39  1  6  0  0  0
 43 42  1  0  0  0  0
 44 49  1  1  0  0  0
 44 46  1  0  0  0  0
 45 44  1  0  0  0  0
 46 48  1  0  0  0  0
 47 45  1  6  0  0  0
 47 43  1  0  0  0  0
 47 44  1  0  0  0  0
 50 51  1  0  0  0  0
 51 52  1  6  0  0  0
 51 53  1  0  0  0  0
 53 54  1  6  0  0  0
 53 55  1  0  0  0  0
 55 56  1  0  0  0  0
 58 57  1  0  0  0  0
 59 60  1  0  0  0  0
 60 58  1  0  0  0  0
M  END
>  <MODEL>
5

>  <REMARK>
 VINA RESULT:      -6.1      2.489      8.550
  Name = 
  18 active torsions:
  status: ('A' for Active; 'I' for Inactive)
    1  A    between atoms: C_2  and  C_11
    2  A    between atoms: C_6  and  C_51
    3  A    between atoms: C_9  and  O_27
    4  A    between atoms: C_12  and  C_54
    5  A    between atoms: C_13  and  C_52
    6  A    between atoms: C_13  and  C_54
    7  A    between atoms: N_20  and  C_24
    8  A    between atoms: N_20  and  C_35
    9  A    between atoms: C_21  and  C_38
   10  A    between atoms: C_21  and  C_58
   11  A    between atoms: O_27  and  C_41
   12  A    between atoms: C_30  and  CA_49
   13  A    between atoms: C_31  and  C_33
   14  A    between atoms: C_33  and  C_45
   15  A    between atoms: C_35  and  C_44
   16  A    between atoms: C_36  and  C_47
   17  A    between atoms: C_38  and  N_57
   18  A    between atoms: C_41  and  CA_49
                            x       y       z     vdW  Elec       q    Type
                         _______ _______ _______ _____ _____    ______ ____

>  <TORSDO>
F 18

$$$$
=
 OpenBabel11042416133D

 60 69  0  0  1  0  0  0  0  0999 V2000
  188.2370  175.5840  141.3610 C   0  0  0  0  0  3  0  0  0  0  0  0
  190.3250  175.3810  143.2260 C   0  0  0  0  0  0  0  0  0  0  0  0
  188.6990  176.7330  142.0110 C   0  0  0  0  0  0  0  0  0  0  0  0
  189.8590  174.2440  142.5540 C   0  0  0  0  0  3  0  0  0  0  0  0
  190.2240  177.7830  143.5720 O   0  0  0  0  0  1  0  0  0  0  0  0
  189.7460  176.6350  142.9470 C   0  0  0  0  0  0  0  0  0  0  0  0
  188.8230  174.3400  141.6200 C   0  0  0  0  0  0  0  0  0  0  0  0
  193.1460  175.6330  141.4050 C   0  0  0  0  0  3  0  0  0  0  0  0
  195.5140  175.5630  144.0720 C   0  0  0  0  0  0  0  0  0  0  0  0
  192.7290  175.3980  143.9700 N   0  0  0  0  0  0  0  0  0  0  0  0
  194.2200  175.7770  140.6850 N   0  0  0  0  0  0  0  0  0  0  0  0
  196.5700  175.3210  141.3970 C   0  0  0  0  0  3  0  0  0  0  0  0
  193.3460  175.2130  145.1560 C   0  0  0  0  0  0  0  0  0  0  0  0
  193.4610  175.8370  142.8140 C   0  0  0  0  0  0  0  0  0  0  0  0
  196.7460  175.0660  143.8720 C   0  0  0  0  0  0  0  0  0  0  0  0
  194.7590  176.0370  142.8990 C   0  0  0  0  0  0  0  0  0  0  0  0
  195.3360  176.1760  141.5460 C   0  0  2  0  0  3  0  0  0  0  0  0
  192.5050  174.9250  146.1660 N   0  0  0  0  0  0  0  0  0  0  0  0
  194.7760  175.2900  145.2800 N   0  0  0  0  0  2  0  0  0  0  0  0
  197.2420  174.8740  142.4730 C   0  0  0  0  0  3  0  0  0  0  0  0
  191.2830  174.9480  145.5710 C   0  0  0  0  0  0  0  0  0  0  0  0
  191.4130  175.2450  144.2170 C   0  0  0  0  0  0  0  0  0  0  0  0
  189.3060  175.9580  146.6500 C   0  0  1  0  0  3  0  0  0  0  0  0
  190.0280  175.1630  147.7150 C   0  0  0  0  0  2  0  0  0  0  0  0
  189.9910  174.6550  146.2790 C   0  0  2  0  0  3  0  0  0  0  0  0
  187.8150  175.7490  146.8190 C   0  0  0  0  0  2  0  0  0  0  0  0
  185.0490  177.8180  145.5140 C   0  0  0  0  0  2  0  0  0  0  0  0
  185.8870  178.9220  147.3590 C   0  0  0  0  0  2  0  0  0  0  0  0
  186.2220  177.4580  147.5010 C   0  0  2  0  0  3  0  0  0  0  0  0
  184.9060  179.0360  146.2960 N   0  0  0  0  0  2  0  0  0  0  0  0
  187.0820  177.0170  146.4050 C   0  0  2  0  0  3  0  0  0  0  0  0
  185.6300  176.7680  146.3470 N   0  0  2  0  0  0  0  0  0  0  0  0
  197.4960  174.5440  144.9730 N   0  0  0  0  0  2  0  0  0  0  0  0
  197.8990  173.1490  145.0350 C   0  0  0  0  0  2  0  0  0  0  0  0
  197.1820  170.9670  145.6580 O   0  0  0  0  0  1  0  0  0  0  0  0
  196.7810  172.3030  145.6130 C   0  0  0  0  0  2  0  0  0  0  0  0
  188.3610  173.1170  140.9010 C   0  0  0  0  0  2  0  0  0  0  0  0
  189.5260  172.1580  140.7070 C   0  0  0  0  0  2  0  0  0  0  0  0
  191.3860  171.7050  139.1020 C   0  0  0  0  0  0  0  0  0  0  0  0
  191.4810  170.5100  139.4920 O   0  0  0  0  0  0  0  0  0  0  0  0
  190.2380  172.4710  139.4810 N   0  0  0  0  0  2  0  0  0  0  0  0
  192.8590  171.3100  137.0770 C   0  0  2  0  0  3  0  0  0  0  0  0
  192.4540  172.2930  138.2050 C   0  0  2  0  0  3  0  0  0  0  0  0
  195.0170  172.4120  138.4900 C   0  0  1  0  0  0  0  0  0  0  0  0
  194.4380  171.7790  139.7300 C   0  0  0  0  0  2  0  0  0  0  0  0
  195.0850  171.4980  137.2740 C   0  0  0  0  0  2  0  0  0  0  0  0
  193.6530  172.8740  139.0010 C   0  0  2  0  0  3  0  0  0  0  0  0
  194.0130  171.7670  136.4160 O   0  0  0  0  0  0  0  0  0  0  0  0
  196.0750  173.2860  138.7420 O   0  0  0  0  0  1  0  0  0  0  0  0
  191.8100  171.2120  136.1520 O   0  0  0  0  0  0  0  0  0  0  0  0
  191.4720  172.5290  135.8130 C   0  0  1  0  0  3  0  0  0  0  0  0
  191.9690  172.8300  134.5410 O   0  0  0  0  0  1  0  0  0  0  0  0
  189.9510  172.6900  135.8440 C   0  0  2  0  0  3  0  0  0  0  0  0
  189.3020  171.5270  135.2550 N   0  0  0  0  0  1  0  0  0  0  0  0
  189.5410  173.9490  135.0950 C   0  0  0  0  0  2  0  0  0  0  0  0
  189.1270  174.9330  135.9920 O   0  0  0  0  0  1  0  0  0  0  0  0
  188.0980  178.0530  141.6720 C   0  0  0  0  0  2  0  0  0  0  0  0
  186.8900  178.3350  142.5450 C   0  0  0  0  0  2  0  0  0  0  0  0
  185.0170  178.5170  140.9450 C   0  0  0  0  0  1  0  0  0  0  0  0
  185.6850  177.6300  141.9680 C   0  0  0  0  0  2  0  0  0  0  0  0
  1  7  2  0  0  0  0
  1  3  1  0  0  0  0
  2 22  1  0  0  0  0
  3  6  2  0  0  0  0
  4  2  2  0  0  0  0
  6  2  1  0  0  0  0
  6  5  1  0  0  0  0
  7  4  1  0  0  0  0
  8 14  1  0  0  0  0
  9 19  1  0  0  0  0
 10 22  1  0  0  0  0
 10 13  1  0  0  0  0
 11  8  2  0  0  0  0
 11 17  1  0  0  0  0
 12 20  2  0  0  0  0
 13 19  1  0  0  0  0
 13 18  2  0  0  0  0
 14 16  2  0  0  0  0
 14 10  1  0  0  0  0
 15  9  2  0  0  0  0
 15 33  1  0  0  0  0
 16  9  1  0  0  0  0
 17 12  1  1  0  0  0
 17 16  1  0  0  0  0
 20 15  1  0  0  0  0
 21 18  1  0  0  0  0
 22 21  2  0  0  0  0
 23 26  1  1  0  0  0
 23 24  1  0  0  0  0
 25 21  1  6  0  0  0
 25 23  1  0  0  0  0
 25 24  1  0  0  0  0
 27 30  1  0  0  0  0
 29 28  1  6  0  0  0
 30 28  1  0  0  0  0
 31 26  1  1  0  0  0
 31 29  1  0  0  0  0
 32 27  1  6  0  0  0
 32 31  1  0  0  0  0
 32 29  1  0  0  0  0
 33 34  1  0  0  0  0
 34 36  1  0  0  0  0
 36 35  1  0  0  0  0
 37  7  1  0  0  0  0
 38 37  1  0  0  0  0
 39 41  1  0  0  0  0
 39 40  2  0  0  0  0
 41 38  1  0  0  0  0
 42 50  1  6  0  0  0
 42 43  1  0  0  0  0
 43 47  1  0  0  0  0
 43 39  1  1  0  0  0
 44 49  1  1  0  0  0
 44 47  1  0  0  0  0
 44 45  1  0  0  0  0
 46 44  1  0  0  0  0
 47 45  1  1  0  0  0
 48 42  1  0  0  0  0
 48 46  1  0  0  0  0
 51 52  1  6  0  0  0
 51 53  1  0  0  0  0
 51 50  1  0  0  0  0
 53 54  1  6  0  0  0
 55 53  1  0  0  0  0
 55 56  1  0  0  0  0
 57  3  1  0  0  0  0
 57 58  1  0  0  0  0
 59 60  1  0  0  0  0
 60 58  1  0  0  0  0
M  END
>  <MODEL>
6

>  <REMARK>
 VINA RESULT:      -6.1      1.458      3.024
  Name = 
  18 active torsions:
  status: ('A' for Active; 'I' for Inactive)
    1  A    between atoms: C_2  and  C_11
    2  A    between atoms: C_6  and  C_51
    3  A    between atoms: C_9  and  O_27
    4  A    between atoms: C_12  and  C_54
    5  A    between atoms: C_13  and  C_52
    6  A    between atoms: C_13  and  C_54
    7  A    between atoms: N_20  and  C_24
    8  A    between atoms: N_20  and  C_35
    9  A    between atoms: C_21  and  C_38
   10  A    between atoms: C_21  and  C_58
   11  A    between atoms: O_27  and  C_41
   12  A    between atoms: C_30  and  CA_49
   13  A    between atoms: C_31  and  C_33
   14  A    between atoms: C_33  and  C_45
   15  A    between atoms: C_35  and  C_44
   16  A    between atoms: C_36  and  C_47
   17  A    between atoms: C_38  and  N_57
   18  A    between atoms: C_41  and  CA_49
                            x       y       z     vdW  Elec       q    Type
                         _______ _______ _______ _____ _____    ______ ____

>  <TORSDO>
F 18

$$$$
=
 OpenBabel11042416133D

 60 69  0  0  1  0  0  0  0  0999 V2000
  193.1830  173.7840  141.6050 C   0  0  0  0  0  3  0  0  0  0  0  0
  191.6170  175.2690  143.3990 C   0  0  0  0  0  0  0  0  0  0  0  0
  193.3900  175.1620  141.7290 C   0  0  0  0  0  0  0  0  0  0  0  0
  191.4340  173.8870  143.2720 C   0  0  0  0  0  3  0  0  0  0  0  0
  192.8340  177.2760  142.7710 O   0  0  0  0  0  1  0  0  0  0  0  0
  192.6070  175.9090  142.6280 C   0  0  0  0  0  0  0  0  0  0  0  0
  192.2150  173.1410  142.3840 C   0  0  0  0  0  0  0  0  0  0  0  0
  188.8110  175.9080  141.6500 C   0  0  0  0  0  3  0  0  0  0  0  0
  186.9070  177.4590  144.2380 C   0  0  0  0  0  0  0  0  0  0  0  0
  189.4910  176.4080  144.1200 N   0  0  0  0  0  0  0  0  0  0  0  0
  187.7210  176.1030  140.9680 N   0  0  0  0  0  0  0  0  0  0  0  0
  185.8380  177.6330  141.5630 C   0  0  0  0  0  3  0  0  0  0  0  0
  189.1030  177.0490  145.2410 C   0  0  0  0  0  0  0  0  0  0  0  0
  188.5530  176.1180  143.0700 C   0  0  0  0  0  0  0  0  0  0  0  0
  185.9820  178.3850  143.9370 C   0  0  0  0  0  0  0  0  0  0  0  0
  187.3010  176.5050  143.1870 C   0  0  0  0  0  0  0  0  0  0  0  0
  186.6120  176.3790  141.8850 C   0  0  2  0  0  3  0  0  0  0  0  0
  190.0660  177.1330  146.1780 N   0  0  0  0  0  0  0  0  0  0  0  0
  187.7860  177.6090  145.3710 N   0  0  0  0  0  2  0  0  0  0  0  0
  185.5010  178.5100  142.5250 C   0  0  0  0  0  3  0  0  0  0  0  0
  191.1160  176.4880  145.6050 C   0  0  0  0  0  0  0  0  0  0  0  0
  190.7670  176.0320  144.3370 C   0  0  0  0  0  0  0  0  0  0  0  0
  192.9860  174.9260  146.0010 C   0  0  1  0  0  3  0  0  0  0  0  0
  192.4220  175.2870  147.3570 C   0  0  0  0  0  2  0  0  0  0  0  0
  192.4640  176.3300  146.2480 C   0  0  2  0  0  3  0  0  0  0  0  0
  194.4970  174.8920  146.1000 C   0  0  0  0  0  2  0  0  0  0  0  0
  196.2360  172.9460  143.4880 C   0  0  0  0  0  2  0  0  0  0  0  0
  196.7960  171.9860  145.5110 C   0  0  0  0  0  2  0  0  0  0  0  0
  196.4070  173.4200  145.7680 C   0  0  2  0  0  3  0  0  0  0  0  0
  196.9760  171.8400  144.0780 N   0  0  0  0  0  2  0  0  0  0  0  0
  195.0190  173.6560  145.3800 C   0  0  2  0  0  3  0  0  0  0  0  0
  196.1120  174.0260  144.4630 N   0  0  2  0  0  0  0  0  0  0  0  0
  185.6070  179.3660  144.9090 N   0  0  0  0  0  2  0  0  0  0  0  0
  184.7540  179.0410  146.0400 C   0  0  0  0  0  2  0  0  0  0  0  0
  185.6070  177.8900  147.9400 O   0  0  0  0  0  1  0  0  0  0  0  0
  185.5350  179.1460  147.3360 C   0  0  0  0  0  2  0  0  0  0  0  0
  192.0160  171.6650  142.2860 C   0  0  0  0  0  2  0  0  0  0  0  0
  190.5490  171.3550  142.0270 C   0  0  0  0  0  2  0  0  0  0  0  0
  190.4510  170.9580  139.5640 C   0  0  0  0  0  0  0  0  0  0  0  0
  190.5310  169.7100  139.7240 O   0  0  0  0  0  0  0  0  0  0  0  0
  190.1700  171.7880  140.6950 N   0  0  0  0  0  2  0  0  0  0  0  0
  191.9870  172.2240  137.9940 C   0  0  2  0  0  3  0  0  0  0  0  0
  190.6030  171.5510  138.1790 C   0  0  2  0  0  3  0  0  0  0  0  0
  189.8070  173.8120  137.2180 C   0  0  1  0  0  0  0  0  0  0  0  0
  189.3170  173.7100  138.6400 C   0  0  0  0  0  2  0  0  0  0  0  0
  191.2870  174.1450  137.0710 C   0  0  0  0  0  2  0  0  0  0  0  0
  189.4020  172.4480  137.7770 C   0  0  2  0  0  3  0  0  0  0  0  0
  192.0130  172.9780  136.8070 O   0  0  0  0  0  0  0  0  0  0  0  0
  188.8900  174.3940  136.3440 O   0  0  0  0  0  1  0  0  0  0  0  0
  192.9760  171.2340  137.9280 O   0  0  0  0  0  0  0  0  0  0  0  0
  194.1350  171.8100  138.4680 C   0  0  1  0  0  3  0  0  0  0  0  0
  194.4680  171.1650  139.6640 O   0  0  0  0  0  1  0  0  0  0  0  0
  195.2800  171.6920  137.4610 C   0  0  2  0  0  3  0  0  0  0  0  0
  196.4040  170.9740  138.0460 N   0  0  0  0  0  1  0  0  0  0  0  0
  195.7250  173.0740  137.0090 C   0  0  0  0  0  2  0  0  0  0  0  0
  196.3940  172.9920  135.7880 O   0  0  0  0  0  1  0  0  0  0  0  0
  194.4680  175.8110  140.9310 C   0  0  0  0  0  2  0  0  0  0  0  0
  195.3930  174.7700  140.3300 C   0  0  0  0  0  2  0  0  0  0  0  0
  196.9700  176.1340  141.6560 C   0  0  0  0  0  1  0  0  0  0  0  0
  196.8210  175.2540  140.4380 C   0  0  0  0  0  2  0  0  0  0  0  0
  1  3  2  0  0  0  0
  1  7  1  0  0  0  0
  2 22  1  0  0  0  0
  3  6  1  0  0  0  0
  4  2  1  0  0  0  0
  6  5  1  0  0  0  0
  6  2  2  0  0  0  0
  7  4  2  0  0  0  0
  8 14  1  0  0  0  0
  9 19  1  0  0  0  0
 10 22  1  0  0  0  0
 10 13  1  0  0  0  0
 11  8  2  0  0  0  0
 11 17  1  0  0  0  0
 12 20  2  0  0  0  0
 13 19  1  0  0  0  0
 13 18  2  0  0  0  0
 14 16  2  0  0  0  0
 14 10  1  0  0  0  0
 15  9  2  0  0  0  0
 15 33  1  0  0  0  0
 16  9  1  0  0  0  0
 17 12  1  6  0  0  0
 17 16  1  0  0  0  0
 20 15  1  0  0  0  0
 21 18  1  0  0  0  0
 22 21  2  0  0  0  0
 23 26  1  1  0  0  0
 23 25  1  0  0  0  0
 23 24  1  0  0  0  0
 25 21  1  6  0  0  0
 25 24  1  0  0  0  0
 27 30  1  0  0  0  0
 29 28  1  6  0  0  0
 30 28  1  0  0  0  0
 31 29  1  0  0  0  0
 31 26  1  1  0  0  0
 32 27  1  6  0  0  0
 32 31  1  0  0  0  0
 32 29  1  0  0  0  0
 33 34  1  0  0  0  0
 34 36  1  0  0  0  0
 36 35  1  0  0  0  0
 37  7  1  0  0  0  0
 38 37  1  0  0  0  0
 39 40  2  0  0  0  0
 39 41  1  0  0  0  0
 41 38  1  0  0  0  0
 42 50  1  6  0  0  0
 42 43  1  0  0  0  0
 43 39  1  1  0  0  0
 44 49  1  6  0  0  0
 44 47  1  0  0  0  0
 44 45  1  0  0  0  0
 46 44  1  0  0  0  0
 47 43  1  0  0  0  0
 47 45  1  1  0  0  0
 48 46  1  0  0  0  0
 48 42  1  0  0  0  0
 50 51  1  0  0  0  0
 51 52  1  1  0  0  0
 53 54  1  1  0  0  0
 53 51  1  0  0  0  0
 55 53  1  0  0  0  0
 56 55  1  0  0  0  0
 57  3  1  0  0  0  0
 58 60  1  0  0  0  0
 58 57  1  0  0  0  0
 60 59  1  0  0  0  0
M  END
>  <MODEL>
7

>  <REMARK>
 VINA RESULT:      -6.1      2.207      7.503
  Name = 
  18 active torsions:
  status: ('A' for Active; 'I' for Inactive)
    1  A    between atoms: C_2  and  C_11
    2  A    between atoms: C_6  and  C_51
    3  A    between atoms: C_9  and  O_27
    4  A    between atoms: C_12  and  C_54
    5  A    between atoms: C_13  and  C_52
    6  A    between atoms: C_13  and  C_54
    7  A    between atoms: N_20  and  C_24
    8  A    between atoms: N_20  and  C_35
    9  A    between atoms: C_21  and  C_38
   10  A    between atoms: C_21  and  C_58
   11  A    between atoms: O_27  and  C_41
   12  A    between atoms: C_30  and  CA_49
   13  A    between atoms: C_31  and  C_33
   14  A    between atoms: C_33  and  C_45
   15  A    between atoms: C_35  and  C_44
   16  A    between atoms: C_36  and  C_47
   17  A    between atoms: C_38  and  N_57
   18  A    between atoms: C_41  and  CA_49
                            x       y       z     vdW  Elec       q    Type
                         _______ _______ _______ _____ _____    ______ ____

>  <TORSDO>
F 18

$$$$
=
 OpenBabel11042416133D

 60 69  0  0  1  0  0  0  0  0999 V2000
  188.5850  176.8120  142.7980 C   0  0  0  0  0  3  0  0  0  0  0  0
  189.4300  174.2260  142.1080 C   0  0  0  0  0  0  0  0  0  0  0  0
  187.6350  175.8130  142.5610 C   0  0  0  0  0  0  0  0  0  0  0  0
  190.3660  175.2350  142.3630 C   0  0  0  0  0  3  0  0  0  0  0  0
  187.1100  173.5150  142.0080 O   0  0  0  0  0  1  0  0  0  0  0  0
  188.0560  174.5150  142.2150 C   0  0  0  0  0  0  0  0  0  0  0  0
  189.9520  176.5240  142.7130 C   0  0  0  0  0  0  0  0  0  0  0  0
  189.2080  174.1820  138.7480 C   0  0  0  0  0  3  0  0  0  0  0  0
  190.6620  170.9780  138.1560 C   0  0  0  0  0  0  0  0  0  0  0  0
  190.1000  172.4360  140.4700 N   0  0  0  0  0  0  0  0  0  0  0  0
  189.1540  174.2060  137.4480 N   0  0  0  0  0  0  0  0  0  0  0  0
  189.3840  172.2560  135.9060 C   0  0  0  0  0  3  0  0  0  0  0  0
  190.5530  171.1710  140.5950 C   0  0  0  0  0  0  0  0  0  0  0  0
  190.0640  173.0870  139.1890 C   0  0  0  0  0  0  0  0  0  0  0  0
  190.2980  170.2560  137.0840 C   0  0  0  0  0  0  0  0  0  0  0  0
  190.4520  172.4360  138.1140 C   0  0  0  0  0  0  0  0  0  0  0  0
  190.0420  173.1770  136.9030 C   0  0  2  0  0  3  0  0  0  0  0  0
  190.6410  170.7510  141.8700 N   0  0  0  0  0  0  0  0  0  0  0  0
  190.8660  170.3670  139.4460 N   0  0  0  0  0  2  0  0  0  0  0  0
  189.5640  170.9240  135.9630 C   0  0  0  0  0  3  0  0  0  0  0  0
  190.2300  171.8310  142.5850 C   0  0  0  0  0  0  0  0  0  0  0  0
  189.9000  172.8780  141.7280 C   0  0  0  0  0  0  0  0  0  0  0  0
  190.5290  173.2310  144.5960 C   0  0  1  0  0  3  0  0  0  0  0  0
  191.4840  172.0660  144.7280 C   0  0  0  0  0  2  0  0  0  0  0  0
  190.1190  171.8630  144.0820 C   0  0  2  0  0  3  0  0  0  0  0  0
  189.9070  173.5020  145.9510 C   0  0  0  0  0  2  0  0  0  0  0  0
  187.8620  176.4320  146.8820 C   0  0  0  0  0  2  0  0  0  0  0  0
  190.0650  177.0280  147.2230 C   0  0  0  0  0  2  0  0  0  0  0  0
  189.9720  175.5250  147.3030 C   0  0  2  0  0  3  0  0  0  0  0  0
  188.7100  177.5450  147.2780 N   0  0  0  0  0  2  0  0  0  0  0  0
  189.5080  174.9680  146.0340 C   0  0  2  0  0  3  0  0  0  0  0  0
  188.5550  175.1730  147.1410 N   0  0  2  0  0  0  0  0  0  0  0  0
  190.4320  168.8310  137.1000 N   0  0  0  0  0  2  0  0  0  0  0  0
  191.6580  168.1710  136.6820 C   0  0  0  0  0  2  0  0  0  0  0  0
  193.4650  169.6580  136.2560 O   0  0  0  0  0  1  0  0  0  0  0  0
  192.3840  169.0150  135.6510 C   0  0  0  0  0  2  0  0  0  0  0  0
  190.9710  177.5750  143.0030 C   0  0  0  0  0  2  0  0  0  0  0  0
  191.7350  177.2210  144.2690 C   0  0  0  0  0  2  0  0  0  0  0  0
  193.7700  175.8680  143.7550 C   0  0  0  0  0  0  0  0  0  0  0  0
  193.0720  174.9310  143.2800 O   0  0  0  0  0  0  0  0  0  0  0  0
  193.1570  177.1390  143.9930 N   0  0  0  0  0  2  0  0  0  0  0  0
  195.9060  174.8040  142.9000 C   0  0  2  0  0  3  0  0  0  0  0  0
  195.2450  175.6510  144.0170 C   0  0  2  0  0  3  0  0  0  0  0  0
  196.4560  173.9260  145.5070 C   0  0  1  0  0  0  0  0  0  0  0  0
  194.9710  173.7310  145.6800 C   0  0  0  0  0  2  0  0  0  0  0  0
  197.0300  173.3710  144.2090 C   0  0  0  0  0  2  0  0  0  0  0  0
  195.5300  175.1400  145.4540 C   0  0  2  0  0  3  0  0  0  0  0  0
  197.2000  174.4070  143.2830 O   0  0  0  0  0  0  0  0  0  0  0  0
  197.1860  173.7840  146.6870 O   0  0  0  0  0  1  0  0  0  0  0  0
  195.9910  175.5700  141.7290 O   0  0  0  0  0  0  0  0  0  0  0  0
  196.0510  174.6530  140.6710 C   0  0  1  0  0  3  0  0  0  0  0  0
  195.1320  173.6210  140.8900 O   0  0  0  0  0  1  0  0  0  0  0  0
  195.7470  175.3690  139.3550 C   0  0  2  0  0  3  0  0  0  0  0  0
  194.3470  175.1980  138.9910 N   0  0  0  0  0  1  0  0  0  0  0  0
  196.6410  174.8350  138.2470 C   0  0  0  0  0  2  0  0  0  0  0  0
  196.3610  175.4830  137.0440 O   0  0  0  0  0  1  0  0  0  0  0  0
  186.1880  176.1320  142.7180 C   0  0  0  0  0  2  0  0  0  0  0  0
  185.9460  176.9240  143.9890 C   0  0  0  0  0  2  0  0  0  0  0  0
  185.7560  179.3710  143.7030 C   0  0  0  0  0  1  0  0  0  0  0  0
  185.0000  178.0630  143.6910 C   0  0  0  0  0  2  0  0  0  0  0  0
  2  6  2  0  0  0  0
  2  4  1  0  0  0  0
  3 57  1  0  0  0  0
  3  1  2  0  0  0  0
  4  7  2  0  0  0  0
  5  6  1  0  0  0  0
  6  3  1  0  0  0  0
  7  1  1  0  0  0  0
  7 37  1  0  0  0  0
  8 14  1  0  0  0  0
  9 19  1  0  0  0  0
 10 13  1  0  0  0  0
 10 22  1  0  0  0  0
 11  8  2  0  0  0  0
 12 20  2  0  0  0  0
 13 18  2  0  0  0  0
 14 10  1  0  0  0  0
 15 33  1  0  0  0  0
 15  9  2  0  0  0  0
 16  9  1  0  0  0  0
 16 14  2  0  0  0  0
 17 12  1  6  0  0  0
 17 11  1  0  0  0  0
 17 16  1  0  0  0  0
 18 21  1  0  0  0  0
 19 13  1  0  0  0  0
 20 15  1  0  0  0  0
 22  2  1  0  0  0  0
 22 21  2  0  0  0  0
 23 24  1  0  0  0  0
 23 26  1  1  0  0  0
 25 21  1  6  0  0  0
 25 23  1  0  0  0  0
 25 24  1  0  0  0  0
 27 30  1  0  0  0  0
 28 30  1  0  0  0  0
 29 28  1  6  0  0  0
 31 26  1  1  0  0  0
 31 32  1  0  0  0  0
 31 29  1  0  0  0  0
 32 27  1  6  0  0  0
 32 29  1  0  0  0  0
 34 33  1  0  0  0  0
 36 35  1  0  0  0  0
 36 34  1  0  0  0  0
 37 38  1  0  0  0  0
 39 41  1  0  0  0  0
 40 39  2  0  0  0  0
 41 38  1  0  0  0  0
 42 50  1  6  0  0  0
 42 48  1  0  0  0  0
 42 43  1  0  0  0  0
 43 39  1  6  0  0  0
 43 47  1  0  0  0  0
 44 45  1  0  0  0  0
 44 49  1  1  0  0  0
 46 44  1  0  0  0  0
 47 44  1  0  0  0  0
 47 45  1  6  0  0  0
 48 46  1  0  0  0  0
 51 52  1  1  0  0  0
 51 50  1  0  0  0  0
 53 54  1  6  0  0  0
 53 51  1  0  0  0  0
 55 53  1  0  0  0  0
 56 55  1  0  0  0  0
 57 58  1  0  0  0  0
 60 59  1  0  0  0  0
 60 58  1  0  0  0  0
M  END
>  <MODEL>
8

>  <REMARK>
 VINA RESULT:      -6.0      2.348      6.599
  Name = 
  18 active torsions:
  status: ('A' for Active; 'I' for Inactive)
    1  A    between atoms: C_2  and  C_11
    2  A    between atoms: C_6  and  C_51
    3  A    between atoms: C_9  and  O_27
    4  A    between atoms: C_12  and  C_54
    5  A    between atoms: C_13  and  C_52
    6  A    between atoms: C_13  and  C_54
    7  A    between atoms: N_20  and  C_24
    8  A    between atoms: N_20  and  C_35
    9  A    between atoms: C_21  and  C_38
   10  A    between atoms: C_21  and  C_58
   11  A    between atoms: O_27  and  C_41
   12  A    between atoms: C_30  and  CA_49
   13  A    between atoms: C_31  and  C_33
   14  A    between atoms: C_33  and  C_45
   15  A    between atoms: C_35  and  C_44
   16  A    between atoms: C_36  and  C_47
   17  A    between atoms: C_38  and  N_57
   18  A    between atoms: C_41  and  CA_49
                            x       y       z     vdW  Elec       q    Type
                         _______ _______ _______ _____ _____    ______ ____

>  <TORSDO>
F 18

$$$$
=
 OpenBabel11042416133D

 60 69  0  0  1  0  0  0  0  0999 V2000
  192.1460  173.7590  144.0190 C   0  0  0  0  0  3  0  0  0  0  0  0
  189.9870  174.7070  142.4980 C   0  0  0  0  0  0  0  0  0  0  0  0
  191.0020  172.9670  143.8710 C   0  0  0  0  0  0  0  0  0  0  0  0
  191.1460  175.4790  142.6440 C   0  0  0  0  0  3  0  0  0  0  0  0
  188.7910  172.6390  142.9400 O   0  0  0  0  0  1  0  0  0  0  0  0
  189.9180  173.4400  143.1100 C   0  0  0  0  0  0  0  0  0  0  0  0
  192.2270  175.0090  143.3960 C   0  0  0  0  0  0  0  0  0  0  0  0
  188.2960  176.6540  144.6640 C   0  0  0  0  0  3  0  0  0  0  0  0
  185.8660  177.9770  142.4120 C   0  0  0  0  0  0  0  0  0  0  0  0
  187.9660  176.1610  142.1230 N   0  0  0  0  0  0  0  0  0  0  0  0
  187.6860  177.4330  145.5080 N   0  0  0  0  0  0  0  0  0  0  0  0
  185.4360  178.4790  145.2210 C   0  0  0  0  0  3  0  0  0  0  0  0
  187.1370  176.3640  141.0780 C   0  0  0  0  0  0  0  0  0  0  0  0
  187.8850  176.9780  143.3030 C   0  0  0  0  0  0  0  0  0  0  0  0
  184.6500  178.3320  142.8580 C   0  0  0  0  0  0  0  0  0  0  0  0
  186.9720  177.9210  143.3840 C   0  0  2  0  0  3  0  0  0  0  0  0
  186.8750  178.4090  144.7760 C   0  0  0  0  0  0  0  0  0  0  0  0
  187.4210  175.6040  140.0050 N   0  0  0  0  0  0  0  0  0  0  0  0
  186.0390  177.2880  141.1580 N   0  0  0  0  0  2  0  0  0  0  0  0
  184.4300  178.5080  144.3290 C   0  0  0  0  0  3  0  0  0  0  0  0
  188.5090  174.8940  140.4040 C   0  0  0  0  0  0  0  0  0  0  0  0
  188.8560  175.2370  141.7080 C   0  0  0  0  0  0  0  0  0  0  0  0
  188.5160  173.7610  138.2110 C   0  0  1  0  0  3  0  0  0  0  0  0
  188.2810  172.6930  139.2550 C   0  0  0  0  0  2  0  0  0  0  0  0
  189.2050  173.8650  139.5590 C   0  0  2  0  0  3  0  0  0  0  0  0
  189.4660  173.2130  137.1660 C   0  0  0  0  0  2  0  0  0  0  0  0
  191.5100  170.1600  137.5340 C   0  0  0  0  0  2  0  0  0  0  0  0
  192.8090  171.9180  138.2730 C   0  0  0  0  0  2  0  0  0  0  0  0
  191.7790  172.4690  137.3190 C   0  0  2  0  0  3  0  0  0  0  0  0
  192.8020  170.4740  138.1250 N   0  0  0  0  0  2  0  0  0  0  0  0
  190.4290  172.2370  137.8270 C   0  0  2  0  0  3  0  0  0  0  0  0
  191.0030  171.3270  136.8180 N   0  0  2  0  0  0  0  0  0  0  0  0
  183.5340  178.3480  141.9630 N   0  0  0  0  0  2  0  0  0  0  0  0
  182.1860  178.6430  142.4210 C   0  0  0  0  0  2  0  0  0  0  0  0
  181.0390  179.4970  140.5190 O   0  0  0  0  0  1  0  0  0  0  0  0
  181.1830  178.3620  141.3180 C   0  0  0  0  0  2  0  0  0  0  0  0
  193.4610  175.8410  143.5160 C   0  0  0  0  0  2  0  0  0  0  0  0
  193.8760  175.9450  144.9760 C   0  0  0  0  0  2  0  0  0  0  0  0
  196.1510  174.9780  144.6230 C   0  0  0  0  0  0  0  0  0  0  0  0
  196.5950  176.0800  144.1990 O   0  0  0  0  0  0  0  0  0  0  0  0
  194.8830  174.9470  145.2860 N   0  0  0  0  0  2  0  0  0  0  0  0
  196.7580  173.0510  143.0930 C   0  0  2  0  0  3  0  0  0  0  0  0
  196.9820  173.7220  144.4720 C   0  0  2  0  0  3  0  0  0  0  0  0
  196.5530  171.3090  145.2830 C   0  0  1  0  0  0  0  0  0  0  0  0
  195.4230  172.1760  145.7770 C   0  0  0  0  0  2  0  0  0  0  0  0
  196.4830  170.9420  143.8060 C   0  0  0  0  0  2  0  0  0  0  0  0
  196.8370  172.7570  145.6790 C   0  0  2  0  0  3  0  0  0  0  0  0
  197.3380  171.7700  143.0690 O   0  0  0  0  0  0  0  0  0  0  0  0
  196.9720  170.3470  146.2020 O   0  0  0  0  0  1  0  0  0  0  0  0
  197.3490  173.8380  142.0950 O   0  0  0  0  0  0  0  0  0  0  0  0
  196.4970  173.7560  140.9850 C   0  0  1  0  0  3  0  0  0  0  0  0
  195.1750  173.6070  141.4160 O   0  0  0  0  0  1  0  0  0  0  0  0
  196.6420  175.0200  140.1350 C   0  0  2  0  0  3  0  0  0  0  0  0
  197.9410  175.6400  140.3580 N   0  0  0  0  0  1  0  0  0  0  0  0
  195.5330  176.0060  140.4670 C   0  0  0  0  0  2  0  0  0  0  0  0
  196.0380  177.0690  141.2150 O   0  0  0  0  0  1  0  0  0  0  0  0
  190.9670  171.6150  144.4960 C   0  0  0  0  0  2  0  0  0  0  0  0
  192.1940  170.8120  144.1100 C   0  0  0  0  0  2  0  0  0  0  0  0
  193.4320  170.5570  141.9870 C   0  0  0  0  0  1  0  0  0  0  0  0
  192.0870  170.4080  142.6580 C   0  0  0  0  0  2  0  0  0  0  0  0
  2  4  2  0  0  0  0
  2  6  1  0  0  0  0
  3  1  1  0  0  0  0
  3 57  1  0  0  0  0
  4  7  1  0  0  0  0
  5  6  1  0  0  0  0
  6  3  2  0  0  0  0
  7 37  1  0  0  0  0
  7  1  2  0  0  0  0
  8 11  1  0  0  0  0
  9 15  2  0  0  0  0
 10 14  1  0  0  0  0
 13 19  1  0  0  0  0
 13 10  1  0  0  0  0
 14 16  1  0  0  0  0
 14  8  2  0  0  0  0
 15 20  1  0  0  0  0
 16  9  1  1  0  0  0
 16 17  1  0  0  0  0
 17 12  1  0  0  0  0
 17 11  2  0  0  0  0
 18 21  1  0  0  0  0
 18 13  2  0  0  0  0
 19  9  1  0  0  0  0
 20 12  2  0  0  0  0
 21 22  2  0  0  0  0
 22 10  1  0  0  0  0
 22  2  1  0  0  0  0
 23 26  1  6  0  0  0
 23 24  1  0  0  0  0
 23 25  1  0  0  0  0
 24 25  1  0  0  0  0
 25 21  1  1  0  0  0
 27 30  1  0  0  0  0
 29 31  1  0  0  0  0
 29 28  1  1  0  0  0
 30 28  1  0  0  0  0
 31 26  1  6  0  0  0
 32 29  1  0  0  0  0
 32 27  1  1  0  0  0
 32 31  1  0  0  0  0
 33 34  1  0  0  0  0
 33 15  1  0  0  0  0
 35 36  1  0  0  0  0
 36 34  1  0  0  0  0
 37 38  1  0  0  0  0
 38 41  1  0  0  0  0
 39 41  1  0  0  0  0
 40 39  2  0  0  0  0
 42 50  1  6  0  0  0
 42 43  1  0  0  0  0
 43 39  1  1  0  0  0
 43 47  1  0  0  0  0
 44 47  1  0  0  0  0
 44 45  1  0  0  0  0
 44 49  1  1  0  0  0
 46 44  1  0  0  0  0
 47 45  1  1  0  0  0
 48 42  1  0  0  0  0
 48 46  1  0  0  0  0
 51 52  1  1  0  0  0
 51 50  1  0  0  0  0
 53 54  1  1  0  0  0
 53 55  1  0  0  0  0
 53 51  1  0  0  0  0
 55 56  1  0  0  0  0
 58 57  1  0  0  0  0
 59 60  1  0  0  0  0
 60 58  1  0  0  0  0
M  END
>  <MODEL>
9

>  <REMARK>
 VINA RESULT:      -5.9      2.719      9.355
  Name = 
  18 active torsions:
  status: ('A' for Active; 'I' for Inactive)
    1  A    between atoms: C_2  and  C_11
    2  A    between atoms: C_6  and  C_51
    3  A    between atoms: C_9  and  O_27
    4  A    between atoms: C_12  and  C_54
    5  A    between atoms: C_13  and  C_52
    6  A    between atoms: C_13  and  C_54
    7  A    between atoms: N_20  and  C_24
    8  A    between atoms: N_20  and  C_35
    9  A    between atoms: C_21  and  C_38
   10  A    between atoms: C_21  and  C_58
   11  A    between atoms: O_27  and  C_41
   12  A    between atoms: C_30  and  CA_49
   13  A    between atoms: C_31  and  C_33
   14  A    between atoms: C_33  and  C_45
   15  A    between atoms: C_35  and  C_44
   16  A    between atoms: C_36  and  C_47
   17  A    between atoms: C_38  and  N_57
   18  A    between atoms: C_41  and  CA_49
                            x       y       z     vdW  Elec       q    Type
                         _______ _______ _______ _____ _____    ______ ____

>  <TORSDO>
F 18

$$$$
