=
 OpenBabel11042417383D

 54 62  0  0  1  0  0  0  0  0999 V2000
  190.7320  175.5320  146.6390 C   0  0  1  0  0  0  0  0  0  0  0  0
  189.2190  174.2240  146.7130 C   0  0  0  0  0  2  0  0  0  0  0  0
  189.7820  175.6530  144.7360 C   0  0  1  0  0  3  0  0  0  0  0  0
  189.7180  175.2250  147.5660 O   0  0  0  0  0  0  0  0  0  0  0  0
  190.2580  174.5090  145.6480 C   0  0  1  0  0  3  0  0  0  0  0  0
  190.4290  176.6750  145.6700 C   0  0  1  0  0  3  0  0  0  0  0  0
  188.7270  175.2220  140.9770 N   0  0  0  0  0  0  0  0  0  0  0  0
  192.7280  173.4220  143.0950 C   0  0  0  0  0  1  0  0  0  0  0  0
  190.4160  175.6880  143.3290 C   0  0  2  0  0  3  0  0  0  0  0  0
  188.4160  176.3270  141.8770 C   0  0  1  0  0  3  0  0  0  0  0  0
  189.5650  177.9880  143.2270 O   0  0  0  0  0  1  0  0  0  0  0  0
  189.7400  176.8120  142.4900 C   0  0  1  0  0  3  0  0  0  0  0  0
  190.2700  174.2950  142.6590 C   0  0  2  0  0  3  0  0  0  0  0  0
  191.5500  173.6570  142.2150 C   0  0  0  0  0  0  0  0  0  0  0  0
  191.4870  173.1840  141.0090 N   0  0  0  0  0  0  0  0  0  0  0  0
  190.2650  173.5110  140.4070 N   0  0  0  0  0  2  0  0  0  0  0  0
  189.5480  174.2880  141.3490 C   0  0  0  0  0  0  0  0  0  0  0  0
  187.7690  177.4520  141.0820 C   0  0  0  0  0  2  0  0  0  0  0  0
  186.2840  177.1980  140.8520 C   0  0  0  0  0  2  0  0  0  0  0  0
  184.3190  178.3200  142.0480 C   0  0  0  0  0  3  0  0  0  0  0  0
  184.0240  178.4700  143.3940 C   0  0  0  0  0  3  0  0  0  0  0  0
  185.4480  177.5190  142.0460 C   0  0  0  0  0  0  0  0  0  0  0  0
  184.9400  177.7870  144.1100 N   0  0  0  0  0  0  0  0  0  0  0  0
  185.8270  177.2300  143.3020 N   0  0  0  0  0  0  0  0  0  0  0  0
  186.0640  176.8050  146.0720 C   0  0  0  0  0  2  0  0  0  0  0  0
  185.0670  177.8410  145.5680 C   0  0  1  0  0  3  0  0  0  0  0  0
  185.8490  179.2100  147.5220 C   0  0  0  0  0  3  0  0  0  0  0  0
  185.5170  179.2230  146.0500 C   0  0  0  0  0  2  0  0  0  0  0  0
  185.9890  176.7870  147.5980 C   0  0  0  0  0  2  0  0  0  0  0  0
  186.0980  178.1210  148.1720 N   0  0  0  0  0  0  0  0  0  0  0  0
  189.7650  178.0480  147.5030 O   0  0  0  0  0  1  0  0  0  0  0  0
  189.3960  177.6500  146.2190 C   0  0  0  0  0  2  0  0  0  0  0  0
  192.1420  175.3620  147.2030 C   0  0  0  0  0  2  0  0  0  0  0  0
  193.1620  174.8690  146.1950 C   0  0  0  0  0  2  0  0  0  0  0  0
  194.4050  175.7260  146.3370 C   0  0  0  0  0  2  0  0  0  0  0  0
  195.4280  175.3610  145.2750 C   0  0  0  0  0  2  0  0  0  0  0  0
  196.1600  174.0760  145.6450 C   0  0  0  0  0  2  0  0  0  0  0  0
  196.1860  173.0910  144.4720 C   0  0  2  0  0  3  0  0  0  0  0  0
  194.6620  170.1450  145.8290 C   0  0  0  0  0  2  0  0  0  0  0  0
  194.5690  169.6930  144.3980 C   0  0  0  0  0  2  0  0  0  0  0  0
  197.2990  171.3340  145.6700 O   0  0  0  0  0  1  0  0  0  0  0  0
  195.0220  171.4990  145.8440 O   0  0  0  0  0  0  0  0  0  0  0  0
  196.1240  171.6390  144.9780 C   0  0  1  0  0  0  0  0  0  0  0  0
  195.9420  170.4960  143.5590 S   0  0  0  0  0  0  0  0  0  0  0  0
  197.4420  173.3390  143.6350 C   0  0  0  0  0  2  0  0  0  0  0  0
  196.0590  174.3190  140.3600 C   0  0  1  0  0  3  0  0  0  0  0  0
  196.6030  175.6890  140.8300 C   0  0  0  0  0  2  0  0  0  0  0  0
  197.9410  176.0980  142.7920 O   0  0  0  0  0  0  0  0  0  0  0  0
  196.2560  173.3180  141.4260 N   0  0  0  0  0  2  0  0  0  0  0  0
  197.0910  173.9480  142.3570 N   0  0  0  0  0  0  0  0  0  0  0  0
  197.2790  175.3110  142.0700 C   0  0  0  0  0  0  0  0  0  0  0  0
  194.6030  174.2760  139.8610 C   0  0  0  0  0  3  0  0  0  0  0  0
  194.3680  175.1570  138.6490 C   0  0  0  0  0  2  0  0  0  0  0  0
  194.4830  173.6530  138.4800 C   0  0  0  0  0  2  0  0  0  0  0  0
  1 33  1  1  0  0  0
  1  4  1  0  0  0  0
  2  4  1  0  0  0  0
  3  9  1  6  0  0  0
  3  5  1  0  0  0  0
  3  6  1  0  0  0  0
  5  1  1  0  0  0  0
  5  2  1  1  0  0  0
  6 32  1  1  0  0  0
  6  1  1  0  0  0  0
  7 17  2  0  0  0  0
  7 10  1  0  0  0  0
 10 12  1  0  0  0  0
 12 11  1  0  0  0  0
 12  9  1  0  0  0  0
 13  9  1  0  0  0  0
 14 13  1  0  0  0  0
 14  8  1  0  0  0  0
 15 14  2  0  0  0  0
 16 15  1  0  0  0  0
 16 17  1  0  0  0  0
 17 13  1  0  0  0  0
 18 10  1  0  0  0  0
 19 18  1  0  0  0  0
 19 22  1  0  0  0  0
 20 21  2  0  0  0  0
 21 23  1  0  0  0  0
 22 20  1  0  0  0  0
 22 24  2  0  0  0  0
 23 26  1  0  0  0  0
 24 23  1  0  0  0  0
 25 29  1  0  0  0  0
 26 28  1  0  0  0  0
 26 25  1  0  0  0  0
 27 30  2  0  0  0  0
 28 27  1  0  0  0  0
 29 30  1  0  0  0  0
 32 31  1  0  0  0  0
 34 35  1  0  0  0  0
 34 33  1  0  0  0  0
 36 37  1  0  0  0  0
 36 35  1  0  0  0  0
 38 43  1  0  0  0  0
 38 37  1  0  0  0  0
 39 42  1  0  0  0  0
 40 39  1  0  0  0  0
 43 41  1  0  0  0  0
 43 42  1  0  0  0  0
 44 40  1  0  0  0  0
 44 43  1  0  0  0  0
 45 38  1  0  0  0  0
 46 47  1  0  0  0  0
 46 49  1  0  0  0  0
 47 51  1  0  0  0  0
 49 50  1  0  0  0  0
 50 45  1  0  0  0  0
 51 50  1  0  0  0  0
 51 48  2  0  0  0  0
 52 46  1  0  0  0  0
 53 52  1  0  0  0  0
 54 53  1  0  0  0  0
 54 52  1  0  0  0  0
M  END
>  <MODEL>
1

>  <REMARK>
 VINA RESULT:      -7.8      0.000      0.000
  Name = 
  16 active torsions:
  status: ('A' for Active; 'I' for Inactive)
    1  A    between atoms: C_4  and  C_23
    2  A    between atoms: C_6  and  C_19
    3  A    between atoms: C_6  and  C_44
    4  A    between atoms: C_10  and  N_46
    5  A    between atoms: C_12  and  C_20
    6  A    between atoms: C_14  and  C_37
    7  A    between atoms: C_14  and  C_45
    8  A    between atoms: C_16  and  C_32
    9  A    between atoms: C_17  and  C_45
   10  A    between atoms: C_19  and  C_32
   11  A    between atoms: C_24  and  C_53
   12  A    between atoms: C_25  and  C_36
   13  A    between atoms: C_29  and  C_36
   14  A    between atoms: C_29  and  N_42
   15  A    between atoms: C_30  and  C_36
   16  A    between atoms: C_30  and  C_44
                            x       y       z     vdW  Elec       q    Type
                         _______ _______ _______ _____ _____    ______ ____

>  <TORSDO>
F 16

$$$$
=
 OpenBabel11042417383D

 54 62  0  0  1  0  0  0  0  0999 V2000
  191.4700  175.8090  145.9260 C   0  0  1  0  0  0  0  0  0  0  0  0
  191.8770  175.2790  147.8120 C   0  0  0  0  0  2  0  0  0  0  0  0
  192.5800  173.9970  145.7790 C   0  0  1  0  0  3  0  0  0  0  0  0
  190.7350  175.7250  147.1240 O   0  0  0  0  0  0  0  0  0  0  0  0
  192.7350  175.3120  146.5620 C   0  0  1  0  0  3  0  0  0  0  0  0
  191.3980  174.5870  145.0100 C   0  0  1  0  0  3  0  0  0  0  0  0
  195.8420  171.8090  145.7690 N   0  0  0  0  0  0  0  0  0  0  0  0
  195.3730  176.3340  144.0230 C   0  0  0  0  0  1  0  0  0  0  0  0
  193.7500  173.6430  144.8380 C   0  0  2  0  0  3  0  0  0  0  0  0
  194.4560  171.3560  145.7280 C   0  0  1  0  0  3  0  0  0  0  0  0
  192.4720  171.6060  144.3480 O   0  0  0  0  0  1  0  0  0  0  0  0
  193.7570  172.1070  144.5820 C   0  0  1  0  0  3  0  0  0  0  0  0
  195.0850  174.1330  145.4630 C   0  0  2  0  0  3  0  0  0  0  0  0
  195.8890  175.0660  144.6100 C   0  0  0  0  0  0  0  0  0  0  0  0
  197.1430  174.7410  144.5510 N   0  0  0  0  0  0  0  0  0  0  0  0
  197.3770  173.5270  145.2080 N   0  0  0  0  0  2  0  0  0  0  0  0
  196.1190  173.0740  145.6750 C   0  0  0  0  0  0  0  0  0  0  0  0
  194.4280  169.8590  145.4610 C   0  0  0  0  0  2  0  0  0  0  0  0
  195.6710  169.3960  144.7090 C   0  0  0  0  0  2  0  0  0  0  0  0
  196.3770  169.3670  142.2490 C   0  0  0  0  0  3  0  0  0  0  0  0
  195.6370  169.2840  141.0790 C   0  0  0  0  0  3  0  0  0  0  0  0
  195.4300  169.2100  143.2480 C   0  0  0  0  0  0  0  0  0  0  0  0
  194.3430  169.0920  141.4060 N   0  0  0  0  0  0  0  0  0  0  0  0
  194.2030  169.0750  142.7210 N   0  0  0  0  0  0  0  0  0  0  0  0
  192.0530  169.9130  141.0100 C   0  0  0  0  0  2  0  0  0  0  0  0
  193.2310  169.1230  140.4540 C   0  0  1  0  0  3  0  0  0  0  0  0
  192.4490  169.9660  138.2220 C   0  0  0  0  0  3  0  0  0  0  0  0
  193.6440  169.7430  139.1160 C   0  0  0  0  0  2  0  0  0  0  0  0
  190.8740  169.7310  140.0550 C   0  0  0  0  0  2  0  0  0  0  0  0
  191.2370  170.0000  138.6710 N   0  0  0  0  0  0  0  0  0  0  0  0
  189.0140  174.5560  144.9770 O   0  0  0  0  0  1  0  0  0  0  0  0
  190.1340  173.7650  145.2270 C   0  0  0  0  0  2  0  0  0  0  0  0
  191.4910  177.2140  145.3250 C   0  0  0  0  0  2  0  0  0  0  0  0
  191.7430  177.2490  143.8290 C   0  0  0  0  0  2  0  0  0  0  0  0
  190.8700  178.3380  143.2390 C   0  0  0  0  0  2  0  0  0  0  0  0
  189.5610  177.7550  142.7320 C   0  0  0  0  0  2  0  0  0  0  0  0
  189.7800  176.3730  142.1300 C   0  0  0  0  0  2  0  0  0  0  0  0
  188.4550  175.6250  141.9520 C   0  0  2  0  0  3  0  0  0  0  0  0
  189.0420  173.3750  139.2260 C   0  0  0  0  0  2  0  0  0  0  0  0
  190.4830  173.4490  139.6470 C   0  0  0  0  0  2  0  0  0  0  0  0
  187.8850  173.2940  141.8810 O   0  0  0  0  0  1  0  0  0  0  0  0
  188.3290  174.3690  139.9080 O   0  0  0  0  0  0  0  0  0  0  0  0
  188.6820  174.2650  141.2680 C   0  0  1  0  0  0  0  0  0  0  0  0
  190.4430  173.7850  141.4130 S   0  0  0  0  0  0  0  0  0  0  0  0
  187.4880  176.4990  141.1510 C   0  0  0  0  0  2  0  0  0  0  0  0
  185.1590  177.4230  143.8570 C   0  0  1  0  0  3  0  0  0  0  0  0
  184.6800  178.4020  142.7600 C   0  0  0  0  0  2  0  0  0  0  0  0
  185.4080  178.4430  140.4630 O   0  0  0  0  0  0  0  0  0  0  0  0
  186.3290  176.6690  143.3680 N   0  0  0  0  0  2  0  0  0  0  0  0
  186.3940  176.9590  142.0000 N   0  0  0  0  0  0  0  0  0  0  0  0
  185.4940  177.9710  141.6250 C   0  0  0  0  0  0  0  0  0  0  0  0
  185.4600  178.0170  145.2450 C   0  0  0  0  0  3  0  0  0  0  0  0
  184.2380  178.6320  145.9010 C   0  0  0  0  0  2  0  0  0  0  0  0
  184.7410  177.2760  146.3600 C   0  0  0  0  0  2  0  0  0  0  0  0
  1 33  1  6  0  0  0
  1  5  1  0  0  0  0
  1  4  1  0  0  0  0
  3  9  1  6  0  0  0
  3  5  1  0  0  0  0
  4  2  1  0  0  0  0
  5  2  1  1  0  0  0
  6 32  1  1  0  0  0
  6  3  1  0  0  0  0
  6  1  1  0  0  0  0
  8 14  1  0  0  0  0
  9 13  1  0  0  0  0
 10  7  1  0  0  0  0
 11 12  1  0  0  0  0
 12  9  1  0  0  0  0
 12 10  1  0  0  0  0
 13 17  1  0  0  0  0
 14 13  1  0  0  0  0
 15 14  2  0  0  0  0
 15 16  1  0  0  0  0
 16 17  1  0  0  0  0
 17  7  2  0  0  0  0
 18 10  1  0  0  0  0
 19 18  1  0  0  0  0
 20 22  1  0  0  0  0
 21 23  1  0  0  0  0
 21 20  2  0  0  0  0
 22 19  1  0  0  0  0
 23 24  1  0  0  0  0
 24 22  2  0  0  0  0
 26 25  1  0  0  0  0
 26 23  1  0  0  0  0
 27 30  2  0  0  0  0
 27 28  1  0  0  0  0
 28 26  1  0  0  0  0
 29 25  1  0  0  0  0
 30 29  1  0  0  0  0
 31 32  1  0  0  0  0
 34 33  1  0  0  0  0
 35 34  1  0  0  0  0
 36 35  1  0  0  0  0
 37 36  1  0  0  0  0
 38 37  1  0  0  0  0
 39 40  1  0  0  0  0
 39 42  1  0  0  0  0
 40 44  1  0  0  0  0
 42 43  1  0  0  0  0
 43 44  1  0  0  0  0
 43 41  1  0  0  0  0
 43 38  1  0  0  0  0
 45 38  1  0  0  0  0
 45 50  1  0  0  0  0
 46 52  1  0  0  0  0
 47 46  1  0  0  0  0
 48 51  2  0  0  0  0
 49 46  1  0  0  0  0
 50 49  1  0  0  0  0
 51 50  1  0  0  0  0
 51 47  1  0  0  0  0
 52 53  1  0  0  0  0
 52 54  1  0  0  0  0
 53 54  1  0  0  0  0
M  END
>  <MODEL>
2

>  <REMARK>
 VINA RESULT:      -7.4      2.745      9.559
  Name = 
  16 active torsions:
  status: ('A' for Active; 'I' for Inactive)
    1  A    between atoms: C_4  and  C_23
    2  A    between atoms: C_6  and  C_19
    3  A    between atoms: C_6  and  C_44
    4  A    between atoms: C_10  and  N_46
    5  A    between atoms: C_12  and  C_20
    6  A    between atoms: C_14  and  C_37
    7  A    between atoms: C_14  and  C_45
    8  A    between atoms: C_16  and  C_32
    9  A    between atoms: C_17  and  C_45
   10  A    between atoms: C_19  and  C_32
   11  A    between atoms: C_24  and  C_53
   12  A    between atoms: C_25  and  C_36
   13  A    between atoms: C_29  and  C_36
   14  A    between atoms: C_29  and  N_42
   15  A    between atoms: C_30  and  C_36
   16  A    between atoms: C_30  and  C_44
                            x       y       z     vdW  Elec       q    Type
                         _______ _______ _______ _____ _____    ______ ____

>  <TORSDO>
F 16

$$$$
=
 OpenBabel11042417383D

 54 62  0  0  1  0  0  0  0  0999 V2000
  192.8790  172.0450  138.8580 C   0  0  1  0  0  0  0  0  0  0  0  0
  193.0150  174.0330  138.6700 C   0  0  0  0  0  2  0  0  0  0  0  0
  190.8950  172.7780  139.1200 C   0  0  1  0  0  3  0  0  0  0  0  0
  193.5080  172.9250  137.9570 O   0  0  0  0  0  0  0  0  0  0  0  0
  192.2810  173.1580  139.6680 C   0  0  1  0  0  3  0  0  0  0  0  0
  191.4950  171.5440  138.4450 C   0  0  1  0  0  3  0  0  0  0  0  0
  188.8830  174.4260  142.0630 N   0  0  0  0  0  0  0  0  0  0  0  0
  191.0120  170.0430  142.0950 C   0  0  0  0  0  1  0  0  0  0  0  0
  189.8450  172.3910  140.1810 C   0  0  2  0  0  3  0  0  0  0  0  0
  188.7120  174.6350  140.6300 C   0  0  1  0  0  3  0  0  0  0  0  0
  188.2130  173.3580  138.6240 O   0  0  0  0  0  1  0  0  0  0  0  0
  188.5640  173.2520  139.9740 C   0  0  1  0  0  3  0  0  0  0  0  0
  190.4470  172.5790  141.6010 C   0  0  2  0  0  3  0  0  0  0  0  0
  190.4320  171.3620  142.4730 C   0  0  0  0  0  0  0  0  0  0  0  0
  189.9920  171.6030  143.6680 N   0  0  0  0  0  0  0  0  0  0  0  0
  189.5350  172.9230  143.7770 N   0  0  0  0  0  2  0  0  0  0  0  0
  189.6940  173.5090  142.4980 C   0  0  0  0  0  0  0  0  0  0  0  0
  187.4560  175.4590  140.3920 C   0  0  0  0  0  2  0  0  0  0  0  0
  187.6250  176.8970  140.8710 C   0  0  0  0  0  2  0  0  0  0  0  0
  185.5790  178.2130  141.6660 C   0  0  0  0  0  3  0  0  0  0  0  0
  185.0290  178.3890  142.9260 C   0  0  0  0  0  3  0  0  0  0  0  0
  186.5970  177.2990  141.8760 C   0  0  0  0  0  0  0  0  0  0  0  0
  185.7040  177.6120  143.7980 N   0  0  0  0  0  0  0  0  0  0  0  0
  186.6780  176.9690  143.1750 N   0  0  0  0  0  0  0  0  0  0  0  0
  186.5990  176.8180  145.9530 C   0  0  0  0  0  2  0  0  0  0  0  0
  185.5310  177.6490  145.2510 C   0  0  1  0  0  3  0  0  0  0  0  0
  185.6260  179.0890  147.3050 C   0  0  0  0  0  3  0  0  0  0  0  0
  185.5910  179.0780  145.7970 C   0  0  0  0  0  2  0  0  0  0  0  0
  186.2340  176.7420  147.4350 C   0  0  0  0  0  2  0  0  0  0  0  0
  185.9580  178.0530  148.0040 N   0  0  0  0  0  0  0  0  0  0  0  0
  191.5890  170.3380  136.3910 O   0  0  0  0  0  1  0  0  0  0  0  0
  191.2820  171.5820  136.9380 C   0  0  0  0  0  2  0  0  0  0  0  0
  193.8520  171.1050  139.5670 C   0  0  0  0  0  2  0  0  0  0  0  0
  194.2230  171.5350  140.9730 C   0  0  0  0  0  2  0  0  0  0  0  0
  195.5020  172.3440  140.8880 C   0  0  0  0  0  2  0  0  0  0  0  0
  195.3530  173.6580  141.6370 C   0  0  0  0  0  2  0  0  0  0  0  0
  196.5190  173.8720  142.5930 C   0  0  0  0  0  2  0  0  0  0  0  0
  196.0330  174.0490  144.0350 C   0  0  2  0  0  3  0  0  0  0  0  0
  196.5880  171.1830  146.1130 C   0  0  0  0  0  2  0  0  0  0  0  0
  197.3100  170.6200  144.9200 C   0  0  0  0  0  2  0  0  0  0  0  0
  197.5570  173.9030  145.8840 O   0  0  0  0  0  1  0  0  0  0  0  0
  195.8980  172.3340  145.7120 O   0  0  0  0  0  0  0  0  0  0  0  0
  196.8120  173.1280  144.9910 C   0  0  1  0  0  0  0  0  0  0  0  0
  197.9410  172.0520  144.0330 S   0  0  0  0  0  0  0  0  0  0  0  0
  194.5290  173.7750  144.0960 C   0  0  0  0  0  2  0  0  0  0  0  0
  192.2030  176.6310  144.2790 C   0  0  1  0  0  3  0  0  0  0  0  0
  192.8470  176.7330  145.6820 C   0  0  0  0  0  2  0  0  0  0  0  0
  194.7140  175.4440  146.4950 O   0  0  0  0  0  0  0  0  0  0  0  0
  192.7270  175.4410  143.5820 N   0  0  0  0  0  2  0  0  0  0  0  0
  193.7980  175.0060  144.3720 N   0  0  0  0  0  0  0  0  0  0  0  0
  193.8730  175.6950  145.5950 C   0  0  0  0  0  0  0  0  0  0  0  0
  190.6650  176.6450  144.2100 C   0  0  0  0  0  3  0  0  0  0  0  0
  190.0410  177.6360  145.1750 C   0  0  0  0  0  2  0  0  0  0  0  0
  190.1210  177.9680  143.6960 C   0  0  0  0  0  2  0  0  0  0  0  0
  1 33  1  1  0  0  0
  1  5  1  0  0  0  0
  3  5  1  0  0  0  0
  3  9  1  1  0  0  0
  4  2  1  0  0  0  0
  4  1  1  0  0  0  0
  5  2  1  6  0  0  0
  6 32  1  6  0  0  0
  6  1  1  0  0  0  0
  6  3  1  0  0  0  0
  7 17  2  0  0  0  0
  8 14  1  0  0  0  0
  9 13  1  0  0  0  0
 10  7  1  0  0  0  0
 11 12  1  0  0  0  0
 12  9  1  0  0  0  0
 12 10  1  0  0  0  0
 13 14  1  0  0  0  0
 13 17  1  0  0  0  0
 14 15  2  0  0  0  0
 15 16  1  0  0  0  0
 17 16  1  0  0  0  0
 18 10  1  0  0  0  0
 18 19  1  0  0  0  0
 19 22  1  0  0  0  0
 20 22  1  0  0  0  0
 20 21  2  0  0  0  0
 21 23  1  0  0  0  0
 22 24  2  0  0  0  0
 23 26  1  0  0  0  0
 24 23  1  0  0  0  0
 25 29  1  0  0  0  0
 26 28  1  0  0  0  0
 26 25  1  0  0  0  0
 27 30  2  0  0  0  0
 28 27  1  0  0  0  0
 29 30  1  0  0  0  0
 31 32  1  0  0  0  0
 33 34  1  0  0  0  0
 35 34  1  0  0  0  0
 35 36  1  0  0  0  0
 36 37  1  0  0  0  0
 37 38  1  0  0  0  0
 38 45  1  0  0  0  0
 38 43  1  0  0  0  0
 40 39  1  0  0  0  0
 42 39  1  0  0  0  0
 43 42  1  0  0  0  0
 43 41  1  0  0  0  0
 44 40  1  0  0  0  0
 44 43  1  0  0  0  0
 45 50  1  0  0  0  0
 46 47  1  0  0  0  0
 49 46  1  0  0  0  0
 49 50  1  0  0  0  0
 50 51  1  0  0  0  0
 51 47  1  0  0  0  0
 51 48  2  0  0  0  0
 52 46  1  0  0  0  0
 52 53  1  0  0  0  0
 54 52  1  0  0  0  0
 54 53  1  0  0  0  0
M  END
>  <MODEL>
3

>  <REMARK>
 VINA RESULT:      -7.2      2.834      5.204
  Name = 
  16 active torsions:
  status: ('A' for Active; 'I' for Inactive)
    1  A    between atoms: C_4  and  C_23
    2  A    between atoms: C_6  and  C_19
    3  A    between atoms: C_6  and  C_44
    4  A    between atoms: C_10  and  N_46
    5  A    between atoms: C_12  and  C_20
    6  A    between atoms: C_14  and  C_37
    7  A    between atoms: C_14  and  C_45
    8  A    between atoms: C_16  and  C_32
    9  A    between atoms: C_17  and  C_45
   10  A    between atoms: C_19  and  C_32
   11  A    between atoms: C_24  and  C_53
   12  A    between atoms: C_25  and  C_36
   13  A    between atoms: C_29  and  C_36
   14  A    between atoms: C_29  and  N_42
   15  A    between atoms: C_30  and  C_36
   16  A    between atoms: C_30  and  C_44
                            x       y       z     vdW  Elec       q    Type
                         _______ _______ _______ _____ _____    ______ ____

>  <TORSDO>
F 16

$$$$
=
 OpenBabel11042417383D

 54 62  0  0  1  0  0  0  0  0999 V2000
  190.9560  172.1670  141.3820 C   0  0  1  0  0  0  0  0  0  0  0  0
  192.7320  173.0780  141.5350 C   0  0  0  0  0  2  0  0  0  0  0  0
  191.9030  171.8920  139.4920 C   0  0  1  0  0  3  0  0  0  0  0  0
  191.9890  172.1940  142.3390 O   0  0  0  0  0  0  0  0  0  0  0  0
  191.6840  173.0830  140.4400 C   0  0  1  0  0  3  0  0  0  0  0  0
  191.0090  171.0190  140.3740 C   0  0  1  0  0  3  0  0  0  0  0  0
  192.5700  173.9360  136.2060 N   0  0  0  0  0  0  0  0  0  0  0  0
  188.2370  173.0650  138.2550 C   0  0  0  0  0  1  0  0  0  0  0  0
  191.3170  172.0550  138.0750 C   0  0  2  0  0  3  0  0  0  0  0  0
  193.3580  172.8390  136.7570 C   0  0  1  0  0  3  0  0  0  0  0  0
  193.0920  170.5070  137.3840 O   0  0  0  0  0  1  0  0  0  0  0  0
  192.3980  171.6680  137.0240 C   0  0  1  0  0  3  0  0  0  0  0  0
  190.8170  173.5130  137.8840 C   0  0  2  0  0  3  0  0  0  0  0  0
  189.3770  173.6540  137.4990 C   0  0  0  0  0  0  0  0  0  0  0  0
  189.1960  174.4760  136.5130 N   0  0  0  0  0  0  0  0  0  0  0  0
  190.4220  174.9160  135.9970 N   0  0  0  0  0  2  0  0  0  0  0  0
  191.4300  174.2550  136.7390 C   0  0  0  0  0  0  0  0  0  0  0  0
  194.4150  172.4250  135.7450 C   0  0  0  0  0  2  0  0  0  0  0  0
  195.6390  173.3320  135.8040 C   0  0  0  0  0  2  0  0  0  0  0  0
  196.8190  172.1860  137.7650 C   0  0  0  0  0  3  0  0  0  0  0  0
  197.1560  172.6400  139.0300 C   0  0  0  0  0  3  0  0  0  0  0  0
  196.3140  173.3110  137.1350 C   0  0  0  0  0  0  0  0  0  0  0  0
  196.8570  173.9530  139.1050 N   0  0  0  0  0  0  0  0  0  0  0  0
  196.3170  174.3630  137.9690 N   0  0  0  0  0  0  0  0  0  0  0  0
  195.8220  175.8160  140.3440 C   0  0  0  0  0  2  0  0  0  0  0  0
  196.9110  174.7490  140.3330 C   0  0  1  0  0  3  0  0  0  0  0  0
  196.5950  174.7260  142.8240 C   0  0  0  0  0  3  0  0  0  0  0  0
  196.7520  173.8800  141.5830 C   0  0  0  0  0  2  0  0  0  0  0  0
  196.0690  176.7240  141.5480 C   0  0  0  0  0  2  0  0  0  0  0  0
  196.2480  175.9700  142.7810 N   0  0  0  0  0  0  0  0  0  0  0  0
  190.8660  168.8120  141.2640 O   0  0  0  0  0  1  0  0  0  0  0  0
  191.7690  169.8100  140.9020 C   0  0  0  0  0  2  0  0  0  0  0  0
  189.6110  172.6450  141.9270 C   0  0  0  0  0  2  0  0  0  0  0  0
  189.3040  174.1030  141.6410 C   0  0  0  0  0  2  0  0  0  0  0  0
  189.4370  174.8670  142.9430 C   0  0  0  0  0  2  0  0  0  0  0  0
  189.6150  173.9080  144.1090 C   0  0  0  0  0  2  0  0  0  0  0  0
  190.7560  174.3600  145.0120 C   0  0  0  0  0  2  0  0  0  0  0  0
  191.0900  175.8390  144.7930 C   0  0  2  0  0  3  0  0  0  0  0  0
  194.3850  177.0040  145.5820 C   0  0  0  0  0  2  0  0  0  0  0  0
  194.5960  175.6260  146.1440 C   0  0  0  0  0  2  0  0  0  0  0  0
  192.8770  176.2210  143.2360 O   0  0  0  0  0  1  0  0  0  0  0  0
  193.0200  177.1700  145.3160 O   0  0  0  0  0  0  0  0  0  0  0  0
  192.6040  176.0340  144.5950 C   0  0  1  0  0  0  0  0  0  0  0  0
  193.5030  174.5580  145.1970 S   0  0  0  0  0  0  0  0  0  0  0  0
  190.5720  176.6530  145.9810 C   0  0  0  0  0  2  0  0  0  0  0  0
  187.3210  177.9170  144.7850 C   0  0  1  0  0  3  0  0  0  0  0  0
  186.8280  176.8170  145.7540 C   0  0  0  0  0  2  0  0  0  0  0  0
  188.1930  175.5270  147.2640 O   0  0  0  0  0  0  0  0  0  0  0  0
  188.7940  177.8940  144.7210 N   0  0  0  0  0  2  0  0  0  0  0  0
  189.1840  177.0440  145.7630 N   0  0  0  0  0  0  0  0  0  0  0  0
  188.0910  176.3830  146.3490 C   0  0  0  0  0  0  0  0  0  0  0  0
  186.7340  177.9120  143.3610 C   0  0  0  0  0  3  0  0  0  0  0  0
  185.2460  177.6150  143.3370 C   0  0  0  0  0  2  0  0  0  0  0  0
  185.7360  179.0380  143.1430 C   0  0  0  0  0  2  0  0  0  0  0  0
  1 33  1  1  0  0  0
  1  4  1  0  0  0  0
  2  4  1  0  0  0  0
  3  9  1  6  0  0  0
  3  6  1  0  0  0  0
  3  5  1  0  0  0  0
  5  1  1  0  0  0  0
  5  2  1  1  0  0  0
  6 32  1  1  0  0  0
  6  1  1  0  0  0  0
  7 17  2  0  0  0  0
  7 10  1  0  0  0  0
 10 12  1  0  0  0  0
 12 11  1  0  0  0  0
 12  9  1  0  0  0  0
 13  9  1  0  0  0  0
 14 13  1  0  0  0  0
 14  8  1  0  0  0  0
 15 14  2  0  0  0  0
 16 15  1  0  0  0  0
 16 17  1  0  0  0  0
 17 13  1  0  0  0  0
 18 19  1  0  0  0  0
 18 10  1  0  0  0  0
 19 22  1  0  0  0  0
 20 21  2  0  0  0  0
 21 23  1  0  0  0  0
 22 20  1  0  0  0  0
 22 24  2  0  0  0  0
 23 26  1  0  0  0  0
 24 23  1  0  0  0  0
 25 29  1  0  0  0  0
 26 25  1  0  0  0  0
 26 28  1  0  0  0  0
 28 27  1  0  0  0  0
 29 30  1  0  0  0  0
 30 27  2  0  0  0  0
 32 31  1  0  0  0  0
 34 33  1  0  0  0  0
 34 35  1  0  0  0  0
 35 36  1  0  0  0  0
 36 37  1  0  0  0  0
 38 37  1  0  0  0  0
 38 45  1  0  0  0  0
 39 40  1  0  0  0  0
 41 43  1  0  0  0  0
 42 39  1  0  0  0  0
 43 38  1  0  0  0  0
 43 44  1  0  0  0  0
 43 42  1  0  0  0  0
 44 40  1  0  0  0  0
 46 47  1  0  0  0  0
 47 51  1  0  0  0  0
 49 46  1  0  0  0  0
 49 50  1  0  0  0  0
 50 45  1  0  0  0  0
 50 51  1  0  0  0  0
 51 48  2  0  0  0  0
 52 46  1  0  0  0  0
 53 52  1  0  0  0  0
 54 53  1  0  0  0  0
 54 52  1  0  0  0  0
M  END
>  <MODEL>
4

>  <REMARK>
 VINA RESULT:      -7.0      3.109      9.104
  Name = 
  16 active torsions:
  status: ('A' for Active; 'I' for Inactive)
    1  A    between atoms: C_4  and  C_23
    2  A    between atoms: C_6  and  C_19
    3  A    between atoms: C_6  and  C_44
    4  A    between atoms: C_10  and  N_46
    5  A    between atoms: C_12  and  C_20
    6  A    between atoms: C_14  and  C_37
    7  A    between atoms: C_14  and  C_45
    8  A    between atoms: C_16  and  C_32
    9  A    between atoms: C_17  and  C_45
   10  A    between atoms: C_19  and  C_32
   11  A    between atoms: C_24  and  C_53
   12  A    between atoms: C_25  and  C_36
   13  A    between atoms: C_29  and  C_36
   14  A    between atoms: C_29  and  N_42
   15  A    between atoms: C_30  and  C_36
   16  A    between atoms: C_30  and  C_44
                            x       y       z     vdW  Elec       q    Type
                         _______ _______ _______ _____ _____    ______ ____

>  <TORSDO>
F 16

$$$$
=
 OpenBabel11042417383D

 54 62  0  0  1  0  0  0  0  0999 V2000
  195.3340  171.2410  143.5420 C   0  0  1  0  0  0  0  0  0  0  0  0
  193.4340  171.2750  144.1710 C   0  0  0  0  0  2  0  0  0  0  0  0
  195.0880  173.1240  144.5080 C   0  0  1  0  0  3  0  0  0  0  0  0
  194.4850  170.3410  144.2140 O   0  0  0  0  0  0  0  0  0  0  0  0
  194.2880  172.3150  143.4730 C   0  0  1  0  0  3  0  0  0  0  0  0
  196.2270  172.1070  144.4320 C   0  0  1  0  0  3  0  0  0  0  0  0
  193.5810  176.3730  142.8950 N   0  0  0  0  0  0  0  0  0  0  0  0
  197.8110  174.2480  141.7380 C   0  0  0  0  0  1  0  0  0  0  0  0
  195.5450  174.5240  144.0470 C   0  0  2  0  0  3  0  0  0  0  0  0
  193.3830  175.8670  144.2490 C   0  0  1  0  0  3  0  0  0  0  0  0
  194.6900  175.2930  146.2150 O   0  0  0  0  0  1  0  0  0  0  0  0
  194.7730  175.6080  144.8550 C   0  0  1  0  0  3  0  0  0  0  0  0
  195.3180  174.6670  142.5170 C   0  0  2  0  0  3  0  0  0  0  0  0
  196.5340  175.0150  141.7160 C   0  0  0  0  0  0  0  0  0  0  0  0
  196.3240  175.9770  140.8720 N   0  0  0  0  0  0  0  0  0  0  0  0
  195.0380  176.5090  141.0290 N   0  0  0  0  0  2  0  0  0  0  0  0
  194.4420  175.8070  142.1040 C   0  0  0  0  0  0  0  0  0  0  0  0
  192.6450  176.9130  145.0700 C   0  0  0  0  0  2  0  0  0  0  0  0
  191.4430  177.4750  144.3190 C   0  0  0  0  0  2  0  0  0  0  0  0
  190.0800  177.0020  146.4330 C   0  0  0  0  0  3  0  0  0  0  0  0
  188.7200  177.0870  146.6910 C   0  0  0  0  0  3  0  0  0  0  0  0
  190.2030  177.5060  145.1500 C   0  0  0  0  0  0  0  0  0  0  0  0
  188.1130  177.6110  145.6080 N   0  0  0  0  0  0  0  0  0  0  0  0
  189.0010  177.8420  144.6540 N   0  0  0  0  0  0  0  0  0  0  0  0
  185.9660  178.0320  146.7440 C   0  0  0  0  0  2  0  0  0  0  0  0
  186.6620  177.7010  145.4290 C   0  0  1  0  0  3  0  0  0  0  0  0
  184.7900  178.9990  144.3740 C   0  0  0  0  0  3  0  0  0  0  0  0
  186.2810  178.7650  144.3960 C   0  0  0  0  0  2  0  0  0  0  0  0
  184.4590  177.9100  146.5190 C   0  0  0  0  0  2  0  0  0  0  0  0
  184.0140  178.6510  145.3480 N   0  0  0  0  0  0  0  0  0  0  0  0
  197.5260  170.5470  145.6810 O   0  0  0  0  0  1  0  0  0  0  0  0
  196.4910  171.4740  145.7910 C   0  0  0  0  0  2  0  0  0  0  0  0
  195.8710  170.6970  142.2200 C   0  0  0  0  0  2  0  0  0  0  0  0
  195.4360  171.4850  140.9990 C   0  0  0  0  0  2  0  0  0  0  0  0
  194.2660  170.7550  140.3700 C   0  0  0  0  0  2  0  0  0  0  0  0
  193.4970  171.6810  139.4420 C   0  0  0  0  0  2  0  0  0  0  0  0
  192.2250  171.0100  138.9390 C   0  0  0  0  0  2  0  0  0  0  0  0
  191.1080  172.0330  138.7090 C   0  0  2  0  0  3  0  0  0  0  0  0
  189.5570  173.2560  135.7190 C   0  0  0  0  0  2  0  0  0  0  0  0
  190.2310  174.5560  136.0570 C   0  0  0  0  0  2  0  0  0  0  0  0
  191.7420  171.5020  136.4560 O   0  0  0  0  0  1  0  0  0  0  0  0
  189.6670  172.3990  136.8220 O   0  0  0  0  0  0  0  0  0  0  0  0
  191.0170  172.4200  137.2220 C   0  0  1  0  0  0  0  0  0  0  0  0
  191.7080  174.0960  136.9750 S   0  0  0  0  0  0  0  0  0  0  0  0
  191.3590  173.2580  139.5910 C   0  0  0  0  0  2  0  0  0  0  0  0
  189.5330  173.3780  142.7930 C   0  0  1  0  0  3  0  0  0  0  0  0
  188.4580  173.9850  141.8610 C   0  0  0  0  0  2  0  0  0  0  0  0
  188.5660  174.1280  139.4580 O   0  0  0  0  0  0  0  0  0  0  0  0
  190.7660  173.1260  142.0240 N   0  0  0  0  0  2  0  0  0  0  0  0
  190.3960  173.3030  140.6860 N   0  0  0  0  0  0  0  0  0  0  0  0
  189.0990  173.8290  140.5560 C   0  0  0  0  0  0  0  0  0  0  0  0
  189.8660  174.1550  144.0800 C   0  0  0  0  0  3  0  0  0  0  0  0
  189.5470  173.3730  145.3410 C   0  0  0  0  0  2  0  0  0  0  0  0
  190.9860  173.5050  144.8750 C   0  0  0  0  0  2  0  0  0  0  0  0
  1 33  1  6  0  0  0
  1  4  1  0  0  0  0
  1  6  1  0  0  0  0
  2  4  1  0  0  0  0
  3  9  1  6  0  0  0
  5  1  1  0  0  0  0
  5  2  1  1  0  0  0
  5  3  1  0  0  0  0
  6  3  1  0  0  0  0
  6 32  1  1  0  0  0
  7 10  1  0  0  0  0
  9 12  1  0  0  0  0
 10 12  1  0  0  0  0
 10 18  1  0  0  0  0
 12 11  1  0  0  0  0
 13  9  1  0  0  0  0
 14  8  1  0  0  0  0
 14 13  1  0  0  0  0
 15 16  1  0  0  0  0
 15 14  2  0  0  0  0
 16 17  1  0  0  0  0
 17 13  1  0  0  0  0
 17  7  2  0  0  0  0
 19 18  1  0  0  0  0
 19 22  1  0  0  0  0
 20 21  2  0  0  0  0
 22 20  1  0  0  0  0
 23 21  1  0  0  0  0
 24 22  2  0  0  0  0
 24 23  1  0  0  0  0
 26 23  1  0  0  0  0
 26 25  1  0  0  0  0
 27 28  1  0  0  0  0
 27 30  2  0  0  0  0
 28 26  1  0  0  0  0
 29 25  1  0  0  0  0
 30 29  1  0  0  0  0
 31 32  1  0  0  0  0
 34 33  1  0  0  0  0
 35 34  1  0  0  0  0
 36 35  1  0  0  0  0
 37 36  1  0  0  0  0
 38 37  1  0  0  0  0
 38 45  1  0  0  0  0
 39 40  1  0  0  0  0
 39 42  1  0  0  0  0
 40 44  1  0  0  0  0
 41 43  1  0  0  0  0
 42 43  1  0  0  0  0
 43 38  1  0  0  0  0
 44 43  1  0  0  0  0
 45 50  1  0  0  0  0
 46 52  1  0  0  0  0
 47 46  1  0  0  0  0
 48 51  2  0  0  0  0
 49 46  1  0  0  0  0
 50 49  1  0  0  0  0
 51 50  1  0  0  0  0
 51 47  1  0  0  0  0
 52 54  1  0  0  0  0
 52 53  1  0  0  0  0
 54 53  1  0  0  0  0
M  END
>  <MODEL>
5

>  <REMARK>
 VINA RESULT:      -6.9      3.215      6.983
  Name = 
  16 active torsions:
  status: ('A' for Active; 'I' for Inactive)
    1  A    between atoms: C_4  and  C_23
    2  A    between atoms: C_6  and  C_19
    3  A    between atoms: C_6  and  C_44
    4  A    between atoms: C_10  and  N_46
    5  A    between atoms: C_12  and  C_20
    6  A    between atoms: C_14  and  C_37
    7  A    between atoms: C_14  and  C_45
    8  A    between atoms: C_16  and  C_32
    9  A    between atoms: C_17  and  C_45
   10  A    between atoms: C_19  and  C_32
   11  A    between atoms: C_24  and  C_53
   12  A    between atoms: C_25  and  C_36
   13  A    between atoms: C_29  and  C_36
   14  A    between atoms: C_29  and  N_42
   15  A    between atoms: C_30  and  C_36
   16  A    between atoms: C_30  and  C_44
                            x       y       z     vdW  Elec       q    Type
                         _______ _______ _______ _____ _____    ______ ____

>  <TORSDO>
F 16

$$$$
=
 OpenBabel11042417383D

 54 62  0  0  1  0  0  0  0  0999 V2000
  195.7430  174.4220  140.3960 C   0  0  1  0  0  0  0  0  0  0  0  0
  194.5770  176.0410  140.5450 C   0  0  0  0  0  2  0  0  0  0  0  0
  193.9180  173.8990  139.4300 C   0  0  1  0  0  3  0  0  0  0  0  0
  195.9160  175.8040  140.1880 O   0  0  0  0  0  0  0  0  0  0  0  0
  194.2950  174.5680  140.7620 C   0  0  1  0  0  3  0  0  0  0  0  0
  195.3920  173.5990  139.1560 C   0  0  1  0  0  3  0  0  0  0  0  0
  190.9840  172.4230  141.5850 N   0  0  0  0  0  0  0  0  0  0  0  0
  195.0360  170.0920  140.2090 C   0  0  0  0  0  1  0  0  0  0  0  0
  193.0870  172.6040  139.5480 C   0  0  2  0  0  3  0  0  0  0  0  0
  190.9170  173.4720  140.5730 C   0  0  1  0  0  3  0  0  0  0  0  0
  191.4080  173.8000  138.2170 O   0  0  0  0  0  1  0  0  0  0  0  0
  191.5860  172.9320  139.2990 C   0  0  1  0  0  3  0  0  0  0  0  0
  193.3190  171.9650  140.9450 C   0  0  2  0  0  3  0  0  0  0  0  0
  193.8170  170.5530  140.9320 C   0  0  0  0  0  0  0  0  0  0  0  0
  193.1660  169.7800  141.7440 N   0  0  0  0  0  0  0  0  0  0  0  0
  192.0870  170.4590  142.3240 N   0  0  0  0  0  2  0  0  0  0  0  0
  192.0860  171.7610  141.7670 C   0  0  0  0  0  0  0  0  0  0  0  0
  189.4590  173.8040  140.2940 C   0  0  0  0  0  2  0  0  0  0  0  0
  188.6300  173.8280  141.5730 C   0  0  0  0  0  2  0  0  0  0  0  0
  187.8190  176.1420  140.8400 C   0  0  0  0  0  3  0  0  0  0  0  0
  187.0250  177.0840  141.4750 C   0  0  0  0  0  3  0  0  0  0  0  0
  187.7900  175.0560  141.6980 C   0  0  0  0  0  0  0  0  0  0  0  0
  186.5740  176.5530  142.6290 N   0  0  0  0  0  0  0  0  0  0  0  0
  187.0580  175.3320  142.7880 N   0  0  0  0  0  0  0  0  0  0  0  0
  186.3600  176.9550  145.0520 C   0  0  0  0  0  2  0  0  0  0  0  0
  185.8450  177.2970  143.6590 C   0  0  1  0  0  3  0  0  0  0  0  0
  185.3910  179.5660  144.6320 C   0  0  0  0  0  3  0  0  0  0  0  0
  185.9600  178.8100  143.4570 C   0  0  0  0  0  2  0  0  0  0  0  0
  185.4260  177.6090  146.0690 C   0  0  0  0  0  2  0  0  0  0  0  0
  185.2070  179.0210  145.7900 N   0  0  0  0  0  0  0  0  0  0  0  0
  196.7390  173.4080  137.1990 O   0  0  0  0  0  1  0  0  0  0  0  0
  195.8570  174.2570  137.8640 C   0  0  0  0  0  2  0  0  0  0  0  0
  196.6810  173.8460  141.4550 C   0  0  0  0  0  2  0  0  0  0  0  0
  197.7210  174.8240  141.9670 C   0  0  0  0  0  2  0  0  0  0  0  0
  197.6130  174.8660  143.4780 C   0  0  0  0  0  2  0  0  0  0  0  0
  196.2040  175.2460  143.9010 C   0  0  0  0  0  2  0  0  0  0  0  0
  195.9110  174.7550  145.3140 C   0  0  0  0  0  2  0  0  0  0  0  0
  194.6980  173.8200  145.3400 C   0  0  2  0  0  3  0  0  0  0  0  0
  196.0500  170.8820  143.7970 C   0  0  0  0  0  2  0  0  0  0  0  0
  197.3280  171.2650  144.4890 C   0  0  0  0  0  2  0  0  0  0  0  0
  194.2430  171.5470  145.9620 O   0  0  0  0  0  1  0  0  0  0  0  0
  195.1520  171.9520  143.8990 O   0  0  0  0  0  0  0  0  0  0  0  0
  195.1410  172.3480  145.2510 C   0  0  1  0  0  0  0  0  0  0  0  0
  196.8170  172.1610  145.9630 S   0  0  0  0  0  0  0  0  0  0  0  0
  193.7540  174.1900  144.1940 C   0  0  0  0  0  2  0  0  0  0  0  0
  190.8460  176.2210  145.2070 C   0  0  1  0  0  3  0  0  0  0  0  0
  190.2000  174.8150  145.2330 C   0  0  0  0  0  2  0  0  0  0  0  0
  191.3430  172.7120  144.9540 O   0  0  0  0  0  0  0  0  0  0  0  0
  192.2370  176.1150  144.7260 N   0  0  0  0  0  2  0  0  0  0  0  0
  192.5090  174.7420  144.7190 N   0  0  0  0  0  0  0  0  0  0  0  0
  191.3620  173.9680  144.9660 C   0  0  0  0  0  0  0  0  0  0  0  0
  190.1030  177.3200  144.4270 C   0  0  0  0  0  3  0  0  0  0  0  0
  191.0330  178.3870  143.8800 C   0  0  0  0  0  2  0  0  0  0  0  0
  190.4650  177.3290  142.9510 C   0  0  0  0  0  2  0  0  0  0  0  0
  1  5  1  0  0  0  0
  1 33  1  1  0  0  0
  3  9  1  1  0  0  0
  3  5  1  0  0  0  0
  4  1  1  0  0  0  0
  4  2  1  0  0  0  0
  5  2  1  6  0  0  0
  6 32  1  6  0  0  0
  6  3  1  0  0  0  0
  6  1  1  0  0  0  0
  7 17  2  0  0  0  0
  8 14  1  0  0  0  0
  9 13  1  0  0  0  0
 10  7  1  0  0  0  0
 11 12  1  0  0  0  0
 12  9  1  0  0  0  0
 12 10  1  0  0  0  0
 13 17  1  0  0  0  0
 14 13  1  0  0  0  0
 14 15  2  0  0  0  0
 15 16  1  0  0  0  0
 17 16  1  0  0  0  0
 18 10  1  0  0  0  0
 18 19  1  0  0  0  0
 19 22  1  0  0  0  0
 20 21  2  0  0  0  0
 20 22  1  0  0  0  0
 21 23  1  0  0  0  0
 22 24  2  0  0  0  0
 23 24  1  0  0  0  0
 23 26  1  0  0  0  0
 25 29  1  0  0  0  0
 26 25  1  0  0  0  0
 27 30  2  0  0  0  0
 28 26  1  0  0  0  0
 28 27  1  0  0  0  0
 30 29  1  0  0  0  0
 31 32  1  0  0  0  0
 33 34  1  0  0  0  0
 34 35  1  0  0  0  0
 35 36  1  0  0  0  0
 36 37  1  0  0  0  0
 37 38  1  0  0  0  0
 39 42  1  0  0  0  0
 39 40  1  0  0  0  0
 40 44  1  0  0  0  0
 42 43  1  0  0  0  0
 43 38  1  0  0  0  0
 43 41  1  0  0  0  0
 43 44  1  0  0  0  0
 45 50  1  0  0  0  0
 45 38  1  0  0  0  0
 46 47  1  0  0  0  0
 48 51  2  0  0  0  0
 49 46  1  0  0  0  0
 50 49  1  0  0  0  0
 50 51  1  0  0  0  0
 51 47  1  0  0  0  0
 52 46  1  0  0  0  0
 53 52  1  0  0  0  0
 54 53  1  0  0  0  0
 54 52  1  0  0  0  0
M  END
>  <MODEL>
6

>  <REMARK>
 VINA RESULT:      -6.9      2.424      5.547
  Name = 
  16 active torsions:
  status: ('A' for Active; 'I' for Inactive)
    1  A    between atoms: C_4  and  C_23
    2  A    between atoms: C_6  and  C_19
    3  A    between atoms: C_6  and  C_44
    4  A    between atoms: C_10  and  N_46
    5  A    between atoms: C_12  and  C_20
    6  A    between atoms: C_14  and  C_37
    7  A    between atoms: C_14  and  C_45
    8  A    between atoms: C_16  and  C_32
    9  A    between atoms: C_17  and  C_45
   10  A    between atoms: C_19  and  C_32
   11  A    between atoms: C_24  and  C_53
   12  A    between atoms: C_25  and  C_36
   13  A    between atoms: C_29  and  C_36
   14  A    between atoms: C_29  and  N_42
   15  A    between atoms: C_30  and  C_36
   16  A    between atoms: C_30  and  C_44
                            x       y       z     vdW  Elec       q    Type
                         _______ _______ _______ _____ _____    ______ ____

>  <TORSDO>
F 16

$$$$
=
 OpenBabel11042417383D

 54 62  0  0  1  0  0  0  0  0999 V2000
  191.2570  171.8630  141.2560 C   0  0  1  0  0  0  0  0  0  0  0  0
  192.3860  170.4240  140.4430 C   0  0  0  0  0  2  0  0  0  0  0  0
  193.1250  172.7870  140.8130 C   0  0  1  0  0  3  0  0  0  0  0  0
  191.0650  170.8740  140.2720 O   0  0  0  0  0  0  0  0  0  0  0  0
  192.6890  171.4770  141.4910 C   0  0  1  0  0  3  0  0  0  0  0  0
  191.6670  173.2440  140.7440 C   0  0  1  0  0  3  0  0  0  0  0  0
  196.8960  173.7050  141.4160 N   0  0  0  0  0  0  0  0  0  0  0  0
  193.4720  173.1020  144.8290 C   0  0  0  0  0  1  0  0  0  0  0  0
  193.9760  173.7350  141.6850 C   0  0  2  0  0  3  0  0  0  0  0  0
  196.0710  174.0140  140.2540 C   0  0  1  0  0  3  0  0  0  0  0  0
  194.0150  175.1880  139.7080 O   0  0  0  0  0  1  0  0  0  0  0  0
  194.7870  174.6910  140.7630 C   0  0  1  0  0  3  0  0  0  0  0  0
  194.8990  172.8980  142.6120 C   0  0  2  0  0  3  0  0  0  0  0  0
  194.7560  173.1690  144.0780 C   0  0  0  0  0  0  0  0  0  0  0  0
  195.8960  173.3240  144.6760 N   0  0  0  0  0  0  0  0  0  0  0  0
  196.9500  173.3160  143.7540 N   0  0  0  0  0  2  0  0  0  0  0  0
  196.3630  173.1730  142.4740 C   0  0  0  0  0  0  0  0  0  0  0  0
  196.8310  174.9630  139.3400 C   0  0  0  0  0  2  0  0  0  0  0  0
  197.4260  174.2350  138.1390 C   0  0  0  0  0  2  0  0  0  0  0  0
  197.1240  174.1300  135.6000 C   0  0  0  0  0  3  0  0  0  0  0  0
  196.4060  174.9290  134.7240 C   0  0  0  0  0  3  0  0  0  0  0  0
  196.7880  174.6270  136.8480 C   0  0  0  0  0  0  0  0  0  0  0  0
  195.7040  175.8270  135.4430 N   0  0  0  0  0  0  0  0  0  0  0  0
  195.9520  175.6710  136.7340 N   0  0  0  0  0  0  0  0  0  0  0  0
  193.6460  177.1730  135.6170 C   0  0  0  0  0  2  0  0  0  0  0  0
  194.9570  176.9500  134.8730 C   0  0  1  0  0  3  0  0  0  0  0  0
  194.9160  179.4350  134.5210 C   0  0  0  0  0  3  0  0  0  0  0  0
  195.7640  178.2500  134.9110 C   0  0  0  0  0  2  0  0  0  0  0  0
  192.8410  178.2170  134.8450 C   0  0  0  0  0  2  0  0  0  0  0  0
  193.6240  179.4070  134.5450 N   0  0  0  0  0  0  0  0  0  0  0  0
  189.8840  173.8270  139.2730 O   0  0  0  0  0  1  0  0  0  0  0  0
  191.2350  173.4870  139.3040 C   0  0  0  0  0  2  0  0  0  0  0  0
  190.2940  171.7400  142.4350 C   0  0  0  0  0  2  0  0  0  0  0  0
  189.2700  172.8560  142.5230 C   0  0  0  0  0  2  0  0  0  0  0  0
  189.6750  173.7670  143.6650 C   0  0  0  0  0  2  0  0  0  0  0  0
  189.7070  172.9980  144.9750 C   0  0  0  0  0  2  0  0  0  0  0  0
  190.0520  173.9210  146.1370 C   0  0  0  0  0  2  0  0  0  0  0  0
  189.5990  175.3580  145.8610 C   0  0  2  0  0  3  0  0  0  0  0  0
  192.9920  176.4100  146.3320 C   0  0  0  0  0  2  0  0  0  0  0  0
  192.9410  176.7830  144.8760 C   0  0  0  0  0  2  0  0  0  0  0  0
  190.3330  177.3160  147.0400 O   0  0  0  0  0  1  0  0  0  0  0  0
  191.8540  175.6520  146.6360 O   0  0  0  0  0  0  0  0  0  0  0  0
  190.7470  176.3510  146.1160 C   0  0  1  0  0  0  0  0  0  0  0  0
  191.2160  177.1730  144.5490 S   0  0  0  0  0  0  0  0  0  0  0  0
  188.3800  175.6770  146.7290 C   0  0  0  0  0  2  0  0  0  0  0  0
  186.3160  177.5150  144.2870 C   0  0  1  0  0  3  0  0  0  0  0  0
  185.4010  177.6200  145.5290 C   0  0  0  0  0  2  0  0  0  0  0  0
  185.9510  176.9350  147.7730 O   0  0  0  0  0  0  0  0  0  0  0  0
  187.4960  176.6900  144.6130 N   0  0  0  0  0  2  0  0  0  0  0  0
  187.4480  176.5330  146.0030 N   0  0  0  0  0  0  0  0  0  0  0  0
  186.2500  177.0170  146.5550 C   0  0  0  0  0  0  0  0  0  0  0  0
  185.6720  177.0170  142.9800 C   0  0  0  0  0  3  0  0  0  0  0  0
  184.6990  178.0160  142.3840 C   0  0  0  0  0  2  0  0  0  0  0  0
  186.0810  177.8520  141.7780 C   0  0  0  0  0  2  0  0  0  0  0  0
  1  5  1  0  0  0  0
  1 33  1  1  0  0  0
  3  5  1  0  0  0  0
  3  9  1  1  0  0  0
  4  2  1  0  0  0  0
  4  1  1  0  0  0  0
  5  2  1  6  0  0  0
  6 32  1  6  0  0  0
  6  3  1  0  0  0  0
  6  1  1  0  0  0  0
  7 17  2  0  0  0  0
  9 13  1  0  0  0  0
 10 12  1  0  0  0  0
 10  7  1  0  0  0  0
 11 12  1  0  0  0  0
 12  9  1  0  0  0  0
 13 14  1  0  0  0  0
 14 15  2  0  0  0  0
 14  8  1  0  0  0  0
 16 15  1  0  0  0  0
 17 13  1  0  0  0  0
 17 16  1  0  0  0  0
 18 10  1  0  0  0  0
 19 18  1  0  0  0  0
 20 22  1  0  0  0  0
 21 23  1  0  0  0  0
 21 20  2  0  0  0  0
 22 19  1  0  0  0  0
 23 24  1  0  0  0  0
 24 22  2  0  0  0  0
 26 28  1  0  0  0  0
 26 23  1  0  0  0  0
 26 25  1  0  0  0  0
 27 30  2  0  0  0  0
 27 28  1  0  0  0  0
 29 25  1  0  0  0  0
 30 29  1  0  0  0  0
 31 32  1  0  0  0  0
 33 34  1  0  0  0  0
 34 35  1  0  0  0  0
 35 36  1  0  0  0  0
 36 37  1  0  0  0  0
 38 43  1  0  0  0  0
 38 37  1  0  0  0  0
 38 45  1  0  0  0  0
 39 42  1  0  0  0  0
 40 39  1  0  0  0  0
 43 42  1  0  0  0  0
 43 41  1  0  0  0  0
 44 40  1  0  0  0  0
 44 43  1  0  0  0  0
 46 49  1  0  0  0  0
 46 47  1  0  0  0  0
 47 51  1  0  0  0  0
 49 50  1  0  0  0  0
 50 51  1  0  0  0  0
 50 45  1  0  0  0  0
 51 48  2  0  0  0  0
 52 46  1  0  0  0  0
 53 52  1  0  0  0  0
 54 53  1  0  0  0  0
 54 52  1  0  0  0  0
M  END
>  <MODEL>
7

>  <REMARK>
 VINA RESULT:      -6.9      3.423      9.750
  Name = 
  16 active torsions:
  status: ('A' for Active; 'I' for Inactive)
    1  A    between atoms: C_4  and  C_23
    2  A    between atoms: C_6  and  C_19
    3  A    between atoms: C_6  and  C_44
    4  A    between atoms: C_10  and  N_46
    5  A    between atoms: C_12  and  C_20
    6  A    between atoms: C_14  and  C_37
    7  A    between atoms: C_14  and  C_45
    8  A    between atoms: C_16  and  C_32
    9  A    between atoms: C_17  and  C_45
   10  A    between atoms: C_19  and  C_32
   11  A    between atoms: C_24  and  C_53
   12  A    between atoms: C_25  and  C_36
   13  A    between atoms: C_29  and  C_36
   14  A    between atoms: C_29  and  N_42
   15  A    between atoms: C_30  and  C_36
   16  A    between atoms: C_30  and  C_44
                            x       y       z     vdW  Elec       q    Type
                         _______ _______ _______ _____ _____    ______ ____

>  <TORSDO>
F 16

$$$$
=
 OpenBabel11042417383D

 54 62  0  0  1  0  0  0  0  0999 V2000
  190.1880  175.2030  146.5200 C   0  0  1  0  0  0  0  0  0  0  0  0
  188.5750  174.6580  147.5710 C   0  0  0  0  0  2  0  0  0  0  0  0
  188.9090  176.9060  146.5220 C   0  0  1  0  0  3  0  0  0  0  0  0
  189.9660  174.5420  147.7430 O   0  0  0  0  0  0  0  0  0  0  0  0
  188.7240  175.4020  146.2590 C   0  0  1  0  0  3  0  0  0  0  0  0
  190.4230  176.7110  146.6070 C   0  0  1  0  0  3  0  0  0  0  0  0
  186.3100  177.0800  143.5810 N   0  0  0  0  0  0  0  0  0  0  0  0
  191.0450  178.2070  143.3450 C   0  0  0  0  0  1  0  0  0  0  0  0
  188.5210  177.8370  145.3540 C   0  0  2  0  0  3  0  0  0  0  0  0
  186.0630  177.2410  145.0100 C   0  0  1  0  0  3  0  0  0  0  0  0
  186.7630  178.6550  146.8570 O   0  0  0  0  0  1  0  0  0  0  0  0
  187.0460  178.3010  145.5340 C   0  0  1  0  0  3  0  0  0  0  0  0
  188.7370  177.0960  144.0060 C   0  0  2  0  0  3  0  0  0  0  0  0
  189.6520  177.7780  143.0360 C   0  0  0  0  0  0  0  0  0  0  0  0
  189.1670  177.8290  141.8350 N   0  0  0  0  0  0  0  0  0  0  0  0
  187.8570  177.3350  141.8030 N   0  0  0  0  0  2  0  0  0  0  0  0
  187.5260  176.9880  143.1350 C   0  0  0  0  0  0  0  0  0  0  0  0
  184.6320  177.7120  145.2190 C   0  0  0  0  0  2  0  0  0  0  0  0
  184.3130  178.9430  144.3770 C   0  0  0  0  0  2  0  0  0  0  0  0
  183.6160  178.1990  142.0300 C   0  0  0  0  0  3  0  0  0  0  0  0
  182.4090  178.2950  141.3530 C   0  0  0  0  0  3  0  0  0  0  0  0
  183.3190  178.6670  143.2980 C   0  0  0  0  0  0  0  0  0  0  0  0
  181.4850  178.7920  142.1990 N   0  0  0  0  0  0  0  0  0  0  0  0
  182.0340  179.0490  143.3750 N   0  0  0  0  0  0  0  0  0  0  0  0
  180.1340  179.8790  140.4470 C   0  0  0  0  0  2  0  0  0  0  0  0
  180.1330  179.1970  141.8100 C   0  0  1  0  0  3  0  0  0  0  0  0
  177.8480  178.3920  141.1500 C   0  0  0  0  0  3  0  0  0  0  0  0
  179.1750  178.0040  141.7540 C   0  0  0  0  0  2  0  0  0  0  0  0
  178.7360  180.4450  140.2050 C   0  0  0  0  0  2  0  0  0  0  0  0
  177.6920  179.4550  140.4310 N   0  0  0  0  0  0  0  0  0  0  0  0
  192.3420  176.9840  147.9950 O   0  0  0  0  0  1  0  0  0  0  0  0
  190.9580  177.1430  147.9660 C   0  0  0  0  0  2  0  0  0  0  0  0
  190.9730  174.3650  145.5110 C   0  0  0  0  0  2  0  0  0  0  0  0
  191.8240  175.1770  144.5530 C   0  0  0  0  0  2  0  0  0  0  0  0
  191.6210  174.6110  143.1620 C   0  0  0  0  0  2  0  0  0  0  0  0
  190.3260  173.8200  143.0910 C   0  0  0  0  0  2  0  0  0  0  0  0
  190.5620  172.4470  142.4730 C   0  0  0  0  0  2  0  0  0  0  0  0
  191.7730  172.4600  141.5330 C   0  0  2  0  0  3  0  0  0  0  0  0
  191.2960  173.5520  138.1540 C   0  0  0  0  0  2  0  0  0  0  0  0
  192.5580  172.7880  137.8670 C   0  0  0  0  0  2  0  0  0  0  0  0
  190.1200  171.6480  139.9940 O   0  0  0  0  0  1  0  0  0  0  0  0
  191.1410  173.6470  139.5430 O   0  0  0  0  0  0  0  0  0  0  0  0
  191.3250  172.3520  140.0650 C   0  0  1  0  0  0  0  0  0  0  0  0
  192.6010  171.4710  139.0920 S   0  0  0  0  0  0  0  0  0  0  0  0
  192.7180  171.3190  141.9150 C   0  0  0  0  0  2  0  0  0  0  0  0
  195.1630  172.8400  144.2200 C   0  0  1  0  0  3  0  0  0  0  0  0
  194.1660  172.2580  145.2490 C   0  0  0  0  0  2  0  0  0  0  0  0
  192.2890  170.8240  144.7690 O   0  0  0  0  0  0  0  0  0  0  0  0
  194.6530  172.6070  142.8550 N   0  0  0  0  0  2  0  0  0  0  0  0
  193.5820  171.7220  143.0200 N   0  0  0  0  0  0  0  0  0  0  0  0
  193.2510  171.5290  144.3720 C   0  0  0  0  0  0  0  0  0  0  0  0
  195.5610  174.3180  144.3870 C   0  0  0  0  0  3  0  0  0  0  0  0
  195.5440  174.7740  145.8340 C   0  0  0  0  0  2  0  0  0  0  0  0
  196.8660  174.4830  145.1470 C   0  0  0  0  0  2  0  0  0  0  0  0
  1 33  1  6  0  0  0
  1  6  1  0  0  0  0
  1  4  1  0  0  0  0
  2  4  1  0  0  0  0
  3  9  1  6  0  0  0
  3  6  1  0  0  0  0
  5  1  1  0  0  0  0
  5  3  1  0  0  0  0
  5  2  1  1  0  0  0
  6 32  1  1  0  0  0
  7 10  1  0  0  0  0
  9 12  1  0  0  0  0
 10 18  1  0  0  0  0
 10 12  1  0  0  0  0
 12 11  1  0  0  0  0
 13  9  1  0  0  0  0
 14  8  1  0  0  0  0
 14 13  1  0  0  0  0
 15 14  2  0  0  0  0
 16 15  1  0  0  0  0
 16 17  1  0  0  0  0
 17  7  2  0  0  0  0
 17 13  1  0  0  0  0
 19 18  1  0  0  0  0
 20 22  1  0  0  0  0
 21 20  2  0  0  0  0
 21 23  1  0  0  0  0
 22 24  2  0  0  0  0
 22 19  1  0  0  0  0
 23 24  1  0  0  0  0
 25 26  1  0  0  0  0
 26 23  1  0  0  0  0
 27 28  1  0  0  0  0
 28 26  1  0  0  0  0
 29 30  1  0  0  0  0
 29 25  1  0  0  0  0
 30 27  2  0  0  0  0
 32 31  1  0  0  0  0
 34 33  1  0  0  0  0
 35 34  1  0  0  0  0
 36 35  1  0  0  0  0
 37 36  1  0  0  0  0
 38 45  1  0  0  0  0
 38 37  1  0  0  0  0
 39 42  1  0  0  0  0
 40 39  1  0  0  0  0
 40 44  1  0  0  0  0
 41 43  1  0  0  0  0
 42 43  1  0  0  0  0
 43 38  1  0  0  0  0
 44 43  1  0  0  0  0
 45 50  1  0  0  0  0
 46 52  1  0  0  0  0
 46 47  1  0  0  0  0
 49 50  1  0  0  0  0
 49 46  1  0  0  0  0
 50 51  1  0  0  0  0
 51 48  2  0  0  0  0
 51 47  1  0  0  0  0
 52 54  1  0  0  0  0
 52 53  1  0  0  0  0
 54 53  1  0  0  0  0
M  END
>  <MODEL>
8

>  <REMARK>
 VINA RESULT:      -6.8      3.064      5.599
  Name = 
  16 active torsions:
  status: ('A' for Active; 'I' for Inactive)
    1  A    between atoms: C_4  and  C_23
    2  A    between atoms: C_6  and  C_19
    3  A    between atoms: C_6  and  C_44
    4  A    between atoms: C_10  and  N_46
    5  A    between atoms: C_12  and  C_20
    6  A    between atoms: C_14  and  C_37
    7  A    between atoms: C_14  and  C_45
    8  A    between atoms: C_16  and  C_32
    9  A    between atoms: C_17  and  C_45
   10  A    between atoms: C_19  and  C_32
   11  A    between atoms: C_24  and  C_53
   12  A    between atoms: C_25  and  C_36
   13  A    between atoms: C_29  and  C_36
   14  A    between atoms: C_29  and  N_42
   15  A    between atoms: C_30  and  C_36
   16  A    between atoms: C_30  and  C_44
                            x       y       z     vdW  Elec       q    Type
                         _______ _______ _______ _____ _____    ______ ____

>  <TORSDO>
F 16

$$$$
=
 OpenBabel11042417383D

 54 62  0  0  1  0  0  0  0  0999 V2000
  192.6980  172.5980  137.3910 C   0  0  1  0  0  0  0  0  0  0  0  0
  192.2400  174.5280  137.6570 C   0  0  0  0  0  2  0  0  0  0  0  0
  190.6280  172.6270  137.8960 C   0  0  1  0  0  3  0  0  0  0  0  0
  192.9490  173.7920  136.6900 O   0  0  0  0  0  0  0  0  0  0  0  0
  191.8980  173.2870  138.4580 C   0  0  1  0  0  3  0  0  0  0  0  0
  191.4780  171.7980  136.9330 C   0  0  1  0  0  3  0  0  0  0  0  0
  189.6740  172.5160  141.7040 N   0  0  0  0  0  0  0  0  0  0  0  0
  191.1790  168.7700  138.9760 C   0  0  0  0  0  1  0  0  0  0  0  0
  189.8510  171.7320  138.8840 C   0  0  2  0  0  3  0  0  0  0  0  0
  189.1610  173.4140  140.6750 C   0  0  1  0  0  3  0  0  0  0  0  0
  188.0020  173.3080  138.5430 O   0  0  0  0  0  1  0  0  0  0  0  0
  188.6770  172.5460  139.5020 C   0  0  1  0  0  3  0  0  0  0  0  0
  190.8230  171.1950  139.9710 C   0  0  2  0  0  3  0  0  0  0  0  0
  190.8850  169.7040  140.0990 C   0  0  0  0  0  0  0  0  0  0  0  0
  190.8060  169.2990  141.3280 N   0  0  0  0  0  0  0  0  0  0  0  0
  190.5600  170.3720  142.1940 N   0  0  0  0  0  2  0  0  0  0  0  0
  190.4500  171.5270  141.3810 C   0  0  0  0  0  0  0  0  0  0  0  0
  187.9990  174.2130  141.2440 C   0  0  0  0  0  2  0  0  0  0  0  0
  188.1350  175.7010  140.9420 C   0  0  0  0  0  2  0  0  0  0  0  0
  186.7980  177.8230  141.4510 C   0  0  0  0  0  3  0  0  0  0  0  0
  186.1590  178.2560  142.6030 C   0  0  0  0  0  3  0  0  0  0  0  0
  187.2310  176.5490  141.7750 C   0  0  0  0  0  0  0  0  0  0  0  0
  186.2310  177.2740  143.5240 N   0  0  0  0  0  0  0  0  0  0  0  0
  186.9070  176.2440  143.0410 N   0  0  0  0  0  0  0  0  0  0  0  0
  186.8920  176.8760  145.8660 C   0  0  0  0  0  2  0  0  0  0  0  0
  185.8220  177.4140  144.9230 C   0  0  1  0  0  3  0  0  0  0  0  0
  185.3290  179.0350  146.7760 C   0  0  0  0  0  3  0  0  0  0  0  0
  185.5400  178.8730  145.2910 C   0  0  0  0  0  2  0  0  0  0  0  0
  186.3120  176.8720  147.2790 C   0  0  0  0  0  2  0  0  0  0  0  0
  185.7210  178.1540  147.6370 N   0  0  0  0  0  0  0  0  0  0  0  0
  192.1080  171.6090  134.6420 O   0  0  0  0  0  1  0  0  0  0  0  0
  191.1030  172.0790  135.4840 C   0  0  0  0  0  2  0  0  0  0  0  0
  193.9690  171.8710  137.8260 C   0  0  0  0  0  2  0  0  0  0  0  0
  194.9260  172.7200  138.6410 C   0  0  0  0  0  2  0  0  0  0  0  0
  195.0930  172.0590  139.9950 C   0  0  0  0  0  2  0  0  0  0  0  0
  194.2340  172.7560  141.0380 C   0  0  0  0  0  2  0  0  0  0  0  0
  194.2250  171.9710  142.3440 C   0  0  0  0  0  2  0  0  0  0  0  0
  194.0210  172.8950  143.5480 C   0  0  2  0  0  3  0  0  0  0  0  0
  197.5250  172.9390  144.2950 C   0  0  0  0  0  2  0  0  0  0  0  0
  197.3390  174.4210  144.4580 C   0  0  0  0  0  2  0  0  0  0  0  0
  195.0570  172.1130  145.5670 O   0  0  0  0  0  1  0  0  0  0  0  0
  196.3670  172.4080  143.7120 O   0  0  0  0  0  0  0  0  0  0  0  0
  195.2740  172.9140  144.4420 C   0  0  1  0  0  0  0  0  0  0  0  0
  195.6290  174.6280  144.9770 S   0  0  0  0  0  0  0  0  0  0  0  0
  192.7850  172.4400  144.3280 C   0  0  0  0  0  2  0  0  0  0  0  0
  190.9690  175.6490  144.4290 C   0  0  1  0  0  3  0  0  0  0  0  0
  189.7880  174.6770  144.6590 C   0  0  0  0  0  2  0  0  0  0  0  0
  189.9420  172.2990  145.0150 O   0  0  0  0  0  0  0  0  0  0  0  0
  192.2050  174.8760  144.1970 N   0  0  0  0  0  2  0  0  0  0  0  0
  191.8690  173.5580  144.5270 N   0  0  0  0  0  0  0  0  0  0  0  0
  190.4920  173.3990  144.7590 C   0  0  0  0  0  0  0  0  0  0  0  0
  190.8000  176.7110  143.3270 C   0  0  0  0  0  3  0  0  0  0  0  0
  189.9390  177.8820  143.7640 C   0  0  0  0  0  2  0  0  0  0  0  0
  191.4480  178.0350  143.6960 C   0  0  0  0  0  2  0  0  0  0  0  0
  1 33  1  1  0  0  0
  1  5  1  0  0  0  0
  3  5  1  0  0  0  0
  3  9  1  1  0  0  0
  4  1  1  0  0  0  0
  4  2  1  0  0  0  0
  5  2  1  6  0  0  0
  6 32  1  6  0  0  0
  6  1  1  0  0  0  0
  6  3  1  0  0  0  0
  8 14  1  0  0  0  0
  9 12  1  0  0  0  0
  9 13  1  0  0  0  0
 10 18  1  0  0  0  0
 10  7  1  0  0  0  0
 11 12  1  0  0  0  0
 12 10  1  0  0  0  0
 13 14  1  0  0  0  0
 13 17  1  0  0  0  0
 14 15  2  0  0  0  0
 15 16  1  0  0  0  0
 17  7  2  0  0  0  0
 17 16  1  0  0  0  0
 19 18  1  0  0  0  0
 19 22  1  0  0  0  0
 20 22  1  0  0  0  0
 20 21  2  0  0  0  0
 21 23  1  0  0  0  0
 22 24  2  0  0  0  0
 23 26  1  0  0  0  0
 24 23  1  0  0  0  0
 25 29  1  0  0  0  0
 26 28  1  0  0  0  0
 26 25  1  0  0  0  0
 27 30  2  0  0  0  0
 28 27  1  0  0  0  0
 29 30  1  0  0  0  0
 31 32  1  0  0  0  0
 33 34  1  0  0  0  0
 34 35  1  0  0  0  0
 35 36  1  0  0  0  0
 36 37  1  0  0  0  0
 37 38  1  0  0  0  0
 38 45  1  0  0  0  0
 38 43  1  0  0  0  0
 39 40  1  0  0  0  0
 40 44  1  0  0  0  0
 42 39  1  0  0  0  0
 42 43  1  0  0  0  0
 43 44  1  0  0  0  0
 43 41  1  0  0  0  0
 45 50  1  0  0  0  0
 46 47  1  0  0  0  0
 47 51  1  0  0  0  0
 49 46  1  0  0  0  0
 49 50  1  0  0  0  0
 50 51  1  0  0  0  0
 51 48  2  0  0  0  0
 52 54  1  0  0  0  0
 52 53  1  0  0  0  0
 52 46  1  0  0  0  0
 54 53  1  0  0  0  0
M  END
>  <MODEL>
9

>  <REMARK>
 VINA RESULT:      -6.8      3.195      6.097
  Name = 
  16 active torsions:
  status: ('A' for Active; 'I' for Inactive)
    1  A    between atoms: C_4  and  C_23
    2  A    between atoms: C_6  and  C_19
    3  A    between atoms: C_6  and  C_44
    4  A    between atoms: C_10  and  N_46
    5  A    between atoms: C_12  and  C_20
    6  A    between atoms: C_14  and  C_37
    7  A    between atoms: C_14  and  C_45
    8  A    between atoms: C_16  and  C_32
    9  A    between atoms: C_17  and  C_45
   10  A    between atoms: C_19  and  C_32
   11  A    between atoms: C_24  and  C_53
   12  A    between atoms: C_25  and  C_36
   13  A    between atoms: C_29  and  C_36
   14  A    between atoms: C_29  and  N_42
   15  A    between atoms: C_30  and  C_36
   16  A    between atoms: C_30  and  C_44
                            x       y       z     vdW  Elec       q    Type
                         _______ _______ _______ _____ _____    ______ ____

>  <TORSDO>
F 16

$$$$
