=
 OpenBabel11042418513D

 26 30  0  0  0  0  0  0  0  0999 V2000
  186.9110  177.6890  145.8690 C   0  0  0  0  0  0  0  0  0  0  0  0
  185.6580  177.4070  139.0740 C   0  0  0  0  0  3  0  0  0  0  0  0
  186.3900  178.1630  148.1650 N   0  0  0  0  0  0  0  0  0  0  0  0
  184.6620  178.0460  141.1510 C   0  0  0  0  0  3  0  0  0  0  0  0
  186.8400  177.0070  139.7160 C   0  0  0  0  0  3  0  0  0  0  0  0
  186.0720  177.7160  143.1950 C   0  0  0  0  0  0  0  0  0  0  0  0
  185.8230  177.6580  141.8210 C   0  0  0  0  0  0  0  0  0  0  0  0
  187.7980  177.2150  144.8550 C   0  0  0  0  0  0  0  0  0  0  0  0
  185.1990  178.1800  144.1760 C   0  0  0  0  0  3  0  0  0  0  0  0
  184.7460  178.6300  146.4990 C   0  0  0  0  0  3  0  0  0  0  0  0
  184.6100  177.9110  139.7950 N   0  0  0  0  0  0  0  0  0  0  0  0
  186.8900  177.1460  141.0990 C   0  0  0  0  0  0  0  0  0  0  0  0
  188.1590  176.7570  142.1380 S   0  0  0  0  0  0  0  0  0  0  0  0
  185.6160  178.1670  145.5120 C   0  0  0  0  0  0  0  0  0  0  0  0
  187.2590  177.7050  147.2270 C   0  0  0  0  0  3  0  0  0  0  0  0
  185.1540  178.6200  147.8320 C   0  0  0  0  0  3  0  0  0  0  0  0
  187.3380  177.2470  143.5350 C   0  0  0  0  0  0  0  0  0  0  0  0
  190.2150  177.4110  145.1070 C   0  0  0  0  0  3  0  0  0  0  0  0
  189.1250  176.7110  145.0970 N   0  0  0  0  0  0  0  0  0  0  0  0
  193.0540  175.5820  146.7930 C   0  0  0  0  0  3  0  0  0  0  0  0
  194.0120  175.6460  145.7790 C   0  0  0  0  0  0  0  0  0  0  0  0
  191.5180  176.7940  145.3650 C   0  0  0  0  0  0  0  0  0  0  0  0
  191.8010  176.1600  146.5820 C   0  0  0  0  0  3  0  0  0  0  0  0
  192.5060  176.8340  144.3790 C   0  0  0  0  0  3  0  0  0  0  0  0
  193.7210  176.2650  144.6030 N   0  0  0  0  0  0  0  0  0  0  0  0
  195.5890  174.9280  146.0220 Cl  0  0  0  0  0  0  0  0  0  0  0  0
  1 15  1  0  0  0  0
  2  5  2  0  0  0  0
  2 11  1  0  0  0  0
  4  7  1  0  0  0  0
  5 12  1  0  0  0  0
  6 17  2  0  0  0  0
  6  9  1  0  0  0  0
  7  6  1  0  0  0  0
  8 19  1  0  0  0  0
  8  1  2  0  0  0  0
  9 14  2  0  0  0  0
 10 16  2  0  0  0  0
 11  4  2  0  0  0  0
 12  7  2  0  0  0  0
 12 13  1  0  0  0  0
 13 17  1  0  0  0  0
 14  1  1  0  0  0  0
 14 10  1  0  0  0  0
 15  3  2  0  0  0  0
 16  3  1  0  0  0  0
 17  8  1  0  0  0  0
 18 22  1  0  0  0  0
 19 18  2  0  0  0  0
 21 26  1  0  0  0  0
 21 20  2  0  0  0  0
 22 23  2  0  0  0  0
 23 20  1  0  0  0  0
 24 25  2  0  0  0  0
 24 22  1  0  0  0  0
 25 21  1  0  0  0  0
M  END
>  <MODEL>
1

>  <REMARK>
 VINA RESULT:      -7.6      0.000      0.000
  Name = 
  2 active torsions:
  status: ('A' for Active; 'I' for Inactive)
    1  A    between atoms: C_3  and  C_9
    2  A    between atoms: N_6  and  C_14
                            x       y       z     vdW  Elec       q    Type
                         _______ _______ _______ _____ _____    ______ ____

>  <TORSDO>
F 2

$$$$
=
 OpenBabel11042418513D

 26 30  0  0  0  0  0  0  0  0999 V2000
  190.1780  175.4390  145.1050 C   0  0  0  0  0  0  0  0  0  0  0  0
  184.1580  178.7180  146.0190 C   0  0  0  0  0  3  0  0  0  0  0  0
  192.3310  174.6050  145.7700 N   0  0  0  0  0  0  0  0  0  0  0  0
  186.1710  178.1140  147.1610 C   0  0  0  0  0  3  0  0  0  0  0  0
  184.5940  178.1000  144.8370 C   0  0  0  0  0  3  0  0  0  0  0  0
  187.8530  176.8290  145.8220 C   0  0  0  0  0  0  0  0  0  0  0  0
  186.6350  177.4910  146.0020 C   0  0  0  0  0  0  0  0  0  0  0  0
  189.1460  175.6160  144.1350 C   0  0  0  0  0  0  0  0  0  0  0  0
  188.8540  176.6620  146.7750 C   0  0  0  0  0  3  0  0  0  0  0  0
  191.0210  175.7960  147.3710 C   0  0  0  0  0  3  0  0  0  0  0  0
  184.9450  178.7120  147.1390 N   0  0  0  0  0  0  0  0  0  0  0  0
  185.8450  177.4920  144.8630 C   0  0  0  0  0  0  0  0  0  0  0  0
  186.6300  176.6780  143.6120 S   0  0  0  0  0  0  0  0  0  0  0  0
  190.0150  175.9670  146.4200 C   0  0  0  0  0  0  0  0  0  0  0  0
  191.3680  174.7550  144.8210 C   0  0  0  0  0  3  0  0  0  0  0  0
  192.1820  175.1060  147.0240 C   0  0  0  0  0  3  0  0  0  0  0  0
  188.0030  176.3160  144.5360 C   0  0  0  0  0  0  0  0  0  0  0  0
  188.8510  173.9450  142.3850 C   0  0  0  0  0  3  0  0  0  0  0  0
  189.2000  175.1280  142.7810 N   0  0  0  0  0  0  0  0  0  0  0  0
  188.5610  173.9610  138.6220 C   0  0  0  0  0  3  0  0  0  0  0  0
  189.1660  172.7370  138.3310 C   0  0  0  0  0  0  0  0  0  0  0  0
  188.9470  173.5520  140.9770 C   0  0  0  0  0  0  0  0  0  0  0  0
  188.4530  174.3680  139.9520 C   0  0  0  0  0  3  0  0  0  0  0  0
  189.5450  172.3350  140.6410 C   0  0  0  0  0  3  0  0  0  0  0  0
  189.6420  171.9560  139.3390 N   0  0  0  0  0  0  0  0  0  0  0  0
  189.3140  172.2070  136.6710 Cl  0  0  0  0  0  0  0  0  0  0  0  0
  1 14  1  0  0  0  0
  2 11  1  0  0  0  0
  3 16  1  0  0  0  0
  5 12  1  0  0  0  0
  5  2  2  0  0  0  0
  6  7  1  0  0  0  0
  6  9  1  0  0  0  0
  7  4  1  0  0  0  0
  8 17  1  0  0  0  0
  8  1  2  0  0  0  0
 11  4  2  0  0  0  0
 12  7  2  0  0  0  0
 13 17  1  0  0  0  0
 13 12  1  0  0  0  0
 14  9  2  0  0  0  0
 14 10  1  0  0  0  0
 15  1  1  0  0  0  0
 15  3  2  0  0  0  0
 16 10  2  0  0  0  0
 17  6  2  0  0  0  0
 18 19  2  0  0  0  0
 19  8  1  0  0  0  0
 20 23  1  0  0  0  0
 21 20  2  0  0  0  0
 21 25  1  0  0  0  0
 22 18  1  0  0  0  0
 23 22  2  0  0  0  0
 24 22  1  0  0  0  0
 25 24  2  0  0  0  0
 26 21  1  0  0  0  0
M  END
>  <MODEL>
2

>  <REMARK>
 VINA RESULT:      -7.5      3.673      6.307
  Name = 
  2 active torsions:
  status: ('A' for Active; 'I' for Inactive)
    1  A    between atoms: C_3  and  C_9
    2  A    between atoms: N_6  and  C_14
                            x       y       z     vdW  Elec       q    Type
                         _______ _______ _______ _____ _____    ______ ____

>  <TORSDO>
F 2

$$$$
=
 OpenBabel11042418513D

 26 30  0  0  0  0  0  0  0  0999 V2000
  190.2510  175.6620  145.1240 C   0  0  0  0  0  0  0  0  0  0  0  0
  184.0780  178.6670  145.9510 C   0  0  0  0  0  3  0  0  0  0  0  0
  192.3910  174.8410  145.8420 N   0  0  0  0  0  0  0  0  0  0  0  0
  186.0430  178.0310  147.1550 C   0  0  0  0  0  3  0  0  0  0  0  0
  184.6000  178.1640  144.7500 C   0  0  0  0  0  3  0  0  0  0  0  0
  187.8410  176.9150  145.8150 C   0  0  0  0  0  0  0  0  0  0  0  0
  186.5930  177.5230  145.9780 C   0  0  0  0  0  0  0  0  0  0  0  0
  189.2680  175.8890  144.1130 C   0  0  0  0  0  0  0  0  0  0  0  0
  188.7930  176.6990  146.8090 C   0  0  0  0  0  3  0  0  0  0  0  0
  190.9530  175.8520  147.4560 C   0  0  0  0  0  3  0  0  0  0  0  0
  184.8000  178.5910  147.1110 N   0  0  0  0  0  0  0  0  0  0  0  0
  185.8680  177.5950  144.7980 C   0  0  0  0  0  0  0  0  0  0  0  0
  186.7500  176.9140  143.5330 S   0  0  0  0  0  0  0  0  0  0  0  0
  189.9970  176.0730  146.4660 C   0  0  0  0  0  0  0  0  0  0  0  0
  191.4780  175.0410  144.8550 C   0  0  0  0  0  3  0  0  0  0  0  0
  192.1550  175.2300  147.1230 C   0  0  0  0  0  3  0  0  0  0  0  0
  188.0820  176.5170  144.5020 C   0  0  0  0  0  0  0  0  0  0  0  0
  189.1640  174.3520  142.2230 C   0  0  0  0  0  3  0  0  0  0  0  0
  189.4150  175.5190  142.7290 N   0  0  0  0  0  0  0  0  0  0  0  0
  190.6610  173.2520  138.9370 C   0  0  0  0  0  3  0  0  0  0  0  0
  189.6230  173.6060  138.0730 C   0  0  0  0  0  0  0  0  0  0  0  0
  189.3490  174.0830  140.7950 C   0  0  0  0  0  0  0  0  0  0  0  0
  190.5200  173.4930  140.3040 C   0  0  0  0  0  3  0  0  0  0  0  0
  188.3350  174.4220  139.8950 C   0  0  0  0  0  3  0  0  0  0  0  0
  188.4910  174.1790  138.5660 N   0  0  0  0  0  0  0  0  0  0  0  0
  189.7770  173.3130  136.3560 Cl  0  0  0  0  0  0  0  0  0  0  0  0
  1 14  1  0  0  0  0
  2 11  1  0  0  0  0
  3 16  1  0  0  0  0
  5 12  1  0  0  0  0
  5  2  2  0  0  0  0
  6  7  1  0  0  0  0
  6  9  1  0  0  0  0
  7  4  1  0  0  0  0
  8 17  1  0  0  0  0
  8  1  2  0  0  0  0
 11  4  2  0  0  0  0
 12  7  2  0  0  0  0
 13 17  1  0  0  0  0
 13 12  1  0  0  0  0
 14  9  2  0  0  0  0
 14 10  1  0  0  0  0
 15  1  1  0  0  0  0
 15  3  2  0  0  0  0
 16 10  2  0  0  0  0
 17  6  2  0  0  0  0
 18 19  2  0  0  0  0
 19  8  1  0  0  0  0
 20 23  1  0  0  0  0
 21 25  1  0  0  0  0
 21 20  2  0  0  0  0
 22 18  1  0  0  0  0
 23 22  2  0  0  0  0
 24 22  1  0  0  0  0
 25 24  2  0  0  0  0
 26 21  1  0  0  0  0
M  END
>  <MODEL>
3

>  <REMARK>
 VINA RESULT:      -7.4      3.517      6.159
  Name = 
  2 active torsions:
  status: ('A' for Active; 'I' for Inactive)
    1  A    between atoms: C_3  and  C_9
    2  A    between atoms: N_6  and  C_14
                            x       y       z     vdW  Elec       q    Type
                         _______ _______ _______ _____ _____    ______ ____

>  <TORSDO>
F 2

$$$$
=
 OpenBabel11042418513D

 26 30  0  0  0  0  0  0  0  0999 V2000
  189.9850  175.5580  144.9760 C   0  0  0  0  0  0  0  0  0  0  0  0
  184.0510  179.0410  144.2900 C   0  0  0  0  0  3  0  0  0  0  0  0
  191.9980  174.8770  146.0970 N   0  0  0  0  0  0  0  0  0  0  0  0
  185.8740  178.6990  145.7980 C   0  0  0  0  0  3  0  0  0  0  0  0
  184.6040  178.1540  143.3540 C   0  0  0  0  0  3  0  0  0  0  0  0
  187.6520  177.1100  145.0320 C   0  0  0  0  0  0  0  0  0  0  0  0
  186.4520  177.8120  144.8890 C   0  0  0  0  0  0  0  0  0  0  0  0
  189.0920  175.5140  143.8630 C   0  0  0  0  0  0  0  0  0  0  0  0
  188.5170  177.1600  146.1230 C   0  0  0  0  0  3  0  0  0  0  0  0
  190.5510  176.4320  147.1870 C   0  0  0  0  0  3  0  0  0  0  0  0
  184.6880  179.2900  145.4740 N   0  0  0  0  0  0  0  0  0  0  0  0
  185.8130  177.5520  143.6870 C   0  0  0  0  0  0  0  0  0  0  0  0
  186.7130  176.4540  142.7770 S   0  0  0  0  0  0  0  0  0  0  0  0
  189.6820  176.3860  146.0970 C   0  0  0  0  0  0  0  0  0  0  0  0
  191.1700  174.8100  145.0210 C   0  0  0  0  0  3  0  0  0  0  0  0
  191.7150  175.6640  147.1680 C   0  0  0  0  0  3  0  0  0  0  0  0
  187.9410  176.3040  143.9340 C   0  0  0  0  0  0  0  0  0  0  0  0
  188.9080  173.4920  142.5130 C   0  0  0  0  0  3  0  0  0  0  0  0
  189.2940  174.7170  142.6810 N   0  0  0  0  0  0  0  0  0  0  0  0
  190.4410  171.1960  139.9400 C   0  0  0  0  0  3  0  0  0  0  0  0
  189.5930  171.4490  138.8600 C   0  0  0  0  0  0  0  0  0  0  0  0
  189.1670  172.7730  141.2640 C   0  0  0  0  0  0  0  0  0  0  0  0
  190.2250  171.8620  141.1460 C   0  0  0  0  0  3  0  0  0  0  0  0
  188.3420  172.9950  140.1580 C   0  0  0  0  0  3  0  0  0  0  0  0
  188.5690  172.3360  138.9910 N   0  0  0  0  0  0  0  0  0  0  0  0
  189.8450  170.6240  137.3380 Cl  0  0  0  0  0  0  0  0  0  0  0  0
  1 15  1  0  0  0  0
  1 14  1  0  0  0  0
  2 11  1  0  0  0  0
  3 16  1  0  0  0  0
  5 12  1  0  0  0  0
  5  2  2  0  0  0  0
  6  9  1  0  0  0  0
  7  6  1  0  0  0  0
  7  4  1  0  0  0  0
  8 17  1  0  0  0  0
  8  1  2  0  0  0  0
 11  4  2  0  0  0  0
 12  7  2  0  0  0  0
 13 12  1  0  0  0  0
 13 17  1  0  0  0  0
 14  9  2  0  0  0  0
 14 10  1  0  0  0  0
 15  3  2  0  0  0  0
 16 10  2  0  0  0  0
 17  6  2  0  0  0  0
 18 19  2  0  0  0  0
 19  8  1  0  0  0  0
 20 23  1  0  0  0  0
 21 25  1  0  0  0  0
 21 20  2  0  0  0  0
 22 18  1  0  0  0  0
 23 22  2  0  0  0  0
 24 22  1  0  0  0  0
 25 24  2  0  0  0  0
 26 21  1  0  0  0  0
M  END
>  <MODEL>
4

>  <REMARK>
 VINA RESULT:      -7.4      4.008      5.855
  Name = 
  2 active torsions:
  status: ('A' for Active; 'I' for Inactive)
    1  A    between atoms: C_3  and  C_9
    2  A    between atoms: N_6  and  C_14
                            x       y       z     vdW  Elec       q    Type
                         _______ _______ _______ _____ _____    ______ ____

>  <TORSDO>
F 2

$$$$
=
 OpenBabel11042418513D

 26 30  0  0  0  0  0  0  0  0999 V2000
  186.7770  177.1180  142.9980 C   0  0  0  0  0  0  0  0  0  0  0  0
  191.9370  176.4160  147.5480 C   0  0  0  0  0  3  0  0  0  0  0  0
  184.6500  177.9180  142.2190 N   0  0  0  0  0  0  0  0  0  0  0  0
  189.8010  177.4520  147.2620 C   0  0  0  0  0  3  0  0  0  0  0  0
  191.8800  175.8500  146.2660 C   0  0  0  0  0  3  0  0  0  0  0  0
  188.6670  177.0490  145.0660 C   0  0  0  0  0  0  0  0  0  0  0  0
  189.7120  176.9040  145.9830 C   0  0  0  0  0  0  0  0  0  0  0  0
  187.9820  176.3750  142.8160 C   0  0  0  0  0  0  0  0  0  0  0  0
  187.4950  177.7770  145.2540 C   0  0  0  0  0  3  0  0  0  0  0  0
  185.3750  178.5420  144.4050 C   0  0  0  0  0  3  0  0  0  0  0  0
  190.9110  177.1940  148.0120 N   0  0  0  0  0  0  0  0  0  0  0  0
  190.7470  176.1150  145.5040 C   0  0  0  0  0  0  0  0  0  0  0  0
  190.3950  175.5800  143.9440 S   0  0  0  0  0  0  0  0  0  0  0  0
  186.5500  177.8140  144.2230 C   0  0  0  0  0  0  0  0  0  0  0  0
  185.7860  177.2010  142.0100 C   0  0  0  0  0  3  0  0  0  0  0  0
  184.4280  178.5830  143.3830 C   0  0  0  0  0  3  0  0  0  0  0  0
  188.8970  176.3670  143.8730 C   0  0  0  0  0  0  0  0  0  0  0  0
  188.1930  174.3570  141.4650 C   0  0  0  0  0  3  0  0  0  0  0  0
  188.3170  175.6360  141.6260 N   0  0  0  0  0  0  0  0  0  0  0  0
  188.5670  173.5900  137.7880 C   0  0  0  0  0  3  0  0  0  0  0  0
  189.3120  172.4120  137.8650 C   0  0  0  0  0  0  0  0  0  0  0  0
  188.5660  173.7060  140.2060 C   0  0  0  0  0  0  0  0  0  0  0  0
  188.1930  174.2380  138.9660 C   0  0  0  0  0  3  0  0  0  0  0  0
  189.3120  172.5250  140.2380 C   0  0  0  0  0  3  0  0  0  0  0  0
  189.6660  171.9080  139.0790 N   0  0  0  0  0  0  0  0  0  0  0  0
  189.7920  171.5830  136.4010 Cl  0  0  0  0  0  0  0  0  0  0  0  0
  1 14  1  0  0  0  0
  2 11  1  0  0  0  0
  3 16  1  0  0  0  0
  4 11  2  0  0  0  0
  5  2  2  0  0  0  0
  6  9  1  0  0  0  0
  6  7  1  0  0  0  0
  7  4  1  0  0  0  0
  8  1  2  0  0  0  0
  8 17  1  0  0  0  0
 12  7  2  0  0  0  0
 12  5  1  0  0  0  0
 13 12  1  0  0  0  0
 14 10  1  0  0  0  0
 14  9  2  0  0  0  0
 15  3  2  0  0  0  0
 15  1  1  0  0  0  0
 16 10  2  0  0  0  0
 17 13  1  0  0  0  0
 17  6  2  0  0  0  0
 18 19  2  0  0  0  0
 19  8  1  0  0  0  0
 20 21  2  0  0  0  0
 20 23  1  0  0  0  0
 21 25  1  0  0  0  0
 22 24  1  0  0  0  0
 22 18  1  0  0  0  0
 23 22  2  0  0  0  0
 25 24  2  0  0  0  0
 26 21  1  0  0  0  0
M  END
>  <MODEL>
5

>  <REMARK>
 VINA RESULT:      -7.2      3.750      6.712
  Name = 
  2 active torsions:
  status: ('A' for Active; 'I' for Inactive)
    1  A    between atoms: C_3  and  C_9
    2  A    between atoms: N_6  and  C_14
                            x       y       z     vdW  Elec       q    Type
                         _______ _______ _______ _____ _____    ______ ____

>  <TORSDO>
F 2

$$$$
=
 OpenBabel11042418513D

 26 30  0  0  0  0  0  0  0  0999 V2000
  189.4100  174.7160  141.9460 C   0  0  0  0  0  0  0  0  0  0  0  0
  185.5470  178.1410  146.5460 C   0  0  0  0  0  3  0  0  0  0  0  0
  189.8920  173.7180  139.8140 N   0  0  0  0  0  0  0  0  0  0  0  0
  185.5270  177.3280  144.2980 C   0  0  0  0  0  3  0  0  0  0  0  0
  186.8390  177.6370  146.7600 C   0  0  0  0  0  3  0  0  0  0  0  0
  187.5890  176.1230  143.5440 C   0  0  0  0  0  0  0  0  0  0  0  0
  186.8110  176.8140  144.4780 C   0  0  0  0  0  0  0  0  0  0  0  0
  189.7700  175.0460  143.2870 C   0  0  0  0  0  0  0  0  0  0  0  0
  187.2270  175.8060  142.2370 C   0  0  0  0  0  3  0  0  0  0  0  0
  187.7800  174.7850  140.1260 C   0  0  0  0  0  3  0  0  0  0  0  0
  184.9280  177.9780  145.3370 N   0  0  0  0  0  0  0  0  0  0  0  0
  187.4470  176.9750  145.6990 C   0  0  0  0  0  0  0  0  0  0  0  0
  188.9770  176.2690  145.6530 S   0  0  0  0  0  0  0  0  0  0  0  0
  188.1360  175.1040  141.4370 C   0  0  0  0  0  0  0  0  0  0  0  0
  190.2680  174.0150  141.0860 C   0  0  0  0  0  3  0  0  0  0  0  0
  188.6790  174.0850  139.3230 C   0  0  0  0  0  3  0  0  0  0  0  0
  188.8310  175.7480  144.0490 C   0  0  0  0  0  0  0  0  0  0  0  0
  192.1220  175.3940  143.8300 C   0  0  0  0  0  3  0  0  0  0  0  0
  191.0260  174.7060  143.9060 N   0  0  0  0  0  0  0  0  0  0  0  0
  195.1350  175.2890  146.1010 C   0  0  0  0  0  3  0  0  0  0  0  0
  195.6680  174.0530  145.7310 C   0  0  0  0  0  0  0  0  0  0  0  0
  193.3470  174.9540  144.5020 C   0  0  0  0  0  0  0  0  0  0  0  0
  193.9690  175.7400  145.4820 C   0  0  0  0  0  3  0  0  0  0  0  0
  193.9140  173.7240  144.1630 C   0  0  0  0  0  3  0  0  0  0  0  0
  195.0510  173.3020  144.7780 N   0  0  0  0  0  0  0  0  0  0  0  0
  197.1290  173.4670  146.4950 Cl  0  0  0  0  0  0  0  0  0  0  0  0
  1  8  1  0  0  0  0
  2  5  1  0  0  0  0
  3 15  1  0  0  0  0
  4  7  2  0  0  0  0
  4 11  1  0  0  0  0
  6 17  1  0  0  0  0
  6  7  1  0  0  0  0
  7 12  1  0  0  0  0
  8 19  1  0  0  0  0
  8 17  2  0  0  0  0
  9  6  2  0  0  0  0
 10 14  2  0  0  0  0
 11  2  2  0  0  0  0
 12  5  2  0  0  0  0
 13 12  1  0  0  0  0
 14  1  1  0  0  0  0
 14  9  1  0  0  0  0
 15  1  2  0  0  0  0
 16  3  2  0  0  0  0
 16 10  1  0  0  0  0
 17 13  1  0  0  0  0
 18 19  2  0  0  0  0
 18 22  1  0  0  0  0
 21 20  1  0  0  0  0
 21 26  1  0  0  0  0
 22 23  1  0  0  0  0
 23 20  2  0  0  0  0
 24 22  2  0  0  0  0
 24 25  1  0  0  0  0
 25 21  2  0  0  0  0
M  END
>  <MODEL>
6

>  <REMARK>
 VINA RESULT:      -6.9      2.656      5.153
  Name = 
  2 active torsions:
  status: ('A' for Active; 'I' for Inactive)
    1  A    between atoms: C_3  and  C_9
    2  A    between atoms: N_6  and  C_14
                            x       y       z     vdW  Elec       q    Type
                         _______ _______ _______ _____ _____    ______ ____

>  <TORSDO>
F 2

$$$$
=
 OpenBabel11042418513D

 26 30  0  0  0  0  0  0  0  0999 V2000
  186.7260  177.9400  145.4770 C   0  0  0  0  0  0  0  0  0  0  0  0
  182.1080  178.3790  140.3490 C   0  0  0  0  0  3  0  0  0  0  0  0
  187.4770  178.0820  147.7550 N   0  0  0  0  0  0  0  0  0  0  0  0
  182.3380  178.6680  142.7110 C   0  0  0  0  0  3  0  0  0  0  0  0
  183.4560  178.0100  140.2210 C   0  0  0  0  0  3  0  0  0  0  0  0
  184.6120  178.2180  143.6590 C   0  0  0  0  0  0  0  0  0  0  0  0
  183.6820  178.3070  142.6190 C   0  0  0  0  0  0  0  0  0  0  0  0
  186.9580  177.6740  144.0940 C   0  0  0  0  0  0  0  0  0  0  0  0
  184.3760  178.4800  145.0060 C   0  0  0  0  0  3  0  0  0  0  0  0
  185.1990  178.6000  147.2670 C   0  0  0  0  0  3  0  0  0  0  0  0
  181.5860  178.6950  141.5730 N   0  0  0  0  0  0  0  0  0  0  0  0
  184.2200  177.9840  141.3830 C   0  0  0  0  0  0  0  0  0  0  0  0
  185.8500  177.5850  141.5460 S   0  0  0  0  0  0  0  0  0  0  0  0
  185.4300  178.3410  145.9160 C   0  0  0  0  0  0  0  0  0  0  0  0
  187.7330  177.8210  146.4460 C   0  0  0  0  0  3  0  0  0  0  0  0
  186.2450  178.4640  148.1790 C   0  0  0  0  0  3  0  0  0  0  0  0
  185.8750  177.8260  143.2220 C   0  0  0  0  0  0  0  0  0  0  0  0
  188.7380  176.0780  143.6150 C   0  0  0  0  0  3  0  0  0  0  0  0
  188.2210  177.2640  143.5380 N   0  0  0  0  0  0  0  0  0  0  0  0
  192.4010  176.1950  142.7110 C   0  0  0  0  0  3  0  0  0  0  0  0
  192.4600  175.1210  141.8210 C   0  0  0  0  0  0  0  0  0  0  0  0
  190.0360  175.7690  143.0100 C   0  0  0  0  0  0  0  0  0  0  0  0
  191.1810  176.5180  143.3070 C   0  0  0  0  0  3  0  0  0  0  0  0
  190.1400  174.7020  142.1140 C   0  0  0  0  0  3  0  0  0  0  0  0
  191.3370  174.4020  141.5440 N   0  0  0  0  0  0  0  0  0  0  0  0
  193.9780  174.6960  141.0630 Cl  0  0  0  0  0  0  0  0  0  0  0  0
  1 14  1  0  0  0  0
  1 15  1  0  0  0  0
  2 11  1  0  0  0  0
  3 16  1  0  0  0  0
  5  2  2  0  0  0  0
  5 12  1  0  0  0  0
  6  9  1  0  0  0  0
  7  4  1  0  0  0  0
  7  6  1  0  0  0  0
  8  1  2  0  0  0  0
  9 14  2  0  0  0  0
 10 16  2  0  0  0  0
 11  4  2  0  0  0  0
 12 13  1  0  0  0  0
 12  7  2  0  0  0  0
 13 17  1  0  0  0  0
 14 10  1  0  0  0  0
 15  3  2  0  0  0  0
 17  6  2  0  0  0  0
 17  8  1  0  0  0  0
 19 18  2  0  0  0  0
 19  8  1  0  0  0  0
 20 23  1  0  0  0  0
 21 20  2  0  0  0  0
 22 23  2  0  0  0  0
 22 18  1  0  0  0  0
 24 22  1  0  0  0  0
 25 21  1  0  0  0  0
 25 24  2  0  0  0  0
 26 21  1  0  0  0  0
M  END
>  <MODEL>
7

>  <REMARK>
 VINA RESULT:      -6.8      2.426      2.832
  Name = 
  2 active torsions:
  status: ('A' for Active; 'I' for Inactive)
    1  A    between atoms: C_3  and  C_9
    2  A    between atoms: N_6  and  C_14
                            x       y       z     vdW  Elec       q    Type
                         _______ _______ _______ _____ _____    ______ ____

>  <TORSDO>
F 2

$$$$
=
 OpenBabel11042418513D

 26 30  0  0  0  0  0  0  0  0999 V2000
  192.2590  175.1700  145.5590 C   0  0  0  0  0  0  0  0  0  0  0  0
  191.3090  169.6590  141.4920 C   0  0  0  0  0  3  0  0  0  0  0  0
  193.5500  176.7290  146.8540 N   0  0  0  0  0  0  0  0  0  0  0  0
  193.0130  170.9010  142.6180 C   0  0  0  0  0  3  0  0  0  0  0  0
  190.3090  170.5210  141.9660 C   0  0  0  0  0  3  0  0  0  0  0  0
  192.2410  172.8910  143.9290 C   0  0  0  0  0  0  0  0  0  0  0  0
  192.0440  171.7770  143.1070 C   0  0  0  0  0  0  0  0  0  0  0  0
  191.0170  174.6930  145.0430 C   0  0  0  0  0  0  0  0  0  0  0  0
  193.4580  173.3480  144.4280 C   0  0  0  0  0  3  0  0  0  0  0  0
  194.6860  174.9490  145.7430 C   0  0  0  0  0  3  0  0  0  0  0  0
  192.6200  169.8650  141.8230 N   0  0  0  0  0  0  0  0  0  0  0  0
  190.7120  171.5770  142.7760 C   0  0  0  0  0  0  0  0  0  0  0  0
  189.7530  172.7660  143.4890 S   0  0  0  0  0  0  0  0  0  0  0  0
  193.4700  174.4860  145.2410 C   0  0  0  0  0  0  0  0  0  0  0  0
  192.3490  176.3030  146.3800 C   0  0  0  0  0  3  0  0  0  0  0  0
  194.7060  176.0820  146.5550 C   0  0  0  0  0  3  0  0  0  0  0  0
  191.0540  173.5530  144.2340 C   0  0  0  0  0  0  0  0  0  0  0  0
  189.2880  176.3880  144.7500 C   0  0  0  0  0  3  0  0  0  0  0  0
  189.7360  175.3010  145.2960 N   0  0  0  0  0  0  0  0  0  0  0  0
  185.9970  177.0060  146.4900 C   0  0  0  0  0  3  0  0  0  0  0  0
  185.4590  177.9770  145.6430 C   0  0  0  0  0  0  0  0  0  0  0  0
  187.9640  176.9200  145.0820 C   0  0  0  0  0  0  0  0  0  0  0  0
  187.2560  176.4760  146.2060 C   0  0  0  0  0  3  0  0  0  0  0  0
  187.3890  177.8930  144.2610 C   0  0  0  0  0  3  0  0  0  0  0  0
  186.1610  178.3970  144.5550 N   0  0  0  0  0  0  0  0  0  0  0  0
  183.8820  178.6550  145.9810 Cl  0  0  0  0  0  0  0  0  0  0  0  0
  1 15  1  0  0  0  0
  2 11  2  0  0  0  0
  2  5  1  0  0  0  0
  4  7  2  0  0  0  0
  5 12  2  0  0  0  0
  6 17  2  0  0  0  0
  6  9  1  0  0  0  0
  7  6  1  0  0  0  0
  8 19  1  0  0  0  0
  8  1  2  0  0  0  0
  9 14  2  0  0  0  0
 10 16  2  0  0  0  0
 11  4  1  0  0  0  0
 12  7  1  0  0  0  0
 12 13  1  0  0  0  0
 13 17  1  0  0  0  0
 14  1  1  0  0  0  0
 14 10  1  0  0  0  0
 15  3  2  0  0  0  0
 16  3  1  0  0  0  0
 17  8  1  0  0  0  0
 18 22  1  0  0  0  0
 18 19  2  0  0  0  0
 21 26  1  0  0  0  0
 21 20  2  0  0  0  0
 22 23  2  0  0  0  0
 23 20  1  0  0  0  0
 24 25  2  0  0  0  0
 24 22  1  0  0  0  0
 25 21  1  0  0  0  0
M  END
>  <MODEL>
8

>  <REMARK>
 VINA RESULT:      -6.6      4.373      7.770
  Name = 
  2 active torsions:
  status: ('A' for Active; 'I' for Inactive)
    1  A    between atoms: C_3  and  C_9
    2  A    between atoms: N_6  and  C_14
                            x       y       z     vdW  Elec       q    Type
                         _______ _______ _______ _____ _____    ______ ____

>  <TORSDO>
F 2

$$$$
=
 OpenBabel11042418513D

 26 30  0  0  0  0  0  0  0  0999 V2000
  189.9680  174.2590  141.5140 C   0  0  0  0  0  0  0  0  0  0  0  0
  196.2650  176.0830  143.7140 C   0  0  0  0  0  3  0  0  0  0  0  0
  188.3950  173.1870  140.0480 N   0  0  0  0  0  0  0  0  0  0  0  0
  195.1500  174.8600  141.9890 C   0  0  0  0  0  3  0  0  0  0  0  0
  195.0450  176.4240  144.3180 C   0  0  0  0  0  3  0  0  0  0  0  0
  192.6490  174.8090  142.1160 C   0  0  0  0  0  0  0  0  0  0  0  0
  193.9200  175.1810  142.5630 C   0  0  0  0  0  0  0  0  0  0  0  0
  190.2760  175.0490  142.6620 C   0  0  0  0  0  0  0  0  0  0  0  0
  192.3590  174.0380  140.9930 C   0  0  0  0  0  3  0  0  0  0  0  0
  190.7240  172.9880  139.5680 C   0  0  0  0  0  3  0  0  0  0  0  0
  196.2900  175.3190  142.5790 N   0  0  0  0  0  0  0  0  0  0  0  0
  193.8840  175.9540  143.7140 C   0  0  0  0  0  0  0  0  0  0  0  0
  192.2880  176.1950  144.2000 S   0  0  0  0  0  0  0  0  0  0  0  0
  191.0210  173.7610  140.6910 C   0  0  0  0  0  0  0  0  0  0  0  0
  188.6520  173.9420  141.1490 C   0  0  0  0  0  3  0  0  0  0  0  0
  189.3940  172.7090  139.2610 C   0  0  0  0  0  3  0  0  0  0  0  0
  191.6270  175.2990  142.9240 C   0  0  0  0  0  0  0  0  0  0  0  0
  188.7310  176.7630  143.4490 C   0  0  0  0  0  3  0  0  0  0  0  0
  189.2980  175.6040  143.5630 N   0  0  0  0  0  0  0  0  0  0  0  0
  185.9640  178.7220  145.1080 C   0  0  0  0  0  3  0  0  0  0  0  0
  185.9020  178.0550  146.3330 C   0  0  0  0  0  0  0  0  0  0  0  0
  187.7450  177.2300  144.4270 C   0  0  0  0  0  0  0  0  0  0  0  0
  186.8900  178.3050  144.1520 C   0  0  0  0  0  3  0  0  0  0  0  0
  187.6490  176.5910  145.6650 C   0  0  0  0  0  3  0  0  0  0  0  0
  186.7390  177.0110  146.5840 N   0  0  0  0  0  0  0  0  0  0  0  0
  184.7470  178.5600  147.5460 Cl  0  0  0  0  0  0  0  0  0  0  0  0
  1  8  1  0  0  0  0
  2  5  1  0  0  0  0
  3 15  1  0  0  0  0
  4  7  2  0  0  0  0
  4 11  1  0  0  0  0
  6  7  1  0  0  0  0
  6 17  1  0  0  0  0
  7 12  1  0  0  0  0
  8 17  2  0  0  0  0
  8 19  1  0  0  0  0
  9  6  2  0  0  0  0
 10 14  2  0  0  0  0
 11  2  2  0  0  0  0
 12 13  1  0  0  0  0
 12  5  2  0  0  0  0
 14  9  1  0  0  0  0
 14  1  1  0  0  0  0
 15  1  2  0  0  0  0
 16 10  1  0  0  0  0
 16  3  2  0  0  0  0
 17 13  1  0  0  0  0
 18 19  2  0  0  0  0
 18 22  1  0  0  0  0
 20 21  1  0  0  0  0
 21 25  2  0  0  0  0
 21 26  1  0  0  0  0
 22 24  2  0  0  0  0
 23 22  1  0  0  0  0
 23 20  2  0  0  0  0
 24 25  1  0  0  0  0
M  END
>  <MODEL>
9

>  <REMARK>
 VINA RESULT:      -6.6      3.999      8.143
  Name = 
  2 active torsions:
  status: ('A' for Active; 'I' for Inactive)
    1  A    between atoms: C_3  and  C_9
    2  A    between atoms: N_6  and  C_14
                            x       y       z     vdW  Elec       q    Type
                         _______ _______ _______ _____ _____    ______ ____

>  <TORSDO>
F 2

$$$$
