=
 OpenBabel11042416573D

 35 38  0  0  1  0  0  0  0  0999 V2000
  189.5600  173.9250  142.8360 C   0  0  2  0  0  0  0  0  0  0  0  0
  187.9850  175.0810  140.6620 C   0  0  0  0  0  3  0  0  0  0  0  0
  188.2330  173.5990  140.7210 C   0  0  0  0  0  2  0  0  0  0  0  0
  188.4430  173.1250  142.1590 C   0  0  0  0  0  2  0  0  0  0  0  0
  189.6640  173.4700  144.2820 C   0  0  0  0  0  1  0  0  0  0  0  0
  188.4810  175.9330  141.5730 C   0  0  0  0  0  0  0  0  0  0  0  0
  189.1670  175.4220  142.8310 C   0  0  2  0  0  3  0  0  0  0  0  0
  190.1990  176.3190  143.3670 N   0  0  0  0  0  2  0  0  0  0  0  0
  190.6930  176.5390  145.7710 C   0  0  0  0  0  0  0  0  0  0  0  0
  190.3450  176.9710  147.1390 C   0  0  0  0  0  3  0  0  0  0  0  0
  191.5810  176.5810  147.9370 C   0  0  0  0  0  3  0  0  0  0  0  0
  191.8450  175.9780  145.6580 N   0  0  0  0  0  0  0  0  0  0  0  0
  189.8270  176.7370  144.6550 N   0  0  0  0  0  2  0  0  0  0  0  0
  192.5190  175.9020  146.9390 C   0  0  1  0  0  3  0  0  0  0  0  0
  193.8390  176.6540  146.8640 C   0  0  0  0  0  2  0  0  0  0  0  0
  194.2070  176.9830  145.4250 C   0  0  0  0  0  2  0  0  0  0  0  0
  195.6590  175.1420  145.8790 O   0  0  0  0  0  1  0  0  0  0  0  0
  195.3510  176.1150  144.9290 C   0  0  0  0  0  2  0  0  0  0  0  0
  191.1690  173.6360  141.9860 S   0  0  0  0  0  0  0  0  0  0  0  0
  193.9710  172.4440  144.6660 N   0  0  0  0  0  2  0  0  0  0  0  0
  192.1150  171.2300  142.8930 C   0  0  0  0  0  2  0  0  0  0  0  0
  193.7700  171.0260  144.7190 C   0  0  0  0  0  0  0  0  0  0  0  0
  191.9390  172.6820  143.3320 C   0  0  1  0  0  3  0  0  0  0  0  0
  192.8660  170.4420  143.9300 C   0  0  0  0  0  3  0  0  0  0  0  0
  193.3060  173.2710  143.6620 C   0  0  0  0  0  2  0  0  0  0  0  0
  194.6250  170.0710  145.9110 Cl  0  0  0  0  0  0  0  0  0  0  0  0
  188.1290  177.3840  141.4530 C   0  0  0  0  0  2  0  0  0  0  0  0
  184.8920  178.4220  143.9990 C   0  0  0  0  0  0  0  0  0  0  0  0
  185.6720  177.5240  141.9010 C   0  0  0  0  0  3  0  0  0  0  0  0
  187.2000  178.2660  143.5660 N   0  0  0  0  0  0  0  0  0  0  0  0
  186.9800  177.7250  142.3390 C   0  0  0  0  0  0  0  0  0  0  0  0
  184.6170  177.8740  142.7400 C   0  0  0  0  0  3  0  0  0  0  0  0
  186.1880  178.6010  144.3700 N   0  0  0  0  0  0  0  0  0  0  0  0
  183.8710  178.7890  144.8790 O   0  0  0  0  0  0  0  0  0  0  0  0
  183.9800  178.6360  146.2880 C   0  0  0  0  0  1  0  0  0  0  0  0
  1  5  1  1  0  0  0
  2  3  1  0  0  0  0
  2  6  2  0  0  0  0
  3  4  1  0  0  0  0
  4  1  1  0  0  0  0
  6  7  1  0  0  0  0
  7  1  1  0  0  0  0
  7  8  1  6  0  0  0
  8 13  1  0  0  0  0
  9 10  1  0  0  0  0
 10 11  2  0  0  0  0
 12  9  2  0  0  0  0
 12 14  1  0  0  0  0
 13  9  1  0  0  0  0
 14 15  1  6  0  0  0
 14 11  1  0  0  0  0
 16 15  1  0  0  0  0
 18 16  1  0  0  0  0
 18 17  1  0  0  0  0
 19  1  1  0  0  0  0
 20 22  1  0  0  0  0
 21 23  1  0  0  0  0
 21 24  1  0  0  0  0
 22 26  1  0  0  0  0
 23 19  1  6  0  0  0
 23 25  1  0  0  0  0
 24 22  2  0  0  0  0
 25 20  1  0  0  0  0
 27  6  1  0  0  0  0
 27 31  1  0  0  0  0
 28 33  2  0  0  0  0
 28 34  1  0  0  0  0
 29 31  1  0  0  0  0
 29 32  2  0  0  0  0
 30 33  1  0  0  0  0
 31 30  2  0  0  0  0
 32 28  1  0  0  0  0
 34 35  1  0  0  0  0
M  END
>  <MODEL>
1

>  <REMARK>
 VINA RESULT:      -6.5      0.000      0.000
  Name = 
  10 active torsions:
  status: ('A' for Active; 'I' for Inactive)
    1  A    between atoms: C_1  and  O_15
    2  A    between atoms: C_3  and  S_24
    3  A    between atoms: N_6  and  N_27
    4  A    between atoms: N_6  and  C_34
    5  A    between atoms: C_8  and  C_14
    6  A    between atoms: C_8  and  C_30
    7  A    between atoms: C_13  and  S_24
    8  A    between atoms: C_14  and  C_26
    9  A    between atoms: C_22  and  C_28
   10  A    between atoms: C_28  and  C_31
                            x       y       z     vdW  Elec       q    Type
                         _______ _______ _______ _____ _____    ______ ____

>  <TORSDO>
F 10

$$$$
=
 OpenBabel11042416573D

 35 38  0  0  1  0  0  0  0  0999 V2000
  190.6200  175.5690  145.2080 C   0  0  2  0  0  0  0  0  0  0  0  0
  193.1340  175.7500  146.6860 C   0  0  0  0  0  3  0  0  0  0  0  0
  191.8190  175.9100  147.3960 C   0  0  0  0  0  2  0  0  0  0  0  0
  190.7020  175.1500  146.6800 C   0  0  0  0  0  2  0  0  0  0  0  0
  189.5550  174.7220  144.5310 C   0  0  0  0  0  1  0  0  0  0  0  0
  193.2210  175.5410  145.3630 C   0  0  0  0  0  0  0  0  0  0  0  0
  191.9780  175.2630  144.5320 C   0  0  2  0  0  3  0  0  0  0  0  0
  192.0700  175.7060  143.1350 N   0  0  0  0  0  2  0  0  0  0  0  0
  193.3690  174.6480  141.3280 C   0  0  0  0  0  0  0  0  0  0  0  0
  193.6910  173.5060  140.4500 C   0  0  0  0  0  3  0  0  0  0  0  0
  194.8580  174.0340  139.6280 C   0  0  0  0  0  3  0  0  0  0  0  0
  194.0970  175.6930  141.1440 N   0  0  0  0  0  0  0  0  0  0  0  0
  192.3400  174.5990  142.3130 N   0  0  0  0  0  2  0  0  0  0  0  0
  195.0660  175.4770  140.0860 C   0  0  1  0  0  3  0  0  0  0  0  0
  196.4710  175.6550  140.6400 C   0  0  0  0  0  2  0  0  0  0  0  0
  196.4970  176.6830  141.7620 C   0  0  0  0  0  2  0  0  0  0  0  0
  197.8730  174.9530  142.6680 O   0  0  0  0  0  1  0  0  0  0  0  0
  197.4110  176.2490  142.8960 C   0  0  0  0  0  2  0  0  0  0  0  0
  190.1690  177.3490  145.0670 S   0  0  0  0  0  0  0  0  0  0  0  0
  186.1570  177.8950  144.8180 N   0  0  0  0  0  2  0  0  0  0  0  0
  188.1100  177.5940  146.8570 C   0  0  0  0  0  2  0  0  0  0  0  0
  185.7360  177.7490  146.1800 C   0  0  0  0  0  0  0  0  0  0  0  0
  188.3970  177.1380  145.4290 C   0  0  1  0  0  3  0  0  0  0  0  0
  186.6350  177.5560  147.1480 C   0  0  0  0  0  3  0  0  0  0  0  0
  187.5710  177.9790  144.4610 C   0  0  0  0  0  2  0  0  0  0  0  0
  184.0290  177.7000  146.5620 Cl  0  0  0  0  0  0  0  0  0  0  0  0
  194.5790  175.3410  144.7640 C   0  0  0  0  0  2  0  0  0  0  0  0
  196.1590  171.5440  145.8210 C   0  0  0  0  0  0  0  0  0  0  0  0
  196.3960  173.9430  145.7620 C   0  0  0  0  0  3  0  0  0  0  0  0
  194.4530  172.8770  144.9010 N   0  0  0  0  0  0  0  0  0  0  0  0
  195.1430  174.0180  145.1580 C   0  0  0  0  0  0  0  0  0  0  0  0
  196.9100  172.6930  146.1000 C   0  0  0  0  0  3  0  0  0  0  0  0
  194.9450  171.6790  145.2240 N   0  0  0  0  0  0  0  0  0  0  0  0
  196.6270  170.2670  146.1390 O   0  0  0  0  0  0  0  0  0  0  0  0
  197.7600  169.6840  145.5070 C   0  0  0  0  0  1  0  0  0  0  0  0
  1  5  1  6  0  0  0
  1  4  1  0  0  0  0
  2  3  1  0  0  0  0
  4  3  1  0  0  0  0
  6  2  2  0  0  0  0
  7  8  1  6  0  0  0
  7  1  1  0  0  0  0
  7  6  1  0  0  0  0
  9 13  1  0  0  0  0
 10  9  1  0  0  0  0
 11 14  1  0  0  0  0
 11 10  2  0  0  0  0
 12  9  2  0  0  0  0
 13  8  1  0  0  0  0
 14 15  1  1  0  0  0
 14 12  1  0  0  0  0
 15 16  1  0  0  0  0
 16 18  1  0  0  0  0
 17 18  1  0  0  0  0
 19  1  1  0  0  0  0
 20 22  1  0  0  0  0
 21 24  1  0  0  0  0
 22 26  1  0  0  0  0
 22 24  2  0  0  0  0
 23 19  1  6  0  0  0
 23 21  1  0  0  0  0
 25 20  1  0  0  0  0
 25 23  1  0  0  0  0
 27 31  1  0  0  0  0
 27  6  1  0  0  0  0
 28 32  1  0  0  0  0
 28 34  1  0  0  0  0
 29 32  2  0  0  0  0
 30 31  2  0  0  0  0
 30 33  1  0  0  0  0
 31 29  1  0  0  0  0
 33 28  2  0  0  0  0
 35 34  1  0  0  0  0
M  END
>  <MODEL>
2

>  <REMARK>
 VINA RESULT:      -6.5      4.216      8.654
  Name = 
  10 active torsions:
  status: ('A' for Active; 'I' for Inactive)
    1  A    between atoms: C_1  and  O_15
    2  A    between atoms: C_3  and  S_24
    3  A    between atoms: N_6  and  N_27
    4  A    between atoms: N_6  and  C_34
    5  A    between atoms: C_8  and  C_14
    6  A    between atoms: C_8  and  C_30
    7  A    between atoms: C_13  and  S_24
    8  A    between atoms: C_14  and  C_26
    9  A    between atoms: C_22  and  C_28
   10  A    between atoms: C_28  and  C_31
                            x       y       z     vdW  Elec       q    Type
                         _______ _______ _______ _____ _____    ______ ____

>  <TORSDO>
F 10

$$$$
=
 OpenBabel11042416573D

 35 38  0  0  1  0  0  0  0  0999 V2000
  190.2390  175.6520  145.4040 C   0  0  2  0  0  0  0  0  0  0  0  0
  192.7120  175.7250  146.9590 C   0  0  0  0  0  3  0  0  0  0  0  0
  191.3780  175.6680  147.6500 C   0  0  0  0  0  2  0  0  0  0  0  0
  190.3270  174.9800  146.7780 C   0  0  0  0  0  2  0  0  0  0  0  0
  189.2450  174.8750  144.5570 C   0  0  0  0  0  1  0  0  0  0  0  0
  192.8330  175.7650  145.6230 C   0  0  0  0  0  0  0  0  0  0  0  0
  191.6240  175.5630  144.7220 C   0  0  2  0  0  3  0  0  0  0  0  0
  191.7070  176.2560  143.4300 N   0  0  0  0  0  2  0  0  0  0  0  0
  192.8430  175.0460  141.6080 C   0  0  0  0  0  0  0  0  0  0  0  0
  192.8610  174.0550  140.5130 C   0  0  0  0  0  3  0  0  0  0  0  0
  194.3030  174.1160  140.0310 C   0  0  0  0  0  3  0  0  0  0  0  0
  193.9610  175.6490  141.8090 N   0  0  0  0  0  0  0  0  0  0  0  0
  191.6810  175.3100  142.3920 N   0  0  0  0  0  2  0  0  0  0  0  0
  194.9760  175.1960  140.8770 C   0  0  1  0  0  3  0  0  0  0  0  0
  196.1450  174.6050  141.6490 C   0  0  0  0  0  2  0  0  0  0  0  0
  197.3800  175.4890  141.5460 C   0  0  0  0  0  2  0  0  0  0  0  0
  197.0280  177.0390  143.3290 O   0  0  0  0  0  1  0  0  0  0  0  0
  197.8320  175.9780  142.9120 C   0  0  0  0  0  2  0  0  0  0  0  0
  189.6690  177.3960  145.5730 S   0  0  0  0  0  0  0  0  0  0  0  0
  187.0720  177.9020  142.4980 N   0  0  0  0  0  2  0  0  0  0  0  0
  186.9690  177.7940  145.3330 C   0  0  0  0  0  2  0  0  0  0  0  0
  185.7990  177.8780  143.1560 C   0  0  0  0  0  0  0  0  0  0  0  0
  188.1580  177.2110  144.5740 C   0  0  1  0  0  3  0  0  0  0  0  0
  185.7280  177.7770  144.4850 C   0  0  0  0  0  3  0  0  0  0  0  0
  188.3210  177.9590  143.2540 C   0  0  0  0  0  2  0  0  0  0  0  0
  184.3300  177.8580  142.2060 Cl  0  0  0  0  0  0  0  0  0  0  0  0
  194.2110  175.7650  145.0350 C   0  0  0  0  0  2  0  0  0  0  0  0
  196.1330  172.0340  145.6780 C   0  0  0  0  0  0  0  0  0  0  0  0
  196.1490  174.4360  145.8880 C   0  0  0  0  0  3  0  0  0  0  0  0
  194.3110  173.3000  144.8960 N   0  0  0  0  0  0  0  0  0  0  0  0
  194.8940  174.4640  145.2850 C   0  0  0  0  0  0  0  0  0  0  0  0
  196.7760  173.2080  146.0890 C   0  0  0  0  0  3  0  0  0  0  0  0
  194.9110  172.1230  145.0880 N   0  0  0  0  0  0  0  0  0  0  0  0
  196.7170  170.7770  145.8560 O   0  0  0  0  0  0  0  0  0  0  0  0
  197.7500  170.2830  145.0130 C   0  0  0  0  0  1  0  0  0  0  0  0
  1  5  1  6  0  0  0
  1 19  1  0  0  0  0
  1  4  1  0  0  0  0
  2  3  1  0  0  0  0
  4  3  1  0  0  0  0
  6  2  2  0  0  0  0
  7  8  1  6  0  0  0
  7  1  1  0  0  0  0
  7  6  1  0  0  0  0
  9 12  2  0  0  0  0
  9 13  1  0  0  0  0
 10  9  1  0  0  0  0
 11 10  2  0  0  0  0
 11 14  1  0  0  0  0
 13  8  1  0  0  0  0
 14 15  1  1  0  0  0
 14 12  1  0  0  0  0
 16 15  1  0  0  0  0
 16 18  1  0  0  0  0
 18 17  1  0  0  0  0
 20 22  1  0  0  0  0
 20 25  1  0  0  0  0
 22 24  2  0  0  0  0
 23 21  1  0  0  0  0
 23 19  1  1  0  0  0
 24 21  1  0  0  0  0
 25 23  1  0  0  0  0
 26 22  1  0  0  0  0
 27 31  1  0  0  0  0
 27  6  1  0  0  0  0
 28 34  1  0  0  0  0
 28 32  1  0  0  0  0
 29 32  2  0  0  0  0
 30 33  1  0  0  0  0
 30 31  2  0  0  0  0
 31 29  1  0  0  0  0
 33 28  2  0  0  0  0
 35 34  1  0  0  0  0
M  END
>  <MODEL>
3

>  <REMARK>
 VINA RESULT:      -6.5      3.999      8.463
  Name = 
  10 active torsions:
  status: ('A' for Active; 'I' for Inactive)
    1  A    between atoms: C_1  and  O_15
    2  A    between atoms: C_3  and  S_24
    3  A    between atoms: N_6  and  N_27
    4  A    between atoms: N_6  and  C_34
    5  A    between atoms: C_8  and  C_14
    6  A    between atoms: C_8  and  C_30
    7  A    between atoms: C_13  and  S_24
    8  A    between atoms: C_14  and  C_26
    9  A    between atoms: C_22  and  C_28
   10  A    between atoms: C_28  and  C_31
                            x       y       z     vdW  Elec       q    Type
                         _______ _______ _______ _____ _____    ______ ____

>  <TORSDO>
F 10

$$$$
=
 OpenBabel11042416573D

 35 38  0  0  1  0  0  0  0  0999 V2000
  190.7620  175.5160  145.4540 C   0  0  2  0  0  0  0  0  0  0  0  0
  193.4800  175.8400  146.4770 C   0  0  0  0  0  3  0  0  0  0  0  0
  192.2950  176.1650  147.3430 C   0  0  0  0  0  2  0  0  0  0  0  0
  191.0710  175.3420  146.9440 C   0  0  0  0  0  2  0  0  0  0  0  0
  189.5940  174.6120  145.0990 C   0  0  0  0  0  1  0  0  0  0  0  0
  193.3550  175.4140  145.2100 C   0  0  0  0  0  0  0  0  0  0  0  0
  191.9920  175.0520  144.6380 C   0  0  2  0  0  3  0  0  0  0  0  0
  191.8680  175.2560  143.1890 N   0  0  0  0  0  2  0  0  0  0  0  0
  190.9200  173.5000  141.7440 C   0  0  0  0  0  0  0  0  0  0  0  0
  191.0070  172.2090  141.0320 C   0  0  0  0  0  3  0  0  0  0  0  0
  189.6640  172.1290  140.3200 C   0  0  0  0  0  3  0  0  0  0  0  0
  189.8080  174.1290  141.5890 N   0  0  0  0  0  0  0  0  0  0  0  0
  191.9870  174.0200  142.5330 N   0  0  0  0  0  2  0  0  0  0  0  0
  188.8980  173.3830  140.7420 C   0  0  1  0  0  3  0  0  0  0  0  0
  188.5440  174.2160  139.5200 C   0  0  0  0  0  2  0  0  0  0  0  0
  188.5140  173.3650  138.2590 C   0  0  0  0  0  2  0  0  0  0  0  0
  187.8170  175.1660  136.8520 O   0  0  0  0  0  1  0  0  0  0  0  0
  188.8040  174.1940  137.0190 C   0  0  0  0  0  2  0  0  0  0  0  0
  190.3160  177.2660  145.0860 S   0  0  0  0  0  0  0  0  0  0  0  0
  186.3170  177.8780  144.7980 N   0  0  0  0  0  2  0  0  0  0  0  0
  188.2540  177.6140  146.8560 C   0  0  0  0  0  2  0  0  0  0  0  0
  185.8870  177.7890  146.1630 C   0  0  0  0  0  0  0  0  0  0  0  0
  188.5400  177.1010  145.4470 C   0  0  1  0  0  3  0  0  0  0  0  0
  186.7780  177.6140  147.1410 C   0  0  0  0  0  3  0  0  0  0  0  0
  187.7340  177.9220  144.4450 C   0  0  0  0  0  2  0  0  0  0  0  0
  184.1780  177.7860  146.5370 Cl  0  0  0  0  0  0  0  0  0  0  0  0
  194.5990  175.0670  144.4520 C   0  0  0  0  0  2  0  0  0  0  0  0
  196.3210  171.4940  145.9690 C   0  0  0  0  0  0  0  0  0  0  0  0
  194.4720  172.6090  144.8950 C   0  0  0  0  0  3  0  0  0  0  0  0
  196.4290  173.8030  145.5290 N   0  0  0  0  0  0  0  0  0  0  0  0
  195.1940  173.7990  144.9630 C   0  0  0  0  0  0  0  0  0  0  0  0
  195.0420  171.4430  145.4020 C   0  0  0  0  0  3  0  0  0  0  0  0
  196.9750  172.6850  146.0140 N   0  0  0  0  0  0  0  0  0  0  0  0
  196.9380  170.3550  146.4910 O   0  0  0  0  0  0  0  0  0  0  0  0
  196.2350  169.1440  146.7350 C   0  0  0  0  0  1  0  0  0  0  0  0
  1  5  1  6  0  0  0
  1  4  1  0  0  0  0
  2  3  1  0  0  0  0
  4  3  1  0  0  0  0
  6  2  2  0  0  0  0
  7  8  1  6  0  0  0
  7  6  1  0  0  0  0
  7  1  1  0  0  0  0
  9 13  1  0  0  0  0
 10  9  1  0  0  0  0
 11 14  1  0  0  0  0
 11 10  2  0  0  0  0
 12  9  2  0  0  0  0
 13  8  1  0  0  0  0
 14 15  1  6  0  0  0
 14 12  1  0  0  0  0
 16 15  1  0  0  0  0
 17 18  1  0  0  0  0
 18 16  1  0  0  0  0
 19  1  1  0  0  0  0
 20 22  1  0  0  0  0
 21 24  1  0  0  0  0
 22 26  1  0  0  0  0
 22 24  2  0  0  0  0
 23 19  1  6  0  0  0
 23 21  1  0  0  0  0
 25 20  1  0  0  0  0
 25 23  1  0  0  0  0
 27 31  1  0  0  0  0
 27  6  1  0  0  0  0
 28 33  2  0  0  0  0
 28 34  1  0  0  0  0
 29 31  1  0  0  0  0
 29 32  2  0  0  0  0
 30 33  1  0  0  0  0
 31 30  2  0  0  0  0
 32 28  1  0  0  0  0
 34 35  1  0  0  0  0
M  END
>  <MODEL>
4

>  <REMARK>
 VINA RESULT:      -6.3      3.653      9.147
  Name = 
  10 active torsions:
  status: ('A' for Active; 'I' for Inactive)
    1  A    between atoms: C_1  and  O_15
    2  A    between atoms: C_3  and  S_24
    3  A    between atoms: N_6  and  N_27
    4  A    between atoms: N_6  and  C_34
    5  A    between atoms: C_8  and  C_14
    6  A    between atoms: C_8  and  C_30
    7  A    between atoms: C_13  and  S_24
    8  A    between atoms: C_14  and  C_26
    9  A    between atoms: C_22  and  C_28
   10  A    between atoms: C_28  and  C_31
                            x       y       z     vdW  Elec       q    Type
                         _______ _______ _______ _____ _____    ______ ____

>  <TORSDO>
F 10

$$$$
=
 OpenBabel11042416573D

 35 38  0  0  1  0  0  0  0  0999 V2000
  189.9980  174.6480  143.0120 C   0  0  2  0  0  0  0  0  0  0  0  0
  188.1170  175.5500  140.9650 C   0  0  0  0  0  3  0  0  0  0  0  0
  188.5040  174.1000  141.0610 C   0  0  0  0  0  2  0  0  0  0  0  0
  188.8970  173.7200  142.4880 C   0  0  0  0  0  2  0  0  0  0  0  0
  190.2860  174.2790  144.4570 C   0  0  0  0  0  1  0  0  0  0  0  0
  188.6200  176.4870  141.7830 C   0  0  0  0  0  0  0  0  0  0  0  0
  189.4720  176.1030  142.9840 C   0  0  2  0  0  3  0  0  0  0  0  0
  190.4650  177.1120  143.3720 N   0  0  0  0  0  2  0  0  0  0  0  0
  189.3720  177.4470  145.5550 C   0  0  0  0  0  0  0  0  0  0  0  0
  189.4000  177.5210  147.0300 C   0  0  0  0  0  3  0  0  0  0  0  0
  187.9420  177.7770  147.3790 C   0  0  0  0  0  3  0  0  0  0  0  0
  188.2140  177.6310  145.0270 N   0  0  0  0  0  0  0  0  0  0  0  0
  190.5350  177.1820  144.7730 N   0  0  0  0  0  2  0  0  0  0  0  0
  187.2090  177.8800  146.0420 C   0  0  1  0  0  3  0  0  0  0  0  0
  186.1250  176.8180  145.9540 C   0  0  0  0  0  2  0  0  0  0  0  0
  184.9310  177.1700  146.8310 C   0  0  0  0  0  2  0  0  0  0  0  0
  183.7030  178.7910  145.5780 O   0  0  0  0  0  1  0  0  0  0  0  0
  184.5410  178.6310  146.6820 C   0  0  0  0  0  2  0  0  0  0  0  0
  191.5340  174.4560  142.0130 S   0  0  0  0  0  0  0  0  0  0  0  0
  194.6140  175.5020  144.4370 N   0  0  0  0  0  2  0  0  0  0  0  0
  193.5130  173.1180  143.3560 C   0  0  0  0  0  2  0  0  0  0  0  0
  195.1020  174.2320  144.8890 C   0  0  0  0  0  0  0  0  0  0  0  0
  192.6850  174.3990  143.4230 C   0  0  1  0  0  3  0  0  0  0  0  0
  194.5640  173.0990  144.4310 C   0  0  0  0  0  3  0  0  0  0  0  0
  193.6220  175.6020  143.3690 C   0  0  0  0  0  2  0  0  0  0  0  0
  196.3250  174.1650  146.1390 Cl  0  0  0  0  0  0  0  0  0  0  0  0
  188.1270  177.8940  141.6380 C   0  0  0  0  0  2  0  0  0  0  0  0
  183.9180  177.9170  141.0740 C   0  0  0  0  0  0  0  0  0  0  0  0
  185.8070  177.9160  142.5720 C   0  0  0  0  0  3  0  0  0  0  0  0
  186.1070  177.9140  140.2130 N   0  0  0  0  0  0  0  0  0  0  0  0
  186.6470  177.9200  141.4600 C   0  0  0  0  0  0  0  0  0  0  0  0
  184.4280  177.9170  142.3780 C   0  0  0  0  0  3  0  0  0  0  0  0
  184.7850  177.9150  140.0270 N   0  0  0  0  0  0  0  0  0  0  0  0
  182.5430  177.9190  140.8230 O   0  0  0  0  0  0  0  0  0  0  0  0
  181.6140  178.6180  141.6400 C   0  0  0  0  0  1  0  0  0  0  0  0
  1  5  1  1  0  0  0
  2  3  1  0  0  0  0
  2  6  2  0  0  0  0
  3  4  1  0  0  0  0
  4  1  1  0  0  0  0
  6  7  1  0  0  0  0
  7  1  1  0  0  0  0
  7  8  1  6  0  0  0
  8 13  1  0  0  0  0
  9 10  1  0  0  0  0
 10 11  2  0  0  0  0
 12  9  2  0  0  0  0
 12 14  1  0  0  0  0
 13  9  1  0  0  0  0
 14 15  1  1  0  0  0
 14 11  1  0  0  0  0
 15 16  1  0  0  0  0
 17 18  1  0  0  0  0
 18 16  1  0  0  0  0
 19  1  1  0  0  0  0
 20 22  1  0  0  0  0
 21 23  1  0  0  0  0
 21 24  1  0  0  0  0
 22 26  1  0  0  0  0
 23 19  1  6  0  0  0
 24 22  2  0  0  0  0
 25 23  1  0  0  0  0
 25 20  1  0  0  0  0
 27  6  1  0  0  0  0
 28 32  1  0  0  0  0
 30 31  2  0  0  0  0
 31 27  1  0  0  0  0
 31 29  1  0  0  0  0
 32 29  2  0  0  0  0
 33 30  1  0  0  0  0
 33 28  2  0  0  0  0
 34 28  1  0  0  0  0
 34 35  1  0  0  0  0
M  END
>  <MODEL>
5

>  <REMARK>
 VINA RESULT:      -6.3      2.812      4.356
  Name = 
  10 active torsions:
  status: ('A' for Active; 'I' for Inactive)
    1  A    between atoms: C_1  and  O_15
    2  A    between atoms: C_3  and  S_24
    3  A    between atoms: N_6  and  N_27
    4  A    between atoms: N_6  and  C_34
    5  A    between atoms: C_8  and  C_14
    6  A    between atoms: C_8  and  C_30
    7  A    between atoms: C_13  and  S_24
    8  A    between atoms: C_14  and  C_26
    9  A    between atoms: C_22  and  C_28
   10  A    between atoms: C_28  and  C_31
                            x       y       z     vdW  Elec       q    Type
                         _______ _______ _______ _____ _____    ______ ____

>  <TORSDO>
F 10

$$$$
=
 OpenBabel11042416573D

 35 38  0  0  1  0  0  0  0  0999 V2000
  191.2730  175.7550  142.7030 C   0  0  2  0  0  0  0  0  0  0  0  0
  189.7450  178.2100  143.1240 C   0  0  0  0  0  3  0  0  0  0  0  0
  191.1560  178.0930  143.6300 C   0  0  0  0  0  2  0  0  0  0  0  0
  191.9720  177.1160  142.7850 C   0  0  0  0  0  2  0  0  0  0  0  0
  192.0840  174.8570  141.7840 C   0  0  0  0  0  1  0  0  0  0  0  0
  189.1210  177.2080  142.4850 C   0  0  0  0  0  0  0  0  0  0  0  0
  189.8760  175.9560  142.0670 C   0  0  2  0  0  3  0  0  0  0  0  0
  189.0550  174.7400  142.0160 N   0  0  0  0  0  2  0  0  0  0  0  0
  188.9870  173.7440  139.7630 C   0  0  0  0  0  0  0  0  0  0  0  0
  188.3890  173.5940  138.4220 C   0  0  0  0  0  3  0  0  0  0  0  0
  189.2650  172.5270  137.7820 C   0  0  0  0  0  3  0  0  0  0  0  0
  190.0150  173.0020  139.9830 N   0  0  0  0  0  0  0  0  0  0  0  0
  188.4620  174.6320  140.7480 N   0  0  0  0  0  2  0  0  0  0  0  0
  190.3370  172.1960  138.8210 C   0  0  1  0  0  3  0  0  0  0  0  0
  190.2710  170.7220  139.1920 C   0  0  0  0  0  2  0  0  0  0  0  0
  191.4310  170.3260  140.0950 C   0  0  0  0  0  2  0  0  0  0  0  0
  190.4360  170.5470  142.2550 O   0  0  0  0  0  1  0  0  0  0  0  0
  190.9460  169.6180  141.3490 C   0  0  0  0  0  2  0  0  0  0  0  0
  191.1610  174.9840  144.3720 S   0  0  0  0  0  0  0  0  0  0  0  0
  194.6100  173.0360  145.2500 N   0  0  0  0  0  2  0  0  0  0  0  0
  193.4880  175.6100  145.6760 C   0  0  0  0  0  2  0  0  0  0  0  0
  195.4250  174.0770  145.8040 C   0  0  0  0  0  0  0  0  0  0  0  0
  192.9470  174.6950  144.5800 C   0  0  1  0  0  3  0  0  0  0  0  0
  194.9320  175.3070  145.9660 C   0  0  0  0  0  3  0  0  0  0  0  0
  193.1890  173.2430  144.9780 C   0  0  0  0  0  2  0  0  0  0  0  0
  197.1110  173.7670  146.1550 Cl  0  0  0  0  0  0  0  0  0  0  0  0
  187.7330  177.4480  141.9750 C   0  0  0  0  0  2  0  0  0  0  0  0
  185.1490  178.3880  145.2110 C   0  0  0  0  0  0  0  0  0  0  0  0
  186.1970  179.0410  143.1400 C   0  0  0  0  0  3  0  0  0  0  0  0
  186.5830  176.8960  144.0920 N   0  0  0  0  0  0  0  0  0  0  0  0
  186.8090  177.7890  143.0930 C   0  0  0  0  0  0  0  0  0  0  0  0
  185.3570  179.3430  144.2090 C   0  0  0  0  0  3  0  0  0  0  0  0
  185.7770  177.1850  145.1160 N   0  0  0  0  0  0  0  0  0  0  0  0
  184.3150  178.6390  146.3030 O   0  0  0  0  0  0  0  0  0  0  0  0
  184.6790  178.3140  147.6380 C   0  0  0  0  0  1  0  0  0  0  0  0
  1  5  1  6  0  0  0
  1  4  1  0  0  0  0
  1 19  1  0  0  0  0
  2  3  1  0  0  0  0
  4  3  1  0  0  0  0
  6  2  2  0  0  0  0
  7  8  1  1  0  0  0
  7  6  1  0  0  0  0
  7  1  1  0  0  0  0
  9 12  2  0  0  0  0
  9 13  1  0  0  0  0
 10  9  1  0  0  0  0
 11 10  2  0  0  0  0
 11 14  1  0  0  0  0
 13  8  1  0  0  0  0
 14 15  1  1  0  0  0
 14 12  1  0  0  0  0
 15 16  1  0  0  0  0
 16 18  1  0  0  0  0
 18 17  1  0  0  0  0
 20 22  1  0  0  0  0
 21 24  1  0  0  0  0
 22 24  2  0  0  0  0
 22 26  1  0  0  0  0
 23 19  1  1  0  0  0
 23 25  1  0  0  0  0
 23 21  1  0  0  0  0
 25 20  1  0  0  0  0
 27  6  1  0  0  0  0
 27 31  1  0  0  0  0
 28 34  1  0  0  0  0
 29 32  2  0  0  0  0
 30 33  1  0  0  0  0
 31 29  1  0  0  0  0
 31 30  2  0  0  0  0
 32 28  1  0  0  0  0
 33 28  2  0  0  0  0
 34 35  1  0  0  0  0
M  END
>  <MODEL>
6

>  <REMARK>
 VINA RESULT:      -6.2      2.717      5.303
  Name = 
  10 active torsions:
  status: ('A' for Active; 'I' for Inactive)
    1  A    between atoms: C_1  and  O_15
    2  A    between atoms: C_3  and  S_24
    3  A    between atoms: N_6  and  N_27
    4  A    between atoms: N_6  and  C_34
    5  A    between atoms: C_8  and  C_14
    6  A    between atoms: C_8  and  C_30
    7  A    between atoms: C_13  and  S_24
    8  A    between atoms: C_14  and  C_26
    9  A    between atoms: C_22  and  C_28
   10  A    between atoms: C_28  and  C_31
                            x       y       z     vdW  Elec       q    Type
                         _______ _______ _______ _____ _____    ______ ____

>  <TORSDO>
F 10

$$$$
=
 OpenBabel11042416573D

 35 38  0  0  1  0  0  0  0  0999 V2000
  190.1140  172.7390  141.6060 C   0  0  2  0  0  0  0  0  0  0  0  0
  188.4890  174.8900  142.7350 C   0  0  0  0  0  3  0  0  0  0  0  0
  187.8670  173.8500  141.8440 C   0  0  0  0  0  2  0  0  0  0  0  0
  188.6280  172.5270  141.9150 C   0  0  0  0  0  2  0  0  0  0  0  0
  190.8310  171.4100  141.7750 C   0  0  0  0  0  1  0  0  0  0  0  0
  189.7980  174.8960  143.0340 C   0  0  0  0  0  0  0  0  0  0  0  0
  190.6960  173.7330  142.6390 C   0  0  2  0  0  3  0  0  0  0  0  0
  192.0970  174.1020  142.4000 N   0  0  0  0  0  2  0  0  0  0  0  0
  193.8860  174.2820  144.0840 C   0  0  0  0  0  0  0  0  0  0  0  0
  194.7520  173.7070  145.1330 C   0  0  0  0  0  3  0  0  0  0  0  0
  195.5720  174.9080  145.5840 C   0  0  0  0  0  3  0  0  0  0  0  0
  194.0750  175.5340  143.8530 N   0  0  0  0  0  0  0  0  0  0  0  0
  192.9070  173.5160  143.3860 N   0  0  0  0  0  2  0  0  0  0  0  0
  195.1250  176.0690  144.6970 C   0  0  1  0  0  3  0  0  0  0  0  0
  194.5650  177.1960  145.5510 C   0  0  0  0  0  2  0  0  0  0  0  0
  194.0630  176.6780  146.8920 C   0  0  0  0  0  2  0  0  0  0  0  0
  192.2500  175.1620  147.2410 O   0  0  0  0  0  1  0  0  0  0  0  0
  192.5570  176.4750  146.8840 C   0  0  0  0  0  2  0  0  0  0  0  0
  190.3350  173.3390  139.8780 S   0  0  0  0  0  0  0  0  0  0  0  0
  192.0600  170.5210  137.5250 N   0  0  0  0  0  2  0  0  0  0  0  0
  189.4420  171.2510  138.3450 C   0  0  0  0  0  2  0  0  0  0  0  0
  190.9550  169.6690  137.1950 C   0  0  0  0  0  0  0  0  0  0  0  0
  190.6630  171.7080  139.1390 C   0  0  1  0  0  3  0  0  0  0  0  0
  189.7240  169.9680  137.6140 C   0  0  0  0  0  3  0  0  0  0  0  0
  191.8620  171.8010  138.2000 C   0  0  0  0  0  2  0  0  0  0  0  0
  191.2400  168.1670  136.3440 Cl  0  0  0  0  0  0  0  0  0  0  0  0
  190.3060  175.9450  143.9740 C   0  0  0  0  0  2  0  0  0  0  0  0
  187.1680  177.2860  146.5020 C   0  0  0  0  0  0  0  0  0  0  0  0
  188.9450  175.7180  146.0600 C   0  0  0  0  0  3  0  0  0  0  0  0
  188.4690  177.4950  144.5530 N   0  0  0  0  0  0  0  0  0  0  0  0
  189.2200  176.4110  144.8840 C   0  0  0  0  0  0  0  0  0  0  0  0
  187.9100  176.1600  146.8800 C   0  0  0  0  0  3  0  0  0  0  0  0
  187.4770  177.9200  145.3390 N   0  0  0  0  0  0  0  0  0  0  0  0
  186.1200  177.7720  147.2880 O   0  0  0  0  0  0  0  0  0  0  0  0
  184.8060  177.9640  146.7830 C   0  0  0  0  0  1  0  0  0  0  0  0
  1  5  1  1  0  0  0
  1  4  1  0  0  0  0
  1  7  1  0  0  0  0
  2  6  2  0  0  0  0
  3  4  1  0  0  0  0
  3  2  1  0  0  0  0
  6 27  1  0  0  0  0
  7  8  1  6  0  0  0
  7  6  1  0  0  0  0
  8 13  1  0  0  0  0
  9 10  1  0  0  0  0
 10 11  2  0  0  0  0
 12  9  2  0  0  0  0
 12 14  1  0  0  0  0
 13  9  1  0  0  0  0
 14 15  1  1  0  0  0
 14 11  1  0  0  0  0
 15 16  1  0  0  0  0
 18 16  1  0  0  0  0
 18 17  1  0  0  0  0
 19  1  1  0  0  0  0
 20 25  1  0  0  0  0
 21 23  1  0  0  0  0
 22 20  1  0  0  0  0
 22 24  2  0  0  0  0
 23 19  1  6  0  0  0
 24 21  1  0  0  0  0
 25 23  1  0  0  0  0
 26 22  1  0  0  0  0
 27 31  1  0  0  0  0
 28 32  1  0  0  0  0
 28 34  1  0  0  0  0
 29 32  2  0  0  0  0
 30 31  2  0  0  0  0
 30 33  1  0  0  0  0
 31 29  1  0  0  0  0
 33 28  2  0  0  0  0
 35 34  1  0  0  0  0
M  END
>  <MODEL>
7

>  <REMARK>
 VINA RESULT:      -6.1      3.284      4.404
  Name = 
  10 active torsions:
  status: ('A' for Active; 'I' for Inactive)
    1  A    between atoms: C_1  and  O_15
    2  A    between atoms: C_3  and  S_24
    3  A    between atoms: N_6  and  N_27
    4  A    between atoms: N_6  and  C_34
    5  A    between atoms: C_8  and  C_14
    6  A    between atoms: C_8  and  C_30
    7  A    between atoms: C_13  and  S_24
    8  A    between atoms: C_14  and  C_26
    9  A    between atoms: C_22  and  C_28
   10  A    between atoms: C_28  and  C_31
                            x       y       z     vdW  Elec       q    Type
                         _______ _______ _______ _____ _____    ______ ____

>  <TORSDO>
F 10

$$$$
=
 OpenBabel11042416573D

 35 38  0  0  1  0  0  0  0  0999 V2000
  190.8320  175.1220  145.7790 C   0  0  2  0  0  0  0  0  0  0  0  0
  190.2660  174.1790  143.0720 C   0  0  0  0  0  3  0  0  0  0  0  0
  191.5800  173.8640  143.7310 C   0  0  0  0  0  2  0  0  0  0  0  0
  191.4450  173.8210  145.2520 C   0  0  0  0  0  2  0  0  0  0  0  0
  190.6440  174.9880  147.2810 C   0  0  0  0  0  1  0  0  0  0  0  0
  189.3140  174.9110  143.6720 C   0  0  0  0  0  0  0  0  0  0  0  0
  189.4370  175.3060  145.1350 C   0  0  2  0  0  3  0  0  0  0  0  0
  188.7730  176.5690  145.4810 N   0  0  0  0  0  2  0  0  0  0  0  0
  186.4470  177.2590  145.9150 C   0  0  0  0  0  0  0  0  0  0  0  0
  185.0900  177.0100  146.4390 C   0  0  0  0  0  3  0  0  0  0  0  0
  184.3510  178.2900  146.0760 C   0  0  0  0  0  3  0  0  0  0  0  0
  186.6110  178.4100  145.3630 N   0  0  0  0  0  0  0  0  0  0  0  0
  187.4960  176.2970  146.0000 N   0  0  0  0  0  2  0  0  0  0  0  0
  185.3910  179.1910  145.4090 C   0  0  1  0  0  3  0  0  0  0  0  0
  184.9550  179.5370  143.9940 C   0  0  0  0  0  2  0  0  0  0  0  0
  184.2060  178.3800  143.3470 C   0  0  0  0  0  2  0  0  0  0  0  0
  184.1590  178.2630  140.9620 O   0  0  0  0  0  1  0  0  0  0  0  0
  184.9020  177.9000  142.0850 C   0  0  0  0  0  2  0  0  0  0  0  0
  191.9420  176.5500  145.4260 S   0  0  0  0  0  0  0  0  0  0  0  0
  195.5740  174.9280  146.2200 N   0  0  0  0  0  2  0  0  0  0  0  0
  194.2580  176.1480  144.0200 C   0  0  0  0  0  2  0  0  0  0  0  0
  196.2030  174.9220  144.9320 C   0  0  0  0  0  0  0  0  0  0  0  0
  193.4580  175.5710  145.1840 C   0  0  1  0  0  3  0  0  0  0  0  0
  195.5790  175.4450  143.8740 C   0  0  0  0  0  3  0  0  0  0  0  0
  194.3100  175.6230  146.4490 C   0  0  0  0  0  2  0  0  0  0  0  0
  197.7400  174.1150  144.7190 Cl  0  0  0  0  0  0  0  0  0  0  0  0
  188.0190  175.1200  142.9480 C   0  0  0  0  0  2  0  0  0  0  0  0
  188.2200  173.4570  139.0460 C   0  0  0  0  0  0  0  0  0  0  0  0
  188.0580  173.1330  141.4300 C   0  0  0  0  0  3  0  0  0  0  0  0
  188.1650  175.3150  140.4880 N   0  0  0  0  0  0  0  0  0  0  0  0
  188.0700  174.5180  141.5850 C   0  0  0  0  0  0  0  0  0  0  0  0
  188.1310  172.5960  140.1470 C   0  0  0  0  0  3  0  0  0  0  0  0
  188.2340  174.8000  139.2590 N   0  0  0  0  0  0  0  0  0  0  0  0
  188.2950  172.9710  137.7380 O   0  0  0  0  0  0  0  0  0  0  0  0
  189.3250  173.3500  136.8360 C   0  0  0  0  0  1  0  0  0  0  0  0
  1  5  1  1  0  0  0
  2  6  2  0  0  0  0
  2  3  1  0  0  0  0
  3  4  1  0  0  0  0
  4  1  1  0  0  0  0
  6  7  1  0  0  0  0
  7  8  1  6  0  0  0
  7  1  1  0  0  0  0
  8 13  1  0  0  0  0
  9 13  1  0  0  0  0
  9 10  1  0  0  0  0
 11 10  2  0  0  0  0
 12 14  1  0  0  0  0
 12  9  2  0  0  0  0
 14 15  1  6  0  0  0
 14 11  1  0  0  0  0
 16 15  1  0  0  0  0
 17 18  1  0  0  0  0
 18 16  1  0  0  0  0
 19  1  1  0  0  0  0
 20 25  1  0  0  0  0
 21 23  1  0  0  0  0
 22 20  1  0  0  0  0
 23 19  1  1  0  0  0
 23 25  1  0  0  0  0
 24 21  1  0  0  0  0
 24 22  2  0  0  0  0
 26 22  1  0  0  0  0
 27  6  1  0  0  0  0
 28 33  2  0  0  0  0
 28 32  1  0  0  0  0
 29 31  1  0  0  0  0
 30 31  2  0  0  0  0
 31 27  1  0  0  0  0
 32 29  2  0  0  0  0
 33 30  1  0  0  0  0
 34 28  1  0  0  0  0
 35 34  1  0  0  0  0
M  END
>  <MODEL>
8

>  <REMARK>
 VINA RESULT:      -6.1      2.954      6.391
  Name = 
  10 active torsions:
  status: ('A' for Active; 'I' for Inactive)
    1  A    between atoms: C_1  and  O_15
    2  A    between atoms: C_3  and  S_24
    3  A    between atoms: N_6  and  N_27
    4  A    between atoms: N_6  and  C_34
    5  A    between atoms: C_8  and  C_14
    6  A    between atoms: C_8  and  C_30
    7  A    between atoms: C_13  and  S_24
    8  A    between atoms: C_14  and  C_26
    9  A    between atoms: C_22  and  C_28
   10  A    between atoms: C_28  and  C_31
                            x       y       z     vdW  Elec       q    Type
                         _______ _______ _______ _____ _____    ______ ____

>  <TORSDO>
F 10

$$$$
=
 OpenBabel11042416573D

 35 38  0  0  1  0  0  0  0  0999 V2000
  189.1410  175.8580  144.8490 C   0  0  2  0  0  0  0  0  0  0  0  0
  190.6780  176.4500  147.2630 C   0  0  0  0  0  3  0  0  0  0  0  0
  189.3580  177.1270  147.0130 C   0  0  0  0  0  2  0  0  0  0  0  0
  188.4410  176.2590  146.1520 C   0  0  0  0  0  2  0  0  0  0  0  0
  188.2170  174.9300  144.0770 C   0  0  0  0  0  1  0  0  0  0  0  0
  191.2160  175.5750  146.4000 C   0  0  0  0  0  0  0  0  0  0  0  0
  190.4260  175.0710  145.2020 C   0  0  2  0  0  3  0  0  0  0  0  0
  191.2480  174.7060  144.0420 N   0  0  0  0  0  2  0  0  0  0  0  0
  190.8870  172.6480  142.7340 C   0  0  0  0  0  0  0  0  0  0  0  0
  190.9330  171.1810  142.5720 C   0  0  0  0  0  3  0  0  0  0  0  0
  190.4410  170.9870  141.1450 C   0  0  0  0  0  3  0  0  0  0  0  0
  190.4540  173.2920  141.7080 N   0  0  0  0  0  0  0  0  0  0  0  0
  191.3000  173.3060  143.9300 N   0  0  0  0  0  2  0  0  0  0  0  0
  190.1030  172.3870  140.6310 C   0  0  1  0  0  3  0  0  0  0  0  0
  190.9400  172.7100  139.4030 C   0  0  0  0  0  2  0  0  0  0  0  0
  190.1600  173.5590  138.4090 C   0  0  0  0  0  2  0  0  0  0  0  0
  188.0410  174.5420  138.9120 O   0  0  0  0  0  1  0  0  0  0  0  0
  188.6620  173.3470  138.5480 C   0  0  0  0  0  2  0  0  0  0  0  0
  189.5080  177.3460  143.8270 S   0  0  0  0  0  0  0  0  0  0  0  0
  186.9230  177.9080  140.7520 N   0  0  0  0  0  2  0  0  0  0  0  0
  186.9530  178.2990  143.5640 C   0  0  0  0  0  2  0  0  0  0  0  0
  185.7140  178.2820  141.4230 C   0  0  0  0  0  0  0  0  0  0  0  0
  187.9420  177.3450  142.8990 C   0  0  1  0  0  3  0  0  0  0  0  0
  185.6940  178.4220  142.7510 C   0  0  0  0  0  3  0  0  0  0  0  0
  188.1930  177.8050  141.4670 C   0  0  0  0  0  2  0  0  0  0  0  0
  184.2270  178.4370  140.5150 Cl  0  0  0  0  0  0  0  0  0  0  0  0
  192.5090  174.9170  146.7710 C   0  0  0  0  0  2  0  0  0  0  0  0
  195.6700  176.3420  144.3180 C   0  0  0  0  0  0  0  0  0  0  0  0
  193.9070  176.7990  145.8970 C   0  0  0  0  0  3  0  0  0  0  0  0
  194.3570  174.5820  145.1630 N   0  0  0  0  0  0  0  0  0  0  0  0
  193.6270  175.4340  145.9290 C   0  0  0  0  0  0  0  0  0  0  0  0
  194.9400  177.2580  145.0850 C   0  0  0  0  0  3  0  0  0  0  0  0
  195.3470  175.0230  144.3840 N   0  0  0  0  0  0  0  0  0  0  0  0
  196.7160  176.7490  143.4870 O   0  0  0  0  0  0  0  0  0  0  0  0
  196.6040  176.7850  142.0710 C   0  0  0  0  0  1  0  0  0  0  0  0
  1  5  1  6  0  0  0
  1  7  1  0  0  0  0
  1  4  1  0  0  0  0
  3  2  1  0  0  0  0
  4  3  1  0  0  0  0
  6 27  1  0  0  0  0
  6  2  2  0  0  0  0
  7  8  1  6  0  0  0
  7  6  1  0  0  0  0
  9 13  1  0  0  0  0
 10  9  1  0  0  0  0
 11 10  2  0  0  0  0
 12  9  2  0  0  0  0
 13  8  1  0  0  0  0
 14 15  1  6  0  0  0
 14 11  1  0  0  0  0
 14 12  1  0  0  0  0
 16 18  1  0  0  0  0
 16 15  1  0  0  0  0
 18 17  1  0  0  0  0
 19  1  1  0  0  0  0
 20 22  1  0  0  0  0
 20 25  1  0  0  0  0
 22 24  2  0  0  0  0
 23 21  1  0  0  0  0
 23 19  1  1  0  0  0
 24 21  1  0  0  0  0
 25 23  1  0  0  0  0
 26 22  1  0  0  0  0
 28 33  2  0  0  0  0
 28 32  1  0  0  0  0
 29 31  1  0  0  0  0
 30 31  2  0  0  0  0
 31 27  1  0  0  0  0
 32 29  2  0  0  0  0
 33 30  1  0  0  0  0
 34 28  1  0  0  0  0
 35 34  1  0  0  0  0
M  END
>  <MODEL>
9

>  <REMARK>
 VINA RESULT:      -6.1      3.541      8.419
  Name = 
  10 active torsions:
  status: ('A' for Active; 'I' for Inactive)
    1  A    between atoms: C_1  and  O_15
    2  A    between atoms: C_3  and  S_24
    3  A    between atoms: N_6  and  N_27
    4  A    between atoms: N_6  and  C_34
    5  A    between atoms: C_8  and  C_14
    6  A    between atoms: C_8  and  C_30
    7  A    between atoms: C_13  and  S_24
    8  A    between atoms: C_14  and  C_26
    9  A    between atoms: C_22  and  C_28
   10  A    between atoms: C_28  and  C_31
                            x       y       z     vdW  Elec       q    Type
                         _______ _______ _______ _____ _____    ______ ____

>  <TORSDO>
F 10

$$$$
