=
 OpenBabel11042417023D

 44 47  0  0  1  0  0  0  0  0999 V2000
  187.8100  176.1930  141.1530 C   0  0  0  0  0  3  0  0  0  0  0  0
  189.0590  174.8260  143.2780 C   0  0  0  0  0  0  0  0  0  0  0  0
  188.4560  174.8710  140.7770 C   0  0  0  0  0  3  0  0  0  0  0  0
  188.4770  175.9950  143.5160 C   0  0  0  0  0  3  0  0  0  0  0  0
  189.0750  174.2180  141.9740 C   0  0  0  0  0  0  0  0  0  0  0  0
  187.8110  176.7120  142.4000 C   0  0  0  0  0  0  0  0  0  0  0  0
  189.6920  173.0500  142.0690 C   0  0  0  0  0  0  0  0  0  0  0  0
  190.1490  172.8630  143.4670 C   0  0  0  0  0  0  0  0  0  0  0  0
  189.7560  173.9270  144.1830 C   0  0  1  0  0  3  0  0  0  0  0  0
  189.9300  172.1860  140.9500 N   0  0  0  0  0  2  0  0  0  0  0  0
  191.1440  172.1220  140.1980 C   0  0  0  0  0  0  0  0  0  0  0  0
  192.2150  172.6080  140.6590 O   0  0  0  0  0  0  0  0  0  0  0  0
  190.6750  169.9600  139.0510 C   0  0  0  0  0  2  0  0  0  0  0  0
  189.7180  169.6910  137.9040 C   0  0  0  0  0  2  0  0  0  0  0  0
  190.2130  172.0480  137.9020 C   0  0  0  0  0  2  0  0  0  0  0  0
  191.1490  171.3950  138.8940 C   0  0  0  0  0  3  0  0  0  0  0  0
  189.7390  170.9210  137.0180 C   0  0  0  0  0  2  0  0  0  0  0  0
  192.1990  171.8890  144.2210 O   0  0  0  0  0  0  0  0  0  0  0  0
  190.9810  171.7440  143.9400 C   0  0  0  0  0  3  0  0  0  0  0  0
  190.0740  174.2630  145.9160 S   0  0  0  0  0  0  0  0  0  0  0  0
  191.4550  175.3770  145.5200 C   0  0  0  0  0  2  0  0  0  0  0  0
  192.5540  175.2300  146.5560 C   0  0  0  0  0  2  0  0  0  0  0  0
  193.8540  174.8140  145.8910 C   0  0  0  0  0  2  0  0  0  0  0  0
  194.4290  176.9760  146.6770 O   0  0  0  0  0  1  0  0  0  0  0  0
  194.7590  176.0210  145.7120 C   0  0  2  0  0  3  0  0  0  0  0  0
  194.5710  176.5670  144.4350 O   0  0  0  0  0  0  0  0  0  0  0  0
  195.4040  175.8350  143.5730 C   0  0  1  0  0  3  0  0  0  0  0  0
  194.5870  175.3020  142.3910 C   0  0  1  0  0  3  0  0  0  0  0  0
  194.5350  176.2510  141.3660 O   0  0  0  0  0  1  0  0  0  0  0  0
  195.2930  172.8450  142.7520 C   0  0  0  0  0  1  0  0  0  0  0  0
  195.1550  174.0230  141.8540 C   0  0  0  0  0  0  0  0  0  0  0  0
  195.4830  173.9340  140.6800 O   0  0  0  0  0  0  0  0  0  0  0  0
  196.5130  176.7450  143.0480 C   0  0  0  0  0  2  0  0  0  0  0  0
  197.8470  176.0260  143.0690 C   0  0  0  0  0  1  0  0  0  0  0  0
  187.1680  177.9800  142.6040 N   0  0  0  0  0  2  0  0  0  0  0  0
  186.5010  178.3250  144.9240 C   0  0  0  0  0  3  0  0  0  0  0  0
  186.1570  178.3160  143.5680 C   0  0  0  0  0  0  0  0  0  0  0  0
  185.5540  178.6520  145.9050 C   0  0  0  0  0  0  0  0  0  0  0  0
  183.8960  178.9810  144.1620 C   0  0  0  0  0  3  0  0  0  0  0  0
  184.2470  178.9790  145.5150 C   0  0  0  0  0  3  0  0  0  0  0  0
  184.8480  178.6530  143.1940 C   0  0  0  0  0  3  0  0  0  0  0  0
  185.9720  177.5700  147.9760 O   0  0  0  0  0  0  0  0  0  0  0  0
  185.9260  178.6520  147.3320 C   0  0  0  0  0  0  0  0  0  0  0  0
  186.2420  179.8720  147.9960 N   0  0  0  0  0  1  0  0  0  0  0  0
  1  6  1  0  0  0  0
  2  4  1  0  0  0  0
  2  9  1  0  0  0  0
  3  1  2  0  0  0  0
  3  5  1  0  0  0  0
  5  7  1  0  0  0  0
  5  2  2  0  0  0  0
  6 35  1  0  0  0  0
  6  4  2  0  0  0  0
  7  8  2  0  0  0  0
  8 19  1  0  0  0  0
  8  9  1  0  0  0  0
  9 20  1  6  0  0  0
 10  7  1  0  0  0  0
 11 12  2  0  0  0  0
 11 10  1  0  0  0  0
 14 13  1  0  0  0  0
 15 16  1  0  0  0  0
 16 13  1  0  0  0  0
 16 11  1  0  0  0  0
 17 15  1  0  0  0  0
 17 14  1  0  0  0  0
 19 18  2  0  0  0  0
 21 20  1  0  0  0  0
 21 22  1  0  0  0  0
 23 22  1  0  0  0  0
 25 23  1  0  0  0  0
 25 24  1  1  0  0  0
 26 25  1  0  0  0  0
 27 33  1  6  0  0  0
 27 26  1  0  0  0  0
 28 29  1  6  0  0  0
 28 27  1  0  0  0  0
 31 28  1  0  0  0  0
 31 30  1  0  0  0  0
 32 31  2  0  0  0  0
 33 34  1  0  0  0  0
 35 37  1  0  0  0  0
 36 38  1  0  0  0  0
 37 36  2  0  0  0  0
 38 43  1  0  0  0  0
 39 40  1  0  0  0  0
 40 38  2  0  0  0  0
 41 37  1  0  0  0  0
 41 39  2  0  0  0  0
 43 42  2  0  0  0  0
 43 44  1  0  0  0  0
M  END
>  <MODEL>
1

>  <REMARK>
 VINA RESULT:      -6.8      0.000      0.000
  Name = 
  16 active torsions:
  status: ('A' for Active; 'I' for Inactive)
    1  A    between atoms: N_4  and  C_36
    2  A    between atoms: C_5  and  C_14
    3  A    between atoms: C_5  and  C_23
    4  A    between atoms: C_6  and  N_7
    5  A    between atoms: N_7  and  C_35
    6  A    between atoms: C_8  and  C_29
    7  A    between atoms: C_9  and  C_38
    8  A    between atoms: C_14  and  C_16
    9  A    between atoms: C_14  and  O_31
   10  A    between atoms: C_15  and  C_22
   11  A    between atoms: C_15  and  C_40
   12  A    between atoms: C_17  and  S_18
   13  A    between atoms: C_17  and  C_22
   14  A    between atoms: S_18  and  C_39
   15  A    between atoms: C_21  and  C_37
   16  A    between atoms: O_31  and  C_40
                            x       y       z     vdW  Elec       q    Type
                         _______ _______ _______ _____ _____    ______ ____

>  <TORSDO>
F 16

$$$$
=
 OpenBabel11042417023D

 44 47  0  0  1  0  0  0  0  0999 V2000
  185.4780  177.3860  146.4160 C   0  0  0  0  0  3  0  0  0  0  0  0
  186.1060  177.2830  143.6700 C   0  0  0  0  0  0  0  0  0  0  0  0
  184.4290  177.9790  145.4930 C   0  0  0  0  0  3  0  0  0  0  0  0
  186.9730  176.7950  144.5480 C   0  0  0  0  0  3  0  0  0  0  0  0
  184.8480  177.8620  144.0600 C   0  0  2  0  0  3  0  0  0  0  0  0
  186.6390  176.8390  145.9950 C   0  0  0  0  0  0  0  0  0  0  0  0
  184.1980  178.2200  142.9620 C   0  0  0  0  0  0  0  0  0  0  0  0
  185.0470  177.9160  141.7850 C   0  0  0  0  0  0  0  0  0  0  0  0
  186.1810  177.3470  142.2200 C   0  0  0  0  0  0  0  0  0  0  0  0
  182.9220  178.8710  142.9730 N   0  0  0  0  0  2  0  0  0  0  0  0
  181.8320  178.5710  142.0980 C   0  0  0  0  0  0  0  0  0  0  0  0
  181.8070  177.4890  141.4460 O   0  0  0  0  0  0  0  0  0  0  0  0
  180.3770  179.9280  140.5970 C   0  0  0  0  0  2  0  0  0  0  0  0
  178.8700  179.8590  140.4330 C   0  0  0  0  0  2  0  0  0  0  0  0
  179.4160  178.8770  142.5630 C   0  0  0  0  0  2  0  0  0  0  0  0
  180.6780  179.5160  142.0280 C   0  0  0  0  0  3  0  0  0  0  0  0
  178.2960  179.5350  141.7980 C   0  0  0  0  0  2  0  0  0  0  0  0
  184.7610  177.4430  139.4580 O   0  0  0  0  0  0  0  0  0  0  0  0
  184.7230  178.2820  140.3960 C   0  0  0  0  0  3  0  0  0  0  0  0
  187.5900  176.8200  141.2430 S   0  0  0  0  0  0  0  0  0  0  0  0
  188.5240  178.3260  141.6470 C   0  0  0  0  0  2  0  0  0  0  0  0
  189.5280  178.0340  142.7460 C   0  0  0  0  0  2  0  0  0  0  0  0
  190.0800  176.6270  142.5980 C   0  0  0  0  0  2  0  0  0  0  0  0
  192.2160  177.6570  142.6210 O   0  0  0  0  0  1  0  0  0  0  0  0
  191.5030  176.5660  143.1250 C   0  0  2  0  0  3  0  0  0  0  0  0
  192.1140  175.3780  142.7020 O   0  0  0  0  0  0  0  0  0  0  0  0
  193.4830  175.6670  142.5770 C   0  0  1  0  0  3  0  0  0  0  0  0
  194.2240  175.2230  143.8420 C   0  0  1  0  0  3  0  0  0  0  0  0
  195.0350  174.1160  143.5720 O   0  0  0  0  0  1  0  0  0  0  0  0
  194.5440  177.1370  145.5460 C   0  0  0  0  0  1  0  0  0  0  0  0
  195.0640  176.3250  144.4110 C   0  0  0  0  0  0  0  0  0  0  0  0
  196.1810  176.5480  143.9680 O   0  0  0  0  0  0  0  0  0  0  0  0
  194.0500  174.9170  141.3740 C   0  0  0  0  0  2  0  0  0  0  0  0
  194.8840  175.8440  140.5120 C   0  0  0  0  0  1  0  0  0  0  0  0
  187.5430  176.3260  146.9860 N   0  0  0  0  0  2  0  0  0  0  0  0
  189.1620  174.7840  146.0120 C   0  0  0  0  0  3  0  0  0  0  0  0
  188.9060  175.9050  146.8090 C   0  0  0  0  0  0  0  0  0  0  0  0
  190.4750  174.3360  145.8020 C   0  0  0  0  0  0  0  0  0  0  0  0
  191.2940  176.1540  147.1880 C   0  0  0  0  0  3  0  0  0  0  0  0
  191.5390  175.0280  146.3970 C   0  0  0  0  0  3  0  0  0  0  0  0
  189.9820  176.5910  147.3910 C   0  0  0  0  0  3  0  0  0  0  0  0
  191.9110  172.7410  144.7890 O   0  0  0  0  0  0  0  0  0  0  0  0
  190.7330  173.1500  144.9660 C   0  0  0  0  0  0  0  0  0  0  0  0
  189.6530  172.4490  144.3540 N   0  0  0  0  0  1  0  0  0  0  0  0
  2  5  1  0  0  0  0
  2  4  1  0  0  0  0
  3  1  2  0  0  0  0
  4  6  2  0  0  0  0
  5  3  1  6  0  0  0
  6  1  1  0  0  0  0
  6 35  1  0  0  0  0
  7 10  1  0  0  0  0
  7  5  1  0  0  0  0
  8  9  1  0  0  0  0
  8  7  2  0  0  0  0
  9  2  2  0  0  0  0
 11 10  1  0  0  0  0
 12 11  2  0  0  0  0
 13 16  1  0  0  0  0
 14 13  1  0  0  0  0
 14 17  1  0  0  0  0
 16 11  1  0  0  0  0
 16 15  1  0  0  0  0
 17 15  1  0  0  0  0
 18 19  2  0  0  0  0
 19  8  1  0  0  0  0
 20 21  1  0  0  0  0
 20  9  1  0  0  0  0
 21 22  1  0  0  0  0
 23 22  1  0  0  0  0
 23 25  1  0  0  0  0
 25 24  1  6  0  0  0
 26 25  1  0  0  0  0
 27 33  1  6  0  0  0
 27 26  1  0  0  0  0
 27 28  1  0  0  0  0
 28 29  1  6  0  0  0
 28 31  1  0  0  0  0
 31 30  1  0  0  0  0
 32 31  2  0  0  0  0
 34 33  1  0  0  0  0
 36 37  1  0  0  0  0
 37 35  1  0  0  0  0
 37 41  2  0  0  0  0
 38 36  2  0  0  0  0
 38 40  1  0  0  0  0
 39 41  1  0  0  0  0
 40 39  2  0  0  0  0
 42 43  2  0  0  0  0
 43 38  1  0  0  0  0
 44 43  1  0  0  0  0
M  END
>  <MODEL>
2

>  <REMARK>
 VINA RESULT:      -6.7      3.415      7.798
  Name = 
  16 active torsions:
  status: ('A' for Active; 'I' for Inactive)
    1  A    between atoms: N_4  and  C_36
    2  A    between atoms: C_5  and  C_14
    3  A    between atoms: C_5  and  C_23
    4  A    between atoms: C_6  and  N_7
    5  A    between atoms: N_7  and  C_35
    6  A    between atoms: C_8  and  C_29
    7  A    between atoms: C_9  and  C_38
    8  A    between atoms: C_14  and  C_16
    9  A    between atoms: C_14  and  O_31
   10  A    between atoms: C_15  and  C_22
   11  A    between atoms: C_15  and  C_40
   12  A    between atoms: C_17  and  S_18
   13  A    between atoms: C_17  and  C_22
   14  A    between atoms: S_18  and  C_39
   15  A    between atoms: C_21  and  C_37
   16  A    between atoms: O_31  and  C_40
                            x       y       z     vdW  Elec       q    Type
                         _______ _______ _______ _____ _____    ______ ____

>  <TORSDO>
F 16

$$$$
=
 OpenBabel11042417023D

 44 47  0  0  1  0  0  0  0  0999 V2000
  185.1610  178.6420  146.2310 C   0  0  0  0  0  3  0  0  0  0  0  0
  185.6180  177.9510  143.5370 C   0  0  0  0  0  0  0  0  0  0  0  0
  184.0470  179.0210  145.2710 C   0  0  0  0  0  3  0  0  0  0  0  0
  186.5450  177.6640  144.4430 C   0  0  0  0  0  3  0  0  0  0  0  0
  184.3780  178.5980  143.8730 C   0  0  2  0  0  3  0  0  0  0  0  0
  186.3010  178.0190  145.8640 C   0  0  0  0  0  0  0  0  0  0  0  0
  183.6560  178.7100  142.7680 C   0  0  0  0  0  0  0  0  0  0  0  0
  184.4340  178.1610  141.6320 C   0  0  0  0  0  0  0  0  0  0  0  0
  185.6020  177.7010  142.1060 C   0  0  0  0  0  0  0  0  0  0  0  0
  182.3730  179.3470  142.7200 N   0  0  0  0  0  2  0  0  0  0  0  0
  181.2090  178.8140  142.0850 C   0  0  0  0  0  0  0  0  0  0  0  0
  181.1430  177.5900  141.7790 O   0  0  0  0  0  0  0  0  0  0  0  0
  180.0780  180.3630  140.4920 C   0  0  0  0  0  2  0  0  0  0  0  0
  178.6770  180.2630  139.9170 C   0  0  0  0  0  2  0  0  0  0  0  0
  178.7380  178.9300  141.9220 C   0  0  0  0  0  2  0  0  0  0  0  0
  180.0330  179.7080  141.8630 C   0  0  0  0  0  3  0  0  0  0  0  0
  177.8000  179.6710  141.0020 C   0  0  0  0  0  2  0  0  0  0  0  0
  183.3480  177.2980  139.6830 O   0  0  0  0  0  0  0  0  0  0  0  0
  184.0190  178.2170  140.2200 C   0  0  0  0  0  3  0  0  0  0  0  0
  186.9550  176.9760  141.1770 S   0  0  0  0  0  0  0  0  0  0  0  0
  188.1450  178.1830  141.8340 C   0  0  0  0  0  2  0  0  0  0  0  0
  189.3580  177.4640  142.3930 C   0  0  0  0  0  2  0  0  0  0  0  0
  189.0790  175.9770  142.5180 C   0  0  0  0  0  2  0  0  0  0  0  0
  190.3230  174.3810  141.2810 O   0  0  0  0  0  1  0  0  0  0  0  0
  190.3770  175.1930  142.4160 C   0  0  2  0  0  3  0  0  0  0  0  0
  190.5340  174.3900  143.5540 O   0  0  0  0  0  0  0  0  0  0  0  0
  191.4810  173.4110  143.2110 C   0  0  1  0  0  3  0  0  0  0  0  0
  192.8800  173.8710  143.6340 C   0  0  1  0  0  3  0  0  0  0  0  0
  193.1520  173.4670  144.9450 O   0  0  0  0  0  1  0  0  0  0  0  0
  193.9000  173.6710  141.2700 C   0  0  0  0  0  1  0  0  0  0  0  0
  193.9420  173.3380  142.7200 C   0  0  0  0  0  0  0  0  0  0  0  0
  194.8520  172.6510  143.1590 O   0  0  0  0  0  0  0  0  0  0  0  0
  191.1430  172.1070  143.9300 C   0  0  0  0  0  2  0  0  0  0  0  0
  189.7080  172.1240  144.4190 C   0  0  0  0  0  1  0  0  0  0  0  0
  187.2720  177.7330  146.8830 N   0  0  0  0  0  2  0  0  0  0  0  0
  189.5990  177.1800  146.4040 C   0  0  0  0  0  3  0  0  0  0  0  0
  188.3370  176.7680  146.8460 C   0  0  0  0  0  0  0  0  0  0  0  0
  190.6740  176.2800  146.3550 C   0  0  0  0  0  0  0  0  0  0  0  0
  189.2200  174.5340  147.2120 C   0  0  0  0  0  3  0  0  0  0  0  0
  190.4750  174.9530  146.7610 C   0  0  0  0  0  3  0  0  0  0  0  0
  188.1580  175.4390  147.2560 C   0  0  0  0  0  3  0  0  0  0  0  0
  193.0180  176.5600  146.6000 O   0  0  0  0  0  0  0  0  0  0  0  0
  191.9970  176.7230  145.8810 C   0  0  0  0  0  0  0  0  0  0  0  0
  192.1360  177.3370  144.6020 N   0  0  0  0  0  1  0  0  0  0  0  0
  2  5  1  0  0  0  0
  2  4  1  0  0  0  0
  3  1  2  0  0  0  0
  4  6  2  0  0  0  0
  5  3  1  1  0  0  0
  6  1  1  0  0  0  0
  6 35  1  0  0  0  0
  7  5  1  0  0  0  0
  8  9  1  0  0  0  0
  8  7  2  0  0  0  0
  9  2  2  0  0  0  0
 10  7  1  0  0  0  0
 11 10  1  0  0  0  0
 12 11  2  0  0  0  0
 13 16  1  0  0  0  0
 14 13  1  0  0  0  0
 14 17  1  0  0  0  0
 16 15  1  0  0  0  0
 16 11  1  0  0  0  0
 17 15  1  0  0  0  0
 18 19  2  0  0  0  0
 19  8  1  0  0  0  0
 20 21  1  0  0  0  0
 20  9  1  0  0  0  0
 21 22  1  0  0  0  0
 22 23  1  0  0  0  0
 25 24  1  6  0  0  0
 25 23  1  0  0  0  0
 25 26  1  0  0  0  0
 27 26  1  0  0  0  0
 27 28  1  0  0  0  0
 27 33  1  1  0  0  0
 28 29  1  1  0  0  0
 30 31  1  0  0  0  0
 31 32  2  0  0  0  0
 31 28  1  0  0  0  0
 33 34  1  0  0  0  0
 36 37  1  0  0  0  0
 37 35  1  0  0  0  0
 37 41  2  0  0  0  0
 38 36  2  0  0  0  0
 38 40  1  0  0  0  0
 39 41  1  0  0  0  0
 40 39  2  0  0  0  0
 43 38  1  0  0  0  0
 43 42  2  0  0  0  0
 44 43  1  0  0  0  0
M  END
>  <MODEL>
3

>  <REMARK>
 VINA RESULT:      -6.6      3.527      8.137
  Name = 
  16 active torsions:
  status: ('A' for Active; 'I' for Inactive)
    1  A    between atoms: N_4  and  C_36
    2  A    between atoms: C_5  and  C_14
    3  A    between atoms: C_5  and  C_23
    4  A    between atoms: C_6  and  N_7
    5  A    between atoms: N_7  and  C_35
    6  A    between atoms: C_8  and  C_29
    7  A    between atoms: C_9  and  C_38
    8  A    between atoms: C_14  and  C_16
    9  A    between atoms: C_14  and  O_31
   10  A    between atoms: C_15  and  C_22
   11  A    between atoms: C_15  and  C_40
   12  A    between atoms: C_17  and  S_18
   13  A    between atoms: C_17  and  C_22
   14  A    between atoms: S_18  and  C_39
   15  A    between atoms: C_21  and  C_37
   16  A    between atoms: O_31  and  C_40
                            x       y       z     vdW  Elec       q    Type
                         _______ _______ _______ _____ _____    ______ ____

>  <TORSDO>
F 16

$$$$
=
 OpenBabel11042417023D

 44 47  0  0  1  0  0  0  0  0999 V2000
  193.2620  176.3650  146.6080 C   0  0  0  0  0  3  0  0  0  0  0  0
  191.9960  175.4820  144.2490 C   0  0  0  0  0  0  0  0  0  0  0  0
  191.8380  176.8560  146.4180 C   0  0  0  0  0  2  0  0  0  0  0  0
  193.2470  175.1060  144.4900 C   0  0  0  0  0  3  0  0  0  0  0  0
  191.2510  176.3210  145.1490 C   0  0  0  0  0  0  0  0  0  0  0  0
  193.9120  175.5630  145.7370 C   0  0  0  0  0  0  0  0  0  0  0  0
  190.0340  176.4840  144.6520 C   0  0  0  0  0  0  0  0  0  0  0  0
  189.9490  175.7710  143.3550 C   0  0  0  0  0  0  0  0  0  0  0  0
  191.1250  175.1670  143.1300 C   0  0  0  0  0  0  0  0  0  0  0  0
  189.0290  177.3000  145.2670 N   0  0  0  0  0  2  0  0  0  0  0  0
  188.0100  176.8310  146.1520 C   0  0  0  0  0  0  0  0  0  0  0  0
  188.1060  175.7000  146.7050 O   0  0  0  0  0  0  0  0  0  0  0  0
  186.4190  178.5350  145.2710 C   0  0  0  0  0  2  0  0  0  0  0  0
  184.9020  178.4870  145.2550 C   0  0  0  0  0  2  0  0  0  0  0  0
  185.6620  176.9420  146.9390 C   0  0  0  0  0  2  0  0  0  0  0  0
  186.8660  177.7330  146.4820 C   0  0  0  0  0  3  0  0  0  0  0  0
  184.4730  177.7710  146.5210 C   0  0  0  0  0  2  0  0  0  0  0  0
  188.4640  176.8730  141.8380 O   0  0  0  0  0  0  0  0  0  0  0  0
  188.7960  175.8190  142.4400 C   0  0  0  0  0  3  0  0  0  0  0  0
  191.6090  174.2060  141.6940 S   0  0  0  0  0  0  0  0  0  0  0  0
  191.6960  172.6700  142.6630 C   0  0  0  0  0  2  0  0  0  0  0  0
  193.0630  172.0330  142.5020 C   0  0  0  0  0  2  0  0  0  0  0  0
  193.9290  172.8660  141.5740 C   0  0  0  0  0  2  0  0  0  0  0  0
  195.2540  170.9490  142.0140 O   0  0  0  0  0  1  0  0  0  0  0  0
  195.2300  172.1370  141.2800 C   0  0  2  0  0  3  0  0  0  0  0  0
  196.3160  172.9380  141.6570 O   0  0  0  0  0  0  0  0  0  0  0  0
  196.3930  173.9640  140.7010 C   0  0  1  0  0  3  0  0  0  0  0  0
  197.1650  175.1550  141.2780 C   0  0  1  0  0  3  0  0  0  0  0  0
  197.9410  175.7630  140.2860 O   0  0  0  0  0  1  0  0  0  0  0  0
  194.8990  176.3940  141.2870 C   0  0  0  0  0  1  0  0  0  0  0  0
  196.2460  176.1740  141.8810 C   0  0  0  0  0  0  0  0  0  0  0  0
  196.5850  176.8090  142.8690 O   0  0  0  0  0  0  0  0  0  0  0  0
  197.1220  173.4460  139.4620 C   0  0  0  0  0  2  0  0  0  0  0  0
  196.2800  173.6600  138.2200 C   0  0  0  0  0  1  0  0  0  0  0  0
  195.2630  175.1860  146.0430 N   0  0  0  0  0  2  0  0  0  0  0  0
  195.3710  172.7600  145.8190 C   0  0  0  0  0  3  0  0  0  0  0  0
  195.9720  174.0090  145.6230 C   0  0  0  0  0  0  0  0  0  0  0  0
  196.0170  171.5810  145.4200 C   0  0  0  0  0  0  0  0  0  0  0  0
  197.8840  172.9030  144.6070 C   0  0  0  0  0  3  0  0  0  0  0  0
  197.2790  171.6610  144.8150 C   0  0  0  0  0  3  0  0  0  0  0  0
  197.2310  174.0710  145.0080 C   0  0  0  0  0  3  0  0  0  0  0  0
  194.2440  170.0260  145.1460 O   0  0  0  0  0  0  0  0  0  0  0  0
  195.3770  170.2700  145.6380 C   0  0  0  0  0  0  0  0  0  0  0  0
  196.0360  169.2640  146.4030 N   0  0  0  0  0  1  0  0  0  0  0  0
  2  4  2  0  0  0  0
  2  5  1  0  0  0  0
  3  1  1  0  0  0  0
  4  6  1  0  0  0  0
  5  3  1  0  0  0  0
  6 35  1  0  0  0  0
  6  1  2  0  0  0  0
  7  5  2  0  0  0  0
  7 10  1  0  0  0  0
  8  7  1  0  0  0  0
  9  8  2  0  0  0  0
  9  2  1  0  0  0  0
 10 11  1  0  0  0  0
 11 16  1  0  0  0  0
 11 12  2  0  0  0  0
 13 16  1  0  0  0  0
 14 13  1  0  0  0  0
 14 17  1  0  0  0  0
 16 15  1  0  0  0  0
 17 15  1  0  0  0  0
 18 19  2  0  0  0  0
 19  8  1  0  0  0  0
 20 21  1  0  0  0  0
 20  9  1  0  0  0  0
 22 21  1  0  0  0  0
 23 22  1  0  0  0  0
 25 23  1  0  0  0  0
 25 26  1  0  0  0  0
 25 24  1  1  0  0  0
 27 33  1  6  0  0  0
 27 28  1  0  0  0  0
 27 26  1  0  0  0  0
 28 29  1  6  0  0  0
 28 31  1  0  0  0  0
 30 31  1  0  0  0  0
 31 32  2  0  0  0  0
 34 33  1  0  0  0  0
 37 36  1  0  0  0  0
 37 35  1  0  0  0  0
 38 43  1  0  0  0  0
 38 36  2  0  0  0  0
 39 40  2  0  0  0  0
 39 41  1  0  0  0  0
 40 38  1  0  0  0  0
 41 37  2  0  0  0  0
 42 43  2  0  0  0  0
 43 44  1  0  0  0  0
M  END
>  <MODEL>
4

>  <REMARK>
 VINA RESULT:      -6.5      3.025      8.422
  Name = 
  16 active torsions:
  status: ('A' for Active; 'I' for Inactive)
    1  A    between atoms: N_4  and  C_36
    2  A    between atoms: C_5  and  C_14
    3  A    between atoms: C_5  and  C_23
    4  A    between atoms: C_6  and  N_7
    5  A    between atoms: N_7  and  C_35
    6  A    between atoms: C_8  and  C_29
    7  A    between atoms: C_9  and  C_38
    8  A    between atoms: C_14  and  C_16
    9  A    between atoms: C_14  and  O_31
   10  A    between atoms: C_15  and  C_22
   11  A    between atoms: C_15  and  C_40
   12  A    between atoms: C_17  and  S_18
   13  A    between atoms: C_17  and  C_22
   14  A    between atoms: S_18  and  C_39
   15  A    between atoms: C_21  and  C_37
   16  A    between atoms: O_31  and  C_40
                            x       y       z     vdW  Elec       q    Type
                         _______ _______ _______ _____ _____    ______ ____

>  <TORSDO>
F 16

$$$$
=
 OpenBabel11042417023D

 44 47  0  0  1  0  0  0  0  0999 V2000
  192.3010  176.2750  146.7770 C   0  0  0  0  0  3  0  0  0  0  0  0
  191.3150  175.1260  144.3990 C   0  0  0  0  0  0  0  0  0  0  0  0
  190.8150  176.4740  146.5340 C   0  0  0  0  0  2  0  0  0  0  0  0
  192.6060  175.0080  144.6870 C   0  0  0  0  0  3  0  0  0  0  0  0
  190.3890  175.8150  145.2580 C   0  0  0  0  0  0  0  0  0  0  0  0
  193.1250  175.6040  145.9440 C   0  0  0  0  0  0  0  0  0  0  0  0
  189.1820  175.7280  144.7200 C   0  0  0  0  0  0  0  0  0  0  0  0
  189.2830  174.9940  143.4350 C   0  0  0  0  0  0  0  0  0  0  0  0
  190.5620  174.6300  143.2600 C   0  0  0  0  0  0  0  0  0  0  0  0
  188.0150  176.3400  145.2850 N   0  0  0  0  0  2  0  0  0  0  0  0
  187.4810  177.6100  144.9050 C   0  0  0  0  0  0  0  0  0  0  0  0
  187.8230  178.1550  143.8180 O   0  0  0  0  0  0  0  0  0  0  0  0
  185.5410  179.1730  144.9730 C   0  0  0  0  0  2  0  0  0  0  0  0
  184.1200  178.8910  145.4280 C   0  0  0  0  0  2  0  0  0  0  0  0
  185.5430  177.2070  146.3980 C   0  0  0  0  0  2  0  0  0  0  0  0
  186.4440  178.2470  145.7710 C   0  0  0  0  0  3  0  0  0  0  0  0
  184.2150  177.9010  146.5720 C   0  0  0  0  0  2  0  0  0  0  0  0
  187.9220  175.6350  141.5760 O   0  0  0  0  0  0  0  0  0  0  0  0
  188.1760  174.8010  142.4850 C   0  0  0  0  0  3  0  0  0  0  0  0
  191.2740  173.7630  141.8600 S   0  0  0  0  0  0  0  0  0  0  0  0
  191.1520  172.1570  142.7020 C   0  0  0  0  0  2  0  0  0  0  0  0
  192.5370  171.6470  143.0530 C   0  0  0  0  0  2  0  0  0  0  0  0
  192.4580  170.6390  144.1850 C   0  0  0  0  0  2  0  0  0  0  0  0
  193.5470  168.7770  145.1720 O   0  0  0  0  0  1  0  0  0  0  0  0
  193.6880  169.7470  144.1770 C   0  0  2  0  0  3  0  0  0  0  0  0
  194.8310  170.5160  144.4360 O   0  0  0  0  0  0  0  0  0  0  0  0
  195.9090  169.8110  143.8760 C   0  0  1  0  0  3  0  0  0  0  0  0
  196.4940  170.6040  142.7030 C   0  0  1  0  0  3  0  0  0  0  0  0
  197.8460  170.8820  142.9270 O   0  0  0  0  0  1  0  0  0  0  0  0
  194.9880  169.6090  140.8570 C   0  0  0  0  0  1  0  0  0  0  0  0
  196.3480  169.8680  141.4060 C   0  0  0  0  0  0  0  0  0  0  0  0
  197.3330  169.5000  140.7850 O   0  0  0  0  0  0  0  0  0  0  0  0
  196.9900  169.6140  144.9380 C   0  0  0  0  0  2  0  0  0  0  0  0
  196.6020  170.3070  146.2290 C   0  0  0  0  0  1  0  0  0  0  0  0
  194.5120  175.5050  146.3000 N   0  0  0  0  0  2  0  0  0  0  0  0
  195.7820  175.6330  144.2220 C   0  0  0  0  0  3  0  0  0  0  0  0
  195.6070  175.0560  145.4840 C   0  0  0  0  0  0  0  0  0  0  0  0
  196.8390  175.2350  143.3890 C   0  0  0  0  0  0  0  0  0  0  0  0
  197.5680  173.6720  145.0990 C   0  0  0  0  0  3  0  0  0  0  0  0
  197.7300  174.2490  143.8360 C   0  0  0  0  0  3  0  0  0  0  0  0
  196.5120  174.0760  145.9190 C   0  0  0  0  0  3  0  0  0  0  0  0
  197.9400  175.4650  141.3000 O   0  0  0  0  0  0  0  0  0  0  0  0
  197.0100  175.8460  142.0580 C   0  0  0  0  0  0  0  0  0  0  0  0
  196.1220  176.8680  141.6140 N   0  0  0  0  0  1  0  0  0  0  0  0
  2  4  2  0  0  0  0
  2  5  1  0  0  0  0
  3  1  1  0  0  0  0
  4  6  1  0  0  0  0
  5  3  1  0  0  0  0
  6 35  1  0  0  0  0
  6  1  2  0  0  0  0
  7  5  2  0  0  0  0
  7 10  1  0  0  0  0
  8  7  1  0  0  0  0
  9  8  2  0  0  0  0
  9  2  1  0  0  0  0
 11 10  1  0  0  0  0
 11 16  1  0  0  0  0
 12 11  2  0  0  0  0
 13 14  1  0  0  0  0
 13 16  1  0  0  0  0
 14 17  1  0  0  0  0
 15 17  1  0  0  0  0
 16 15  1  0  0  0  0
 18 19  2  0  0  0  0
 19  8  1  0  0  0  0
 20 21  1  0  0  0  0
 20  9  1  0  0  0  0
 21 22  1  0  0  0  0
 22 23  1  0  0  0  0
 25 23  1  0  0  0  0
 25 26  1  0  0  0  0
 25 24  1  1  0  0  0
 27 26  1  0  0  0  0
 27 33  1  1  0  0  0
 28 29  1  1  0  0  0
 28 27  1  0  0  0  0
 30 31  1  0  0  0  0
 31 28  1  0  0  0  0
 32 31  2  0  0  0  0
 33 34  1  0  0  0  0
 36 37  1  0  0  0  0
 37 41  2  0  0  0  0
 37 35  1  0  0  0  0
 38 40  1  0  0  0  0
 38 36  2  0  0  0  0
 39 41  1  0  0  0  0
 40 39  2  0  0  0  0
 42 43  2  0  0  0  0
 43 38  1  0  0  0  0
 44 43  1  0  0  0  0
M  END
>  <MODEL>
5

>  <REMARK>
 VINA RESULT:      -6.5      3.119      8.453
  Name = 
  16 active torsions:
  status: ('A' for Active; 'I' for Inactive)
    1  A    between atoms: N_4  and  C_36
    2  A    between atoms: C_5  and  C_14
    3  A    between atoms: C_5  and  C_23
    4  A    between atoms: C_6  and  N_7
    5  A    between atoms: N_7  and  C_35
    6  A    between atoms: C_8  and  C_29
    7  A    between atoms: C_9  and  C_38
    8  A    between atoms: C_14  and  C_16
    9  A    between atoms: C_14  and  O_31
   10  A    between atoms: C_15  and  C_22
   11  A    between atoms: C_15  and  C_40
   12  A    between atoms: C_17  and  S_18
   13  A    between atoms: C_17  and  C_22
   14  A    between atoms: S_18  and  C_39
   15  A    between atoms: C_21  and  C_37
   16  A    between atoms: O_31  and  C_40
                            x       y       z     vdW  Elec       q    Type
                         _______ _______ _______ _____ _____    ______ ____

>  <TORSDO>
F 16

$$$$
=
 OpenBabel11042417023D

 44 47  0  0  1  0  0  0  0  0999 V2000
  188.0170  173.8930  141.2690 C   0  0  0  0  0  3  0  0  0  0  0  0
  190.8190  174.0710  141.0250 C   0  0  0  0  0  0  0  0  0  0  0  0
  188.6090  173.1460  140.0870 C   0  0  0  0  0  3  0  0  0  0  0  0
  190.2170  174.7020  142.0260 C   0  0  0  0  0  3  0  0  0  0  0  0
  190.1000  173.2890  140.0560 C   0  0  0  0  0  0  0  0  0  0  0  0
  188.7420  174.6020  142.1610 C   0  0  0  0  0  0  0  0  0  0  0  0
  190.9770  172.7610  139.2160 C   0  0  0  0  0  0  0  0  0  0  0  0
  192.3350  173.2220  139.5920 C   0  0  0  0  0  0  0  0  0  0  0  0
  192.2290  173.9970  140.6810 C   0  0  1  0  0  3  0  0  0  0  0  0
  190.6100  171.9530  138.0900 N   0  0  0  0  0  2  0  0  0  0  0  0
  190.5610  170.5250  138.0790 C   0  0  0  0  0  0  0  0  0  0  0  0
  190.5410  169.8710  139.1590 O   0  0  0  0  0  0  0  0  0  0  0  0
  190.3940  170.7920  135.6060 C   0  0  0  0  0  2  0  0  0  0  0  0
  191.3190  170.2430  134.5350 C   0  0  0  0  0  2  0  0  0  0  0  0
  191.6450  168.9260  136.5250 C   0  0  0  0  0  2  0  0  0  0  0  0
  190.4470  169.8150  136.7690 C   0  0  0  0  0  3  0  0  0  0  0  0
  191.8030  168.8930  135.0250 C   0  0  0  0  0  2  0  0  0  0  0  0
  194.4180  173.8400  138.5910 O   0  0  0  0  0  0  0  0  0  0  0  0
  193.5610  172.9480  138.8230 C   0  0  0  0  0  3  0  0  0  0  0  0
  193.5410  174.8650  141.5430 S   0  0  0  0  0  0  0  0  0  0  0  0
  194.0230  173.3720  142.4610 C   0  0  0  0  0  2  0  0  0  0  0  0
  194.3050  173.7220  143.9100 C   0  0  0  0  0  2  0  0  0  0  0  0
  193.8170  175.1260  144.2180 C   0  0  0  0  0  2  0  0  0  0  0  0
  191.8090  174.2460  145.1250 O   0  0  0  0  0  1  0  0  0  0  0  0
  192.8760  175.1010  145.4120 C   0  0  2  0  0  3  0  0  0  0  0  0
  192.3850  176.3910  145.6530 O   0  0  0  0  0  0  0  0  0  0  0  0
  190.9850  176.2900  145.6010 C   0  0  1  0  0  3  0  0  0  0  0  0
  190.4150  176.2390  147.0220 C   0  0  1  0  0  3  0  0  0  0  0  0
  190.1660  177.5310  147.4960 O   0  0  0  0  0  1  0  0  0  0  0  0
  187.8380  176.1160  146.9130 C   0  0  0  0  0  1  0  0  0  0  0  0
  189.1510  175.4360  147.0870 C   0  0  0  0  0  0  0  0  0  0  0  0
  189.1910  174.2270  147.2580 O   0  0  0  0  0  0  0  0  0  0  0  0
  190.4170  177.5090  144.8760 C   0  0  0  0  0  2  0  0  0  0  0  0
  191.2470  177.8350  143.6500 C   0  0  0  0  0  1  0  0  0  0  0  0
  188.0420  175.2660  143.2250 N   0  0  0  0  0  2  0  0  0  0  0  0
  186.3550  176.7690  144.1430 C   0  0  0  0  0  3  0  0  0  0  0  0
  187.3320  176.5150  143.1740 C   0  0  0  0  0  0  0  0  0  0  0  0
  185.6390  177.9750  144.1430 C   0  0  0  0  0  0  0  0  0  0  0  0
  186.8920  178.6940  142.1910 C   0  0  0  0  0  3  0  0  0  0  0  0
  185.9130  178.9350  143.1590 C   0  0  0  0  0  3  0  0  0  0  0  0
  187.5990  177.4890  142.2020 C   0  0  0  0  0  3  0  0  0  0  0  0
  183.6930  179.0690  144.9490 O   0  0  0  0  0  0  0  0  0  0  0  0
  184.6070  178.2290  145.1640 C   0  0  0  0  0  0  0  0  0  0  0  0
  184.6290  177.5260  146.4040 N   0  0  0  0  0  1  0  0  0  0  0  0
  1  6  1  0  0  0  0
  2  4  1  0  0  0  0
  3  1  2  0  0  0  0
  4  6  2  0  0  0  0
  5  3  1  0  0  0  0
  5  2  2  0  0  0  0
  6 35  1  0  0  0  0
  7  8  2  0  0  0  0
  7  5  1  0  0  0  0
  8  9  1  0  0  0  0
  9  2  1  0  0  0  0
  9 20  1  6  0  0  0
 10  7  1  0  0  0  0
 11 10  1  0  0  0  0
 11 12  2  0  0  0  0
 13 16  1  0  0  0  0
 14 17  1  0  0  0  0
 14 13  1  0  0  0  0
 15 16  1  0  0  0  0
 16 11  1  0  0  0  0
 17 15  1  0  0  0  0
 18 19  2  0  0  0  0
 19  8  1  0  0  0  0
 20 21  1  0  0  0  0
 21 22  1  0  0  0  0
 22 23  1  0  0  0  0
 23 25  1  0  0  0  0
 25 24  1  6  0  0  0
 25 26  1  0  0  0  0
 27 33  1  1  0  0  0
 27 26  1  0  0  0  0
 27 28  1  0  0  0  0
 28 31  1  0  0  0  0
 28 29  1  6  0  0  0
 30 31  1  0  0  0  0
 31 32  2  0  0  0  0
 34 33  1  0  0  0  0
 37 35  1  0  0  0  0
 37 36  2  0  0  0  0
 38 36  1  0  0  0  0
 38 43  1  0  0  0  0
 39 41  2  0  0  0  0
 39 40  1  0  0  0  0
 40 38  2  0  0  0  0
 41 37  1  0  0  0  0
 42 43  2  0  0  0  0
 43 44  1  0  0  0  0
M  END
>  <MODEL>
6

>  <REMARK>
 VINA RESULT:      -6.3      2.460      4.443
  Name = 
  16 active torsions:
  status: ('A' for Active; 'I' for Inactive)
    1  A    between atoms: N_4  and  C_36
    2  A    between atoms: C_5  and  C_14
    3  A    between atoms: C_5  and  C_23
    4  A    between atoms: C_6  and  N_7
    5  A    between atoms: N_7  and  C_35
    6  A    between atoms: C_8  and  C_29
    7  A    between atoms: C_9  and  C_38
    8  A    between atoms: C_14  and  C_16
    9  A    between atoms: C_14  and  O_31
   10  A    between atoms: C_15  and  C_22
   11  A    between atoms: C_15  and  C_40
   12  A    between atoms: C_17  and  S_18
   13  A    between atoms: C_17  and  C_22
   14  A    between atoms: S_18  and  C_39
   15  A    between atoms: C_21  and  C_37
   16  A    between atoms: O_31  and  C_40
                            x       y       z     vdW  Elec       q    Type
                         _______ _______ _______ _____ _____    ______ ____

>  <TORSDO>
F 16

$$$$
=
 OpenBabel11042417023D

 44 47  0  0  1  0  0  0  0  0999 V2000
  192.3920  176.3610  146.4670 C   0  0  0  0  0  3  0  0  0  0  0  0
  191.0490  174.9850  144.4060 C   0  0  0  0  0  0  0  0  0  0  0  0
  191.0450  176.9420  146.0760 C   0  0  0  0  0  2  0  0  0  0  0  0
  192.2380  174.5490  144.8050 C   0  0  0  0  0  3  0  0  0  0  0  0
  190.4080  176.1330  144.9890 C   0  0  0  0  0  0  0  0  0  0  0  0
  192.9430  175.2670  145.8970 C   0  0  0  0  0  0  0  0  0  0  0  0
  189.2280  176.2880  144.4080 C   0  0  0  0  0  0  0  0  0  0  0  0
  189.0650  175.2420  143.3700 C   0  0  0  0  0  0  0  0  0  0  0  0
  190.1570  174.4630  143.3850 C   0  0  0  0  0  0  0  0  0  0  0  0
  188.3300  177.3630  144.7120 N   0  0  0  0  0  2  0  0  0  0  0  0
  187.3710  177.3650  145.7720 C   0  0  0  0  0  0  0  0  0  0  0  0
  187.4540  176.5340  146.7200 O   0  0  0  0  0  0  0  0  0  0  0  0
  185.9360  178.8570  144.3840 C   0  0  0  0  0  2  0  0  0  0  0  0
  184.4210  178.9380  144.3470 C   0  0  0  0  0  2  0  0  0  0  0  0
  185.0440  177.9090  146.4330 C   0  0  0  0  0  2  0  0  0  0  0  0
  186.3130  178.4200  145.7890 C   0  0  0  0  0  3  0  0  0  0  0  0
  183.9330  178.6750  145.7570 C   0  0  0  0  0  2  0  0  0  0  0  0
  187.1560  174.1730  142.4050 O   0  0  0  0  0  0  0  0  0  0  0  0
  187.9380  175.1590  142.4260 C   0  0  0  0  0  3  0  0  0  0  0  0
  190.5280  173.0730  142.3130 S   0  0  0  0  0  0  0  0  0  0  0  0
  191.0240  174.1680  140.9480 C   0  0  0  0  0  2  0  0  0  0  0  0
  192.4050  173.7850  140.4510 C   0  0  0  0  0  2  0  0  0  0  0  0
  193.4300  173.9540  141.5590 C   0  0  0  0  0  2  0  0  0  0  0  0
  195.2670  172.8160  140.5820 O   0  0  0  0  0  1  0  0  0  0  0  0
  194.3360  172.7360  141.6200 C   0  0  2  0  0  3  0  0  0  0  0  0
  193.5730  171.5700  141.4700 O   0  0  0  0  0  0  0  0  0  0  0  0
  194.0200  170.6820  142.4620 C   0  0  1  0  0  3  0  0  0  0  0  0
  193.5380  171.1560  143.8370 C   0  0  1  0  0  3  0  0  0  0  0  0
  192.3990  170.4450  144.2280 O   0  0  0  0  0  1  0  0  0  0  0  0
  195.9890  170.6560  144.4750 C   0  0  0  0  0  1  0  0  0  0  0  0
  194.6000  171.0030  144.8830 C   0  0  0  0  0  0  0  0  0  0  0  0
  194.3410  171.1820  146.0640 O   0  0  0  0  0  0  0  0  0  0  0  0
  193.4560  169.2900  142.1860 C   0  0  0  0  0  2  0  0  0  0  0  0
  194.5700  168.3250  141.8280 C   0  0  0  0  0  1  0  0  0  0  0  0
  194.2310  174.8380  146.3640 N   0  0  0  0  0  2  0  0  0  0  0  0
  195.5260  175.2810  144.3450 C   0  0  0  0  0  3  0  0  0  0  0  0
  195.4400  174.6750  145.6030 C   0  0  0  0  0  0  0  0  0  0  0  0
  196.6860  175.1590  143.5660 C   0  0  0  0  0  0  0  0  0  0  0  0
  197.6980  173.8220  145.3210 C   0  0  0  0  0  3  0  0  0  0  0  0
  197.7720  174.4240  144.0620 C   0  0  0  0  0  3  0  0  0  0  0  0
  196.5380  173.9500  146.0890 C   0  0  0  0  0  3  0  0  0  0  0  0
  196.0390  176.7900  141.9680 O   0  0  0  0  0  0  0  0  0  0  0  0
  196.7630  175.7960  142.2380 C   0  0  0  0  0  0  0  0  0  0  0  0
  197.6590  175.2960  141.2500 N   0  0  0  0  0  1  0  0  0  0  0  0
  2  4  2  0  0  0  0
  2  5  1  0  0  0  0
  3  1  1  0  0  0  0
  4  6  1  0  0  0  0
  5  3  1  0  0  0  0
  6 35  1  0  0  0  0
  6  1  2  0  0  0  0
  7 10  1  0  0  0  0
  7  5  2  0  0  0  0
  8  9  2  0  0  0  0
  8  7  1  0  0  0  0
  9  2  1  0  0  0  0
 10 11  1  0  0  0  0
 11 16  1  0  0  0  0
 11 12  2  0  0  0  0
 13 16  1  0  0  0  0
 14 13  1  0  0  0  0
 14 17  1  0  0  0  0
 16 15  1  0  0  0  0
 17 15  1  0  0  0  0
 18 19  2  0  0  0  0
 19  8  1  0  0  0  0
 20  9  1  0  0  0  0
 21 20  1  0  0  0  0
 22 21  1  0  0  0  0
 22 23  1  0  0  0  0
 23 25  1  0  0  0  0
 25 24  1  6  0  0  0
 26 25  1  0  0  0  0
 26 27  1  0  0  0  0
 27 33  1  6  0  0  0
 27 28  1  0  0  0  0
 28 29  1  1  0  0  0
 28 31  1  0  0  0  0
 30 31  1  0  0  0  0
 31 32  2  0  0  0  0
 34 33  1  0  0  0  0
 36 37  1  0  0  0  0
 37 41  2  0  0  0  0
 37 35  1  0  0  0  0
 38 40  1  0  0  0  0
 38 36  2  0  0  0  0
 39 41  1  0  0  0  0
 40 39  2  0  0  0  0
 42 43  2  0  0  0  0
 43 38  1  0  0  0  0
 44 43  1  0  0  0  0
M  END
>  <MODEL>
7

>  <REMARK>
 VINA RESULT:      -6.3      2.734      8.460
  Name = 
  16 active torsions:
  status: ('A' for Active; 'I' for Inactive)
    1  A    between atoms: N_4  and  C_36
    2  A    between atoms: C_5  and  C_14
    3  A    between atoms: C_5  and  C_23
    4  A    between atoms: C_6  and  N_7
    5  A    between atoms: N_7  and  C_35
    6  A    between atoms: C_8  and  C_29
    7  A    between atoms: C_9  and  C_38
    8  A    between atoms: C_14  and  C_16
    9  A    between atoms: C_14  and  O_31
   10  A    between atoms: C_15  and  C_22
   11  A    between atoms: C_15  and  C_40
   12  A    between atoms: C_17  and  S_18
   13  A    between atoms: C_17  and  C_22
   14  A    between atoms: S_18  and  C_39
   15  A    between atoms: C_21  and  C_37
   16  A    between atoms: O_31  and  C_40
                            x       y       z     vdW  Elec       q    Type
                         _______ _______ _______ _____ _____    ______ ____

>  <TORSDO>
F 16

$$$$
=
 OpenBabel11042417023D

 44 47  0  0  1  0  0  0  0  0999 V2000
  190.0550  177.8370  142.8790 C   0  0  0  0  0  3  0  0  0  0  0  0
  189.7670  175.0350  142.7570 C   0  0  0  0  0  0  0  0  0  0  0  0
  191.3280  177.0470  143.1290 C   0  0  0  0  0  2  0  0  0  0  0  0
  188.7020  175.8030  142.5590 C   0  0  0  0  0  3  0  0  0  0  0  0
  191.0730  175.5750  143.0260 C   0  0  0  0  0  0  0  0  0  0  0  0
  188.8540  177.2790  142.6130 C   0  0  0  0  0  0  0  0  0  0  0  0
  191.9230  174.5650  143.1380 C   0  0  0  0  0  0  0  0  0  0  0  0
  191.1770  173.2930  142.9790 C   0  0  0  0  0  0  0  0  0  0  0  0
  189.8910  173.5880  142.7420 C   0  0  0  0  0  0  0  0  0  0  0  0
  193.3130  174.7290  143.4490 N   0  0  0  0  0  2  0  0  0  0  0  0
  193.8610  174.8110  144.7670 C   0  0  0  0  0  0  0  0  0  0  0  0
  193.1910  174.4340  145.7690 O   0  0  0  0  0  0  0  0  0  0  0  0
  196.0900  174.2770  145.7450 C   0  0  0  0  0  2  0  0  0  0  0  0
  197.4200  174.1260  145.0300 C   0  0  0  0  0  2  0  0  0  0  0  0
  195.9650  175.4060  143.5990 C   0  0  0  0  0  2  0  0  0  0  0  0
  195.2720  175.2700  144.9360 C   0  0  0  0  0  3  0  0  0  0  0  0
  197.4190  175.1220  143.8870 C   0  0  0  0  0  2  0  0  0  0  0  0
  191.5810  171.0300  142.3190 O   0  0  0  0  0  0  0  0  0  0  0  0
  191.7530  171.9500  143.1600 C   0  0  0  0  0  3  0  0  0  0  0  0
  188.5260  172.4450  142.5210 S   0  0  0  0  0  0  0  0  0  0  0  0
  188.3120  172.9270  140.7800 C   0  0  0  0  0  2  0  0  0  0  0  0
  189.5050  172.4670  139.9640 C   0  0  0  0  0  2  0  0  0  0  0  0
  189.8070  173.4660  138.8620 C   0  0  0  0  0  2  0  0  0  0  0  0
  191.5070  172.5570  137.4810 O   0  0  0  0  0  1  0  0  0  0  0  0
  191.2910  173.4480  138.5350 C   0  0  2  0  0  3  0  0  0  0  0  0
  192.0170  173.0250  139.6560 O   0  0  0  0  0  0  0  0  0  0  0  0
  193.3710  173.2340  139.3440 C   0  0  1  0  0  3  0  0  0  0  0  0
  193.6250  174.7260  139.1120 C   0  0  1  0  0  3  0  0  0  0  0  0
  194.3160  175.2790  140.1950 O   0  0  0  0  0  1  0  0  0  0  0  0
  193.7470  175.6560  136.7060 C   0  0  0  0  0  1  0  0  0  0  0  0
  194.4020  174.9700  137.8540 C   0  0  0  0  0  0  0  0  0  0  0  0
  195.5730  174.6320  137.7700 O   0  0  0  0  0  0  0  0  0  0  0  0
  194.2380  172.7510  140.5050 C   0  0  0  0  0  2  0  0  0  0  0  0
  194.6230  171.2970  140.3150 C   0  0  0  0  0  1  0  0  0  0  0  0
  187.7340  178.1540  142.4080 N   0  0  0  0  0  2  0  0  0  0  0  0
  186.7520  178.2730  144.6370 C   0  0  0  0  0  3  0  0  0  0  0  0
  186.5820  178.3310  143.2500 C   0  0  0  0  0  0  0  0  0  0  0  0
  185.6620  178.4460  145.5030 C   0  0  0  0  0  0  0  0  0  0  0  0
  184.2110  178.7530  143.5800 C   0  0  0  0  0  3  0  0  0  0  0  0
  184.3890  178.6850  144.9640 C   0  0  0  0  0  3  0  0  0  0  0  0
  185.3040  178.5790  142.7270 C   0  0  0  0  0  3  0  0  0  0  0  0
  185.9360  179.4320  147.6440 O   0  0  0  0  0  0  0  0  0  0  0  0
  185.8500  178.3760  146.9630 C   0  0  0  0  0  0  0  0  0  0  0  0
  185.9330  177.1140  147.6200 N   0  0  0  0  0  1  0  0  0  0  0  0
  1  3  1  0  0  0  0
  2  5  1  0  0  0  0
  4  6  1  0  0  0  0
  4  2  2  0  0  0  0
  5  3  1  0  0  0  0
  5  7  2  0  0  0  0
  6  1  2  0  0  0  0
  7 10  1  0  0  0  0
  8  7  1  0  0  0  0
  8 19  1  0  0  0  0
  9  2  1  0  0  0  0
  9  8  2  0  0  0  0
 10 11  1  0  0  0  0
 11 16  1  0  0  0  0
 11 12  2  0  0  0  0
 14 13  1  0  0  0  0
 15 17  1  0  0  0  0
 15 16  1  0  0  0  0
 16 13  1  0  0  0  0
 17 14  1  0  0  0  0
 18 19  2  0  0  0  0
 20  9  1  0  0  0  0
 21 20  1  0  0  0  0
 22 21  1  0  0  0  0
 23 22  1  0  0  0  0
 25 24  1  6  0  0  0
 25 23  1  0  0  0  0
 25 26  1  0  0  0  0
 27 26  1  0  0  0  0
 27 33  1  1  0  0  0
 28 27  1  0  0  0  0
 28 29  1  1  0  0  0
 30 31  1  0  0  0  0
 31 28  1  0  0  0  0
 32 31  2  0  0  0  0
 34 33  1  0  0  0  0
 35  6  1  0  0  0  0
 35 37  1  0  0  0  0
 36 38  1  0  0  0  0
 37 36  2  0  0  0  0
 38 43  1  0  0  0  0
 39 40  1  0  0  0  0
 40 38  2  0  0  0  0
 41 37  1  0  0  0  0
 41 39  2  0  0  0  0
 43 44  1  0  0  0  0
 43 42  2  0  0  0  0
M  END
>  <MODEL>
8

>  <REMARK>
 VINA RESULT:      -6.3      2.282      5.321
  Name = 
  16 active torsions:
  status: ('A' for Active; 'I' for Inactive)
    1  A    between atoms: N_4  and  C_36
    2  A    between atoms: C_5  and  C_14
    3  A    between atoms: C_5  and  C_23
    4  A    between atoms: C_6  and  N_7
    5  A    between atoms: N_7  and  C_35
    6  A    between atoms: C_8  and  C_29
    7  A    between atoms: C_9  and  C_38
    8  A    between atoms: C_14  and  C_16
    9  A    between atoms: C_14  and  O_31
   10  A    between atoms: C_15  and  C_22
   11  A    between atoms: C_15  and  C_40
   12  A    between atoms: C_17  and  S_18
   13  A    between atoms: C_17  and  C_22
   14  A    between atoms: S_18  and  C_39
   15  A    between atoms: C_21  and  C_37
   16  A    between atoms: O_31  and  C_40
                            x       y       z     vdW  Elec       q    Type
                         _______ _______ _______ _____ _____    ______ ____

>  <TORSDO>
F 16

$$$$
=
 OpenBabel11042417023D

 44 47  0  0  1  0  0  0  0  0999 V2000
  192.6550  176.4200  145.5680 C   0  0  0  0  0  3  0  0  0  0  0  0
  191.0220  175.4230  143.4980 C   0  0  0  0  0  0  0  0  0  0  0  0
  191.2220  176.9230  145.5790 C   0  0  0  0  0  2  0  0  0  0  0  0
  192.2920  175.0410  143.5590 C   0  0  0  0  0  3  0  0  0  0  0  0
  190.4360  176.3250  144.4540 C   0  0  0  0  0  0  0  0  0  0  0  0
  193.1510  175.5580  144.6540 C   0  0  0  0  0  0  0  0  0  0  0  0
  189.1570  176.4790  144.1480 C   0  0  0  0  0  0  0  0  0  0  0  0
  188.8600  175.6930  142.9260 C   0  0  0  0  0  0  0  0  0  0  0  0
  189.9810  175.0580  142.5530 C   0  0  0  0  0  0  0  0  0  0  0  0
  188.2690  177.3460  144.8650 N   0  0  0  0  0  2  0  0  0  0  0  0
  187.5340  176.9910  146.0380 C   0  0  0  0  0  0  0  0  0  0  0  0
  187.8510  175.9720  146.7140 O   0  0  0  0  0  0  0  0  0  0  0  0
  186.1010  178.9480  145.4670 C   0  0  0  0  0  2  0  0  0  0  0  0
  184.5870  179.0150  145.3900 C   0  0  0  0  0  2  0  0  0  0  0  0
  185.1630  177.1130  146.7500 C   0  0  0  0  0  2  0  0  0  0  0  0
  186.4370  177.8900  146.5050 C   0  0  0  0  0  3  0  0  0  0  0  0
  184.0520  178.0940  146.4680 C   0  0  0  0  0  2  0  0  0  0  0  0
  187.4170  176.3530  141.1360 O   0  0  0  0  0  0  0  0  0  0  0  0
  187.5760  175.7080  142.2050 C   0  0  0  0  0  3  0  0  0  0  0  0
  190.2220  174.0080  141.1180 S   0  0  0  0  0  0  0  0  0  0  0  0
  189.9960  172.4950  142.1000 C   0  0  0  0  0  2  0  0  0  0  0  0
  190.7660  171.3490  141.4710 C   0  0  0  0  0  2  0  0  0  0  0  0
  190.3720  171.1840  140.0140 C   0  0  0  0  0  2  0  0  0  0  0  0
  192.6620  170.5660  139.9990 O   0  0  0  0  0  1  0  0  0  0  0  0
  191.6080  170.9450  139.1640 C   0  0  2  0  0  3  0  0  0  0  0  0
  191.9520  172.1240  138.4890 O   0  0  0  0  0  0  0  0  0  0  0  0
  190.9920  172.2850  137.4750 C   0  0  1  0  0  3  0  0  0  0  0  0
  190.7640  173.7770  137.2090 C   0  0  1  0  0  3  0  0  0  0  0  0
  191.4720  174.1860  136.0750 O   0  0  0  0  0  1  0  0  0  0  0  0
  188.3110  173.5390  137.9810 C   0  0  0  0  0  1  0  0  0  0  0  0
  189.3110  174.0940  137.0270 C   0  0  0  0  0  0  0  0  0  0  0  0
  188.9430  174.8210  136.1170 O   0  0  0  0  0  0  0  0  0  0  0  0
  191.4930  171.6180  136.1950 C   0  0  0  0  0  2  0  0  0  0  0  0
  190.3800  170.8260  135.5370 C   0  0  0  0  0  1  0  0  0  0  0  0
  194.5320  175.1780  144.7640 N   0  0  0  0  0  2  0  0  0  0  0  0
  194.3180  172.7540  144.9230 C   0  0  0  0  0  3  0  0  0  0  0  0
  195.0720  173.9080  145.1640 C   0  0  0  0  0  0  0  0  0  0  0  0
  194.8020  171.4890  145.2880 C   0  0  0  0  0  0  0  0  0  0  0  0
  196.8250  172.5320  146.1350 C   0  0  0  0  0  3  0  0  0  0  0  0
  196.0610  171.3860  145.8980 C   0  0  0  0  0  3  0  0  0  0  0  0
  196.3320  173.7860  145.7680 C   0  0  0  0  0  3  0  0  0  0  0  0
  193.0650  170.3030  144.1890 O   0  0  0  0  0  0  0  0  0  0  0  0
  193.9960  170.2800  145.0370 C   0  0  0  0  0  0  0  0  0  0  0  0
  194.2640  169.0730  145.7450 N   0  0  0  0  0  1  0  0  0  0  0  0
  1  3  1  0  0  0  0
  2  4  2  0  0  0  0
  2  5  1  0  0  0  0
  4  6  1  0  0  0  0
  5  3  1  0  0  0  0
  6 35  1  0  0  0  0
  6  1  2  0  0  0  0
  7  5  2  0  0  0  0
  7 10  1  0  0  0  0
  8  7  1  0  0  0  0
  9  8  2  0  0  0  0
  9  2  1  0  0  0  0
 10 11  1  0  0  0  0
 11 16  1  0  0  0  0
 11 12  2  0  0  0  0
 13 16  1  0  0  0  0
 14 13  1  0  0  0  0
 14 17  1  0  0  0  0
 16 15  1  0  0  0  0
 17 15  1  0  0  0  0
 18 19  2  0  0  0  0
 19  8  1  0  0  0  0
 20 21  1  0  0  0  0
 20  9  1  0  0  0  0
 22 21  1  0  0  0  0
 23 22  1  0  0  0  0
 25 24  1  1  0  0  0
 25 23  1  0  0  0  0
 26 25  1  0  0  0  0
 27 33  1  6  0  0  0
 27 26  1  0  0  0  0
 28 29  1  6  0  0  0
 28 27  1  0  0  0  0
 31 28  1  0  0  0  0
 31 30  1  0  0  0  0
 32 31  2  0  0  0  0
 34 33  1  0  0  0  0
 35 37  1  0  0  0  0
 36 37  2  0  0  0  0
 36 38  1  0  0  0  0
 37 41  1  0  0  0  0
 38 40  2  0  0  0  0
 40 39  1  0  0  0  0
 41 39  2  0  0  0  0
 42 43  2  0  0  0  0
 43 38  1  0  0  0  0
 43 44  1  0  0  0  0
M  END
>  <MODEL>
9

>  <REMARK>
 VINA RESULT:      -6.3      2.900      8.990
  Name = 
  16 active torsions:
  status: ('A' for Active; 'I' for Inactive)
    1  A    between atoms: N_4  and  C_36
    2  A    between atoms: C_5  and  C_14
    3  A    between atoms: C_5  and  C_23
    4  A    between atoms: C_6  and  N_7
    5  A    between atoms: N_7  and  C_35
    6  A    between atoms: C_8  and  C_29
    7  A    between atoms: C_9  and  C_38
    8  A    between atoms: C_14  and  C_16
    9  A    between atoms: C_14  and  O_31
   10  A    between atoms: C_15  and  C_22
   11  A    between atoms: C_15  and  C_40
   12  A    between atoms: C_17  and  S_18
   13  A    between atoms: C_17  and  C_22
   14  A    between atoms: S_18  and  C_39
   15  A    between atoms: C_21  and  C_37
   16  A    between atoms: O_31  and  C_40
                            x       y       z     vdW  Elec       q    Type
                         _______ _______ _______ _____ _____    ______ ____

>  <TORSDO>
F 16

$$$$
