=
 OpenBabel11042415273D

 44 45  0  0  1  0  0  0  0  0999 V2000
  191.9800  176.0220  145.5380 N   0  0  0  0  0  0  0  0  0  0  0  0
  194.1420  175.8710  146.5860 N   0  0  0  0  0  0  0  0  0  0  0  0
  192.8740  176.1560  146.6500 C   0  0  0  0  0  3  0  0  0  0  0  0
  194.8830  175.5470  145.4010 C   0  0  0  0  0  0  0  0  0  0  0  0
  196.3010  174.7940  143.1190 C   0  0  0  0  0  0  0  0  0  0  0  0
  196.0110  176.2490  143.3440 C   0  0  0  0  0  2  0  0  0  0  0  0
  196.9480  174.4290  142.0660 N   0  0  0  0  0  2  0  0  0  0  0  0
  195.3970  174.1790  145.2320 C   0  0  0  0  0  3  0  0  0  0  0  0
  195.1750  176.4680  144.5280 N   0  0  0  0  0  0  0  0  0  0  0  0
  196.0480  173.8460  144.1600 N   0  0  0  0  0  0  0  0  0  0  0  0
  190.8580  176.9420  145.4560 C   0  0  0  0  0  2  0  0  0  0  0  0
  190.0870  176.9360  146.7660 C   0  0  0  0  0  2  0  0  0  0  0  0
  188.6840  176.3870  146.5570 C   0  0  0  0  0  2  0  0  0  0  0  0
  187.6800  177.5020  146.2870 C   0  0  1  0  0  3  0  0  0  0  0  0
  187.1410  177.4230  144.8840 C   0  0  0  0  0  3  0  0  0  0  0  0
  187.3920  176.3830  144.0840 C   0  0  0  0  0  3  0  0  0  0  0  0
  185.3490  177.3720  142.5970 S   0  0  0  0  0  0  0  0  0  0  0  0
  186.8380  176.3310  142.7000 C   0  0  1  0  0  3  0  0  0  0  0  0
  187.8520  176.8470  141.6970 C   0  0  0  0  0  2  0  0  0  0  0  0
  185.9360  178.1810  141.0770 C   0  0  0  0  0  2  0  0  0  0  0  0
  187.0700  177.3580  140.5160 C   0  0  0  0  0  2  0  0  0  0  0  0
  186.5690  177.4440  147.3290 C   0  0  0  0  0  2  0  0  0  0  0  0
  185.2100  177.2230  146.6840 C   0  0  0  0  0  2  0  0  0  0  0  0
  184.3330  178.2450  147.0490 O   0  0  0  0  0  0  0  0  0  0  0  0
  183.9410  178.8190  145.8420 C   0  0  0  0  0  1  0  0  0  0  0  0
  191.8830  174.7320  144.8610 C   0  0  0  0  0  2  0  0  0  0  0  0
  190.7710  174.7330  143.8210 C   0  0  2  0  0  3  0  0  0  0  0  0
  189.8160  173.5790  144.0820 C   0  0  0  0  0  2  0  0  0  0  0  0
  189.7710  173.2890  145.4460 O   0  0  0  0  0  1  0  0  0  0  0  0
  191.3900  174.5980  142.4410 C   0  0  0  0  0  2  0  0  0  0  0  0
  191.5810  173.1930  142.1210 N   0  0  0  0  0  2  0  0  0  0  0  0
  191.0570  172.9820  140.7830 C   0  0  0  0  0  2  0  0  0  0  0  0
  192.1810  172.5550  139.8580 C   0  0  1  0  0  3  0  0  0  0  0  0
  191.6090  171.2820  138.7360 S   0  0  0  0  0  0  0  0  0  0  0  0
  191.6850  169.9450  139.4150 O   0  0  0  0  0  0  0  0  0  0  0  0
  192.4790  171.2660  137.5090 O   0  0  0  0  0  0  0  0  0  0  0  0
  189.9180  171.5970  138.2610 C   0  0  0  0  0  2  0  0  0  0  0  0
  189.6030  171.2550  135.9220 O   0  0  0  0  0  0  0  0  0  0  0  0
  190.0930  173.4020  136.5550 O   0  0  0  0  0  1  0  0  0  0  0  0
  189.8510  172.0690  136.8510 C   0  0  0  0  0  0  0  0  0  0  0  0
  192.6720  173.7690  139.0860 C   0  0  0  0  0  2  0  0  0  0  0  0
  194.4140  175.2410  139.7770 O   0  0  0  0  0  1  0  0  0  0  0  0
  195.0520  173.0760  139.3740 O   0  0  0  0  0  0  0  0  0  0  0  0
  194.0890  174.0770  139.4290 C   0  0  0  0  0  0  0  0  0  0  0  0
  1  3  1  0  0  0  0
  2  3  2  0  0  0  0
  4  2  1  0  0  0  0
  5  6  1  0  0  0  0
  5 10  1  0  0  0  0
  6  9  1  0  0  0  0
  7  5  2  0  0  0  0
  8  4  1  0  0  0  0
  9  4  2  0  0  0  0
 10  8  2  0  0  0  0
 11  1  1  0  0  0  0
 11 12  1  0  0  0  0
 13 12  1  0  0  0  0
 14 15  1  6  0  0  0
 14 13  1  0  0  0  0
 14 22  1  0  0  0  0
 16 15  2  0  0  0  0
 17 18  1  0  0  0  0
 18 16  1  1  0  0  0
 19 18  1  0  0  0  0
 20 17  1  0  0  0  0
 21 20  1  0  0  0  0
 21 19  1  0  0  0  0
 23 24  1  0  0  0  0
 23 22  1  0  0  0  0
 25 24  1  0  0  0  0
 26  1  1  0  0  0  0
 27 30  1  6  0  0  0
 27 28  1  0  0  0  0
 27 26  1  0  0  0  0
 28 29  1  0  0  0  0
 31 30  1  0  0  0  0
 32 31  1  0  0  0  0
 33 41  1  6  0  0  0
 33 32  1  0  0  0  0
 34 35  2  0  0  0  0
 34 33  1  0  0  0  0
 36 34  2  0  0  0  0
 37 34  1  0  0  0  0
 38 40  2  0  0  0  0
 39 40  1  0  0  0  0
 40 37  1  0  0  0  0
 41 44  1  0  0  0  0
 43 44  2  0  0  0  0
 44 42  1  0  0  0  0
M  END
>  <MODEL>
1

>  <REMARK>
 VINA RESULT:      -5.3      0.000      0.000
  Name = 
  22 active torsions:
  status: ('A' for Active; 'I' for Inactive)
    1  A    between atoms: C_1  and  C_3
    2  A    between atoms: C_1  and  C_9
    3  A    between atoms: C_1  and  C_18
    4  A    between atoms: C_5  and  C_18
    5  A    between atoms: C_5  and  C_38
    6  A    between atoms: C_6  and  N_32
    7  A    between atoms: C_6  and  C_43
    8  A    between atoms: C_7  and  N_13
    9  A    between atoms: C_7  and  C_35
   10  A    between atoms: C_8  and  N_29
   11  A    between atoms: C_9  and  C_36
   12  A    between atoms: C_10  and  C_25
   13  A    between atoms: C_11  and  S_15
   14  A    between atoms: C_11  and  C_30
   15  A    between atoms: O_12  and  C_36
   16  A    between atoms: N_13  and  C_38
   17  A    between atoms: S_15  and  C_43
   18  A    between atoms: C_22  and  C_35
   19  A    between atoms: C_23  and  C_40
   20  A    between atoms: C_23  and  C_43
   21  A    between atoms: C_26  and  N_32
   22  A    between atoms: C_26  and  C_35
                            x       y       z     vdW  Elec       q    Type
                         _______ _______ _______ _____ _____    ______ ____

>  <TORSDO>
F 22

$$$$
=
 OpenBabel11042415273D

 44 45  0  0  1  0  0  0  0  0999 V2000
  190.0730  176.7860  143.5140 N   0  0  0  0  0  0  0  0  0  0  0  0
  189.3060  175.2760  145.2230 N   0  0  0  0  0  0  0  0  0  0  0  0
  189.3280  175.6540  143.9780 C   0  0  0  0  0  3  0  0  0  0  0  0
  189.8600  175.9870  146.3400 C   0  0  0  0  0  0  0  0  0  0  0  0
  191.0300  177.2850  148.5150 C   0  0  0  0  0  0  0  0  0  0  0  0
  189.8890  177.9520  147.8010 C   0  0  0  0  0  2  0  0  0  0  0  0
  191.5870  177.8760  149.5160 N   0  0  0  0  0  2  0  0  0  0  0  0
  190.8190  175.3010  147.2190 C   0  0  0  0  0  3  0  0  0  0  0  0
  189.4550  177.1910  146.6260 N   0  0  0  0  0  0  0  0  0  0  0  0
  191.3580  175.9240  148.2210 N   0  0  0  0  0  0  0  0  0  0  0  0
  189.5440  177.5260  142.3800 C   0  0  0  0  0  2  0  0  0  0  0  0
  188.3360  176.8010  141.8070 C   0  0  0  0  0  2  0  0  0  0  0  0
  187.3310  177.7960  141.2480 C   0  0  0  0  0  2  0  0  0  0  0  0
  185.9060  177.4470  141.6600 C   0  0  1  0  0  3  0  0  0  0  0  0
  185.6540  177.7960  143.1020 C   0  0  0  0  0  3  0  0  0  0  0  0
  185.9680  178.9910  143.6090 C   0  0  0  0  0  3  0  0  0  0  0  0
  183.9630  178.9380  145.4350 S   0  0  0  0  0  0  0  0  0  0  0  0
  185.7000  179.3100  145.0420 C   0  0  1  0  0  3  0  0  0  0  0  0
  186.5850  178.4780  145.9500 C   0  0  0  0  0  2  0  0  0  0  0  0
  184.4270  178.0240  146.9380 C   0  0  0  0  0  2  0  0  0  0  0  0
  185.8620  178.3600  147.2670 C   0  0  0  0  0  2  0  0  0  0  0  0
  184.9250  178.1420  140.7240 C   0  0  0  0  0  2  0  0  0  0  0  0
  183.4940  178.0150  141.2220 C   0  0  0  0  0  2  0  0  0  0  0  0
  182.6030  178.4480  140.2390 O   0  0  0  0  0  0  0  0  0  0  0  0
  181.4500  178.7970  140.9390 C   0  0  0  0  0  1  0  0  0  0  0  0
  191.5050  176.8530  143.7900 C   0  0  0  0  0  2  0  0  0  0  0  0
  192.1800  175.5100  143.5490 C   0  0  2  0  0  3  0  0  0  0  0  0
  193.3100  175.3110  144.5470 C   0  0  0  0  0  2  0  0  0  0  0  0
  193.3850  173.9720  144.9310 O   0  0  0  0  0  1  0  0  0  0  0  0
  192.7230  175.4810  142.1310 C   0  0  0  0  0  2  0  0  0  0  0  0
  192.5890  174.1440  141.5780 N   0  0  0  0  0  2  0  0  0  0  0  0
  191.4990  174.1840  140.6180 C   0  0  0  0  0  2  0  0  0  0  0  0
  190.4280  173.1900  141.0240 C   0  0  1  0  0  3  0  0  0  0  0  0
  189.8320  172.3020  139.5870 S   0  0  0  0  0  0  0  0  0  0  0  0
  188.3510  172.5100  139.4490 O   0  0  0  0  0  0  0  0  0  0  0  0
  190.1130  170.8340  139.7520 O   0  0  0  0  0  0  0  0  0  0  0  0
  190.6430  172.9020  138.1160 C   0  0  0  0  0  2  0  0  0  0  0  0
  189.1580  173.2120  136.2740 O   0  0  0  0  0  0  0  0  0  0  0  0
  190.0830  171.1240  136.4650 O   0  0  0  0  0  1  0  0  0  0  0  0
  189.9270  172.4320  136.8970 C   0  0  0  0  0  0  0  0  0  0  0  0
  191.0110  172.2270  142.0460 C   0  0  0  0  0  2  0  0  0  0  0  0
  188.8830  172.0780  143.1080 O   0  0  0  0  0  0  0  0  0  0  0  0
  190.6910  172.0940  144.5170 O   0  0  0  0  0  1  0  0  0  0  0  0
  190.1320  172.1330  143.2460 C   0  0  0  0  0  0  0  0  0  0  0  0
  1 26  1  0  0  0  0
  1  3  1  0  0  0  0
  2  4  1  0  0  0  0
  3  2  2  0  0  0  0
  4  9  2  0  0  0  0
  4  8  1  0  0  0  0
  5  7  2  0  0  0  0
  6  5  1  0  0  0  0
  8 10  2  0  0  0  0
  9  6  1  0  0  0  0
 10  5  1  0  0  0  0
 11  1  1  0  0  0  0
 12 11  1  0  0  0  0
 13 14  1  0  0  0  0
 13 12  1  0  0  0  0
 14 22  1  6  0  0  0
 14 15  1  0  0  0  0
 15 16  2  0  0  0  0
 17 20  1  0  0  0  0
 18 16  1  6  0  0  0
 18 17  1  0  0  0  0
 18 19  1  0  0  0  0
 19 21  1  0  0  0  0
 20 21  1  0  0  0  0
 22 23  1  0  0  0  0
 24 25  1  0  0  0  0
 24 23  1  0  0  0  0
 27 30  1  6  0  0  0
 27 26  1  0  0  0  0
 27 28  1  0  0  0  0
 28 29  1  0  0  0  0
 31 30  1  0  0  0  0
 32 31  1  0  0  0  0
 33 32  1  6  0  0  0
 33 41  1  0  0  0  0
 34 36  2  0  0  0  0
 34 33  1  0  0  0  0
 35 34  2  0  0  0  0
 37 34  1  0  0  0  0
 38 40  2  0  0  0  0
 39 40  1  0  0  0  0
 40 37  1  0  0  0  0
 41 44  1  0  0  0  0
 42 44  2  0  0  0  0
 44 43  1  0  0  0  0
M  END
>  <MODEL>
2

>  <REMARK>
 VINA RESULT:      -5.2      2.648      4.889
  Name = 
  22 active torsions:
  status: ('A' for Active; 'I' for Inactive)
    1  A    between atoms: C_1  and  C_3
    2  A    between atoms: C_1  and  C_9
    3  A    between atoms: C_1  and  C_18
    4  A    between atoms: C_5  and  C_18
    5  A    between atoms: C_5  and  C_38
    6  A    between atoms: C_6  and  N_32
    7  A    between atoms: C_6  and  C_43
    8  A    between atoms: C_7  and  N_13
    9  A    between atoms: C_7  and  C_35
   10  A    between atoms: C_8  and  N_29
   11  A    between atoms: C_9  and  C_36
   12  A    between atoms: C_10  and  C_25
   13  A    between atoms: C_11  and  S_15
   14  A    between atoms: C_11  and  C_30
   15  A    between atoms: O_12  and  C_36
   16  A    between atoms: N_13  and  C_38
   17  A    between atoms: S_15  and  C_43
   18  A    between atoms: C_22  and  C_35
   19  A    between atoms: C_23  and  C_40
   20  A    between atoms: C_23  and  C_43
   21  A    between atoms: C_26  and  N_32
   22  A    between atoms: C_26  and  C_35
                            x       y       z     vdW  Elec       q    Type
                         _______ _______ _______ _____ _____    ______ ____

>  <TORSDO>
F 22

$$$$
=
 OpenBabel11042415273D

 44 45  0  0  1  0  0  0  0  0999 V2000
  190.8630  174.6150  144.3050 N   0  0  0  0  0  0  0  0  0  0  0  0
  191.9690  176.3140  145.6010 N   0  0  0  0  0  0  0  0  0  0  0  0
  190.8760  175.7620  145.1620 C   0  0  0  0  0  3  0  0  0  0  0  0
  193.3070  175.9970  145.1920 C   0  0  0  0  0  0  0  0  0  0  0  0
  195.9160  175.2970  144.4910 C   0  0  0  0  0  0  0  0  0  0  0  0
  195.1230  176.1650  143.5570 C   0  0  0  0  0  2  0  0  0  0  0  0
  197.1200  174.9580  144.1780 N   0  0  0  0  0  2  0  0  0  0  0  0
  194.2130  175.3470  146.1510 C   0  0  0  0  0  3  0  0  0  0  0  0
  193.7460  176.3570  144.0190 N   0  0  0  0  0  0  0  0  0  0  0  0
  195.4200  175.0220  145.8040 N   0  0  0  0  0  0  0  0  0  0  0  0
  189.7710  174.4920  143.3530 C   0  0  0  0  0  2  0  0  0  0  0  0
  189.0840  175.8370  143.1790 C   0  0  0  0  0  2  0  0  0  0  0  0
  188.4000  175.9150  141.8230 C   0  0  0  0  0  2  0  0  0  0  0  0
  186.9560  176.3870  141.9480 C   0  0  1  0  0  3  0  0  0  0  0  0
  186.4720  176.2900  143.3690 C   0  0  0  0  0  3  0  0  0  0  0  0
  185.8440  177.3000  143.9780 C   0  0  0  0  0  3  0  0  0  0  0  0
  186.7940  176.9110  146.4890 S   0  0  0  0  0  0  0  0  0  0  0  0
  185.3700  177.1710  145.3860 C   0  0  1  0  0  3  0  0  0  0  0  0
  184.6480  178.4300  145.8250 C   0  0  0  0  0  2  0  0  0  0  0  0
  186.2180  178.1920  147.6460 C   0  0  0  0  0  2  0  0  0  0  0  0
  184.7750  178.5000  147.3250 C   0  0  0  0  0  2  0  0  0  0  0  0
  186.8390  177.8050  141.4010 C   0  0  0  0  0  2  0  0  0  0  0  0
  185.7460  177.9080  140.3490 C   0  0  0  0  0  2  0  0  0  0  0  0
  184.6950  178.6930  140.8240 O   0  0  0  0  0  0  0  0  0  0  0  0
  183.5450  178.0560  140.3630 C   0  0  0  0  0  1  0  0  0  0  0  0
  191.5650  173.4070  144.7290 C   0  0  0  0  0  2  0  0  0  0  0  0
  191.9820  172.5590  143.5360 C   0  0  2  0  0  3  0  0  0  0  0  0
  191.7920  171.0850  143.8550 C   0  0  0  0  0  2  0  0  0  0  0  0
  192.9470  170.5660  144.4420 O   0  0  0  0  0  1  0  0  0  0  0  0
  193.4410  172.8420  143.2200 C   0  0  0  0  0  2  0  0  0  0  0  0
  193.6270  172.9290  141.7810 N   0  0  0  0  0  2  0  0  0  0  0  0
  192.8630  174.0740  141.3180 C   0  0  0  0  0  2  0  0  0  0  0  0
  192.5750  173.9280  139.8360 C   0  0  1  0  0  3  0  0  0  0  0  0
  193.9790  174.4870  138.8750 S   0  0  0  0  0  0  0  0  0  0  0  0
  193.4940  175.2570  137.6800 O   0  0  0  0  0  0  0  0  0  0  0  0
  194.7750  173.2980  138.4100 O   0  0  0  0  0  0  0  0  0  0  0  0
  195.0170  175.5470  139.8670 C   0  0  0  0  0  2  0  0  0  0  0  0
  197.1070  175.4510  138.7220 O   0  0  0  0  0  0  0  0  0  0  0  0
  197.0360  174.3900  140.7520 O   0  0  0  0  0  1  0  0  0  0  0  0
  196.4440  175.1400  139.7470 C   0  0  0  0  0  0  0  0  0  0  0  0
  192.2660  172.4700  139.5360 C   0  0  0  0  0  2  0  0  0  0  0  0
  190.1360  171.4320  139.2870 O   0  0  0  0  0  1  0  0  0  0  0  0
  190.5390  173.2050  137.8910 O   0  0  0  0  0  0  0  0  0  0  0  0
  190.9250  172.3330  138.9010 C   0  0  0  0  0  0  0  0  0  0  0  0
  1 26  1  0  0  0  0
  1  3  1  0  0  0  0
  3  2  2  0  0  0  0
  4  2  1  0  0  0  0
  4  8  1  0  0  0  0
  5 10  1  0  0  0  0
  6  9  1  0  0  0  0
  6  5  1  0  0  0  0
  7  5  2  0  0  0  0
  9  4  2  0  0  0  0
 10  8  2  0  0  0  0
 11  1  1  0  0  0  0
 12 11  1  0  0  0  0
 13 14  1  0  0  0  0
 13 12  1  0  0  0  0
 14 22  1  1  0  0  0
 14 15  1  0  0  0  0
 15 16  2  0  0  0  0
 17 20  1  0  0  0  0
 18 16  1  6  0  0  0
 18 19  1  0  0  0  0
 18 17  1  0  0  0  0
 19 21  1  0  0  0  0
 21 20  1  0  0  0  0
 23 24  1  0  0  0  0
 23 22  1  0  0  0  0
 25 24  1  0  0  0  0
 27 30  1  1  0  0  0
 27 28  1  0  0  0  0
 27 26  1  0  0  0  0
 28 29  1  0  0  0  0
 31 30  1  0  0  0  0
 32 31  1  0  0  0  0
 33 41  1  1  0  0  0
 33 32  1  0  0  0  0
 34 33  1  0  0  0  0
 34 37  1  0  0  0  0
 35 34  2  0  0  0  0
 36 34  2  0  0  0  0
 38 40  2  0  0  0  0
 40 37  1  0  0  0  0
 40 39  1  0  0  0  0
 43 44  2  0  0  0  0
 44 42  1  0  0  0  0
 44 41  1  0  0  0  0
M  END
>  <MODEL>
3

>  <REMARK>
 VINA RESULT:      -5.2      2.184      4.412
  Name = 
  22 active torsions:
  status: ('A' for Active; 'I' for Inactive)
    1  A    between atoms: C_1  and  C_3
    2  A    between atoms: C_1  and  C_9
    3  A    between atoms: C_1  and  C_18
    4  A    between atoms: C_5  and  C_18
    5  A    between atoms: C_5  and  C_38
    6  A    between atoms: C_6  and  N_32
    7  A    between atoms: C_6  and  C_43
    8  A    between atoms: C_7  and  N_13
    9  A    between atoms: C_7  and  C_35
   10  A    between atoms: C_8  and  N_29
   11  A    between atoms: C_9  and  C_36
   12  A    between atoms: C_10  and  C_25
   13  A    between atoms: C_11  and  S_15
   14  A    between atoms: C_11  and  C_30
   15  A    between atoms: O_12  and  C_36
   16  A    between atoms: N_13  and  C_38
   17  A    between atoms: S_15  and  C_43
   18  A    between atoms: C_22  and  C_35
   19  A    between atoms: C_23  and  C_40
   20  A    between atoms: C_23  and  C_43
   21  A    between atoms: C_26  and  N_32
   22  A    between atoms: C_26  and  C_35
                            x       y       z     vdW  Elec       q    Type
                         _______ _______ _______ _____ _____    ______ ____

>  <TORSDO>
F 22

$$$$
=
 OpenBabel11042415273D

 44 45  0  0  1  0  0  0  0  0999 V2000
  191.2800  174.9850  143.9820 N   0  0  0  0  0  0  0  0  0  0  0  0
  193.2790  176.2960  143.7040 N   0  0  0  0  0  0  0  0  0  0  0  0
  192.0050  176.1230  143.5020 C   0  0  0  0  0  3  0  0  0  0  0  0
  194.1880  175.3430  144.2720 C   0  0  0  0  0  0  0  0  0  0  0  0
  195.9430  173.5470  145.4880 C   0  0  0  0  0  0  0  0  0  0  0  0
  195.4860  173.2740  144.0850 C   0  0  0  0  0  2  0  0  0  0  0  0
  196.7480  172.7230  146.0680 N   0  0  0  0  0  2  0  0  0  0  0  0
  194.8510  175.6600  145.5460 C   0  0  0  0  0  3  0  0  0  0  0  0
  194.4930  174.2520  143.6300 N   0  0  0  0  0  0  0  0  0  0  0  0
  195.6580  174.8080  146.1000 N   0  0  0  0  0  0  0  0  0  0  0  0
  190.1490  174.5200  143.1960 C   0  0  0  0  0  2  0  0  0  0  0  0
  190.2710  173.0260  142.9480 C   0  0  0  0  0  2  0  0  0  0  0  0
  191.4400  172.7320  142.0200 C   0  0  0  0  0  2  0  0  0  0  0  0
  191.2160  173.3180  140.6310 C   0  0  1  0  0  3  0  0  0  0  0  0
  192.4270  173.1310  139.7580 C   0  0  0  0  0  3  0  0  0  0  0  0
  193.0310  174.1560  139.1500 C   0  0  0  0  0  3  0  0  0  0  0  0
  193.8630  174.4240  136.5820 S   0  0  0  0  0  0  0  0  0  0  0  0
  194.2340  173.9390  138.2960 C   0  0  1  0  0  3  0  0  0  0  0  0
  195.3990  174.7760  138.7890 C   0  0  0  0  0  2  0  0  0  0  0  0
  195.3920  175.4020  136.4550 C   0  0  0  0  0  2  0  0  0  0  0  0
  196.2950  175.0110  137.6010 C   0  0  0  0  0  2  0  0  0  0  0  0
  189.9670  172.6970  140.0160 C   0  0  0  0  0  2  0  0  0  0  0  0
  188.9590  173.7590  139.6070 C   0  0  0  0  0  2  0  0  0  0  0  0
  188.1940  173.3070  138.5320 O   0  0  0  0  0  0  0  0  0  0  0  0
  188.8380  173.8140  137.4050 C   0  0  0  0  0  1  0  0  0  0  0  0
  191.3220  174.6700  145.4070 C   0  0  0  0  0  2  0  0  0  0  0  0
  190.7570  175.8080  146.2450 C   0  0  2  0  0  3  0  0  0  0  0  0
  191.7140  176.1430  147.3790 C   0  0  0  0  0  2  0  0  0  0  0  0
  191.1520  177.1060  148.2160 O   0  0  0  0  0  1  0  0  0  0  0  0
  189.4110  175.3830  146.8060 C   0  0  0  0  0  2  0  0  0  0  0  0
  188.3470  175.8030  145.9090 N   0  0  0  0  0  2  0  0  0  0  0  0
  188.5290  177.2230  145.6630 C   0  0  0  0  0  2  0  0  0  0  0  0
  187.2530  177.8060  145.0830 C   0  0  1  0  0  3  0  0  0  0  0  0
  187.1700  177.4840  143.3240 S   0  0  0  0  0  0  0  0  0  0  0  0
  186.5560  176.1330  143.0910 O   0  0  0  0  0  0  0  0  0  0  0  0
  188.5580  177.5050  142.7430 O   0  0  0  0  0  0  0  0  0  0  0  0
  186.1700  178.7230  142.5200 C   0  0  0  0  0  2  0  0  0  0  0  0
  184.3860  178.0230  141.1000 O   0  0  0  0  0  1  0  0  0  0  0  0
  186.4870  177.8820  140.1980 O   0  0  0  0  0  0  0  0  0  0  0  0
  185.6250  178.2020  141.2360 C   0  0  0  0  0  0  0  0  0  0  0  0
  186.0620  177.1910  145.7990 C   0  0  0  0  0  2  0  0  0  0  0  0
  184.5960  179.0650  145.6790 O   0  0  0  0  0  0  0  0  0  0  0  0
  185.0810  178.3260  147.7930 O   0  0  0  0  0  1  0  0  0  0  0  0
  185.2090  178.2480  146.4120 C   0  0  0  0  0  0  0  0  0  0  0  0
  1 26  1  0  0  0  0
  2  4  1  0  0  0  0
  3  2  2  0  0  0  0
  3  1  1  0  0  0  0
  4  8  1  0  0  0  0
  5  7  2  0  0  0  0
  5 10  1  0  0  0  0
  6  5  1  0  0  0  0
  8 10  2  0  0  0  0
  9  6  1  0  0  0  0
  9  4  2  0  0  0  0
 11  1  1  0  0  0  0
 12 11  1  0  0  0  0
 13 12  1  0  0  0  0
 14 15  1  6  0  0  0
 14 13  1  0  0  0  0
 16 15  2  0  0  0  0
 17 18  1  0  0  0  0
 18 19  1  0  0  0  0
 18 16  1  1  0  0  0
 20 17  1  0  0  0  0
 20 21  1  0  0  0  0
 21 19  1  0  0  0  0
 22 14  1  0  0  0  0
 23 22  1  0  0  0  0
 24 23  1  0  0  0  0
 25 24  1  0  0  0  0
 27 26  1  1  0  0  0
 27 30  1  0  0  0  0
 27 28  1  0  0  0  0
 28 29  1  0  0  0  0
 31 30  1  0  0  0  0
 32 31  1  0  0  0  0
 33 32  1  1  0  0  0
 33 41  1  0  0  0  0
 34 33  1  0  0  0  0
 35 34  2  0  0  0  0
 36 34  2  0  0  0  0
 37 34  1  0  0  0  0
 38 40  1  0  0  0  0
 39 40  2  0  0  0  0
 40 37  1  0  0  0  0
 41 44  1  0  0  0  0
 42 44  2  0  0  0  0
 44 43  1  0  0  0  0
M  END
>  <MODEL>
4

>  <REMARK>
 VINA RESULT:      -5.2      2.607      7.689
  Name = 
  22 active torsions:
  status: ('A' for Active; 'I' for Inactive)
    1  A    between atoms: C_1  and  C_3
    2  A    between atoms: C_1  and  C_9
    3  A    between atoms: C_1  and  C_18
    4  A    between atoms: C_5  and  C_18
    5  A    between atoms: C_5  and  C_38
    6  A    between atoms: C_6  and  N_32
    7  A    between atoms: C_6  and  C_43
    8  A    between atoms: C_7  and  N_13
    9  A    between atoms: C_7  and  C_35
   10  A    between atoms: C_8  and  N_29
   11  A    between atoms: C_9  and  C_36
   12  A    between atoms: C_10  and  C_25
   13  A    between atoms: C_11  and  S_15
   14  A    between atoms: C_11  and  C_30
   15  A    between atoms: O_12  and  C_36
   16  A    between atoms: N_13  and  C_38
   17  A    between atoms: S_15  and  C_43
   18  A    between atoms: C_22  and  C_35
   19  A    between atoms: C_23  and  C_40
   20  A    between atoms: C_23  and  C_43
   21  A    between atoms: C_26  and  N_32
   22  A    between atoms: C_26  and  C_35
                            x       y       z     vdW  Elec       q    Type
                         _______ _______ _______ _____ _____    ______ ____

>  <TORSDO>
F 22

$$$$
=
 OpenBabel11042415273D

 44 45  0  0  1  0  0  0  0  0999 V2000
  191.3730  172.8800  141.0250 N   0  0  0  0  0  0  0  0  0  0  0  0
  190.9850  170.8650  139.7680 N   0  0  0  0  0  0  0  0  0  0  0  0
  191.2890  171.4570  140.8860 C   0  0  0  0  0  3  0  0  0  0  0  0
  190.8500  171.4880  138.4830 C   0  0  0  0  0  0  0  0  0  0  0  0
  190.7110  172.6870  135.9670 C   0  0  0  0  0  0  0  0  0  0  0  0
  189.4340  172.3350  136.6730 C   0  0  0  0  0  2  0  0  0  0  0  0
  190.6640  173.2330  134.8010 N   0  0  0  0  0  2  0  0  0  0  0  0
  192.0410  172.0630  137.8390 C   0  0  0  0  0  3  0  0  0  0  0  0
  189.6780  171.6250  137.9320 N   0  0  0  0  0  0  0  0  0  0  0  0
  191.9570  172.6090  136.6650 N   0  0  0  0  0  0  0  0  0  0  0  0
  192.3240  173.4130  141.9870 C   0  0  0  0  0  2  0  0  0  0  0  0
  192.6790  172.3440  143.0080 C   0  0  0  0  0  2  0  0  0  0  0  0
  192.6250  172.9130  144.4170 C   0  0  0  0  0  2  0  0  0  0  0  0
  192.7130  174.4340  144.4130 C   0  0  1  0  0  3  0  0  0  0  0  0
  191.6320  175.0460  145.2640 C   0  0  0  0  0  3  0  0  0  0  0  0
  191.3580  174.6000  146.4930 C   0  0  0  0  0  3  0  0  0  0  0  0
  190.5340  177.0330  147.3660 S   0  0  0  0  0  0  0  0  0  0  0  0
  190.2850  175.2320  147.3150 C   0  0  1  0  0  3  0  0  0  0  0  0
  188.9190  174.9550  146.7160 C   0  0  0  0  0  2  0  0  0  0  0  0
  188.7910  177.3560  146.9550 C   0  0  0  0  0  2  0  0  0  0  0  0
  188.0170  176.0760  147.1610 C   0  0  0  0  0  2  0  0  0  0  0  0
  194.1050  174.8610  144.8650 C   0  0  0  0  0  2  0  0  0  0  0  0
  194.5700  176.1100  144.1320 C   0  0  0  0  0  2  0  0  0  0  0  0
  194.9580  177.0870  145.0490 O   0  0  0  0  0  0  0  0  0  0  0  0
  194.5860  176.5730  146.2890 C   0  0  0  0  0  1  0  0  0  0  0  0
  190.2230  173.6970  140.6480 C   0  0  0  0  0  2  0  0  0  0  0  0
  189.3810  174.0630  141.8620 C   0  0  2  0  0  3  0  0  0  0  0  0
  188.0840  173.2690  141.8530 C   0  0  0  0  0  2  0  0  0  0  0  0
  187.9440  172.5880  140.6430 O   0  0  0  0  0  1  0  0  0  0  0  0
  189.0820  175.5520  141.8210 C   0  0  0  0  0  2  0  0  0  0  0  0
  187.8210  175.7840  141.1370 N   0  0  0  0  0  2  0  0  0  0  0  0
  187.5340  177.2050  141.2350 C   0  0  0  0  0  2  0  0  0  0  0  0
  186.2190  177.4080  141.9640 C   0  0  1  0  0  3  0  0  0  0  0  0
  186.5190  177.7680  143.6920 S   0  0  0  0  0  0  0  0  0  0  0  0
  187.9960  177.9030  143.9270 O   0  0  0  0  0  0  0  0  0  0  0  0
  185.9830  176.6450  144.5390 O   0  0  0  0  0  0  0  0  0  0  0  0
  185.7150  179.2940  144.1500 C   0  0  0  0  0  2  0  0  0  0  0  0
  185.7070  179.2580  146.5350 O   0  0  0  0  0  1  0  0  0  0  0  0
  183.6850  178.8750  145.5280 O   0  0  0  0  0  0  0  0  0  0  0  0
  185.0420  179.1530  145.4700 C   0  0  0  0  0  0  0  0  0  0  0  0
  185.4610  178.5480  141.3020 C   0  0  0  0  0  2  0  0  0  0  0  0
  183.5730  177.8640  140.0190 O   0  0  0  0  0  0  0  0  0  0  0  0
  183.1690  178.2470  142.2430 O   0  0  0  0  0  1  0  0  0  0  0  0
  184.0190  178.2040  141.1450 C   0  0  0  0  0  0  0  0  0  0  0  0
  1 11  1  0  0  0  0
  2  3  2  0  0  0  0
  3  1  1  0  0  0  0
  4  2  1  0  0  0  0
  5 10  1  0  0  0  0
  5  6  1  0  0  0  0
  6  9  1  0  0  0  0
  7  5  2  0  0  0  0
  8  4  1  0  0  0  0
  9  4  2  0  0  0  0
 10  8  2  0  0  0  0
 11 12  1  0  0  0  0
 12 13  1  0  0  0  0
 14 13  1  1  0  0  0
 14 22  1  0  0  0  0
 14 15  1  0  0  0  0
 15 16  2  0  0  0  0
 18 16  1  6  0  0  0
 18 17  1  0  0  0  0
 19 21  1  0  0  0  0
 19 18  1  0  0  0  0
 20 21  1  0  0  0  0
 20 17  1  0  0  0  0
 23 22  1  0  0  0  0
 23 24  1  0  0  0  0
 24 25  1  0  0  0  0
 26  1  1  0  0  0  0
 27 26  1  6  0  0  0
 28 27  1  0  0  0  0
 29 28  1  0  0  0  0
 30 27  1  0  0  0  0
 31 32  1  0  0  0  0
 31 30  1  0  0  0  0
 33 32  1  6  0  0  0
 33 34  1  0  0  0  0
 34 35  2  0  0  0  0
 34 37  1  0  0  0  0
 34 36  2  0  0  0  0
 37 40  1  0  0  0  0
 40 39  2  0  0  0  0
 40 38  1  0  0  0  0
 41 33  1  0  0  0  0
 42 44  2  0  0  0  0
 44 41  1  0  0  0  0
 44 43  1  0  0  0  0
M  END
>  <MODEL>
5

>  <REMARK>
 VINA RESULT:      -5.1      3.622      8.490
  Name = 
  22 active torsions:
  status: ('A' for Active; 'I' for Inactive)
    1  A    between atoms: C_1  and  C_3
    2  A    between atoms: C_1  and  C_9
    3  A    between atoms: C_1  and  C_18
    4  A    between atoms: C_5  and  C_18
    5  A    between atoms: C_5  and  C_38
    6  A    between atoms: C_6  and  N_32
    7  A    between atoms: C_6  and  C_43
    8  A    between atoms: C_7  and  N_13
    9  A    between atoms: C_7  and  C_35
   10  A    between atoms: C_8  and  N_29
   11  A    between atoms: C_9  and  C_36
   12  A    between atoms: C_10  and  C_25
   13  A    between atoms: C_11  and  S_15
   14  A    between atoms: C_11  and  C_30
   15  A    between atoms: O_12  and  C_36
   16  A    between atoms: N_13  and  C_38
   17  A    between atoms: S_15  and  C_43
   18  A    between atoms: C_22  and  C_35
   19  A    between atoms: C_23  and  C_40
   20  A    between atoms: C_23  and  C_43
   21  A    between atoms: C_26  and  N_32
   22  A    between atoms: C_26  and  C_35
                            x       y       z     vdW  Elec       q    Type
                         _______ _______ _______ _____ _____    ______ ____

>  <TORSDO>
F 22

$$$$
=
 OpenBabel11042415273D

 44 45  0  0  1  0  0  0  0  0999 V2000
  191.9290  176.0850  145.6760 N   0  0  0  0  0  0  0  0  0  0  0  0
  194.1330  175.9440  146.6320 N   0  0  0  0  0  0  0  0  0  0  0  0
  192.8750  176.2580  146.7380 C   0  0  0  0  0  3  0  0  0  0  0  0
  194.8130  175.5430  145.4350 C   0  0  0  0  0  0  0  0  0  0  0  0
  196.1720  174.8830  143.0890 C   0  0  0  0  0  0  0  0  0  0  0  0
  195.6580  173.7760  143.9640 C   0  0  0  0  0  2  0  0  0  0  0  0
  196.8090  174.5940  142.0060 N   0  0  0  0  0  2  0  0  0  0  0  0
  195.1420  176.5600  144.4240 C   0  0  0  0  0  3  0  0  0  0  0  0
  195.0600  174.2860  145.2010 N   0  0  0  0  0  0  0  0  0  0  0  0
  195.7810  176.2350  143.3430 N   0  0  0  0  0  0  0  0  0  0  0  0
  190.8210  177.0230  145.5950 C   0  0  0  0  0  2  0  0  0  0  0  0
  189.8510  176.7760  146.7380 C   0  0  0  0  0  2  0  0  0  0  0  0
  188.4580  176.4840  146.2030 C   0  0  0  0  0  2  0  0  0  0  0  0
  187.7520  177.7560  145.7480 C   0  0  1  0  0  3  0  0  0  0  0  0
  187.2420  177.6230  144.3380 C   0  0  0  0  0  3  0  0  0  0  0  0
  186.9910  176.4350  143.7820 C   0  0  0  0  0  3  0  0  0  0  0  0
  185.1890  177.5900  142.1150 S   0  0  0  0  0  0  0  0  0  0  0  0
  186.4800  176.3360  142.3840 C   0  0  1  0  0  3  0  0  0  0  0  0
  187.5970  176.5780  141.3870 C   0  0  0  0  0  2  0  0  0  0  0  0
  185.9500  178.1380  140.5560 C   0  0  0  0  0  2  0  0  0  0  0  0
  186.9480  177.0900  140.1270 C   0  0  0  0  0  2  0  0  0  0  0  0
  186.6360  178.0930  146.7300 C   0  0  0  0  0  2  0  0  0  0  0  0
  185.6830  176.9220  146.9130 C   0  0  0  0  0  2  0  0  0  0  0  0
  184.3740  177.3210  146.6400 O   0  0  0  0  0  0  0  0  0  0  0  0
  184.4670  178.6910  146.4010 C   0  0  0  0  0  1  0  0  0  0  0  0
  191.7770  174.7640  145.0730 C   0  0  0  0  0  2  0  0  0  0  0  0
  190.9050  174.8190  143.8270 C   0  0  2  0  0  3  0  0  0  0  0  0
  190.0020  173.5970  143.7710 C   0  0  0  0  0  2  0  0  0  0  0  0
  189.6350  173.2100  145.0600 O   0  0  0  0  0  1  0  0  0  0  0  0
  191.8030  174.8620  142.6020 C   0  0  0  0  0  2  0  0  0  0  0  0
  191.8720  173.5440  141.9940 N   0  0  0  0  0  2  0  0  0  0  0  0
  191.6030  173.7110  140.5750 C   0  0  0  0  0  2  0  0  0  0  0  0
  190.6850  172.6020  140.0980 C   0  0  1  0  0  3  0  0  0  0  0  0
  189.8550  173.0920  138.5890 S   0  0  0  0  0  0  0  0  0  0  0  0
  188.7590  174.0660  138.9150 O   0  0  0  0  0  0  0  0  0  0  0  0
  189.2600  171.8800  137.9260 O   0  0  0  0  0  0  0  0  0  0  0  0
  191.0130  173.8710  137.4780 C   0  0  0  0  0  2  0  0  0  0  0  0
  190.7150  173.1720  135.2170 O   0  0  0  0  0  0  0  0  0  0  0  0
  192.1870  171.9280  136.4560 O   0  0  0  0  0  1  0  0  0  0  0  0
  191.2990  172.9840  136.3170 C   0  0  0  0  0  0  0  0  0  0  0  0
  191.5070  171.3430  139.8740 C   0  0  0  0  0  2  0  0  0  0  0  0
  190.4670  169.2040  139.7400 O   0  0  0  0  0  0  0  0  0  0  0  0
  190.6200  170.0970  141.8460 O   0  0  0  0  0  1  0  0  0  0  0  0
  190.8340  170.1570  140.4740 C   0  0  0  0  0  0  0  0  0  0  0  0
  1  3  1  0  0  0  0
  2  3  2  0  0  0  0
  4  2  1  0  0  0  0
  5 10  1  0  0  0  0
  5  6  1  0  0  0  0
  6  9  1  0  0  0  0
  7  5  2  0  0  0  0
  8  4  1  0  0  0  0
  9  4  2  0  0  0  0
 10  8  2  0  0  0  0
 11  1  1  0  0  0  0
 11 12  1  0  0  0  0
 13 12  1  0  0  0  0
 14 15  1  6  0  0  0
 14 13  1  0  0  0  0
 14 22  1  0  0  0  0
 16 15  2  0  0  0  0
 17 18  1  0  0  0  0
 18 16  1  1  0  0  0
 19 18  1  0  0  0  0
 20 17  1  0  0  0  0
 21 20  1  0  0  0  0
 21 19  1  0  0  0  0
 22 23  1  0  0  0  0
 24 23  1  0  0  0  0
 25 24  1  0  0  0  0
 26  1  1  0  0  0  0
 27 30  1  6  0  0  0
 27 26  1  0  0  0  0
 28 27  1  0  0  0  0
 28 29  1  0  0  0  0
 31 30  1  0  0  0  0
 32 31  1  0  0  0  0
 33 41  1  6  0  0  0
 33 32  1  0  0  0  0
 34 35  2  0  0  0  0
 34 33  1  0  0  0  0
 36 34  2  0  0  0  0
 37 34  1  0  0  0  0
 38 40  2  0  0  0  0
 40 39  1  0  0  0  0
 40 37  1  0  0  0  0
 41 44  1  0  0  0  0
 42 44  2  0  0  0  0
 44 43  1  0  0  0  0
M  END
>  <MODEL>
6

>  <REMARK>
 VINA RESULT:      -5.1      1.492      2.241
  Name = 
  22 active torsions:
  status: ('A' for Active; 'I' for Inactive)
    1  A    between atoms: C_1  and  C_3
    2  A    between atoms: C_1  and  C_9
    3  A    between atoms: C_1  and  C_18
    4  A    between atoms: C_5  and  C_18
    5  A    between atoms: C_5  and  C_38
    6  A    between atoms: C_6  and  N_32
    7  A    between atoms: C_6  and  C_43
    8  A    between atoms: C_7  and  N_13
    9  A    between atoms: C_7  and  C_35
   10  A    between atoms: C_8  and  N_29
   11  A    between atoms: C_9  and  C_36
   12  A    between atoms: C_10  and  C_25
   13  A    between atoms: C_11  and  S_15
   14  A    between atoms: C_11  and  C_30
   15  A    between atoms: O_12  and  C_36
   16  A    between atoms: N_13  and  C_38
   17  A    between atoms: S_15  and  C_43
   18  A    between atoms: C_22  and  C_35
   19  A    between atoms: C_23  and  C_40
   20  A    between atoms: C_23  and  C_43
   21  A    between atoms: C_26  and  N_32
   22  A    between atoms: C_26  and  C_35
                            x       y       z     vdW  Elec       q    Type
                         _______ _______ _______ _____ _____    ______ ____

>  <TORSDO>
F 22

$$$$
=
 OpenBabel11042415273D

 44 45  0  0  1  0  0  0  0  0999 V2000
  191.2600  173.9000  141.5600 N   0  0  0  0  0  0  0  0  0  0  0  0
  190.6190  172.0280  140.1910 N   0  0  0  0  0  0  0  0  0  0  0  0
  191.1830  172.5000  141.2640 C   0  0  0  0  0  3  0  0  0  0  0  0
  190.1410  172.7890  139.0730 C   0  0  0  0  0  0  0  0  0  0  0  0
  189.3260  174.2580  136.8450 C   0  0  0  0  0  0  0  0  0  0  0  0
  188.2960  173.8430  137.8550 C   0  0  0  0  0  2  0  0  0  0  0  0
  188.9640  174.9290  135.8050 N   0  0  0  0  0  2  0  0  0  0  0  0
  191.1150  173.4190  138.1690 C   0  0  0  0  0  3  0  0  0  0  0  0
  188.8660  172.9970  138.9070 N   0  0  0  0  0  0  0  0  0  0  0  0
  190.7170  174.0920  137.1330 N   0  0  0  0  0  0  0  0  0  0  0  0
  192.4110  174.3700  142.3130 C   0  0  0  0  0  2  0  0  0  0  0  0
  193.5260  174.7680  141.3590 C   0  0  0  0  0  2  0  0  0  0  0  0
  194.7700  173.9320  141.6140 C   0  0  0  0  0  2  0  0  0  0  0  0
  195.1590  173.9380  143.0880 C   0  0  1  0  0  3  0  0  0  0  0  0
  195.5940  172.5710  143.5430 C   0  0  0  0  0  3  0  0  0  0  0  0
  194.9420  171.8970  144.4950 C   0  0  0  0  0  3  0  0  0  0  0  0
  197.1730  170.5810  145.3000 S   0  0  0  0  0  0  0  0  0  0  0  0
  195.3940  170.5400  144.9190 C   0  0  1  0  0  3  0  0  0  0  0  0
  194.6480  170.0920  146.1610 C   0  0  0  0  0  2  0  0  0  0  0  0
  196.9240  169.7120  146.8800 C   0  0  0  0  0  2  0  0  0  0  0  0
  195.5410  169.1060  146.8680 C   0  0  0  0  0  2  0  0  0  0  0  0
  196.2390  174.9880  143.3220 C   0  0  0  0  0  2  0  0  0  0  0  0
  195.7810  176.0480  144.3120 C   0  0  0  0  0  2  0  0  0  0  0  0
  195.5740  175.4760  145.5670 O   0  0  0  0  0  0  0  0  0  0  0  0
  194.4370  176.1120  146.0600 C   0  0  0  0  0  1  0  0  0  0  0  0
  190.0300  174.6850  141.5930 C   0  0  0  0  0  2  0  0  0  0  0  0
  189.1360  174.2690  142.7530 C   0  0  2  0  0  3  0  0  0  0  0  0
  187.7370  173.9570  142.2450 C   0  0  0  0  0  2  0  0  0  0  0  0
  187.6410  172.6110  141.8910 O   0  0  0  0  0  1  0  0  0  0  0  0
  189.0850  175.4010  143.7640 C   0  0  0  0  0  2  0  0  0  0  0  0
  189.4670  176.6500  143.1270 N   0  0  0  0  0  2  0  0  0  0  0  0
  188.6350  177.6950  143.6980 C   0  0  0  0  0  2  0  0  0  0  0  0
  187.2060  177.5280  143.2170 C   0  0  1  0  0  3  0  0  0  0  0  0
  186.0610  177.8760  144.5480 S   0  0  0  0  0  0  0  0  0  0  0  0
  184.6570  177.6150  144.0810 O   0  0  0  0  0  0  0  0  0  0  0  0
  186.1880  179.3180  144.9560 O   0  0  0  0  0  0  0  0  0  0  0  0
  186.4110  176.8280  145.9490 C   0  0  0  0  0  2  0  0  0  0  0  0
  186.1990  178.3230  147.7950 O   0  0  0  0  0  1  0  0  0  0  0  0
  188.3310  177.6380  147.3110 O   0  0  0  0  0  0  0  0  0  0  0  0
  186.9650  177.6300  147.0750 C   0  0  0  0  0  0  0  0  0  0  0  0
  186.9680  178.4650  142.0450 C   0  0  0  0  0  2  0  0  0  0  0  0
  187.1670  176.8080  140.3440 O   0  0  0  0  0  1  0  0  0  0  0  0
  185.2130  178.0070  140.3310 O   0  0  0  0  0  0  0  0  0  0  0  0
  186.4640  177.7140  140.8600 C   0  0  0  0  0  0  0  0  0  0  0  0
  1 26  1  0  0  0  0
  1 11  1  0  0  0  0
  2  3  2  0  0  0  0
  3  1  1  0  0  0  0
  4  2  1  0  0  0  0
  5 10  1  0  0  0  0
  5  6  1  0  0  0  0
  6  9  1  0  0  0  0
  7  5  2  0  0  0  0
  8  4  1  0  0  0  0
  9  4  2  0  0  0  0
 10  8  2  0  0  0  0
 12 13  1  0  0  0  0
 12 11  1  0  0  0  0
 14 13  1  6  0  0  0
 14 22  1  0  0  0  0
 14 15  1  0  0  0  0
 15 16  2  0  0  0  0
 17 20  1  0  0  0  0
 18 16  1  1  0  0  0
 18 17  1  0  0  0  0
 18 19  1  0  0  0  0
 19 21  1  0  0  0  0
 21 20  1  0  0  0  0
 22 23  1  0  0  0  0
 23 24  1  0  0  0  0
 24 25  1  0  0  0  0
 27 26  1  6  0  0  0
 27 30  1  0  0  0  0
 28 27  1  0  0  0  0
 29 28  1  0  0  0  0
 31 32  1  0  0  0  0
 31 30  1  0  0  0  0
 33 41  1  6  0  0  0
 33 32  1  0  0  0  0
 33 34  1  0  0  0  0
 34 36  2  0  0  0  0
 34 37  1  0  0  0  0
 35 34  2  0  0  0  0
 37 40  1  0  0  0  0
 40 39  2  0  0  0  0
 40 38  1  0  0  0  0
 42 44  1  0  0  0  0
 43 44  2  0  0  0  0
 44 41  1  0  0  0  0
M  END
>  <MODEL>
7

>  <REMARK>
 VINA RESULT:      -5.0      3.569      9.387
  Name = 
  22 active torsions:
  status: ('A' for Active; 'I' for Inactive)
    1  A    between atoms: C_1  and  C_3
    2  A    between atoms: C_1  and  C_9
    3  A    between atoms: C_1  and  C_18
    4  A    between atoms: C_5  and  C_18
    5  A    between atoms: C_5  and  C_38
    6  A    between atoms: C_6  and  N_32
    7  A    between atoms: C_6  and  C_43
    8  A    between atoms: C_7  and  N_13
    9  A    between atoms: C_7  and  C_35
   10  A    between atoms: C_8  and  N_29
   11  A    between atoms: C_9  and  C_36
   12  A    between atoms: C_10  and  C_25
   13  A    between atoms: C_11  and  S_15
   14  A    between atoms: C_11  and  C_30
   15  A    between atoms: O_12  and  C_36
   16  A    between atoms: N_13  and  C_38
   17  A    between atoms: S_15  and  C_43
   18  A    between atoms: C_22  and  C_35
   19  A    between atoms: C_23  and  C_40
   20  A    between atoms: C_23  and  C_43
   21  A    between atoms: C_26  and  N_32
   22  A    between atoms: C_26  and  C_35
                            x       y       z     vdW  Elec       q    Type
                         _______ _______ _______ _____ _____    ______ ____

>  <TORSDO>
F 22

$$$$
=
 OpenBabel11042415273D

 44 45  0  0  1  0  0  0  0  0999 V2000
  189.8450  176.2680  143.1820 N   0  0  0  0  0  0  0  0  0  0  0  0
  188.8940  175.0220  145.0090 N   0  0  0  0  0  0  0  0  0  0  0  0
  188.9100  175.3420  143.7470 C   0  0  0  0  0  3  0  0  0  0  0  0
  189.6630  175.6360  146.0520 C   0  0  0  0  0  0  0  0  0  0  0  0
  191.0690  176.9150  148.0960 C   0  0  0  0  0  0  0  0  0  0  0  0
  191.5550  175.5820  147.6070 C   0  0  0  0  0  2  0  0  0  0  0  0
  191.7020  177.5150  149.0450 N   0  0  0  0  0  2  0  0  0  0  0  0
  189.3830  177.0310  146.4210 C   0  0  0  0  0  3  0  0  0  0  0  0
  190.6550  175.0000  146.6080 N   0  0  0  0  0  0  0  0  0  0  0  0
  190.0420  177.6070  147.3800 N   0  0  0  0  0  0  0  0  0  0  0  0
  189.4090  177.0630  142.0460 C   0  0  0  0  0  2  0  0  0  0  0  0
  188.1440  176.4660  141.4520 C   0  0  0  0  0  2  0  0  0  0  0  0
  187.2130  177.5640  140.9630 C   0  0  0  0  0  2  0  0  0  0  0  0
  185.7700  177.3020  141.3780 C   0  0  1  0  0  3  0  0  0  0  0  0
  185.6050  177.4010  142.8700 C   0  0  0  0  0  3  0  0  0  0  0  0
  186.3720  178.1980  143.6200 C   0  0  0  0  0  3  0  0  0  0  0  0
  184.7960  179.3980  145.4730 S   0  0  0  0  0  0  0  0  0  0  0  0
  186.1790  178.2780  145.0970 C   0  0  1  0  0  3  0  0  0  0  0  0
  185.8580  176.9110  145.6700 C   0  0  0  0  0  2  0  0  0  0  0  0
  184.0450  178.1980  146.6160 C   0  0  0  0  0  2  0  0  0  0  0  0
  185.0800  177.1470  146.9380 C   0  0  0  0  0  2  0  0  0  0  0  0
  184.8490  178.2650  140.6370 C   0  0  0  0  0  2  0  0  0  0  0  0
  183.4410  178.2430  141.2110 C   0  0  0  0  0  2  0  0  0  0  0  0
  182.5100  178.0340  140.1930 O   0  0  0  0  0  0  0  0  0  0  0  0
  181.3240  178.5720  140.6870 C   0  0  0  0  0  1  0  0  0  0  0  0
  191.2740  176.0320  143.3680 C   0  0  0  0  0  2  0  0  0  0  0  0
  191.6360  174.5770  143.1030 C   0  0  2  0  0  3  0  0  0  0  0  0
  192.8950  174.2080  143.8720 C   0  0  0  0  0  2  0  0  0  0  0  0
  193.5440  173.1410  143.2500 O   0  0  0  0  0  1  0  0  0  0  0  0
  191.8600  174.3900  141.6130 C   0  0  0  0  0  2  0  0  0  0  0  0
  190.6720  173.8170  141.0020 N   0  0  0  0  0  2  0  0  0  0  0  0
  191.0240  172.4830  140.5490 C   0  0  0  0  0  2  0  0  0  0  0  0
  190.3750  172.2160  139.2030 C   0  0  1  0  0  3  0  0  0  0  0  0
  190.5200  170.4830  138.7800 S   0  0  0  0  0  0  0  0  0  0  0  0
  189.3150  170.0580  137.9890 O   0  0  0  0  0  0  0  0  0  0  0  0
  190.6010  169.6630  140.0390 O   0  0  0  0  0  0  0  0  0  0  0  0
  191.9840  170.2110  137.7980 C   0  0  0  0  0  2  0  0  0  0  0  0
  193.8850  170.4280  139.2210 O   0  0  0  0  0  1  0  0  0  0  0  0
  193.2340  168.2810  138.7540 O   0  0  0  0  0  0  0  0  0  0  0  0
  193.0800  169.6550  138.6380 C   0  0  0  0  0  0  0  0  0  0  0  0
  188.9150  172.6330  139.2690 C   0  0  0  0  0  2  0  0  0  0  0  0
  188.9640  173.2830  136.9770 O   0  0  0  0  0  0  0  0  0  0  0  0
  187.8180  174.6900  138.3780 O   0  0  0  0  0  1  0  0  0  0  0  0
  188.5750  173.5490  138.1430 C   0  0  0  0  0  0  0  0  0  0  0  0
  1 26  1  0  0  0  0
  1  3  1  0  0  0  0
  2  4  1  0  0  0  0
  3  2  2  0  0  0  0
  4  8  1  0  0  0  0
  4  9  2  0  0  0  0
  5  7  2  0  0  0  0
  6  5  1  0  0  0  0
  8 10  2  0  0  0  0
  9  6  1  0  0  0  0
 10  5  1  0  0  0  0
 11  1  1  0  0  0  0
 12 11  1  0  0  0  0
 13 14  1  0  0  0  0
 13 12  1  0  0  0  0
 14 22  1  6  0  0  0
 14 15  1  0  0  0  0
 15 16  2  0  0  0  0
 17 20  1  0  0  0  0
 18 16  1  6  0  0  0
 18 17  1  0  0  0  0
 18 19  1  0  0  0  0
 19 21  1  0  0  0  0
 20 21  1  0  0  0  0
 22 23  1  0  0  0  0
 24 25  1  0  0  0  0
 24 23  1  0  0  0  0
 27 30  1  6  0  0  0
 27 26  1  0  0  0  0
 27 28  1  0  0  0  0
 29 28  1  0  0  0  0
 31 30  1  0  0  0  0
 32 31  1  0  0  0  0
 33 41  1  1  0  0  0
 33 32  1  0  0  0  0
 34 33  1  0  0  0  0
 34 36  2  0  0  0  0
 35 34  2  0  0  0  0
 37 40  1  0  0  0  0
 37 34  1  0  0  0  0
 40 39  2  0  0  0  0
 40 38  1  0  0  0  0
 42 44  2  0  0  0  0
 44 43  1  0  0  0  0
 44 41  1  0  0  0  0
M  END
>  <MODEL>
8

>  <REMARK>
 VINA RESULT:      -4.9      2.811      5.048
  Name = 
  22 active torsions:
  status: ('A' for Active; 'I' for Inactive)
    1  A    between atoms: C_1  and  C_3
    2  A    between atoms: C_1  and  C_9
    3  A    between atoms: C_1  and  C_18
    4  A    between atoms: C_5  and  C_18
    5  A    between atoms: C_5  and  C_38
    6  A    between atoms: C_6  and  N_32
    7  A    between atoms: C_6  and  C_43
    8  A    between atoms: C_7  and  N_13
    9  A    between atoms: C_7  and  C_35
   10  A    between atoms: C_8  and  N_29
   11  A    between atoms: C_9  and  C_36
   12  A    between atoms: C_10  and  C_25
   13  A    between atoms: C_11  and  S_15
   14  A    between atoms: C_11  and  C_30
   15  A    between atoms: O_12  and  C_36
   16  A    between atoms: N_13  and  C_38
   17  A    between atoms: S_15  and  C_43
   18  A    between atoms: C_22  and  C_35
   19  A    between atoms: C_23  and  C_40
   20  A    between atoms: C_23  and  C_43
   21  A    between atoms: C_26  and  N_32
   22  A    between atoms: C_26  and  C_35
                            x       y       z     vdW  Elec       q    Type
                         _______ _______ _______ _____ _____    ______ ____

>  <TORSDO>
F 22

$$$$
=
 OpenBabel11042415273D

 44 45  0  0  1  0  0  0  0  0999 V2000
  188.9660  176.2750  145.8100 N   0  0  0  0  0  0  0  0  0  0  0  0
  186.8530  177.0930  146.6190 N   0  0  0  0  0  0  0  0  0  0  0  0
  187.9720  176.4620  146.8240 C   0  0  0  0  0  3  0  0  0  0  0  0
  186.3520  177.5510  145.3560 C   0  0  0  0  0  0  0  0  0  0  0  0
  185.3240  178.3300  142.8810 C   0  0  0  0  0  0  0  0  0  0  0  0
  185.9370  179.3720  143.7710 C   0  0  0  0  0  2  0  0  0  0  0  0
  184.8370  178.6740  141.7390 N   0  0  0  0  0  2  0  0  0  0  0  0
  185.9470  176.5620  144.3460 C   0  0  0  0  0  3  0  0  0  0  0  0
  186.3350  178.8220  145.0690 N   0  0  0  0  0  0  0  0  0  0  0  0
  185.4640  176.9430  143.2040 N   0  0  0  0  0  0  0  0  0  0  0  0
  189.7760  175.0700  145.8690 C   0  0  0  0  0  2  0  0  0  0  0  0
  191.2070  175.4260  146.2400 C   0  0  0  0  0  2  0  0  0  0  0  0
  192.1900  174.5500  145.4780 C   0  0  0  0  0  2  0  0  0  0  0  0
  193.6340  174.9280  145.7870 C   0  0  1  0  0  3  0  0  0  0  0  0
  194.4950  173.7050  145.9480 C   0  0  0  0  0  3  0  0  0  0  0  0
  194.1630  172.5260  145.4140 C   0  0  0  0  0  3  0  0  0  0  0  0
  194.9430  170.2820  144.1040 S   0  0  0  0  0  0  0  0  0  0  0  0
  195.0420  171.3320  145.5870 C   0  0  1  0  0  3  0  0  0  0  0  0
  196.4860  171.7540  145.7790 C   0  0  0  0  0  2  0  0  0  0  0  0
  196.7550  170.1440  143.9980 C   0  0  0  0  0  2  0  0  0  0  0  0
  197.3380  170.6030  145.3130 C   0  0  0  0  0  2  0  0  0  0  0  0
  194.1570  175.8550  144.6960 C   0  0  0  0  0  2  0  0  0  0  0  0
  195.6740  175.8030  144.6010 C   0  0  0  0  0  2  0  0  0  0  0  0
  196.0610  175.3290  143.3470 O   0  0  0  0  0  0  0  0  0  0  0  0
  196.1600  176.4710  142.5550 C   0  0  0  0  0  1  0  0  0  0  0  0
  189.4960  177.4450  145.1150 C   0  0  0  0  0  2  0  0  0  0  0  0
  190.1700  177.0560  143.8060 C   0  0  2  0  0  3  0  0  0  0  0  0
  191.3200  178.0060  143.5120 C   0  0  0  0  0  2  0  0  0  0  0  0
  192.1260  177.4880  142.4980 O   0  0  0  0  0  1  0  0  0  0  0  0
  189.1430  177.1170  142.6880 C   0  0  0  0  0  2  0  0  0  0  0  0
  188.7340  175.7720  142.3200 N   0  0  0  0  0  2  0  0  0  0  0  0
  189.9250  174.9400  142.3400 C   0  0  0  0  0  2  0  0  0  0  0  0
  189.8720  173.9490  141.1920 C   0  0  1  0  0  3  0  0  0  0  0  0
  190.7770  172.4630  141.6160 S   0  0  0  0  0  0  0  0  0  0  0  0
  189.8570  171.4980  142.3090 O   0  0  0  0  0  0  0  0  0  0  0  0
  191.9130  172.8130  142.5380 O   0  0  0  0  0  0  0  0  0  0  0  0
  191.4210  171.6950  140.1410 C   0  0  0  0  0  2  0  0  0  0  0  0
  192.5560  173.6350  139.3420 O   0  0  0  0  0  0  0  0  0  0  0  0
  193.8360  171.7440  139.5370 O   0  0  0  0  0  1  0  0  0  0  0  0
  192.6310  172.4190  139.6620 C   0  0  0  0  0  0  0  0  0  0  0  0
  188.4190  173.6250  140.8880 C   0  0  0  0  0  2  0  0  0  0  0  0
  188.2720  172.4160  138.8400 O   0  0  0  0  0  1  0  0  0  0  0  0
  187.8860  174.6710  138.6860 O   0  0  0  0  0  0  0  0  0  0  0  0
  188.1930  173.5300  139.4180 C   0  0  0  0  0  0  0  0  0  0  0  0
  1 11  1  0  0  0  0
  1  3  1  0  0  0  0
  2  3  2  0  0  0  0
  4  2  1  0  0  0  0
  5 10  1  0  0  0  0
  5  6  1  0  0  0  0
  6  9  1  0  0  0  0
  7  5  2  0  0  0  0
  8  4  1  0  0  0  0
  9  4  2  0  0  0  0
 10  8  2  0  0  0  0
 11 12  1  0  0  0  0
 13 14  1  0  0  0  0
 13 12  1  0  0  0  0
 14 22  1  6  0  0  0
 14 15  1  0  0  0  0
 16 15  2  0  0  0  0
 17 18  1  0  0  0  0
 18 16  1  6  0  0  0
 18 19  1  0  0  0  0
 20 17  1  0  0  0  0
 20 21  1  0  0  0  0
 21 19  1  0  0  0  0
 23 22  1  0  0  0  0
 24 23  1  0  0  0  0
 25 24  1  0  0  0  0
 26  1  1  0  0  0  0
 27 30  1  6  0  0  0
 27 26  1  0  0  0  0
 28 27  1  0  0  0  0
 29 28  1  0  0  0  0
 31 32  1  0  0  0  0
 31 30  1  0  0  0  0
 33 41  1  1  0  0  0
 33 34  1  0  0  0  0
 33 32  1  0  0  0  0
 34 35  2  0  0  0  0
 34 36  2  0  0  0  0
 37 34  1  0  0  0  0
 38 40  2  0  0  0  0
 39 40  1  0  0  0  0
 40 37  1  0  0  0  0
 42 44  1  0  0  0  0
 43 44  2  0  0  0  0
 44 41  1  0  0  0  0
M  END
>  <MODEL>
9

>  <REMARK>
 VINA RESULT:      -4.9      3.421      7.847
  Name = 
  22 active torsions:
  status: ('A' for Active; 'I' for Inactive)
    1  A    between atoms: C_1  and  C_3
    2  A    between atoms: C_1  and  C_9
    3  A    between atoms: C_1  and  C_18
    4  A    between atoms: C_5  and  C_18
    5  A    between atoms: C_5  and  C_38
    6  A    between atoms: C_6  and  N_32
    7  A    between atoms: C_6  and  C_43
    8  A    between atoms: C_7  and  N_13
    9  A    between atoms: C_7  and  C_35
   10  A    between atoms: C_8  and  N_29
   11  A    between atoms: C_9  and  C_36
   12  A    between atoms: C_10  and  C_25
   13  A    between atoms: C_11  and  S_15
   14  A    between atoms: C_11  and  C_30
   15  A    between atoms: O_12  and  C_36
   16  A    between atoms: N_13  and  C_38
   17  A    between atoms: S_15  and  C_43
   18  A    between atoms: C_22  and  C_35
   19  A    between atoms: C_23  and  C_40
   20  A    between atoms: C_23  and  C_43
   21  A    between atoms: C_26  and  N_32
   22  A    between atoms: C_26  and  C_35
                            x       y       z     vdW  Elec       q    Type
                         _______ _______ _______ _____ _____    ______ ____

>  <TORSDO>
F 22

$$$$
