=
 OpenBabel11042416233D

 38 41  0  0  1  0  0  0  0  0999 V2000
  191.9260  173.8020  143.4460 C   0  0  2  0  0  3  0  0  0  0  0  0
  196.6870  175.3640  144.3720 C   0  0  0  0  0  3  0  0  0  0  0  0
  190.5020  173.3570  143.8380 C   0  0  2  0  0  3  0  0  0  0  0  0
  196.1630  176.6020  142.3380 N   0  0  0  0  0  1  0  0  0  0  0  0
  193.4130  175.6060  142.3910 C   0  0  2  0  0  3  0  0  0  0  0  0
  196.3210  174.4950  145.4010 C   0  0  0  0  0  3  0  0  0  0  0  0
  194.0860  174.3420  144.4840 C   0  0  0  0  0  0  0  0  0  0  0  0
  192.7940  173.8190  144.5680 O   0  0  0  0  0  0  0  0  0  0  0  0
  191.3300  176.3630  144.7360 N   0  0  0  0  0  2  0  0  0  0  0  0
  195.0240  173.9870  145.4580 C   0  0  0  0  0  3  0  0  0  0  0  0
  194.4500  175.1920  143.4230 C   0  0  0  0  0  0  0  0  0  0  0  0
  191.1460  176.2780  143.2910 C   0  0  0  0  0  2  0  0  0  0  0  0
  191.9800  175.1430  142.6840 C   0  0  2  0  0  3  0  0  0  0  0  0
  189.2460  175.0410  145.1680 C   0  0  0  0  0  2  0  0  0  0  0  0
  195.7670  175.7060  143.3780 C   0  0  0  0  0  0  0  0  0  0  0  0
  190.0320  176.3360  145.4170 C   0  0  2  0  0  3  0  0  0  0  0  0
  190.1100  173.7830  145.2520 C   0  0  0  0  0  2  0  0  0  0  0  0
  193.8040  175.1940  140.9850 C   0  0  0  0  0  1  0  0  0  0  0  0
  191.4780  171.1420  143.7840 O   0  0  0  0  0  1  0  0  0  0  0  0
  190.2820  171.8520  143.6580 C   0  0  2  0  0  3  0  0  0  0  0  0
  189.6800  171.5850  142.2910 C   0  0  0  0  0  2  0  0  0  0  0  0
  188.6580  172.6500  141.9530 C   0  0  0  0  0  2  0  0  0  0  0  0
  188.8020  173.0450  140.4870 C   0  0  0  0  0  2  0  0  0  0  0  0
  188.4030  174.4950  140.2860 C   0  0  0  0  0  2  0  0  0  0  0  0
  188.4820  175.2010  141.5500 N   0  0  0  0  0  2  0  0  0  0  0  0
  187.2720  175.9920  141.6860 C   0  0  0  0  0  2  0  0  0  0  0  0
  186.6550  177.6970  139.9270 N   0  0  0  0  0  1  0  0  0  0  0  0
  187.4640  177.3260  141.0370 C   0  0  0  0  0  0  0  0  0  0  0  0
  188.3410  178.1160  141.4720 O   0  0  0  0  0  0  0  0  0  0  0  0
  189.1590  177.5200  145.0100 C   0  0  0  0  0  2  0  0  0  0  0  0
  186.1950  177.0400  147.3410 C   0  0  0  0  0  3  0  0  0  0  0  0
  185.3800  177.8180  145.1850 C   0  0  0  0  0  0  0  0  0  0  0  0
  186.6930  177.7990  144.6930 C   0  0  0  0  0  3  0  0  0  0  0  0
  187.5040  177.0500  146.8490 C   0  0  0  0  0  3  0  0  0  0  0  0
  187.7540  177.4200  145.5230 C   0  0  0  0  0  0  0  0  0  0  0  0
  185.1370  177.4170  146.5110 C   0  0  0  0  0  3  0  0  0  0  0  0
  184.3520  178.2870  144.3610 O   0  0  0  0  0  0  0  0  0  0  0  0
  184.3360  178.0950  142.9560 C   0  0  0  0  0  1  0  0  0  0  0  0
  1  3  1  0  0  0  0
  1  8  1  1  0  0  0
  2  6  1  0  0  0  0
  3 20  1  1  0  0  0
  3 17  1  0  0  0  0
  4 15  1  0  0  0  0
  5 18  1  6  0  0  0
  5 13  1  0  0  0  0
  5 11  1  0  0  0  0
  6 10  2  0  0  0  0
  7  8  1  0  0  0  0
  7 10  1  0  0  0  0
  9 16  1  0  0  0  0
 11  7  2  0  0  0  0
 12  9  1  0  0  0  0
 13 12  1  1  0  0  0
 13  1  1  0  0  0  0
 14 17  1  0  0  0  0
 14 16  1  0  0  0  0
 15 11  1  0  0  0  0
 15  2  2  0  0  0  0
 16 30  1  6  0  0  0
 20 19  1  6  0  0  0
 21 20  1  0  0  0  0
 22 21  1  0  0  0  0
 23 22  1  0  0  0  0
 24 23  1  0  0  0  0
 24 25  1  0  0  0  0
 25 26  1  0  0  0  0
 27 28  1  0  0  0  0
 28 29  2  0  0  0  0
 28 26  1  0  0  0  0
 30 35  1  0  0  0  0
 32 36  1  0  0  0  0
 33 32  2  0  0  0  0
 33 35  1  0  0  0  0
 34 31  1  0  0  0  0
 35 34  2  0  0  0  0
 36 31  2  0  0  0  0
 37 32  1  0  0  0  0
 38 37  1  0  0  0  0
M  END
>  <MODEL>
1

>  <REMARK>
 VINA RESULT:      -7.3      0.000      0.000
  Name = 
  11 active torsions:
  status: ('A' for Active; 'I' for Inactive)
    1  A    between atoms: C_3  and  C_20
    2  A    between atoms: C_4  and  C_20
    3  A    between atoms: C_4  and  C_30
    4  A    between atoms: O_5  and  C_7
    5  A    between atoms: C_11  and  N_23
    6  A    between atoms: C_11  and  C_25
    7  A    between atoms: N_23  and  C_34
    8  A    between atoms: C_25  and  C_30
    9  A    between atoms: C_26  and  C_35
   10  A    between atoms: C_29  and  C_35
   11  A    between atoms: C_34  and  C_36
                            x       y       z     vdW  Elec       q    Type
                         _______ _______ _______ _____ _____    ______ ____

>  <TORSDO>
F 11

$$$$
=
 OpenBabel11042416233D

 38 41  0  0  1  0  0  0  0  0999 V2000
  189.3370  175.6290  145.1100 C   0  0  2  0  0  3  0  0  0  0  0  0
  189.8440  172.0030  141.5650 C   0  0  0  0  0  3  0  0  0  0  0  0
  189.4170  176.2050  146.5390 C   0  0  2  0  0  3  0  0  0  0  0  0
  190.4650  173.9970  140.3060 N   0  0  0  0  0  1  0  0  0  0  0  0
  190.2730  175.6340  142.7220 C   0  0  2  0  0  3  0  0  0  0  0  0
  189.4690  171.3790  142.7550 C   0  0  0  0  0  3  0  0  0  0  0  0
  189.6080  173.4990  143.9170 C   0  0  0  0  0  0  0  0  0  0  0  0
  189.4860  174.2180  145.1070 O   0  0  0  0  0  0  0  0  0  0  0  0
  192.2370  175.2460  145.2520 N   0  0  0  0  0  2  0  0  0  0  0  0
  189.3530  172.1240  143.9290 C   0  0  0  0  0  3  0  0  0  0  0  0
  189.9560  174.1470  142.7180 C   0  0  0  0  0  0  0  0  0  0  0  0
  191.7490  176.4590  144.6030 C   0  0  0  0  0  2  0  0  0  0  0  0
  190.3070  176.2900  144.1090 C   0  0  2  0  0  3  0  0  0  0  0  0
  191.6960  176.1390  147.5300 C   0  0  0  0  0  2  0  0  0  0  0  0
  190.0770  173.3800  141.5350 C   0  0  0  0  0  0  0  0  0  0  0  0
  192.7580  175.5560  146.5860 C   0  0  2  0  0  3  0  0  0  0  0  0
  190.3530  175.4140  147.4500 C   0  0  0  0  0  2  0  0  0  0  0  0
  189.3520  176.4200  141.8090 C   0  0  0  0  0  1  0  0  0  0  0  0
  187.6870  175.2080  147.9080 O   0  0  0  0  0  1  0  0  0  0  0  0
  188.0410  176.3550  147.1940 C   0  0  2  0  0  3  0  0  0  0  0  0
  186.9960  176.6260  146.1270 C   0  0  0  0  0  2  0  0  0  0  0  0
  185.6260  176.7600  146.7590 C   0  0  0  0  0  2  0  0  0  0  0  0
  185.4460  178.1790  147.2860 C   0  0  0  0  0  2  0  0  0  0  0  0
  185.5270  179.1820  146.1490 C   0  0  0  0  0  2  0  0  0  0  0  0
  184.3700  179.0330  145.2880 N   0  0  0  0  0  2  0  0  0  0  0  0
  184.7960  179.3210  143.9300 C   0  0  0  0  0  2  0  0  0  0  0  0
  183.3920  178.2050  142.1520 N   0  0  0  0  0  1  0  0  0  0  0  0
  184.4960  178.1520  143.0460 C   0  0  0  0  0  0  0  0  0  0  0  0
  185.2200  177.1240  143.0970 O   0  0  0  0  0  0  0  0  0  0  0  0
  193.9340  176.5270  146.5190 C   0  0  0  0  0  2  0  0  0  0  0  0
  196.6810  174.3010  145.1200 C   0  0  0  0  0  3  0  0  0  0  0  0
  196.4170  176.2320  143.6640 C   0  0  0  0  0  0  0  0  0  0  0  0
  195.4360  176.7380  144.5290 C   0  0  0  0  0  3  0  0  0  0  0  0
  195.6820  174.8020  145.9620 C   0  0  0  0  0  3  0  0  0  0  0  0
  195.0650  176.0240  145.6740 C   0  0  0  0  0  0  0  0  0  0  0  0
  197.0510  175.0160  143.9790 C   0  0  0  0  0  3  0  0  0  0  0  0
  196.7030  176.9230  142.4810 O   0  0  0  0  0  0  0  0  0  0  0  0
  196.3130  176.4590  141.1990 C   0  0  0  0  0  1  0  0  0  0  0  0
  1  8  1  1  0  0  0
  1  3  1  0  0  0  0
  2  6  1  0  0  0  0
  3 20  1  1  0  0  0
  3 17  1  0  0  0  0
  4 15  1  0  0  0  0
  5 18  1  6  0  0  0
  5 13  1  0  0  0  0
  6 10  2  0  0  0  0
  7 10  1  0  0  0  0
  7  8  1  0  0  0  0
  9 16  1  0  0  0  0
 11  5  1  0  0  0  0
 11  7  2  0  0  0  0
 12  9  1  0  0  0  0
 13 12  1  1  0  0  0
 13  1  1  0  0  0  0
 15  2  2  0  0  0  0
 15 11  1  0  0  0  0
 16 30  1  6  0  0  0
 16 14  1  0  0  0  0
 17 14  1  0  0  0  0
 20 19  1  6  0  0  0
 21 22  1  0  0  0  0
 21 20  1  0  0  0  0
 22 23  1  0  0  0  0
 24 23  1  0  0  0  0
 25 24  1  0  0  0  0
 26 25  1  0  0  0  0
 27 28  1  0  0  0  0
 28 29  2  0  0  0  0
 28 26  1  0  0  0  0
 31 34  1  0  0  0  0
 32 36  1  0  0  0  0
 32 33  2  0  0  0  0
 33 35  1  0  0  0  0
 35 34  2  0  0  0  0
 35 30  1  0  0  0  0
 36 31  2  0  0  0  0
 37 32  1  0  0  0  0
 38 37  1  0  0  0  0
M  END
>  <MODEL>
2

>  <REMARK>
 VINA RESULT:      -7.1      2.352      6.866
  Name = 
  11 active torsions:
  status: ('A' for Active; 'I' for Inactive)
    1  A    between atoms: C_3  and  C_20
    2  A    between atoms: C_4  and  C_20
    3  A    between atoms: C_4  and  C_30
    4  A    between atoms: O_5  and  C_7
    5  A    between atoms: C_11  and  N_23
    6  A    between atoms: C_11  and  C_25
    7  A    between atoms: N_23  and  C_34
    8  A    between atoms: C_25  and  C_30
    9  A    between atoms: C_26  and  C_35
   10  A    between atoms: C_29  and  C_35
   11  A    between atoms: C_34  and  C_36
                            x       y       z     vdW  Elec       q    Type
                         _______ _______ _______ _____ _____    ______ ____

>  <TORSDO>
F 11

$$$$
=
 OpenBabel11042416233D

 38 41  0  0  1  0  0  0  0  0999 V2000
  192.3900  173.4770  143.7510 C   0  0  2  0  0  3  0  0  0  0  0  0
  196.7510  171.9520  145.9010 C   0  0  0  0  0  3  0  0  0  0  0  0
  190.8560  173.5710  143.6220 C   0  0  2  0  0  3  0  0  0  0  0  0
  197.3440  174.1950  145.1500 N   0  0  0  0  0  1  0  0  0  0  0  0
  194.5920  174.6780  144.2870 C   0  0  2  0  0  3  0  0  0  0  0  0
  195.8200  170.9260  146.0640 C   0  0  0  0  0  3  0  0  0  0  0  0
  194.1040  172.3190  145.0760 C   0  0  0  0  0  0  0  0  0  0  0  0
  192.7750  172.4740  144.6780 O   0  0  0  0  0  0  0  0  0  0  0  0
  192.1130  174.8020  146.3480 N   0  0  0  0  0  2  0  0  0  0  0  0
  194.4990  171.1090  145.6550 C   0  0  0  0  0  3  0  0  0  0  0  0
  195.0400  173.3500  144.8770 C   0  0  0  0  0  0  0  0  0  0  0  0
  192.4360  175.6380  145.1960 C   0  0  0  0  0  2  0  0  0  0  0  0
  193.0790  174.8190  144.0710 C   0  0  2  0  0  3  0  0  0  0  0  0
  189.7320  174.5500  145.6120 C   0  0  0  0  0  2  0  0  0  0  0  0
  196.3750  173.1560  145.3020 C   0  0  0  0  0  0  0  0  0  0  0  0
  190.7060  174.9700  146.7220 C   0  0  2  0  0  3  0  0  0  0  0  0
  190.1250  173.2440  144.9230 C   0  0  0  0  0  2  0  0  0  0  0  0
  195.3230  175.0100  143.0000 C   0  0  0  0  0  1  0  0  0  0  0  0
  191.3320  172.0910  141.7660 O   0  0  0  0  0  1  0  0  0  0  0  0
  190.3050  172.7170  142.4760 C   0  0  2  0  0  3  0  0  0  0  0  0
  189.5000  173.5900  141.5320 C   0  0  0  0  0  2  0  0  0  0  0  0
  188.0560  173.6590  141.9870 C   0  0  0  0  0  2  0  0  0  0  0  0
  187.6470  175.1180  142.1540 C   0  0  0  0  0  2  0  0  0  0  0  0
  187.8480  175.8790  140.8560 C   0  0  0  0  0  2  0  0  0  0  0  0
  187.4420  177.2590  141.0330 N   0  0  0  0  0  2  0  0  0  0  0  0
  186.3420  177.5120  140.1200 C   0  0  0  0  0  2  0  0  0  0  0  0
  183.9130  178.1910  140.2660 N   0  0  0  0  0  1  0  0  0  0  0  0
  185.2040  178.1440  140.8590 C   0  0  0  0  0  0  0  0  0  0  0  0
  185.3930  178.6330  142.0020 O   0  0  0  0  0  0  0  0  0  0  0  0
  190.3990  176.4110  147.1200 C   0  0  0  0  0  2  0  0  0  0  0  0
  188.2990  177.9630  144.3570 C   0  0  0  0  0  3  0  0  0  0  0  0
  186.8420  177.3790  146.2160 C   0  0  0  0  0  0  0  0  0  0  0  0
  187.9600  176.9390  146.9400 C   0  0  0  0  0  3  0  0  0  0  0  0
  189.4040  177.4970  145.0780 C   0  0  0  0  0  3  0  0  0  0  0  0
  189.2370  176.9940  146.3730 C   0  0  0  0  0  0  0  0  0  0  0  0
  187.0240  177.9090  144.9260 C   0  0  0  0  0  3  0  0  0  0  0  0
  185.5680  177.2290  146.7740 O   0  0  0  0  0  0  0  0  0  0  0  0
  184.7760  178.3260  147.2000 C   0  0  0  0  0  1  0  0  0  0  0  0
  1 13  1  0  0  0  0
  1  8  1  1  0  0  0
  2  6  1  0  0  0  0
  3 20  1  6  0  0  0
  3  1  1  0  0  0  0
  3 17  1  0  0  0  0
  4 15  1  0  0  0  0
  5 18  1  6  0  0  0
  5 11  1  0  0  0  0
  7 10  1  0  0  0  0
  8  7  1  0  0  0  0
  9 16  1  0  0  0  0
 10  6  2  0  0  0  0
 11  7  2  0  0  0  0
 11 15  1  0  0  0  0
 12  9  1  0  0  0  0
 13  5  1  0  0  0  0
 13 12  1  1  0  0  0
 14 16  1  0  0  0  0
 15  2  2  0  0  0  0
 16 30  1  6  0  0  0
 17 14  1  0  0  0  0
 20 19  1  6  0  0  0
 21 22  1  0  0  0  0
 21 20  1  0  0  0  0
 22 23  1  0  0  0  0
 24 25  1  0  0  0  0
 24 23  1  0  0  0  0
 26 28  1  0  0  0  0
 26 25  1  0  0  0  0
 27 28  1  0  0  0  0
 28 29  2  0  0  0  0
 31 36  2  0  0  0  0
 31 34  1  0  0  0  0
 32 37  1  0  0  0  0
 32 33  2  0  0  0  0
 34 35  2  0  0  0  0
 35 33  1  0  0  0  0
 35 30  1  0  0  0  0
 36 32  1  0  0  0  0
 37 38  1  0  0  0  0
M  END
>  <MODEL>
3

>  <REMARK>
 VINA RESULT:      -7.1      1.789      2.512
  Name = 
  11 active torsions:
  status: ('A' for Active; 'I' for Inactive)
    1  A    between atoms: C_3  and  C_20
    2  A    between atoms: C_4  and  C_20
    3  A    between atoms: C_4  and  C_30
    4  A    between atoms: O_5  and  C_7
    5  A    between atoms: C_11  and  N_23
    6  A    between atoms: C_11  and  C_25
    7  A    between atoms: N_23  and  C_34
    8  A    between atoms: C_25  and  C_30
    9  A    between atoms: C_26  and  C_35
   10  A    between atoms: C_29  and  C_35
   11  A    between atoms: C_34  and  C_36
                            x       y       z     vdW  Elec       q    Type
                         _______ _______ _______ _____ _____    ______ ____

>  <TORSDO>
F 11

$$$$
=
 OpenBabel11042416233D

 38 41  0  0  1  0  0  0  0  0999 V2000
  191.6860  174.0940  143.7600 C   0  0  2  0  0  3  0  0  0  0  0  0
  196.5960  174.5730  145.0390 C   0  0  0  0  0  3  0  0  0  0  0  0
  190.2100  173.7180  144.0070 C   0  0  2  0  0  3  0  0  0  0  0  0
  196.2690  176.5430  143.6380 N   0  0  0  0  0  1  0  0  0  0  0  0
  193.4130  175.9580  143.4100 C   0  0  2  0  0  3  0  0  0  0  0  0
  196.1030  173.4350  145.6770 C   0  0  0  0  0  3  0  0  0  0  0  0
  193.8820  173.9240  144.8490 C   0  0  0  0  0  0  0  0  0  0  0  0
  192.5320  173.5760  144.7760 O   0  0  0  0  0  0  0  0  0  0  0  0
  191.4090  176.0320  145.9390 N   0  0  0  0  0  2  0  0  0  0  0  0
  194.7500  173.1120  145.5850 C   0  0  0  0  0  3  0  0  0  0  0  0
  194.3700  175.0570  144.1730 C   0  0  0  0  0  0  0  0  0  0  0  0
  191.2390  176.5230  144.5740 C   0  0  0  0  0  2  0  0  0  0  0  0
  191.9260  175.6040  143.5570 C   0  0  2  0  0  3  0  0  0  0  0  0
  189.1640  174.9200  145.9150 C   0  0  0  0  0  2  0  0  0  0  0  0
  195.7430  175.3790  144.2790 C   0  0  0  0  0  0  0  0  0  0  0  0
  190.1090  175.9150  146.6040 C   0  0  2  0  0  3  0  0  0  0  0  0
  189.8550  173.6260  145.4890 C   0  0  0  0  0  2  0  0  0  0  0  0
  193.7680  176.0600  141.9390 C   0  0  0  0  0  1  0  0  0  0  0  0
  190.8390  171.9350  142.4940 O   0  0  0  0  0  1  0  0  0  0  0  0
  189.7980  172.4330  143.2820 C   0  0  2  0  0  3  0  0  0  0  0  0
  188.5900  172.7070  142.4060 C   0  0  0  0  0  2  0  0  0  0  0  0
  188.4430  174.1950  142.1680 C   0  0  0  0  0  2  0  0  0  0  0  0
  188.5710  174.4860  140.6760 C   0  0  0  0  0  2  0  0  0  0  0  0
  188.5400  173.1950  139.8790 C   0  0  0  0  0  2  0  0  0  0  0  0
  188.2030  173.4850  138.4990 N   0  0  0  0  0  2  0  0  0  0  0  0
  189.1800  172.8140  137.6600 C   0  0  0  0  0  2  0  0  0  0  0  0
  191.4900  173.8240  137.8200 N   0  0  0  0  0  1  0  0  0  0  0  0
  190.2110  173.7960  137.1990 C   0  0  0  0  0  0  0  0  0  0  0  0
  189.9440  174.5950  136.2660 O   0  0  0  0  0  0  0  0  0  0  0  0
  189.4050  177.2660  146.7030 C   0  0  0  0  0  2  0  0  0  0  0  0
  185.6200  176.9450  146.5550 C   0  0  0  0  0  3  0  0  0  0  0  0
  186.4250  177.7470  144.4030 C   0  0  0  0  0  0  0  0  0  0  0  0
  187.7420  177.6610  144.8760 C   0  0  0  0  0  3  0  0  0  0  0  0
  186.9360  176.8880  147.0250 C   0  0  0  0  0  3  0  0  0  0  0  0
  187.9990  177.2370  146.1840 C   0  0  0  0  0  0  0  0  0  0  0  0
  185.3650  177.3670  145.2480 C   0  0  0  0  0  3  0  0  0  0  0  0
  186.1930  178.2590  143.1220 O   0  0  0  0  0  0  0  0  0  0  0  0
  186.1530  177.4480  141.9600 C   0  0  0  0  0  1  0  0  0  0  0  0
  1  3  1  0  0  0  0
  1  8  1  1  0  0  0
  2  6  1  0  0  0  0
  3 20  1  6  0  0  0
  3 17  1  0  0  0  0
  4 15  1  0  0  0  0
  5 18  1  6  0  0  0
  5 13  1  0  0  0  0
  5 11  1  0  0  0  0
  7 10  1  0  0  0  0
  8  7  1  0  0  0  0
  9 16  1  0  0  0  0
 10  6  2  0  0  0  0
 11 15  1  0  0  0  0
 11  7  2  0  0  0  0
 12  9  1  0  0  0  0
 13  1  1  0  0  0  0
 13 12  1  1  0  0  0
 14 16  1  0  0  0  0
 15  2  2  0  0  0  0
 16 30  1  6  0  0  0
 17 14  1  0  0  0  0
 20 19  1  6  0  0  0
 21 20  1  0  0  0  0
 22 21  1  0  0  0  0
 23 22  1  0  0  0  0
 24 23  1  0  0  0  0
 25 24  1  0  0  0  0
 26 25  1  0  0  0  0
 28 26  1  0  0  0  0
 28 27  1  0  0  0  0
 29 28  2  0  0  0  0
 31 34  1  0  0  0  0
 32 33  2  0  0  0  0
 32 36  1  0  0  0  0
 33 35  1  0  0  0  0
 35 30  1  0  0  0  0
 35 34  2  0  0  0  0
 36 31  2  0  0  0  0
 37 32  1  0  0  0  0
 38 37  1  0  0  0  0
M  END
>  <MODEL>
4

>  <REMARK>
 VINA RESULT:      -6.9      1.884      2.351
  Name = 
  11 active torsions:
  status: ('A' for Active; 'I' for Inactive)
    1  A    between atoms: C_3  and  C_20
    2  A    between atoms: C_4  and  C_20
    3  A    between atoms: C_4  and  C_30
    4  A    between atoms: O_5  and  C_7
    5  A    between atoms: C_11  and  N_23
    6  A    between atoms: C_11  and  C_25
    7  A    between atoms: N_23  and  C_34
    8  A    between atoms: C_25  and  C_30
    9  A    between atoms: C_26  and  C_35
   10  A    between atoms: C_29  and  C_35
   11  A    between atoms: C_34  and  C_36
                            x       y       z     vdW  Elec       q    Type
                         _______ _______ _______ _____ _____    ______ ____

>  <TORSDO>
F 11

$$$$
=
 OpenBabel11042416233D

 38 41  0  0  1  0  0  0  0  0999 V2000
  190.8370  174.9350  143.5170 C   0  0  2  0  0  3  0  0  0  0  0  0
  192.3630  172.2260  139.4790 C   0  0  0  0  0  3  0  0  0  0  0  0
  190.5370  176.2340  144.2930 C   0  0  2  0  0  3  0  0  0  0  0  0
  190.5590  170.8300  140.3400 N   0  0  0  0  0  1  0  0  0  0  0  0
  189.9060  172.8460  142.3560 C   0  0  2  0  0  3  0  0  0  0  0  0
  193.1340  173.3880  139.5220 C   0  0  0  0  0  3  0  0  0  0  0  0
  191.8260  174.1930  141.3930 C   0  0  0  0  0  0  0  0  0  0  0  0
  191.5790  175.1940  142.3340 O   0  0  0  0  0  0  0  0  0  0  0  0
  188.7930  175.7770  141.5950 N   0  0  0  0  0  2  0  0  0  0  0  0
  192.8650  174.3700  140.4750 C   0  0  0  0  0  3  0  0  0  0  0  0
  191.0610  173.0120  141.3820 C   0  0  0  0  0  0  0  0  0  0  0  0
  188.3880  174.8490  142.6460 C   0  0  0  0  0  2  0  0  0  0  0  0
  189.5900  174.0810  143.2100 C   0  0  2  0  0  3  0  0  0  0  0  0
  188.8570  177.7030  143.1970 C   0  0  0  0  0  2  0  0  0  0  0  0
  191.3380  172.0250  140.4070 C   0  0  0  0  0  0  0  0  0  0  0  0
  188.2990  177.1250  141.8880 C   0  0  2  0  0  3  0  0  0  0  0  0
  190.3520  177.4460  143.3820 C   0  0  0  0  0  2  0  0  0  0  0  0
  190.0810  171.6370  143.2550 C   0  0  0  0  0  1  0  0  0  0  0  0
  192.7350  177.1030  144.8190 O   0  0  0  0  0  1  0  0  0  0  0  0
  191.5840  176.5340  145.3700 C   0  0  2  0  0  3  0  0  0  0  0  0
  191.9530  175.2530  146.0930 C   0  0  0  0  0  2  0  0  0  0  0  0
  193.4550  175.0570  146.0780 C   0  0  0  0  0  2  0  0  0  0  0  0
  193.7820  173.6860  145.4980 C   0  0  0  0  0  2  0  0  0  0  0  0
  195.2790  173.4350  145.5400 C   0  0  0  0  0  2  0  0  0  0  0  0
  195.9840  174.7010  145.5110 N   0  0  0  0  0  2  0  0  0  0  0  0
  196.7380  174.7540  144.2710 C   0  0  0  0  0  2  0  0  0  0  0  0
  197.0730  177.0290  143.2250 N   0  0  0  0  0  1  0  0  0  0  0  0
  196.2470  175.8890  143.4280 C   0  0  0  0  0  0  0  0  0  0  0  0
  195.1050  175.8330  142.9030 O   0  0  0  0  0  0  0  0  0  0  0  0
  186.7750  177.1640  141.9500 C   0  0  0  0  0  2  0  0  0  0  0  0
  185.2870  179.8250  144.2220 C   0  0  0  0  0  3  0  0  0  0  0  0
  185.4830  177.7460  145.4710 C   0  0  0  0  0  0  0  0  0  0  0  0
  186.0710  177.1410  144.3510 C   0  0  0  0  0  3  0  0  0  0  0  0
  185.8510  179.2040  143.1020 C   0  0  0  0  0  3  0  0  0  0  0  0
  186.2520  177.8650  143.1680 C   0  0  0  0  0  0  0  0  0  0  0  0
  185.1090  179.1010  145.4030 C   0  0  0  0  0  3  0  0  0  0  0  0
  185.2330  176.9730  146.6100 O   0  0  0  0  0  0  0  0  0  0  0  0
  185.8650  177.2060  147.8580 C   0  0  0  0  0  1  0  0  0  0  0  0
  1  8  1  6  0  0  0
  1  3  1  0  0  0  0
  2  6  2  0  0  0  0
  2 15  1  0  0  0  0
  3 20  1  1  0  0  0
  4 15  1  0  0  0  0
  5 13  1  0  0  0  0
  5 18  1  1  0  0  0
  6 10  1  0  0  0  0
  7  8  1  0  0  0  0
  9 16  1  0  0  0  0
  9 12  1  0  0  0  0
 10  7  2  0  0  0  0
 11  7  1  0  0  0  0
 11  5  1  0  0  0  0
 13 12  1  6  0  0  0
 13  1  1  0  0  0  0
 14 17  1  0  0  0  0
 15 11  2  0  0  0  0
 16 30  1  1  0  0  0
 16 14  1  0  0  0  0
 17  3  1  0  0  0  0
 20 19  1  6  0  0  0
 20 21  1  0  0  0  0
 22 21  1  0  0  0  0
 23 24  1  0  0  0  0
 23 22  1  0  0  0  0
 25 24  1  0  0  0  0
 26 25  1  0  0  0  0
 27 28  1  0  0  0  0
 28 26  1  0  0  0  0
 29 28  2  0  0  0  0
 30 35  1  0  0  0  0
 31 36  1  0  0  0  0
 32 37  1  0  0  0  0
 33 32  1  0  0  0  0
 34 35  1  0  0  0  0
 34 31  2  0  0  0  0
 35 33  2  0  0  0  0
 36 32  2  0  0  0  0
 37 38  1  0  0  0  0
M  END
>  <MODEL>
5

>  <REMARK>
 VINA RESULT:      -6.8      2.059      5.674
  Name = 
  11 active torsions:
  status: ('A' for Active; 'I' for Inactive)
    1  A    between atoms: C_3  and  C_20
    2  A    between atoms: C_4  and  C_20
    3  A    between atoms: C_4  and  C_30
    4  A    between atoms: O_5  and  C_7
    5  A    between atoms: C_11  and  N_23
    6  A    between atoms: C_11  and  C_25
    7  A    between atoms: N_23  and  C_34
    8  A    between atoms: C_25  and  C_30
    9  A    between atoms: C_26  and  C_35
   10  A    between atoms: C_29  and  C_35
   11  A    between atoms: C_34  and  C_36
                            x       y       z     vdW  Elec       q    Type
                         _______ _______ _______ _____ _____    ______ ____

>  <TORSDO>
F 11

$$$$
=
 OpenBabel11042416233D

 38 41  0  0  1  0  0  0  0  0999 V2000
  188.7630  175.2840  144.3910 C   0  0  2  0  0  3  0  0  0  0  0  0
  185.8120  179.3900  143.7560 C   0  0  0  0  0  3  0  0  0  0  0  0
  189.9180  174.3270  144.0320 C   0  0  2  0  0  3  0  0  0  0  0  0
  185.9420  179.2630  146.1880 N   0  0  0  0  0  1  0  0  0  0  0  0
  187.8400  177.0450  146.0120 C   0  0  2  0  0  3  0  0  0  0  0  0
  186.1710  178.9300  142.4890 C   0  0  0  0  0  3  0  0  0  0  0  0
  187.5990  177.2540  143.4970 C   0  0  0  0  0  0  0  0  0  0  0  0
  188.4920  176.1930  143.3350 O   0  0  0  0  0  0  0  0  0  0  0  0
  190.7890  177.3700  144.7450 N   0  0  0  0  0  2  0  0  0  0  0  0
  187.0640  177.8660  142.3590 C   0  0  0  0  0  3  0  0  0  0  0  0
  187.2210  177.6870  144.7810 C   0  0  0  0  0  0  0  0  0  0  0  0
  190.3390  176.6590  145.9370 C   0  0  0  0  0  2  0  0  0  0  0  0
  188.9560  176.0300  145.7280 C   0  0  2  0  0  3  0  0  0  0  0  0
  192.1540  175.4110  143.9840 C   0  0  0  0  0  2  0  0  0  0  0  0
  186.3200  178.7710  144.9010 C   0  0  0  0  0  0  0  0  0  0  0  0
  192.1200  176.9030  144.3460 C   0  0  2  0  0  3  0  0  0  0  0  0
  190.9680  174.9690  143.1280 C   0  0  0  0  0  2  0  0  0  0  0  0
  186.7980  176.4150  146.9170 C   0  0  0  0  0  1  0  0  0  0  0  0
  190.0580  171.9100  144.0030 O   0  0  0  0  0  1  0  0  0  0  0  0
  189.4260  173.0110  143.4210 C   0  0  2  0  0  3  0  0  0  0  0  0
  189.6910  173.0120  141.9270 C   0  0  0  0  0  2  0  0  0  0  0  0
  188.3970  173.2170  141.1670 C   0  0  0  0  0  2  0  0  0  0  0  0
  188.4990  174.4840  140.3240 C   0  0  0  0  0  2  0  0  0  0  0  0
  188.1960  174.1790  138.8690 C   0  0  0  0  0  2  0  0  0  0  0  0
  188.6180  172.8270  138.5570 N   0  0  0  0  0  2  0  0  0  0  0  0
  189.4220  172.8870  137.3490 C   0  0  0  0  0  2  0  0  0  0  0  0
  191.6390  174.0190  136.9210 N   0  0  0  0  0  1  0  0  0  0  0  0
  190.8550  173.1300  137.7060 C   0  0  0  0  0  0  0  0  0  0  0  0
  191.3630  172.5470  138.6980 O   0  0  0  0  0  0  0  0  0  0  0  0
  193.1570  177.1630  145.4350 C   0  0  0  0  0  2  0  0  0  0  0  0
  195.8980  174.5500  145.7580 C   0  0  0  0  0  3  0  0  0  0  0  0
  196.4180  176.0060  143.8790 C   0  0  0  0  0  0  0  0  0  0  0  0
  195.2730  176.7640  144.1630 C   0  0  0  0  0  3  0  0  0  0  0  0
  194.7440  175.2970  146.0160 C   0  0  0  0  0  3  0  0  0  0  0  0
  194.4350  176.4090  145.2250 C   0  0  0  0  0  0  0  0  0  0  0  0
  196.7350  174.9060  144.6980 C   0  0  0  0  0  3  0  0  0  0  0  0
  197.1890  176.3300  142.7570 O   0  0  0  0  0  0  0  0  0  0  0  0
  196.6810  176.2990  141.4340 C   0  0  0  0  0  1  0  0  0  0  0  0
  1  8  1  6  0  0  0
  1 13  1  0  0  0  0
  2 15  1  0  0  0  0
  3 20  1  6  0  0  0
  3  1  1  0  0  0  0
  5 18  1  6  0  0  0
  6  2  2  0  0  0  0
  7 11  1  0  0  0  0
  8  7  1  0  0  0  0
  9 12  1  0  0  0  0
 10  6  1  0  0  0  0
 10  7  2  0  0  0  0
 11 15  2  0  0  0  0
 11  5  1  0  0  0  0
 13 12  1  6  0  0  0
 13  5  1  0  0  0  0
 14 16  1  0  0  0  0
 15  4  1  0  0  0  0
 16  9  1  0  0  0  0
 16 30  1  1  0  0  0
 17 14  1  0  0  0  0
 17  3  1  0  0  0  0
 20 19  1  1  0  0  0
 21 20  1  0  0  0  0
 22 21  1  0  0  0  0
 23 22  1  0  0  0  0
 24 23  1  0  0  0  0
 25 24  1  0  0  0  0
 26 28  1  0  0  0  0
 26 25  1  0  0  0  0
 27 28  1  0  0  0  0
 28 29  2  0  0  0  0
 31 34  1  0  0  0  0
 32 33  2  0  0  0  0
 32 36  1  0  0  0  0
 33 35  1  0  0  0  0
 35 30  1  0  0  0  0
 35 34  2  0  0  0  0
 36 31  2  0  0  0  0
 37 32  1  0  0  0  0
 38 37  1  0  0  0  0
M  END
>  <MODEL>
6

>  <REMARK>
 VINA RESULT:      -6.7      2.474      7.269
  Name = 
  11 active torsions:
  status: ('A' for Active; 'I' for Inactive)
    1  A    between atoms: C_3  and  C_20
    2  A    between atoms: C_4  and  C_20
    3  A    between atoms: C_4  and  C_30
    4  A    between atoms: O_5  and  C_7
    5  A    between atoms: C_11  and  N_23
    6  A    between atoms: C_11  and  C_25
    7  A    between atoms: N_23  and  C_34
    8  A    between atoms: C_25  and  C_30
    9  A    between atoms: C_26  and  C_35
   10  A    between atoms: C_29  and  C_35
   11  A    between atoms: C_34  and  C_36
                            x       y       z     vdW  Elec       q    Type
                         _______ _______ _______ _____ _____    ______ ____

>  <TORSDO>
F 11

$$$$
=
 OpenBabel11042416233D

 38 41  0  0  1  0  0  0  0  0999 V2000
  192.4700  174.3320  144.6490 C   0  0  2  0  0  3  0  0  0  0  0  0
  191.2600  172.4710  140.0620 C   0  0  0  0  0  3  0  0  0  0  0  0
  192.6590  175.4490  145.6960 C   0  0  2  0  0  3  0  0  0  0  0  0
  190.4650  170.6920  141.5270 N   0  0  0  0  0  1  0  0  0  0  0  0
  191.1210  172.2870  143.8890 C   0  0  2  0  0  3  0  0  0  0  0  0
  191.8290  173.7300  139.8690 C   0  0  0  0  0  3  0  0  0  0  0  0
  191.9450  174.0520  142.2650 C   0  0  0  0  0  0  0  0  0  0  0  0
  192.2940  174.8650  143.3450 O   0  0  0  0  0  0  0  0  0  0  0  0
  189.6350  175.0650  144.5860 N   0  0  0  0  0  2  0  0  0  0  0  0
  192.1690  174.5200  140.9670 C   0  0  0  0  0  3  0  0  0  0  0  0
  191.4010  172.7710  142.4750 C   0  0  0  0  0  0  0  0  0  0  0  0
  190.0240  173.9520  145.4460 C   0  0  0  0  0  2  0  0  0  0  0  0
  191.3500  173.3290  144.9930 C   0  0  2  0  0  3  0  0  0  0  0  0
  190.5940  176.7460  146.1760 C   0  0  0  0  0  2  0  0  0  0  0  0
  191.0540  171.9820  141.3540 C   0  0  0  0  0  0  0  0  0  0  0  0
  189.3680  176.2610  145.3890 C   0  0  2  0  0  3  0  0  0  0  0  0
  191.8850  176.7220  145.3600 C   0  0  0  0  0  2  0  0  0  0  0  0
  191.8800  171.0170  144.2220 C   0  0  0  0  0  1  0  0  0  0  0  0
  194.5780  176.8110  145.1260 O   0  0  0  0  0  1  0  0  0  0  0  0
  194.1340  175.7760  145.9520 C   0  0  2  0  0  3  0  0  0  0  0  0
  194.9790  174.5400  145.7090 C   0  0  0  0  0  2  0  0  0  0  0  0
  196.2350  174.9070  144.9450 C   0  0  0  0  0  2  0  0  0  0  0  0
  197.3220  173.8770  145.2310 C   0  0  0  0  0  2  0  0  0  0  0  0
  196.7850  172.7690  146.1180 C   0  0  0  0  0  2  0  0  0  0  0  0
  196.9550  171.4910  145.4560 N   0  0  0  0  0  2  0  0  0  0  0  0
  195.7460  170.7190  145.6760 C   0  0  0  0  0  2  0  0  0  0  0  0
  194.9380  168.9740  147.3150 N   0  0  0  0  0  1  0  0  0  0  0  0
  196.0190  169.6150  146.6490 C   0  0  0  0  0  0  0  0  0  0  0  0
  197.2030  169.2590  146.8790 O   0  0  0  0  0  0  0  0  0  0  0  0
  188.2200  176.0350  146.3690 C   0  0  0  0  0  2  0  0  0  0  0  0
  184.7890  177.6590  146.5750 C   0  0  0  0  0  3  0  0  0  0  0  0
  185.7940  178.2180  144.4320 C   0  0  0  0  0  0  0  0  0  0  0  0
  186.9070  177.4300  144.7600 C   0  0  0  0  0  3  0  0  0  0  0  0
  185.9150  176.8970  146.9040 C   0  0  0  0  0  3  0  0  0  0  0  0
  186.9710  176.7740  145.9940 C   0  0  0  0  0  0  0  0  0  0  0  0
  184.7260  178.3120  145.3420 C   0  0  0  0  0  3  0  0  0  0  0  0
  185.7970  178.9340  143.2300 O   0  0  0  0  0  0  0  0  0  0  0  0
  186.6470  178.6150  142.1400 C   0  0  0  0  0  1  0  0  0  0  0  0
  1  8  1  6  0  0  0
  1 13  1  0  0  0  0
  1  3  1  0  0  0  0
  2 15  1  0  0  0  0
  3 20  1  6  0  0  0
  5 18  1  1  0  0  0
  5 13  1  0  0  0  0
  6  2  2  0  0  0  0
  6 10  1  0  0  0  0
  7 11  1  0  0  0  0
  7  8  1  0  0  0  0
  9 16  1  0  0  0  0
  9 12  1  0  0  0  0
 10  7  2  0  0  0  0
 11  5  1  0  0  0  0
 13 12  1  6  0  0  0
 15  4  1  0  0  0  0
 15 11  2  0  0  0  0
 16 14  1  0  0  0  0
 16 30  1  1  0  0  0
 17  3  1  0  0  0  0
 17 14  1  0  0  0  0
 20 19  1  6  0  0  0
 21 20  1  0  0  0  0
 22 23  1  0  0  0  0
 22 21  1  0  0  0  0
 23 24  1  0  0  0  0
 25 26  1  0  0  0  0
 25 24  1  0  0  0  0
 26 28  1  0  0  0  0
 28 29  2  0  0  0  0
 28 27  1  0  0  0  0
 31 34  1  0  0  0  0
 32 33  2  0  0  0  0
 32 36  1  0  0  0  0
 33 35  1  0  0  0  0
 35 30  1  0  0  0  0
 35 34  2  0  0  0  0
 36 31  2  0  0  0  0
 37 32  1  0  0  0  0
 38 37  1  0  0  0  0
M  END
>  <MODEL>
7

>  <REMARK>
 VINA RESULT:      -6.6      2.798      6.436
  Name = 
  11 active torsions:
  status: ('A' for Active; 'I' for Inactive)
    1  A    between atoms: C_3  and  C_20
    2  A    between atoms: C_4  and  C_20
    3  A    between atoms: C_4  and  C_30
    4  A    between atoms: O_5  and  C_7
    5  A    between atoms: C_11  and  N_23
    6  A    between atoms: C_11  and  C_25
    7  A    between atoms: N_23  and  C_34
    8  A    between atoms: C_25  and  C_30
    9  A    between atoms: C_26  and  C_35
   10  A    between atoms: C_29  and  C_35
   11  A    between atoms: C_34  and  C_36
                            x       y       z     vdW  Elec       q    Type
                         _______ _______ _______ _____ _____    ______ ____

>  <TORSDO>
F 11

$$$$
=
 OpenBabel11042416233D

 38 41  0  0  1  0  0  0  0  0999 V2000
  189.1100  176.9290  143.5410 C   0  0  2  0  0  3  0  0  0  0  0  0
  184.7820  177.6150  146.1420 C   0  0  0  0  0  3  0  0  0  0  0  0
  190.4160  176.1950  143.1740 C   0  0  2  0  0  3  0  0  0  0  0  0
  184.1410  178.4040  143.9250 N   0  0  0  0  0  1  0  0  0  0  0  0
  186.7330  177.5940  142.8420 C   0  0  2  0  0  3  0  0  0  0  0  0
  185.7110  177.0460  147.0130 C   0  0  0  0  0  3  0  0  0  0  0  0
  187.2960  176.8370  145.1950 C   0  0  0  0  0  0  0  0  0  0  0  0
  188.5570  176.4350  144.7520 O   0  0  0  0  0  0  0  0  0  0  0  0
  187.6810  174.5120  142.7070 N   0  0  0  0  0  2  0  0  0  0  0  0
  186.9640  176.6560  146.5410 C   0  0  0  0  0  3  0  0  0  0  0  0
  186.3810  177.4390  144.3120 C   0  0  0  0  0  0  0  0  0  0  0  0
  187.8080  175.5910  141.7310 C   0  0  0  0  0  2  0  0  0  0  0  0
  188.0550  176.9410  142.4160 C   0  0  2  0  0  3  0  0  0  0  0  0
  190.0800  173.8500  142.4200 C   0  0  0  0  0  2  0  0  0  0  0  0
  185.1100  177.8250  144.8000 C   0  0  0  0  0  0  0  0  0  0  0  0
  188.6060  173.4220  142.3840 C   0  0  2  0  0  3  0  0  0  0  0  0
  190.4250  174.7330  143.6180 C   0  0  0  0  0  2  0  0  0  0  0  0
  186.7150  179.0430  142.3960 C   0  0  0  0  0  1  0  0  0  0  0  0
  191.5680  178.2960  143.5170 O   0  0  0  0  0  1  0  0  0  0  0  0
  191.6650  176.9140  143.6930 C   0  0  2  0  0  3  0  0  0  0  0  0
  192.8900  176.3990  142.9620 C   0  0  0  0  0  2  0  0  0  0  0  0
  194.0950  176.4210  143.8800 C   0  0  0  0  0  2  0  0  0  0  0  0
  193.9480  175.3330  144.9370 C   0  0  0  0  0  2  0  0  0  0  0  0
  194.2070  175.8990  146.3210 C   0  0  0  0  0  2  0  0  0  0  0  0
  192.9690  176.4110  146.8770 N   0  0  0  0  0  2  0  0  0  0  0  0
  192.0940  175.2770  147.1130 C   0  0  0  0  0  2  0  0  0  0  0  0
  190.4470  177.1570  147.4820 N   0  0  0  0  0  1  0  0  0  0  0  0
  190.7120  175.7610  147.4230 C   0  0  0  0  0  0  0  0  0  0  0  0
  189.7890  174.9320  147.6330 O   0  0  0  0  0  0  0  0  0  0  0  0
  188.3070  172.8190  141.0140 C   0  0  0  0  0  2  0  0  0  0  0  0
  191.1670  173.1780  138.5360 C   0  0  0  0  0  3  0  0  0  0  0  0
  191.5400  171.1860  139.8820 C   0  0  0  0  0  0  0  0  0  0  0  0
  190.3250  171.4170  140.5420 C   0  0  0  0  0  3  0  0  0  0  0  0
  189.9700  173.4140  139.2190 C   0  0  0  0  0  3  0  0  0  0  0  0
  189.5420  172.5290  140.2160 C   0  0  0  0  0  0  0  0  0  0  0  0
  191.9470  172.0650  138.8620 C   0  0  0  0  0  3  0  0  0  0  0  0
  192.3450  170.1170  140.2910 O   0  0  0  0  0  0  0  0  0  0  0  0
  193.6440  170.2880  140.8320 C   0  0  0  0  0  1  0  0  0  0  0  0
  1  8  1  1  0  0  0
  2  6  1  0  0  0  0
  3  1  1  0  0  0  0
  3 17  1  0  0  0  0
  3 20  1  1  0  0  0
  4 15  1  0  0  0  0
  5 18  1  1  0  0  0
  5 11  1  0  0  0  0
  7 10  1  0  0  0  0
  8  7  1  0  0  0  0
 10  6  2  0  0  0  0
 11 15  1  0  0  0  0
 11  7  2  0  0  0  0
 12  9  1  0  0  0  0
 13 12  1  1  0  0  0
 13  5  1  0  0  0  0
 13  1  1  0  0  0  0
 14 17  1  0  0  0  0
 15  2  2  0  0  0  0
 16 30  1  6  0  0  0
 16 14  1  0  0  0  0
 16  9  1  0  0  0  0
 20 19  1  6  0  0  0
 21 20  1  0  0  0  0
 21 22  1  0  0  0  0
 22 23  1  0  0  0  0
 23 24  1  0  0  0  0
 24 25  1  0  0  0  0
 25 26  1  0  0  0  0
 26 28  1  0  0  0  0
 28 27  1  0  0  0  0
 28 29  2  0  0  0  0
 31 36  2  0  0  0  0
 31 34  1  0  0  0  0
 32 37  1  0  0  0  0
 32 33  2  0  0  0  0
 34 35  2  0  0  0  0
 35 33  1  0  0  0  0
 35 30  1  0  0  0  0
 36 32  1  0  0  0  0
 37 38  1  0  0  0  0
M  END
>  <MODEL>
8

>  <REMARK>
 VINA RESULT:      -6.6      2.343      8.043
  Name = 
  11 active torsions:
  status: ('A' for Active; 'I' for Inactive)
    1  A    between atoms: C_3  and  C_20
    2  A    between atoms: C_4  and  C_20
    3  A    between atoms: C_4  and  C_30
    4  A    between atoms: O_5  and  C_7
    5  A    between atoms: C_11  and  N_23
    6  A    between atoms: C_11  and  C_25
    7  A    between atoms: N_23  and  C_34
    8  A    between atoms: C_25  and  C_30
    9  A    between atoms: C_26  and  C_35
   10  A    between atoms: C_29  and  C_35
   11  A    between atoms: C_34  and  C_36
                            x       y       z     vdW  Elec       q    Type
                         _______ _______ _______ _____ _____    ______ ____

>  <TORSDO>
F 11

$$$$
=
 OpenBabel11042416233D

 38 41  0  0  1  0  0  0  0  0999 V2000
  192.6010  174.0440  144.6050 C   0  0  2  0  0  3  0  0  0  0  0  0
  191.3230  172.5870  139.8920 C   0  0  0  0  0  3  0  0  0  0  0  0
  192.8470  175.0710  145.7290 C   0  0  2  0  0  3  0  0  0  0  0  0
  190.4110  170.7590  141.2240 N   0  0  0  0  0  1  0  0  0  0  0  0
  191.1400  172.1420  143.6960 C   0  0  2  0  0  3  0  0  0  0  0  0
  191.9680  173.8190  139.7910 C   0  0  0  0  0  3  0  0  0  0  0  0
  192.0820  173.9640  142.2050 C   0  0  0  0  0  0  0  0  0  0  0  0
  192.4680  174.6770  143.3410 O   0  0  0  0  0  0  0  0  0  0  0  0
  189.8150  174.9490  144.5800 N   0  0  0  0  0  2  0  0  0  0  0  0
  192.3450  174.5080  140.9440 C   0  0  0  0  0  3  0  0  0  0  0  0
  191.4610  172.7070  142.3210 C   0  0  0  0  0  0  0  0  0  0  0  0
  190.1300  173.7560  145.3620 C   0  0  0  0  0  2  0  0  0  0  0  0
  191.4200  173.0880  144.8710 C   0  0  2  0  0  3  0  0  0  0  0  0
  190.8590  176.4530  146.2900 C   0  0  0  0  0  2  0  0  0  0  0  0
  191.0770  172.0210  141.1450 C   0  0  0  0  0  0  0  0  0  0  0  0
  189.6130  176.0990  145.4650 C   0  0  2  0  0  3  0  0  0  0  0  0
  192.1530  176.4090  145.4800 C   0  0  0  0  0  2  0  0  0  0  0  0
  191.8190  170.8090  143.9420 C   0  0  0  0  0  1  0  0  0  0  0  0
  194.7780  176.5160  145.5090 O   0  0  0  0  0  1  0  0  0  0  0  0
  194.3360  175.2910  146.0140 C   0  0  2  0  0  3  0  0  0  0  0  0
  195.1450  174.1690  145.3900 C   0  0  0  0  0  2  0  0  0  0  0  0
  196.4660  174.0110  146.1140 C   0  0  0  0  0  2  0  0  0  0  0  0
  197.5930  173.8900  145.0940 C   0  0  0  0  0  2  0  0  0  0  0  0
  197.0280  173.7530  143.6920 C   0  0  0  0  0  2  0  0  0  0  0  0
  197.9310  174.3720  142.7420 N   0  0  0  0  0  2  0  0  0  0  0  0
  197.1210  175.0510  141.7460 C   0  0  0  0  0  2  0  0  0  0  0  0
  197.2140  177.1570  143.1380 N   0  0  0  0  0  1  0  0  0  0  0  0
  196.4530  176.2400  142.3620 C   0  0  0  0  0  0  0  0  0  0  0  0
  195.2200  176.4240  142.1940 O   0  0  0  0  0  0  0  0  0  0  0  0
  188.4450  175.8740  146.4210 C   0  0  0  0  0  2  0  0  0  0  0  0
  185.6810  178.4560  146.8040 C   0  0  0  0  0  3  0  0  0  0  0  0
  185.7270  177.6920  144.4950 C   0  0  0  0  0  0  0  0  0  0  0  0
  186.7600  176.8010  144.8210 C   0  0  0  0  0  3  0  0  0  0  0  0
  186.7300  177.5830  147.1130 C   0  0  0  0  0  3  0  0  0  0  0  0
  187.2640  176.7480  146.1250 C   0  0  0  0  0  0  0  0  0  0  0  0
  185.1780  178.5060  145.5020 C   0  0  0  0  0  3  0  0  0  0  0  0
  185.3050  177.7870  143.1650 O   0  0  0  0  0  0  0  0  0  0  0  0
  184.0370  178.3000  142.7890 C   0  0  0  0  0  1  0  0  0  0  0  0
  1  8  1  6  0  0  0
  1 13  1  0  0  0  0
  1  3  1  0  0  0  0
  2 15  1  0  0  0  0
  3 20  1  6  0  0  0
  5 18  1  1  0  0  0
  5 13  1  0  0  0  0
  6  2  2  0  0  0  0
  6 10  1  0  0  0  0
  7 11  1  0  0  0  0
  7  8  1  0  0  0  0
  9 12  1  0  0  0  0
  9 16  1  0  0  0  0
 10  7  2  0  0  0  0
 11  5  1  0  0  0  0
 13 12  1  6  0  0  0
 15  4  1  0  0  0  0
 15 11  2  0  0  0  0
 16 14  1  0  0  0  0
 16 30  1  1  0  0  0
 17  3  1  0  0  0  0
 17 14  1  0  0  0  0
 20 19  1  6  0  0  0
 21 20  1  0  0  0  0
 21 22  1  0  0  0  0
 23 22  1  0  0  0  0
 24 23  1  0  0  0  0
 25 24  1  0  0  0  0
 26 28  1  0  0  0  0
 26 25  1  0  0  0  0
 28 27  1  0  0  0  0
 29 28  2  0  0  0  0
 31 34  1  0  0  0  0
 32 33  2  0  0  0  0
 32 36  1  0  0  0  0
 33 35  1  0  0  0  0
 35 30  1  0  0  0  0
 35 34  2  0  0  0  0
 36 31  2  0  0  0  0
 37 32  1  0  0  0  0
 38 37  1  0  0  0  0
M  END
>  <MODEL>
9

>  <REMARK>
 VINA RESULT:      -6.5      2.201      5.690
  Name = 
  11 active torsions:
  status: ('A' for Active; 'I' for Inactive)
    1  A    between atoms: C_3  and  C_20
    2  A    between atoms: C_4  and  C_20
    3  A    between atoms: C_4  and  C_30
    4  A    between atoms: O_5  and  C_7
    5  A    between atoms: C_11  and  N_23
    6  A    between atoms: C_11  and  C_25
    7  A    between atoms: N_23  and  C_34
    8  A    between atoms: C_25  and  C_30
    9  A    between atoms: C_26  and  C_35
   10  A    between atoms: C_29  and  C_35
   11  A    between atoms: C_34  and  C_36
                            x       y       z     vdW  Elec       q    Type
                         _______ _______ _______ _____ _____    ______ ____

>  <TORSDO>
F 11

$$$$
