=
 OpenBabel11042413453D

 30 35  0  0  1  0  0  0  0  0999 V2000
  188.9480  175.2450  142.6290 C   0  0  0  0  0  0  0  0  0  0  0  0
  185.8650  177.8700  146.8780 C   0  0  1  0  0  3  0  0  0  0  0  0
  186.7590  177.5240  145.6660 C   0  0  2  0  0  3  0  0  0  0  0  0
  184.0590  178.6660  145.2110 C   0  0  0  0  0  2  0  0  0  0  0  0
  190.4450  177.0560  142.9200 C   0  0  0  0  0  2  0  0  0  0  0  0
  186.2450  179.2000  147.5230 C   0  0  0  0  0  1  0  0  0  0  0  0
  188.2380  177.4580  145.9840 C   0  0  0  0  0  0  0  0  0  0  0  0
  184.3830  177.8740  146.4890 C   0  0  0  0  0  2  0  0  0  0  0  0
  185.2920  179.2870  144.5470 C   0  0  0  0  0  2  0  0  0  0  0  0
  186.4100  178.2570  144.3550 C   0  0  2  0  0  3  0  0  0  0  0  0
  188.6050  177.4090  147.1890 O   0  0  0  0  0  0  0  0  0  0  0  0
  189.0920  177.3960  143.5280 C   0  0  1  0  0  3  0  0  0  0  0  0
  188.2290  176.2880  143.0290 C   0  0  0  0  0  0  0  0  0  0  0  0
  186.7710  176.3970  142.7970 C   0  0  0  0  0  3  0  0  0  0  0  0
  185.9940  177.2750  143.3590 N   0  0  0  0  0  0  0  0  0  0  0  0
  189.2470  177.3180  144.9780 N   0  0  0  0  0  2  0  0  0  0  0  0
  190.4070  175.5510  142.6710 C   0  0  0  0  0  2  0  0  0  0  0  0
  188.7720  174.3730  137.2010 N   0  0  0  0  0  0  0  0  0  0  0  0
  189.2430  173.8700  136.0270 C   0  0  0  0  0  3  0  0  0  0  0  0
  189.9620  172.6680  136.0100 C   0  0  0  0  0  3  0  0  0  0  0  0
  189.9780  171.8910  139.5890 N   0  0  0  0  0  0  0  0  0  0  0  0
  189.5090  172.4200  140.7480 C   0  0  0  0  0  0  0  0  0  0  0  0
  188.7740  173.5760  140.7700 C   0  0  0  0  0  0  0  0  0  0  0  0
  188.4860  174.2560  139.5830 C   0  0  0  0  0  3  0  0  0  0  0  0
  189.7380  172.5290  138.4070 C   0  0  0  0  0  0  0  0  0  0  0  0
  190.2090  171.9980  137.2080 C   0  0  0  0  0  3  0  0  0  0  0  0
  188.8940  172.7720  143.0030 C   0  0  0  0  0  3  0  0  0  0  0  0
  188.3500  173.9380  142.1500 C   0  0  1  0  0  3  0  0  0  0  0  0
  188.9890  173.7330  138.3840 C   0  0  0  0  0  0  0  0  0  0  0  0
  189.6640  171.8140  142.0830 C   0  0  0  0  0  3  0  0  0  0  0  0
  1 17  1  0  0  0  0
  1 13  2  0  0  0  0
  2  6  1  6  0  0  0
  3  7  1  1  0  0  0
  3  2  1  0  0  0  0
  4  8  1  0  0  0  0
  7 11  2  0  0  0  0
  8  2  1  0  0  0  0
  9  4  1  0  0  0  0
 10  9  1  1  0  0  0
 10  3  1  0  0  0  0
 12  5  1  6  0  0  0
 12 16  1  0  0  0  0
 13 12  1  0  0  0  0
 14 13  1  0  0  0  0
 14 15  2  0  0  0  0
 15 10  1  0  0  0  0
 16  7  1  0  0  0  0
 17  5  1  0  0  0  0
 18 29  1  0  0  0  0
 19 18  2  0  0  0  0
 20 19  1  0  0  0  0
 20 26  2  0  0  0  0
 21 22  1  0  0  0  0
 22 23  2  0  0  0  0
 22 30  1  0  0  0  0
 23 28  1  0  0  0  0
 24 23  1  0  0  0  0
 25 21  2  0  0  0  0
 26 25  1  0  0  0  0
 28  1  1  1  0  0  0
 28 27  1  0  0  0  0
 29 25  1  0  0  0  0
 29 24  2  0  0  0  0
 30 27  2  0  0  0  0
M  END
>  <MODEL>
1

>  <REMARK>
 VINA RESULT:      -9.0      0.000      0.000
  Name = 
  1 active torsions:
  status: ('A' for Active; 'I' for Inactive)
    1  A    between atoms: C_1  and  C_19
                            x       y       z     vdW  Elec       q    Type
                         _______ _______ _______ _____ _____    ______ ____

>  <TORSDO>
F 1

$$$$
=
 OpenBabel11042413453D

 30 35  0  0  1  0  0  0  0  0999 V2000
  190.6120  175.5540  144.4750 C   0  0  0  0  0  0  0  0  0  0  0  0
  185.9560  179.1090  144.8490 C   0  0  1  0  0  3  0  0  0  0  0  0
  186.9300  177.9240  144.6570 C   0  0  2  0  0  3  0  0  0  0  0  0
  185.1460  177.9800  147.0280 C   0  0  0  0  0  2  0  0  0  0  0  0
  189.4050  174.5480  142.7040 C   0  0  0  0  0  2  0  0  0  0  0  0
  184.7010  178.9790  143.9920 C   0  0  0  0  0  1  0  0  0  0  0  0
  187.3860  177.7200  143.2280 C   0  0  0  0  0  0  0  0  0  0  0  0
  185.5760  179.2790  146.3240 C   0  0  0  0  0  2  0  0  0  0  0  0
  185.2030  176.7470  146.1220 C   0  0  0  0  0  2  0  0  0  0  0  0
  186.5530  176.6310  145.4080 C   0  0  2  0  0  3  0  0  0  0  0  0
  187.1880  178.6370  142.3850 O   0  0  0  0  0  0  0  0  0  0  0  0
  188.4670  175.3800  143.5660 C   0  0  1  0  0  3  0  0  0  0  0  0
  189.3190  175.7060  144.7440 C   0  0  0  0  0  0  0  0  0  0  0  0
  188.8050  175.9570  146.1100 C   0  0  0  0  0  3  0  0  0  0  0  0
  187.5930  176.3330  146.3890 N   0  0  0  0  0  0  0  0  0  0  0  0
  188.1500  176.5860  142.8070 N   0  0  0  0  0  2  0  0  0  0  0  0
  190.8120  174.9700  143.1170 C   0  0  0  0  0  2  0  0  0  0  0  0
  194.1500  171.5450  145.7640 N   0  0  0  0  0  0  0  0  0  0  0  0
  195.3160  170.8530  145.6340 C   0  0  0  0  0  3  0  0  0  0  0  0
  196.4890  171.5120  145.2450 C   0  0  0  0  0  3  0  0  0  0  0  0
  195.1960  174.9120  144.8240 N   0  0  0  0  0  0  0  0  0  0  0  0
  194.0190  175.5770  144.9480 C   0  0  0  0  0  0  0  0  0  0  0  0
  192.8740  174.9480  145.3620 C   0  0  0  0  0  0  0  0  0  0  0  0
  192.8840  173.5840  145.6680 C   0  0  0  0  0  3  0  0  0  0  0  0
  195.2520  173.5760  145.0930 C   0  0  0  0  0  0  0  0  0  0  0  0
  196.4530  172.8800  144.9740 C   0  0  0  0  0  3  0  0  0  0  0  0
  192.3520  177.2490  145.0720 C   0  0  0  0  0  3  0  0  0  0  0  0
  191.7240  175.8890  145.4470 C   0  0  1  0  0  3  0  0  0  0  0  0
  194.0890  172.8830  145.5160 C   0  0  0  0  0  0  0  0  0  0  0  0
  193.8310  177.0220  144.7260 C   0  0  0  0  0  3  0  0  0  0  0  0
  1 13  2  0  0  0  0
  2  6  1  6  0  0  0
  2  8  1  0  0  0  0
  3  7  1  6  0  0  0
  3  2  1  0  0  0  0
  3 10  1  0  0  0  0
  5 17  1  0  0  0  0
  8  4  1  0  0  0  0
  9  4  1  0  0  0  0
 10  9  1  1  0  0  0
 10 15  1  0  0  0  0
 11  7  2  0  0  0  0
 12  5  1  6  0  0  0
 12 13  1  0  0  0  0
 13 14  1  0  0  0  0
 14 15  2  0  0  0  0
 16  7  1  0  0  0  0
 16 12  1  0  0  0  0
 17  1  1  0  0  0  0
 19 18  1  0  0  0  0
 20 19  2  0  0  0  0
 21 22  2  0  0  0  0
 21 25  1  0  0  0  0
 22 23  1  0  0  0  0
 23 28  1  0  0  0  0
 23 24  2  0  0  0  0
 25 29  1  0  0  0  0
 26 25  2  0  0  0  0
 26 20  1  0  0  0  0
 27 28  1  0  0  0  0
 28  1  1  6  0  0  0
 29 24  1  0  0  0  0
 29 18  2  0  0  0  0
 30 22  1  0  0  0  0
 30 27  2  0  0  0  0
M  END
>  <MODEL>
2

>  <REMARK>
 VINA RESULT:      -8.9      3.888      6.026
  Name = 
  1 active torsions:
  status: ('A' for Active; 'I' for Inactive)
    1  A    between atoms: C_1  and  C_19
                            x       y       z     vdW  Elec       q    Type
                         _______ _______ _______ _____ _____    ______ ____

>  <TORSDO>
F 1

$$$$
=
 OpenBabel11042413453D

 30 35  0  0  1  0  0  0  0  0999 V2000
  190.4060  175.7500  144.9160 C   0  0  0  0  0  0  0  0  0  0  0  0
  196.2010  175.6370  143.9900 C   0  0  1  0  0  3  0  0  0  0  0  0
  194.6760  175.3850  143.9990 C   0  0  2  0  0  3  0  0  0  0  0  0
  195.9400  176.6210  141.6150 C   0  0  0  0  0  2  0  0  0  0  0  0
  190.5570  173.4010  144.6620 C   0  0  0  0  0  2  0  0  0  0  0  0
  197.0000  174.3760  143.6760 C   0  0  0  0  0  1  0  0  0  0  0  0
  194.2280  174.3200  144.9770 C   0  0  0  0  0  0  0  0  0  0  0  0
  196.5710  176.7560  143.0110 C   0  0  0  0  0  2  0  0  0  0  0  0
  195.0320  175.3950  141.4720 C   0  0  0  0  0  2  0  0  0  0  0  0
  194.0100  175.3120  142.6100 C   0  0  2  0  0  3  0  0  0  0  0  0
  195.0290  173.9300  145.8690 O   0  0  0  0  0  0  0  0  0  0  0  0
  191.7980  174.0680  144.0860 C   0  0  1  0  0  3  0  0  0  0  0  0
  191.4180  175.5090  144.0900 C   0  0  0  0  0  0  0  0  0  0  0  0
  191.9410  176.5180  143.1410 C   0  0  0  0  0  3  0  0  0  0  0  0
  193.0570  176.4100  142.4830 N   0  0  0  0  0  0  0  0  0  0  0  0
  192.8880  173.8180  145.0240 N   0  0  0  0  0  2  0  0  0  0  0  0
  189.8660  174.4820  145.4870 C   0  0  0  0  0  2  0  0  0  0  0  0
  186.6760  177.7500  141.4040 N   0  0  0  0  0  0  0  0  0  0  0  0
  185.4070  178.0060  140.9810 C   0  0  0  0  0  3  0  0  0  0  0  0
  184.3860  178.2400  141.9110 C   0  0  0  0  0  3  0  0  0  0  0  0
  186.2670  177.8490  145.0280 N   0  0  0  0  0  0  0  0  0  0  0  0
  187.5370  177.5790  145.4250 C   0  0  0  0  0  0  0  0  0  0  0  0
  188.5500  177.3840  144.5220 C   0  0  0  0  0  0  0  0  0  0  0  0
  188.3000  177.4550  143.1480 C   0  0  0  0  0  3  0  0  0  0  0  0
  185.9700  177.9100  143.6980 C   0  0  0  0  0  0  0  0  0  0  0  0
  184.6730  178.1900  143.2750 C   0  0  0  0  0  3  0  0  0  0  0  0
  189.5050  177.2610  146.6950 C   0  0  0  0  0  3  0  0  0  0  0  0
  189.8520  177.1320  145.1960 C   0  0  1  0  0  3  0  0  0  0  0  0
  186.9860  177.7060  142.7290 C   0  0  0  0  0  0  0  0  0  0  0  0
  187.9980  177.5230  146.8240 C   0  0  0  0  0  3  0  0  0  0  0  0
  1 17  1  0  0  0  0
  2  6  1  6  0  0  0
  2  3  1  0  0  0  0
  3  7  1  6  0  0  0
  4  8  1  0  0  0  0
  5 17  1  0  0  0  0
  7 16  1  0  0  0  0
  7 11  2  0  0  0  0
  8  2  1  0  0  0  0
  9  4  1  0  0  0  0
 10  9  1  6  0  0  0
 10  3  1  0  0  0  0
 12 13  1  0  0  0  0
 12  5  1  1  0  0  0
 12 16  1  0  0  0  0
 13  1  2  0  0  0  0
 14 13  1  0  0  0  0
 15 10  1  0  0  0  0
 15 14  2  0  0  0  0
 18 29  1  0  0  0  0
 19 18  2  0  0  0  0
 19 20  1  0  0  0  0
 20 26  2  0  0  0  0
 21 22  1  0  0  0  0
 22 30  1  0  0  0  0
 23 28  1  0  0  0  0
 23 22  2  0  0  0  0
 24 23  1  0  0  0  0
 25 21  2  0  0  0  0
 26 25  1  0  0  0  0
 27 30  2  0  0  0  0
 28  1  1  1  0  0  0
 28 27  1  0  0  0  0
 29 24  2  0  0  0  0
 29 25  1  0  0  0  0
M  END
>  <MODEL>
3

>  <REMARK>
 VINA RESULT:      -8.9      4.162      7.793
  Name = 
  1 active torsions:
  status: ('A' for Active; 'I' for Inactive)
    1  A    between atoms: C_1  and  C_19
                            x       y       z     vdW  Elec       q    Type
                         _______ _______ _______ _____ _____    ______ ____

>  <TORSDO>
F 1

$$$$
=
 OpenBabel11042413453D

 30 35  0  0  1  0  0  0  0  0999 V2000
  190.4020  175.8970  145.5180 C   0  0  0  0  0  0  0  0  0  0  0  0
  195.8550  174.1620  144.2120 C   0  0  1  0  0  3  0  0  0  0  0  0
  194.5050  174.4910  144.8890 C   0  0  2  0  0  3  0  0  0  0  0  0
  195.1810  171.6680  144.2720 C   0  0  0  0  0  2  0  0  0  0  0  0
  191.3230  176.4000  147.6410 C   0  0  0  0  0  2  0  0  0  0  0  0
  197.0170  174.1540  145.2000 C   0  0  0  0  0  1  0  0  0  0  0  0
  194.4810  175.8200  145.6140 C   0  0  0  0  0  0  0  0  0  0  0  0
  195.7870  172.8280  143.4620 C   0  0  0  0  0  2  0  0  0  0  0  0
  194.7330  172.0750  145.6790 C   0  0  0  0  0  2  0  0  0  0  0  0
  193.8460  173.3240  145.6510 C   0  0  2  0  0  3  0  0  0  0  0  0
  195.4030  176.6520  145.3990 O   0  0  0  0  0  0  0  0  0  0  0  0
  192.2430  175.4510  146.8860 C   0  0  1  0  0  3  0  0  0  0  0  0
  191.4010  175.0460  145.7250 C   0  0  0  0  0  0  0  0  0  0  0  0
  191.5160  173.7510  145.0150 C   0  0  0  0  0  3  0  0  0  0  0  0
  192.5750  172.9980  145.0120 N   0  0  0  0  0  0  0  0  0  0  0  0
  193.3910  176.2360  146.4430 N   0  0  0  0  0  2  0  0  0  0  0  0
  190.3430  176.9260  146.5970 C   0  0  0  0  0  2  0  0  0  0  0  0
  185.1490  177.1950  146.5020 N   0  0  0  0  0  0  0  0  0  0  0  0
  184.0780  178.0370  146.5180 C   0  0  0  0  0  3  0  0  0  0  0  0
  183.9500  179.0360  145.5450 C   0  0  0  0  0  3  0  0  0  0  0  0
  187.0150  178.4490  143.6290 N   0  0  0  0  0  0  0  0  0  0  0  0
  188.0790  177.6050  143.6420 C   0  0  0  0  0  0  0  0  0  0  0  0
  188.1950  176.6020  144.5690 C   0  0  0  0  0  0  0  0  0  0  0  0
  187.2090  176.4190  145.5430 C   0  0  0  0  0  3  0  0  0  0  0  0
  186.0370  178.3210  144.5710 C   0  0  0  0  0  0  0  0  0  0  0  0
  184.9370  179.1760  144.5690 C   0  0  0  0  0  3  0  0  0  0  0  0
  190.0530  176.4250  143.0980 C   0  0  0  0  0  3  0  0  0  0  0  0
  189.4280  175.7960  144.3620 C   0  0  1  0  0  3  0  0  0  0  0  0
  186.1200  177.3020  145.5540 C   0  0  0  0  0  0  0  0  0  0  0  0
  189.1810  177.6110  142.6630 C   0  0  0  0  0  3  0  0  0  0  0  0
  1 13  2  0  0  0  0
  1 17  1  0  0  0  0
  2  3  1  0  0  0  0
  2  6  1  1  0  0  0
  3  7  1  1  0  0  0
  3 10  1  0  0  0  0
  4  9  1  0  0  0  0
  7 16  1  0  0  0  0
  8  2  1  0  0  0  0
  8  4  1  0  0  0  0
 10  9  1  6  0  0  0
 11  7  2  0  0  0  0
 12  5  1  1  0  0  0
 13 12  1  0  0  0  0
 14 13  1  0  0  0  0
 15 14  2  0  0  0  0
 15 10  1  0  0  0  0
 16 12  1  0  0  0  0
 17  5  1  0  0  0  0
 18 19  1  0  0  0  0
 20 19  2  0  0  0  0
 21 22  2  0  0  0  0
 21 25  1  0  0  0  0
 22 23  1  0  0  0  0
 23 24  2  0  0  0  0
 24 29  1  0  0  0  0
 25 29  1  0  0  0  0
 26 25  2  0  0  0  0
 26 20  1  0  0  0  0
 27 28  1  0  0  0  0
 28 23  1  0  0  0  0
 28  1  1  1  0  0  0
 29 18  2  0  0  0  0
 30 27  2  0  0  0  0
 30 22  1  0  0  0  0
M  END
>  <MODEL>
4

>  <REMARK>
 VINA RESULT:      -8.8      4.162      8.477
  Name = 
  1 active torsions:
  status: ('A' for Active; 'I' for Inactive)
    1  A    between atoms: C_1  and  C_19
                            x       y       z     vdW  Elec       q    Type
                         _______ _______ _______ _____ _____    ______ ____

>  <TORSDO>
F 1

$$$$
=
 OpenBabel11042413453D

 30 35  0  0  1  0  0  0  0  0999 V2000
  190.2890  175.4040  144.4490 C   0  0  0  0  0  0  0  0  0  0  0  0
  195.8470  173.5780  143.9740 C   0  0  1  0  0  3  0  0  0  0  0  0
  194.4100  174.0960  143.7360 C   0  0  2  0  0  3  0  0  0  0  0  0
  196.6970  175.9730  143.5110 C   0  0  0  0  0  2  0  0  0  0  0  0
  190.0140  174.3650  142.3400 C   0  0  0  0  0  2  0  0  0  0  0  0
  196.4140  172.8480  142.7600 C   0  0  0  0  0  1  0  0  0  0  0  0
  193.4150  173.0190  143.3600 C   0  0  0  0  0  0  0  0  0  0  0  0
  196.7830  174.7160  144.3930 C   0  0  0  0  0  2  0  0  0  0  0  0
  195.6660  175.8600  142.3840 C   0  0  0  0  0  2  0  0  0  0  0  0
  194.3050  175.3940  142.9090 C   0  0  2  0  0  3  0  0  0  0  0  0
  193.7270  171.8090  143.5310 O   0  0  0  0  0  0  0  0  0  0  0  0
  191.4920  174.6030  142.6140 C   0  0  1  0  0  3  0  0  0  0  0  0
  191.4570  175.4780  143.8200 C   0  0  0  0  0  0  0  0  0  0  0  0
  192.4970  176.4740  144.1670 C   0  0  0  0  0  3  0  0  0  0  0  0
  193.7250  176.4420  143.7430 N   0  0  0  0  0  0  0  0  0  0  0  0
  192.0790  173.3050  142.9350 N   0  0  0  0  0  2  0  0  0  0  0  0
  189.3170  174.5730  143.6810 C   0  0  0  0  0  2  0  0  0  0  0  0
  186.1000  178.9690  144.4680 N   0  0  0  0  0  0  0  0  0  0  0  0
  184.8060  179.3360  144.6840 C   0  0  0  0  0  3  0  0  0  0  0  0
  184.0660  178.7440  145.7150 C   0  0  0  0  0  3  0  0  0  0  0  0
  186.5660  176.4150  147.0320 N   0  0  0  0  0  0  0  0  0  0  0  0
  187.8530  176.0570  146.7890 C   0  0  0  0  0  0  0  0  0  0  0  0
  188.5960  176.6560  145.8060 C   0  0  0  0  0  0  0  0  0  0  0  0
  188.0420  177.6640  145.0110 C   0  0  0  0  0  3  0  0  0  0  0  0
  185.9750  177.3810  146.2700 C   0  0  0  0  0  0  0  0  0  0  0  0
  184.6570  177.7620  146.5090 C   0  0  0  0  0  3  0  0  0  0  0  0
  190.0120  175.1040  146.9180 C   0  0  0  0  0  3  0  0  0  0  0  0
  189.9820  176.1160  145.7510 C   0  0  1  0  0  3  0  0  0  0  0  0
  186.7040  178.0210  145.2360 C   0  0  0  0  0  0  0  0  0  0  0  0
  188.6180  175.0600  147.5590 C   0  0  0  0  0  3  0  0  0  0  0  0
  2  6  1  6  0  0  0
  2  8  1  0  0  0  0
  3  7  1  6  0  0  0
  3  2  1  0  0  0  0
  4  8  1  0  0  0  0
  5 17  1  0  0  0  0
  7 11  2  0  0  0  0
  9  4  1  0  0  0  0
 10  9  1  1  0  0  0
 10  3  1  0  0  0  0
 10 15  1  0  0  0  0
 12  5  1  1  0  0  0
 12 16  1  0  0  0  0
 12 13  1  0  0  0  0
 13 14  1  0  0  0  0
 13  1  2  0  0  0  0
 15 14  2  0  0  0  0
 16  7  1  0  0  0  0
 17  1  1  0  0  0  0
 18 19  2  0  0  0  0
 18 29  1  0  0  0  0
 19 20  1  0  0  0  0
 20 26  2  0  0  0  0
 22 21  1  0  0  0  0
 22 30  1  0  0  0  0
 23 22  2  0  0  0  0
 24 29  2  0  0  0  0
 24 23  1  0  0  0  0
 25 26  1  0  0  0  0
 25 21  2  0  0  0  0
 27 30  2  0  0  0  0
 28  1  1  6  0  0  0
 28 23  1  0  0  0  0
 28 27  1  0  0  0  0
 29 25  1  0  0  0  0
M  END
>  <MODEL>
5

>  <REMARK>
 VINA RESULT:      -8.8      3.720      8.532
  Name = 
  1 active torsions:
  status: ('A' for Active; 'I' for Inactive)
    1  A    between atoms: C_1  and  C_19
                            x       y       z     vdW  Elec       q    Type
                         _______ _______ _______ _____ _____    ______ ____

>  <TORSDO>
F 1

$$$$
=
 OpenBabel11042413453D

 30 35  0  0  1  0  0  0  0  0999 V2000
  189.7570  174.4210  144.0120 C   0  0  0  0  0  0  0  0  0  0  0  0
  190.9720  172.7960  138.5040 C   0  0  1  0  0  3  0  0  0  0  0  0
  190.4040  172.9550  139.9330 C   0  0  2  0  0  3  0  0  0  0  0  0
  188.7860  173.8440  137.6090 C   0  0  0  0  0  2  0  0  0  0  0  0
  189.3170  172.1190  144.3440 C   0  0  0  0  0  2  0  0  0  0  0  0
  190.8300  171.3730  137.9730 C   0  0  0  0  0  1  0  0  0  0  0  0
  191.0310  172.0340  140.9570 C   0  0  0  0  0  0  0  0  0  0  0  0
  190.3220  173.7910  137.5360 C   0  0  0  0  0  2  0  0  0  0  0  0
  188.1920  172.9030  138.6610 C   0  0  0  0  0  2  0  0  0  0  0  0
  188.8700  173.0780  140.0230 C   0  0  2  0  0  3  0  0  0  0  0  0
  192.1030  171.4350  140.6690 O   0  0  0  0  0  0  0  0  0  0  0  0
  189.3030  172.4410  142.8570 C   0  0  1  0  0  3  0  0  0  0  0  0
  189.3290  173.9320  142.8530 C   0  0  0  0  0  0  0  0  0  0  0  0
  188.7500  174.7800  141.7860 C   0  0  0  0  0  3  0  0  0  0  0  0
  188.5300  174.3900  140.5660 N   0  0  0  0  0  0  0  0  0  0  0  0
  190.5370  171.9020  142.2940 N   0  0  0  0  0  2  0  0  0  0  0  0
  189.9520  173.3330  145.0140 C   0  0  0  0  0  2  0  0  0  0  0  0
  185.3200  177.4530  145.1830 N   0  0  0  0  0  0  0  0  0  0  0  0
  184.4410  178.0610  146.0270 C   0  0  0  0  0  3  0  0  0  0  0  0
  184.8750  178.5510  147.2650 C   0  0  0  0  0  3  0  0  0  0  0  0
  188.4050  177.5870  147.1260 N   0  0  0  0  0  0  0  0  0  0  0  0
  189.2580  176.9650  146.2730 C   0  0  0  0  0  0  0  0  0  0  0  0
  188.8510  176.5150  145.0440 C   0  0  0  0  0  0  0  0  0  0  0  0
  187.5260  176.6810  144.6300 C   0  0  0  0  0  3  0  0  0  0  0  0
  187.0980  177.7560  146.7750 C   0  0  0  0  0  0  0  0  0  0  0  0
  186.2100  178.3950  147.6380 C   0  0  0  0  0  3  0  0  0  0  0  0
  191.1830  176.0860  145.2190 C   0  0  0  0  0  3  0  0  0  0  0  0
  189.9700  175.8960  144.2820 C   0  0  1  0  0  3  0  0  0  0  0  0
  186.6310  177.2970  145.5170 C   0  0  0  0  0  0  0  0  0  0  0  0
  190.6970  176.7540  146.5130 C   0  0  0  0  0  3  0  0  0  0  0  0
  1 17  1  0  0  0  0
  2  6  1  6  0  0  0
  2  3  1  0  0  0  0
  3 10  1  0  0  0  0
  3  7  1  1  0  0  0
  4  9  1  0  0  0  0
  5 17  1  0  0  0  0
  7 16  1  0  0  0  0
  8  4  1  0  0  0  0
  8  2  1  0  0  0  0
 10  9  1  6  0  0  0
 10 15  1  0  0  0  0
 11  7  2  0  0  0  0
 12  5  1  1  0  0  0
 13 12  1  0  0  0  0
 13  1  2  0  0  0  0
 14 13  1  0  0  0  0
 15 14  2  0  0  0  0
 16 12  1  0  0  0  0
 18 29  2  0  0  0  0
 18 19  1  0  0  0  0
 19 20  2  0  0  0  0
 20 26  1  0  0  0  0
 22 30  1  0  0  0  0
 22 21  2  0  0  0  0
 23 22  1  0  0  0  0
 24 23  2  0  0  0  0
 24 29  1  0  0  0  0
 25 21  1  0  0  0  0
 25 26  2  0  0  0  0
 27 30  2  0  0  0  0
 28  1  1  1  0  0  0
 28 23  1  0  0  0  0
 28 27  1  0  0  0  0
 29 25  1  0  0  0  0
M  END
>  <MODEL>
6

>  <REMARK>
 VINA RESULT:      -8.6      2.374      8.285
  Name = 
  1 active torsions:
  status: ('A' for Active; 'I' for Inactive)
    1  A    between atoms: C_1  and  C_19
                            x       y       z     vdW  Elec       q    Type
                         _______ _______ _______ _____ _____    ______ ____

>  <TORSDO>
F 1

$$$$
=
 OpenBabel11042413453D

 30 35  0  0  1  0  0  0  0  0999 V2000
  189.9280  176.5190  143.3060 C   0  0  0  0  0  0  0  0  0  0  0  0
  194.4480  172.7860  143.0060 C   0  0  1  0  0  3  0  0  0  0  0  0
  193.4800  173.9510  143.3130 C   0  0  2  0  0  3  0  0  0  0  0  0
  193.9950  171.8930  145.3880 C   0  0  0  0  0  2  0  0  0  0  0  0
  191.6110  178.1720  143.5130 C   0  0  0  0  0  2  0  0  0  0  0  0
  195.9120  173.1930  143.1410 C   0  0  0  0  0  1  0  0  0  0  0  0
  193.6840  175.1750  142.4450 C   0  0  0  0  0  0  0  0  0  0  0  0
  194.1510  171.5720  143.8910 C   0  0  0  0  0  2  0  0  0  0  0  0
  194.1430  173.3830  145.7120 C   0  0  0  0  0  2  0  0  0  0  0  0
  193.2570  174.2480  144.8100 C   0  0  2  0  0  3  0  0  0  0  0  0
  194.3890  175.0770  141.4050 O   0  0  0  0  0  0  0  0  0  0  0  0
  192.1900  176.7980  143.8210 C   0  0  1  0  0  3  0  0  0  0  0  0
  190.9690  175.9480  143.9030 C   0  0  0  0  0  0  0  0  0  0  0  0
  190.8520  174.7230  144.7260 C   0  0  0  0  0  3  0  0  0  0  0  0
  191.8550  174.0060  145.1380 N   0  0  0  0  0  0  0  0  0  0  0  0
  193.0100  176.4160  142.6760 N   0  0  0  0  0  2  0  0  0  0  0  0
  190.2620  177.9010  142.8540 C   0  0  0  0  0  2  0  0  0  0  0  0
  186.1300  177.6150  147.1300 N   0  0  0  0  0  0  0  0  0  0  0  0
  185.0550  178.2850  147.6310 C   0  0  0  0  0  3  0  0  0  0  0  0
  184.0660  178.7780  146.7710 C   0  0  0  0  0  3  0  0  0  0  0  0
  185.4560  177.7400  143.5460 N   0  0  0  0  0  0  0  0  0  0  0  0
  186.5430  177.0790  143.0700 C   0  0  0  0  0  0  0  0  0  0  0  0
  187.4980  176.5620  143.9060 C   0  0  0  0  0  0  0  0  0  0  0  0
  187.3810  176.7060  145.2920 C   0  0  0  0  0  3  0  0  0  0  0  0
  185.3070  177.9210  144.8900 C   0  0  0  0  0  0  0  0  0  0  0  0
  184.1960  178.5940  145.3950 C   0  0  0  0  0  3  0  0  0  0  0  0
  188.1030  175.9670  141.6860 C   0  0  0  0  0  3  0  0  0  0  0  0
  188.5730  175.8610  143.1540 C   0  0  1  0  0  3  0  0  0  0  0  0
  186.2760  177.4110  145.7910 C   0  0  0  0  0  0  0  0  0  0  0  0
  186.8030  176.7820  141.6500 C   0  0  0  0  0  3  0  0  0  0  0  0
  1 13  2  0  0  0  0
  2  6  1  1  0  0  0
  2  3  1  0  0  0  0
  2  8  1  0  0  0  0
  3  7  1  6  0  0  0
  3 10  1  0  0  0  0
  4  9  1  0  0  0  0
  7 16  1  0  0  0  0
  8  4  1  0  0  0  0
 10 15  1  0  0  0  0
 10  9  1  1  0  0  0
 11  7  2  0  0  0  0
 12  5  1  6  0  0  0
 12 13  1  0  0  0  0
 13 14  1  0  0  0  0
 14 15  2  0  0  0  0
 16 12  1  0  0  0  0
 17  1  1  0  0  0  0
 17  5  1  0  0  0  0
 18 19  1  0  0  0  0
 20 19  2  0  0  0  0
 21 25  1  0  0  0  0
 22 21  2  0  0  0  0
 22 23  1  0  0  0  0
 23 24  2  0  0  0  0
 24 29  1  0  0  0  0
 25 26  2  0  0  0  0
 25 29  1  0  0  0  0
 26 20  1  0  0  0  0
 27 28  1  0  0  0  0
 28  1  1  6  0  0  0
 28 23  1  0  0  0  0
 29 18  2  0  0  0  0
 30 27  2  0  0  0  0
 30 22  1  0  0  0  0
M  END
>  <MODEL>
7

>  <REMARK>
 VINA RESULT:      -8.3      3.748      8.242
  Name = 
  1 active torsions:
  status: ('A' for Active; 'I' for Inactive)
    1  A    between atoms: C_1  and  C_19
                            x       y       z     vdW  Elec       q    Type
                         _______ _______ _______ _____ _____    ______ ____

>  <TORSDO>
F 1

$$$$
=
 OpenBabel11042413453D

 30 35  0  0  1  0  0  0  0  0999 V2000
  190.5280  176.1550  143.8180 C   0  0  0  0  0  0  0  0  0  0  0  0
  195.4700  173.0640  143.1310 C   0  0  1  0  0  3  0  0  0  0  0  0
  194.3930  174.1180  143.4740 C   0  0  2  0  0  3  0  0  0  0  0  0
  195.5530  172.4530  145.6390 C   0  0  0  0  0  2  0  0  0  0  0  0
  191.9420  178.0330  143.5330 C   0  0  0  0  0  2  0  0  0  0  0  0
  196.8550  173.6790  142.9540 C   0  0  0  0  0  1  0  0  0  0  0  0
  194.2600  175.2270  142.4520 C   0  0  0  0  0  0  0  0  0  0  0  0
  195.5140  171.9530  144.1850 C   0  0  0  0  0  2  0  0  0  0  0  0
  195.5150  173.9790  145.7630 C   0  0  0  0  0  2  0  0  0  0  0  0
  194.3700  174.5840  144.9440 C   0  0  2  0  0  3  0  0  0  0  0  0
  194.7940  175.0840  141.3200 O   0  0  0  0  0  0  0  0  0  0  0  0
  192.7710  176.8060  143.8840 C   0  0  1  0  0  3  0  0  0  0  0  0
  191.7280  175.8170  144.2790 C   0  0  0  0  0  0  0  0  0  0  0  0
  191.9390  174.7120  145.2410 C   0  0  0  0  0  3  0  0  0  0  0  0
  193.0950  174.2010  145.5430 N   0  0  0  0  0  0  0  0  0  0  0  0
  193.4450  176.3850  142.6600 N   0  0  0  0  0  2  0  0  0  0  0  0
  190.5630  177.4940  143.1620 C   0  0  0  0  0  2  0  0  0  0  0  0
  186.6780  177.9460  147.3150 N   0  0  0  0  0  0  0  0  0  0  0  0
  185.5240  178.5930  147.6380 C   0  0  0  0  0  3  0  0  0  0  0  0
  184.4550  178.6240  146.7330 C   0  0  0  0  0  3  0  0  0  0  0  0
  185.9270  176.7580  143.9480 N   0  0  0  0  0  0  0  0  0  0  0  0
  187.0930  176.1320  143.6440 C   0  0  0  0  0  0  0  0  0  0  0  0
  188.1310  176.0650  144.5360 C   0  0  0  0  0  0  0  0  0  0  0  0
  188.0190  176.6510  145.8000 C   0  0  0  0  0  3  0  0  0  0  0  0
  185.7780  177.3610  145.1620 C   0  0  0  0  0  0  0  0  0  0  0  0
  184.5870  178.0050  145.4900 C   0  0  0  0  0  3  0  0  0  0  0  0
  188.7790  174.8430  142.6030 C   0  0  0  0  0  3  0  0  0  0  0  0
  189.2860  175.3050  143.9870 C   0  0  1  0  0  3  0  0  0  0  0  0
  186.8290  177.3240  146.1130 C   0  0  0  0  0  0  0  0  0  0  0  0
  187.3690  175.4110  142.3880 C   0  0  0  0  0  3  0  0  0  0  0  0
  1 13  2  0  0  0  0
  2  6  1  1  0  0  0
  2  3  1  0  0  0  0
  2  8  1  0  0  0  0
  3  7  1  6  0  0  0
  3 10  1  0  0  0  0
  4  9  1  0  0  0  0
  7 16  1  0  0  0  0
  8  4  1  0  0  0  0
 10 15  1  0  0  0  0
 10  9  1  1  0  0  0
 11  7  2  0  0  0  0
 12  5  1  6  0  0  0
 12 13  1  0  0  0  0
 13 14  1  0  0  0  0
 14 15  2  0  0  0  0
 16 12  1  0  0  0  0
 17  5  1  0  0  0  0
 17  1  1  0  0  0  0
 18 19  1  0  0  0  0
 20 19  2  0  0  0  0
 21 25  1  0  0  0  0
 22 21  2  0  0  0  0
 22 23  1  0  0  0  0
 23 24  2  0  0  0  0
 24 29  1  0  0  0  0
 25 26  2  0  0  0  0
 25 29  1  0  0  0  0
 26 20  1  0  0  0  0
 27 28  1  0  0  0  0
 28  1  1  6  0  0  0
 28 23  1  0  0  0  0
 29 18  2  0  0  0  0
 30 27  2  0  0  0  0
 30 22  1  0  0  0  0
M  END
>  <MODEL>
8

>  <REMARK>
 VINA RESULT:      -8.2      3.793      8.489
  Name = 
  1 active torsions:
  status: ('A' for Active; 'I' for Inactive)
    1  A    between atoms: C_1  and  C_19
                            x       y       z     vdW  Elec       q    Type
                         _______ _______ _______ _____ _____    ______ ____

>  <TORSDO>
F 1

$$$$
=
 OpenBabel11042413453D

 30 35  0  0  1  0  0  0  0  0999 V2000
  189.8250  176.0790  142.7240 C   0  0  0  0  0  0  0  0  0  0  0  0
  194.6220  173.9870  145.3820 C   0  0  1  0  0  3  0  0  0  0  0  0
  193.5060  174.3780  144.3870 C   0  0  2  0  0  3  0  0  0  0  0  0
  196.1390  175.7400  144.2420 C   0  0  0  0  0  2  0  0  0  0  0  0
  189.9740  174.1070  141.4210 C   0  0  0  0  0  2  0  0  0  0  0  0
  195.3400  172.7020  144.9800 C   0  0  0  0  0  1  0  0  0  0  0  0
  192.4440  173.3160  144.1940 C   0  0  0  0  0  0  0  0  0  0  0  0
  195.6310  175.1260  145.5580 C   0  0  0  0  0  2  0  0  0  0  0  0
  195.5150  175.1090  142.9930 C   0  0  0  0  0  2  0  0  0  0  0  0
  193.9880  175.0570  143.0890 C   0  0  2  0  0  3  0  0  0  0  0  0
  192.3790  172.3590  145.0130 O   0  0  0  0  0  0  0  0  0  0  0  0
  191.3040  174.3760  142.1120 C   0  0  1  0  0  3  0  0  0  0  0  0
  191.1110  175.7520  142.6500 C   0  0  0  0  0  0  0  0  0  0  0  0
  192.2030  176.7270  142.8760 C   0  0  0  0  0  3  0  0  0  0  0  0
  193.4550  176.4150  143.0380 N   0  0  0  0  0  0  0  0  0  0  0  0
  191.4210  173.4080  143.1980 N   0  0  0  0  0  2  0  0  0  0  0  0
  188.9680  175.0200  142.1150 C   0  0  0  0  0  2  0  0  0  0  0  0
  185.2350  178.2000  140.5610 N   0  0  0  0  0  0  0  0  0  0  0  0
  183.8910  178.4150  140.5120 C   0  0  0  0  0  3  0  0  0  0  0  0
  183.1410  178.4720  141.6940 C   0  0  0  0  0  3  0  0  0  0  0  0
  185.7850  177.8640  144.1520 N   0  0  0  0  0  0  0  0  0  0  0  0
  187.1240  177.6380  144.1740 C   0  0  0  0  0  0  0  0  0  0  0  0
  187.8720  177.6160  143.0260 C   0  0  0  0  0  0  0  0  0  0  0  0
  187.2680  177.8230  141.7820 C   0  0  0  0  0  3  0  0  0  0  0  0
  185.1490  178.0530  142.9610 C   0  0  0  0  0  0  0  0  0  0  0  0
  183.7760  178.2900  142.9220 C   0  0  0  0  0  3  0  0  0  0  0  0
  189.3660  177.3150  144.8500 C   0  0  0  0  0  3  0  0  0  0  0  0
  189.3140  177.3790  143.3070 C   0  0  1  0  0  3  0  0  0  0  0  0
  185.8820  178.0290  141.7470 C   0  0  0  0  0  0  0  0  0  0  0  0
  187.9360  177.4570  145.3900 C   0  0  0  0  0  3  0  0  0  0  0  0
  2  6  1  6  0  0  0
  2  8  1  0  0  0  0
  3  7  1  6  0  0  0
  3  2  1  0  0  0  0
  4  8  1  0  0  0  0
  5 17  1  0  0  0  0
  7 11  2  0  0  0  0
  9  4  1  0  0  0  0
 10  9  1  1  0  0  0
 10  3  1  0  0  0  0
 12  5  1  6  0  0  0
 12 13  1  0  0  0  0
 12 16  1  0  0  0  0
 13  1  2  0  0  0  0
 13 14  1  0  0  0  0
 14 15  2  0  0  0  0
 15 10  1  0  0  0  0
 16  7  1  0  0  0  0
 17  1  1  0  0  0  0
 18 29  1  0  0  0  0
 19 18  2  0  0  0  0
 19 20  1  0  0  0  0
 20 26  2  0  0  0  0
 21 22  1  0  0  0  0
 22 30  1  0  0  0  0
 23 28  1  0  0  0  0
 23 22  2  0  0  0  0
 24 23  1  0  0  0  0
 25 21  2  0  0  0  0
 26 25  1  0  0  0  0
 27 30  2  0  0  0  0
 28  1  1  6  0  0  0
 28 27  1  0  0  0  0
 29 24  2  0  0  0  0
 29 25  1  0  0  0  0
M  END
>  <MODEL>
9

>  <REMARK>
 VINA RESULT:      -8.1      3.455      7.502
  Name = 
  1 active torsions:
  status: ('A' for Active; 'I' for Inactive)
    1  A    between atoms: C_1  and  C_19
                            x       y       z     vdW  Elec       q    Type
                         _______ _______ _______ _____ _____    ______ ____

>  <TORSDO>
F 1

$$$$
