=
 OpenBabel11042419303D

 32 35  0  0  1  0  0  0  0  0999 V2000
  184.0300  178.2770  141.7430 S   0  0  0  0  0  1  0  0  0  0  0  0
  187.3370  176.9400  143.0560 C   0  0  1  0  0  3  0  0  0  0  0  0
  187.1450  178.0290  144.0930 C   0  0  2  0  0  3  0  0  0  0  0  0
  185.7930  178.6520  142.1070 C   0  0  1  0  0  3  0  0  0  0  0  0
  186.6010  177.5610  145.4420 C   0  0  2  0  0  3  0  0  0  0  0  0
  184.0470  179.9230  144.2560 F   0  0  0  0  0  0  0  0  0  0  0  0
  186.0460  178.8290  143.5630 C   0  0  1  0  0  3  0  0  0  0  0  0
  185.2010  179.2220  144.4950 C   0  0  2  0  0  3  0  0  0  0  0  0
  186.6240  177.4160  141.7650 C   0  0  0  0  0  2  0  0  0  0  0  0
  185.4800  178.5530  145.7900 C   0  0  0  0  0  2  0  0  0  0  0  0
  189.5110  177.8250  142.4310 O   0  0  0  0  0  1  0  0  0  0  0  0
  188.7760  176.7490  142.7740 N   0  0  0  0  0  0  0  0  0  0  0  0
  191.5390  174.2370  143.0000 C   0  0  0  0  0  0  0  0  0  0  0  0
  188.7340  174.2810  142.8620 C   0  0  0  0  0  3  0  0  0  0  0  0
  190.8350  175.4450  142.9670 C   0  0  0  0  0  3  0  0  0  0  0  0
  189.4190  173.0620  142.8810 C   0  0  0  0  0  3  0  0  0  0  0  0
  189.4380  175.4810  142.9440 C   0  0  0  0  0  0  0  0  0  0  0  0
  190.8100  173.0330  142.9630 C   0  0  0  0  0  3  0  0  0  0  0  0
  193.5420  172.9960  142.1360 C   0  0  0  0  0  1  0  0  0  0  0  0
  193.0520  174.1870  142.9410 C   0  0  2  0  0  3  0  0  0  0  0  0
  194.0220  176.5690  144.1920 O   0  0  0  0  0  1  0  0  0  0  0  0
  193.7260  174.1990  144.2930 C   0  0  0  0  0  0  0  0  0  0  0  0
  193.7710  172.9740  145.0590 N   0  0  0  0  0  1  0  0  0  0  0  0
  194.9400  175.3610  146.1070 C   0  0  0  0  0  1  0  0  0  0  0  0
  194.2190  175.3460  144.8110 C   0  0  0  0  0  0  0  0  0  0  0  0
  187.6580  177.6000  146.4660 N   0  0  0  0  0  2  0  0  0  0  0  0
  188.7460  176.6440  146.2400 C   0  0  1  0  0  3  0  0  0  0  0  0
  190.1350  177.2210  146.2740 C   0  0  0  0  0  3  0  0  0  0  0  0
  191.1490  176.4510  146.4210 N   0  0  0  0  0  0  0  0  0  0  0  0
  188.6280  175.3420  147.0160 C   0  0  0  0  0  2  0  0  0  0  0  0
  189.6950  174.3970  146.5060 C   0  0  0  0  0  2  0  0  0  0  0  0
  191.0840  175.0130  146.7200 C   0  0  0  0  0  2  0  0  0  0  0  0
  1  4  1  0  0  0  0
  2 12  1  6  0  0  0
  2  3  1  0  0  0  0
  3  5  1  0  0  0  0
  4  7  1  0  0  0  0
  5 10  1  0  0  0  0
  5 26  1  0  0  0  0
  6  8  1  0  0  0  0
  7  3  1  0  0  0  0
  7  8  1  0  0  0  0
  8 10  1  0  0  0  0
  9  4  1  0  0  0  0
  9  2  1  0  0  0  0
 11 12  1  0  0  0  0
 12 17  1  0  0  0  0
 14 16  2  0  0  0  0
 14 17  1  0  0  0  0
 15 13  1  0  0  0  0
 16 18  1  0  0  0  0
 17 15  2  0  0  0  0
 18 13  2  0  0  0  0
 19 20  1  0  0  0  0
 20 13  1  0  0  0  0
 20 22  1  0  0  0  0
 21 25  1  0  0  0  0
 22 25  2  0  0  0  0
 22 23  1  0  0  0  0
 25 24  1  0  0  0  0
 27 28  1  0  0  0  0
 27 26  1  0  0  0  0
 27 30  1  0  0  0  0
 28 29  2  0  0  0  0
 29 32  1  0  0  0  0
 31 32  1  0  0  0  0
 31 30  1  0  0  0  0
M  END
>  <MODEL>
1

>  <REMARK>
 VINA RESULT:      -7.5      0.000      0.000
  Name = 
  6 active torsions:
  status: ('A' for Active; 'I' for Inactive)
    1  A    between atoms: C_1  and  N_27
    2  A    between atoms: C_2  and  C_23
    3  A    between atoms: C_8  and  N_30
    4  A    between atoms: C_9  and  C_23
    5  A    between atoms: C_12  and  N_30
    6  A    between atoms: C_17  and  N_27
                            x       y       z     vdW  Elec       q    Type
                         _______ _______ _______ _____ _____    ______ ____

>  <TORSDO>
F 6

$$$$
=
 OpenBabel11042419303D

 32 35  0  0  1  0  0  0  0  0999 V2000
  185.6080  177.9180  141.0000 S   0  0  0  0  0  1  0  0  0  0  0  0
  188.4820  177.1420  143.3650 C   0  0  1  0  0  3  0  0  0  0  0  0
  187.5870  177.8400  144.3710 C   0  0  2  0  0  3  0  0  0  0  0  0
  186.9000  178.6080  142.1130 C   0  0  1  0  0  3  0  0  0  0  0  0
  186.7900  176.9170  145.2900 C   0  0  2  0  0  3  0  0  0  0  0  0
  184.1930  178.8020  143.4980 F   0  0  0  0  0  0  0  0  0  0  0  0
  186.5480  178.4540  143.5510 C   0  0  1  0  0  3  0  0  0  0  0  0
  185.3500  178.3700  144.0930 C   0  0  2  0  0  3  0  0  0  0  0  0
  188.1550  177.7480  141.9770 C   0  0  0  0  0  2  0  0  0  0  0  0
  185.3590  177.4760  145.2780 C   0  0  0  0  0  2  0  0  0  0  0  0
  190.3070  178.6660  143.8600 O   0  0  0  0  0  1  0  0  0  0  0  0
  189.9030  177.3930  143.6830 N   0  0  0  0  0  0  0  0  0  0  0  0
  193.0770  175.6620  144.6460 C   0  0  0  0  0  0  0  0  0  0  0  0
  190.6710  175.0730  143.3230 C   0  0  0  0  0  3  0  0  0  0  0  0
  192.0680  176.6210  144.5190 C   0  0  0  0  0  3  0  0  0  0  0  0
  191.6730  174.1030  143.4260 C   0  0  0  0  0  3  0  0  0  0  0  0
  190.8480  176.3280  143.9020 C   0  0  0  0  0  0  0  0  0  0  0  0
  192.8640  174.3840  144.0940 C   0  0  0  0  0  3  0  0  0  0  0  0
  194.4840  177.4240  145.7480 C   0  0  0  0  0  1  0  0  0  0  0  0
  194.4310  175.9940  145.2380 C   0  0  2  0  0  3  0  0  0  0  0  0
  196.4860  174.0770  145.7680 O   0  0  0  0  0  1  0  0  0  0  0  0
  195.5940  175.7450  144.3060 C   0  0  0  0  0  0  0  0  0  0  0  0
  195.6100  176.4060  143.0210 N   0  0  0  0  0  1  0  0  0  0  0  0
  197.7480  174.6620  143.7600 C   0  0  0  0  0  1  0  0  0  0  0  0
  196.5690  174.8690  144.6350 C   0  0  0  0  0  0  0  0  0  0  0  0
  187.3410  176.9460  146.6560 N   0  0  0  0  0  2  0  0  0  0  0  0
  188.7270  176.4790  146.7510 C   0  0  1  0  0  3  0  0  0  0  0  0
  189.6960  177.4460  147.3750 C   0  0  0  0  0  3  0  0  0  0  0  0
  190.8300  177.0340  147.8060 N   0  0  0  0  0  0  0  0  0  0  0  0
  188.8920  175.0600  147.2710 C   0  0  0  0  0  2  0  0  0  0  0  0
  190.3440  174.6670  147.1000 C   0  0  0  0  0  2  0  0  0  0  0  0
  191.2410  175.6250  147.8920 C   0  0  0  0  0  2  0  0  0  0  0  0
  1  4  1  0  0  0  0
  2 12  1  1  0  0  0
  2  3  1  0  0  0  0
  3  5  1  0  0  0  0
  4  7  1  0  0  0  0
  5 26  1  0  0  0  0
  6  8  1  0  0  0  0
  7  8  1  0  0  0  0
  7  3  1  0  0  0  0
  8 10  1  0  0  0  0
  9  4  1  0  0  0  0
  9  2  1  0  0  0  0
 10  5  1  0  0  0  0
 12 11  1  0  0  0  0
 12 17  1  0  0  0  0
 13 20  1  0  0  0  0
 14 16  2  0  0  0  0
 14 17  1  0  0  0  0
 15 13  1  0  0  0  0
 16 18  1  0  0  0  0
 17 15  2  0  0  0  0
 18 13  2  0  0  0  0
 20 19  1  0  0  0  0
 22 25  2  0  0  0  0
 22 20  1  0  0  0  0
 23 22  1  0  0  0  0
 24 25  1  0  0  0  0
 25 21  1  0  0  0  0
 26 27  1  0  0  0  0
 27 30  1  0  0  0  0
 27 28  1  0  0  0  0
 28 29  2  0  0  0  0
 29 32  1  0  0  0  0
 31 30  1  0  0  0  0
 31 32  1  0  0  0  0
M  END
>  <MODEL>
2

>  <REMARK>
 VINA RESULT:      -7.5      1.744      2.272
  Name = 
  6 active torsions:
  status: ('A' for Active; 'I' for Inactive)
    1  A    between atoms: C_1  and  N_27
    2  A    between atoms: C_2  and  C_23
    3  A    between atoms: C_8  and  N_30
    4  A    between atoms: C_9  and  C_23
    5  A    between atoms: C_12  and  N_30
    6  A    between atoms: C_17  and  N_27
                            x       y       z     vdW  Elec       q    Type
                         _______ _______ _______ _____ _____    ______ ____

>  <TORSDO>
F 6

$$$$
=
 OpenBabel11042419303D

 32 35  0  0  1  0  0  0  0  0999 V2000
  184.2320  178.3120  142.3850 S   0  0  0  0  0  1  0  0  0  0  0  0
  187.6580  177.1580  143.5600 C   0  0  1  0  0  3  0  0  0  0  0  0
  187.1710  177.6990  144.8900 C   0  0  2  0  0  3  0  0  0  0  0  0
  185.8470  178.8120  143.1100 C   0  0  1  0  0  3  0  0  0  0  0  0
  186.6550  176.6510  145.8750 C   0  0  2  0  0  3  0  0  0  0  0  0
  183.7350  178.8100  145.3060 F   0  0  0  0  0  0  0  0  0  0  0  0
  185.9620  178.4400  144.5470 C   0  0  1  0  0  3  0  0  0  0  0  0
  184.9950  178.2830  145.4280 C   0  0  2  0  0  3  0  0  0  0  0  0
  186.9430  177.9730  142.4530 C   0  0  0  0  0  2  0  0  0  0  0  0
  185.3290  177.2160  146.4050 C   0  0  0  0  0  2  0  0  0  0  0  0
  189.6560  178.5060  143.8570 O   0  0  0  0  0  1  0  0  0  0  0  0
  189.1190  177.3450  143.4350 N   0  0  0  0  0  0  0  0  0  0  0  0
  192.2800  175.5940  142.4650 C   0  0  0  0  0  0  0  0  0  0  0  0
  189.5060  175.1990  142.2750 C   0  0  0  0  0  3  0  0  0  0  0  0
  191.3790  176.5100  143.0170 C   0  0  0  0  0  3  0  0  0  0  0  0
  190.3890  174.2780  141.7040 C   0  0  0  0  0  3  0  0  0  0  0  0
  189.9970  176.3030  142.9690 C   0  0  0  0  0  0  0  0  0  0  0  0
  191.7670  174.4600  141.8060 C   0  0  0  0  0  3  0  0  0  0  0  0
  194.3560  175.6300  141.0550 C   0  0  0  0  0  1  0  0  0  0  0  0
  193.7730  175.8520  142.4400 C   0  0  2  0  0  3  0  0  0  0  0  0
  194.3810  176.8110  145.0640 O   0  0  0  0  0  1  0  0  0  0  0  0
  194.5580  175.0530  143.4540 C   0  0  0  0  0  0  0  0  0  0  0  0
  194.9090  173.6860  143.1430 N   0  0  0  0  0  1  0  0  0  0  0  0
  195.6910  174.8310  145.6400 C   0  0  0  0  0  1  0  0  0  0  0  0
  194.8670  175.5790  144.6600 C   0  0  0  0  0  0  0  0  0  0  0  0
  187.6120  176.4650  146.9790 N   0  0  0  0  0  2  0  0  0  0  0  0
  188.9610  176.0890  146.5440 C   0  0  1  0  0  3  0  0  0  0  0  0
  190.0760  176.9490  147.0760 C   0  0  0  0  0  3  0  0  0  0  0  0
  191.2860  176.5290  147.0380 N   0  0  0  0  0  0  0  0  0  0  0  0
  189.2710  174.6030  146.6240 C   0  0  0  0  0  2  0  0  0  0  0  0
  190.6010  174.3680  145.9430 C   0  0  0  0  0  2  0  0  0  0  0  0
  191.7000  175.1730  146.6480 C   0  0  0  0  0  2  0  0  0  0  0  0
  1  4  1  0  0  0  0
  2 12  1  1  0  0  0
  2  3  1  0  0  0  0
  3  5  1  0  0  0  0
  4  7  1  0  0  0  0
  5 10  1  0  0  0  0
  5 26  1  0  0  0  0
  6  8  1  0  0  0  0
  7  3  1  0  0  0  0
  7  8  1  0  0  0  0
  8 10  1  0  0  0  0
  9  4  1  0  0  0  0
  9  2  1  0  0  0  0
 12 11  1  0  0  0  0
 13 15  1  0  0  0  0
 14 17  1  0  0  0  0
 16 18  1  0  0  0  0
 16 14  2  0  0  0  0
 17 15  2  0  0  0  0
 17 12  1  0  0  0  0
 18 13  2  0  0  0  0
 19 20  1  0  0  0  0
 20 13  1  0  0  0  0
 20 22  1  0  0  0  0
 22 25  2  0  0  0  0
 23 22  1  0  0  0  0
 25 21  1  0  0  0  0
 25 24  1  0  0  0  0
 27 30  1  0  0  0  0
 27 26  1  0  0  0  0
 27 28  1  0  0  0  0
 29 28  2  0  0  0  0
 31 30  1  0  0  0  0
 31 32  1  0  0  0  0
 32 29  1  0  0  0  0
M  END
>  <MODEL>
3

>  <REMARK>
 VINA RESULT:      -7.4      1.237      1.354
  Name = 
  6 active torsions:
  status: ('A' for Active; 'I' for Inactive)
    1  A    between atoms: C_1  and  N_27
    2  A    between atoms: C_2  and  C_23
    3  A    between atoms: C_8  and  N_30
    4  A    between atoms: C_9  and  C_23
    5  A    between atoms: C_12  and  N_30
    6  A    between atoms: C_17  and  N_27
                            x       y       z     vdW  Elec       q    Type
                         _______ _______ _______ _____ _____    ______ ____

>  <TORSDO>
F 6

$$$$
=
 OpenBabel11042419303D

 32 35  0  0  1  0  0  0  0  0999 V2000
  184.0040  178.4940  142.9380 S   0  0  0  0  0  1  0  0  0  0  0  0
  187.5280  177.2890  143.6990 C   0  0  1  0  0  3  0  0  0  0  0  0
  187.2030  177.8180  145.0830 C   0  0  2  0  0  3  0  0  0  0  0  0
  185.6970  178.9680  143.4790 C   0  0  1  0  0  3  0  0  0  0  0  0
  186.7900  176.7620  146.1070 C   0  0  2  0  0  3  0  0  0  0  0  0
  183.8500  178.9590  145.9030 F   0  0  0  0  0  0  0  0  0  0  0  0
  185.9710  178.5760  144.8890 C   0  0  1  0  0  3  0  0  0  0  0  0
  185.1090  178.4170  145.8730 C   0  0  2  0  0  3  0  0  0  0  0  0
  186.7010  178.1270  142.6920 C   0  0  0  0  0  2  0  0  0  0  0  0
  185.5400  177.3340  146.7920 C   0  0  0  0  0  2  0  0  0  0  0  0
  189.5630  178.6130  143.7820 O   0  0  0  0  0  1  0  0  0  0  0  0
  188.9670  177.4630  143.4100 N   0  0  0  0  0  0  0  0  0  0  0  0
  189.9140  174.1100  142.0460 C   0  0  0  0  0  0  0  0  0  0  0  0
  191.1640  176.5040  142.8170 C   0  0  0  0  0  3  0  0  0  0  0  0
  189.1680  175.2060  142.4890 C   0  0  0  0  0  3  0  0  0  0  0  0
  191.9310  175.4150  142.3900 C   0  0  0  0  0  3  0  0  0  0  0  0
  189.7740  176.4180  142.8340 C   0  0  0  0  0  0  0  0  0  0  0  0
  191.3160  174.2290  141.9930 C   0  0  0  0  0  3  0  0  0  0  0  0
  189.5140  171.7750  142.8740 C   0  0  0  0  0  1  0  0  0  0  0  0
  189.2730  172.7690  141.7510 C   0  0  2  0  0  3  0  0  0  0  0  0
  188.1970  173.5840  139.2300 O   0  0  0  0  0  1  0  0  0  0  0  0
  189.6920  172.1580  140.4340 C   0  0  0  0  0  0  0  0  0  0  0  0
  190.7810  171.2090  140.4220 N   0  0  0  0  0  1  0  0  0  0  0  0
  189.4620  171.9040  137.9860 C   0  0  0  0  0  1  0  0  0  0  0  0
  189.1070  172.5410  139.2780 C   0  0  0  0  0  0  0  0  0  0  0  0
  187.8650  176.5510  147.0920 N   0  0  0  0  0  2  0  0  0  0  0  0
  189.1200  176.0650  146.5120 C   0  0  1  0  0  3  0  0  0  0  0  0
  190.3550  176.8340  146.9010 C   0  0  0  0  0  3  0  0  0  0  0  0
  191.5140  176.3170  146.7320 N   0  0  0  0  0  0  0  0  0  0  0  0
  189.3180  174.5590  146.5780 C   0  0  0  0  0  2  0  0  0  0  0  0
  190.5380  174.2130  145.7530 C   0  0  0  0  0  2  0  0  0  0  0  0
  191.7710  174.9300  146.3170 C   0  0  0  0  0  2  0  0  0  0  0  0
  1  4  1  0  0  0  0
  2 12  1  6  0  0  0
  2  3  1  0  0  0  0
  3  5  1  0  0  0  0
  4  7  1  0  0  0  0
  5 10  1  0  0  0  0
  5 26  1  0  0  0  0
  7  3  1  0  0  0  0
  7  8  1  0  0  0  0
  8  6  1  0  0  0  0
  8 10  1  0  0  0  0
  9  4  1  0  0  0  0
  9  2  1  0  0  0  0
 12 11  1  0  0  0  0
 13 15  1  0  0  0  0
 14 17  1  0  0  0  0
 15 17  2  0  0  0  0
 16 14  2  0  0  0  0
 17 12  1  0  0  0  0
 18 13  2  0  0  0  0
 18 16  1  0  0  0  0
 20 13  1  0  0  0  0
 20 19  1  0  0  0  0
 21 25  1  0  0  0  0
 22 20  1  0  0  0  0
 23 22  1  0  0  0  0
 24 25  1  0  0  0  0
 25 22  2  0  0  0  0
 27 30  1  0  0  0  0
 27 28  1  0  0  0  0
 27 26  1  0  0  0  0
 29 28  2  0  0  0  0
 31 32  1  0  0  0  0
 31 30  1  0  0  0  0
 32 29  1  0  0  0  0
M  END
>  <MODEL>
4

>  <REMARK>
 VINA RESULT:      -7.3      2.095      3.561
  Name = 
  6 active torsions:
  status: ('A' for Active; 'I' for Inactive)
    1  A    between atoms: C_1  and  N_27
    2  A    between atoms: C_2  and  C_23
    3  A    between atoms: C_8  and  N_30
    4  A    between atoms: C_9  and  C_23
    5  A    between atoms: C_12  and  N_30
    6  A    between atoms: C_17  and  N_27
                            x       y       z     vdW  Elec       q    Type
                         _______ _______ _______ _____ _____    ______ ____

>  <TORSDO>
F 6

$$$$
=
 OpenBabel11042419303D

 32 35  0  0  1  0  0  0  0  0999 V2000
  184.8320  178.9580  145.8220 S   0  0  0  0  0  1  0  0  0  0  0  0
  188.1850  177.1710  145.6960 C   0  0  1  0  0  3  0  0  0  0  0  0
  187.5770  176.5270  144.4650 C   0  0  2  0  0  3  0  0  0  0  0  0
  185.7030  177.3390  145.8760 C   0  0  1  0  0  3  0  0  0  0  0  0
  188.0200  177.1190  143.1280 C   0  0  2  0  0  3  0  0  0  0  0  0
  184.3850  177.6640  143.1480 F   0  0  0  0  0  0  0  0  0  0  0  0
  186.1680  176.9020  144.5310 C   0  0  1  0  0  3  0  0  0  0  0  0
  185.6630  177.2100  143.3540 C   0  0  2  0  0  3  0  0  0  0  0  0
  187.0110  177.5280  146.6430 C   0  0  0  0  0  2  0  0  0  0  0  0
  186.7260  177.3070  142.3230 C   0  0  0  0  0  2  0  0  0  0  0  0
  188.5680  175.0810  146.8720 O   0  0  0  0  0  1  0  0  0  0  0  0
  189.0880  176.2210  146.3770 N   0  0  0  0  0  0  0  0  0  0  0  0
  192.6500  176.5090  145.2710 C   0  0  0  0  0  0  0  0  0  0  0  0
  191.1900  176.3690  147.6660 C   0  0  0  0  0  3  0  0  0  0  0  0
  191.2540  176.4470  145.2640 C   0  0  0  0  0  3  0  0  0  0  0  0
  192.5870  176.4180  147.6950 C   0  0  0  0  0  3  0  0  0  0  0  0
  190.5130  176.4220  146.4490 C   0  0  0  0  0  0  0  0  0  0  0  0
  193.3180  176.5010  146.5110 C   0  0  0  0  0  3  0  0  0  0  0  0
  192.5730  176.4340  142.7630 C   0  0  0  0  0  1  0  0  0  0  0  0
  193.4640  176.4530  143.9940 C   0  0  2  0  0  3  0  0  0  0  0  0
  196.2990  176.8040  143.8710 O   0  0  0  0  0  1  0  0  0  0  0  0
  194.4410  175.3020  143.9300 C   0  0  0  0  0  0  0  0  0  0  0  0
  193.9380  173.9540  144.0710 N   0  0  0  0  0  1  0  0  0  0  0  0
  196.7320  174.4070  143.6860 C   0  0  0  0  0  1  0  0  0  0  0  0
  195.7680  175.5270  143.8140 C   0  0  0  0  0  0  0  0  0  0  0  0
  188.9300  176.1940  142.4300 N   0  0  0  0  0  2  0  0  0  0  0  0
  188.7880  174.7940  142.8390 C   0  0  1  0  0  3  0  0  0  0  0  0
  188.0330  173.9120  141.8820 C   0  0  0  0  0  3  0  0  0  0  0  0
  188.1320  172.6370  141.9670 N   0  0  0  0  0  0  0  0  0  0  0  0
  190.0600  174.1460  143.3620 C   0  0  0  0  0  2  0  0  0  0  0  0
  189.6920  172.7950  143.9360 C   0  0  0  0  0  2  0  0  0  0  0  0
  189.0640  171.9170  142.8470 C   0  0  0  0  0  2  0  0  0  0  0  0
  1  4  1  0  0  0  0
  2 12  1  1  0  0  0
  2  9  1  0  0  0  0
  3  7  1  0  0  0  0
  3  2  1  0  0  0  0
  4  9  1  0  0  0  0
  5  3  1  0  0  0  0
  6  8  1  0  0  0  0
  7  4  1  0  0  0  0
  8  7  1  0  0  0  0
 10  5  1  0  0  0  0
 10  8  1  0  0  0  0
 12 17  1  0  0  0  0
 12 11  1  0  0  0  0
 13 18  1  0  0  0  0
 14 16  1  0  0  0  0
 15 13  2  0  0  0  0
 15 17  1  0  0  0  0
 17 14  2  0  0  0  0
 18 16  2  0  0  0  0
 19 20  1  0  0  0  0
 20 13  1  0  0  0  0
 22 20  1  0  0  0  0
 22 23  1  0  0  0  0
 24 25  1  0  0  0  0
 25 21  1  0  0  0  0
 25 22  2  0  0  0  0
 26 27  1  0  0  0  0
 26  5  1  0  0  0  0
 27 30  1  0  0  0  0
 28 29  2  0  0  0  0
 28 27  1  0  0  0  0
 29 32  1  0  0  0  0
 30 31  1  0  0  0  0
 32 31  1  0  0  0  0
M  END
>  <MODEL>
5

>  <REMARK>
 VINA RESULT:      -7.2      2.078      3.952
  Name = 
  6 active torsions:
  status: ('A' for Active; 'I' for Inactive)
    1  A    between atoms: C_1  and  N_27
    2  A    between atoms: C_2  and  C_23
    3  A    between atoms: C_8  and  N_30
    4  A    between atoms: C_9  and  C_23
    5  A    between atoms: C_12  and  N_30
    6  A    between atoms: C_17  and  N_27
                            x       y       z     vdW  Elec       q    Type
                         _______ _______ _______ _____ _____    ______ ____

>  <TORSDO>
F 6

$$$$
=
 OpenBabel11042419303D

 32 35  0  0  1  0  0  0  0  0999 V2000
  197.0810  174.3480  144.6530 S   0  0  0  0  0  1  0  0  0  0  0  0
  193.4680  175.2540  145.4130 C   0  0  1  0  0  3  0  0  0  0  0  0
  193.5300  175.8590  144.0240 C   0  0  2  0  0  3  0  0  0  0  0  0
  195.8590  175.7060  144.8680 C   0  0  1  0  0  3  0  0  0  0  0  0
  192.9180  175.0110  142.9110 C   0  0  2  0  0  3  0  0  0  0  0  0
  196.4340  175.3540  141.8960 F   0  0  0  0  0  0  0  0  0  0  0  0
  194.9520  175.8430  143.6960 C   0  0  1  0  0  3  0  0  0  0  0  0
  195.1860  175.5140  142.4410 C   0  0  2  0  0  3  0  0  0  0  0  0
  194.9040  175.3130  145.9930 C   0  0  0  0  0  2  0  0  0  0  0  0
  193.9500  175.0330  141.7740 C   0  0  0  0  0  2  0  0  0  0  0  0
  193.0830  177.0480  147.0040 O   0  0  0  0  0  1  0  0  0  0  0  0
  192.5630  176.0420  146.2750 N   0  0  0  0  0  0  0  0  0  0  0  0
  188.9220  176.6650  145.6770 C   0  0  0  0  0  0  0  0  0  0  0  0
  190.5480  174.9170  147.1570 C   0  0  0  0  0  3  0  0  0  0  0  0
  190.3160  176.7310  145.5960 C   0  0  0  0  0  3  0  0  0  0  0  0
  189.1560  174.8420  147.2630 C   0  0  0  0  0  3  0  0  0  0  0  0
  191.1370  175.8380  146.2920 C   0  0  0  0  0  0  0  0  0  0  0  0
  188.3430  175.6970  146.5210 C   0  0  0  0  0  3  0  0  0  0  0  0
  186.8590  178.0810  145.8750 C   0  0  0  0  0  1  0  0  0  0  0  0
  188.0280  177.6790  144.9930 C   0  0  2  0  0  3  0  0  0  0  0  0
  189.4130  178.2010  142.5460 O   0  0  0  0  0  1  0  0  0  0  0  0
  187.5160  177.2420  143.6400 C   0  0  0  0  0  0  0  0  0  0  0  0
  186.3400  176.4060  143.5780 N   0  0  0  0  0  1  0  0  0  0  0  0
  187.6590  177.2010  141.1720 C   0  0  0  0  0  1  0  0  0  0  0  0
  188.1830  177.5680  142.5100 C   0  0  0  0  0  0  0  0  0  0  0  0
  191.6430  175.5940  142.4590 N   0  0  0  0  0  2  0  0  0  0  0  0
  190.4980  174.6850  142.5680 C   0  0  1  0  0  3  0  0  0  0  0  0
  189.9380  174.1890  141.2620 C   0  0  0  0  0  3  0  0  0  0  0  0
  189.1760  173.1590  141.2380 N   0  0  0  0  0  0  0  0  0  0  0  0
  190.6500  173.5810  143.6020 C   0  0  0  0  0  2  0  0  0  0  0  0
  189.3140  172.8820  143.7370 C   0  0  0  0  0  2  0  0  0  0  0  0
  188.8990  172.2840  142.3870 C   0  0  0  0  0  2  0  0  0  0  0  0
  1  4  1  0  0  0  0
  2  9  1  0  0  0  0
  2 12  1  1  0  0  0
  3  2  1  0  0  0  0
  4  9  1  0  0  0  0
  5  3  1  0  0  0  0
  6  8  1  0  0  0  0
  7  3  1  0  0  0  0
  7  4  1  0  0  0  0
  8  7  1  0  0  0  0
 10  8  1  0  0  0  0
 10  5  1  0  0  0  0
 12 17  1  0  0  0  0
 12 11  1  0  0  0  0
 13 18  1  0  0  0  0
 14 16  1  0  0  0  0
 15 13  2  0  0  0  0
 15 17  1  0  0  0  0
 17 14  2  0  0  0  0
 18 16  2  0  0  0  0
 20 13  1  0  0  0  0
 20 19  1  0  0  0  0
 22 20  1  0  0  0  0
 23 22  1  0  0  0  0
 24 25  1  0  0  0  0
 25 21  1  0  0  0  0
 25 22  2  0  0  0  0
 26 27  1  0  0  0  0
 26  5  1  0  0  0  0
 27 30  1  0  0  0  0
 28 27  1  0  0  0  0
 29 28  2  0  0  0  0
 29 32  1  0  0  0  0
 30 31  1  0  0  0  0
 32 31  1  0  0  0  0
M  END
>  <MODEL>
6

>  <REMARK>
 VINA RESULT:      -7.1      3.788      7.495
  Name = 
  6 active torsions:
  status: ('A' for Active; 'I' for Inactive)
    1  A    between atoms: C_1  and  N_27
    2  A    between atoms: C_2  and  C_23
    3  A    between atoms: C_8  and  N_30
    4  A    between atoms: C_9  and  C_23
    5  A    between atoms: C_12  and  N_30
    6  A    between atoms: C_17  and  N_27
                            x       y       z     vdW  Elec       q    Type
                         _______ _______ _______ _____ _____    ______ ____

>  <TORSDO>
F 6

$$$$
=
 OpenBabel11042419303D

 32 35  0  0  1  0  0  0  0  0999 V2000
  184.7400  178.4520  146.5520 S   0  0  0  0  0  1  0  0  0  0  0  0
  188.1830  176.8530  146.3440 C   0  0  1  0  0  3  0  0  0  0  0  0
  187.6920  176.4320  144.9730 C   0  0  2  0  0  3  0  0  0  0  0  0
  185.6900  176.8870  146.3670 C   0  0  1  0  0  3  0  0  0  0  0  0
  188.1910  177.2840  143.8070 C   0  0  2  0  0  3  0  0  0  0  0  0
  184.5390  177.6740  143.6570 F   0  0  0  0  0  0  0  0  0  0  0  0
  186.2640  176.7320  145.0030 C   0  0  1  0  0  3  0  0  0  0  0  0
  185.8220  177.2390  143.8690 C   0  0  2  0  0  3  0  0  0  0  0  0
  186.9330  176.9770  147.2510 C   0  0  0  0  0  2  0  0  0  0  0  0
  186.9440  177.5720  142.9570 C   0  0  0  0  0  2  0  0  0  0  0  0
  188.5470  174.7780  147.5530 O   0  0  0  0  0  1  0  0  0  0  0  0
  189.0880  175.8260  146.9020 N   0  0  0  0  0  0  0  0  0  0  0  0
  192.5080  174.6940  145.8940 C   0  0  0  0  0  0  0  0  0  0  0  0
  191.3200  176.7910  147.3370 C   0  0  0  0  0  3  0  0  0  0  0  0
  191.1190  174.7910  146.0170 C   0  0  0  0  0  3  0  0  0  0  0  0
  192.7120  176.7050  147.2380 C   0  0  0  0  0  3  0  0  0  0  0  0
  190.5130  175.8540  146.6940 C   0  0  0  0  0  0  0  0  0  0  0  0
  193.3080  175.6750  146.5120 C   0  0  0  0  0  3  0  0  0  0  0  0
  194.6760  173.5020  145.4710 C   0  0  0  0  0  1  0  0  0  0  0  0
  193.1760  173.5040  145.2350 C   0  0  2  0  0  3  0  0  0  0  0  0
  192.2050  171.1030  144.0240 O   0  0  0  0  0  1  0  0  0  0  0  0
  192.8950  173.3760  143.7560 C   0  0  0  0  0  0  0  0  0  0  0  0
  192.9910  174.5530  142.9240 N   0  0  0  0  0  1  0  0  0  0  0  0
  192.2750  172.0410  141.7700 C   0  0  0  0  0  1  0  0  0  0  0  0
  192.4930  172.1980  143.2280 C   0  0  0  0  0  0  0  0  0  0  0  0
  189.1910  176.5440  143.0180 N   0  0  0  0  0  2  0  0  0  0  0  0
  188.6890  175.2970  142.4350 C   0  0  1  0  0  3  0  0  0  0  0  0
  188.5520  175.2910  140.9360 C   0  0  0  0  0  3  0  0  0  0  0  0
  188.4470  174.1820  140.3030 N   0  0  0  0  0  0  0  0  0  0  0  0
  189.3350  174.0300  142.9730 C   0  0  0  0  0  2  0  0  0  0  0  0
  188.5590  172.8470  142.4350 C   0  0  0  0  0  2  0  0  0  0  0  0
  188.6020  172.8480  140.9020 C   0  0  0  0  0  2  0  0  0  0  0  0
  2 12  1  1  0  0  0
  2  9  1  0  0  0  0
  3  7  1  0  0  0  0
  3  2  1  0  0  0  0
  4  1  1  0  0  0  0
  4  9  1  0  0  0  0
  5  3  1  0  0  0  0
  6  8  1  0  0  0  0
  7  4  1  0  0  0  0
  8  7  1  0  0  0  0
 10  5  1  0  0  0  0
 10  8  1  0  0  0  0
 12 11  1  0  0  0  0
 13 15  2  0  0  0  0
 13 18  1  0  0  0  0
 15 17  1  0  0  0  0
 16 14  1  0  0  0  0
 17 12  1  0  0  0  0
 17 14  2  0  0  0  0
 18 16  2  0  0  0  0
 20 19  1  0  0  0  0
 20 13  1  0  0  0  0
 22 20  1  0  0  0  0
 23 22  1  0  0  0  0
 24 25  1  0  0  0  0
 25 22  2  0  0  0  0
 25 21  1  0  0  0  0
 26  5  1  0  0  0  0
 27 30  1  0  0  0  0
 27 26  1  0  0  0  0
 28 27  1  0  0  0  0
 29 32  1  0  0  0  0
 29 28  2  0  0  0  0
 31 30  1  0  0  0  0
 32 31  1  0  0  0  0
M  END
>  <MODEL>
7

>  <REMARK>
 VINA RESULT:      -7.1      2.357      4.430
  Name = 
  6 active torsions:
  status: ('A' for Active; 'I' for Inactive)
    1  A    between atoms: C_1  and  N_27
    2  A    between atoms: C_2  and  C_23
    3  A    between atoms: C_8  and  N_30
    4  A    between atoms: C_9  and  C_23
    5  A    between atoms: C_12  and  N_30
    6  A    between atoms: C_17  and  N_27
                            x       y       z     vdW  Elec       q    Type
                         _______ _______ _______ _____ _____    ______ ____

>  <TORSDO>
F 6

$$$$
=
 OpenBabel11042419303D

 32 35  0  0  1  0  0  0  0  0999 V2000
  188.8890  173.0010  140.5440 S   0  0  0  0  0  1  0  0  0  0  0  0
  190.2630  175.2780  143.2600 C   0  0  1  0  0  3  0  0  0  0  0  0
  190.3610  173.9760  144.0320 C   0  0  2  0  0  3  0  0  0  0  0  0
  188.6650  173.6530  142.2490 C   0  0  1  0  0  3  0  0  0  0  0  0
  191.7510  173.3440  144.0790 C   0  0  2  0  0  3  0  0  0  0  0  0
  189.7000  170.7910  142.4110 F   0  0  0  0  0  0  0  0  0  0  0  0
  189.6040  173.0290  143.2220 C   0  0  1  0  0  3  0  0  0  0  0  0
  190.1670  171.8380  143.1620 C   0  0  2  0  0  3  0  0  0  0  0  0
  189.0920  175.1190  142.2580 C   0  0  0  0  0  2  0  0  0  0  0  0
  191.5290  171.8600  143.7510 C   0  0  0  0  0  2  0  0  0  0  0  0
  190.9810  177.2090  144.5460 O   0  0  0  0  0  1  0  0  0  0  0  0
  189.9700  176.3970  144.1790 N   0  0  0  0  0  0  0  0  0  0  0  0
  186.6460  178.1040  144.3640 C   0  0  0  0  0  0  0  0  0  0  0  0
  188.1520  176.2520  145.8440 C   0  0  0  0  0  3  0  0  0  0  0  0
  187.8940  177.6640  143.9160 C   0  0  0  0  0  3  0  0  0  0  0  0
  186.9110  176.6890  146.3180 C   0  0  0  0  0  3  0  0  0  0  0  0
  188.6350  176.7090  144.6200 C   0  0  0  0  0  0  0  0  0  0  0  0
  186.1520  177.5980  145.5820 C   0  0  0  0  0  3  0  0  0  0  0  0
  185.2440  180.1680  144.6350 C   0  0  0  0  0  1  0  0  0  0  0  0
  185.8760  179.1980  143.6520 C   0  0  2  0  0  3  0  0  0  0  0  0
  186.4720  178.2920  141.0060 O   0  0  0  0  0  1  0  0  0  0  0  0
  184.8250  178.6920  142.6910 C   0  0  0  0  0  0  0  0  0  0  0  0
  183.4700  178.5300  143.1650 N   0  0  0  0  0  1  0  0  0  0  0  0
  184.1250  177.8950  140.4580 C   0  0  0  0  0  1  0  0  0  0  0  0
  185.1550  178.3320  141.4310 C   0  0  0  0  0  0  0  0  0  0  0  0
  192.3410  173.4910  145.4210 N   0  0  0  0  0  2  0  0  0  0  0  0
  193.3360  174.5630  145.5220 C   0  0  1  0  0  3  0  0  0  0  0  0
  193.8370  175.1090  144.2120 C   0  0  0  0  0  3  0  0  0  0  0  0
  194.4370  176.2400  144.1740 N   0  0  0  0  0  0  0  0  0  0  0  0
  193.0050  175.6540  146.5280 C   0  0  0  0  0  2  0  0  0  0  0  0
  194.2200  176.5460  146.6630 C   0  0  0  0  0  2  0  0  0  0  0  0
  194.5630  177.1710  145.3050 C   0  0  0  0  0  2  0  0  0  0  0  0
  1  4  1  0  0  0  0
  2  3  1  0  0  0  0
  2 12  1  1  0  0  0
  3  5  1  0  0  0  0
  4  9  1  0  0  0  0
  4  7  1  0  0  0  0
  5 26  1  0  0  0  0
  6  8  1  0  0  0  0
  7  3  1  0  0  0  0
  8  7  1  0  0  0  0
  8 10  1  0  0  0  0
  9  2  1  0  0  0  0
 10  5  1  0  0  0  0
 12 11  1  0  0  0  0
 12 17  1  0  0  0  0
 13 18  1  0  0  0  0
 14 16  1  0  0  0  0
 15 13  2  0  0  0  0
 15 17  1  0  0  0  0
 17 14  2  0  0  0  0
 18 16  2  0  0  0  0
 20 13  1  0  0  0  0
 20 19  1  0  0  0  0
 21 25  1  0  0  0  0
 22 23  1  0  0  0  0
 22 20  1  0  0  0  0
 24 25  1  0  0  0  0
 25 22  2  0  0  0  0
 26 27  1  0  0  0  0
 27 30  1  0  0  0  0
 28 27  1  0  0  0  0
 29 28  2  0  0  0  0
 29 32  1  0  0  0  0
 30 31  1  0  0  0  0
 32 31  1  0  0  0  0
M  END
>  <MODEL>
8

>  <REMARK>
 VINA RESULT:      -7.0      2.936      7.115
  Name = 
  6 active torsions:
  status: ('A' for Active; 'I' for Inactive)
    1  A    between atoms: C_1  and  N_27
    2  A    between atoms: C_2  and  C_23
    3  A    between atoms: C_8  and  N_30
    4  A    between atoms: C_9  and  C_23
    5  A    between atoms: C_12  and  N_30
    6  A    between atoms: C_17  and  N_27
                            x       y       z     vdW  Elec       q    Type
                         _______ _______ _______ _____ _____    ______ ____

>  <TORSDO>
F 6

$$$$
=
 OpenBabel11042419303D

 32 35  0  0  1  0  0  0  0  0999 V2000
  196.2930  175.0450  144.8140 S   0  0  0  0  0  1  0  0  0  0  0  0
  192.5400  175.5670  145.1090 C   0  0  1  0  0  3  0  0  0  0  0  0
  192.5040  174.5420  143.9920 C   0  0  2  0  0  3  0  0  0  0  0  0
  194.7550  175.5880  143.9650 C   0  0  1  0  0  3  0  0  0  0  0  0
  192.1800  173.1130  144.4240 C   0  0  2  0  0  3  0  0  0  0  0  0
  195.5300  172.8250  142.9390 F   0  0  0  0  0  0  0  0  0  0  0  0
  193.8950  174.4410  143.5640 C   0  0  1  0  0  3  0  0  0  0  0  0
  194.2610  173.2040  143.2920 C   0  0  2  0  0  3  0  0  0  0  0  0
  193.8850  176.3260  144.9810 C   0  0  0  0  0  2  0  0  0  0  0  0
  193.2210  172.2330  143.7150 C   0  0  0  0  0  2  0  0  0  0  0  0
  191.6130  177.6160  144.1920 O   0  0  0  0  0  1  0  0  0  0  0  0
  191.4250  176.5260  144.9600 N   0  0  0  0  0  0  0  0  0  0  0  0
  187.8160  177.0550  145.7920 C   0  0  0  0  0  0  0  0  0  0  0  0
  189.9340  175.3780  146.5610 C   0  0  0  0  0  3  0  0  0  0  0  0
  189.0700  177.1490  145.1830 C   0  0  0  0  0  3  0  0  0  0  0  0
  188.6910  175.2770  147.1920 C   0  0  0  0  0  3  0  0  0  0  0  0
  190.1200  176.2910  145.5250 C   0  0  0  0  0  0  0  0  0  0  0  0
  187.6310  176.0960  146.8060 C   0  0  0  0  0  3  0  0  0  0  0  0
  185.6960  178.1090  146.6250 C   0  0  0  0  0  1  0  0  0  0  0  0
  186.7000  178.0330  145.4880 C   0  0  2  0  0  3  0  0  0  0  0  0
  185.5790  180.0980  143.8570 O   0  0  0  0  0  1  0  0  0  0  0  0
  185.9750  177.7640  144.1890 C   0  0  0  0  0  0  0  0  0  0  0  0
  185.9560  176.4160  143.6690 N   0  0  0  0  0  1  0  0  0  0  0  0
  184.6450  178.5170  142.2460 C   0  0  0  0  0  1  0  0  0  0  0  0
  185.4140  178.7740  143.4880 C   0  0  0  0  0  0  0  0  0  0  0  0
  190.8190  172.7410  144.0010 N   0  0  0  0  0  2  0  0  0  0  0  0
  190.3310  173.4870  142.8380 C   0  0  1  0  0  3  0  0  0  0  0  0
  190.4510  172.7790  141.5150 C   0  0  0  0  0  3  0  0  0  0  0  0
  189.7720  173.1800  140.5060 N   0  0  0  0  0  0  0  0  0  0  0  0
  188.9800  174.1590  143.0260 C   0  0  0  0  0  2  0  0  0  0  0  0
  188.7330  175.0530  141.8300 C   0  0  0  0  0  2  0  0  0  0  0  0
  188.7290  174.2150  140.5450 C   0  0  0  0  0  2  0  0  0  0  0  0
  2 12  1  6  0  0  0
  3  5  1  0  0  0  0
  3  2  1  0  0  0  0
  4  1  1  0  0  0  0
  4  9  1  0  0  0  0
  6  8  1  0  0  0  0
  7  4  1  0  0  0  0
  7  3  1  0  0  0  0
  8  7  1  0  0  0  0
  8 10  1  0  0  0  0
  9  2  1  0  0  0  0
 10  5  1  0  0  0  0
 11 12  1  0  0  0  0
 12 17  1  0  0  0  0
 13 18  1  0  0  0  0
 14 16  1  0  0  0  0
 15 17  1  0  0  0  0
 15 13  2  0  0  0  0
 17 14  2  0  0  0  0
 18 16  2  0  0  0  0
 20 13  1  0  0  0  0
 20 19  1  0  0  0  0
 22 20  1  0  0  0  0
 23 22  1  0  0  0  0
 24 25  1  0  0  0  0
 25 21  1  0  0  0  0
 25 22  2  0  0  0  0
 26  5  1  0  0  0  0
 27 30  1  0  0  0  0
 27 26  1  0  0  0  0
 28 27  1  0  0  0  0
 29 32  1  0  0  0  0
 29 28  2  0  0  0  0
 31 30  1  0  0  0  0
 32 31  1  0  0  0  0
M  END
>  <MODEL>
9

>  <REMARK>
 VINA RESULT:      -7.0      3.794      7.799
  Name = 
  6 active torsions:
  status: ('A' for Active; 'I' for Inactive)
    1  A    between atoms: C_1  and  N_27
    2  A    between atoms: C_2  and  C_23
    3  A    between atoms: C_8  and  N_30
    4  A    between atoms: C_9  and  C_23
    5  A    between atoms: C_12  and  N_30
    6  A    between atoms: C_17  and  N_27
                            x       y       z     vdW  Elec       q    Type
                         _______ _______ _______ _____ _____    ______ ____

>  <TORSDO>
F 6

$$$$
