=
 OpenBabel11042413493D

 25 28  0  0  1  0  0  0  0  0999 V2000
  186.7170  178.6660  142.2700 N   0  0  0  0  0  2  0  0  0  0  0  0
  186.9650  177.3620  141.8130 N   0  0  0  0  0  2  0  0  0  0  0  0
  186.8090  177.0300  144.9060 C   0  0  2  0  0  3  0  0  0  0  0  0
  187.6230  176.3790  142.6190 C   0  0  0  0  0  0  0  0  0  0  0  0
  187.9080  174.8980  141.9960 S   0  0  0  0  0  0  0  0  0  0  0  0
  188.0240  176.6570  144.0350 C   0  0  1  0  0  3  0  0  0  0  0  0
  186.2890  178.4530  144.6610 C   0  0  0  0  0  2  0  0  0  0  0  0
  189.5720  176.8570  146.3870 C   0  0  1  0  0  3  0  0  0  0  0  0
  189.1280  177.7200  144.1050 C   0  0  0  0  0  2  0  0  0  0  0  0
  188.3130  177.5420  146.9020 C   0  0  0  0  0  2  0  0  0  0  0  0
  187.0960  176.7750  146.3950 C   0  0  1  0  0  3  0  0  0  0  0  0
  185.6700  178.5940  143.2790 C   0  0  0  0  0  2  0  0  0  0  0  0
  190.1060  177.5070  145.1830 N   0  0  0  0  0  2  0  0  0  0  0  0
  185.9350  177.0890  147.2140 N   0  0  0  0  0  2  0  0  0  0  0  0
  186.3100  178.0600  148.0800 O   0  0  0  0  0  1  0  0  0  0  0  0
  190.6270  176.8580  147.4810 C   0  0  0  0  0  2  0  0  0  0  0  0
  191.3270  175.5080  147.5770 C   0  0  0  0  0  2  0  0  0  0  0  0
  193.5790  176.6660  146.8390 C   0  0  0  0  0  2  0  0  0  0  0  0
  194.6620  176.1380  146.0240 N   0  0  0  0  0  0  0  0  0  0  0  0
  194.3240  174.9450  145.6610 C   0  0  0  0  0  0  0  0  0  0  0  0
  192.6340  175.5160  146.8570 C   0  0  0  0  0  0  0  0  0  0  0  0
  193.0680  174.5170  146.1680 N   0  0  0  0  0  0  0  0  0  0  0  0
  196.6610  174.5060  145.0110 C   0  0  0  0  0  2  0  0  0  0  0  0
  195.2170  174.0680  144.8470 C   0  0  0  0  0  3  0  0  0  0  0  0
  196.1510  173.2970  145.7620 C   0  0  0  0  0  2  0  0  0  0  0  0
  1 12  1  0  0  0  0
  2  1  1  0  0  0  0
  2  4  1  0  0  0  0
  3  7  1  1  0  0  0
  3 11  1  0  0  0  0
  4  6  1  0  0  0  0
  5  4  2  0  0  0  0
  6  9  1  6  0  0  0
  6  3  1  0  0  0  0
  8 10  1  0  0  0  0
  8 16  1  1  0  0  0
  9 13  1  0  0  0  0
 11 10  1  0  0  0  0
 11 14  1  1  0  0  0
 12  7  1  0  0  0  0
 13  8  1  0  0  0  0
 14 15  1  0  0  0  0
 16 17  1  0  0  0  0
 18 21  1  0  0  0  0
 19 18  1  0  0  0  0
 20 19  2  0  0  0  0
 20 22  1  0  0  0  0
 21 17  1  0  0  0  0
 22 21  2  0  0  0  0
 23 25  1  0  0  0  0
 24 23  1  0  0  0  0
 24 20  1  0  0  0  0
 24 25  1  0  0  0  0
M  END
>  <MODEL>
1

>  <REMARK>
 VINA RESULT:      -6.9      0.000      0.000
  Name = 
  5 active torsions:
  status: ('A' for Active; 'I' for Inactive)
    1  A    between atoms: C_1  and  C_18
    2  A    between atoms: C_1  and  C_23
    3  A    between atoms: C_10  and  C_16
    4  A    between atoms: N_11  and  C_19
    5  A    between atoms: C_14  and  C_18
                            x       y       z     vdW  Elec       q    Type
                         _______ _______ _______ _____ _____    ______ ____

>  <TORSDO>
F 5

$$$$
=
 OpenBabel11042413493D

 25 28  0  0  1  0  0  0  0  0999 V2000
  189.4240  174.8050  145.6820 N   0  0  0  0  0  2  0  0  0  0  0  0
  190.2260  175.7630  145.0410 N   0  0  0  0  0  2  0  0  0  0  0  0
  187.8530  177.4380  146.1640 C   0  0  2  0  0  3  0  0  0  0  0  0
  189.6910  176.9810  144.5120 C   0  0  0  0  0  0  0  0  0  0  0  0
  190.6860  178.0220  143.7450 S   0  0  0  0  0  0  0  0  0  0  0  0
  188.2490  177.3480  144.6780 C   0  0  1  0  0  3  0  0  0  0  0  0
  187.6930  176.0700  146.8430 C   0  0  0  0  0  2  0  0  0  0  0  0
  185.6120  178.1670  144.0890 C   0  0  1  0  0  3  0  0  0  0  0  0
  187.3360  176.3950  143.8980 C   0  0  0  0  0  2  0  0  0  0  0  0
  185.4050  177.8210  145.5590 C   0  0  0  0  0  2  0  0  0  0  0  0
  186.6060  178.3190  146.3540 C   0  0  1  0  0  3  0  0  0  0  0  0
  189.0260  175.3500  146.9720 C   0  0  0  0  0  2  0  0  0  0  0  0
  186.1440  177.0350  143.3200 N   0  0  0  0  0  2  0  0  0  0  0  0
  186.2570  178.4360  147.7610 N   0  0  0  0  0  2  0  0  0  0  0  0
  184.9040  178.4750  147.8330 O   0  0  0  0  0  1  0  0  0  0  0  0
  184.2910  178.6200  143.4900 C   0  0  0  0  0  2  0  0  0  0  0  0
  184.1650  178.1850  142.0350 C   0  0  0  0  0  2  0  0  0  0  0  0
  182.3020  177.8980  140.1900 C   0  0  0  0  0  2  0  0  0  0  0  0
  180.8680  178.1200  140.2870 N   0  0  0  0  0  0  0  0  0  0  0  0
  180.6230  178.5380  141.4850 C   0  0  0  0  0  0  0  0  0  0  0  0
  182.7500  178.2480  141.5660 C   0  0  0  0  0  0  0  0  0  0  0  0
  181.7720  178.6230  142.3160 N   0  0  0  0  0  0  0  0  0  0  0  0
  178.2220  178.2640  140.9960 C   0  0  0  0  0  2  0  0  0  0  0  0
  179.2410  178.8260  141.9710 C   0  0  0  0  0  3  0  0  0  0  0  0
  178.5240  177.5240  142.2790 C   0  0  0  0  0  2  0  0  0  0  0  0
  1 12  1  0  0  0  0
  2  1  1  0  0  0  0
  3 11  1  0  0  0  0
  3  7  1  6  0  0  0
  4  6  1  0  0  0  0
  4  2  1  0  0  0  0
  5  4  2  0  0  0  0
  6  9  1  6  0  0  0
  6  3  1  0  0  0  0
  7 12  1  0  0  0  0
  8 16  1  6  0  0  0
  8 10  1  0  0  0  0
 10 11  1  0  0  0  0
 11 14  1  1  0  0  0
 13  9  1  0  0  0  0
 13  8  1  0  0  0  0
 14 15  1  0  0  0  0
 17 16  1  0  0  0  0
 18 19  1  0  0  0  0
 18 21  1  0  0  0  0
 19 20  2  0  0  0  0
 20 24  1  0  0  0  0
 20 22  1  0  0  0  0
 21 17  1  0  0  0  0
 21 22  2  0  0  0  0
 23 24  1  0  0  0  0
 23 25  1  0  0  0  0
 24 25  1  0  0  0  0
M  END
>  <MODEL>
2

>  <REMARK>
 VINA RESULT:      -6.8      3.684      9.504
  Name = 
  5 active torsions:
  status: ('A' for Active; 'I' for Inactive)
    1  A    between atoms: C_1  and  C_18
    2  A    between atoms: C_1  and  C_23
    3  A    between atoms: C_10  and  C_16
    4  A    between atoms: N_11  and  C_19
    5  A    between atoms: C_14  and  C_18
                            x       y       z     vdW  Elec       q    Type
                         _______ _______ _______ _____ _____    ______ ____

>  <TORSDO>
F 5

$$$$
=
 OpenBabel11042413493D

 25 28  0  0  1  0  0  0  0  0999 V2000
  194.9930  175.4340  146.0070 N   0  0  0  0  0  2  0  0  0  0  0  0
  194.6900  174.1860  145.4420 N   0  0  0  0  0  2  0  0  0  0  0  0
  192.2970  175.9790  144.5680 C   0  0  2  0  0  3  0  0  0  0  0  0
  193.3460  173.7740  145.1660 C   0  0  0  0  0  0  0  0  0  0  0  0
  193.0790  172.2890  144.5450 S   0  0  0  0  0  0  0  0  0  0  0  0
  192.1790  174.6840  145.3950 C   0  0  1  0  0  3  0  0  0  0  0  0
  193.3210  176.9760  145.1290 C   0  0  0  0  0  2  0  0  0  0  0  0
  189.6770  175.6580  146.2680 C   0  0  1  0  0  3  0  0  0  0  0  0
  191.9790  174.9730  146.8870 C   0  0  0  0  0  2  0  0  0  0  0  0
  190.2130  176.9530  145.6690 C   0  0  0  0  0  2  0  0  0  0  0  0
  190.9200  176.6310  144.3580 C   0  0  1  0  0  3  0  0  0  0  0  0
  194.7430  176.4530  144.9980 C   0  0  0  0  0  2  0  0  0  0  0  0
  190.5720  175.1080  147.2950 N   0  0  0  0  0  2  0  0  0  0  0  0
  191.0280  177.8310  143.5440 N   0  0  0  0  0  2  0  0  0  0  0  0
  189.8670  177.9500  142.8550 O   0  0  0  0  0  1  0  0  0  0  0  0
  188.3040  175.9130  146.8670 C   0  0  0  0  0  2  0  0  0  0  0  0
  188.0220  177.4050  146.9910 C   0  0  0  0  0  2  0  0  0  0  0  0
  185.3910  177.5970  146.9670 C   0  0  0  0  0  2  0  0  0  0  0  0
  184.5150  178.1180  145.9290 N   0  0  0  0  0  0  0  0  0  0  0  0
  185.2620  178.4720  144.9360 C   0  0  0  0  0  0  0  0  0  0  0  0
  186.7300  177.7740  146.3410 C   0  0  0  0  0  0  0  0  0  0  0  0
  186.6520  178.2800  145.1580 N   0  0  0  0  0  0  0  0  0  0  0  0
  185.6280  178.8170  142.5230 C   0  0  0  0  0  2  0  0  0  0  0  0
  184.7130  179.1010  143.6990 C   0  0  0  0  0  3  0  0  0  0  0  0
  184.3510  178.0260  142.6920 C   0  0  0  0  0  2  0  0  0  0  0  0
  2  1  1  0  0  0  0
  3  7  1  1  0  0  0
  3  6  1  0  0  0  0
  4  6  1  0  0  0  0
  4  2  1  0  0  0  0
  5  4  2  0  0  0  0
  6  9  1  1  0  0  0
  8 16  1  1  0  0  0
  8 13  1  0  0  0  0
  9 13  1  0  0  0  0
 10  8  1  0  0  0  0
 11 14  1  1  0  0  0
 11  3  1  0  0  0  0
 11 10  1  0  0  0  0
 12  7  1  0  0  0  0
 12  1  1  0  0  0  0
 15 14  1  0  0  0  0
 16 17  1  0  0  0  0
 19 18  1  0  0  0  0
 20 22  1  0  0  0  0
 20 19  2  0  0  0  0
 21 18  1  0  0  0  0
 21 17  1  0  0  0  0
 22 21  2  0  0  0  0
 23 25  1  0  0  0  0
 23 24  1  0  0  0  0
 24 20  1  0  0  0  0
 25 24  1  0  0  0  0
M  END
>  <MODEL>
3

>  <REMARK>
 VINA RESULT:      -6.7      2.621      7.589
  Name = 
  5 active torsions:
  status: ('A' for Active; 'I' for Inactive)
    1  A    between atoms: C_1  and  C_18
    2  A    between atoms: C_1  and  C_23
    3  A    between atoms: C_10  and  C_16
    4  A    between atoms: N_11  and  C_19
    5  A    between atoms: C_14  and  C_18
                            x       y       z     vdW  Elec       q    Type
                         _______ _______ _______ _____ _____    ______ ____

>  <TORSDO>
F 5

$$$$
=
 OpenBabel11042413493D

 25 28  0  0  1  0  0  0  0  0999 V2000
  189.2690  171.9030  143.4510 N   0  0  0  0  0  2  0  0  0  0  0  0
  189.8120  171.9460  142.1570 N   0  0  0  0  0  2  0  0  0  0  0  0
  190.1350  174.8710  143.1780 C   0  0  2  0  0  3  0  0  0  0  0  0
  189.8360  173.1460  141.3750 C   0  0  0  0  0  0  0  0  0  0  0  0
  190.4490  173.0990  139.8640 S   0  0  0  0  0  0  0  0  0  0  0  0
  189.3510  174.4530  141.9190 C   0  0  1  0  0  3  0  0  0  0  0  0
  189.7460  174.0810  144.4360 C   0  0  0  0  0  2  0  0  0  0  0  0
  187.9710  176.9050  142.1590 C   0  0  1  0  0  3  0  0  0  0  0  0
  187.8380  174.4290  142.1680 C   0  0  0  0  0  2  0  0  0  0  0  0
  188.6130  176.8850  143.5410 C   0  0  0  0  0  2  0  0  0  0  0  0
  190.0480  176.3890  143.4070 C   0  0  1  0  0  3  0  0  0  0  0  0
  190.1710  172.6240  144.3370 C   0  0  0  0  0  2  0  0  0  0  0  0
  187.1600  175.7070  141.9060 N   0  0  0  0  0  2  0  0  0  0  0  0
  190.8220  176.7880  144.5730 N   0  0  0  0  0  2  0  0  0  0  0  0
  190.2090  177.8730  145.1050 O   0  0  0  0  0  1  0  0  0  0  0  0
  187.1080  178.1480  142.0240 C   0  0  0  0  0  2  0  0  0  0  0  0
  185.6260  177.8080  142.1310 C   0  0  0  0  0  2  0  0  0  0  0  0
  184.0240  179.0710  143.8040 C   0  0  0  0  0  2  0  0  0  0  0  0
  183.9010  178.9280  145.2460 N   0  0  0  0  0  0  0  0  0  0  0  0
  184.7740  178.0540  145.6220 C   0  0  0  0  0  0  0  0  0  0  0  0
  185.0990  178.0870  143.4990 C   0  0  0  0  0  0  0  0  0  0  0  0
  185.5360  177.4990  144.5590 N   0  0  0  0  0  0  0  0  0  0  0  0
  186.2550  176.9410  147.2480 C   0  0  0  0  0  2  0  0  0  0  0  0
  184.9090  177.6090  147.0410 C   0  0  0  0  0  3  0  0  0  0  0  0
  186.0420  178.3640  147.7110 C   0  0  0  0  0  2  0  0  0  0  0  0
  1 12  1  0  0  0  0
  2  1  1  0  0  0  0
  3 11  1  0  0  0  0
  3  7  1  1  0  0  0
  4  6  1  0  0  0  0
  4  2  1  0  0  0  0
  5  4  2  0  0  0  0
  6  9  1  1  0  0  0
  6  3  1  0  0  0  0
  8 16  1  1  0  0  0
  8 10  1  0  0  0  0
 11 10  1  0  0  0  0
 11 14  1  1  0  0  0
 12  7  1  0  0  0  0
 13  8  1  0  0  0  0
 13  9  1  0  0  0  0
 14 15  1  0  0  0  0
 16 17  1  0  0  0  0
 17 21  1  0  0  0  0
 18 19  1  0  0  0  0
 19 20  2  0  0  0  0
 20 24  1  0  0  0  0
 21 18  1  0  0  0  0
 21 22  2  0  0  0  0
 22 20  1  0  0  0  0
 23 25  1  0  0  0  0
 24 23  1  0  0  0  0
 24 25  1  0  0  0  0
M  END
>  <MODEL>
4

>  <REMARK>
 VINA RESULT:      -6.6      3.588      7.333
  Name = 
  5 active torsions:
  status: ('A' for Active; 'I' for Inactive)
    1  A    between atoms: C_1  and  C_18
    2  A    between atoms: C_1  and  C_23
    3  A    between atoms: C_10  and  C_16
    4  A    between atoms: N_11  and  C_19
    5  A    between atoms: C_14  and  C_18
                            x       y       z     vdW  Elec       q    Type
                         _______ _______ _______ _____ _____    ______ ____

>  <TORSDO>
F 5

$$$$
=
 OpenBabel11042413493D

 25 28  0  0  1  0  0  0  0  0999 V2000
  194.4930  172.8900  144.0240 N   0  0  0  0  0  2  0  0  0  0  0  0
  195.5080  173.8190  143.7450 N   0  0  0  0  0  2  0  0  0  0  0  0
  193.4820  175.4500  145.4590 C   0  0  2  0  0  3  0  0  0  0  0  0
  195.2670  175.2300  143.7030 C   0  0  0  0  0  0  0  0  0  0  0  0
  196.4960  176.2370  143.3320 S   0  0  0  0  0  0  0  0  0  0  0  0
  193.9270  175.8120  144.0280 C   0  0  1  0  0  3  0  0  0  0  0  0
  193.0060  173.9980  145.6070 C   0  0  0  0  0  2  0  0  0  0  0  0
  191.5520  177.3280  143.8440 C   0  0  1  0  0  3  0  0  0  0  0  0
  192.8760  175.4160  142.9840 C   0  0  0  0  0  2  0  0  0  0  0  0
  191.2020  176.5350  145.0970 C   0  0  0  0  0  2  0  0  0  0  0  0
  192.4390  176.4500  145.9850 C   0  0  1  0  0  3  0  0  0  0  0  0
  194.1510  173.0130  145.4340 C   0  0  0  0  0  2  0  0  0  0  0  0
  191.8750  176.4570  142.7070 N   0  0  0  0  0  2  0  0  0  0  0  0
  192.0500  176.1310  147.3500 N   0  0  0  0  0  2  0  0  0  0  0  0
  190.8220  176.6680  147.5490 O   0  0  0  0  0  1  0  0  0  0  0  0
  190.3880  178.2350  143.4830 C   0  0  0  0  0  2  0  0  0  0  0  0
  189.2370  177.4430  142.8750 C   0  0  0  0  0  2  0  0  0  0  0  0
  186.7400  178.2410  142.5810 C   0  0  0  0  0  2  0  0  0  0  0  0
  185.7560  178.5810  143.5970 N   0  0  0  0  0  0  0  0  0  0  0  0
  186.3310  178.4580  144.7470 C   0  0  0  0  0  0  0  0  0  0  0  0
  187.9200  177.8880  143.4170 C   0  0  0  0  0  0  0  0  0  0  0  0
  187.6810  178.0190  144.6770 N   0  0  0  0  0  0  0  0  0  0  0  0
  184.1120  178.6690  145.8000 C   0  0  0  0  0  2  0  0  0  0  0  0
  185.6110  178.6790  146.0360 C   0  0  0  0  0  3  0  0  0  0  0  0
  184.7900  177.4510  146.3830 C   0  0  0  0  0  2  0  0  0  0  0  0
  1 12  1  0  0  0  0
  2  1  1  0  0  0  0
  3  7  1  6  0  0  0
  3 11  1  0  0  0  0
  4  2  1  0  0  0  0
  4  6  1  0  0  0  0
  5  4  2  0  0  0  0
  6  9  1  6  0  0  0
  6  3  1  0  0  0  0
  8 16  1  6  0  0  0
  8 10  1  0  0  0  0
 10 11  1  0  0  0  0
 11 14  1  1  0  0  0
 12  7  1  0  0  0  0
 13  9  1  0  0  0  0
 13  8  1  0  0  0  0
 14 15  1  0  0  0  0
 17 21  1  0  0  0  0
 17 16  1  0  0  0  0
 18 21  1  0  0  0  0
 18 19  1  0  0  0  0
 19 20  2  0  0  0  0
 20 24  1  0  0  0  0
 21 22  2  0  0  0  0
 22 20  1  0  0  0  0
 23 24  1  0  0  0  0
 23 25  1  0  0  0  0
 24 25  1  0  0  0  0
M  END
>  <MODEL>
5

>  <REMARK>
 VINA RESULT:      -6.6      2.835      7.820
  Name = 
  5 active torsions:
  status: ('A' for Active; 'I' for Inactive)
    1  A    between atoms: C_1  and  C_18
    2  A    between atoms: C_1  and  C_23
    3  A    between atoms: C_10  and  C_16
    4  A    between atoms: N_11  and  C_19
    5  A    between atoms: C_14  and  C_18
                            x       y       z     vdW  Elec       q    Type
                         _______ _______ _______ _____ _____    ______ ____

>  <TORSDO>
F 5

$$$$
=
 OpenBabel11042413493D

 25 28  0  0  1  0  0  0  0  0999 V2000
  185.6530  176.4850  144.8650 N   0  0  0  0  0  2  0  0  0  0  0  0
  185.6060  177.3460  145.9730 N   0  0  0  0  0  2  0  0  0  0  0  0
  188.5140  177.6890  144.9130 C   0  0  2  0  0  3  0  0  0  0  0  0
  186.7730  177.6930  146.7250 C   0  0  0  0  0  0  0  0  0  0  0  0
  186.6220  178.6690  148.0250 S   0  0  0  0  0  0  0  0  0  0  0  0
  188.1370  177.2190  146.3310 C   0  0  1  0  0  3  0  0  0  0  0  0
  187.8040  176.9100  143.7970 C   0  0  0  0  0  2  0  0  0  0  0  0
  190.7170  176.0810  146.4680 C   0  0  1  0  0  3  0  0  0  0  0  0
  188.2670  175.6990  146.4850 C   0  0  0  0  0  2  0  0  0  0  0  0
  190.6770  176.3380  144.9670 C   0  0  0  0  0  2  0  0  0  0  0  0
  190.0400  177.7000  144.7200 C   0  0  1  0  0  3  0  0  0  0  0  0
  186.3100  177.1950  143.7770 C   0  0  0  0  0  2  0  0  0  0  0  0
  189.5970  175.2450  146.9200 N   0  0  0  0  0  2  0  0  0  0  0  0
  190.3960  178.1820  143.3940 N   0  0  0  0  0  2  0  0  0  0  0  0
  191.5110  177.5130  143.0140 O   0  0  0  0  0  1  0  0  0  0  0  0
  192.0340  175.4120  146.8280 C   0  0  0  0  0  2  0  0  0  0  0  0
  193.1820  176.4150  146.8280 C   0  0  0  0  0  2  0  0  0  0  0  0
  194.4690  176.5490  144.5290 C   0  0  0  0  0  2  0  0  0  0  0  0
  195.6490  175.8210  144.0910 N   0  0  0  0  0  0  0  0  0  0  0  0
  195.9830  175.0180  145.0460 C   0  0  0  0  0  0  0  0  0  0  0  0
  194.2720  175.9980  145.8980 C   0  0  0  0  0  0  0  0  0  0  0  0
  195.1520  175.1050  146.1950 N   0  0  0  0  0  0  0  0  0  0  0  0
  197.1860  173.1650  146.1390 C   0  0  0  0  0  2  0  0  0  0  0  0
  197.1860  174.1370  144.9740 C   0  0  0  0  0  3  0  0  0  0  0  0
  196.7560  172.6960  144.7690 C   0  0  0  0  0  2  0  0  0  0  0  0
  1  2  1  0  0  0  0
  2  4  1  0  0  0  0
  3  7  1  6  0  0  0
  3  6  1  0  0  0  0
  4  5  2  0  0  0  0
  6  9  1  6  0  0  0
  6  4  1  0  0  0  0
  8 16  1  6  0  0  0
  8 13  1  0  0  0  0
  9 13  1  0  0  0  0
 10  8  1  0  0  0  0
 11 14  1  6  0  0  0
 11  3  1  0  0  0  0
 11 10  1  0  0  0  0
 12  7  1  0  0  0  0
 12  1  1  0  0  0  0
 15 14  1  0  0  0  0
 16 17  1  0  0  0  0
 18 21  1  0  0  0  0
 19 18  1  0  0  0  0
 19 20  2  0  0  0  0
 20 22  1  0  0  0  0
 21 22  2  0  0  0  0
 21 17  1  0  0  0  0
 24 20  1  0  0  0  0
 24 23  1  0  0  0  0
 25 24  1  0  0  0  0
 25 23  1  0  0  0  0
M  END
>  <MODEL>
6

>  <REMARK>
 VINA RESULT:      -6.6      2.543      3.428
  Name = 
  5 active torsions:
  status: ('A' for Active; 'I' for Inactive)
    1  A    between atoms: C_1  and  C_18
    2  A    between atoms: C_1  and  C_23
    3  A    between atoms: C_10  and  C_16
    4  A    between atoms: N_11  and  C_19
    5  A    between atoms: C_14  and  C_18
                            x       y       z     vdW  Elec       q    Type
                         _______ _______ _______ _____ _____    ______ ____

>  <TORSDO>
F 5

$$$$
=
 OpenBabel11042413493D

 25 28  0  0  1  0  0  0  0  0999 V2000
  192.7500  171.6000  144.3780 N   0  0  0  0  0  2  0  0  0  0  0  0
  192.4970  172.1500  143.1120 N   0  0  0  0  0  2  0  0  0  0  0  0
  193.0800  174.6440  144.8830 C   0  0  2  0  0  3  0  0  0  0  0  0
  191.9930  173.4790  142.9390 C   0  0  0  0  0  0  0  0  0  0  0  0
  191.6880  174.0260  141.4330 S   0  0  0  0  0  0  0  0  0  0  0  0
  191.7760  174.3980  144.1010 C   0  0  1  0  0  3  0  0  0  0  0  0
  193.5040  173.4600  145.7620 C   0  0  0  0  0  2  0  0  0  0  0  0
  190.5510  176.2120  145.8850 C   0  0  1  0  0  3  0  0  0  0  0  0
  190.6490  173.8930  145.0110 C   0  0  0  0  0  2  0  0  0  0  0  0
  191.8400  175.9830  146.6650 C   0  0  0  0  0  2  0  0  0  0  0  0
  193.0070  175.9540  145.6850 C   0  0  1  0  0  3  0  0  0  0  0  0
  193.9250  172.2620  144.9250 C   0  0  0  0  0  2  0  0  0  0  0  0
  189.8340  174.9590  145.6140 N   0  0  0  0  0  2  0  0  0  0  0  0
  194.2540  176.2060  146.3910 N   0  0  0  0  0  2  0  0  0  0  0  0
  194.5660  177.5100  146.1940 O   0  0  0  0  0  1  0  0  0  0  0  0
  189.6540  177.1590  146.6650 C   0  0  0  0  0  2  0  0  0  0  0  0
  188.2730  176.5550  146.8890 C   0  0  0  0  0  2  0  0  0  0  0  0
  186.1940  178.0660  147.4820 C   0  0  0  0  0  2  0  0  0  0  0  0
  185.4090  178.9330  146.6180 N   0  0  0  0  0  0  0  0  0  0  0  0
  185.8910  178.8250  145.4240 C   0  0  0  0  0  0  0  0  0  0  0  0
  187.1910  177.5140  146.5240 C   0  0  0  0  0  0  0  0  0  0  0  0
  187.0100  177.9550  145.3260 N   0  0  0  0  0  0  0  0  0  0  0  0
  185.8870  179.0310  142.9680 C   0  0  0  0  0  2  0  0  0  0  0  0
  185.3660  179.6120  144.2690 C   0  0  0  0  0  3  0  0  0  0  0  0
  184.4740  178.7330  143.4120 C   0  0  0  0  0  2  0  0  0  0  0  0
  1 12  1  0  0  0  0
  2  1  1  0  0  0  0
  3 11  1  0  0  0  0
  3  7  1  1  0  0  0
  4  2  1  0  0  0  0
  4  6  1  0  0  0  0
  5  4  2  0  0  0  0
  6  3  1  0  0  0  0
  6  9  1  1  0  0  0
  8 16  1  1  0  0  0
  8 10  1  0  0  0  0
  9 13  1  0  0  0  0
 11 14  1  1  0  0  0
 11 10  1  0  0  0  0
 12  7  1  0  0  0  0
 13  8  1  0  0  0  0
 15 14  1  0  0  0  0
 16 17  1  0  0  0  0
 19 18  1  0  0  0  0
 20 19  2  0  0  0  0
 21 17  1  0  0  0  0
 21 18  1  0  0  0  0
 22 20  1  0  0  0  0
 22 21  2  0  0  0  0
 23 25  1  0  0  0  0
 23 24  1  0  0  0  0
 24 20  1  0  0  0  0
 25 24  1  0  0  0  0
M  END
>  <MODEL>
7

>  <REMARK>
 VINA RESULT:      -6.5      2.748      7.587
  Name = 
  5 active torsions:
  status: ('A' for Active; 'I' for Inactive)
    1  A    between atoms: C_1  and  C_18
    2  A    between atoms: C_1  and  C_23
    3  A    between atoms: C_10  and  C_16
    4  A    between atoms: N_11  and  C_19
    5  A    between atoms: C_14  and  C_18
                            x       y       z     vdW  Elec       q    Type
                         _______ _______ _______ _____ _____    ______ ____

>  <TORSDO>
F 5

$$$$
=
 OpenBabel11042413493D

 25 28  0  0  1  0  0  0  0  0999 V2000
  193.9900  175.9170  145.0500 N   0  0  0  0  0  2  0  0  0  0  0  0
  193.2850  176.0860  146.2520 N   0  0  0  0  0  2  0  0  0  0  0  0
  191.1710  174.8280  144.3420 C   0  0  2  0  0  3  0  0  0  0  0  0
  191.8640  176.2560  146.2900 C   0  0  0  0  0  0  0  0  0  0  0  0
  191.1280  176.4870  147.7280 S   0  0  0  0  0  0  0  0  0  0  0  0
  191.0260  176.1870  145.0510 C   0  0  1  0  0  3  0  0  0  0  0  0
  192.4960  174.6670  143.5830 C   0  0  0  0  0  2  0  0  0  0  0  0
  189.1370  176.8470  143.0590 C   0  0  1  0  0  3  0  0  0  0  0  0
  191.3240  177.3600  144.1090 C   0  0  0  0  0  2  0  0  0  0  0  0
  189.7380  175.6190  142.3860 C   0  0  0  0  0  2  0  0  0  0  0  0
  189.9590  174.5400  143.4400 C   0  0  1  0  0  3  0  0  0  0  0  0
  193.6810  174.5910  144.5340 C   0  0  0  0  0  2  0  0  0  0  0  0
  190.1520  177.8610  143.3750 N   0  0  0  0  0  2  0  0  0  0  0  0
  190.0770  173.2390  142.8020 N   0  0  0  0  0  2  0  0  0  0  0  0
  189.6360  173.3780  141.5290 O   0  0  0  0  0  1  0  0  0  0  0  0
  188.0760  177.4480  142.1530 C   0  0  0  0  0  2  0  0  0  0  0  0
  186.7550  176.6980  142.2750 C   0  0  0  0  0  2  0  0  0  0  0  0
  184.7040  178.2820  142.7710 C   0  0  0  0  0  2  0  0  0  0  0  0
  184.1230  178.6640  144.0480 N   0  0  0  0  0  0  0  0  0  0  0  0
  184.8250  178.1000  144.9740 C   0  0  0  0  0  0  0  0  0  0  0  0
  185.8160  177.3920  143.2040 C   0  0  0  0  0  0  0  0  0  0  0  0
  185.8870  177.2910  144.4870 N   0  0  0  0  0  0  0  0  0  0  0  0
  185.5570  177.5350  147.2590 C   0  0  0  0  0  2  0  0  0  0  0  0
  184.4950  178.2260  146.4250 C   0  0  0  0  0  3  0  0  0  0  0  0
  185.5660  179.0400  147.1270 C   0  0  0  0  0  2  0  0  0  0  0  0
  1  2  1  0  0  0  0
  2  4  1  0  0  0  0
  3  7  1  6  0  0  0
  3  6  1  0  0  0  0
  4  5  2  0  0  0  0
  6  9  1  6  0  0  0
  6  4  1  0  0  0  0
  7 12  1  0  0  0  0
  8 16  1  6  0  0  0
  8 13  1  0  0  0  0
 10  8  1  0  0  0  0
 10 11  1  0  0  0  0
 11 14  1  6  0  0  0
 11  3  1  0  0  0  0
 12  1  1  0  0  0  0
 13  9  1  0  0  0  0
 15 14  1  0  0  0  0
 16 17  1  0  0  0  0
 17 21  1  0  0  0  0
 18 21  1  0  0  0  0
 18 19  1  0  0  0  0
 19 20  2  0  0  0  0
 20 24  1  0  0  0  0
 21 22  2  0  0  0  0
 22 20  1  0  0  0  0
 24 25  1  0  0  0  0
 24 23  1  0  0  0  0
 25 23  1  0  0  0  0
M  END
>  <MODEL>
8

>  <REMARK>
 VINA RESULT:      -6.5      3.080      7.803
  Name = 
  5 active torsions:
  status: ('A' for Active; 'I' for Inactive)
    1  A    between atoms: C_1  and  C_18
    2  A    between atoms: C_1  and  C_23
    3  A    between atoms: C_10  and  C_16
    4  A    between atoms: N_11  and  C_19
    5  A    between atoms: C_14  and  C_18
                            x       y       z     vdW  Elec       q    Type
                         _______ _______ _______ _____ _____    ______ ____

>  <TORSDO>
F 5

$$$$
=
 OpenBabel11042413493D

 25 28  0  0  1  0  0  0  0  0999 V2000
  192.3400  177.2040  144.2700 N   0  0  0  0  0  2  0  0  0  0  0  0
  192.1350  176.5650  145.5040 N   0  0  0  0  0  2  0  0  0  0  0  0
  189.8430  175.4460  143.7170 C   0  0  2  0  0  3  0  0  0  0  0  0
  190.8460  176.1060  145.9250 C   0  0  0  0  0  0  0  0  0  0  0  0
  190.6870  175.4100  147.3920 S   0  0  0  0  0  0  0  0  0  0  0  0
  189.6420  176.2100  145.0400 C   0  0  1  0  0  3  0  0  0  0  0  0
  190.7670  176.1650  142.7240 C   0  0  0  0  0  2  0  0  0  0  0  0
  187.0320  176.7820  144.1300 C   0  0  1  0  0  3  0  0  0  0  0  0
  189.2470  177.6720  144.8030 C   0  0  0  0  0  2  0  0  0  0  0  0
  187.6170  176.2990  142.8090 C   0  0  0  0  0  2  0  0  0  0  0  0
  188.4930  175.0800  143.0770 C   0  0  1  0  0  3  0  0  0  0  0  0
  192.2040  176.2030  143.2220 C   0  0  0  0  0  2  0  0  0  0  0  0
  187.7970  177.8990  144.7010 N   0  0  0  0  0  2  0  0  0  0  0  0
  188.6820  174.3240  141.8490 N   0  0  0  0  0  2  0  0  0  0  0  0
  188.4380  173.0240  142.1400 O   0  0  0  0  0  1  0  0  0  0  0  0
  185.5880  177.2060  143.9140 C   0  0  0  0  0  2  0  0  0  0  0  0
  185.5010  178.4480  143.0360 C   0  0  0  0  0  2  0  0  0  0  0  0
  184.5520  178.1820  140.5890 C   0  0  0  0  0  2  0  0  0  0  0  0
  183.1700  178.1310  140.1380 N   0  0  0  0  0  0  0  0  0  0  0  0
  182.4190  178.2770  141.1790 C   0  0  0  0  0  0  0  0  0  0  0  0
  184.3780  178.3490  142.0580 C   0  0  0  0  0  0  0  0  0  0  0  0
  183.1370  178.4080  142.3980 N   0  0  0  0  0  0  0  0  0  0  0  0
  180.3330  179.0400  142.2450 C   0  0  0  0  0  2  0  0  0  0  0  0
  180.9290  178.2290  141.1100 C   0  0  0  0  0  3  0  0  0  0  0  0
  180.3820  179.6210  140.8510 C   0  0  0  0  0  2  0  0  0  0  0  0
  1  2  1  0  0  0  0
  2  4  1  0  0  0  0
  3  7  1  6  0  0  0
  3  6  1  0  0  0  0
  4  5  2  0  0  0  0
  6  9  1  6  0  0  0
  6  4  1  0  0  0  0
  7 12  1  0  0  0  0
  8 16  1  6  0  0  0
  8 13  1  0  0  0  0
 10 11  1  0  0  0  0
 10  8  1  0  0  0  0
 11 14  1  6  0  0  0
 11  3  1  0  0  0  0
 12  1  1  0  0  0  0
 13  9  1  0  0  0  0
 14 15  1  0  0  0  0
 17 16  1  0  0  0  0
 18 21  1  0  0  0  0
 19 18  1  0  0  0  0
 19 20  2  0  0  0  0
 20 22  1  0  0  0  0
 21 22  2  0  0  0  0
 21 17  1  0  0  0  0
 24 20  1  0  0  0  0
 24 23  1  0  0  0  0
 25 24  1  0  0  0  0
 25 23  1  0  0  0  0
M  END
>  <MODEL>
9

>  <REMARK>
 VINA RESULT:      -6.4      3.552      9.014
  Name = 
  5 active torsions:
  status: ('A' for Active; 'I' for Inactive)
    1  A    between atoms: C_1  and  C_18
    2  A    between atoms: C_1  and  C_23
    3  A    between atoms: C_10  and  C_16
    4  A    between atoms: N_11  and  C_19
    5  A    between atoms: C_14  and  C_18
                            x       y       z     vdW  Elec       q    Type
                         _______ _______ _______ _____ _____    ______ ____

>  <TORSDO>
F 5

$$$$
