=
 OpenBabel11042416313D

 54 59  0  0  1  0  0  0  0  0999 V2000
  190.0270  176.7650  142.6620 C   0  0  0  0  0  2  0  0  0  0  0  0
  187.4730  175.8060  143.5720 C   0  0  0  0  0  2  0  0  0  0  0  0
  189.9040  175.2490  142.8580 C   0  0  2  0  0  3  0  0  0  0  0  0
  187.4690  177.5900  145.2750 C   0  0  2  0  0  3  0  0  0  0  0  0
  188.9890  177.2650  147.2620 N   0  0  0  0  0  0  0  0  0  0  0  0
  191.8550  176.4120  145.1100 C   0  0  0  0  0  0  0  0  0  0  0  0
  190.2630  176.7640  146.8460 C   0  0  0  0  0  0  0  0  0  0  0  0
  188.0290  174.2960  141.6590 C   0  0  0  0  0  2  0  0  0  0  0  0
  191.0070  175.9720  147.7190 C   0  0  0  0  0  3  0  0  0  0  0  0
  192.6420  175.6190  145.9690 C   0  0  2  0  0  3  0  0  0  0  0  0
  190.7070  176.9760  145.5800 N   0  0  0  0  0  0  0  0  0  0  0  0
  190.4440  174.5190  141.6330 C   0  0  0  0  0  2  0  0  0  0  0  0
  191.4560  177.2960  142.8060 C   0  0  0  0  0  2  0  0  0  0  0  0
  189.2890  173.6990  141.0730 C   0  0  2  0  0  3  0  0  0  0  0  0
  188.4550  174.7740  143.0250 C   0  0  2  0  0  3  0  0  0  0  0  0
  187.7500  176.1120  145.0320 C   0  0  0  0  0  2  0  0  0  0  0  0
  192.2050  175.4120  147.2810 C   0  0  0  0  0  3  0  0  0  0  0  0
  188.1910  178.2070  146.4810 C   0  0  2  0  0  3  0  0  0  0  0  0
  192.2280  176.5800  143.7720 O   0  0  0  0  0  0  0  0  0  0  0  0
  186.7330  177.7910  146.5840 C   0  0  1  0  0  3  0  0  0  0  0  0
  189.2640  173.7020  139.5740 C   0  0  0  0  0  0  0  0  0  0  0  0
  188.7290  174.2540  137.5410 N   0  0  0  0  0  0  0  0  0  0  0  0
  190.1410  173.0400  138.7410 C   0  0  0  0  0  0  0  0  0  0  0  0
  188.4110  174.4270  138.8180 N   0  0  0  0  0  2  0  0  0  0  0  0
  189.7910  173.4270  137.4710 C   0  0  0  0  0  0  0  0  0  0  0  0
  191.2410  172.2070  139.1120 N   0  0  0  0  0  2  0  0  0  0  0  0
  191.1060  170.7900  139.2700 C   0  0  0  0  0  0  0  0  0  0  0  0
  190.0370  170.2110  138.9240 O   0  0  0  0  0  0  0  0  0  0  0  0
  192.2560  169.9950  139.8010 C   0  0  0  0  0  3  0  0  0  0  0  0
  192.2740  168.6090  139.1810 C   0  0  0  0  0  1  0  0  0  0  0  0
  192.1760  169.8870  141.3130 C   0  0  0  0  0  1  0  0  0  0  0  0
  190.4310  172.9910  136.1980 C   0  0  0  0  0  2  0  0  0  0  0  0
  189.7250  171.7670  135.6460 C   0  0  0  0  0  2  0  0  0  0  0  0
  191.9810  171.0210  135.8650 O   0  0  0  0  0  1  0  0  0  0  0  0
  190.6960  170.6100  135.5090 C   0  0  0  0  0  2  0  0  0  0  0  0
  195.0130  175.4360  146.3590 O   0  0  0  0  0  1  0  0  0  0  0  0
  193.9540  175.0110  145.5510 C   0  0  1  0  0  3  0  0  0  0  0  0
  193.9060  173.4840  145.4720 C   0  0  0  0  0  2  0  0  0  0  0  0
  195.2930  172.8610  145.4840 C   0  0  0  0  0  2  0  0  0  0  0  0
  195.7210  172.2260  143.8740 S   0  0  0  0  0  0  0  0  0  0  0  0
  196.5070  170.9530  144.0330 O   0  0  0  0  0  0  0  0  0  0  0  0
  194.4450  171.9230  143.1380 O   0  0  0  0  0  0  0  0  0  0  0  0
  196.9310  176.6580  143.1620 C   0  0  0  0  0  2  0  0  0  0  0  0
  196.6700  173.4240  142.9410 C   0  0  2  0  0  3  0  0  0  0  0  0
  195.0750  175.2940  142.1070 C   0  0  0  0  0  2  0  0  0  0  0  0
  197.8830  175.5550  143.1570 N   0  0  0  0  0  2  0  0  0  0  0  0
  197.2550  174.4700  143.8930 C   0  0  0  0  0  2  0  0  0  0  0  0
  196.6070  174.1320  140.6330 O   0  0  0  0  0  1  0  0  0  0  0  0
  195.8300  173.9960  141.7860 C   0  0  1  0  0  3  0  0  0  0  0  0
  195.9590  176.5370  141.9930 C   0  0  0  0  0  2  0  0  0  0  0  0
  185.8650  178.9530  146.4570 N   0  0  0  0  0  2  0  0  0  0  0  0
  184.5760  177.1530  146.5450 O   0  0  0  0  0  1  0  0  0  0  0  0
  184.5390  178.4980  146.3730 N   0  0  0  0  0  0  0  0  0  0  0  0
  184.0320  178.7670  144.7270 Cl  0  0  0  0  0  0  0  0  0  0  0  0
  1 13  1  0  0  0  0
  1  3  1  0  0  0  0
  2 16  1  0  0  0  0
  3 12  1  6  0  0  0
  3 15  1  0  0  0  0
  4 16  1  1  0  0  0
  4 18  1  0  0  0  0
  4 20  1  0  0  0  0
  6 11  2  0  0  0  0
  6 10  1  0  0  0  0
  7  5  2  0  0  0  0
  7  9  1  0  0  0  0
 10 37  1  1  0  0  0
 10 17  1  0  0  0  0
 11  7  1  0  0  0  0
 13 19  1  0  0  0  0
 14 21  1  6  0  0  0
 14 12  1  0  0  0  0
 14  8  1  0  0  0  0
 15  8  1  6  0  0  0
 15  2  1  0  0  0  0
 17  9  2  0  0  0  0
 18 20  1  0  0  0  0
 18  5  1  1  0  0  0
 19  6  1  0  0  0  0
 20 51  1  6  0  0  0
 22 24  1  0  0  0  0
 23 26  1  0  0  0  0
 23 21  2  0  0  0  0
 24 21  1  0  0  0  0
 25 22  2  0  0  0  0
 25 23  1  0  0  0  0
 26 27  1  0  0  0  0
 27 29  1  0  0  0  0
 28 27  2  0  0  0  0
 29 31  1  0  0  0  0
 30 29  1  0  0  0  0
 32 25  1  0  0  0  0
 33 32  1  0  0  0  0
 35 33  1  0  0  0  0
 35 34  1  0  0  0  0
 37 36  1  1  0  0  0
 38 39  1  0  0  0  0
 38 37  1  0  0  0  0
 40 41  2  0  0  0  0
 40 39  1  0  0  0  0
 42 40  2  0  0  0  0
 44 40  1  1  0  0  0
 44 47  1  0  0  0  0
 46 43  1  0  0  0  0
 46 47  1  0  0  0  0
 49 48  1  6  0  0  0
 49 45  1  0  0  0  0
 49 44  1  0  0  0  0
 50 45  1  0  0  0  0
 50 43  1  0  0  0  0
 53 51  1  0  0  0  0
 53 52  1  0  0  0  0
 54 53  1  0  0  0  0
M  END
>  <MODEL>
1

>  <REMARK>
 VINA RESULT:      -7.5      0.000      0.000
  Name = 
  13 active torsions:
  status: ('A' for Active; 'I' for Inactive)
    1  A    between atoms: C_1  and  C_39
    2  A    between atoms: S_4  and  C_20
    3  A    between atoms: S_4  and  C_27
    4  A    between atoms: C_6  and  C_27
    5  A    between atoms: C_6  and  C_37
    6  A    between atoms: C_10  and  C_47
    7  A    between atoms: C_13  and  N_46
    8  A    between atoms: C_15  and  C_43
    9  A    between atoms: N_18  and  N_30
   10  A    between atoms: N_18  and  C_51
   11  A    between atoms: C_26  and  C_43
   12  A    between atoms: C_26  and  C_54
   13  A    between atoms: C_33  and  C_37
                            x       y       z     vdW  Elec       q    Type
                         _______ _______ _______ _____ _____    ______ ____

>  <TORSDO>
F 13

$$$$
=
 OpenBabel11042416313D

 54 59  0  0  1  0  0  0  0  0999 V2000
  189.8830  175.0110  144.1930 C   0  0  0  0  0  2  0  0  0  0  0  0
  189.9330  177.8600  144.5750 C   0  0  0  0  0  2  0  0  0  0  0  0
  190.7960  175.8030  143.2490 C   0  0  2  0  0  3  0  0  0  0  0  0
  187.4690  177.8360  144.6840 C   0  0  2  0  0  3  0  0  0  0  0  0
  186.2400  177.5320  142.5010 N   0  0  0  0  0  2  0  0  0  0  0  0
  188.3370  174.6540  141.5580 C   0  0  0  0  0  0  0  0  0  0  0  0
  186.8670  176.5220  141.7060 C   0  0  0  0  0  0  0  0  0  0  0  0
  192.3490  177.2360  144.4310 C   0  0  0  0  0  2  0  0  0  0  0  0
  186.7770  176.5890  140.3160 C   0  0  0  0  0  3  0  0  0  0  0  0
  188.2560  174.6800  140.1510 C   0  0  0  0  0  0  0  0  0  0  0  0
  187.6250  175.5560  142.2880 N   0  0  0  0  0  0  0  0  0  0  0  0
  192.1760  175.1580  143.1920 C   0  0  0  0  0  2  0  0  0  0  0  0
  189.3890  173.6840  143.6070 C   0  0  0  0  0  2  0  0  0  0  0  0
  193.1660  176.2070  143.6810 C   0  0  2  0  0  3  0  0  0  0  0  0
  191.0280  177.2510  143.7030 C   0  0  2  0  0  3  0  0  0  0  0  0
  188.6650  178.1040  143.7780 C   0  0  0  0  0  2  0  0  0  0  0  0
  187.4620  175.6550  139.5420 C   0  0  0  0  0  3  0  0  0  0  0  0
  186.1610  177.4860  143.9590 C   0  0  2  0  0  3  0  0  0  0  0  0
  189.1780  173.7350  142.1960 O   0  0  0  0  0  0  0  0  0  0  0  0
  186.3980  178.8900  144.4910 C   0  0  1  0  0  3  0  0  0  0  0  0
  194.2430  175.6160  144.5390 C   0  0  0  0  0  0  0  0  0  0  0  0
  195.3210  174.9810  146.3170 N   0  0  0  0  0  0  0  0  0  0  0  0
  195.3100  174.8570  144.1050 C   0  0  0  0  0  0  0  0  0  0  0  0
  194.2790  175.6830  145.8880 N   0  0  0  0  0  2  0  0  0  0  0  0
  195.9540  174.4550  145.2490 C   0  0  0  0  0  0  0  0  0  0  0  0
  195.6280  174.4820  142.7640 N   0  0  0  0  0  2  0  0  0  0  0  0
  196.4350  175.3030  141.9130 C   0  0  0  0  0  0  0  0  0  0  0  0
  197.0260  176.3160  142.3830 O   0  0  0  0  0  0  0  0  0  0  0  0
  196.6100  174.9270  140.4760 C   0  0  0  0  0  3  0  0  0  0  0  0
  197.8300  175.6170  139.8920 C   0  0  0  0  0  1  0  0  0  0  0  0
  195.3730  175.2920  139.6740 C   0  0  0  0  0  1  0  0  0  0  0  0
  197.1770  173.6090  145.3330 C   0  0  0  0  0  2  0  0  0  0  0  0
  196.8650  172.3010  146.0370 C   0  0  0  0  0  2  0  0  0  0  0  0
  194.8080  171.1010  145.8810 O   0  0  0  0  0  1  0  0  0  0  0  0
  195.9640  171.4360  145.1760 C   0  0  0  0  0  2  0  0  0  0  0  0
  188.3420  172.4270  139.3010 O   0  0  0  0  0  1  0  0  0  0  0  0
  188.9590  173.6810  139.2700 C   0  0  1  0  0  3  0  0  0  0  0  0
  189.1300  174.1710  137.8320 C   0  0  0  0  0  2  0  0  0  0  0  0
  189.6140  173.0700  136.9000 C   0  0  0  0  0  2  0  0  0  0  0  0
  191.3880  173.1160  136.7240 S   0  0  0  0  0  0  0  0  0  0  0  0
  191.7540  172.8300  135.2930 O   0  0  0  0  0  0  0  0  0  0  0  0
  191.8550  174.5000  137.0810 O   0  0  0  0  0  0  0  0  0  0  0  0
  191.1930  170.4970  140.5600 C   0  0  0  0  0  2  0  0  0  0  0  0
  192.1740  171.9290  137.8100 C   0  0  2  0  0  3  0  0  0  0  0  0
  192.1040  172.8390  140.2400 C   0  0  0  0  0  2  0  0  0  0  0  0
  191.7030  170.0150  139.2840 N   0  0  0  0  0  2  0  0  0  0  0  0
  191.1470  170.8890  138.2640 C   0  0  0  0  0  2  0  0  0  0  0  0
  194.1420  172.0320  139.2060 O   0  0  0  0  0  1  0  0  0  0  0  0
  192.9150  172.6500  138.9500 C   0  0  1  0  0  3  0  0  0  0  0  0
  192.0950  171.5900  141.1230 C   0  0  0  0  0  2  0  0  0  0  0  0
  185.6980  179.0800  145.7520 N   0  0  0  0  0  2  0  0  0  0  0  0
  184.1080  177.7400  146.5160 O   0  0  0  0  0  1  0  0  0  0  0  0
  185.4450  177.8140  146.3040 N   0  0  0  0  0  0  0  0  0  0  0  0
  186.1920  177.8090  147.8790 Cl  0  0  0  0  0  0  0  0  0  0  0  0
  3 12  1  1  0  0  0
  3 15  1  0  0  0  0
  3  1  1  0  0  0  0
  4 16  1  6  0  0  0
  6 19  1  0  0  0  0
  6 11  2  0  0  0  0
  7 11  1  0  0  0  0
  7  5  1  0  0  0  0
  9  7  2  0  0  0  0
 10  6  1  0  0  0  0
 12 14  1  0  0  0  0
 13  1  1  0  0  0  0
 14  8  1  0  0  0  0
 14 21  1  1  0  0  0
 15  8  1  1  0  0  0
 15  2  1  0  0  0  0
 16  2  1  0  0  0  0
 17 10  2  0  0  0  0
 17  9  1  0  0  0  0
 18  5  1  6  0  0  0
 18 20  1  0  0  0  0
 18  4  1  0  0  0  0
 19 13  1  0  0  0  0
 20  4  1  0  0  0  0
 20 51  1  1  0  0  0
 21 24  1  0  0  0  0
 23 21  2  0  0  0  0
 23 25  1  0  0  0  0
 24 22  1  0  0  0  0
 25 32  1  0  0  0  0
 25 22  2  0  0  0  0
 26 23  1  0  0  0  0
 27 28  2  0  0  0  0
 27 26  1  0  0  0  0
 29 27  1  0  0  0  0
 30 29  1  0  0  0  0
 31 29  1  0  0  0  0
 32 33  1  0  0  0  0
 35 34  1  0  0  0  0
 35 33  1  0  0  0  0
 37 36  1  6  0  0  0
 37 10  1  0  0  0  0
 38 37  1  0  0  0  0
 39 38  1  0  0  0  0
 40 39  1  0  0  0  0
 40 42  2  0  0  0  0
 41 40  2  0  0  0  0
 43 50  1  0  0  0  0
 44 40  1  1  0  0  0
 44 47  1  0  0  0  0
 44 49  1  0  0  0  0
 45 50  1  0  0  0  0
 46 43  1  0  0  0  0
 47 46  1  0  0  0  0
 49 48  1  1  0  0  0
 49 45  1  0  0  0  0
 51 53  1  0  0  0  0
 53 52  1  0  0  0  0
 53 54  1  0  0  0  0
M  END
>  <MODEL>
2

>  <REMARK>
 VINA RESULT:      -7.5      2.584      7.155
  Name = 
  13 active torsions:
  status: ('A' for Active; 'I' for Inactive)
    1  A    between atoms: C_1  and  C_39
    2  A    between atoms: S_4  and  C_20
    3  A    between atoms: S_4  and  C_27
    4  A    between atoms: C_6  and  C_27
    5  A    between atoms: C_6  and  C_37
    6  A    between atoms: C_10  and  C_47
    7  A    between atoms: C_13  and  N_46
    8  A    between atoms: C_15  and  C_43
    9  A    between atoms: N_18  and  N_30
   10  A    between atoms: N_18  and  C_51
   11  A    between atoms: C_26  and  C_43
   12  A    between atoms: C_26  and  C_54
   13  A    between atoms: C_33  and  C_37
                            x       y       z     vdW  Elec       q    Type
                         _______ _______ _______ _____ _____    ______ ____

>  <TORSDO>
F 13

$$$$
=
 OpenBabel11042416313D

 54 59  0  0  1  0  0  0  0  0999 V2000
  189.5280  176.8720  142.1170 C   0  0  0  0  0  2  0  0  0  0  0  0
  186.9860  175.5530  141.8580 C   0  0  0  0  0  2  0  0  0  0  0  0
  189.4620  175.4250  142.6220 C   0  0  2  0  0  3  0  0  0  0  0  0
  185.9070  177.5660  142.7890 C   0  0  2  0  0  3  0  0  0  0  0  0
  186.1540  177.9420  145.2720 N   0  0  0  0  0  0  0  0  0  0  0  0
  189.7900  177.3690  145.1410 C   0  0  0  0  0  0  0  0  0  0  0  0
  187.4930  177.6660  145.6930 C   0  0  0  0  0  0  0  0  0  0  0  0
  188.6150  173.8870  140.9560 C   0  0  0  0  0  2  0  0  0  0  0  0
  187.7250  177.2250  146.9940 C   0  0  0  0  0  3  0  0  0  0  0  0
  190.0670  176.9340  146.4520 C   0  0  2  0  0  3  0  0  0  0  0  0
  188.5230  177.7420  144.8100 N   0  0  0  0  0  0  0  0  0  0  0  0
  190.6380  174.6260  142.0710 C   0  0  0  0  0  2  0  0  0  0  0  0
  190.6030  177.7200  142.8030 C   0  0  0  0  0  2  0  0  0  0  0  0
  190.0430  173.4860  141.2550 C   0  0  2  0  0  3  0  0  0  0  0  0
  188.1990  174.6810  142.1690 C   0  0  2  0  0  3  0  0  0  0  0  0
  186.4110  176.1670  143.1210 C   0  0  0  0  0  2  0  0  0  0  0  0
  189.0180  176.8730  147.3750 C   0  0  0  0  0  3  0  0  0  0  0  0
  185.8120  178.5310  143.9800 C   0  0  2  0  0  3  0  0  0  0  0  0
  190.8020  177.3750  144.1750 O   0  0  0  0  0  0  0  0  0  0  0  0
  184.5700  177.8310  143.4530 C   0  0  1  0  0  3  0  0  0  0  0  0
  190.8220  173.2170  140.0020 C   0  0  0  0  0  0  0  0  0  0  0  0
  191.4470  173.3230  137.9230 N   0  0  0  0  0  0  0  0  0  0  0  0
  192.0170  172.5350  139.9140 C   0  0  1  0  0  3  0  0  0  0  0  0
  190.4940  173.6790  138.7750 N   0  0  0  0  0  0  0  0  0  0  0  0
  192.3940  172.6400  138.5980 C   0  0  0  0  0  0  0  0  0  0  0  0
  192.7590  171.9300  140.9740 N   0  0  0  0  0  2  0  0  0  0  0  0
  192.4160  170.6480  141.5120 C   0  0  0  0  0  0  0  0  0  0  0  0
  191.5360  169.9390  140.9490 O   0  0  0  0  0  0  0  0  0  0  0  0
  193.1410  170.1360  142.7160 C   0  0  0  0  0  3  0  0  0  0  0  0
  192.9570  171.0820  143.8890 C   0  0  0  0  0  1  0  0  0  0  0  0
  194.6190  169.9630  142.4140 C   0  0  0  0  0  1  0  0  0  0  0  0
  193.6200  172.0690  137.9740 C   0  0  0  0  0  2  0  0  0  0  0  0
  193.4130  170.6000  137.6530 C   0  0  0  0  0  2  0  0  0  0  0  0
  194.0250  168.7630  139.0470 O   0  0  0  0  0  1  0  0  0  0  0  0
  194.5420  169.7670  138.2290 C   0  0  0  0  0  2  0  0  0  0  0  0
  191.6350  176.8290  148.2790 O   0  0  0  0  0  1  0  0  0  0  0  0
  191.4490  176.5640  146.9190 C   0  0  1  0  0  3  0  0  0  0  0  0
  191.8240  175.1180  146.5880 C   0  0  0  0  0  2  0  0  0  0  0  0
  192.5970  175.0060  145.2830 C   0  0  0  0  0  2  0  0  0  0  0  0
  194.1490  175.8770  145.3830 S   0  0  0  0  0  0  0  0  0  0  0  0
  193.8990  177.3560  145.2580 O   0  0  0  0  0  0  0  0  0  0  0  0
  194.7540  175.5970  146.7300 O   0  0  0  0  0  0  0  0  0  0  0  0
  196.2340  176.6920  141.3080 C   0  0  0  0  0  2  0  0  0  0  0  0
  195.2760  175.3330  144.1040 C   0  0  2  0  0  3  0  0  0  0  0  0
  194.0720  175.4690  141.8080 C   0  0  0  0  0  2  0  0  0  0  0  0
  196.9260  176.1530  142.4710 N   0  0  0  0  0  2  0  0  0  0  0  0
  196.1250  176.5150  143.6290 C   0  0  0  0  0  2  0  0  0  0  0  0
  195.2330  173.4790  142.5560 O   0  0  0  0  0  1  0  0  0  0  0  0
  194.5130  174.5940  142.9900 C   0  0  1  0  0  3  0  0  0  0  0  0
  195.1930  175.7040  140.7940 C   0  0  0  0  0  2  0  0  0  0  0  0
  183.8000  178.7320  142.6080 N   0  0  0  0  0  2  0  0  0  0  0  0
  183.8810  178.7330  140.3940 O   0  0  0  0  0  1  0  0  0  0  0  0
  183.4180  178.0270  141.4560 N   0  0  0  0  0  0  0  0  0  0  0  0
  181.6790  178.1180  141.3810 Cl  0  0  0  0  0  0  0  0  0  0  0  0
  1  3  1  0  0  0  0
  1 13  1  0  0  0  0
  2 15  1  0  0  0  0
  2 16  1  0  0  0  0
  3 12  1  6  0  0  0
  4 16  1  1  0  0  0
  4 20  1  0  0  0  0
  4 18  1  0  0  0  0
  5  7  2  0  0  0  0
  6 10  1  0  0  0  0
  7  9  1  0  0  0  0
  8 14  1  0  0  0  0
  9 17  2  0  0  0  0
 10 37  1  1  0  0  0
 10 17  1  0  0  0  0
 11  6  2  0  0  0  0
 11  7  1  0  0  0  0
 13 19  1  0  0  0  0
 14 21  1  6  0  0  0
 14 12  1  0  0  0  0
 15  8  1  6  0  0  0
 15  3  1  0  0  0  0
 18  5  1  1  0  0  0
 19  6  1  0  0  0  0
 20 51  1  6  0  0  0
 20 18  1  0  0  0  0
 22 25  2  0  0  0  0
 22 24  1  0  0  0  0
 23 21  1  0  0  0  0
 23 26  1  1  0  0  0
 24 21  2  0  0  0  0
 25 23  1  0  0  0  0
 26 27  1  0  0  0  0
 27 29  1  0  0  0  0
 28 27  2  0  0  0  0
 29 30  1  0  0  0  0
 31 29  1  0  0  0  0
 32 25  1  0  0  0  0
 33 32  1  0  0  0  0
 33 35  1  0  0  0  0
 35 34  1  0  0  0  0
 37 36  1  1  0  0  0
 38 37  1  0  0  0  0
 39 40  1  0  0  0  0
 39 38  1  0  0  0  0
 40 42  2  0  0  0  0
 41 40  2  0  0  0  0
 43 46  1  0  0  0  0
 44 40  1  1  0  0  0
 45 49  1  0  0  0  0
 46 47  1  0  0  0  0
 47 44  1  0  0  0  0
 49 48  1  6  0  0  0
 49 44  1  0  0  0  0
 50 43  1  0  0  0  0
 50 45  1  0  0  0  0
 52 53  1  0  0  0  0
 53 51  1  0  0  0  0
 54 53  1  0  0  0  0
M  END
>  <MODEL>
3

>  <REMARK>
 VINA RESULT:      -7.4      2.345      3.231
  Name = 
  13 active torsions:
  status: ('A' for Active; 'I' for Inactive)
    1  A    between atoms: C_1  and  C_39
    2  A    between atoms: S_4  and  C_20
    3  A    between atoms: S_4  and  C_27
    4  A    between atoms: C_6  and  C_27
    5  A    between atoms: C_6  and  C_37
    6  A    between atoms: C_10  and  C_47
    7  A    between atoms: C_13  and  N_46
    8  A    between atoms: C_15  and  C_43
    9  A    between atoms: N_18  and  N_30
   10  A    between atoms: N_18  and  C_51
   11  A    between atoms: C_26  and  C_43
   12  A    between atoms: C_26  and  C_54
   13  A    between atoms: C_33  and  C_37
                            x       y       z     vdW  Elec       q    Type
                         _______ _______ _______ _____ _____    ______ ____

>  <TORSDO>
F 13

$$$$
=
 OpenBabel11042416313D

 54 59  0  0  1  0  0  0  0  0999 V2000
  188.8970  172.4900  142.2880 C   0  0  0  0  0  2  0  0  0  0  0  0
  189.1490  174.0840  139.9080 C   0  0  0  0  0  2  0  0  0  0  0  0
  189.7390  173.7650  142.4150 C   0  0  2  0  0  3  0  0  0  0  0  0
  189.6440  172.0250  138.6440 C   0  0  2  0  0  3  0  0  0  0  0  0
  191.9380  171.0240  138.9570 N   0  0  0  0  0  0  0  0  0  0  0  0
  191.6850  171.2350  142.6260 C   0  0  0  0  0  0  0  0  0  0  0  0
  192.3150  171.0480  140.3370 C   0  0  0  0  0  0  0  0  0  0  0  0
  188.5590  175.7460  141.6790 C   0  0  0  0  0  2  0  0  0  0  0  0
  193.6640  171.1280  140.6790 C   0  0  0  0  0  3  0  0  0  0  0  0
  193.0400  171.3020  143.0110 C   0  0  2  0  0  3  0  0  0  0  0  0
  191.3680  171.0880  141.3100 N   0  0  0  0  0  0  0  0  0  0  0  0
  189.3140  174.5510  143.6500 C   0  0  0  0  0  2  0  0  0  0  0  0
  189.2790  171.3920  143.2860 C   0  0  0  0  0  2  0  0  0  0  0  0
  188.8410  175.9120  143.1560 C   0  0  2  0  0  3  0  0  0  0  0  0
  189.5720  174.7240  141.2280 C   0  0  2  0  0  3  0  0  0  0  0  0
  190.2660  173.2390  139.3230 C   0  0  0  0  0  2  0  0  0  0  0  0
  194.0230  171.2400  142.0200 C   0  0  0  0  0  3  0  0  0  0  0  0
  190.5710  170.8110  138.4910 C   0  0  2  0  0  3  0  0  0  0  0  0
  190.6760  171.3650  143.5860 O   0  0  0  0  0  0  0  0  0  0  0  0
  190.3190  171.7430  137.3170 C   0  0  1  0  0  3  0  0  0  0  0  0
  187.6370  176.4010  143.9030 C   0  0  0  0  0  0  0  0  0  0  0  0
  185.6310  177.1500  144.2810 N   0  0  0  0  0  0  0  0  0  0  0  0
  187.4460  176.3500  145.2680 C   0  0  1  0  0  3  0  0  0  0  0  0
  186.5210  176.8990  143.3280 N   0  0  0  0  0  0  0  0  0  0  0  0
  186.1670  176.8070  145.4690 C   0  0  0  0  0  0  0  0  0  0  0  0
  188.3420  175.8420  146.2580 N   0  0  0  0  0  2  0  0  0  0  0  0
  189.4990  176.5690  146.6860 C   0  0  0  0  0  0  0  0  0  0  0  0
  189.6730  177.7630  146.3110 O   0  0  0  0  0  0  0  0  0  0  0  0
  190.4750  175.9220  147.6160 C   0  0  0  0  0  3  0  0  0  0  0  0
  191.4130  176.9580  148.2080 C   0  0  0  0  0  1  0  0  0  0  0  0
  191.2730  174.8520  146.8910 C   0  0  0  0  0  1  0  0  0  0  0  0
  185.4680  176.9520  146.7760 C   0  0  0  0  0  2  0  0  0  0  0  0
  185.3080  178.4200  147.1270 C   0  0  0  0  0  2  0  0  0  0  0  0
  186.3400  180.2550  148.2490 O   0  0  0  0  0  1  0  0  0  0  0  0
  186.4960  178.9050  147.9340 C   0  0  0  0  0  2  0  0  0  0  0  0
  194.6070  170.6160  144.7080 O   0  0  0  0  0  1  0  0  0  0  0  0
  193.4800  171.4010  144.4470 C   0  0  1  0  0  3  0  0  0  0  0  0
  193.7020  172.8440  144.9050 C   0  0  0  0  0  2  0  0  0  0  0  0
  195.0390  173.0280  145.6060 C   0  0  0  0  0  2  0  0  0  0  0  0
  196.1770  173.9410  144.5810 S   0  0  0  0  0  0  0  0  0  0  0  0
  197.4720  174.1330  145.3220 O   0  0  0  0  0  0  0  0  0  0  0  0
  196.4390  173.1310  143.3410 O   0  0  0  0  0  0  0  0  0  0  0  0
  192.4670  176.7170  144.2040 C   0  0  0  0  0  2  0  0  0  0  0  0
  195.4930  175.5280  144.1150 C   0  0  2  0  0  3  0  0  0  0  0  0
  193.4930  175.1430  142.5050 C   0  0  0  0  0  2  0  0  0  0  0  0
  193.7540  177.1630  144.7200 N   0  0  0  0  0  2  0  0  0  0  0  0
  194.4570  175.9670  145.1540 C   0  0  0  0  0  2  0  0  0  0  0  0
  195.2990  176.6770  141.9990 O   0  0  0  0  0  1  0  0  0  0  0  0
  194.9800  175.4900  142.6650 C   0  0  1  0  0  3  0  0  0  0  0  0
  192.5760  176.3460  142.7290 C   0  0  0  0  0  2  0  0  0  0  0  0
  189.3410  171.1630  136.4090 N   0  0  0  0  0  2  0  0  0  0  0  0
  190.5590  170.9730  134.5690 O   0  0  0  0  0  1  0  0  0  0  0  0
  189.5620  171.6990  135.1310 N   0  0  0  0  0  0  0  0  0  0  0  0
  190.2030  173.3020  135.3780 Cl  0  0  0  0  0  0  0  0  0  0  0  0
  1 13  1  0  0  0  0
  3  1  1  6  0  0  0
  3 12  1  0  0  0  0
  4 16  1  1  0  0  0
  5  7  2  0  0  0  0
  6 10  1  0  0  0  0
  6 19  1  0  0  0  0
  7  9  1  0  0  0  0
  7 11  1  0  0  0  0
  8 14  1  0  0  0  0
  9 17  2  0  0  0  0
 10 37  1  1  0  0  0
 11  6  2  0  0  0  0
 13 19  1  0  0  0  0
 14 12  1  0  0  0  0
 14 21  1  1  0  0  0
 15  2  1  6  0  0  0
 15  8  1  0  0  0  0
 15  3  1  0  0  0  0
 16  2  1  0  0  0  0
 17 10  1  0  0  0  0
 18  4  1  0  0  0  0
 18  5  1  1  0  0  0
 20 51  1  6  0  0  0
 20 18  1  0  0  0  0
 20  4  1  0  0  0  0
 21 23  1  0  0  0  0
 22 25  2  0  0  0  0
 23 25  1  0  0  0  0
 23 26  1  6  0  0  0
 24 21  2  0  0  0  0
 24 22  1  0  0  0  0
 25 32  1  0  0  0  0
 26 27  1  0  0  0  0
 27 29  1  0  0  0  0
 28 27  2  0  0  0  0
 29 30  1  0  0  0  0
 31 29  1  0  0  0  0
 32 33  1  0  0  0  0
 33 35  1  0  0  0  0
 35 34  1  0  0  0  0
 37 36  1  6  0  0  0
 37 38  1  0  0  0  0
 38 39  1  0  0  0  0
 40 41  2  0  0  0  0
 40 39  1  0  0  0  0
 42 40  2  0  0  0  0
 43 46  1  0  0  0  0
 44 40  1  1  0  0  0
 44 47  1  0  0  0  0
 45 49  1  0  0  0  0
 45 50  1  0  0  0  0
 46 47  1  0  0  0  0
 49 48  1  1  0  0  0
 49 44  1  0  0  0  0
 50 43  1  0  0  0  0
 52 53  1  0  0  0  0
 53 54  1  0  0  0  0
 53 51  1  0  0  0  0
M  END
>  <MODEL>
4

>  <REMARK>
 VINA RESULT:      -7.3      2.699      8.130
  Name = 
  13 active torsions:
  status: ('A' for Active; 'I' for Inactive)
    1  A    between atoms: C_1  and  C_39
    2  A    between atoms: S_4  and  C_20
    3  A    between atoms: S_4  and  C_27
    4  A    between atoms: C_6  and  C_27
    5  A    between atoms: C_6  and  C_37
    6  A    between atoms: C_10  and  C_47
    7  A    between atoms: C_13  and  N_46
    8  A    between atoms: C_15  and  C_43
    9  A    between atoms: N_18  and  N_30
   10  A    between atoms: N_18  and  C_51
   11  A    between atoms: C_26  and  C_43
   12  A    between atoms: C_26  and  C_54
   13  A    between atoms: C_33  and  C_37
                            x       y       z     vdW  Elec       q    Type
                         _______ _______ _______ _____ _____    ______ ____

>  <TORSDO>
F 13

$$$$
=
 OpenBabel11042416313D

 54 59  0  0  1  0  0  0  0  0999 V2000
  189.7630  175.0680  143.9960 C   0  0  0  0  0  2  0  0  0  0  0  0
  189.8160  177.9190  144.3720 C   0  0  0  0  0  2  0  0  0  0  0  0
  190.6960  175.8550  143.0680 C   0  0  2  0  0  3  0  0  0  0  0  0
  187.3510  177.9030  144.4350 C   0  0  2  0  0  3  0  0  0  0  0  0
  186.1600  177.5970  142.2320 N   0  0  0  0  0  2  0  0  0  0  0  0
  188.2630  174.7090  141.3350 C   0  0  0  0  0  0  0  0  0  0  0  0
  186.7980  176.5830  141.4510 C   0  0  0  0  0  0  0  0  0  0  0  0
  192.2320  177.2860  144.2730 C   0  0  0  0  0  2  0  0  0  0  0  0
  186.7330  176.6460  140.0600 C   0  0  0  0  0  3  0  0  0  0  0  0
  188.2080  174.7310  139.9270 C   0  0  0  0  0  0  0  0  0  0  0  0
  187.5420  175.6160  142.0500 N   0  0  0  0  0  0  0  0  0  0  0  0
  192.0740  175.2040  143.0380 C   0  0  0  0  0  2  0  0  0  0  0  0
  189.2750  173.7410  143.4060 C   0  0  0  0  0  2  0  0  0  0  0  0
  193.0590  176.2520  143.5410 C   0  0  2  0  0  3  0  0  0  0  0  0
  190.9240  177.3030  143.5220 C   0  0  2  0  0  3  0  0  0  0  0  0
  188.5640  178.1650  143.5510 C   0  0  0  0  0  2  0  0  0  0  0  0
  187.4290  175.7080  139.3000 C   0  0  0  0  0  3  0  0  0  0  0  0
  186.0550  177.5560  143.6880 C   0  0  2  0  0  3  0  0  0  0  0  0
  189.0890  173.7890  141.9910 O   0  0  0  0  0  0  0  0  0  0  0  0
  186.2870  178.9610  144.2200 C   0  0  1  0  0  3  0  0  0  0  0  0
  194.1180  175.6590  144.4200 C   0  0  0  0  0  0  0  0  0  0  0  0
  195.0680  174.7840  146.1690 N   0  0  0  0  0  0  0  0  0  0  0  0
  195.3720  175.2450  144.0230 C   0  0  0  0  0  0  0  0  0  0  0  0
  193.9630  175.3740  145.7320 N   0  0  0  0  0  2  0  0  0  0  0  0
  195.9340  174.6790  145.1410 C   0  0  0  0  0  0  0  0  0  0  0  0
  195.9370  175.2990  142.7120 N   0  0  0  0  0  2  0  0  0  0  0  0
  195.8300  174.2100  141.7890 C   0  0  0  0  0  0  0  0  0  0  0  0
  195.0860  173.2240  142.0550 O   0  0  0  0  0  0  0  0  0  0  0  0
  196.5660  174.2700  140.4890 C   0  0  0  0  0  3  0  0  0  0  0  0
  197.6910  173.2500  140.4680 C   0  0  0  0  0  1  0  0  0  0  0  0
  197.1240  175.6640  140.2560 C   0  0  0  0  0  1  0  0  0  0  0  0
  197.2920  174.0750  145.2470 C   0  0  0  0  0  2  0  0  0  0  0  0
  197.1940  172.6460  145.7510 C   0  0  0  0  0  2  0  0  0  0  0  0
  197.5330  170.4240  144.9520 O   0  0  0  0  0  1  0  0  0  0  0  0
  197.0550  171.6830  144.5880 C   0  0  0  0  0  2  0  0  0  0  0  0
  188.3580  172.4520  139.1580 O   0  0  0  0  0  1  0  0  0  0  0  0
  188.9230  173.7270  139.0620 C   0  0  1  0  0  3  0  0  0  0  0  0
  189.0320  174.1680  137.6020 C   0  0  0  0  0  2  0  0  0  0  0  0
  189.4310  173.0250  136.6810 C   0  0  0  0  0  2  0  0  0  0  0  0
  191.2000  172.8070  136.6630 S   0  0  0  0  0  0  0  0  0  0  0  0
  191.5680  171.6490  137.5500 O   0  0  0  0  0  0  0  0  0  0  0  0
  191.6160  172.4930  135.2530 O   0  0  0  0  0  0  0  0  0  0  0  0
  194.4620  176.0340  135.9210 C   0  0  0  0  0  2  0  0  0  0  0  0
  192.0370  174.2920  137.2090 C   0  0  2  0  0  3  0  0  0  0  0  0
  194.5970  173.8600  137.2140 C   0  0  0  0  0  2  0  0  0  0  0  0
  193.1170  176.3450  136.3840 N   0  0  0  0  0  2  0  0  0  0  0  0
  192.2850  175.2120  136.0120 C   0  0  0  0  0  2  0  0  0  0  0  0
  193.4260  174.7860  139.1230 O   0  0  0  0  0  1  0  0  0  0  0  0
  193.2940  173.9340  138.0230 C   0  0  1  0  0  3  0  0  0  0  0  0
  195.2240  175.2340  136.9720 C   0  0  0  0  0  2  0  0  0  0  0  0
  185.5640  179.1570  145.4680 N   0  0  0  0  0  2  0  0  0  0  0  0
  184.4260  177.5680  146.5110 O   0  0  0  0  0  1  0  0  0  0  0  0
  185.6860  177.9840  146.2300 N   0  0  0  0  0  0  0  0  0  0  0  0
  186.3950  178.4590  147.7500 Cl  0  0  0  0  0  0  0  0  0  0  0  0
  3 12  1  1  0  0  0
  3 15  1  0  0  0  0
  3  1  1  0  0  0  0
  4 16  1  6  0  0  0
  6 19  1  0  0  0  0
  6 11  2  0  0  0  0
  7 11  1  0  0  0  0
  7  5  1  0  0  0  0
  9  7  2  0  0  0  0
 10  6  1  0  0  0  0
 12 14  1  0  0  0  0
 13  1  1  0  0  0  0
 14  8  1  0  0  0  0
 14 21  1  1  0  0  0
 15  8  1  1  0  0  0
 15  2  1  0  0  0  0
 16  2  1  0  0  0  0
 17 10  2  0  0  0  0
 17  9  1  0  0  0  0
 18  5  1  6  0  0  0
 18 20  1  0  0  0  0
 18  4  1  0  0  0  0
 19 13  1  0  0  0  0
 20  4  1  0  0  0  0
 20 51  1  1  0  0  0
 21 24  1  0  0  0  0
 23 21  2  0  0  0  0
 23 25  1  0  0  0  0
 24 22  1  0  0  0  0
 25 32  1  0  0  0  0
 25 22  2  0  0  0  0
 26 23  1  0  0  0  0
 27 28  2  0  0  0  0
 27 26  1  0  0  0  0
 29 27  1  0  0  0  0
 30 29  1  0  0  0  0
 31 29  1  0  0  0  0
 32 33  1  0  0  0  0
 35 34  1  0  0  0  0
 35 33  1  0  0  0  0
 37 36  1  6  0  0  0
 37 10  1  0  0  0  0
 38 37  1  0  0  0  0
 39 38  1  0  0  0  0
 40 39  1  0  0  0  0
 40 41  2  0  0  0  0
 42 40  2  0  0  0  0
 43 46  1  0  0  0  0
 43 50  1  0  0  0  0
 44 40  1  6  0  0  0
 44 49  1  0  0  0  0
 45 49  1  0  0  0  0
 47 46  1  0  0  0  0
 47 44  1  0  0  0  0
 49 48  1  1  0  0  0
 50 45  1  0  0  0  0
 51 53  1  0  0  0  0
 53 52  1  0  0  0  0
 53 54  1  0  0  0  0
M  END
>  <MODEL>
5

>  <REMARK>
 VINA RESULT:      -7.2      2.906      7.041
  Name = 
  13 active torsions:
  status: ('A' for Active; 'I' for Inactive)
    1  A    between atoms: C_1  and  C_39
    2  A    between atoms: S_4  and  C_20
    3  A    between atoms: S_4  and  C_27
    4  A    between atoms: C_6  and  C_27
    5  A    between atoms: C_6  and  C_37
    6  A    between atoms: C_10  and  C_47
    7  A    between atoms: C_13  and  N_46
    8  A    between atoms: C_15  and  C_43
    9  A    between atoms: N_18  and  N_30
   10  A    between atoms: N_18  and  C_51
   11  A    between atoms: C_26  and  C_43
   12  A    between atoms: C_26  and  C_54
   13  A    between atoms: C_33  and  C_37
                            x       y       z     vdW  Elec       q    Type
                         _______ _______ _______ _____ _____    ______ ____

>  <TORSDO>
F 13

$$$$
=
 OpenBabel11042416313D

 54 59  0  0  1  0  0  0  0  0999 V2000
  189.9490  174.9370  143.3490 C   0  0  0  0  0  2  0  0  0  0  0  0
  190.0300  177.7480  143.9520 C   0  0  0  0  0  2  0  0  0  0  0  0
  190.7780  175.8090  142.3980 C   0  0  2  0  0  3  0  0  0  0  0  0
  187.5840  177.6970  144.2640 C   0  0  2  0  0  3  0  0  0  0  0  0
  186.1750  177.5590  142.1760 N   0  0  0  0  0  2  0  0  0  0  0  0
  188.1860  174.7800  140.8330 C   0  0  0  0  0  0  0  0  0  0  0  0
  186.7340  176.6200  141.2520 C   0  0  0  0  0  0  0  0  0  0  0  0
  192.4250  177.1540  143.5560 C   0  0  0  0  0  2  0  0  0  0  0  0
  186.5260  176.7970  139.8850 C   0  0  0  0  0  3  0  0  0  0  0  0
  187.9870  174.9170  139.4440 C   0  0  0  0  0  0  0  0  0  0  0  0
  187.5380  175.6170  141.6900 N   0  0  0  0  0  0  0  0  0  0  0  0
  192.1490  175.1800  142.1750 C   0  0  0  0  0  2  0  0  0  0  0  0
  189.4070  173.6580  142.7030 C   0  0  0  0  0  2  0  0  0  0  0  0
  193.1760  176.1940  142.6600 C   0  0  2  0  0  3  0  0  0  0  0  0
  191.0470  177.2180  142.9450 C   0  0  2  0  0  3  0  0  0  0  0  0
  188.6990  178.0450  143.2860 C   0  0  0  0  0  2  0  0  0  0  0  0
  187.1440  175.9320  138.9840 C   0  0  0  0  0  3  0  0  0  0  0  0
  186.2200  177.3980  143.6260 C   0  0  2  0  0  3  0  0  0  0  0  0
  189.0780  173.8190  141.3230 O   0  0  0  0  0  0  0  0  0  0  0  0
  186.5000  178.7570  144.2470 C   0  0  1  0  0  3  0  0  0  0  0  0
  194.3220  175.5440  143.3750 C   0  0  0  0  0  0  0  0  0  0  0  0
  196.3520  174.9170  143.8360 N   0  0  0  0  0  0  0  0  0  0  0  0
  194.2870  174.9820  144.6350 C   0  0  1  0  0  3  0  0  0  0  0  0
  195.5890  175.4840  142.9090 N   0  0  0  0  0  0  0  0  0  0  0  0
  195.5840  174.6190  144.9020 C   0  0  0  0  0  0  0  0  0  0  0  0
  193.1680  174.8840  145.5180 N   0  0  0  0  0  2  0  0  0  0  0  0
  192.9860  175.7770  146.6220 C   0  0  0  0  0  0  0  0  0  0  0  0
  193.7330  176.7880  146.7500 O   0  0  0  0  0  0  0  0  0  0  0  0
  191.8760  175.5310  147.5930 C   0  0  0  0  0  3  0  0  0  0  0  0
  190.6330  175.0500  146.8680 C   0  0  0  0  0  1  0  0  0  0  0  0
  191.5650  176.7950  148.3770 C   0  0  0  0  0  1  0  0  0  0  0  0
  196.0880  173.9640  146.1410 C   0  0  0  0  0  2  0  0  0  0  0  0
  197.0730  172.8640  145.7910 C   0  0  0  0  0  2  0  0  0  0  0  0
  196.6350  170.9510  144.4340 O   0  0  0  0  0  1  0  0  0  0  0  0
  196.3600  171.5310  145.6720 C   0  0  0  0  0  2  0  0  0  0  0  0
  188.3580  174.4050  137.1190 O   0  0  0  0  0  1  0  0  0  0  0  0
  188.6130  173.9960  138.4310 C   0  0  1  0  0  3  0  0  0  0  0  0
  190.1120  173.7910  138.6580 C   0  0  0  0  0  2  0  0  0  0  0  0
  190.7270  172.8500  137.6330 C   0  0  0  0  0  2  0  0  0  0  0  0
  191.0450  171.2470  138.3480 S   0  0  0  0  0  0  0  0  0  0  0  0
  189.8490  170.3590  138.1310 O   0  0  0  0  0  0  0  0  0  0  0  0
  192.2310  170.6500  137.6430 O   0  0  0  0  0  0  0  0  0  0  0  0
  193.9930  170.5290  141.8690 C   0  0  0  0  0  2  0  0  0  0  0  0
  191.4030  171.3810  140.0960 C   0  0  2  0  0  3  0  0  0  0  0  0
  192.1320  169.0540  140.9860 C   0  0  0  0  0  2  0  0  0  0  0  0
  193.2380  171.7610  141.6940 N   0  0  0  0  0  2  0  0  0  0  0  0
  192.8590  171.8130  140.2910 C   0  0  0  0  0  2  0  0  0  0  0  0
  190.4120  170.3800  142.0580 O   0  0  0  0  0  1  0  0  0  0  0  0
  191.0070  170.0870  140.8290 C   0  0  1  0  0  3  0  0  0  0  0  0
  193.0580  169.3600  142.1640 C   0  0  0  0  0  2  0  0  0  0  0  0
  185.9080  178.8410  145.5740 N   0  0  0  0  0  2  0  0  0  0  0  0
  183.7520  178.6800  146.0550 O   0  0  0  0  0  1  0  0  0  0  0  0
  184.8160  177.9600  145.6190 N   0  0  0  0  0  0  0  0  0  0  0  0
  185.1710  176.8030  146.8730 Cl  0  0  0  0  0  0  0  0  0  0  0  0
  3 12  1  1  0  0  0
  3 15  1  0  0  0  0
  3  1  1  0  0  0  0
  4 16  1  6  0  0  0
  6 19  1  0  0  0  0
  6 11  2  0  0  0  0
  7 11  1  0  0  0  0
  7  5  1  0  0  0  0
  9  7  2  0  0  0  0
 10  6  1  0  0  0  0
 12 14  1  0  0  0  0
 13  1  1  0  0  0  0
 14 21  1  1  0  0  0
 14  8  1  0  0  0  0
 15  8  1  1  0  0  0
 15  2  1  0  0  0  0
 16  2  1  0  0  0  0
 17 10  2  0  0  0  0
 17  9  1  0  0  0  0
 18  5  1  6  0  0  0
 18 20  1  0  0  0  0
 18  4  1  0  0  0  0
 19 13  1  0  0  0  0
 20  4  1  0  0  0  0
 20 51  1  1  0  0  0
 21 23  1  0  0  0  0
 22 25  2  0  0  0  0
 23 25  1  0  0  0  0
 23 26  1  1  0  0  0
 24 21  2  0  0  0  0
 24 22  1  0  0  0  0
 25 32  1  0  0  0  0
 26 27  1  0  0  0  0
 27 28  2  0  0  0  0
 27 29  1  0  0  0  0
 29 31  1  0  0  0  0
 30 29  1  0  0  0  0
 33 32  1  0  0  0  0
 34 35  1  0  0  0  0
 35 33  1  0  0  0  0
 37 36  1  6  0  0  0
 37 38  1  0  0  0  0
 37 10  1  0  0  0  0
 39 40  1  0  0  0  0
 39 38  1  0  0  0  0
 41 40  2  0  0  0  0
 42 40  2  0  0  0  0
 43 50  1  0  0  0  0
 44 40  1  6  0  0  0
 44 47  1  0  0  0  0
 44 49  1  0  0  0  0
 45 50  1  0  0  0  0
 46 43  1  0  0  0  0
 47 46  1  0  0  0  0
 49 45  1  0  0  0  0
 49 48  1  1  0  0  0
 51 53  1  0  0  0  0
 53 52  1  0  0  0  0
 53 54  1  0  0  0  0
M  END
>  <MODEL>
6

>  <REMARK>
 VINA RESULT:      -7.2      2.341      7.286
  Name = 
  13 active torsions:
  status: ('A' for Active; 'I' for Inactive)
    1  A    between atoms: C_1  and  C_39
    2  A    between atoms: S_4  and  C_20
    3  A    between atoms: S_4  and  C_27
    4  A    between atoms: C_6  and  C_27
    5  A    between atoms: C_6  and  C_37
    6  A    between atoms: C_10  and  C_47
    7  A    between atoms: C_13  and  N_46
    8  A    between atoms: C_15  and  C_43
    9  A    between atoms: N_18  and  N_30
   10  A    between atoms: N_18  and  C_51
   11  A    between atoms: C_26  and  C_43
   12  A    between atoms: C_26  and  C_54
   13  A    between atoms: C_33  and  C_37
                            x       y       z     vdW  Elec       q    Type
                         _______ _______ _______ _____ _____    ______ ____

>  <TORSDO>
F 13

$$$$
=
 OpenBabel11042416313D

 54 59  0  0  1  0  0  0  0  0999 V2000
  190.7130  174.8300  142.0080 C   0  0  0  0  0  2  0  0  0  0  0  0
  187.8970  174.2530  142.0700 C   0  0  0  0  0  2  0  0  0  0  0  0
  190.2620  173.7730  143.0230 C   0  0  2  0  0  3  0  0  0  0  0  0
  187.4530  176.6790  142.0640 C   0  0  2  0  0  3  0  0  0  0  0  0
  187.8730  177.9150  144.2230 N   0  0  0  0  0  0  0  0  0  0  0  0
  191.1990  176.3820  144.6190 C   0  0  0  0  0  0  0  0  0  0  0  0
  189.0950  177.4770  144.8250 C   0  0  0  0  0  0  0  0  0  0  0  0
  188.9670  171.9950  142.0130 C   0  0  0  0  0  2  0  0  0  0  0  0
  189.2360  177.5360  146.2110 C   0  0  0  0  0  3  0  0  0  0  0  0
  191.3850  176.4380  146.0150 C   0  0  2  0  0  3  0  0  0  0  0  0
  190.0760  176.9210  144.0680 N   0  0  0  0  0  0  0  0  0  0  0  0
  191.1500  172.5380  142.9200 C   0  0  0  0  0  2  0  0  0  0  0  0
  192.0040  175.5570  142.4010 C   0  0  0  0  0  2  0  0  0  0  0  0
  190.2340  171.3750  142.5580 C   0  0  2  0  0  3  0  0  0  0  0  0
  188.8270  173.2800  142.7890 C   0  0  2  0  0  3  0  0  0  0  0  0
  187.5560  175.4420  142.9480 C   0  0  0  0  0  2  0  0  0  0  0  0
  190.3910  177.0270  146.8010 C   0  0  0  0  0  3  0  0  0  0  0  0
  187.6690  178.0190  142.7810 C   0  0  2  0  0  3  0  0  0  0  0  0
  192.1420  175.7360  143.8110 O   0  0  0  0  0  0  0  0  0  0  0  0
  186.2650  177.5310  142.4640 C   0  0  1  0  0  3  0  0  0  0  0  0
  190.8670  170.4390  141.5730 C   0  0  0  0  0  0  0  0  0  0  0  0
  191.8990  168.6960  140.7830 N   0  0  0  0  0  0  0  0  0  0  0  0
  190.7790  170.5170  140.1990 C   0  0  0  0  0  0  0  0  0  0  0  0
  191.5610  169.3260  141.9010 N   0  0  0  0  0  2  0  0  0  0  0  0
  191.4190  169.3940  139.7340 C   0  0  0  0  0  0  0  0  0  0  0  0
  190.0900  171.4960  139.4200 N   0  0  0  0  0  2  0  0  0  0  0  0
  190.6890  172.7470  139.0640 C   0  0  0  0  0  0  0  0  0  0  0  0
  191.9140  172.9530  139.2950 O   0  0  0  0  0  0  0  0  0  0  0  0
  189.8660  173.7880  138.3740 C   0  0  0  0  0  3  0  0  0  0  0  0
  188.3860  173.5020  138.5570 C   0  0  0  0  0  1  0  0  0  0  0  0
  190.2070  173.8430  136.8950 C   0  0  0  0  0  1  0  0  0  0  0  0
  191.6060  169.0010  138.3100 C   0  0  0  0  0  2  0  0  0  0  0  0
  193.0840  168.9060  137.9800 C   0  0  0  0  0  2  0  0  0  0  0  0
  194.7710  170.1540  139.1160 O   0  0  0  0  0  1  0  0  0  0  0  0
  193.7560  170.2530  138.1640 C   0  0  0  0  0  2  0  0  0  0  0  0
  192.6400  174.5280  146.7790 O   0  0  0  0  0  1  0  0  0  0  0  0
  192.6230  175.9230  146.6990 C   0  0  1  0  0  3  0  0  0  0  0  0
  193.9140  176.4500  146.0710 C   0  0  0  0  0  2  0  0  0  0  0  0
  195.0420  175.4310  146.1290 C   0  0  0  0  0  2  0  0  0  0  0  0
  195.6930  175.1040  144.5020 S   0  0  0  0  0  0  0  0  0  0  0  0
  195.4140  176.2820  143.6080 O   0  0  0  0  0  0  0  0  0  0  0  0
  197.1810  174.9250  144.6230 O   0  0  0  0  0  0  0  0  0  0  0  0
  196.0640  170.5640  143.5730 C   0  0  0  0  0  2  0  0  0  0  0  0
  194.9740  173.6200  143.8070 C   0  0  2  0  0  3  0  0  0  0  0  0
  196.6640  172.5660  142.1420 C   0  0  0  0  0  2  0  0  0  0  0  0
  194.8560  171.1780  144.1050 N   0  0  0  0  0  2  0  0  0  0  0  0
  195.2690  172.4280  144.7220 C   0  0  0  0  0  2  0  0  0  0  0  0
  194.3510  172.9920  141.5590 O   0  0  0  0  0  1  0  0  0  0  0  0
  195.4170  173.4390  142.3440 C   0  0  1  0  0  3  0  0  0  0  0  0
  196.3500  171.0700  142.1630 C   0  0  0  0  0  2  0  0  0  0  0  0
  185.7510  178.2000  141.2780 N   0  0  0  0  0  2  0  0  0  0  0  0
  183.8570  178.8330  140.3190 O   0  0  0  0  0  1  0  0  0  0  0  0
  184.3760  177.9320  141.1900 N   0  0  0  0  0  0  0  0  0  0  0  0
  183.7010  178.3170  142.7510 Cl  0  0  0  0  0  0  0  0  0  0  0  0
  1 13  1  0  0  0  0
  2 15  1  0  0  0  0
  2 16  1  0  0  0  0
  3  1  1  6  0  0  0
  4 20  1  0  0  0  0
  4 18  1  0  0  0  0
  4 16  1  1  0  0  0
  5  7  2  0  0  0  0
  6 10  1  0  0  0  0
  7  9  1  0  0  0  0
  8 14  1  0  0  0  0
  9 17  2  0  0  0  0
 10 37  1  6  0  0  0
 10 17  1  0  0  0  0
 11  6  2  0  0  0  0
 11  7  1  0  0  0  0
 12  3  1  0  0  0  0
 13 19  1  0  0  0  0
 14 21  1  6  0  0  0
 14 12  1  0  0  0  0
 15  8  1  6  0  0  0
 15  3  1  0  0  0  0
 18  5  1  1  0  0  0
 19  6  1  0  0  0  0
 20 51  1  6  0  0  0
 20 18  1  0  0  0  0
 21 24  1  0  0  0  0
 22 24  1  0  0  0  0
 23 21  2  0  0  0  0
 25 23  1  0  0  0  0
 25 22  2  0  0  0  0
 26 23  1  0  0  0  0
 27 28  2  0  0  0  0
 27 26  1  0  0  0  0
 29 30  1  0  0  0  0
 29 27  1  0  0  0  0
 31 29  1  0  0  0  0
 32 25  1  0  0  0  0
 33 35  1  0  0  0  0
 33 32  1  0  0  0  0
 35 34  1  0  0  0  0
 37 36  1  6  0  0  0
 38 39  1  0  0  0  0
 38 37  1  0  0  0  0
 40 42  2  0  0  0  0
 40 39  1  0  0  0  0
 41 40  2  0  0  0  0
 43 46  1  0  0  0  0
 44 40  1  1  0  0  0
 44 47  1  0  0  0  0
 45 50  1  0  0  0  0
 45 49  1  0  0  0  0
 46 47  1  0  0  0  0
 49 48  1  6  0  0  0
 49 44  1  0  0  0  0
 50 43  1  0  0  0  0
 52 53  1  0  0  0  0
 53 51  1  0  0  0  0
 53 54  1  0  0  0  0
M  END
>  <MODEL>
7

>  <REMARK>
 VINA RESULT:      -7.1      2.483      3.808
  Name = 
  13 active torsions:
  status: ('A' for Active; 'I' for Inactive)
    1  A    between atoms: C_1  and  C_39
    2  A    between atoms: S_4  and  C_20
    3  A    between atoms: S_4  and  C_27
    4  A    between atoms: C_6  and  C_27
    5  A    between atoms: C_6  and  C_37
    6  A    between atoms: C_10  and  C_47
    7  A    between atoms: C_13  and  N_46
    8  A    between atoms: C_15  and  C_43
    9  A    between atoms: N_18  and  N_30
   10  A    between atoms: N_18  and  C_51
   11  A    between atoms: C_26  and  C_43
   12  A    between atoms: C_26  and  C_54
   13  A    between atoms: C_33  and  C_37
                            x       y       z     vdW  Elec       q    Type
                         _______ _______ _______ _____ _____    ______ ____

>  <TORSDO>
F 13

$$$$
=
 OpenBabel11042416313D

 54 59  0  0  1  0  0  0  0  0999 V2000
  190.1120  176.7630  142.6920 C   0  0  0  0  0  2  0  0  0  0  0  0
  187.5650  175.7770  143.5930 C   0  0  0  0  0  2  0  0  0  0  0  0
  189.9920  175.2420  142.8460 C   0  0  2  0  0  3  0  0  0  0  0  0
  187.5730  177.5130  145.3450 C   0  0  2  0  0  3  0  0  0  0  0  0
  189.1080  177.1340  147.3110 N   0  0  0  0  0  0  0  0  0  0  0  0
  191.9580  176.3440  145.1160 C   0  0  0  0  0  0  0  0  0  0  0  0
  190.3780  176.6450  146.8720 C   0  0  0  0  0  0  0  0  0  0  0  0
  188.1080  174.3210  141.6350 C   0  0  0  0  0  2  0  0  0  0  0  0
  191.1290  175.8300  147.7180 C   0  0  0  0  0  3  0  0  0  0  0  0
  192.7520  175.5270  145.9460 C   0  0  2  0  0  3  0  0  0  0  0  0
  190.8140  176.8930  145.6090 N   0  0  0  0  0  0  0  0  0  0  0  0
  190.5230  174.5470  141.5970 C   0  0  0  0  0  2  0  0  0  0  0  0
  191.5420  177.2910  142.8400 C   0  0  0  0  0  2  0  0  0  0  0  0
  189.3650  173.7420  141.0230 C   0  0  2  0  0  3  0  0  0  0  0  0
  188.5440  174.7610  143.0110 C   0  0  2  0  0  3  0  0  0  0  0  0
  187.8530  176.0420  145.0590 C   0  0  0  0  0  2  0  0  0  0  0  0
  192.3240  175.2840  147.2550 C   0  0  0  0  0  3  0  0  0  0  0  0
  188.3030  178.0960  146.5630 C   0  0  2  0  0  3  0  0  0  0  0  0
  192.3210  176.5490  143.7800 O   0  0  0  0  0  0  0  0  0  0  0  0
  186.8460  177.6770  146.6650 C   0  0  1  0  0  3  0  0  0  0  0  0
  189.3280  173.7870  139.5250 C   0  0  0  0  0  0  0  0  0  0  0  0
  188.6270  174.2020  137.5100 N   0  0  0  0  0  0  0  0  0  0  0  0
  190.3670  173.4750  138.6730 C   0  0  0  0  0  0  0  0  0  0  0  0
  188.2800  174.2180  138.7910 N   0  0  0  0  0  2  0  0  0  0  0  0
  189.9000  173.7690  137.4160 C   0  0  0  0  0  0  0  0  0  0  0  0
  191.6810  173.0350  139.0200 N   0  0  0  0  0  2  0  0  0  0  0  0
  191.9580  171.6820  139.3990 C   0  0  0  0  0  0  0  0  0  0  0  0
  191.0660  170.7940  139.2790 O   0  0  0  0  0  0  0  0  0  0  0  0
  193.3220  171.3180  139.8900 C   0  0  0  0  0  3  0  0  0  0  0  0
  193.6550  172.0910  141.1540 C   0  0  0  0  0  1  0  0  0  0  0  0
  194.3650  171.5950  138.8220 C   0  0  0  0  0  1  0  0  0  0  0  0
  190.6380  173.6090  136.1320 C   0  0  0  0  0  2  0  0  0  0  0  0
  190.0120  172.5060  135.2990 C   0  0  0  0  0  2  0  0  0  0  0  0
  189.6950  170.4130  136.4000 O   0  0  0  0  0  1  0  0  0  0  0  0
  190.6120  171.1610  135.6620 C   0  0  0  0  0  2  0  0  0  0  0  0
  195.1570  175.6680  145.9620 O   0  0  0  0  0  1  0  0  0  0  0  0
  194.0610  174.9320  145.5020 C   0  0  1  0  0  3  0  0  0  0  0  0
  194.2010  173.4550  145.8720 C   0  0  0  0  0  2  0  0  0  0  0  0
  194.3680  172.5660  144.6490 C   0  0  0  0  0  2  0  0  0  0  0  0
  196.0410  171.9620  144.5220 S   0  0  0  0  0  0  0  0  0  0  0  0
  196.6050  172.3380  143.1790 O   0  0  0  0  0  0  0  0  0  0  0  0
  196.8570  172.6240  145.5970 O   0  0  0  0  0  0  0  0  0  0  0  0
  194.4810  168.1700  146.7120 C   0  0  0  0  0  2  0  0  0  0  0  0
  196.1030  170.1870  144.7420 C   0  0  2  0  0  3  0  0  0  0  0  0
  196.4510  169.6640  147.2610 C   0  0  0  0  0  2  0  0  0  0  0  0
  194.7040  168.2310  145.2740 N   0  0  0  0  0  2  0  0  0  0  0  0
  194.6840  169.6410  144.9170 C   0  0  0  0  0  2  0  0  0  0  0  0
  197.8280  168.6870  145.5230 O   0  0  0  0  0  1  0  0  0  0  0  0
  197.0830  169.8170  145.8700 C   0  0  1  0  0  3  0  0  0  0  0  0
  195.7990  168.2960  147.4690 C   0  0  0  0  0  2  0  0  0  0  0  0
  185.9760  178.8400  146.5760 N   0  0  0  0  0  2  0  0  0  0  0  0
  184.6830  177.0430  146.5270 O   0  0  0  0  0  1  0  0  0  0  0  0
  184.6460  178.3950  146.6320 N   0  0  0  0  0  0  0  0  0  0  0  0
  183.8740  178.9770  145.1820 Cl  0  0  0  0  0  0  0  0  0  0  0  0
  1 13  1  0  0  0  0
  1  3  1  0  0  0  0
  2 16  1  0  0  0  0
  3 12  1  6  0  0  0
  3 15  1  0  0  0  0
  4 16  1  1  0  0  0
  4 18  1  0  0  0  0
  4 20  1  0  0  0  0
  6 11  2  0  0  0  0
  6 10  1  0  0  0  0
  7  5  2  0  0  0  0
  7  9  1  0  0  0  0
 10 37  1  1  0  0  0
 10 17  1  0  0  0  0
 11  7  1  0  0  0  0
 13 19  1  0  0  0  0
 14 21  1  6  0  0  0
 14 12  1  0  0  0  0
 14  8  1  0  0  0  0
 15  8  1  6  0  0  0
 15  2  1  0  0  0  0
 17  9  2  0  0  0  0
 18 20  1  0  0  0  0
 18  5  1  1  0  0  0
 19  6  1  0  0  0  0
 20 51  1  6  0  0  0
 22 24  1  0  0  0  0
 23 26  1  0  0  0  0
 23 21  2  0  0  0  0
 24 21  1  0  0  0  0
 25 22  2  0  0  0  0
 25 23  1  0  0  0  0
 26 27  1  0  0  0  0
 27 29  1  0  0  0  0
 28 27  2  0  0  0  0
 29 30  1  0  0  0  0
 31 29  1  0  0  0  0
 32 25  1  0  0  0  0
 33 35  1  0  0  0  0
 33 32  1  0  0  0  0
 35 34  1  0  0  0  0
 37 38  1  0  0  0  0
 37 36  1  1  0  0  0
 39 38  1  0  0  0  0
 40 39  1  0  0  0  0
 40 42  2  0  0  0  0
 41 40  2  0  0  0  0
 43 50  1  0  0  0  0
 44 40  1  1  0  0  0
 44 47  1  0  0  0  0
 44 49  1  0  0  0  0
 45 50  1  0  0  0  0
 46 43  1  0  0  0  0
 47 46  1  0  0  0  0
 49 48  1  6  0  0  0
 49 45  1  0  0  0  0
 51 53  1  0  0  0  0
 52 53  1  0  0  0  0
 54 53  1  0  0  0  0
M  END
>  <MODEL>
8

>  <REMARK>
 VINA RESULT:      -6.9      1.982      3.097
  Name = 
  13 active torsions:
  status: ('A' for Active; 'I' for Inactive)
    1  A    between atoms: C_1  and  C_39
    2  A    between atoms: S_4  and  C_20
    3  A    between atoms: S_4  and  C_27
    4  A    between atoms: C_6  and  C_27
    5  A    between atoms: C_6  and  C_37
    6  A    between atoms: C_10  and  C_47
    7  A    between atoms: C_13  and  N_46
    8  A    between atoms: C_15  and  C_43
    9  A    between atoms: N_18  and  N_30
   10  A    between atoms: N_18  and  C_51
   11  A    between atoms: C_26  and  C_43
   12  A    between atoms: C_26  and  C_54
   13  A    between atoms: C_33  and  C_37
                            x       y       z     vdW  Elec       q    Type
                         _______ _______ _______ _____ _____    ______ ____

>  <TORSDO>
F 13

$$$$
=
 OpenBabel11042416313D

 54 59  0  0  1  0  0  0  0  0999 V2000
  194.0470  174.9250  143.7660 C   0  0  0  0  0  2  0  0  0  0  0  0
  193.1240  172.2560  144.3070 C   0  0  0  0  0  2  0  0  0  0  0  0
  193.2740  174.2350  142.6350 C   0  0  2  0  0  3  0  0  0  0  0  0
  195.3590  171.7230  145.2040 C   0  0  2  0  0  3  0  0  0  0  0  0
  197.2110  171.4020  143.5200 N   0  0  0  0  0  2  0  0  0  0  0  0
  196.3370  174.5140  141.7540 C   0  0  0  0  0  0  0  0  0  0  0  0
  197.1400  172.3990  142.4970 C   0  0  0  0  0  0  0  0  0  0  0  0
  191.1180  173.3960  143.3470 C   0  0  0  0  0  2  0  0  0  0  0  0
  197.6150  172.1050  141.2190 C   0  0  0  0  0  3  0  0  0  0  0  0
  196.8180  174.2600  140.4540 C   0  0  0  0  0  0  0  0  0  0  0  0
  196.5320  173.5900  142.7350 N   0  0  0  0  0  0  0  0  0  0  0  0
  192.1980  175.1670  142.0910 C   0  0  0  0  0  2  0  0  0  0  0  0
  195.0280  175.9980  143.2820 C   0  0  0  0  0  2  0  0  0  0  0  0
  190.8650  174.4620  142.3050 C   0  0  2  0  0  3  0  0  0  0  0  0
  192.5400  172.9650  143.0890 C   0  0  2  0  0  3  0  0  0  0  0  0
  194.4570  171.6070  143.9810 C   0  0  0  0  0  2  0  0  0  0  0  0
  197.4640  173.0460  140.2030 C   0  0  0  0  0  3  0  0  0  0  0  0
  196.8660  171.6450  144.9180 C   0  0  2  0  0  3  0  0  0  0  0  0
  195.6240  175.6880  142.0210 O   0  0  0  0  0  0  0  0  0  0  0  0
  196.1160  170.4310  145.4400 C   0  0  1  0  0  3  0  0  0  0  0  0
  189.7830  175.4100  142.7260 C   0  0  0  0  0  0  0  0  0  0  0  0
  187.9880  176.6330  142.6340 N   0  0  0  0  0  0  0  0  0  0  0  0
  189.5480  175.8660  144.0070 C   0  0  1  0  0  3  0  0  0  0  0  0
  188.8230  175.8980  141.9100 N   0  0  0  0  0  0  0  0  0  0  0  0
  188.4000  176.6130  143.9170 C   0  0  0  0  0  0  0  0  0  0  0  0
  190.2790  175.5540  145.1940 N   0  0  0  0  0  2  0  0  0  0  0  0
  191.4620  176.2680  145.5720 C   0  0  0  0  0  0  0  0  0  0  0  0
  191.8030  177.3090  144.9430 O   0  0  0  0  0  0  0  0  0  0  0  0
  192.2620  175.8000  146.7450 C   0  0  0  0  0  3  0  0  0  0  0  0
  191.4310  175.8610  148.0130 C   0  0  0  0  0  1  0  0  0  0  0  0
  193.5170  176.6410  146.9040 C   0  0  0  0  0  1  0  0  0  0  0  0
  187.7160  177.3320  145.0280 C   0  0  0  0  0  2  0  0  0  0  0  0
  186.3300  176.7560  145.2530 C   0  0  0  0  0  2  0  0  0  0  0  0
  185.7520  179.0440  144.8960 O   0  0  0  0  0  1  0  0  0  0  0  0
  185.2670  177.7390  144.8010 C   0  0  0  0  0  2  0  0  0  0  0  0
  197.9410  175.5500  138.7570 O   0  0  0  0  0  1  0  0  0  0  0  0
  196.7000  175.2510  139.3270 C   0  0  1  0  0  3  0  0  0  0  0  0
  195.6960  174.8210  138.2560 C   0  0  0  0  0  2  0  0  0  0  0  0
  194.2770  175.2540  138.5880 C   0  0  0  0  0  2  0  0  0  0  0  0
  193.1060  174.5270  137.4560 S   0  0  0  0  0  0  0  0  0  0  0  0
  192.5880  175.5900  136.5250 O   0  0  0  0  0  0  0  0  0  0  0  0
  193.8260  173.4820  136.6500 O   0  0  0  0  0  0  0  0  0  0  0  0
  191.0400  170.6570  138.9920 C   0  0  0  0  0  2  0  0  0  0  0  0
  191.7480  173.7630  138.3360 C   0  0  2  0  0  3  0  0  0  0  0  0
  190.6950  171.9300  136.8290 C   0  0  0  0  0  2  0  0  0  0  0  0
  191.1860  171.8620  139.7960 N   0  0  0  0  0  2  0  0  0  0  0  0
  192.2770  172.6190  139.2040 C   0  0  0  0  0  2  0  0  0  0  0  0
  189.3730  173.6470  137.9120 O   0  0  0  0  0  1  0  0  0  0  0  0
  190.6260  173.3690  137.3590 C   0  0  1  0  0  3  0  0  0  0  0  0
  190.1130  170.9090  137.8070 C   0  0  0  0  0  2  0  0  0  0  0  0
  196.3370  170.2750  146.8700 N   0  0  0  0  0  2  0  0  0  0  0  0
  196.3770  168.2560  145.9600 O   0  0  0  0  0  1  0  0  0  0  0  0
  196.4040  168.9010  147.1520 N   0  0  0  0  0  0  0  0  0  0  0  0
  194.9150  168.4950  147.9630 Cl  0  0  0  0  0  0  0  0  0  0  0  0
  3 12  1  1  0  0  0
  3 15  1  0  0  0  0
  3  1  1  0  0  0  0
  4 16  1  6  0  0  0
  4 20  1  0  0  0  0
  6 19  1  0  0  0  0
  6 11  2  0  0  0  0
  7 11  1  0  0  0  0
  7  5  1  0  0  0  0
  9  7  2  0  0  0  0
 10  6  1  0  0  0  0
 12 14  1  0  0  0  0
 13  1  1  0  0  0  0
 14 21  1  1  0  0  0
 14  8  1  0  0  0  0
 15  8  1  1  0  0  0
 15  2  1  0  0  0  0
 16  2  1  0  0  0  0
 17 10  2  0  0  0  0
 17  9  1  0  0  0  0
 18  5  1  6  0  0  0
 18  4  1  0  0  0  0
 18 20  1  0  0  0  0
 19 13  1  0  0  0  0
 20 51  1  1  0  0  0
 21 23  1  0  0  0  0
 22 25  2  0  0  0  0
 23 26  1  1  0  0  0
 24 22  1  0  0  0  0
 24 21  2  0  0  0  0
 25 23  1  0  0  0  0
 25 32  1  0  0  0  0
 26 27  1  0  0  0  0
 27 29  1  0  0  0  0
 28 27  2  0  0  0  0
 29 31  1  0  0  0  0
 29 30  1  0  0  0  0
 32 33  1  0  0  0  0
 35 34  1  0  0  0  0
 35 33  1  0  0  0  0
 37 36  1  6  0  0  0
 37 10  1  0  0  0  0
 38 39  1  0  0  0  0
 38 37  1  0  0  0  0
 40 39  1  0  0  0  0
 41 40  2  0  0  0  0
 42 40  2  0  0  0  0
 43 46  1  0  0  0  0
 44 40  1  6  0  0  0
 44 47  1  0  0  0  0
 45 49  1  0  0  0  0
 45 50  1  0  0  0  0
 47 46  1  0  0  0  0
 49 48  1  1  0  0  0
 49 44  1  0  0  0  0
 50 43  1  0  0  0  0
 51 53  1  0  0  0  0
 52 53  1  0  0  0  0
 53 54  1  0  0  0  0
M  END
>  <MODEL>
9

>  <REMARK>
 VINA RESULT:      -6.9      3.478      8.737
  Name = 
  13 active torsions:
  status: ('A' for Active; 'I' for Inactive)
    1  A    between atoms: C_1  and  C_39
    2  A    between atoms: S_4  and  C_20
    3  A    between atoms: S_4  and  C_27
    4  A    between atoms: C_6  and  C_27
    5  A    between atoms: C_6  and  C_37
    6  A    between atoms: C_10  and  C_47
    7  A    between atoms: C_13  and  N_46
    8  A    between atoms: C_15  and  C_43
    9  A    between atoms: N_18  and  N_30
   10  A    between atoms: N_18  and  C_51
   11  A    between atoms: C_26  and  C_43
   12  A    between atoms: C_26  and  C_54
   13  A    between atoms: C_33  and  C_37
                            x       y       z     vdW  Elec       q    Type
                         _______ _______ _______ _____ _____    ______ ____

>  <TORSDO>
F 13

$$$$
