=
 OpenBabel11042418033D

 35 38  0  0  1  0  0  0  0  0999 V2000
  189.1940  173.4260  142.4730 C   0  0  0  0  0  3  0  0  0  0  0  0
  189.6980  175.0940  144.1530 C   0  0  0  0  0  0  0  0  0  0  0  0
  188.5930  175.7430  142.0810 C   0  0  0  0  0  0  0  0  0  0  0  0
  188.6100  174.3990  141.6490 C   0  0  0  0  0  0  0  0  0  0  0  0
  189.1200  176.0740  143.3300 C   0  0  0  0  0  3  0  0  0  0  0  0
  189.7260  173.7680  143.7190 C   0  0  0  0  0  3  0  0  0  0  0  0
  192.1000  176.9610  145.1900 N   0  0  0  0  0  0  0  0  0  0  0  0
  190.1480  175.4270  145.5470 C   0  0  2  0  0  3  0  0  0  0  0  0
  190.6840  176.8860  145.5860 C   0  0  0  0  0  2  0  0  0  0  0  0
  191.1690  174.4630  146.0100 N   0  0  0  0  0  0  0  0  0  0  0  0
  193.4440  173.8740  146.0580 N   0  0  0  0  0  0  0  0  0  0  0  0
  194.5580  174.5330  145.6410 C   0  0  0  0  0  3  0  0  0  0  0  0
  195.0910  176.7680  144.6270 N   0  0  0  0  0  1  0  0  0  0  0  0
  194.2200  175.8180  145.2320 C   0  0  1  0  0  3  0  0  0  0  0  0
  192.4310  174.7410  145.8760 C   0  0  0  0  0  0  0  0  0  0  0  0
  192.8720  175.9440  145.4170 C   0  0  0  0  0  0  0  0  0  0  0  0
  190.1260  173.6620  139.1020 N   0  0  0  0  0  2  0  0  0  0  0  0
  190.8350  173.1870  137.9250 C   0  0  0  0  0  1  0  0  0  0  0  0
  188.0240  174.0470  140.3870 N   0  0  0  0  0  2  0  0  0  0  0  0
  188.6990  173.7210  139.1640 C   0  0  0  0  0  0  0  0  0  0  0  0
  188.0130  173.4450  138.1440 O   0  0  0  0  0  0  0  0  0  0  0  0
  187.9910  176.8490  141.2620 C   0  0  2  0  0  3  0  0  0  0  0  0
  188.6040  178.0710  141.5570 O   0  0  0  0  0  1  0  0  0  0  0  0
  186.5170  176.9360  141.4960 C   0  0  0  0  0  3  0  0  0  0  0  0
  185.9250  178.0760  141.5720 N   0  0  0  0  0  0  0  0  0  0  0  0
  184.4980  178.1480  141.7960 C   0  0  0  0  0  2  0  0  0  0  0  0
  183.0420  179.0470  143.4920 O   0  0  0  0  0  0  0  0  0  0  0  0
  185.1600  178.3840  144.2220 N   0  0  0  0  0  2  0  0  0  0  0  0
  184.1650  178.5450  143.2060 C   0  0  0  0  0  0  0  0  0  0  0  0
  186.4030  176.8990  147.2960 C   0  0  0  0  0  2  0  0  0  0  0  0
  184.2220  177.7580  146.4130 C   0  0  0  0  0  2  0  0  0  0  0  0
  187.1580  177.9220  146.4530 C   0  0  0  0  0  2  0  0  0  0  0  0
  185.0920  176.5180  146.6130 C   0  0  0  0  0  2  0  0  0  0  0  0
  186.3000  179.1720  146.2480 C   0  0  0  0  0  2  0  0  0  0  0  0
  184.9570  178.8300  145.5980 C   0  0  0  0  0  3  0  0  0  0  0  0
  1  6  1  0  0  0  0
  3  5  2  0  0  0  0
  4  3  1  0  0  0  0
  4  1  2  0  0  0  0
  5  2  1  0  0  0  0
  6  2  2  0  0  0  0
  7 16  2  0  0  0  0
  7  9  1  0  0  0  0
  8  2  1  6  0  0  0
  8  9  1  0  0  0  0
  8 10  1  0  0  0  0
 12 11  2  0  0  0  0
 14 13  1  6  0  0  0
 14 16  1  0  0  0  0
 14 12  1  0  0  0  0
 15 10  2  0  0  0  0
 15 11  1  0  0  0  0
 16 15  1  0  0  0  0
 17 20  1  0  0  0  0
 18 17  1  0  0  0  0
 19  4  1  0  0  0  0
 20 19  1  0  0  0  0
 21 20  2  0  0  0  0
 22 24  1  0  0  0  0
 22 23  1  1  0  0  0
 22  3  1  0  0  0  0
 24 25  2  0  0  0  0
 25 26  1  0  0  0  0
 26 29  1  0  0  0  0
 28 35  1  0  0  0  0
 29 27  2  0  0  0  0
 29 28  1  0  0  0  0
 31 33  1  0  0  0  0
 32 30  1  0  0  0  0
 33 30  1  0  0  0  0
 34 32  1  0  0  0  0
 35 34  1  0  0  0  0
 35 31  1  0  0  0  0
M  END
>  <MODEL>
1

>  <REMARK>
 VINA RESULT:      -7.5      0.000      0.000
  Name = 
  7 active torsions:
  status: ('A' for Active; 'I' for Inactive)
    1  A    between atoms: C_1  and  N_11
    2  A    between atoms: C_1  and  C_23
    3  A    between atoms: C_4  and  C_8
    4  A    between atoms: C_4  and  C_9
    5  A    between atoms: C_6  and  C_10
    6  A    between atoms: N_19  and  C_29
    7  A    between atoms: N_21  and  C_30
                            x       y       z     vdW  Elec       q    Type
                         _______ _______ _______ _____ _____    ______ ____

>  <TORSDO>
F 7

$$$$
=
 OpenBabel11042418033D

 35 38  0  0  1  0  0  0  0  0999 V2000
  193.2780  173.9930  145.3440 C   0  0  0  0  0  3  0  0  0  0  0  0
  191.2190  173.0350  144.5060 C   0  0  0  0  0  0  0  0  0  0  0  0
  191.3470  175.4190  144.9910 C   0  0  0  0  0  0  0  0  0  0  0  0
  192.6970  175.2690  145.3800 C   0  0  0  0  0  0  0  0  0  0  0  0
  190.6300  174.3080  144.5450 C   0  0  0  0  0  3  0  0  0  0  0  0
  192.5480  172.8860  144.9030 C   0  0  0  0  0  3  0  0  0  0  0  0
  191.2760  171.8360  141.5250 N   0  0  0  0  0  0  0  0  0  0  0  0
  190.4890  171.8660  143.9060 C   0  0  2  0  0  3  0  0  0  0  0  0
  191.3910  171.1830  142.8380 C   0  0  0  0  0  2  0  0  0  0  0  0
  189.1980  172.2980  143.3280 N   0  0  0  0  0  0  0  0  0  0  0  0
  188.0730  173.1880  141.4680 N   0  0  0  0  0  0  0  0  0  0  0  0
  188.4900  173.4580  140.2010 C   0  0  0  0  0  3  0  0  0  0  0  0
  190.6060  173.1880  138.8740 N   0  0  0  0  0  1  0  0  0  0  0  0
  189.7880  172.9920  140.0240 C   0  0  1  0  0  3  0  0  0  0  0  0
  189.1200  172.5890  142.0650 C   0  0  0  0  0  0  0  0  0  0  0  0
  190.1600  172.4160  141.2050 C   0  0  0  0  0  0  0  0  0  0  0  0
  195.2860  176.2710  144.1060 N   0  0  0  0  0  2  0  0  0  0  0  0
  196.4450  176.8270  143.4290 C   0  0  0  0  0  1  0  0  0  0  0  0
  193.4530  176.4170  145.7910 N   0  0  0  0  0  2  0  0  0  0  0  0
  194.6840  176.9040  145.2380 C   0  0  0  0  0  0  0  0  0  0  0  0
  195.2140  177.9310  145.7400 O   0  0  0  0  0  0  0  0  0  0  0  0
  190.6450  176.7470  145.0000 C   0  0  2  0  0  3  0  0  0  0  0  0
  190.2640  177.0940  146.3010 O   0  0  0  0  0  1  0  0  0  0  0  0
  189.4540  176.7210  144.0980 C   0  0  0  0  0  3  0  0  0  0  0  0
  189.1900  177.7110  143.3200 N   0  0  0  0  0  0  0  0  0  0  0  0
  188.0360  177.6730  142.4500 C   0  0  0  0  0  2  0  0  0  0  0  0
  186.0350  176.3640  142.7480 O   0  0  0  0  0  0  0  0  0  0  0  0
  186.4300  177.9940  144.3740 N   0  0  0  0  0  2  0  0  0  0  0  0
  186.7850  177.2810  143.1850 C   0  0  0  0  0  0  0  0  0  0  0  0
  185.8110  178.1730  147.9490 C   0  0  0  0  0  2  0  0  0  0  0  0
  185.3540  176.5740  146.0760 C   0  0  0  0  0  2  0  0  0  0  0  0
  185.7030  179.3500  146.9840 C   0  0  0  0  0  2  0  0  0  0  0  0
  186.3100  176.9320  147.2130 C   0  0  0  0  0  2  0  0  0  0  0  0
  184.7440  179.0060  145.8420 C   0  0  0  0  0  2  0  0  0  0  0  0
  185.1870  177.7440  145.0980 C   0  0  0  0  0  3  0  0  0  0  0  0
  1  4  1  0  0  0  0
  2  5  2  0  0  0  0
  2  6  1  0  0  0  0
  3 22  1  0  0  0  0
  3  4  2  0  0  0  0
  4 19  1  0  0  0  0
  5  3  1  0  0  0  0
  6  1  2  0  0  0  0
  7  9  1  0  0  0  0
  8  2  1  6  0  0  0
  9  8  1  0  0  0  0
 10  8  1  0  0  0  0
 11 15  1  0  0  0  0
 12 11  2  0  0  0  0
 14 13  1  1  0  0  0
 14 12  1  0  0  0  0
 14 16  1  0  0  0  0
 15 10  2  0  0  0  0
 16  7  2  0  0  0  0
 16 15  1  0  0  0  0
 17 20  1  0  0  0  0
 18 17  1  0  0  0  0
 20 21  2  0  0  0  0
 20 19  1  0  0  0  0
 22 23  1  1  0  0  0
 24 22  1  0  0  0  0
 25 24  2  0  0  0  0
 26 29  1  0  0  0  0
 26 25  1  0  0  0  0
 27 29  2  0  0  0  0
 28 35  1  0  0  0  0
 29 28  1  0  0  0  0
 31 33  1  0  0  0  0
 32 30  1  0  0  0  0
 33 30  1  0  0  0  0
 34 32  1  0  0  0  0
 35 34  1  0  0  0  0
 35 31  1  0  0  0  0
M  END
>  <MODEL>
2

>  <REMARK>
 VINA RESULT:      -7.5      2.389      5.498
  Name = 
  7 active torsions:
  status: ('A' for Active; 'I' for Inactive)
    1  A    between atoms: C_1  and  N_11
    2  A    between atoms: C_1  and  C_23
    3  A    between atoms: C_4  and  C_8
    4  A    between atoms: C_4  and  C_9
    5  A    between atoms: C_6  and  C_10
    6  A    between atoms: N_19  and  C_29
    7  A    between atoms: N_21  and  C_30
                            x       y       z     vdW  Elec       q    Type
                         _______ _______ _______ _____ _____    ______ ____

>  <TORSDO>
F 7

$$$$
=
 OpenBabel11042418033D

 35 38  0  0  1  0  0  0  0  0999 V2000
  194.1060  172.4660  143.4720 C   0  0  0  0  0  3  0  0  0  0  0  0
  191.7100  172.4310  143.8150 C   0  0  0  0  0  0  0  0  0  0  0  0
  193.0400  174.2780  144.6810 C   0  0  0  0  0  0  0  0  0  0  0  0
  194.2080  173.6910  144.1480 C   0  0  0  0  0  0  0  0  0  0  0  0
  191.8060  173.6530  144.4970 C   0  0  0  0  0  3  0  0  0  0  0  0
  192.8670  171.8440  143.3000 C   0  0  0  0  0  3  0  0  0  0  0  0
  190.2740  171.8510  140.9980 N   0  0  0  0  0  0  0  0  0  0  0  0
  190.3710  171.8240  143.5050 C   0  0  2  0  0  3  0  0  0  0  0  0
  190.4640  171.0040  142.1860 C   0  0  0  0  0  2  0  0  0  0  0  0
  189.3310  172.8720  143.4170 N   0  0  0  0  0  0  0  0  0  0  0  0
  188.2500  174.4670  142.0720 N   0  0  0  0  0  0  0  0  0  0  0  0
  188.3340  174.7340  140.7410 C   0  0  0  0  0  3  0  0  0  0  0  0
  189.5450  173.7860  138.7560 N   0  0  0  0  0  1  0  0  0  0  0  0
  189.1310  173.7800  140.1180 C   0  0  1  0  0  3  0  0  0  0  0  0
  189.0160  173.3760  142.2620 C   0  0  0  0  0  0  0  0  0  0  0  0
  189.5290  172.9090  141.0920 C   0  0  0  0  0  0  0  0  0  0  0  0
  195.4490  175.6490  142.1600 N   0  0  0  0  0  2  0  0  0  0  0  0
  195.9880  176.6770  141.2850 C   0  0  0  0  0  1  0  0  0  0  0  0
  195.4720  174.3550  144.2920 N   0  0  0  0  0  2  0  0  0  0  0  0
  196.1000  175.2590  143.3720 C   0  0  0  0  0  0  0  0  0  0  0  0
  197.2260  175.7420  143.6650 O   0  0  0  0  0  0  0  0  0  0  0  0
  193.0570  175.5870  145.4200 C   0  0  2  0  0  3  0  0  0  0  0  0
  193.0030  175.3730  146.8010 O   0  0  0  0  0  1  0  0  0  0  0  0
  191.9220  176.4550  144.9820 C   0  0  0  0  0  3  0  0  0  0  0  0
  190.9840  176.7810  145.8000 N   0  0  0  0  0  0  0  0  0  0  0  0
  189.8920  177.6230  145.3650 C   0  0  0  0  0  2  0  0  0  0  0  0
  188.5680  175.6100  145.3750 O   0  0  0  0  0  0  0  0  0  0  0  0
  187.3900  177.5960  145.0160 N   0  0  0  0  0  2  0  0  0  0  0  0
  188.5960  176.8680  145.2700 C   0  0  0  0  0  0  0  0  0  0  0  0
  184.0580  178.8590  145.7250 C   0  0  0  0  0  2  0  0  0  0  0  0
  185.3660  176.7650  146.1500 C   0  0  0  0  0  2  0  0  0  0  0  0
  184.8160  179.0790  144.4190 C   0  0  0  0  0  2  0  0  0  0  0  0
  184.9380  178.1150  146.7260 C   0  0  0  0  0  2  0  0  0  0  0  0
  185.2470  177.7340  143.8290 C   0  0  0  0  0  2  0  0  0  0  0  0
  186.1030  176.9360  144.8150 C   0  0  0  0  0  3  0  0  0  0  0  0
  1  4  1  0  0  0  0
  2  5  2  0  0  0  0
  3 22  1  0  0  0  0
  4 19  1  0  0  0  0
  4  3  2  0  0  0  0
  5  3  1  0  0  0  0
  6  1  2  0  0  0  0
  6  2  1  0  0  0  0
  7 16  2  0  0  0  0
  7  9  1  0  0  0  0
  8  2  1  6  0  0  0
  9  8  1  0  0  0  0
 10  8  1  0  0  0  0
 11 15  1  0  0  0  0
 12 11  2  0  0  0  0
 14 13  1  1  0  0  0
 14 12  1  0  0  0  0
 14 16  1  0  0  0  0
 15 10  2  0  0  0  0
 16 15  1  0  0  0  0
 17 20  1  0  0  0  0
 18 17  1  0  0  0  0
 20 21  2  0  0  0  0
 20 19  1  0  0  0  0
 22 23  1  1  0  0  0
 24 22  1  0  0  0  0
 24 25  2  0  0  0  0
 26 25  1  0  0  0  0
 28 29  1  0  0  0  0
 29 26  1  0  0  0  0
 29 27  2  0  0  0  0
 30 33  1  0  0  0  0
 31 33  1  0  0  0  0
 32 30  1  0  0  0  0
 34 32  1  0  0  0  0
 34 35  1  0  0  0  0
 35 28  1  0  0  0  0
 35 31  1  0  0  0  0
M  END
>  <MODEL>
3

>  <REMARK>
 VINA RESULT:      -7.4      2.930      6.009
  Name = 
  7 active torsions:
  status: ('A' for Active; 'I' for Inactive)
    1  A    between atoms: C_1  and  N_11
    2  A    between atoms: C_1  and  C_23
    3  A    between atoms: C_4  and  C_8
    4  A    between atoms: C_4  and  C_9
    5  A    between atoms: C_6  and  C_10
    6  A    between atoms: N_19  and  C_29
    7  A    between atoms: N_21  and  C_30
                            x       y       z     vdW  Elec       q    Type
                         _______ _______ _______ _____ _____    ______ ____

>  <TORSDO>
F 7

$$$$
=
 OpenBabel11042418033D

 35 38  0  0  1  0  0  0  0  0999 V2000
  186.8670  176.2100  142.4690 C   0  0  0  0  0  3  0  0  0  0  0  0
  188.6150  174.5430  142.6110 C   0  0  0  0  0  0  0  0  0  0  0  0
  188.8280  176.6410  143.8290 C   0  0  0  0  0  0  0  0  0  0  0  0
  187.5720  177.0570  143.3370 C   0  0  0  0  0  0  0  0  0  0  0  0
  189.3280  175.3870  143.4760 C   0  0  0  0  0  3  0  0  0  0  0  0
  187.3800  174.9600  142.1140 C   0  0  0  0  0  3  0  0  0  0  0  0
  191.1600  173.4850  140.9590 N   0  0  0  0  0  0  0  0  0  0  0  0
  189.0910  173.1450  142.3340 C   0  0  2  0  0  3  0  0  0  0  0  0
  190.6460  173.1240  142.2890 C   0  0  0  0  0  2  0  0  0  0  0  0
  188.5070  172.6350  141.0750 N   0  0  0  0  0  0  0  0  0  0  0  0
  188.6700  172.5140  138.7340 N   0  0  0  0  0  0  0  0  0  0  0  0
  189.6440  172.9170  137.8730 C   0  0  0  0  0  3  0  0  0  0  0  0
  191.9200  173.9660  138.0440 N   0  0  0  0  0  1  0  0  0  0  0  0
  190.7500  173.3620  138.5880 C   0  0  1  0  0  3  0  0  0  0  0  0
  189.1690  172.7420  139.9630 C   0  0  0  0  0  0  0  0  0  0  0  0
  190.4440  173.2150  139.9110 C   0  0  0  0  0  0  0  0  0  0  0  0
  185.4240  177.5080  145.4610 N   0  0  0  0  0  2  0  0  0  0  0  0
  184.4970  177.7420  146.5560 C   0  0  0  0  0  1  0  0  0  0  0  0
  187.0310  178.3250  143.7380 N   0  0  0  0  0  2  0  0  0  0  0  0
  186.0060  178.5760  144.7100 C   0  0  0  0  0  0  0  0  0  0  0  0
  185.6480  179.7650  144.9260 O   0  0  0  0  0  0  0  0  0  0  0  0
  189.6510  177.4850  144.7620 C   0  0  2  0  0  3  0  0  0  0  0  0
  190.4510  178.3780  144.0410 O   0  0  0  0  0  1  0  0  0  0  0  0
  190.4960  176.6250  145.6440 C   0  0  0  0  0  3  0  0  0  0  0  0
  191.7710  176.7890  145.7060 N   0  0  0  0  0  0  0  0  0  0  0  0
  192.5780  175.9520  146.5660 C   0  0  0  0  0  2  0  0  0  0  0  0
  194.6760  177.0850  146.2180 O   0  0  0  0  0  0  0  0  0  0  0  0
  194.6790  174.7910  145.7800 N   0  0  0  0  0  2  0  0  0  0  0  0
  194.0340  175.9980  146.1970 C   0  0  0  0  0  0  0  0  0  0  0  0
  196.5660  171.9820  144.4570 C   0  0  0  0  0  2  0  0  0  0  0  0
  196.8980  173.7900  146.1600 C   0  0  0  0  0  2  0  0  0  0  0  0
  195.6880  172.9120  143.6270 C   0  0  0  0  0  2  0  0  0  0  0  0
  196.4630  172.3420  145.9370 C   0  0  0  0  0  2  0  0  0  0  0  0
  196.1160  174.3670  143.8360 C   0  0  0  0  0  2  0  0  0  0  0  0
  196.0630  174.7600  145.3150 C   0  0  0  0  0  3  0  0  0  0  0  0
  1  4  1  0  0  0  0
  2  5  2  0  0  0  0
  3 22  1  0  0  0  0
  4 19  1  0  0  0  0
  4  3  2  0  0  0  0
  5  3  1  0  0  0  0
  6  1  2  0  0  0  0
  6  2  1  0  0  0  0
  7  9  1  0  0  0  0
  8  2  1  6  0  0  0
  9  8  1  0  0  0  0
 10  8  1  0  0  0  0
 11 15  1  0  0  0  0
 12 14  1  0  0  0  0
 12 11  2  0  0  0  0
 14 13  1  1  0  0  0
 14 16  1  0  0  0  0
 15 10  2  0  0  0  0
 16 15  1  0  0  0  0
 16  7  2  0  0  0  0
 17 18  1  0  0  0  0
 19 20  1  0  0  0  0
 20 21  2  0  0  0  0
 20 17  1  0  0  0  0
 22 23  1  6  0  0  0
 22 24  1  0  0  0  0
 24 25  2  0  0  0  0
 25 26  1  0  0  0  0
 28 29  1  0  0  0  0
 29 27  2  0  0  0  0
 29 26  1  0  0  0  0
 30 33  1  0  0  0  0
 32 34  1  0  0  0  0
 32 30  1  0  0  0  0
 33 31  1  0  0  0  0
 34 35  1  0  0  0  0
 35 28  1  0  0  0  0
 35 31  1  0  0  0  0
M  END
>  <MODEL>
4

>  <REMARK>
 VINA RESULT:      -7.1      2.213      8.155
  Name = 
  7 active torsions:
  status: ('A' for Active; 'I' for Inactive)
    1  A    between atoms: C_1  and  N_11
    2  A    between atoms: C_1  and  C_23
    3  A    between atoms: C_4  and  C_8
    4  A    between atoms: C_4  and  C_9
    5  A    between atoms: C_6  and  C_10
    6  A    between atoms: N_19  and  C_29
    7  A    between atoms: N_21  and  C_30
                            x       y       z     vdW  Elec       q    Type
                         _______ _______ _______ _____ _____    ______ ____

>  <TORSDO>
F 7

$$$$
=
 OpenBabel11042418033D

 35 38  0  0  1  0  0  0  0  0999 V2000
  188.1950  173.8370  141.5340 C   0  0  0  0  0  3  0  0  0  0  0  0
  188.4770  176.0970  142.3530 C   0  0  0  0  0  0  0  0  0  0  0  0
  189.6130  174.2480  143.4580 C   0  0  0  0  0  0  0  0  0  0  0  0
  189.0540  173.3450  142.5270 C   0  0  0  0  0  0  0  0  0  0  0  0
  189.3330  175.6110  143.3530 C   0  0  0  0  0  3  0  0  0  0  0  0
  187.9140  175.2030  141.4420 C   0  0  0  0  0  3  0  0  0  0  0  0
  187.0400  178.2790  144.2250 N   0  0  0  0  0  0  0  0  0  0  0  0
  188.2780  177.5740  142.1610 C   0  0  2  0  0  3  0  0  0  0  0  0
  188.3420  178.2920  143.5400 C   0  0  0  0  0  2  0  0  0  0  0  0
  186.9980  177.8430  141.4710 N   0  0  0  0  0  0  0  0  0  0  0  0
  184.6790  178.1630  141.6750 N   0  0  0  0  0  0  0  0  0  0  0  0
  183.8760  178.2920  142.7660 C   0  0  0  0  0  3  0  0  0  0  0  0
  184.1720  178.3640  145.2590 N   0  0  0  0  0  1  0  0  0  0  0  0
  184.6520  178.3460  143.9180 C   0  0  1  0  0  3  0  0  0  0  0  0
  185.9330  178.1100  142.1630 C   0  0  0  0  0  0  0  0  0  0  0  0
  185.9540  178.2620  143.5150 C   0  0  0  0  0  0  0  0  0  0  0  0
  191.1530  171.8940  140.8490 N   0  0  0  0  0  2  0  0  0  0  0  0
  192.2350  171.2230  140.1480 C   0  0  0  0  0  1  0  0  0  0  0  0
  189.3790  171.9490  142.6010 N   0  0  0  0  0  2  0  0  0  0  0  0
  190.3370  171.2270  141.8150 C   0  0  0  0  0  0  0  0  0  0  0  0
  190.4820  169.9910  142.0150 O   0  0  0  0  0  0  0  0  0  0  0  0
  190.5410  173.8070  144.5550 C   0  0  2  0  0  3  0  0  0  0  0  0
  189.8290  173.1640  145.5730 O   0  0  0  0  0  1  0  0  0  0  0  0
  191.2980  174.9720  145.1050 C   0  0  0  0  0  3  0  0  0  0  0  0
  191.8520  174.9140  146.2650 N   0  0  0  0  0  0  0  0  0  0  0  0
  192.5840  176.0470  146.7860 C   0  0  0  0  0  2  0  0  0  0  0  0
  194.5650  177.2090  146.0550 O   0  0  0  0  0  0  0  0  0  0  0  0
  194.6640  174.8770  145.9580 N   0  0  0  0  0  2  0  0  0  0  0  0
  193.9910  176.1030  146.2610 C   0  0  0  0  0  0  0  0  0  0  0  0
  196.3100  172.1200  144.2580 C   0  0  0  0  0  2  0  0  0  0  0  0
  196.8710  173.7840  146.0450 C   0  0  0  0  0  2  0  0  0  0  0  0
  195.3910  173.1350  143.5870 C   0  0  0  0  0  2  0  0  0  0  0  0
  196.3630  172.3700  145.7630 C   0  0  0  0  0  2  0  0  0  0  0  0
  195.8910  174.5560  143.8570 C   0  0  0  0  0  2  0  0  0  0  0  0
  195.9950  174.8400  145.3570 C   0  0  0  0  0  3  0  0  0  0  0  0
  1  4  1  0  0  0  0
  2  5  2  0  0  0  0
  3 22  1  0  0  0  0
  4 19  1  0  0  0  0
  4  3  2  0  0  0  0
  5  3  1  0  0  0  0
  6  1  2  0  0  0  0
  6  2  1  0  0  0  0
  8  2  1  1  0  0  0
  8  9  1  0  0  0  0
  9  7  1  0  0  0  0
 10  8  1  0  0  0  0
 10 15  2  0  0  0  0
 11 15  1  0  0  0  0
 11 12  2  0  0  0  0
 12 14  1  0  0  0  0
 14 13  1  1  0  0  0
 15 16  1  0  0  0  0
 16 14  1  0  0  0  0
 16  7  2  0  0  0  0
 17 20  1  0  0  0  0
 18 17  1  0  0  0  0
 20 21  2  0  0  0  0
 20 19  1  0  0  0  0
 22 24  1  0  0  0  0
 22 23  1  1  0  0  0
 24 25  2  0  0  0  0
 25 26  1  0  0  0  0
 27 29  2  0  0  0  0
 28 29  1  0  0  0  0
 29 26  1  0  0  0  0
 30 33  1  0  0  0  0
 32 34  1  0  0  0  0
 32 30  1  0  0  0  0
 33 31  1  0  0  0  0
 34 35  1  0  0  0  0
 35 28  1  0  0  0  0
 35 31  1  0  0  0  0
M  END
>  <MODEL>
5

>  <REMARK>
 VINA RESULT:      -7.1      2.872      8.012
  Name = 
  7 active torsions:
  status: ('A' for Active; 'I' for Inactive)
    1  A    between atoms: C_1  and  N_11
    2  A    between atoms: C_1  and  C_23
    3  A    between atoms: C_4  and  C_8
    4  A    between atoms: C_4  and  C_9
    5  A    between atoms: C_6  and  C_10
    6  A    between atoms: N_19  and  C_29
    7  A    between atoms: N_21  and  C_30
                            x       y       z     vdW  Elec       q    Type
                         _______ _______ _______ _____ _____    ______ ____

>  <TORSDO>
F 7

$$$$
=
 OpenBabel11042418033D

 35 38  0  0  1  0  0  0  0  0999 V2000
  188.1910  175.0060  141.1430 C   0  0  0  0  0  3  0  0  0  0  0  0
  188.8240  175.9020  143.3010 C   0  0  0  0  0  0  0  0  0  0  0  0
  189.2560  173.5630  142.7770 C   0  0  0  0  0  0  0  0  0  0  0  0
  188.6980  173.7460  141.4920 C   0  0  0  0  0  0  0  0  0  0  0  0
  189.3280  174.6420  143.6590 C   0  0  0  0  0  3  0  0  0  0  0  0
  188.2600  176.0780  142.0360 C   0  0  0  0  0  3  0  0  0  0  0  0
  187.4030  176.6850  146.0750 N   0  0  0  0  0  0  0  0  0  0  0  0
  189.0160  177.0920  144.1980 C   0  0  2  0  0  3  0  0  0  0  0  0
  188.8210  176.6630  145.6800 C   0  0  0  0  0  2  0  0  0  0  0  0
  188.0890  178.1820  143.8240 N   0  0  0  0  0  0  0  0  0  0  0  0
  185.9420  179.1080  144.0540 N   0  0  0  0  0  0  0  0  0  0  0  0
  184.8980  178.7830  144.8640 C   0  0  0  0  0  3  0  0  0  0  0  0
  184.4470  177.1170  146.6900 N   0  0  0  0  0  1  0  0  0  0  0  0
  185.2890  177.7950  145.7620 C   0  0  1  0  0  3  0  0  0  0  0  0
  186.9500  178.3030  144.4370 C   0  0  0  0  0  0  0  0  0  0  0  0
  186.6010  177.5250  145.4970 C   0  0  0  0  0  0  0  0  0  0  0  0
  190.5450  173.3730  139.0880 N   0  0  0  0  0  2  0  0  0  0  0  0
  191.4980  173.1220  138.0200 C   0  0  0  0  0  1  0  0  0  0  0  0
  188.6690  172.6510  140.5640 N   0  0  0  0  0  2  0  0  0  0  0  0
  189.4990  172.4530  139.4110 C   0  0  0  0  0  0  0  0  0  0  0  0
  189.3210  171.4280  138.7000 O   0  0  0  0  0  0  0  0  0  0  0  0
  189.8200  172.2480  143.2340 C   0  0  2  0  0  3  0  0  0  0  0  0
  189.3180  171.9090  144.4950 O   0  0  0  0  0  1  0  0  0  0  0  0
  191.3140  172.2960  143.2650 C   0  0  0  0  0  3  0  0  0  0  0  0
  191.9910  172.5260  142.1950 N   0  0  0  0  0  0  0  0  0  0  0  0
  193.4360  172.5720  142.2380 C   0  0  0  0  0  2  0  0  0  0  0  0
  194.8180  174.4520  141.6370 O   0  0  0  0  0  0  0  0  0  0  0  0
  193.4810  174.7410  143.5310 N   0  0  0  0  0  2  0  0  0  0  0  0
  193.9530  173.9700  142.4220 C   0  0  0  0  0  0  0  0  0  0  0  0
  193.8110  176.3510  146.7710 C   0  0  0  0  0  2  0  0  0  0  0  0
  192.9170  176.9330  144.5050 C   0  0  0  0  0  2  0  0  0  0  0  0
  194.8610  175.4450  146.1350 C   0  0  0  0  0  2  0  0  0  0  0  0
  192.5630  176.4070  145.8950 C   0  0  0  0  0  2  0  0  0  0  0  0
  195.2290  175.9640  144.7430 C   0  0  0  0  0  2  0  0  0  0  0  0
  193.9980  176.0720  143.8400 C   0  0  0  0  0  3  0  0  0  0  0  0
  1  4  2  0  0  0  0
  1  6  1  0  0  0  0
  2  5  1  0  0  0  0
  3 22  1  0  0  0  0
  3  5  2  0  0  0  0
  4  3  1  0  0  0  0
  6  2  2  0  0  0  0
  8  2  1  6  0  0  0
  8  9  1  0  0  0  0
  9  7  1  0  0  0  0
 10  8  1  0  0  0  0
 10 15  2  0  0  0  0
 11 15  1  0  0  0  0
 11 12  2  0  0  0  0
 12 14  1  0  0  0  0
 14 13  1  6  0  0  0
 15 16  1  0  0  0  0
 16 14  1  0  0  0  0
 16  7  2  0  0  0  0
 17 20  1  0  0  0  0
 18 17  1  0  0  0  0
 19  4  1  0  0  0  0
 20 19  1  0  0  0  0
 21 20  2  0  0  0  0
 22 24  1  0  0  0  0
 22 23  1  1  0  0  0
 25 26  1  0  0  0  0
 25 24  2  0  0  0  0
 26 29  1  0  0  0  0
 27 29  2  0  0  0  0
 28 35  1  0  0  0  0
 29 28  1  0  0  0  0
 31 33  1  0  0  0  0
 32 30  1  0  0  0  0
 33 30  1  0  0  0  0
 34 32  1  0  0  0  0
 35 31  1  0  0  0  0
 35 34  1  0  0  0  0
M  END
>  <MODEL>
6

>  <REMARK>
 VINA RESULT:      -7.1      2.624      6.957
  Name = 
  7 active torsions:
  status: ('A' for Active; 'I' for Inactive)
    1  A    between atoms: C_1  and  N_11
    2  A    between atoms: C_1  and  C_23
    3  A    between atoms: C_4  and  C_8
    4  A    between atoms: C_4  and  C_9
    5  A    between atoms: C_6  and  C_10
    6  A    between atoms: N_19  and  C_29
    7  A    between atoms: N_21  and  C_30
                            x       y       z     vdW  Elec       q    Type
                         _______ _______ _______ _____ _____    ______ ____

>  <TORSDO>
F 7

$$$$
=
 OpenBabel11042418033D

 35 38  0  0  1  0  0  0  0  0999 V2000
  194.4800  175.6150  146.2550 C   0  0  0  0  0  3  0  0  0  0  0  0
  195.6450  173.7920  145.1680 C   0  0  0  0  0  0  0  0  0  0  0  0
  193.2100  173.8410  145.1950 C   0  0  0  0  0  0  0  0  0  0  0  0
  193.2400  175.0610  145.9060 C   0  0  0  0  0  0  0  0  0  0  0  0
  194.4070  173.2300  144.8210 C   0  0  0  0  0  3  0  0  0  0  0  0
  195.6740  174.9900  145.8830 C   0  0  0  0  0  3  0  0  0  0  0  0
  197.7480  174.9100  143.0110 N   0  0  0  0  0  0  0  0  0  0  0  0
  196.9290  173.2040  144.6570 C   0  0  2  0  0  3  0  0  0  0  0  0
  197.9410  174.3470  144.3560 C   0  0  0  0  0  2  0  0  0  0  0  0
  196.6820  172.3720  143.4590 N   0  0  0  0  0  0  0  0  0  0  0  0
  196.4200  172.3080  141.1250 N   0  0  0  0  0  0  0  0  0  0  0  0
  196.5850  173.2620  140.1690 C   0  0  0  0  0  3  0  0  0  0  0  0
  197.3150  175.6640  140.0870 N   0  0  0  0  0  1  0  0  0  0  0  0
  197.1110  174.4160  140.7410 C   0  0  1  0  0  3  0  0  0  0  0  0
  196.8150  172.8870  142.2740 C   0  0  0  0  0  0  0  0  0  0  0  0
  197.2790  174.1500  142.0700 C   0  0  0  0  0  0  0  0  0  0  0  0
  191.9010  177.3090  144.3310 N   0  0  0  0  0  2  0  0  0  0  0  0
  191.1930  178.2880  143.5230 C   0  0  0  0  0  1  0  0  0  0  0  0
  192.0110  175.7180  146.2490 N   0  0  0  0  0  2  0  0  0  0  0  0
  191.3650  176.7930  145.5520 C   0  0  0  0  0  0  0  0  0  0  0  0
  190.2860  177.2550  146.0110 O   0  0  0  0  0  0  0  0  0  0  0  0
  191.9270  173.1770  144.7820 C   0  0  2  0  0  3  0  0  0  0  0  0
  192.1470  171.8300  144.4740 O   0  0  0  0  0  1  0  0  0  0  0  0
  191.3180  173.8850  143.6150 C   0  0  0  0  0  3  0  0  0  0  0  0
  190.0830  174.2460  143.6300 N   0  0  0  0  0  0  0  0  0  0  0  0
  189.5050  174.9320  142.4950 C   0  0  0  0  0  2  0  0  0  0  0  0
  187.2270  174.3140  142.0130 O   0  0  0  0  0  0  0  0  0  0  0  0
  187.5010  176.1560  143.4230 N   0  0  0  0  0  2  0  0  0  0  0  0
  188.0170  175.0870  142.6240 C   0  0  0  0  0  0  0  0  0  0  0  0
  185.8570  179.3340  144.0590 C   0  0  0  0  0  2  0  0  0  0  0  0
  185.7270  176.9840  144.9200 C   0  0  0  0  0  2  0  0  0  0  0  0
  186.2530  178.8160  142.6800 C   0  0  0  0  0  2  0  0  0  0  0  0
  186.3350  178.3690  145.1410 C   0  0  0  0  0  2  0  0  0  0  0  0
  185.6470  177.4320  142.4430 C   0  0  0  0  0  2  0  0  0  0  0  0
  186.0710  176.4390  143.5280 C   0  0  0  0  0  3  0  0  0  0  0  0
  2  6  1  0  0  0  0
  3  4  2  0  0  0  0
  4 19  1  0  0  0  0
  4  1  1  0  0  0  0
  5  2  2  0  0  0  0
  5  3  1  0  0  0  0
  6  1  2  0  0  0  0
  7  9  1  0  0  0  0
  8  2  1  6  0  0  0
  9  8  1  0  0  0  0
 10  8  1  0  0  0  0
 11 15  1  0  0  0  0
 12 14  1  0  0  0  0
 12 11  2  0  0  0  0
 14 13  1  1  0  0  0
 14 16  1  0  0  0  0
 15 10  2  0  0  0  0
 16 15  1  0  0  0  0
 16  7  2  0  0  0  0
 17 20  1  0  0  0  0
 18 17  1  0  0  0  0
 20 21  2  0  0  0  0
 20 19  1  0  0  0  0
 22 23  1  6  0  0  0
 22  3  1  0  0  0  0
 24 25  2  0  0  0  0
 24 22  1  0  0  0  0
 26 29  1  0  0  0  0
 26 25  1  0  0  0  0
 27 29  2  0  0  0  0
 28 35  1  0  0  0  0
 29 28  1  0  0  0  0
 30 33  1  0  0  0  0
 31 33  1  0  0  0  0
 32 30  1  0  0  0  0
 34 32  1  0  0  0  0
 34 35  1  0  0  0  0
 35 31  1  0  0  0  0
M  END
>  <MODEL>
7

>  <REMARK>
 VINA RESULT:      -6.9      3.316      6.071
  Name = 
  7 active torsions:
  status: ('A' for Active; 'I' for Inactive)
    1  A    between atoms: C_1  and  N_11
    2  A    between atoms: C_1  and  C_23
    3  A    between atoms: C_4  and  C_8
    4  A    between atoms: C_4  and  C_9
    5  A    between atoms: C_6  and  C_10
    6  A    between atoms: N_19  and  C_29
    7  A    between atoms: N_21  and  C_30
                            x       y       z     vdW  Elec       q    Type
                         _______ _______ _______ _____ _____    ______ ____

>  <TORSDO>
F 7

$$$$
=
 OpenBabel11042418033D

 35 38  0  0  1  0  0  0  0  0999 V2000
  189.9650  173.3960  144.9350 C   0  0  0  0  0  3  0  0  0  0  0  0
  190.0320  175.7940  144.6170 C   0  0  0  0  0  0  0  0  0  0  0  0
  190.4150  174.3020  142.7300 C   0  0  0  0  0  0  0  0  0  0  0  0
  190.2270  173.1850  143.5730 C   0  0  0  0  0  0  0  0  0  0  0  0
  190.3000  175.5900  143.2550 C   0  0  0  0  0  3  0  0  0  0  0  0
  189.8600  174.6890  145.4520 C   0  0  0  0  0  3  0  0  0  0  0  0
  187.8240  176.8670  146.6910 N   0  0  0  0  0  0  0  0  0  0  0  0
  189.7820  177.1750  145.1550 C   0  0  2  0  0  3  0  0  0  0  0  0
  189.2780  177.0770  146.6230 C   0  0  0  0  0  2  0  0  0  0  0  0
  188.8190  177.9020  144.3000 N   0  0  0  0  0  0  0  0  0  0  0  0
  186.5640  178.3360  143.8020 N   0  0  0  0  0  0  0  0  0  0  0  0
  185.4130  177.9820  144.4360 C   0  0  0  0  0  3  0  0  0  0  0  0
  184.7800  176.7410  146.5260 N   0  0  0  0  0  1  0  0  0  0  0  0
  185.7120  177.3530  145.6390 C   0  0  1  0  0  3  0  0  0  0  0  0
  187.5550  177.8990  144.6010 C   0  0  0  0  0  0  0  0  0  0  0  0
  187.0740  177.3370  145.7420 C   0  0  0  0  0  0  0  0  0  0  0  0
  192.6480  171.3250  143.6540 N   0  0  0  0  0  2  0  0  0  0  0  0
  193.7490  170.3880  143.7990 C   0  0  0  0  0  1  0  0  0  0  0  0
  190.2940  171.8590  143.0270 N   0  0  0  0  0  2  0  0  0  0  0  0
  191.4170  170.9660  143.0210 C   0  0  0  0  0  0  0  0  0  0  0  0
  191.2930  169.8340  142.4820 O   0  0  0  0  0  0  0  0  0  0  0  0
  190.7000  174.1680  141.2610 C   0  0  2  0  0  3  0  0  0  0  0  0
  189.8950  173.1760  140.6910 O   0  0  0  0  0  1  0  0  0  0  0  0
  192.1450  173.8630  141.0300 C   0  0  0  0  0  3  0  0  0  0  0  0
  193.0280  174.7980  141.0270 N   0  0  0  0  0  0  0  0  0  0  0  0
  194.4230  174.4890  140.8040 C   0  0  0  0  0  2  0  0  0  0  0  0
  196.4290  174.2090  142.1080 O   0  0  0  0  0  0  0  0  0  0  0  0
  194.6480  175.2550  143.2000 N   0  0  0  0  0  2  0  0  0  0  0  0
  195.2440  174.6420  142.0530 C   0  0  0  0  0  0  0  0  0  0  0  0
  193.2230  175.5050  146.5330 C   0  0  0  0  0  2  0  0  0  0  0  0
  194.9820  176.6750  145.1860 C   0  0  0  0  0  2  0  0  0  0  0  0
  193.5240  174.1970  145.8080 C   0  0  0  0  0  2  0  0  0  0  0  0
  193.5170  176.6930  145.6200 C   0  0  0  0  0  2  0  0  0  0  0  0
  194.9910  174.1630  145.3720 C   0  0  0  0  0  2  0  0  0  0  0  0
  195.3400  175.3590  144.4830 C   0  0  0  0  0  3  0  0  0  0  0  0
  1  6  1  0  0  0  0
  2  6  2  0  0  0  0
  3  5  2  0  0  0  0
  3  4  1  0  0  0  0
  4  1  2  0  0  0  0
  5  2  1  0  0  0  0
  8  2  1  6  0  0  0
  8  9  1  0  0  0  0
  9  7  1  0  0  0  0
 10 15  2  0  0  0  0
 10  8  1  0  0  0  0
 11 12  2  0  0  0  0
 11 15  1  0  0  0  0
 12 14  1  0  0  0  0
 14 16  1  0  0  0  0
 14 13  1  6  0  0  0
 15 16  1  0  0  0  0
 16  7  2  0  0  0  0
 17 18  1  0  0  0  0
 19  4  1  0  0  0  0
 20 19  1  0  0  0  0
 20 17  1  0  0  0  0
 21 20  2  0  0  0  0
 22 23  1  1  0  0  0
 22  3  1  0  0  0  0
 24 22  1  0  0  0  0
 25 24  2  0  0  0  0
 26 25  1  0  0  0  0
 26 29  1  0  0  0  0
 28 35  1  0  0  0  0
 29 27  2  0  0  0  0
 29 28  1  0  0  0  0
 31 33  1  0  0  0  0
 32 30  1  0  0  0  0
 33 30  1  0  0  0  0
 34 32  1  0  0  0  0
 35 31  1  0  0  0  0
 35 34  1  0  0  0  0
M  END
>  <MODEL>
8

>  <REMARK>
 VINA RESULT:      -6.8      3.041      7.348
  Name = 
  7 active torsions:
  status: ('A' for Active; 'I' for Inactive)
    1  A    between atoms: C_1  and  N_11
    2  A    between atoms: C_1  and  C_23
    3  A    between atoms: C_4  and  C_8
    4  A    between atoms: C_4  and  C_9
    5  A    between atoms: C_6  and  C_10
    6  A    between atoms: N_19  and  C_29
    7  A    between atoms: N_21  and  C_30
                            x       y       z     vdW  Elec       q    Type
                         _______ _______ _______ _____ _____    ______ ____

>  <TORSDO>
F 7

$$$$
=
 OpenBabel11042418033D

 35 38  0  0  1  0  0  0  0  0999 V2000
  193.5730  176.4360  146.5330 C   0  0  0  0  0  3  0  0  0  0  0  0
  195.0840  175.0500  145.2460 C   0  0  0  0  0  0  0  0  0  0  0  0
  192.8150  175.4450  144.4520 C   0  0  0  0  0  0  0  0  0  0  0  0
  192.5610  176.2580  145.5780 C   0  0  0  0  0  0  0  0  0  0  0  0
  194.0740  174.8640  144.2900 C   0  0  0  0  0  3  0  0  0  0  0  0
  194.8270  175.8430  146.3650 C   0  0  0  0  0  3  0  0  0  0  0  0
  196.1370  172.6470  143.3900 N   0  0  0  0  0  0  0  0  0  0  0  0
  196.4750  174.5340  145.0080 C   0  0  2  0  0  3  0  0  0  0  0  0
  196.6010  174.0360  143.5390 C   0  0  0  0  0  2  0  0  0  0  0  0
  196.8050  173.4620  145.9720 N   0  0  0  0  0  0  0  0  0  0  0  0
  196.6870  171.1730  146.4910 N   0  0  0  0  0  0  0  0  0  0  0  0
  196.2650  170.1020  145.7660 C   0  0  0  0  0  3  0  0  0  0  0  0
  195.4030  169.6870  143.4430 N   0  0  0  0  0  1  0  0  0  0  0  0
  195.9770  170.4970  144.4640 C   0  0  1  0  0  3  0  0  0  0  0  0
  196.6270  172.2180  145.6440 C   0  0  0  0  0  0  0  0  0  0  0  0
  196.2420  171.8350  144.3960 C   0  0  0  0  0  0  0  0  0  0  0  0
  190.0840  175.0550  146.9000 N   0  0  0  0  0  2  0  0  0  0  0  0
  188.9420  174.5410  147.6380 C   0  0  0  0  0  1  0  0  0  0  0  0
  191.2840  176.8980  145.7230 N   0  0  0  0  0  2  0  0  0  0  0  0
  190.0920  176.3580  146.3120 C   0  0  0  0  0  0  0  0  0  0  0  0
  189.0520  177.0680  146.3430 O   0  0  0  0  0  0  0  0  0  0  0  0
  191.7890  175.1990  143.3830 C   0  0  2  0  0  3  0  0  0  0  0  0
  192.3410  174.4590  142.3320 O   0  0  0  0  0  1  0  0  0  0  0  0
  191.2360  176.4920  142.8750 C   0  0  0  0  0  3  0  0  0  0  0  0
  189.9670  176.6730  142.7660 N   0  0  0  0  0  0  0  0  0  0  0  0
  189.4440  177.9280  142.2750 C   0  0  0  0  0  2  0  0  0  0  0  0
  187.2770  177.8820  141.2230 O   0  0  0  0  0  0  0  0  0  0  0  0
  187.2710  178.1320  143.5460 N   0  0  0  0  0  2  0  0  0  0  0  0
  187.9420  177.9630  142.2940 C   0  0  0  0  0  0  0  0  0  0  0  0
  185.1800  178.0050  146.5140 C   0  0  0  0  0  2  0  0  0  0  0  0
  185.1910  176.9960  144.2210 C   0  0  0  0  0  2  0  0  0  0  0  0
  185.8540  179.2620  145.9750 C   0  0  0  0  0  2  0  0  0  0  0  0
  185.5870  176.7910  145.6830 C   0  0  0  0  0  2  0  0  0  0  0  0
  185.4630  179.4830  144.5120 C   0  0  0  0  0  2  0  0  0  0  0  0
  185.8200  178.2720  143.6460 C   0  0  0  0  0  3  0  0  0  0  0  0
  2  6  2  0  0  0  0
  3  4  1  0  0  0  0
  4 19  1  0  0  0  0
  4  1  2  0  0  0  0
  5  3  2  0  0  0  0
  5  2  1  0  0  0  0
  6  1  1  0  0  0  0
  7  9  1  0  0  0  0
  7 16  2  0  0  0  0
  8  2  1  1  0  0  0
  8 10  1  0  0  0  0
  9  8  1  0  0  0  0
 12 11  2  0  0  0  0
 14 13  1  1  0  0  0
 14 12  1  0  0  0  0
 15 10  2  0  0  0  0
 15 11  1  0  0  0  0
 16 14  1  0  0  0  0
 16 15  1  0  0  0  0
 17 18  1  0  0  0  0
 19 20  1  0  0  0  0
 20 21  2  0  0  0  0
 20 17  1  0  0  0  0
 22 23  1  6  0  0  0
 22  3  1  0  0  0  0
 24 22  1  0  0  0  0
 25 24  2  0  0  0  0
 26 29  1  0  0  0  0
 26 25  1  0  0  0  0
 27 29  2  0  0  0  0
 28 35  1  0  0  0  0
 29 28  1  0  0  0  0
 31 33  1  0  0  0  0
 32 30  1  0  0  0  0
 33 30  1  0  0  0  0
 34 32  1  0  0  0  0
 35 31  1  0  0  0  0
 35 34  1  0  0  0  0
M  END
>  <MODEL>
9

>  <REMARK>
 VINA RESULT:      -6.8      2.807      5.533
  Name = 
  7 active torsions:
  status: ('A' for Active; 'I' for Inactive)
    1  A    between atoms: C_1  and  N_11
    2  A    between atoms: C_1  and  C_23
    3  A    between atoms: C_4  and  C_8
    4  A    between atoms: C_4  and  C_9
    5  A    between atoms: C_6  and  C_10
    6  A    between atoms: N_19  and  C_29
    7  A    between atoms: N_21  and  C_30
                            x       y       z     vdW  Elec       q    Type
                         _______ _______ _______ _____ _____    ______ ____

>  <TORSDO>
F 7

$$$$
