=
 OpenBabel11042419283D

 40 42  0  0  1  0  0  0  0  0999 V2000
  184.2380  178.6660  144.7030 C   0  0  0  0  0  2  0  0  0  0  0  0
  187.6770  176.3830  141.4470 C   0  0  0  0  0  2  0  0  0  0  0  0
  184.5260  178.6080  146.1900 C   0  0  0  0  0  2  0  0  0  0  0  0
  188.4480  174.3710  142.7420 C   0  0  0  0  0  2  0  0  0  0  0  0
  186.4010  177.2490  144.5190 C   0  0  0  0  0  0  0  0  0  0  0  0
  187.5490  176.9040  143.8900 C   0  0  0  0  0  0  0  0  0  0  0  0
  188.5710  176.0450  144.5330 C   0  0  0  0  0  0  0  0  0  0  0  0
  184.9350  177.6580  142.6670 O   0  0  0  0  0  1  0  0  0  0  0  0
  188.7230  175.2770  141.5460 C   0  0  1  0  0  3  0  0  0  0  0  0
  185.4280  178.2140  143.8490 C   0  0  1  0  0  3  0  0  0  0  0  0
  188.9810  174.9400  143.9760 N   0  0  0  0  0  0  0  0  0  0  0  0
  184.8240  177.1650  146.5360 C   0  0  0  0  0  2  0  0  0  0  0  0
  187.8810  177.4390  142.5250 C   0  0  0  0  0  2  0  0  0  0  0  0
  186.1540  176.7410  145.9270 C   0  0  0  0  0  2  0  0  0  0  0  0
  189.1460  176.4690  145.7740 N   0  0  0  0  0  2  0  0  0  0  0  0
  189.8470  173.6680  139.8960 C   0  0  0  0  0  0  0  0  0  0  0  0
  190.8820  173.5780  140.6110 O   0  0  0  0  0  0  0  0  0  0  0  0
  188.7520  174.4950  140.3140 N   0  0  0  0  0  2  0  0  0  0  0  0
  189.2730  173.5430  137.4710 C   0  0  0  0  0  3  0  0  0  0  0  0
  190.0960  170.8630  137.3640 C   0  0  0  0  0  0  0  0  0  0  0  0
  189.7640  172.9210  138.6280 C   0  0  0  0  0  0  0  0  0  0  0  0
  190.1740  171.5830  138.5650 C   0  0  0  0  0  3  0  0  0  0  0  0
  189.6030  171.5000  136.2160 C   0  0  0  0  0  3  0  0  0  0  0  0
  189.1930  172.8350  136.2700 C   0  0  0  0  0  3  0  0  0  0  0  0
  190.5270  169.4560  137.3110 C   0  0  0  0  0  0  0  0  0  0  0  0
  190.1140  168.6310  138.1690 O   0  0  0  0  0  0  0  0  0  0  0  0
  191.4150  169.0110  136.2890 N   0  0  0  0  0  1  0  0  0  0  0  0
  190.2020  175.7280  146.4470 C   0  0  0  0  0  2  0  0  0  0  0  0
  191.3890  176.5600  146.5560 N   0  0  0  0  0  2  0  0  0  0  0  0
  192.3630  176.0390  145.6130 C   0  0  2  0  0  3  0  0  0  0  0  0
  193.6330  175.6690  146.3670 C   0  0  0  0  0  2  0  0  0  0  0  0
  194.3490  174.6040  145.6830 N   0  0  0  0  0  2  0  0  0  0  0  0
  195.7190  174.8560  145.8410 N   0  0  0  0  0  2  0  0  0  0  0  0
  196.3890  175.0220  144.2540 S   0  0  0  0  0  0  0  0  0  0  0  0
  195.5540  173.9760  143.1600 N   0  0  0  0  0  1  0  0  0  0  0  0
  197.8470  174.6610  144.2780 O   0  0  0  0  0  0  0  0  0  0  0  0
  196.2340  176.4450  143.7970 O   0  0  0  0  0  0  0  0  0  0  0  0
  192.6520  177.0970  144.5560 C   0  0  0  0  0  2  0  0  0  0  0  0
  192.2870  175.8010  142.8090 C   0  0  0  0  0  1  0  0  0  0  0  0
  191.7990  176.9310  143.4640 O   0  0  0  0  0  0  0  0  0  0  0  0
  1  3  1  0  0  0  0
  2  9  1  0  0  0  0
  2 13  1  0  0  0  0
  3 12  1  0  0  0  0
  4 11  1  0  0  0  0
  5 14  1  0  0  0  0
  6  5  2  0  0  0  0
  6  7  1  0  0  0  0
  7 15  1  0  0  0  0
  9 18  1  6  0  0  0
  9  4  1  0  0  0  0
 10  8  1  6  0  0  0
 10  5  1  0  0  0  0
 10  1  1  0  0  0  0
 11  7  2  0  0  0  0
 13  6  1  0  0  0  0
 14 12  1  0  0  0  0
 15 28  1  0  0  0  0
 16 18  1  0  0  0  0
 16 17  2  0  0  0  0
 19 21  1  0  0  0  0
 20 22  1  0  0  0  0
 21 16  1  0  0  0  0
 22 21  2  0  0  0  0
 23 24  1  0  0  0  0
 23 20  2  0  0  0  0
 24 19  2  0  0  0  0
 25 20  1  0  0  0  0
 25 26  2  0  0  0  0
 27 25  1  0  0  0  0
 28 29  1  0  0  0  0
 30 38  1  6  0  0  0
 30 31  1  0  0  0  0
 30 29  1  0  0  0  0
 32 33  1  0  0  0  0
 32 31  1  0  0  0  0
 34 36  2  0  0  0  0
 34 33  1  0  0  0  0
 35 34  1  0  0  0  0
 37 34  2  0  0  0  0
 39 40  1  0  0  0  0
 40 38  1  0  0  0  0
M  END
>  <MODEL>
1

>  <REMARK>
 VINA RESULT:      -6.9      0.000      0.000
  Name = 
  12 active torsions:
  status: ('A' for Active; 'I' for Inactive)
    1  A    between atoms: C_1  and  C_12
    2  A    between atoms: C_2  and  N_9
    3  A    between atoms: C_2  and  C_27
    4  A    between atoms: C_2  and  C_30
    5  A    between atoms: S_4  and  N_40
    6  A    between atoms: C_6  and  C_11
    7  A    between atoms: N_9  and  C_19
    8  A    between atoms: N_16  and  C_27
    9  A    between atoms: N_16  and  N_40
   10  A    between atoms: C_19  and  N_38
   11  A    between atoms: O_26  and  C_30
   12  A    between atoms: C_28  and  N_39
                            x       y       z     vdW  Elec       q    Type
                         _______ _______ _______ _____ _____    ______ ____

>  <TORSDO>
F 12

$$$$
=
 OpenBabel11042419283D

 40 42  0  0  1  0  0  0  0  0999 V2000
  189.7480  171.6460  137.5380 C   0  0  0  0  0  2  0  0  0  0  0  0
  188.7210  173.7600  142.2410 C   0  0  0  0  0  2  0  0  0  0  0  0
  191.2000  171.4580  137.1500 C   0  0  0  0  0  2  0  0  0  0  0  0
  190.5760  175.4300  142.5400 C   0  0  0  0  0  2  0  0  0  0  0  0
  190.7560  172.7070  139.6780 C   0  0  0  0  0  0  0  0  0  0  0  0
  190.7400  172.9440  141.0110 C   0  0  0  0  0  0  0  0  0  0  0  0
  191.9010  173.5340  141.7190 C   0  0  0  0  0  0  0  0  0  0  0  0
  188.4200  172.7920  139.1430 O   0  0  0  0  0  1  0  0  0  0  0  0
  189.4550  174.6610  143.2310 C   0  0  1  0  0  3  0  0  0  0  0  0
  189.5710  172.0110  139.0170 C   0  0  1  0  0  3  0  0  0  0  0  0
  191.7870  174.6230  142.4260 N   0  0  0  0  0  0  0  0  0  0  0  0
  191.9070  172.7740  137.3910 C   0  0  0  0  0  2  0  0  0  0  0  0
  189.5640  172.5510  141.8590 C   0  0  0  0  0  2  0  0  0  0  0  0
  192.0010  173.0560  138.8850 C   0  0  0  0  0  2  0  0  0  0  0  0
  193.1630  172.8610  141.6520 N   0  0  0  0  0  2  0  0  0  0  0  0
  188.6080  176.0310  145.2250 C   0  0  0  0  0  0  0  0  0  0  0  0
  189.5420  175.6200  145.9670 O   0  0  0  0  0  0  0  0  0  0  0  0
  188.5210  175.5850  143.8640 N   0  0  0  0  0  2  0  0  0  0  0  0
  187.4080  177.0840  147.1420 C   0  0  0  0  0  3  0  0  0  0  0  0
  185.8780  178.6500  145.3880 C   0  0  0  0  0  0  0  0  0  0  0  0
  187.6050  176.9690  145.7590 C   0  0  0  0  0  0  0  0  0  0  0  0
  186.8370  177.7560  144.8900 C   0  0  0  0  0  3  0  0  0  0  0  0
  185.6940  178.7520  146.7740 C   0  0  0  0  0  3  0  0  0  0  0  0
  186.4560  177.9720  147.6480 C   0  0  0  0  0  3  0  0  0  0  0  0
  185.0740  179.4690  144.4650 C   0  0  0  0  0  0  0  0  0  0  0  0
  185.5090  180.5790  144.0550 O   0  0  0  0  0  0  0  0  0  0  0  0
  183.7960  179.0180  144.0260 N   0  0  0  0  0  1  0  0  0  0  0  0
  194.3420  173.3250  142.3670 C   0  0  0  0  0  2  0  0  0  0  0  0
  194.8800  172.2440  143.1770 N   0  0  0  0  0  2  0  0  0  0  0  0
  194.9650  172.7360  144.5410 C   0  0  2  0  0  3  0  0  0  0  0  0
  196.0000  173.8520  144.6000 C   0  0  0  0  0  2  0  0  0  0  0  0
  195.6400  174.8370  145.6070 N   0  0  0  0  0  2  0  0  0  0  0  0
  195.0270  175.9080  144.9400 N   0  0  0  0  0  2  0  0  0  0  0  0
  193.6240  176.3380  145.8570 S   0  0  0  0  0  0  0  0  0  0  0  0
  192.8910  174.9110  146.4990 N   0  0  0  0  0  1  0  0  0  0  0  0
  192.6410  177.0540  144.9750 O   0  0  0  0  0  0  0  0  0  0  0  0
  194.0290  177.2410  146.9880 O   0  0  0  0  0  0  0  0  0  0  0  0
  195.3560  171.5890  145.4630 C   0  0  0  0  0  2  0  0  0  0  0  0
  197.1440  170.2980  145.4240 C   0  0  0  0  0  1  0  0  0  0  0  0
  196.7330  171.6040  145.6920 O   0  0  0  0  0  0  0  0  0  0  0  0
  1 10  1  0  0  0  0
  2  9  1  0  0  0  0
  3 12  1  0  0  0  0
  3  1  1  0  0  0  0
  4  9  1  0  0  0  0
  5  6  2  0  0  0  0
  6  7  1  0  0  0  0
  6 13  1  0  0  0  0
  7 11  2  0  0  0  0
  9 18  1  6  0  0  0
 10  8  1  6  0  0  0
 10  5  1  0  0  0  0
 11  4  1  0  0  0  0
 12 14  1  0  0  0  0
 13  2  1  0  0  0  0
 14  5  1  0  0  0  0
 15  7  1  0  0  0  0
 15 28  1  0  0  0  0
 16 21  1  0  0  0  0
 16 17  2  0  0  0  0
 18 16  1  0  0  0  0
 19 24  1  0  0  0  0
 20 23  1  0  0  0  0
 21 19  2  0  0  0  0
 22 20  2  0  0  0  0
 22 21  1  0  0  0  0
 23 24  2  0  0  0  0
 25 20  1  0  0  0  0
 26 25  2  0  0  0  0
 27 25  1  0  0  0  0
 28 29  1  0  0  0  0
 29 30  1  0  0  0  0
 30 31  1  6  0  0  0
 30 38  1  0  0  0  0
 31 32  1  0  0  0  0
 33 32  1  0  0  0  0
 33 34  1  0  0  0  0
 34 35  1  0  0  0  0
 34 37  2  0  0  0  0
 36 34  2  0  0  0  0
 38 40  1  0  0  0  0
 39 40  1  0  0  0  0
M  END
>  <MODEL>
2

>  <REMARK>
 VINA RESULT:      -6.5      2.710      8.219
  Name = 
  12 active torsions:
  status: ('A' for Active; 'I' for Inactive)
    1  A    between atoms: C_1  and  C_12
    2  A    between atoms: C_2  and  N_9
    3  A    between atoms: C_2  and  C_27
    4  A    between atoms: C_2  and  C_30
    5  A    between atoms: S_4  and  N_40
    6  A    between atoms: C_6  and  C_11
    7  A    between atoms: N_9  and  C_19
    8  A    between atoms: N_16  and  C_27
    9  A    between atoms: N_16  and  N_40
   10  A    between atoms: C_19  and  N_38
   11  A    between atoms: O_26  and  C_30
   12  A    between atoms: C_28  and  N_39
                            x       y       z     vdW  Elec       q    Type
                         _______ _______ _______ _____ _____    ______ ____

>  <TORSDO>
F 12

$$$$
=
 OpenBabel11042419283D

 40 42  0  0  1  0  0  0  0  0999 V2000
  196.5210  174.1150  146.3160 C   0  0  0  0  0  2  0  0  0  0  0  0
  192.2390  176.4850  144.3960 C   0  0  0  0  0  2  0  0  0  0  0  0
  197.1660  173.0310  145.4760 C   0  0  0  0  0  2  0  0  0  0  0  0
  191.0510  174.6330  143.1810 C   0  0  0  0  0  2  0  0  0  0  0  0
  194.7890  174.1800  144.3880 C   0  0  0  0  0  0  0  0  0  0  0  0
  193.9400  174.8480  143.5720 C   0  0  0  0  0  0  0  0  0  0  0  0
  193.3330  174.2110  142.3790 C   0  0  0  0  0  0  0  0  0  0  0  0
  194.4990  175.3570  146.4570 O   0  0  0  0  0  1  0  0  0  0  0  0
  191.1440  176.1410  143.3910 C   0  0  1  0  0  3  0  0  0  0  0  0
  195.4600  174.9100  145.5470 C   0  0  1  0  0  3  0  0  0  0  0  0
  192.0410  174.1670  142.2140 N   0  0  0  0  0  0  0  0  0  0  0  0
  196.0720  172.0690  145.0640 C   0  0  0  0  0  2  0  0  0  0  0  0
  193.6250  176.3000  143.7940 C   0  0  0  0  0  2  0  0  0  0  0  0
  195.1300  172.7360  144.0720 C   0  0  0  0  0  2  0  0  0  0  0  0
  194.1960  173.6740  141.3710 N   0  0  0  0  0  2  0  0  0  0  0  0
  189.0290  177.5540  143.0730 C   0  0  0  0  0  0  0  0  0  0  0  0
  189.3910  177.9290  141.9250 O   0  0  0  0  0  0  0  0  0  0  0  0
  189.8600  176.6710  143.8390 N   0  0  0  0  0  2  0  0  0  0  0  0
  186.7840  178.6050  142.7920 C   0  0  0  0  0  3  0  0  0  0  0  0
  186.2650  178.3490  145.5360 C   0  0  0  0  0  0  0  0  0  0  0  0
  187.7480  178.0260  143.6280 C   0  0  0  0  0  0  0  0  0  0  0  0
  187.4790  177.9000  144.9980 C   0  0  0  0  0  3  0  0  0  0  0  0
  185.3120  178.9260  144.6850 C   0  0  0  0  0  3  0  0  0  0  0  0
  185.5700  179.0540  143.3180 C   0  0  0  0  0  3  0  0  0  0  0  0
  185.9960  178.2150  146.9780 C   0  0  0  0  0  0  0  0  0  0  0  0
  185.6650  177.1000  147.4640 O   0  0  0  0  0  0  0  0  0  0  0  0
  186.1040  179.3450  147.8400 N   0  0  0  0  0  1  0  0  0  0  0  0
  193.6960  173.0920  140.1340 C   0  0  0  0  0  2  0  0  0  0  0  0
  193.9200  171.6550  140.1440 N   0  0  0  0  0  2  0  0  0  0  0  0
  192.6560  171.0250  139.8060 C   0  0  2  0  0  3  0  0  0  0  0  0
  191.9280  171.8920  138.7870 C   0  0  0  0  0  2  0  0  0  0  0  0
  190.5760  172.1890  139.2330 N   0  0  0  0  0  2  0  0  0  0  0  0
  190.2930  173.5070  138.8510 N   0  0  0  0  0  2  0  0  0  0  0  0
  188.6300  173.7980  139.2290 S   0  0  0  0  0  0  0  0  0  0  0  0
  188.5180  174.6800  140.7110 N   0  0  0  0  0  1  0  0  0  0  0  0
  187.9050  172.4890  139.3690 O   0  0  0  0  0  0  0  0  0  0  0  0
  188.0020  174.6000  138.1250 O   0  0  0  0  0  0  0  0  0  0  0  0
  191.8220  170.8650  141.0710 C   0  0  0  0  0  2  0  0  0  0  0  0
  192.0830  170.6990  143.2550 C   0  0  0  0  0  1  0  0  0  0  0  0
  192.5530  170.1860  142.0460 O   0  0  0  0  0  0  0  0  0  0  0  0
  3  1  1  0  0  0  0
  4  9  1  0  0  0  0
  5 10  1  0  0  0  0
  6 13  1  0  0  0  0
  6  5  2  0  0  0  0
  7  6  1  0  0  0  0
  9 18  1  1  0  0  0
  9  2  1  0  0  0  0
 10  1  1  0  0  0  0
 10  8  1  1  0  0  0
 11  7  2  0  0  0  0
 11  4  1  0  0  0  0
 12  3  1  0  0  0  0
 13  2  1  0  0  0  0
 14  5  1  0  0  0  0
 14 12  1  0  0  0  0
 15  7  1  0  0  0  0
 16 21  1  0  0  0  0
 16 18  1  0  0  0  0
 17 16  2  0  0  0  0
 19 24  2  0  0  0  0
 19 21  1  0  0  0  0
 20 25  1  0  0  0  0
 21 22  2  0  0  0  0
 22 20  1  0  0  0  0
 23 20  2  0  0  0  0
 24 23  1  0  0  0  0
 25 26  2  0  0  0  0
 25 27  1  0  0  0  0
 28 29  1  0  0  0  0
 28 15  1  0  0  0  0
 30 31  1  6  0  0  0
 30 29  1  0  0  0  0
 30 38  1  0  0  0  0
 31 32  1  0  0  0  0
 33 34  1  0  0  0  0
 33 32  1  0  0  0  0
 34 36  2  0  0  0  0
 34 35  1  0  0  0  0
 37 34  2  0  0  0  0
 38 40  1  0  0  0  0
 40 39  1  0  0  0  0
M  END
>  <MODEL>
3

>  <REMARK>
 VINA RESULT:      -6.5      3.249      9.149
  Name = 
  12 active torsions:
  status: ('A' for Active; 'I' for Inactive)
    1  A    between atoms: C_1  and  C_12
    2  A    between atoms: C_2  and  N_9
    3  A    between atoms: C_2  and  C_27
    4  A    between atoms: C_2  and  C_30
    5  A    between atoms: S_4  and  N_40
    6  A    between atoms: C_6  and  C_11
    7  A    between atoms: N_9  and  C_19
    8  A    between atoms: N_16  and  C_27
    9  A    between atoms: N_16  and  N_40
   10  A    between atoms: C_19  and  N_38
   11  A    between atoms: O_26  and  C_30
   12  A    between atoms: C_28  and  N_39
                            x       y       z     vdW  Elec       q    Type
                         _______ _______ _______ _____ _____    ______ ____

>  <TORSDO>
F 12

$$$$
=
 OpenBabel11042419283D

 40 42  0  0  1  0  0  0  0  0999 V2000
  184.4240  178.4630  144.3600 C   0  0  0  0  0  2  0  0  0  0  0  0
  187.8070  175.9740  141.1970 C   0  0  0  0  0  2  0  0  0  0  0  0
  184.7800  178.5720  145.8290 C   0  0  0  0  0  2  0  0  0  0  0  0
  188.7150  174.1380  142.6550 C   0  0  0  0  0  2  0  0  0  0  0  0
  186.6330  177.1130  144.2210 C   0  0  0  0  0  0  0  0  0  0  0  0
  187.7660  176.7440  143.5770 C   0  0  0  0  0  0  0  0  0  0  0  0
  188.8480  175.9940  144.2560 C   0  0  0  0  0  0  0  0  0  0  0  0
  185.0720  177.2710  142.4080 O   0  0  0  0  0  1  0  0  0  0  0  0
  188.9000  174.9220  141.3600 C   0  0  1  0  0  3  0  0  0  0  0  0
  185.5930  177.9660  143.5020 C   0  0  1  0  0  3  0  0  0  0  0  0
  189.2770  174.8530  143.7970 N   0  0  0  0  0  0  0  0  0  0  0  0
  185.1500  177.1850  146.3080 C   0  0  0  0  0  2  0  0  0  0  0  0
  188.0150  177.1440  142.1490 C   0  0  0  0  0  2  0  0  0  0  0  0
  186.4680  176.7470  145.6840 C   0  0  0  0  0  2  0  0  0  0  0  0
  189.4590  176.5670  145.4180 N   0  0  0  0  0  2  0  0  0  0  0  0
  190.0810  173.4060  139.6630 C   0  0  0  0  0  0  0  0  0  0  0  0
  191.2130  173.6390  140.1680 O   0  0  0  0  0  0  0  0  0  0  0  0
  188.9070  174.0160  140.2160 N   0  0  0  0  0  2  0  0  0  0  0  0
  189.4960  172.9890  137.2740 C   0  0  0  0  0  3  0  0  0  0  0  0
  190.2160  170.2890  137.5170 C   0  0  0  0  0  0  0  0  0  0  0  0
  189.9660  172.5050  138.5030 C   0  0  0  0  0  0  0  0  0  0  0  0
  190.3250  171.1540  138.6150 C   0  0  0  0  0  3  0  0  0  0  0  0
  189.7450  170.7900  136.2950 C   0  0  0  0  0  3  0  0  0  0  0  0
  189.3860  172.1360  136.1740 C   0  0  0  0  0  3  0  0  0  0  0  0
  190.5930  168.8710  137.6480 C   0  0  0  0  0  0  0  0  0  0  0  0
  191.1420  168.2670  136.6870 O   0  0  0  0  0  0  0  0  0  0  0  0
  190.3400  168.1660  138.8600 N   0  0  0  0  0  1  0  0  0  0  0  0
  190.5730  175.9400  146.1120 C   0  0  0  0  0  2  0  0  0  0  0  0
  191.7630  176.7620  145.9710 N   0  0  0  0  0  2  0  0  0  0  0  0
  192.8550  175.8740  145.6140 C   0  0  2  0  0  3  0  0  0  0  0  0
  192.3730  174.4320  145.7170 C   0  0  0  0  0  2  0  0  0  0  0  0
  192.5370  173.7410  144.4480 N   0  0  0  0  0  2  0  0  0  0  0  0
  192.0160  172.4500  144.6080 N   0  0  0  0  0  2  0  0  0  0  0  0
  193.0920  171.3660  143.7960 S   0  0  0  0  0  0  0  0  0  0  0  0
  192.4110  170.9010  142.2780 N   0  0  0  0  0  1  0  0  0  0  0  0
  193.3150  170.1430  144.6410 O   0  0  0  0  0  0  0  0  0  0  0  0
  194.4060  172.0550  143.5610 O   0  0  0  0  0  0  0  0  0  0  0  0
  194.0280  176.1190  146.5540 C   0  0  0  0  0  2  0  0  0  0  0  0
  195.1720  176.5760  144.7250 C   0  0  0  0  0  1  0  0  0  0  0  0
  194.8970  177.0610  146.0030 O   0  0  0  0  0  0  0  0  0  0  0  0
  1  3  1  0  0  0  0
  2  9  1  0  0  0  0
  2 13  1  0  0  0  0
  3 12  1  0  0  0  0
  4 11  1  0  0  0  0
  5 14  1  0  0  0  0
  6  5  2  0  0  0  0
  6  7  1  0  0  0  0
  7 15  1  0  0  0  0
  9 18  1  6  0  0  0
  9  4  1  0  0  0  0
 10  8  1  6  0  0  0
 10  5  1  0  0  0  0
 10  1  1  0  0  0  0
 11  7  2  0  0  0  0
 13  6  1  0  0  0  0
 14 12  1  0  0  0  0
 15 28  1  0  0  0  0
 16 17  2  0  0  0  0
 16 18  1  0  0  0  0
 19 21  1  0  0  0  0
 20 25  1  0  0  0  0
 20 22  1  0  0  0  0
 21 22  2  0  0  0  0
 21 16  1  0  0  0  0
 23 20  2  0  0  0  0
 24 23  1  0  0  0  0
 24 19  2  0  0  0  0
 25 27  1  0  0  0  0
 26 25  2  0  0  0  0
 29 28  1  0  0  0  0
 30 31  1  1  0  0  0
 30 29  1  0  0  0  0
 30 38  1  0  0  0  0
 32 33  1  0  0  0  0
 32 31  1  0  0  0  0
 34 33  1  0  0  0  0
 34 36  2  0  0  0  0
 35 34  1  0  0  0  0
 37 34  2  0  0  0  0
 39 40  1  0  0  0  0
 40 38  1  0  0  0  0
M  END
>  <MODEL>
4

>  <REMARK>
 VINA RESULT:      -6.5      1.933      2.198
  Name = 
  12 active torsions:
  status: ('A' for Active; 'I' for Inactive)
    1  A    between atoms: C_1  and  C_12
    2  A    between atoms: C_2  and  N_9
    3  A    between atoms: C_2  and  C_27
    4  A    between atoms: C_2  and  C_30
    5  A    between atoms: S_4  and  N_40
    6  A    between atoms: C_6  and  C_11
    7  A    between atoms: N_9  and  C_19
    8  A    between atoms: N_16  and  C_27
    9  A    between atoms: N_16  and  N_40
   10  A    between atoms: C_19  and  N_38
   11  A    between atoms: O_26  and  C_30
   12  A    between atoms: C_28  and  N_39
                            x       y       z     vdW  Elec       q    Type
                         _______ _______ _______ _____ _____    ______ ____

>  <TORSDO>
F 12

$$$$
=
 OpenBabel11042419283D

 40 42  0  0  1  0  0  0  0  0999 V2000
  190.0430  171.3040  137.5280 C   0  0  0  0  0  2  0  0  0  0  0  0
  188.8860  173.4410  142.1890 C   0  0  0  0  0  2  0  0  0  0  0  0
  191.5060  171.1450  137.1660 C   0  0  0  0  0  2  0  0  0  0  0  0
  190.6960  175.1580  142.5010 C   0  0  0  0  0  2  0  0  0  0  0  0
  190.9890  172.4100  139.6730 C   0  0  0  0  0  0  0  0  0  0  0  0
  190.9450  172.6610  141.0030 C   0  0  0  0  0  0  0  0  0  0  0  0
  192.0790  173.2850  141.7230 C   0  0  0  0  0  0  0  0  0  0  0  0
  188.6610  172.4340  139.0970 O   0  0  0  0  0  1  0  0  0  0  0  0
  189.5820  174.3690  143.1810 C   0  0  1  0  0  3  0  0  0  0  0  0
  189.8320  171.6790  138.9990 C   0  0  1  0  0  3  0  0  0  0  0  0
  191.9270  174.3780  142.4160 N   0  0  0  0  0  0  0  0  0  0  0  0
  192.1770  172.4810  137.4040 C   0  0  0  0  0  2  0  0  0  0  0  0
  189.7630  172.2480  141.8350 C   0  0  0  0  0  2  0  0  0  0  0  0
  192.2390  172.7800  138.8960 C   0  0  0  0  0  2  0  0  0  0  0  0
  193.3580  172.6410  141.6850 N   0  0  0  0  0  2  0  0  0  0  0  0
  188.7200  175.8140  145.1150 C   0  0  0  0  0  0  0  0  0  0  0  0
  189.6990  175.5060  145.8480 O   0  0  0  0  0  0  0  0  0  0  0  0
  188.6150  175.2770  143.7890 N   0  0  0  0  0  2  0  0  0  0  0  0
  187.4060  176.7910  146.9980 C   0  0  0  0  0  3  0  0  0  0  0  0
  185.9620  178.4070  145.2180 C   0  0  0  0  0  0  0  0  0  0  0  0
  187.6800  176.7260  145.6250 C   0  0  0  0  0  0  0  0  0  0  0  0
  186.9550  177.5380  144.7430 C   0  0  0  0  0  3  0  0  0  0  0  0
  185.7010  178.4590  146.5950 C   0  0  0  0  0  3  0  0  0  0  0  0
  186.4200  177.6540  147.4820 C   0  0  0  0  0  3  0  0  0  0  0  0
  185.2040  179.2530  144.2810 C   0  0  0  0  0  0  0  0  0  0  0  0
  185.5830  180.4290  144.0340 O   0  0  0  0  0  0  0  0  0  0  0  0
  184.0310  178.7530  143.6440 N   0  0  0  0  0  1  0  0  0  0  0  0
  194.5130  173.1400  142.4150 C   0  0  0  0  0  2  0  0  0  0  0  0
  195.4550  173.7440  141.4870 N   0  0  0  0  0  2  0  0  0  0  0  0
  196.2480  174.6960  142.2440 C   0  0  2  0  0  3  0  0  0  0  0  0
  195.4420  175.9760  142.4270 C   0  0  0  0  0  2  0  0  0  0  0  0
  195.5140  176.4390  143.8040 N   0  0  0  0  0  2  0  0  0  0  0  0
  194.2070  176.4320  144.3120 N   0  0  0  0  0  2  0  0  0  0  0  0
  194.2570  175.5970  145.8260 S   0  0  0  0  0  0  0  0  0  0  0  0
  193.0640  174.3460  145.8380 N   0  0  0  0  0  1  0  0  0  0  0  0
  193.9840  176.5600  146.9470 O   0  0  0  0  0  0  0  0  0  0  0  0
  195.6180  174.9880  146.0110 O   0  0  0  0  0  0  0  0  0  0  0  0
  197.5440  174.9770  141.4940 C   0  0  0  0  0  2  0  0  0  0  0  0
  197.8360  175.5260  139.3780 C   0  0  0  0  0  1  0  0  0  0  0  0
  197.4720  174.4590  140.2010 O   0  0  0  0  0  0  0  0  0  0  0  0
  1 10  1  0  0  0  0
  2  9  1  0  0  0  0
  3 12  1  0  0  0  0
  3  1  1  0  0  0  0
  4  9  1  0  0  0  0
  5  6  2  0  0  0  0
  6  7  1  0  0  0  0
  6 13  1  0  0  0  0
  7 11  2  0  0  0  0
  9 18  1  6  0  0  0
 10  8  1  6  0  0  0
 10  5  1  0  0  0  0
 11  4  1  0  0  0  0
 12 14  1  0  0  0  0
 13  2  1  0  0  0  0
 14  5  1  0  0  0  0
 15  7  1  0  0  0  0
 15 28  1  0  0  0  0
 16 21  1  0  0  0  0
 16 17  2  0  0  0  0
 18 16  1  0  0  0  0
 19 24  1  0  0  0  0
 20 23  1  0  0  0  0
 21 19  2  0  0  0  0
 22 20  2  0  0  0  0
 22 21  1  0  0  0  0
 23 24  2  0  0  0  0
 25 20  1  0  0  0  0
 26 25  2  0  0  0  0
 27 25  1  0  0  0  0
 29 30  1  0  0  0  0
 29 28  1  0  0  0  0
 30 38  1  6  0  0  0
 30 31  1  0  0  0  0
 31 32  1  0  0  0  0
 32 33  1  0  0  0  0
 33 34  1  0  0  0  0
 34 35  1  0  0  0  0
 34 37  2  0  0  0  0
 34 36  2  0  0  0  0
 39 40  1  0  0  0  0
 40 38  1  0  0  0  0
M  END
>  <MODEL>
5

>  <REMARK>
 VINA RESULT:      -6.4      2.812      8.183
  Name = 
  12 active torsions:
  status: ('A' for Active; 'I' for Inactive)
    1  A    between atoms: C_1  and  C_12
    2  A    between atoms: C_2  and  N_9
    3  A    between atoms: C_2  and  C_27
    4  A    between atoms: C_2  and  C_30
    5  A    between atoms: S_4  and  N_40
    6  A    between atoms: C_6  and  C_11
    7  A    between atoms: N_9  and  C_19
    8  A    between atoms: N_16  and  C_27
    9  A    between atoms: N_16  and  N_40
   10  A    between atoms: C_19  and  N_38
   11  A    between atoms: O_26  and  C_30
   12  A    between atoms: C_28  and  N_39
                            x       y       z     vdW  Elec       q    Type
                         _______ _______ _______ _____ _____    ______ ____

>  <TORSDO>
F 12

$$$$
=
 OpenBabel11042419283D

 40 42  0  0  1  0  0  0  0  0999 V2000
  196.3430  174.1610  146.1320 C   0  0  0  0  0  2  0  0  0  0  0  0
  191.8380  176.0970  144.2350 C   0  0  0  0  0  2  0  0  0  0  0  0
  196.8600  172.8650  145.5410 C   0  0  0  0  0  2  0  0  0  0  0  0
  190.4870  174.0350  143.7430 C   0  0  0  0  0  2  0  0  0  0  0  0
  194.3570  173.7730  144.5120 C   0  0  0  0  0  0  0  0  0  0  0  0
  193.4020  174.2290  143.6670 C   0  0  0  0  0  0  0  0  0  0  0  0
  192.6320  173.3200  142.7870 C   0  0  0  0  0  0  0  0  0  0  0  0
  194.3640  175.4760  146.2010 O   0  0  0  0  0  1  0  0  0  0  0  0
  190.6120  175.5380  143.5190 C   0  0  1  0  0  3  0  0  0  0  0  0
  195.1860  174.7620  145.3260 C   0  0  1  0  0  3  0  0  0  0  0  0
  191.3290  173.2860  142.8160 N   0  0  0  0  0  0  0  0  0  0  0  0
  195.7180  171.8730  145.5600 C   0  0  0  0  0  2  0  0  0  0  0  0
  193.1250  175.7000  143.5250 C   0  0  0  0  0  2  0  0  0  0  0  0
  194.6460  172.2850  144.5590 C   0  0  0  0  0  2  0  0  0  0  0  0
  193.3430  172.4950  141.8570 N   0  0  0  0  0  2  0  0  0  0  0  0
  188.7240  177.2500  143.2440 C   0  0  0  0  0  0  0  0  0  0  0  0
  189.1620  177.6280  142.1230 O   0  0  0  0  0  0  0  0  0  0  0  0
  189.4050  176.2210  143.9750 N   0  0  0  0  0  2  0  0  0  0  0  0
  186.7030  178.6950  143.0070 C   0  0  0  0  0  3  0  0  0  0  0  0
  185.9950  178.2290  145.6810 C   0  0  0  0  0  0  0  0  0  0  0  0
  187.5090  177.8700  143.8040 C   0  0  0  0  0  0  0  0  0  0  0  0
  187.1470  177.6420  145.1390 C   0  0  0  0  0  3  0  0  0  0  0  0
  185.2000  179.0510  144.8690 C   0  0  0  0  0  3  0  0  0  0  0  0
  185.5530  179.2830  143.5370 C   0  0  0  0  0  3  0  0  0  0  0  0
  185.6270  177.9850  147.0860 C   0  0  0  0  0  0  0  0  0  0  0  0
  184.7150  178.6620  147.6320 O   0  0  0  0  0  0  0  0  0  0  0  0
  186.2980  176.9820  147.8440 N   0  0  0  0  0  1  0  0  0  0  0  0
  192.6720  171.6220  140.9060 C   0  0  0  0  0  2  0  0  0  0  0  0
  193.4830  171.4890  139.7070 N   0  0  0  0  0  2  0  0  0  0  0  0
  193.1330  172.5940  138.8320 C   0  0  2  0  0  3  0  0  0  0  0  0
  191.9830  172.1660  137.9300 C   0  0  0  0  0  2  0  0  0  0  0  0
  190.9800  173.2160  137.8390 N   0  0  0  0  0  2  0  0  0  0  0  0
  190.8090  173.7380  139.1290 N   0  0  0  0  0  2  0  0  0  0  0  0
  189.2140  173.3070  139.6420 S   0  0  0  0  0  0  0  0  0  0  0  0
  188.5860  174.5380  140.6810 N   0  0  0  0  0  1  0  0  0  0  0  0
  189.2540  172.0000  140.3810 O   0  0  0  0  0  0  0  0  0  0  0  0
  188.3250  173.1730  138.4370 O   0  0  0  0  0  0  0  0  0  0  0  0
  194.3520  172.9820  138.0050 C   0  0  0  0  0  2  0  0  0  0  0  0
  194.2210  174.9080  139.0710 C   0  0  0  0  0  1  0  0  0  0  0  0
  194.3720  174.3620  137.7970 O   0  0  0  0  0  0  0  0  0  0  0  0
  3 12  1  0  0  0  0
  3  1  1  0  0  0  0
  5 14  1  0  0  0  0
  5 10  1  0  0  0  0
  6  5  2  0  0  0  0
  7 11  2  0  0  0  0
  7  6  1  0  0  0  0
  9  4  1  0  0  0  0
  9 18  1  1  0  0  0
  9  2  1  0  0  0  0
 10  1  1  0  0  0  0
 10  8  1  1  0  0  0
 11  4  1  0  0  0  0
 13  6  1  0  0  0  0
 13  2  1  0  0  0  0
 14 12  1  0  0  0  0
 15  7  1  0  0  0  0
 16 21  1  0  0  0  0
 16 18  1  0  0  0  0
 17 16  2  0  0  0  0
 19 24  2  0  0  0  0
 19 21  1  0  0  0  0
 20 25  1  0  0  0  0
 21 22  2  0  0  0  0
 22 20  1  0  0  0  0
 23 20  2  0  0  0  0
 24 23  1  0  0  0  0
 25 26  2  0  0  0  0
 25 27  1  0  0  0  0
 28 15  1  0  0  0  0
 29 28  1  0  0  0  0
 30 31  1  6  0  0  0
 30 29  1  0  0  0  0
 32 31  1  0  0  0  0
 32 33  1  0  0  0  0
 33 34  1  0  0  0  0
 34 36  2  0  0  0  0
 34 35  1  0  0  0  0
 37 34  2  0  0  0  0
 38 30  1  0  0  0  0
 40 38  1  0  0  0  0
 40 39  1  0  0  0  0
M  END
>  <MODEL>
6

>  <REMARK>
 VINA RESULT:      -6.3      3.187      9.036
  Name = 
  12 active torsions:
  status: ('A' for Active; 'I' for Inactive)
    1  A    between atoms: C_1  and  C_12
    2  A    between atoms: C_2  and  N_9
    3  A    between atoms: C_2  and  C_27
    4  A    between atoms: C_2  and  C_30
    5  A    between atoms: S_4  and  N_40
    6  A    between atoms: C_6  and  C_11
    7  A    between atoms: N_9  and  C_19
    8  A    between atoms: N_16  and  C_27
    9  A    between atoms: N_16  and  N_40
   10  A    between atoms: C_19  and  N_38
   11  A    between atoms: O_26  and  C_30
   12  A    between atoms: C_28  and  N_39
                            x       y       z     vdW  Elec       q    Type
                         _______ _______ _______ _____ _____    ______ ____

>  <TORSDO>
F 12

$$$$
=
 OpenBabel11042419283D

 40 42  0  0  1  0  0  0  0  0999 V2000
  196.5520  173.9860  146.1570 C   0  0  0  0  0  2  0  0  0  0  0  0
  192.3160  176.6760  144.5880 C   0  0  0  0  0  2  0  0  0  0  0  0
  197.1930  173.0360  145.1660 C   0  0  0  0  0  2  0  0  0  0  0  0
  191.1210  175.0480  143.0920 C   0  0  0  0  0  2  0  0  0  0  0  0
  194.8410  174.3680  144.2470 C   0  0  0  0  0  0  0  0  0  0  0  0
  194.0080  175.1640  143.5360 C   0  0  0  0  0  0  0  0  0  0  0  0
  193.4060  174.7260  142.2550 C   0  0  0  0  0  0  0  0  0  0  0  0
  194.5420  175.2160  146.4700 O   0  0  0  0  0  1  0  0  0  0  0  0
  191.2280  176.5040  143.5330 C   0  0  1  0  0  3  0  0  0  0  0  0
  195.5070  174.9030  145.5110 C   0  0  1  0  0  3  0  0  0  0  0  0
  192.1150  174.7240  142.0730 N   0  0  0  0  0  0  0  0  0  0  0  0
  196.0940  172.1630  144.6010 C   0  0  0  0  0  2  0  0  0  0  0  0
  193.7060  176.5690  143.9770 C   0  0  0  0  0  2  0  0  0  0  0  0
  195.1690  172.9860  143.7150 C   0  0  0  0  0  2  0  0  0  0  0  0
  194.2740  174.3400  141.1830 N   0  0  0  0  0  2  0  0  0  0  0  0
  188.9140  177.5700  143.2450 C   0  0  0  0  0  0  0  0  0  0  0  0
  189.0820  177.7200  142.0040 O   0  0  0  0  0  0  0  0  0  0  0  0
  189.9450  176.9740  144.0450 N   0  0  0  0  0  2  0  0  0  0  0  0
  186.6130  178.5220  143.0890 C   0  0  0  0  0  3  0  0  0  0  0  0
  186.2930  178.3340  145.8690 C   0  0  0  0  0  0  0  0  0  0  0  0
  187.6550  178.0080  143.8740 C   0  0  0  0  0  0  0  0  0  0  0  0
  187.4860  177.9170  145.2620 C   0  0  0  0  0  3  0  0  0  0  0  0
  185.2610  178.8450  145.0690 C   0  0  0  0  0  3  0  0  0  0  0  0
  185.4200  178.9380  143.6840 C   0  0  0  0  0  3  0  0  0  0  0  0
  186.1280  178.2370  147.3290 C   0  0  0  0  0  0  0  0  0  0  0  0
  185.8020  177.1430  147.8620 O   0  0  0  0  0  0  0  0  0  0  0  0
  186.3340  179.3790  148.1560 N   0  0  0  0  0  1  0  0  0  0  0  0
  193.7800  173.9610  139.8670 C   0  0  0  0  0  2  0  0  0  0  0  0
  193.4220  172.5520  139.8660 N   0  0  0  0  0  2  0  0  0  0  0  0
  192.1780  172.4300  139.1280 C   0  0  2  0  0  3  0  0  0  0  0  0
  191.5320  171.0920  139.4660 C   0  0  0  0  0  2  0  0  0  0  0  0
  190.1940  171.2860  140.0030 N   0  0  0  0  0  2  0  0  0  0  0  0
  190.1770  172.5400  140.6290 N   0  0  0  0  0  2  0  0  0  0  0  0
  188.5400  173.0990  140.5970 S   0  0  0  0  0  0  0  0  0  0  0  0
  188.5180  174.8240  140.4920 N   0  0  0  0  0  1  0  0  0  0  0  0
  187.8290  172.6630  141.8470 O   0  0  0  0  0  0  0  0  0  0  0  0
  187.8420  172.5200  139.3990 O   0  0  0  0  0  0  0  0  0  0  0  0
  192.4700  172.5260  137.6360 C   0  0  0  0  0  2  0  0  0  0  0  0
  190.7390  173.8130  137.1780 C   0  0  0  0  0  1  0  0  0  0  0  0
  191.2770  172.5530  136.9130 O   0  0  0  0  0  0  0  0  0  0  0  0
  3  1  1  0  0  0  0
  4  9  1  0  0  0  0
  5 10  1  0  0  0  0
  6 13  1  0  0  0  0
  6  5  2  0  0  0  0
  7  6  1  0  0  0  0
  9 18  1  1  0  0  0
  9  2  1  0  0  0  0
 10  1  1  0  0  0  0
 10  8  1  1  0  0  0
 11  7  2  0  0  0  0
 11  4  1  0  0  0  0
 12  3  1  0  0  0  0
 13  2  1  0  0  0  0
 14  5  1  0  0  0  0
 14 12  1  0  0  0  0
 15  7  1  0  0  0  0
 16 21  1  0  0  0  0
 16 18  1  0  0  0  0
 17 16  2  0  0  0  0
 19 24  2  0  0  0  0
 19 21  1  0  0  0  0
 20 25  1  0  0  0  0
 21 22  2  0  0  0  0
 22 20  1  0  0  0  0
 23 20  2  0  0  0  0
 24 23  1  0  0  0  0
 25 26  2  0  0  0  0
 25 27  1  0  0  0  0
 28 15  1  0  0  0  0
 29 28  1  0  0  0  0
 30 38  1  6  0  0  0
 30 31  1  0  0  0  0
 30 29  1  0  0  0  0
 31 32  1  0  0  0  0
 32 33  1  0  0  0  0
 34 33  1  0  0  0  0
 34 36  2  0  0  0  0
 35 34  1  0  0  0  0
 37 34  2  0  0  0  0
 40 39  1  0  0  0  0
 40 38  1  0  0  0  0
M  END
>  <MODEL>
7

>  <REMARK>
 VINA RESULT:      -6.3      3.123      9.216
  Name = 
  12 active torsions:
  status: ('A' for Active; 'I' for Inactive)
    1  A    between atoms: C_1  and  C_12
    2  A    between atoms: C_2  and  N_9
    3  A    between atoms: C_2  and  C_27
    4  A    between atoms: C_2  and  C_30
    5  A    between atoms: S_4  and  N_40
    6  A    between atoms: C_6  and  C_11
    7  A    between atoms: N_9  and  C_19
    8  A    between atoms: N_16  and  C_27
    9  A    between atoms: N_16  and  N_40
   10  A    between atoms: C_19  and  N_38
   11  A    between atoms: O_26  and  C_30
   12  A    between atoms: C_28  and  N_39
                            x       y       z     vdW  Elec       q    Type
                         _______ _______ _______ _____ _____    ______ ____

>  <TORSDO>
F 12

$$$$
=
 OpenBabel11042419283D

 40 42  0  0  1  0  0  0  0  0999 V2000
  196.6040  174.1130  146.4000 C   0  0  0  0  0  2  0  0  0  0  0  0
  192.2750  176.4820  144.5870 C   0  0  0  0  0  2  0  0  0  0  0  0
  197.2220  173.0220  145.5490 C   0  0  0  0  0  2  0  0  0  0  0  0
  191.0490  174.6240  143.4170 C   0  0  0  0  0  2  0  0  0  0  0  0
  194.8190  174.1700  144.5210 C   0  0  0  0  0  0  0  0  0  0  0  0
  193.9480  174.8340  143.7250 C   0  0  0  0  0  0  0  0  0  0  0  0
  193.3060  174.1920  142.5540 C   0  0  0  0  0  0  0  0  0  0  0  0
  194.5900  175.3610  146.5900 O   0  0  0  0  0  1  0  0  0  0  0  0
  191.1510  176.1330  143.6150 C   0  0  1  0  0  3  0  0  0  0  0  0
  195.5230  174.9060  145.6570 C   0  0  1  0  0  3  0  0  0  0  0  0
  192.0100  174.1500  142.4260 N   0  0  0  0  0  0  0  0  0  0  0  0
  196.1160  172.0600  145.1740 C   0  0  0  0  0  2  0  0  0  0  0  0
  193.6430  176.2890  143.9470 C   0  0  0  0  0  2  0  0  0  0  0  0
  195.1470  172.7230  144.2050 C   0  0  0  0  0  2  0  0  0  0  0  0
  194.1390  173.6460  141.5250 N   0  0  0  0  0  2  0  0  0  0  0  0
  189.1230  176.1210  145.1830 C   0  0  0  0  0  0  0  0  0  0  0  0
  189.5420  175.1030  145.7980 O   0  0  0  0  0  0  0  0  0  0  0  0
  189.8820  176.6690  144.0950 N   0  0  0  0  0  2  0  0  0  0  0  0
  187.3290  176.5370  146.8660 C   0  0  0  0  0  3  0  0  0  0  0  0
  185.9340  178.1590  145.0520 C   0  0  0  0  0  0  0  0  0  0  0  0
  187.8500  176.7480  145.5820 C   0  0  0  0  0  0  0  0  0  0  0  0
  187.1470  177.5610  144.6820 C   0  0  0  0  0  3  0  0  0  0  0  0
  185.4270  177.9380  146.3410 C   0  0  0  0  0  3  0  0  0  0  0  0
  186.1220  177.1290  147.2450 C   0  0  0  0  0  3  0  0  0  0  0  0
  185.2030  179.0090  144.0970 C   0  0  0  0  0  0  0  0  0  0  0  0
  185.5670  180.1980  143.8930 O   0  0  0  0  0  0  0  0  0  0  0  0
  184.0730  178.4980  143.3940 N   0  0  0  0  0  1  0  0  0  0  0  0
  193.6030  173.0570  140.3070 C   0  0  0  0  0  2  0  0  0  0  0  0
  193.8500  171.6250  140.3070 N   0  0  0  0  0  2  0  0  0  0  0  0
  192.5920  170.9760  139.9840 C   0  0  2  0  0  3  0  0  0  0  0  0
  191.8600  171.8090  138.9400 C   0  0  0  0  0  2  0  0  0  0  0  0
  190.5020  172.1000  139.3730 N   0  0  0  0  0  2  0  0  0  0  0  0
  190.2180  173.4180  138.9870 N   0  0  0  0  0  2  0  0  0  0  0  0
  188.5410  173.6910  139.3160 S   0  0  0  0  0  0  0  0  0  0  0  0
  188.3730  174.5220  140.8210 N   0  0  0  0  0  1  0  0  0  0  0  0
  187.8170  172.3760  139.3850 O   0  0  0  0  0  0  0  0  0  0  0  0
  187.9500  174.5280  138.2170 O   0  0  0  0  0  0  0  0  0  0  0  0
  191.7580  170.8440  141.2510 C   0  0  0  0  0  2  0  0  0  0  0  0
  192.0300  170.7530  143.4380 C   0  0  0  0  0  1  0  0  0  0  0  0
  192.4920  170.1960  142.2450 O   0  0  0  0  0  0  0  0  0  0  0  0
  3  1  1  0  0  0  0
  4  9  1  0  0  0  0
  5 10  1  0  0  0  0
  6 13  1  0  0  0  0
  6  5  2  0  0  0  0
  7  6  1  0  0  0  0
  9 18  1  1  0  0  0
  9  2  1  0  0  0  0
 10  1  1  0  0  0  0
 10  8  1  1  0  0  0
 11  7  2  0  0  0  0
 11  4  1  0  0  0  0
 12  3  1  0  0  0  0
 13  2  1  0  0  0  0
 14  5  1  0  0  0  0
 14 12  1  0  0  0  0
 15  7  1  0  0  0  0
 16 21  1  0  0  0  0
 16 17  2  0  0  0  0
 18 16  1  0  0  0  0
 19 24  1  0  0  0  0
 20 23  1  0  0  0  0
 21 19  2  0  0  0  0
 22 20  2  0  0  0  0
 22 21  1  0  0  0  0
 23 24  2  0  0  0  0
 25 20  1  0  0  0  0
 26 25  2  0  0  0  0
 27 25  1  0  0  0  0
 28 29  1  0  0  0  0
 28 15  1  0  0  0  0
 30 31  1  6  0  0  0
 30 29  1  0  0  0  0
 30 38  1  0  0  0  0
 31 32  1  0  0  0  0
 33 34  1  0  0  0  0
 33 32  1  0  0  0  0
 34 36  2  0  0  0  0
 34 35  1  0  0  0  0
 37 34  2  0  0  0  0
 38 40  1  0  0  0  0
 40 39  1  0  0  0  0
M  END
>  <MODEL>
8

>  <REMARK>
 VINA RESULT:      -6.3      3.249      9.193
  Name = 
  12 active torsions:
  status: ('A' for Active; 'I' for Inactive)
    1  A    between atoms: C_1  and  C_12
    2  A    between atoms: C_2  and  N_9
    3  A    between atoms: C_2  and  C_27
    4  A    between atoms: C_2  and  C_30
    5  A    between atoms: S_4  and  N_40
    6  A    between atoms: C_6  and  C_11
    7  A    between atoms: N_9  and  C_19
    8  A    between atoms: N_16  and  C_27
    9  A    between atoms: N_16  and  N_40
   10  A    between atoms: C_19  and  N_38
   11  A    between atoms: O_26  and  C_30
   12  A    between atoms: C_28  and  N_39
                            x       y       z     vdW  Elec       q    Type
                         _______ _______ _______ _____ _____    ______ ____

>  <TORSDO>
F 12

$$$$
=
 OpenBabel11042419283D

 40 42  0  0  1  0  0  0  0  0999 V2000
  189.3670  171.6150  137.7660 C   0  0  0  0  0  2  0  0  0  0  0  0
  188.6410  174.0340  142.3770 C   0  0  0  0  0  2  0  0  0  0  0  0
  190.7840  171.4990  137.2450 C   0  0  0  0  0  2  0  0  0  0  0  0
  190.3780  175.8510  142.3540 C   0  0  0  0  0  2  0  0  0  0  0  0
  190.4920  172.9190  139.7040 C   0  0  0  0  0  0  0  0  0  0  0  0
  190.5880  173.2650  141.0090 C   0  0  0  0  0  0  0  0  0  0  0  0
  191.7620  173.9930  141.5460 C   0  0  0  0  0  0  0  0  0  0  0  0
  188.1160  172.7930  139.4080 O   0  0  0  0  0  1  0  0  0  0  0  0
  189.3940  175.0640  143.2140 C   0  0  1  0  0  3  0  0  0  0  0  0
  189.3060  172.0880  139.2230 C   0  0  1  0  0  3  0  0  0  0  0  0
  191.6320  175.1250  142.1770 N   0  0  0  0  0  0  0  0  0  0  0  0
  191.4050  172.8770  137.3110 C   0  0  0  0  0  2  0  0  0  0  0  0
  189.5350  172.8610  142.0020 C   0  0  0  0  0  2  0  0  0  0  0  0
  191.6210  173.2890  138.7610 C   0  0  0  0  0  2  0  0  0  0  0  0
  193.0610  173.4080  141.3990 N   0  0  0  0  0  2  0  0  0  0  0  0
  187.4410  176.7240  143.1930 C   0  0  0  0  0  0  0  0  0  0  0  0
  187.3110  176.6330  141.9420 O   0  0  0  0  0  0  0  0  0  0  0  0
  188.4560  175.9690  143.8690 N   0  0  0  0  0  2  0  0  0  0  0  0
  185.5470  178.3440  143.3090 C   0  0  0  0  0  3  0  0  0  0  0  0
  185.8430  178.5680  146.0890 C   0  0  0  0  0  0  0  0  0  0  0  0
  186.5470  177.6090  143.9610 C   0  0  0  0  0  0  0  0  0  0  0  0
  186.6870  177.7270  145.3510 C   0  0  0  0  0  3  0  0  0  0  0  0
  184.8480  179.2960  145.4210 C   0  0  0  0  0  3  0  0  0  0  0  0
  184.7000  179.1840  144.0360 C   0  0  0  0  0  3  0  0  0  0  0  0
  186.0020  178.6860  147.5490 C   0  0  0  0  0  0  0  0  0  0  0  0
  185.9140  177.6660  148.2840 O   0  0  0  0  0  0  0  0  0  0  0  0
  186.2560  179.9540  148.1470 N   0  0  0  0  0  1  0  0  0  0  0  0
  194.2640  174.0120  141.9510 C   0  0  0  0  0  2  0  0  0  0  0  0
  194.6870  173.2720  143.1290 N   0  0  0  0  0  2  0  0  0  0  0  0
  195.3960  174.2060  143.9860 C   0  0  2  0  0  3  0  0  0  0  0  0
  195.0540  175.6270  143.5580 C   0  0  0  0  0  2  0  0  0  0  0  0
  194.6520  176.4290  144.7030 N   0  0  0  0  0  2  0  0  0  0  0  0
  193.3180  176.8070  144.4980 N   0  0  0  0  0  2  0  0  0  0  0  0
  192.4060  176.1850  145.8300 S   0  0  0  0  0  0  0  0  0  0  0  0
  192.2050  174.4770  145.6490 N   0  0  0  0  0  1  0  0  0  0  0  0
  191.0580  176.8460  145.8760 O   0  0  0  0  0  0  0  0  0  0  0  0
  193.1430  176.4640  147.1100 O   0  0  0  0  0  0  0  0  0  0  0  0
  196.8930  173.9540  143.8710 C   0  0  0  0  0  2  0  0  0  0  0  0
  196.9160  173.6010  146.0480 C   0  0  0  0  0  1  0  0  0  0  0  0
  197.5380  174.3440  145.0450 O   0  0  0  0  0  0  0  0  0  0  0  0
  1 10  1  0  0  0  0
  2  9  1  0  0  0  0
  3 12  1  0  0  0  0
  3  1  1  0  0  0  0
  4  9  1  0  0  0  0
  5  6  2  0  0  0  0
  6  7  1  0  0  0  0
  6 13  1  0  0  0  0
  7 11  2  0  0  0  0
  9 18  1  6  0  0  0
 10  8  1  6  0  0  0
 10  5  1  0  0  0  0
 11  4  1  0  0  0  0
 12 14  1  0  0  0  0
 13  2  1  0  0  0  0
 14  5  1  0  0  0  0
 15  7  1  0  0  0  0
 15 28  1  0  0  0  0
 16 18  1  0  0  0  0
 16 21  1  0  0  0  0
 17 16  2  0  0  0  0
 19 21  2  0  0  0  0
 19 24  1  0  0  0  0
 20 25  1  0  0  0  0
 21 22  1  0  0  0  0
 22 20  2  0  0  0  0
 23 20  1  0  0  0  0
 24 23  2  0  0  0  0
 25 27  1  0  0  0  0
 25 26  2  0  0  0  0
 28 29  1  0  0  0  0
 29 30  1  0  0  0  0
 30 31  1  6  0  0  0
 31 32  1  0  0  0  0
 33 32  1  0  0  0  0
 33 34  1  0  0  0  0
 34 36  2  0  0  0  0
 34 37  2  0  0  0  0
 35 34  1  0  0  0  0
 38 30  1  0  0  0  0
 38 40  1  0  0  0  0
 40 39  1  0  0  0  0
M  END
>  <MODEL>
9

>  <REMARK>
 VINA RESULT:      -6.3      2.539      8.103
  Name = 
  12 active torsions:
  status: ('A' for Active; 'I' for Inactive)
    1  A    between atoms: C_1  and  C_12
    2  A    between atoms: C_2  and  N_9
    3  A    between atoms: C_2  and  C_27
    4  A    between atoms: C_2  and  C_30
    5  A    between atoms: S_4  and  N_40
    6  A    between atoms: C_6  and  C_11
    7  A    between atoms: N_9  and  C_19
    8  A    between atoms: N_16  and  C_27
    9  A    between atoms: N_16  and  N_40
   10  A    between atoms: C_19  and  N_38
   11  A    between atoms: O_26  and  C_30
   12  A    between atoms: C_28  and  N_39
                            x       y       z     vdW  Elec       q    Type
                         _______ _______ _______ _____ _____    ______ ____

>  <TORSDO>
F 12

$$$$
