=
 OpenBabel11042418263D

 28 31  0  0  0  0  0  0  0  0999 V2000
  186.2450  177.8980  147.6520 N   0  0  0  0  0  2  0  0  0  0  0  0
  186.4190  178.2900  146.3180 C   0  0  0  0  0  0  0  0  0  0  0  0
  187.3110  177.4140  146.8820 C   0  0  0  0  0  0  0  0  0  0  0  0
  188.5070  176.5890  146.7660 C   0  0  0  0  0  0  0  0  0  0  0  0
  190.7920  175.6550  146.4740 C   0  0  0  0  0  0  0  0  0  0  0  0
  190.0480  177.1660  146.4420 S   0  0  0  0  0  0  0  0  0  0  0  0
  188.5420  175.2090  146.9060 C   0  0  0  0  0  3  0  0  0  0  0  0
  189.8310  174.6820  146.7420 C   0  0  0  0  0  3  0  0  0  0  0  0
  194.9700  174.9180  145.8430 C   0  0  0  0  0  0  0  0  0  0  0  0
  194.0180  173.9450  145.5000 C   0  0  0  0  0  3  0  0  0  0  0  0
  192.6570  174.1860  145.7060 C   0  0  0  0  0  3  0  0  0  0  0  0
  194.5420  176.1310  146.3930 C   0  0  0  0  0  3  0  0  0  0  0  0
  193.1800  176.3720  146.5980 C   0  0  0  0  0  3  0  0  0  0  0  0
  192.2270  175.4020  146.2560 C   0  0  0  0  0  0  0  0  0  0  0  0
  196.3370  174.7070  145.6510 O   0  0  0  0  0  0  0  0  0  0  0  0
  196.9340  174.6670  144.3620 C   0  0  0  0  0  1  0  0  0  0  0  0
  185.9790  179.0970  145.1470 C   0  0  0  0  0  2  0  0  0  0  0  0
  184.6450  178.6210  144.6690 C   0  0  0  0  0  0  0  0  0  0  0  0
  184.4970  177.9690  143.5150 C   0  0  0  0  0  3  0  0  0  0  0  0
  183.5210  178.8810  145.4440 O   0  0  0  0  0  1  0  0  0  0  0  0
  185.6330  177.6350  142.5940 C   0  0  0  0  0  2  0  0  0  0  0  0
  186.3950  176.5430  143.1010 O   0  0  0  0  0  0  0  0  0  0  0  0
  187.7890  176.4670  143.0160 C   0  0  0  0  0  0  0  0  0  0  0  0
  189.8620  175.1990  143.0110 C   0  0  0  0  0  3  0  0  0  0  0  0
  190.5860  176.3820  142.8430 C   0  0  0  0  0  3  0  0  0  0  0  0
  189.9160  177.6060  142.7610 C   0  0  0  0  0  3  0  0  0  0  0  0
  188.4670  175.2390  143.0980 C   0  0  0  0  0  3  0  0  0  0  0  0
  188.5210  177.6470  142.8490 C   0  0  0  0  0  3  0  0  0  0  0  0
  2  3  2  0  0  0  0
  2  1  1  0  0  0  0
  3  1  1  0  0  0  0
  4  3  1  0  0  0  0
  4  7  2  0  0  0  0
  5  8  2  0  0  0  0
  6  5  1  0  0  0  0
  6  4  1  0  0  0  0
  8  7  1  0  0  0  0
  9 12  1  0  0  0  0
 10 11  1  0  0  0  0
 10  9  2  0  0  0  0
 11 14  2  0  0  0  0
 12 13  2  0  0  0  0
 14  5  1  0  0  0  0
 14 13  1  0  0  0  0
 15  9  1  0  0  0  0
 16 15  1  0  0  0  0
 17  2  1  0  0  0  0
 18 17  1  0  0  0  0
 18 20  1  0  0  0  0
 19 18  2  0  0  0  0
 21 22  1  0  0  0  0
 21 19  1  0  0  0  0
 23 27  1  0  0  0  0
 23 22  1  0  0  0  0
 24 27  2  0  0  0  0
 25 24  1  0  0  0  0
 26 25  2  0  0  0  0
 26 28  1  0  0  0  0
 28 23  2  0  0  0  0
M  END
>  <MODEL>
1

>  <REMARK>
 VINA RESULT:      -7.1      0.000      0.000
  Name = 
  8 active torsions:
  status: ('A' for Active; 'I' for Inactive)
    1  A    between atoms: C_1  and  C_18
    2  A    between atoms: C_2  and  C_16
    3  A    between atoms: O_3  and  C_4
    4  A    between atoms: C_5  and  C_28
    5  A    between atoms: C_9  and  O_17
    6  A    between atoms: C_13  and  C_16
    7  A    between atoms: O_17  and  C_26
    8  A    between atoms: C_20  and  C_26
                            x       y       z     vdW  Elec       q    Type
                         _______ _______ _______ _____ _____    ______ ____

>  <TORSDO>
F 8

$$$$
=
 OpenBabel11042418263D

 28 31  0  0  0  0  0  0  0  0999 V2000
  187.4020  177.2740  141.5630 N   0  0  0  0  0  2  0  0  0  0  0  0
  186.9120  176.8800  142.8140 C   0  0  0  0  0  0  0  0  0  0  0  0
  188.2620  177.0510  142.6450 C   0  0  0  0  0  0  0  0  0  0  0  0
  189.6130  177.0140  143.1930 C   0  0  0  0  0  0  0  0  0  0  0  0
  191.8640  176.4150  144.0610 C   0  0  0  0  0  0  0  0  0  0  0  0
  190.5150  175.6210  143.4390 S   0  0  0  0  0  0  0  0  0  0  0  0
  190.3440  178.1240  143.5890 C   0  0  0  0  0  3  0  0  0  0  0  0
  191.6140  177.7870  144.0790 C   0  0  0  0  0  3  0  0  0  0  0  0
  195.4840  174.5300  145.3780 C   0  0  0  0  0  0  0  0  0  0  0  0
  194.8730  174.1320  144.1780 C   0  0  0  0  0  3  0  0  0  0  0  0
  193.6950  174.7480  143.7490 C   0  0  0  0  0  3  0  0  0  0  0  0
  194.8990  175.5460  146.1410 C   0  0  0  0  0  3  0  0  0  0  0  0
  193.7200  176.1610  145.7110 C   0  0  0  0  0  3  0  0  0  0  0  0
  193.1080  175.7680  144.5120 C   0  0  0  0  0  0  0  0  0  0  0  0
  196.6620  173.9340  145.8350 O   0  0  0  0  0  0  0  0  0  0  0  0
  196.7850  172.5330  146.0400 C   0  0  0  0  0  1  0  0  0  0  0  0
  185.7660  176.5100  143.6890 C   0  0  0  0  0  2  0  0  0  0  0  0
  185.0890  177.7430  144.1960 C   0  0  0  0  0  0  0  0  0  0  0  0
  185.2420  178.1700  145.4500 C   0  0  0  0  0  3  0  0  0  0  0  0
  184.2620  178.4580  143.3380 O   0  0  0  0  0  1  0  0  0  0  0  0
  186.1030  177.4810  146.4670 C   0  0  0  0  0  2  0  0  0  0  0  0
  187.4760  177.8110  146.2780 O   0  0  0  0  0  0  0  0  0  0  0  0
  188.5330  177.0060  146.7170 C   0  0  0  0  0  0  0  0  0  0  0  0
  190.7560  176.7260  147.6580 C   0  0  0  0  0  3  0  0  0  0  0  0
  190.6150  175.3370  147.5780 C   0  0  0  0  0  3  0  0  0  0  0  0
  189.4370  174.7820  147.0690 C   0  0  0  0  0  3  0  0  0  0  0  0
  189.7180  177.5590  147.2280 C   0  0  0  0  0  3  0  0  0  0  0  0
  188.4000  175.6150  146.6390 C   0  0  0  0  0  3  0  0  0  0  0  0
  1  3  1  0  0  0  0
  1  2  1  0  0  0  0
  2 17  1  0  0  0  0
  3  2  2  0  0  0  0
  3  4  1  0  0  0  0
  4  6  1  0  0  0  0
  4  7  2  0  0  0  0
  5  8  2  0  0  0  0
  5 14  1  0  0  0  0
  6  5  1  0  0  0  0
  7  8  1  0  0  0  0
  9 15  1  0  0  0  0
  9 12  1  0  0  0  0
 10  9  2  0  0  0  0
 11 10  1  0  0  0  0
 11 14  2  0  0  0  0
 13 12  2  0  0  0  0
 14 13  1  0  0  0  0
 15 16  1  0  0  0  0
 17 18  1  0  0  0  0
 18 19  2  0  0  0  0
 19 21  1  0  0  0  0
 20 18  1  0  0  0  0
 22 21  1  0  0  0  0
 22 23  1  0  0  0  0
 23 27  1  0  0  0  0
 25 24  1  0  0  0  0
 26 25  2  0  0  0  0
 27 24  2  0  0  0  0
 28 23  2  0  0  0  0
 28 26  1  0  0  0  0
M  END
>  <MODEL>
2

>  <REMARK>
 VINA RESULT:      -6.9      2.005      3.536
  Name = 
  8 active torsions:
  status: ('A' for Active; 'I' for Inactive)
    1  A    between atoms: C_1  and  C_18
    2  A    between atoms: C_2  and  C_16
    3  A    between atoms: O_3  and  C_4
    4  A    between atoms: C_5  and  C_28
    5  A    between atoms: C_9  and  O_17
    6  A    between atoms: C_13  and  C_16
    7  A    between atoms: O_17  and  C_26
    8  A    between atoms: C_20  and  C_26
                            x       y       z     vdW  Elec       q    Type
                         _______ _______ _______ _____ _____    ______ ____

>  <TORSDO>
F 8

$$$$
=
 OpenBabel11042418263D

 28 31  0  0  0  0  0  0  0  0999 V2000
  186.0590  178.5960  142.1840 N   0  0  0  0  0  2  0  0  0  0  0  0
  186.1460  178.9490  143.5370 C   0  0  0  0  0  0  0  0  0  0  0  0
  187.0270  178.0320  143.0240 C   0  0  0  0  0  0  0  0  0  0  0  0
  188.1500  177.1230  143.2170 C   0  0  0  0  0  0  0  0  0  0  0  0
  190.3510  176.0300  143.5910 C   0  0  0  0  0  0  0  0  0  0  0  0
  189.7380  177.5950  143.4820 S   0  0  0  0  0  0  0  0  0  0  0  0
  188.0660  175.7380  143.2100 C   0  0  0  0  0  3  0  0  0  0  0  0
  189.3080  175.1210  143.4210 C   0  0  0  0  0  3  0  0  0  0  0  0
  194.4560  175.0030  144.2880 C   0  0  0  0  0  0  0  0  0  0  0  0
  193.5450  174.0270  143.8530 C   0  0  0  0  0  3  0  0  0  0  0  0
  192.2080  174.3630  143.6260 C   0  0  0  0  0  3  0  0  0  0  0  0
  194.0120  176.3130  144.4920 C   0  0  0  0  0  3  0  0  0  0  0  0
  192.6740  176.6480  144.2640 C   0  0  0  0  0  3  0  0  0  0  0  0
  191.7610  175.6760  143.8290 C   0  0  0  0  0  0  0  0  0  0  0  0
  195.7990  174.6990  144.5240 O   0  0  0  0  0  0  0  0  0  0  0  0
  196.2750  174.2540  145.7870 C   0  0  0  0  0  1  0  0  0  0  0  0
  185.6340  179.7260  144.7000 C   0  0  0  0  0  2  0  0  0  0  0  0
  184.6160  178.9230  145.4440 C   0  0  0  0  0  0  0  0  0  0  0  0
  184.9420  178.1570  146.4860 C   0  0  0  0  0  3  0  0  0  0  0  0
  183.2920  178.9620  145.0250 O   0  0  0  0  0  1  0  0  0  0  0  0
  186.3350  178.0310  147.0250 C   0  0  0  0  0  2  0  0  0  0  0  0
  186.9820  176.8740  146.5000 O   0  0  0  0  0  0  0  0  0  0  0  0
  188.2890  176.5010  146.8300 C   0  0  0  0  0  0  0  0  0  0  0  0
  189.9670  174.8160  147.3310 C   0  0  0  0  0  3  0  0  0  0  0  0
  190.9270  175.8200  147.4940 C   0  0  0  0  0  3  0  0  0  0  0  0
  190.5700  177.1610  147.3260 C   0  0  0  0  0  3  0  0  0  0  0  0
  188.6510  175.1550  147.0000 C   0  0  0  0  0  3  0  0  0  0  0  0
  189.2540  177.5000  146.9960 C   0  0  0  0  0  3  0  0  0  0  0  0
  1  3  1  0  0  0  0
  1  2  1  0  0  0  0
  2 17  1  0  0  0  0
  3  4  1  0  0  0  0
  3  2  2  0  0  0  0
  4  6  1  0  0  0  0
  5 14  1  0  0  0  0
  6  5  1  0  0  0  0
  7  4  2  0  0  0  0
  7  8  1  0  0  0  0
  8  5  2  0  0  0  0
  9 12  1  0  0  0  0
  9 15  1  0  0  0  0
 10  9  2  0  0  0  0
 11 14  2  0  0  0  0
 11 10  1  0  0  0  0
 13 12  2  0  0  0  0
 14 13  1  0  0  0  0
 15 16  1  0  0  0  0
 17 18  1  0  0  0  0
 18 19  2  0  0  0  0
 19 21  1  0  0  0  0
 20 18  1  0  0  0  0
 22 23  1  0  0  0  0
 22 21  1  0  0  0  0
 23 28  2  0  0  0  0
 23 27  1  0  0  0  0
 24 25  1  0  0  0  0
 26 25  2  0  0  0  0
 27 24  2  0  0  0  0
 28 26  1  0  0  0  0
M  END
>  <MODEL>
3

>  <REMARK>
 VINA RESULT:      -6.9      1.846      3.239
  Name = 
  8 active torsions:
  status: ('A' for Active; 'I' for Inactive)
    1  A    between atoms: C_1  and  C_18
    2  A    between atoms: C_2  and  C_16
    3  A    between atoms: O_3  and  C_4
    4  A    between atoms: C_5  and  C_28
    5  A    between atoms: C_9  and  O_17
    6  A    between atoms: C_13  and  C_16
    7  A    between atoms: O_17  and  C_26
    8  A    between atoms: C_20  and  C_26
                            x       y       z     vdW  Elec       q    Type
                         _______ _______ _______ _____ _____    ______ ____

>  <TORSDO>
F 8

$$$$
=
 OpenBabel11042418263D

 28 31  0  0  0  0  0  0  0  0999 V2000
  194.1480  171.9010  144.2350 N   0  0  0  0  0  2  0  0  0  0  0  0
  194.4430  173.0990  144.8980 C   0  0  0  0  0  0  0  0  0  0  0  0
  193.2030  172.9290  144.3390 C   0  0  0  0  0  0  0  0  0  0  0  0
  191.8710  173.4480  144.0510 C   0  0  0  0  0  0  0  0  0  0  0  0
  189.8720  174.7690  143.3900 C   0  0  0  0  0  0  0  0  0  0  0  0
  191.5470  174.9550  143.3900 S   0  0  0  0  0  0  0  0  0  0  0  0
  190.6830  172.7710  144.2840 C   0  0  0  0  0  3  0  0  0  0  0  0
  189.5550  173.5160  143.9100 C   0  0  0  0  0  3  0  0  0  0  0  0
  187.0370  177.6770  142.0110 C   0  0  0  0  0  0  0  0  0  0  0  0
  188.4000  178.0010  142.0990 C   0  0  0  0  0  3  0  0  0  0  0  0
  189.3230  177.0530  142.5470 C   0  0  0  0  0  3  0  0  0  0  0  0
  186.6120  176.3960  142.3790 C   0  0  0  0  0  3  0  0  0  0  0  0
  187.5370  175.4480  142.8270 C   0  0  0  0  0  3  0  0  0  0  0  0
  188.8990  175.7680  142.9150 C   0  0  0  0  0  0  0  0  0  0  0  0
  186.0890  178.6020  141.5670 O   0  0  0  0  0  0  0  0  0  0  0  0
  184.7360  178.2530  141.3130 C   0  0  0  0  0  1  0  0  0  0  0  0
  195.4100  173.9540  145.6400 C   0  0  0  0  0  2  0  0  0  0  0  0
  195.2910  175.3740  145.1840 C   0  0  0  0  0  0  0  0  0  0  0  0
  194.3640  176.1990  145.6740 C   0  0  0  0  0  3  0  0  0  0  0  0
  196.1620  175.8420  144.2080 O   0  0  0  0  0  1  0  0  0  0  0  0
  193.3690  175.8070  146.7240 C   0  0  0  0  0  2  0  0  0  0  0  0
  192.3110  176.7590  146.8030 O   0  0  0  0  0  0  0  0  0  0  0  0
  190.9560  176.4130  146.7880 C   0  0  0  0  0  0  0  0  0  0  0  0
  188.6300  176.9120  146.2910 C   0  0  0  0  0  3  0  0  0  0  0  0
  188.2550  175.6610  146.7880 C   0  0  0  0  0  3  0  0  0  0  0  0
  189.2260  174.7870  147.2860 C   0  0  0  0  0  3  0  0  0  0  0  0
  189.9760  177.2890  146.2900 C   0  0  0  0  0  3  0  0  0  0  0  0
  190.5720  175.1630  147.2860 C   0  0  0  0  0  3  0  0  0  0  0  0
  1  3  1  0  0  0  0
  1  2  1  0  0  0  0
  2 17  1  0  0  0  0
  3  2  2  0  0  0  0
  4  7  2  0  0  0  0
  4  3  1  0  0  0  0
  5  6  1  0  0  0  0
  5  8  2  0  0  0  0
  6  4  1  0  0  0  0
  8  7  1  0  0  0  0
  9 10  2  0  0  0  0
  9 12  1  0  0  0  0
 10 11  1  0  0  0  0
 11 14  2  0  0  0  0
 12 13  2  0  0  0  0
 13 14  1  0  0  0  0
 14  5  1  0  0  0  0
 15  9  1  0  0  0  0
 16 15  1  0  0  0  0
 18 17  1  0  0  0  0
 18 19  2  0  0  0  0
 19 21  1  0  0  0  0
 20 18  1  0  0  0  0
 21 22  1  0  0  0  0
 23 22  1  0  0  0  0
 23 28  1  0  0  0  0
 24 25  2  0  0  0  0
 25 26  1  0  0  0  0
 26 28  2  0  0  0  0
 27 24  1  0  0  0  0
 27 23  2  0  0  0  0
M  END
>  <MODEL>
4

>  <REMARK>
 VINA RESULT:      -6.5      2.796      7.926
  Name = 
  8 active torsions:
  status: ('A' for Active; 'I' for Inactive)
    1  A    between atoms: C_1  and  C_18
    2  A    between atoms: C_2  and  C_16
    3  A    between atoms: O_3  and  C_4
    4  A    between atoms: C_5  and  C_28
    5  A    between atoms: C_9  and  O_17
    6  A    between atoms: C_13  and  C_16
    7  A    between atoms: O_17  and  C_26
    8  A    between atoms: C_20  and  C_26
                            x       y       z     vdW  Elec       q    Type
                         _______ _______ _______ _____ _____    ______ ____

>  <TORSDO>
F 8

$$$$
=
 OpenBabel11042418263D

 28 31  0  0  0  0  0  0  0  0999 V2000
  191.5700  176.6990  147.9620 N   0  0  0  0  0  2  0  0  0  0  0  0
  192.4070  176.2510  146.9320 C   0  0  0  0  0  0  0  0  0  0  0  0
  191.1840  176.7880  146.6190 C   0  0  0  0  0  0  0  0  0  0  0  0
  190.1960  177.1650  145.6160 C   0  0  0  0  0  0  0  0  0  0  0  0
  188.1550  177.6750  144.2910 C   0  0  0  0  0  0  0  0  0  0  0  0
  188.5330  177.1160  145.8350 S   0  0  0  0  0  0  0  0  0  0  0  0
  190.4890  177.6180  144.3380 C   0  0  0  0  0  3  0  0  0  0  0  0
  189.3370  177.9050  143.5900 C   0  0  0  0  0  3  0  0  0  0  0  0
  184.1970  178.2880  142.7590 C   0  0  0  0  0  0  0  0  0  0  0  0
  184.4330  178.3100  144.1420 C   0  0  0  0  0  3  0  0  0  0  0  0
  185.7230  178.1110  144.6410 C   0  0  0  0  0  3  0  0  0  0  0  0
  185.2650  178.0640  141.8850 C   0  0  0  0  0  3  0  0  0  0  0  0
  186.5560  177.8650  142.3840 C   0  0  0  0  0  3  0  0  0  0  0  0
  186.7950  177.8860  143.7660 C   0  0  0  0  0  0  0  0  0  0  0  0
  182.9190  178.4840  142.2290 O   0  0  0  0  0  0  0  0  0  0  0  0
  182.6090  178.2460  140.8630 C   0  0  0  0  0  1  0  0  0  0  0  0
  193.6810  175.6190  146.4920 C   0  0  0  0  0  2  0  0  0  0  0  0
  194.3570  176.4840  145.4760 C   0  0  0  0  0  0  0  0  0  0  0  0
  194.7130  176.0220  144.2770 C   0  0  0  0  0  3  0  0  0  0  0  0
  194.6390  177.8060  145.7990 O   0  0  0  0  0  1  0  0  0  0  0  0
  194.4660  174.6160  143.8180 C   0  0  0  0  0  2  0  0  0  0  0  0
  193.4820  174.5820  142.7870 O   0  0  0  0  0  0  0  0  0  0  0  0
  192.1160  174.4000  143.0290 C   0  0  0  0  0  0  0  0  0  0  0  0
  190.2760  173.6610  144.4340 C   0  0  0  0  0  3  0  0  0  0  0  0
  189.3650  174.0570  143.4510 C   0  0  0  0  0  3  0  0  0  0  0  0
  189.8260  174.6230  142.2580 C   0  0  0  0  0  3  0  0  0  0  0  0
  191.6480  173.8310  144.2250 C   0  0  0  0  0  3  0  0  0  0  0  0
  191.1980  174.7920  142.0490 C   0  0  0  0  0  3  0  0  0  0  0  0
  2  1  1  0  0  0  0
  3  2  2  0  0  0  0
  3  1  1  0  0  0  0
  4  6  1  0  0  0  0
  4  3  1  0  0  0  0
  5  6  1  0  0  0  0
  7  4  2  0  0  0  0
  8  5  2  0  0  0  0
  8  7  1  0  0  0  0
  9 10  1  0  0  0  0
 10 11  2  0  0  0  0
 12 13  1  0  0  0  0
 12  9  2  0  0  0  0
 13 14  2  0  0  0  0
 14  5  1  0  0  0  0
 14 11  1  0  0  0  0
 15  9  1  0  0  0  0
 16 15  1  0  0  0  0
 17  2  1  0  0  0  0
 18 20  1  0  0  0  0
 18 17  1  0  0  0  0
 19 18  2  0  0  0  0
 21 19  1  0  0  0  0
 22 23  1  0  0  0  0
 22 21  1  0  0  0  0
 23 27  1  0  0  0  0
 25 24  1  0  0  0  0
 26 25  2  0  0  0  0
 27 24  2  0  0  0  0
 28 26  1  0  0  0  0
 28 23  2  0  0  0  0
M  END
>  <MODEL>
5

>  <REMARK>
 VINA RESULT:      -6.5      2.220      7.870
  Name = 
  8 active torsions:
  status: ('A' for Active; 'I' for Inactive)
    1  A    between atoms: C_1  and  C_18
    2  A    between atoms: C_2  and  C_16
    3  A    between atoms: O_3  and  C_4
    4  A    between atoms: C_5  and  C_28
    5  A    between atoms: C_9  and  O_17
    6  A    between atoms: C_13  and  C_16
    7  A    between atoms: O_17  and  C_26
    8  A    between atoms: C_20  and  C_26
                            x       y       z     vdW  Elec       q    Type
                         _______ _______ _______ _____ _____    ______ ____

>  <TORSDO>
F 8

$$$$
=
 OpenBabel11042418263D

 28 31  0  0  0  0  0  0  0  0999 V2000
  192.8670  174.4780  140.6870 N   0  0  0  0  0  2  0  0  0  0  0  0
  193.9320  174.7510  141.5530 C   0  0  0  0  0  0  0  0  0  0  0  0
  192.6920  175.2670  141.8310 C   0  0  0  0  0  0  0  0  0  0  0  0
  191.8260  176.0660  142.6890 C   0  0  0  0  0  0  0  0  0  0  0  0
  189.9850  177.0410  144.0450 C   0  0  0  0  0  0  0  0  0  0  0  0
  190.2380  175.6860  143.0760 S   0  0  0  0  0  0  0  0  0  0  0  0
  192.1890  177.2540  143.3060 C   0  0  0  0  0  3  0  0  0  0  0  0
  191.1510  177.8040  144.0710 C   0  0  0  0  0  3  0  0  0  0  0  0
  186.3450  177.9940  146.1040 C   0  0  0  0  0  0  0  0  0  0  0  0
  186.4710  178.2530  144.7300 C   0  0  0  0  0  3  0  0  0  0  0  0
  187.6570  177.9410  144.0590 C   0  0  0  0  0  3  0  0  0  0  0  0
  187.4190  177.4230  146.7950 C   0  0  0  0  0  3  0  0  0  0  0  0
  188.6050  177.1110  146.1240 C   0  0  0  0  0  3  0  0  0  0  0  0
  188.7340  177.3680  144.7510 C   0  0  0  0  0  0  0  0  0  0  0  0
  185.1740  178.2940  146.8020 O   0  0  0  0  0  0  0  0  0  0  0  0
  183.9650  178.6620  146.1520 C   0  0  0  0  0  1  0  0  0  0  0  0
  195.3730  174.6150  141.9040 C   0  0  0  0  0  2  0  0  0  0  0  0
  195.9400  175.9510  142.2650 C   0  0  0  0  0  0  0  0  0  0  0  0
  196.3060  176.2530  143.5110 C   0  0  0  0  0  3  0  0  0  0  0  0
  196.0740  176.9140  141.2720 O   0  0  0  0  0  1  0  0  0  0  0  0
  196.2040  175.2990  144.6640 C   0  0  0  0  0  2  0  0  0  0  0  0
  195.4880  175.8860  145.7480 O   0  0  0  0  0  0  0  0  0  0  0  0
  194.1550  175.5830  146.0480 C   0  0  0  0  0  0  0  0  0  0  0  0
  192.0520  176.0780  147.1610 C   0  0  0  0  0  3  0  0  0  0  0  0
  191.4900  174.9210  146.6130 C   0  0  0  0  0  3  0  0  0  0  0  0
  192.2570  174.0960  145.7850 C   0  0  0  0  0  3  0  0  0  0  0  0
  193.3810  176.4090  146.8800 C   0  0  0  0  0  3  0  0  0  0  0  0
  193.5860  174.4270  145.5050 C   0  0  0  0  0  3  0  0  0  0  0  0
  1  2  1  0  0  0  0
  1  3  1  0  0  0  0
  2  3  2  0  0  0  0
  2 17  1  0  0  0  0
  3  4  1  0  0  0  0
  4  6  1  0  0  0  0
  4  7  2  0  0  0  0
  5  8  2  0  0  0  0
  5 14  1  0  0  0  0
  6  5  1  0  0  0  0
  7  8  1  0  0  0  0
  9 12  1  0  0  0  0
  9 15  1  0  0  0  0
 10  9  2  0  0  0  0
 11 10  1  0  0  0  0
 11 14  2  0  0  0  0
 13 12  2  0  0  0  0
 14 13  1  0  0  0  0
 16 15  1  0  0  0  0
 17 18  1  0  0  0  0
 18 19  2  0  0  0  0
 19 21  1  0  0  0  0
 20 18  1  0  0  0  0
 21 22  1  0  0  0  0
 22 23  1  0  0  0  0
 23 27  1  0  0  0  0
 25 24  1  0  0  0  0
 26 25  2  0  0  0  0
 27 24  2  0  0  0  0
 28 26  1  0  0  0  0
 28 23  2  0  0  0  0
M  END
>  <MODEL>
6

>  <REMARK>
 VINA RESULT:      -6.4      2.776      8.381
  Name = 
  8 active torsions:
  status: ('A' for Active; 'I' for Inactive)
    1  A    between atoms: C_1  and  C_18
    2  A    between atoms: C_2  and  C_16
    3  A    between atoms: O_3  and  C_4
    4  A    between atoms: C_5  and  C_28
    5  A    between atoms: C_9  and  O_17
    6  A    between atoms: C_13  and  C_16
    7  A    between atoms: O_17  and  C_26
    8  A    between atoms: C_20  and  C_26
                            x       y       z     vdW  Elec       q    Type
                         _______ _______ _______ _____ _____    ______ ____

>  <TORSDO>
F 8

$$$$
=
 OpenBabel11042418263D

 28 31  0  0  0  0  0  0  0  0999 V2000
  193.7460  174.6190  142.3070 N   0  0  0  0  0  2  0  0  0  0  0  0
  194.3160  175.4730  143.2600 C   0  0  0  0  0  0  0  0  0  0  0  0
  193.0040  175.6480  142.9000 C   0  0  0  0  0  0  0  0  0  0  0  0
  191.7520  176.3830  143.0300 C   0  0  0  0  0  0  0  0  0  0  0  0
  189.3990  177.1850  143.0420 C   0  0  0  0  0  0  0  0  0  0  0  0
  190.2410  175.7960  142.5960 S   0  0  0  0  0  0  0  0  0  0  0  0
  191.6300  177.6700  143.5310 C   0  0  0  0  0  3  0  0  0  0  0  0
  190.3020  178.1230  143.5380 C   0  0  0  0  0  3  0  0  0  0  0  0
  185.1600  177.7470  142.7130 C   0  0  0  0  0  0  0  0  0  0  0  0
  186.0390  178.5050  141.9240 C   0  0  0  0  0  3  0  0  0  0  0  0
  187.4200  178.3210  142.0310 C   0  0  0  0  0  3  0  0  0  0  0  0
  185.6800  176.8070  143.6090 C   0  0  0  0  0  3  0  0  0  0  0  0
  187.0620  176.6230  143.7150 C   0  0  0  0  0  3  0  0  0  0  0  0
  187.9430  177.3780  142.9270 C   0  0  0  0  0  0  0  0  0  0  0  0
  183.7750  177.9080  142.6290 O   0  0  0  0  0  0  0  0  0  0  0  0
  183.1110  178.2290  141.4150 C   0  0  0  0  0  1  0  0  0  0  0  0
  195.4950  175.9040  144.0610 C   0  0  0  0  0  2  0  0  0  0  0  0
  195.4920  175.2150  145.3880 C   0  0  0  0  0  0  0  0  0  0  0  0
  194.7140  175.6180  146.3940 C   0  0  0  0  0  3  0  0  0  0  0  0
  196.3390  174.1320  145.5850 O   0  0  0  0  0  1  0  0  0  0  0  0
  193.7640  176.7750  146.3010 C   0  0  0  0  0  2  0  0  0  0  0  0
  192.7320  176.6640  147.2780 O   0  0  0  0  0  0  0  0  0  0  0  0
  191.4200  176.2830  146.9760 C   0  0  0  0  0  0  0  0  0  0  0  0
  189.0390  176.7520  146.8330 C   0  0  0  0  0  3  0  0  0  0  0  0
  188.8130  175.4570  146.3570 C   0  0  0  0  0  3  0  0  0  0  0  0
  189.8850  174.5760  146.1900 C   0  0  0  0  0  3  0  0  0  0  0  0
  190.3390  177.1650  147.1420 C   0  0  0  0  0  3  0  0  0  0  0  0
  191.1850  174.9890  146.5010 C   0  0  0  0  0  3  0  0  0  0  0  0
  1  3  1  0  0  0  0
  1  2  1  0  0  0  0
  2 17  1  0  0  0  0
  3  4  1  0  0  0  0
  3  2  2  0  0  0  0
  4  7  2  0  0  0  0
  5  8  2  0  0  0  0
  6  4  1  0  0  0  0
  6  5  1  0  0  0  0
  7  8  1  0  0  0  0
  9 12  1  0  0  0  0
 10 11  1  0  0  0  0
 10  9  2  0  0  0  0
 11 14  2  0  0  0  0
 12 13  2  0  0  0  0
 14  5  1  0  0  0  0
 14 13  1  0  0  0  0
 15  9  1  0  0  0  0
 16 15  1  0  0  0  0
 17 18  1  0  0  0  0
 18 20  1  0  0  0  0
 18 19  2  0  0  0  0
 21 19  1  0  0  0  0
 21 22  1  0  0  0  0
 23 27  1  0  0  0  0
 23 22  1  0  0  0  0
 24 27  2  0  0  0  0
 25 24  1  0  0  0  0
 26 25  2  0  0  0  0
 26 28  1  0  0  0  0
 28 23  2  0  0  0  0
M  END
>  <MODEL>
7

>  <REMARK>
 VINA RESULT:      -6.4      2.572      8.384
  Name = 
  8 active torsions:
  status: ('A' for Active; 'I' for Inactive)
    1  A    between atoms: C_1  and  C_18
    2  A    between atoms: C_2  and  C_16
    3  A    between atoms: O_3  and  C_4
    4  A    between atoms: C_5  and  C_28
    5  A    between atoms: C_9  and  O_17
    6  A    between atoms: C_13  and  C_16
    7  A    between atoms: O_17  and  C_26
    8  A    between atoms: C_20  and  C_26
                            x       y       z     vdW  Elec       q    Type
                         _______ _______ _______ _____ _____    ______ ____

>  <TORSDO>
F 8

$$$$
=
 OpenBabel11042418263D

 28 31  0  0  0  0  0  0  0  0999 V2000
  194.1930  176.4850  146.7760 N   0  0  0  0  0  2  0  0  0  0  0  0
  194.1650  175.7370  145.5920 C   0  0  0  0  0  0  0  0  0  0  0  0
  192.9830  176.0960  146.1870 C   0  0  0  0  0  0  0  0  0  0  0  0
  191.5250  176.0750  146.2020 C   0  0  0  0  0  0  0  0  0  0  0  0
  189.0900  176.5390  146.0190 C   0  0  0  0  0  0  0  0  0  0  0  0
  190.5390  177.3270  145.6770 S   0  0  0  0  0  0  0  0  0  0  0  0
  190.7460  175.0200  146.6520 C   0  0  0  0  0  3  0  0  0  0  0  0
  189.3720  175.2810  146.5490 C   0  0  0  0  0  3  0  0  0  0  0  0
  185.1650  178.1360  145.3590 C   0  0  0  0  0  0  0  0  0  0  0  0
  185.4150  177.3010  146.4590 C   0  0  0  0  0  3  0  0  0  0  0  0
  186.6940  176.7820  146.6740 C   0  0  0  0  0  3  0  0  0  0  0  0
  186.2090  178.4410  144.4790 C   0  0  0  0  0  3  0  0  0  0  0  0
  187.4880  177.9210  144.6940 C   0  0  0  0  0  3  0  0  0  0  0  0
  187.7420  177.0880  145.7930 C   0  0  0  0  0  0  0  0  0  0  0  0
  183.8980  178.6710  145.1160 O   0  0  0  0  0  0  0  0  0  0  0  0
  183.4620  179.0570  143.8200 C   0  0  0  0  0  1  0  0  0  0  0  0
  194.8880  175.0320  144.4970 C   0  0  0  0  0  2  0  0  0  0  0  0
  195.3660  176.0200  143.4810 C   0  0  0  0  0  0  0  0  0  0  0  0
  194.7750  176.1550  142.2930 C   0  0  0  0  0  3  0  0  0  0  0  0
  196.4700  176.8090  143.7770 O   0  0  0  0  0  1  0  0  0  0  0  0
  193.5810  175.3570  141.8590 C   0  0  0  0  0  2  0  0  0  0  0  0
  192.3790  175.9180  142.3790 O   0  0  0  0  0  0  0  0  0  0  0  0
  191.2300  175.1670  142.6530 C   0  0  0  0  0  0  0  0  0  0  0  0
  190.1410  173.1440  143.4440 C   0  0  0  0  0  3  0  0  0  0  0  0
  188.8920  173.7110  143.1750 C   0  0  0  0  0  3  0  0  0  0  0  0
  188.8100  175.0020  142.6460 C   0  0  0  0  0  3  0  0  0  0  0  0
  191.3080  173.8680  143.1840 C   0  0  0  0  0  3  0  0  0  0  0  0
  189.9770  175.7270  142.3840 C   0  0  0  0  0  3  0  0  0  0  0  0
  2  3  2  0  0  0  0
  2  1  1  0  0  0  0
  3  4  1  0  0  0  0
  3  1  1  0  0  0  0
  4  7  2  0  0  0  0
  5  8  2  0  0  0  0
  6  5  1  0  0  0  0
  6  4  1  0  0  0  0
  8  7  1  0  0  0  0
  9 10  1  0  0  0  0
 10 11  2  0  0  0  0
 12 13  1  0  0  0  0
 12  9  2  0  0  0  0
 13 14  2  0  0  0  0
 14  5  1  0  0  0  0
 14 11  1  0  0  0  0
 15  9  1  0  0  0  0
 16 15  1  0  0  0  0
 17  2  1  0  0  0  0
 18 20  1  0  0  0  0
 18 17  1  0  0  0  0
 19 18  2  0  0  0  0
 21 19  1  0  0  0  0
 21 22  1  0  0  0  0
 22 23  1  0  0  0  0
 23 27  1  0  0  0  0
 25 24  1  0  0  0  0
 26 25  2  0  0  0  0
 27 24  2  0  0  0  0
 28 26  1  0  0  0  0
 28 23  2  0  0  0  0
M  END
>  <MODEL>
8

>  <REMARK>
 VINA RESULT:      -6.3      2.406      7.554
  Name = 
  8 active torsions:
  status: ('A' for Active; 'I' for Inactive)
    1  A    between atoms: C_1  and  C_18
    2  A    between atoms: C_2  and  C_16
    3  A    between atoms: O_3  and  C_4
    4  A    between atoms: C_5  and  C_28
    5  A    between atoms: C_9  and  O_17
    6  A    between atoms: C_13  and  C_16
    7  A    between atoms: O_17  and  C_26
    8  A    between atoms: C_20  and  C_26
                            x       y       z     vdW  Elec       q    Type
                         _______ _______ _______ _____ _____    ______ ____

>  <TORSDO>
F 8

$$$$
=
 OpenBabel11042418263D

 28 31  0  0  0  0  0  0  0  0999 V2000
  195.0380  176.0170  141.2410 N   0  0  0  0  0  2  0  0  0  0  0  0
  195.1840  176.2190  142.6190 C   0  0  0  0  0  0  0  0  0  0  0  0
  193.9340  175.9930  142.1020 C   0  0  0  0  0  0  0  0  0  0  0  0
  192.4980  175.8470  142.3030 C   0  0  0  0  0  0  0  0  0  0  0  0
  190.0930  176.0810  142.8880 C   0  0  0  0  0  0  0  0  0  0  0  0
  191.5130  176.9690  143.0690 S   0  0  0  0  0  0  0  0  0  0  0  0
  191.7400  174.7610  141.8910 C   0  0  0  0  0  3  0  0  0  0  0  0
  190.3840  174.8920  142.2210 C   0  0  0  0  0  3  0  0  0  0  0  0
  186.2100  177.2850  144.2540 C   0  0  0  0  0  0  0  0  0  0  0  0
  186.3380  176.3110  143.2510 C   0  0  0  0  0  3  0  0  0  0  0  0
  187.6040  175.9190  142.8070 C   0  0  0  0  0  3  0  0  0  0  0  0
  187.3610  177.8590  144.8030 C   0  0  0  0  0  3  0  0  0  0  0  0
  188.6270  177.4660  144.3590 C   0  0  0  0  0  3  0  0  0  0  0  0
  188.7590  176.4930  143.3570 C   0  0  0  0  0  0  0  0  0  0  0  0
  184.9600  177.6980  144.7190 O   0  0  0  0  0  0  0  0  0  0  0  0
  184.8050  178.6600  145.7540 C   0  0  0  0  0  1  0  0  0  0  0  0
  196.0540  176.5070  143.7920 C   0  0  0  0  0  2  0  0  0  0  0  0
  196.0330  175.3500  144.7400 C   0  0  0  0  0  0  0  0  0  0  0  0
  195.1300  175.2500  145.7160 C   0  0  0  0  0  3  0  0  0  0  0  0
  196.9960  174.3570  144.6100 O   0  0  0  0  0  1  0  0  0  0  0  0
  194.0480  176.2600  145.9570 C   0  0  0  0  0  2  0  0  0  0  0  0
  193.1830  175.8380  147.0080 O   0  0  0  0  0  0  0  0  0  0  0  0
  191.8900  175.3470  146.7960 C   0  0  0  0  0  0  0  0  0  0  0  0
  189.5160  175.2900  147.3130 C   0  0  0  0  0  3  0  0  0  0  0  0
  189.3230  174.3210  146.3230 C   0  0  0  0  0  3  0  0  0  0  0  0
  190.4100  173.8650  145.5710 C   0  0  0  0  0  3  0  0  0  0  0  0
  190.7950  175.8020  147.5500 C   0  0  0  0  0  3  0  0  0  0  0  0
  191.6900  174.3760  145.8090 C   0  0  0  0  0  3  0  0  0  0  0  0
  1  3  1  0  0  0  0
  1  2  1  0  0  0  0
  2 17  1  0  0  0  0
  3  4  1  0  0  0  0
  3  2  2  0  0  0  0
  4  6  1  0  0  0  0
  5  6  1  0  0  0  0
  5 14  1  0  0  0  0
  7  8  1  0  0  0  0
  7  4  2  0  0  0  0
  8  5  2  0  0  0  0
  9 15  1  0  0  0  0
  9 12  1  0  0  0  0
 10  9  2  0  0  0  0
 11 10  1  0  0  0  0
 11 14  2  0  0  0  0
 13 12  2  0  0  0  0
 14 13  1  0  0  0  0
 15 16  1  0  0  0  0
 17 18  1  0  0  0  0
 18 19  2  0  0  0  0
 19 21  1  0  0  0  0
 20 18  1  0  0  0  0
 21 22  1  0  0  0  0
 23 22  1  0  0  0  0
 23 27  1  0  0  0  0
 24 27  2  0  0  0  0
 25 24  1  0  0  0  0
 26 28  1  0  0  0  0
 26 25  2  0  0  0  0
 28 23  2  0  0  0  0
M  END
>  <MODEL>
9

>  <REMARK>
 VINA RESULT:      -6.2      2.749      8.188
  Name = 
  8 active torsions:
  status: ('A' for Active; 'I' for Inactive)
    1  A    between atoms: C_1  and  C_18
    2  A    between atoms: C_2  and  C_16
    3  A    between atoms: O_3  and  C_4
    4  A    between atoms: C_5  and  C_28
    5  A    between atoms: C_9  and  O_17
    6  A    between atoms: C_13  and  C_16
    7  A    between atoms: O_17  and  C_26
    8  A    between atoms: C_20  and  C_26
                            x       y       z     vdW  Elec       q    Type
                         _______ _______ _______ _____ _____    ______ ____

>  <TORSDO>
F 8

$$$$
