=
 OpenBabel11042414183D

 65 68  0  0  1  0  0  0  0  0999 V2000
  190.1250  174.3790  145.1430 C   0  0  1  0  0  3  0  0  0  0  0  0
  195.2110  176.7480  145.3760 N   0  0  0  0  0  0  0  0  0  0  0  0
  191.8150  175.8170  146.4960 C   0  0  0  0  0  0  0  0  0  0  0  0
  190.7570  176.1510  147.5490 C   0  0  0  0  0  1  0  0  0  0  0  0
  193.9890  176.2260  145.5590 C   0  0  0  0  0  0  0  0  0  0  0  0
  192.4830  174.8630  144.3550 C   0  0  0  0  0  3  0  0  0  0  0  0
  193.0780  176.4190  146.6120 C   0  0  0  0  0  3  0  0  0  0  0  0
  193.6810  175.4710  144.5390 C   0  0  0  0  0  0  0  0  0  0  0  0
  191.5180  174.9670  145.3630 C   0  0  0  0  0  0  0  0  0  0  0  0
  195.5720  176.2520  144.1620 C   0  0  0  0  0  0  0  0  0  0  0  0
  194.5690  175.4910  143.5620 N   0  0  0  0  0  2  0  0  0  0  0  0
  196.7860  176.6860  143.4020 C   0  0  0  0  0  2  0  0  0  0  0  0
  196.8390  176.3520  141.9050 C   0  0  0  0  0  2  0  0  0  0  0  0
  197.9380  175.3390  141.3100 C   0  0  0  0  0  2  0  0  0  0  0  0
  197.3580  173.8670  138.7720 O   0  0  0  0  0  0  0  0  0  0  0  0
  197.1070  173.7840  140.4800 P   0  0  0  0  0  0  0  0  0  0  0  0
  195.5910  173.8590  140.7360 O   0  0  0  0  0  1  0  0  0  0  0  0
  197.7840  172.2990  141.1030 O   0  0  0  0  0  1  0  0  0  0  0  0
  189.8810  177.0250  143.5680 O   0  0  0  0  0  0  0  0  0  0  0  0
  189.3610  175.9670  143.1090 C   0  0  0  0  0  0  0  0  0  0  0  0
  189.4480  174.7090  143.8010 N   0  0  0  0  0  2  0  0  0  0  0  0
  188.6410  175.9080  141.7440 C   0  0  2  0  0  3  0  0  0  0  0  0
  188.1270  177.1160  141.2880 O   0  0  0  0  0  0  0  0  0  0  0  0
  187.0500  176.7140  140.6280 O   0  0  0  0  0  1  0  0  0  0  0  0
  187.9830  174.5400  141.3440 C   0  0  0  0  0  2  0  0  0  0  0  0
  188.9810  173.5730  140.6710 C   0  0  2  0  0  3  0  0  0  0  0  0
  190.2310  174.4270  140.5400 C   0  0  0  0  0  1  0  0  0  0  0  0
  188.4860  172.9940  139.2950 C   0  0  0  0  0  2  0  0  0  0  0  0
  188.4000  174.0360  138.1090 C   0  0  0  0  0  2  0  0  0  0  0  0
  189.2920  173.5920  136.9800 N   0  0  0  0  0  2  0  0  0  0  0  0
  190.5180  172.8650  137.2530 C   0  0  1  0  0  3  0  0  0  0  0  0
  189.8690  170.5850  137.3310 O   0  0  0  0  0  0  0  0  0  0  0  0
  190.4160  171.5080  136.7180 C   0  0  0  0  0  0  0  0  0  0  0  0
  190.7690  171.3710  135.2670 C   0  0  0  0  0  2  0  0  0  0  0  0
  191.0160  170.0230  134.8090 N   0  0  0  0  0  1  0  0  0  0  0  0
  192.7360  174.0530  137.4630 N   0  0  0  0  0  1  0  0  0  0  0  0
  191.6800  173.6310  136.5680 C   0  0  2  0  0  3  0  0  0  0  0  0
  191.2410  174.9610  135.9150 C   0  0  0  0  0  2  0  0  0  0  0  0
  192.1820  175.9760  136.1000 O   0  0  0  0  0  1  0  0  0  0  0  0
  189.7920  172.9010  145.6410 C   0  0  0  0  0  2  0  0  0  0  0  0
  189.5740  171.9120  144.4730 C   0  0  0  0  0  2  0  0  0  0  0  0
  190.7300  171.9760  143.6830 N   0  0  0  0  0  2  0  0  0  0  0  0
  190.7780  170.9940  142.7340 C   0  0  0  0  0  2  0  0  0  0  0  0
  194.3670  170.4050  142.4080 C   0  0  0  0  0  0  0  0  0  0  0  0
  193.0920  171.3260  139.6550 C   0  0  0  0  0  3  0  0  0  0  0  0
  194.1900  170.5800  139.7550 C   0  0  0  0  0  0  0  0  0  0  0  0
  191.8780  171.3490  140.5740 C   0  0  0  0  0  3  0  0  0  0  0  0
  194.9790  170.1130  141.0100 C   0  0  0  0  0  3  0  0  0  0  0  0
  193.1000  170.6130  142.7140 C   0  0  0  0  0  2  0  0  0  0  0  0
  191.8360  170.8290  141.8270 C   0  0  0  0  0  0  0  0  0  0  0  0
  194.8550  170.2210  138.3640 C   0  0  2  0  0  3  0  0  0  0  0  0
  195.3370  171.4980  137.8700 O   0  0  0  0  0  0  0  0  0  0  0  0
  193.7860  169.6720  137.3690 C   0  0  0  0  0  2  0  0  0  0  0  0
  195.1590  171.4260  136.4990 C   0  0  2  0  0  3  0  0  0  0  0  0
  194.2960  170.2090  136.0540 C   0  0  0  0  0  2  0  0  0  0  0  0
  196.4770  171.5780  135.7800 C   0  0  0  0  0  2  0  0  0  0  0  0
  197.8820  170.3600  134.6610 C   0  0  0  0  0  1  0  0  0  0  0  0
  197.2370  170.4280  135.8960 O   0  0  0  0  0  0  0  0  0  0  0  0
  195.2890  170.4500  143.5820 C   0  0  0  0  0  2  0  0  0  0  0  0
  195.7640  169.2360  144.2880 C   0  0  1  0  0  3  0  0  0  0  0  0
  197.0500  168.9220  143.9030 O   0  0  0  0  0  1  0  0  0  0  0  0
  194.7070  169.9740  146.2740 O   0  0  0  0  0  0  0  0  0  0  0  0
  195.4780  169.1300  145.7360 C   0  0  0  0  0  0  0  0  0  0  0  0
  196.1140  168.2150  146.5240 O   0  0  0  0  0  0  0  0  0  0  0  0
  197.0520  168.5440  147.5440 C   0  0  0  0  0  1  0  0  0  0  0  0
  1  9  1  0  0  0  0
  1 40  1  6  0  0  0
  2  5  1  0  0  0  0
  3  7  1  0  0  0  0
  3  4  1  0  0  0  0
  5  7  2  0  0  0  0
  6  8  2  0  0  0  0
  6  9  1  0  0  0  0
  8  5  1  0  0  0  0
  9  3  2  0  0  0  0
 10  2  2  0  0  0  0
 11 10  1  0  0  0  0
 11  8  1  0  0  0  0
 12 10  1  0  0  0  0
 13 12  1  0  0  0  0
 14 13  1  0  0  0  0
 15 16  2  0  0  0  0
 16 17  1  0  0  0  0
 16 18  1  0  0  0  0
 16 14  1  0  0  0  0
 20 19  2  0  0  0  0
 20 21  1  0  0  0  0
 21  1  1  0  0  0  0
 22 25  1  1  0  0  0
 22 20  1  0  0  0  0
 23 22  1  0  0  0  0
 24 23  1  0  0  0  0
 26 27  1  6  0  0  0
 26 25  1  0  0  0  0
 28 26  1  0  0  0  0
 29 28  1  0  0  0  0
 30 31  1  0  0  0  0
 30 29  1  0  0  0  0
 31 33  1  6  0  0  0
 33 32  2  0  0  0  0
 34 33  1  0  0  0  0
 35 34  1  0  0  0  0
 37 31  1  0  0  0  0
 37 36  1  1  0  0  0
 38 39  1  0  0  0  0
 38 37  1  0  0  0  0
 41 40  1  0  0  0  0
 42 41  1  0  0  0  0
 43 42  1  0  0  0  0
 44 49  1  0  0  0  0
 44 59  1  0  0  0  0
 45 46  2  0  0  0  0
 45 47  1  0  0  0  0
 46 48  1  0  0  0  0
 47 50  2  0  0  0  0
 48 44  2  0  0  0  0
 50 49  1  0  0  0  0
 50 43  1  0  0  0  0
 51 46  1  1  0  0  0
 52 51  1  0  0  0  0
 53 51  1  0  0  0  0
 54 56  1  6  0  0  0
 54 52  1  0  0  0  0
 55 54  1  0  0  0  0
 55 53  1  0  0  0  0
 56 58  1  0  0  0  0
 57 58  1  0  0  0  0
 59 60  1  0  0  0  0
 60 61  1  1  0  0  0
 60 63  1  0  0  0  0
 63 62  2  0  0  0  0
 63 64  1  0  0  0  0
 64 65  1  0  0  0  0
M  END
>  <MODEL>
1

>  <REMARK>
 VINA RESULT:      -4.4      0.000      0.000
  Name = 
  29 active torsions:
  status: ('A' for Active; 'I' for Inactive)
    1  A    between atoms: O_2  and  C_61
    2  A    between atoms: O_3  and  C_28
    3  A    between atoms: C_4  and  C_14
    4  A    between atoms: C_4  and  C_46
    5  A    between atoms: C_5  and  N_38
    6  A    between atoms: C_5  and  C_57
    7  A    between atoms: C_7  and  CA_16
    8  A    between atoms: C_7  and  N_38
    9  A    between atoms: C_7  and  C_62
   10  A    between atoms: C_10  and  C_42
   11  A    between atoms: C_10  and  C_44
   12  A    between atoms: C_10  and  N_58
   13  A    between atoms: C_11  and  C_30
   14  A    between atoms: CA_16  and  C_17
   15  A    between atoms: P_19  and  C_50
   16  A    between atoms: O_22  and  C_59
   17  A    between atoms: C_25  and  C_33
   18  A    between atoms: C_25  and  C_49
   19  A    between atoms: C_28  and  C_40
   20  A    between atoms: C_28  and  C_43
   21  A    between atoms: C_33  and  C_50
   22  A    between atoms: C_34  and  C_59
   23  A    between atoms: C_39  and  C_62
   24  A    between atoms: C_40  and  C_52
   25  A    between atoms: C_41  and  C_44
   26  A    between atoms: C_41  and  N_51
   27  A    between atoms: C_46  and  C_61
   28  A    between atoms: C_52  and  C_57
   29  A    between atoms: C_63  and  C_65
                            x       y       z     vdW  Elec       q    Type
                         _______ _______ _______ _____ _____    ______ ____

>  <TORSDO>
F 29

$$$$
=
 OpenBabel11042414183D

 65 68  0  0  1  0  0  0  0  0999 V2000
  191.0710  176.0610  145.1220 C   0  0  1  0  0  3  0  0  0  0  0  0
  189.9160  171.2350  142.4970 N   0  0  0  0  0  0  0  0  0  0  0  0
  189.8050  173.7920  145.1610 C   0  0  0  0  0  0  0  0  0  0  0  0
  189.3770  174.0040  146.6140 C   0  0  0  0  0  1  0  0  0  0  0  0
  190.0030  172.3310  143.2650 C   0  0  0  0  0  0  0  0  0  0  0  0
  191.1000  174.4200  143.1950 C   0  0  0  0  0  3  0  0  0  0  0  0
  189.4730  172.5760  144.5430 C   0  0  0  0  0  3  0  0  0  0  0  0
  190.7340  173.2280  142.6600 C   0  0  0  0  0  0  0  0  0  0  0  0
  190.5970  174.7730  144.4510 C   0  0  0  0  0  0  0  0  0  0  0  0
  190.6720  171.5640  141.4150 C   0  0  0  0  0  0  0  0  0  0  0  0
  191.2790  172.8140  141.5320 N   0  0  0  0  0  2  0  0  0  0  0  0
  191.0600  170.6030  140.3350 C   0  0  0  0  0  2  0  0  0  0  0  0
  191.9790  169.4370  140.7230 C   0  0  0  0  0  2  0  0  0  0  0  0
  193.5410  169.6640  141.0300 C   0  0  0  0  0  2  0  0  0  0  0  0
  195.3450  169.2720  143.3830 O   0  0  0  0  0  1  0  0  0  0  0  0
  193.8590  170.0230  142.9180 P   0  0  0  0  0  0  0  0  0  0  0  0
  192.7270  169.3620  143.7260 O   0  0  0  0  0  1  0  0  0  0  0  0
  193.9430  171.7390  143.2300 O   0  0  0  0  0  0  0  0  0  0  0  0
  193.2480  174.0890  146.0760 O   0  0  0  0  0  0  0  0  0  0  0  0
  193.5660  175.2680  145.7470 C   0  0  0  0  0  0  0  0  0  0  0  0
  192.5920  176.2250  145.2940 N   0  0  0  0  0  2  0  0  0  0  0  0
  195.0240  175.7750  145.7390 C   0  0  2  0  0  3  0  0  0  0  0  0
  195.2680  176.8790  144.9320 O   0  0  0  0  0  0  0  0  0  0  0  0
  195.0890  177.8780  145.7850 O   0  0  0  0  0  1  0  0  0  0  0  0
  196.1480  174.7190  146.0350 C   0  0  0  0  0  2  0  0  0  0  0  0
  196.5860  173.9460  144.7730 C   0  0  2  0  0  3  0  0  0  0  0  0
  196.6970  172.5190  145.2820 C   0  0  0  0  0  1  0  0  0  0  0  0
  197.9210  174.4720  144.1280 C   0  0  0  0  0  2  0  0  0  0  0  0
  197.7460  175.4100  142.8670 C   0  0  0  0  0  2  0  0  0  0  0  0
  196.8520  174.7390  141.8580 N   0  0  0  0  0  2  0  0  0  0  0  0
  196.6590  175.3220  140.5440 C   0  0  1  0  0  3  0  0  0  0  0  0
  197.9410  174.9530  138.5820 O   0  0  0  0  0  0  0  0  0  0  0  0
  197.3070  174.4850  139.5340 C   0  0  0  0  0  0  0  0  0  0  0  0
  197.3880  173.0270  139.8760 C   0  0  0  0  0  2  0  0  0  0  0  0
  196.4190  172.1780  139.2220 N   0  0  0  0  0  1  0  0  0  0  0  0
  194.3270  174.5920  141.1770 N   0  0  0  0  0  1  0  0  0  0  0  0
  195.1320  175.3980  140.2840 C   0  0  2  0  0  3  0  0  0  0  0  0
  194.7160  174.8760  138.8910 C   0  0  0  0  0  2  0  0  0  0  0  0
  193.3320  174.7280  138.7740 O   0  0  0  0  0  1  0  0  0  0  0  0
  190.3470  177.4460  144.7990 C   0  0  0  0  0  2  0  0  0  0  0  0
  188.8170  177.3810  145.0050 C   0  0  0  0  0  2  0  0  0  0  0  0
  188.3030  176.6760  143.9070 N   0  0  0  0  0  2  0  0  0  0  0  0
  188.7040  177.1970  142.7080 C   0  0  0  0  0  2  0  0  0  0  0  0
  186.4430  177.6300  139.8750 C   0  0  0  0  0  0  0  0  0  0  0  0
  187.8530  174.7930  139.8040 C   0  0  0  0  0  3  0  0  0  0  0  0
  187.4070  175.4300  138.7240 C   0  0  0  0  0  0  0  0  0  0  0  0
  188.4330  175.3880  141.0800 C   0  0  0  0  0  3  0  0  0  0  0  0
  186.6340  176.7720  138.5940 C   0  0  0  0  0  3  0  0  0  0  0  0
  187.1740  177.6270  140.9730 C   0  0  0  0  0  2  0  0  0  0  0  0
  188.3160  176.6850  141.4610 C   0  0  0  0  0  0  0  0  0  0  0  0
  187.5940  174.6220  137.3750 C   0  0  2  0  0  3  0  0  0  0  0  0
  188.5660  173.6000  137.7150 O   0  0  0  0  0  0  0  0  0  0  0  0
  188.1970  175.5370  136.2640 C   0  0  0  0  0  2  0  0  0  0  0  0
  189.3220  173.4480  136.5640 C   0  0  2  0  0  3  0  0  0  0  0  0
  189.0590  174.5580  135.5050 C   0  0  0  0  0  2  0  0  0  0  0  0
  189.2320  172.0320  136.0490 C   0  0  0  0  0  2  0  0  0  0  0  0
  190.8420  171.4400  134.7200 C   0  0  0  0  0  1  0  0  0  0  0  0
  190.4750  171.4230  136.0650 O   0  0  0  0  0  0  0  0  0  0  0  0
  185.3120  178.6060  139.9020 C   0  0  0  0  0  2  0  0  0  0  0  0
  183.9930  178.3040  140.5060 C   0  0  1  0  0  3  0  0  0  0  0  0
  183.3510  177.3100  139.7980 O   0  0  0  0  0  1  0  0  0  0  0  0
  184.7020  177.3990  142.5760 O   0  0  0  0  0  0  0  0  0  0  0  0
  183.9220  178.1960  141.9800 C   0  0  0  0  0  0  0  0  0  0  0  0
  182.9630  178.8490  142.6990 O   0  0  0  0  0  0  0  0  0  0  0  0
  181.5620  178.6910  142.5010 C   0  0  0  0  0  1  0  0  0  0  0  0
  1 40  1  6  0  0  0
  1 21  1  0  0  0  0
  2  5  1  0  0  0  0
  3  4  1  0  0  0  0
  5  7  2  0  0  0  0
  6  9  1  0  0  0  0
  7  3  1  0  0  0  0
  8  6  2  0  0  0  0
  8  5  1  0  0  0  0
  9  1  1  0  0  0  0
  9  3  2  0  0  0  0
 10 11  1  0  0  0  0
 10  2  2  0  0  0  0
 11  8  1  0  0  0  0
 12 13  1  0  0  0  0
 12 10  1  0  0  0  0
 13 14  1  0  0  0  0
 14 16  1  0  0  0  0
 16 18  2  0  0  0  0
 16 15  1  0  0  0  0
 16 17  1  0  0  0  0
 20 19  2  0  0  0  0
 21 20  1  0  0  0  0
 22 20  1  0  0  0  0
 22 25  1  6  0  0  0
 23 22  1  0  0  0  0
 23 24  1  0  0  0  0
 26 27  1  1  0  0  0
 26 25  1  0  0  0  0
 28 26  1  0  0  0  0
 29 28  1  0  0  0  0
 30 29  1  0  0  0  0
 31 33  1  6  0  0  0
 31 30  1  0  0  0  0
 32 33  2  0  0  0  0
 33 34  1  0  0  0  0
 35 34  1  0  0  0  0
 37 31  1  0  0  0  0
 37 36  1  1  0  0  0
 38 37  1  0  0  0  0
 39 38  1  0  0  0  0
 40 41  1  0  0  0  0
 42 41  1  0  0  0  0
 43 42  1  0  0  0  0
 44 59  1  0  0  0  0
 44 49  1  0  0  0  0
 45 47  1  0  0  0  0
 46 45  2  0  0  0  0
 47 50  2  0  0  0  0
 48 46  1  0  0  0  0
 48 44  2  0  0  0  0
 49 50  1  0  0  0  0
 50 43  1  0  0  0  0
 51 52  1  0  0  0  0
 51 46  1  1  0  0  0
 53 51  1  0  0  0  0
 54 56  1  6  0  0  0
 54 52  1  0  0  0  0
 55 53  1  0  0  0  0
 55 54  1  0  0  0  0
 56 58  1  0  0  0  0
 57 58  1  0  0  0  0
 59 60  1  0  0  0  0
 60 61  1  6  0  0  0
 60 63  1  0  0  0  0
 63 62  2  0  0  0  0
 63 64  1  0  0  0  0
 65 64  1  0  0  0  0
M  END
>  <MODEL>
2

>  <REMARK>
 VINA RESULT:      -4.3      2.948      8.443
  Name = 
  29 active torsions:
  status: ('A' for Active; 'I' for Inactive)
    1  A    between atoms: O_2  and  C_61
    2  A    between atoms: O_3  and  C_28
    3  A    between atoms: C_4  and  C_14
    4  A    between atoms: C_4  and  C_46
    5  A    between atoms: C_5  and  N_38
    6  A    between atoms: C_5  and  C_57
    7  A    between atoms: C_7  and  CA_16
    8  A    between atoms: C_7  and  N_38
    9  A    between atoms: C_7  and  C_62
   10  A    between atoms: C_10  and  C_42
   11  A    between atoms: C_10  and  C_44
   12  A    between atoms: C_10  and  N_58
   13  A    between atoms: C_11  and  C_30
   14  A    between atoms: CA_16  and  C_17
   15  A    between atoms: P_19  and  C_50
   16  A    between atoms: O_22  and  C_59
   17  A    between atoms: C_25  and  C_33
   18  A    between atoms: C_25  and  C_49
   19  A    between atoms: C_28  and  C_40
   20  A    between atoms: C_28  and  C_43
   21  A    between atoms: C_33  and  C_50
   22  A    between atoms: C_34  and  C_59
   23  A    between atoms: C_39  and  C_62
   24  A    between atoms: C_40  and  C_52
   25  A    between atoms: C_41  and  C_44
   26  A    between atoms: C_41  and  N_51
   27  A    between atoms: C_46  and  C_61
   28  A    between atoms: C_52  and  C_57
   29  A    between atoms: C_63  and  C_65
                            x       y       z     vdW  Elec       q    Type
                         _______ _______ _______ _____ _____    ______ ____

>  <TORSDO>
F 29

$$$$
=
 OpenBabel11042414183D

 65 68  0  0  1  0  0  0  0  0999 V2000
  187.2420  177.0890  142.2340 C   0  0  1  0  0  3  0  0  0  0  0  0
  182.0900  178.6400  140.6300 N   0  0  0  0  0  0  0  0  0  0  0  0
  185.5870  177.5050  140.2740 C   0  0  0  0  0  0  0  0  0  0  0  0
  186.6990  177.3230  139.2380 C   0  0  0  0  0  1  0  0  0  0  0  0
  183.3420  178.1850  140.7870 C   0  0  0  0  0  0  0  0  0  0  0  0
  184.8200  177.7440  142.5740 C   0  0  0  0  0  3  0  0  0  0  0  0
  184.3120  177.8720  139.8190 C   0  0  0  0  0  3  0  0  0  0  0  0
  183.6120  178.0860  142.0600 C   0  0  0  0  0  0  0  0  0  0  0  0
  185.8440  177.3810  141.6930 C   0  0  0  0  0  0  0  0  0  0  0  0
  181.6700  178.8150  141.9120 C   0  0  0  0  0  0  0  0  0  0  0  0
  182.6620  178.5430  142.8540 N   0  0  0  0  0  2  0  0  0  0  0  0
  180.3920  179.4930  142.2940 C   0  0  0  0  0  2  0  0  0  0  0  0
  179.4920  179.9960  141.1570 C   0  0  0  0  0  2  0  0  0  0  0  0
  180.0410  181.0140  140.0390 C   0  0  0  0  0  2  0  0  0  0  0  0
  179.3300  182.4530  137.5160 O   0  0  0  0  0  0  0  0  0  0  0  0
  178.6200  181.6030  138.8430 P   0  0  0  0  0  0  0  0  0  0  0  0
  177.7290  182.5950  139.6130 O   0  0  0  0  0  1  0  0  0  0  0  0
  177.6940  180.2480  138.2470 O   0  0  0  0  0  1  0  0  0  0  0  0
  189.1370  178.3690  144.3100 O   0  0  0  0  0  0  0  0  0  0  0  0
  188.2690  177.5280  144.6830 C   0  0  0  0  0  0  0  0  0  0  0  0
  187.3610  176.9050  143.7570 N   0  0  0  0  0  2  0  0  0  0  0  0
  188.0590  177.1360  146.1610 C   0  0  2  0  0  3  0  0  0  0  0  0
  186.8860  177.6040  146.7410 O   0  0  0  0  0  0  0  0  0  0  0  0
  187.3570  178.4440  147.6520 O   0  0  0  0  0  1  0  0  0  0  0  0
  189.3470  176.8800  147.0210 C   0  0  0  0  0  2  0  0  0  0  0  0
  190.0030  175.5150  146.7210 C   0  0  2  0  0  3  0  0  0  0  0  0
  190.8640  175.2850  147.9520 C   0  0  0  0  0  1  0  0  0  0  0  0
  190.8280  175.4810  145.3820 C   0  0  0  0  0  2  0  0  0  0  0  0
  191.8070  174.2500  145.2150 C   0  0  0  0  0  2  0  0  0  0  0  0
  192.8400  174.5640  144.1660 N   0  0  0  0  0  2  0  0  0  0  0  0
  194.0250  173.7390  144.0310 C   0  0  1  0  0  3  0  0  0  0  0  0
  195.1810  172.9210  142.1280 O   0  0  0  0  0  0  0  0  0  0  0  0
  194.5350  173.8280  142.6630 C   0  0  0  0  0  0  0  0  0  0  0  0
  193.9890  174.9690  141.8570 C   0  0  0  0  0  2  0  0  0  0  0  0
  194.8130  175.4030  140.7520 N   0  0  0  0  0  1  0  0  0  0  0  0
  195.9460  175.3050  144.5150 N   0  0  0  0  0  1  0  0  0  0  0  0
  195.0820  174.2690  145.0370 C   0  0  2  0  0  3  0  0  0  0  0  0
  196.0880  173.1910  145.4970 C   0  0  0  0  0  2  0  0  0  0  0  0
  197.0860  173.7170  146.3200 O   0  0  0  0  0  1  0  0  0  0  0  0
  188.2270  176.1260  141.4290 C   0  0  0  0  0  2  0  0  0  0  0  0
  187.9350  174.6290  141.6800 C   0  0  0  0  0  2  0  0  0  0  0  0
  189.1770  174.0210  141.9130 N   0  0  0  0  0  2  0  0  0  0  0  0
  189.2480  172.7530  141.4060 C   0  0  0  0  0  2  0  0  0  0  0  0
  192.0540  171.2650  139.6050 C   0  0  0  0  0  0  0  0  0  0  0  0
  191.6620  169.9180  142.4470 C   0  0  0  0  0  3  0  0  0  0  0  0
  192.8250  169.9720  141.8020 C   0  0  0  0  0  0  0  0  0  0  0  0
  190.5260  170.9320  142.4320 C   0  0  0  0  0  3  0  0  0  0  0  0
  193.1690  170.5180  140.3880 C   0  0  0  0  0  2  0  0  0  0  0  0
  190.9920  171.8800  140.0880 C   0  0  0  0  0  3  0  0  0  0  0  0
  190.3750  171.9250  141.5190 C   0  0  0  0  0  0  0  0  0  0  0  0
  194.0150  169.2510  142.5580 C   0  0  2  0  0  3  0  0  0  0  0  0
  193.9320  169.7710  143.9110 O   0  0  0  0  0  0  0  0  0  0  0  0
  195.3880  169.6670  141.9460 C   0  0  0  0  0  2  0  0  0  0  0  0
  195.2500  169.8630  144.3250 C   0  0  2  0  0  3  0  0  0  0  0  0
  196.2740  169.6700  143.1680 C   0  0  0  0  0  2  0  0  0  0  0  0
  195.4880  169.0070  145.5450 C   0  0  0  0  0  2  0  0  0  0  0  0
  194.7640  168.1660  147.4110 C   0  0  0  0  0  1  0  0  0  0  0  0
  194.3350  168.8980  146.3030 O   0  0  0  0  0  0  0  0  0  0  0  0
  192.1700  171.3330  138.1170 C   0  0  0  0  0  2  0  0  0  0  0  0
  191.2650  172.1460  137.2690 C   0  0  1  0  0  3  0  0  0  0  0  0
  190.0900  171.4680  137.0230 O   0  0  0  0  0  1  0  0  0  0  0  0
  189.9710  174.0640  137.7680 O   0  0  0  0  0  0  0  0  0  0  0  0
  191.1260  173.5820  137.5960 C   0  0  0  0  0  0  0  0  0  0  0  0
  192.2030  174.4210  137.6030 O   0  0  0  0  0  0  0  0  0  0  0  0
  192.7660  175.0180  136.4400 C   0  0  0  0  0  1  0  0  0  0  0  0
  1 40  1  6  0  0  0
  1 21  1  0  0  0  0
  2  5  1  0  0  0  0
  2 10  2  0  0  0  0
  3  9  1  0  0  0  0
  4  3  1  0  0  0  0
  5  8  2  0  0  0  0
  7  3  2  0  0  0  0
  7  5  1  0  0  0  0
  8  6  1  0  0  0  0
  8 11  1  0  0  0  0
  9  1  1  0  0  0  0
  9  6  2  0  0  0  0
 10 12  1  0  0  0  0
 10 11  1  0  0  0  0
 13 12  1  0  0  0  0
 14 13  1  0  0  0  0
 15 16  2  0  0  0  0
 16 17  1  0  0  0  0
 16 14  1  0  0  0  0
 18 16  1  0  0  0  0
 19 20  2  0  0  0  0
 20 22  1  0  0  0  0
 21 20  1  0  0  0  0
 22 23  1  0  0  0  0
 22 25  1  1  0  0  0
 23 24  1  0  0  0  0
 26 25  1  0  0  0  0
 26 27  1  1  0  0  0
 28 26  1  0  0  0  0
 29 28  1  0  0  0  0
 30 29  1  0  0  0  0
 31 33  1  6  0  0  0
 31 30  1  0  0  0  0
 31 37  1  0  0  0  0
 32 33  2  0  0  0  0
 34 33  1  0  0  0  0
 35 34  1  0  0  0  0
 37 36  1  6  0  0  0
 37 38  1  0  0  0  0
 38 39  1  0  0  0  0
 40 41  1  0  0  0  0
 41 42  1  0  0  0  0
 43 50  1  0  0  0  0
 43 42  1  0  0  0  0
 44 49  2  0  0  0  0
 44 48  1  0  0  0  0
 46 45  2  0  0  0  0
 47 45  1  0  0  0  0
 48 46  1  0  0  0  0
 49 50  1  0  0  0  0
 50 47  2  0  0  0  0
 51 46  1  6  0  0  0
 51 52  1  0  0  0  0
 52 54  1  0  0  0  0
 53 51  1  0  0  0  0
 53 55  1  0  0  0  0
 54 56  1  1  0  0  0
 55 54  1  0  0  0  0
 56 58  1  0  0  0  0
 58 57  1  0  0  0  0
 59 44  1  0  0  0  0
 60 61  1  1  0  0  0
 60 63  1  0  0  0  0
 60 59  1  0  0  0  0
 63 64  1  0  0  0  0
 63 62  2  0  0  0  0
 65 64  1  0  0  0  0
M  END
>  <MODEL>
3

>  <REMARK>
 VINA RESULT:      -4.1      4.922     10.003
  Name = 
  29 active torsions:
  status: ('A' for Active; 'I' for Inactive)
    1  A    between atoms: O_2  and  C_61
    2  A    between atoms: O_3  and  C_28
    3  A    between atoms: C_4  and  C_14
    4  A    between atoms: C_4  and  C_46
    5  A    between atoms: C_5  and  N_38
    6  A    between atoms: C_5  and  C_57
    7  A    between atoms: C_7  and  CA_16
    8  A    between atoms: C_7  and  N_38
    9  A    between atoms: C_7  and  C_62
   10  A    between atoms: C_10  and  C_42
   11  A    between atoms: C_10  and  C_44
   12  A    between atoms: C_10  and  N_58
   13  A    between atoms: C_11  and  C_30
   14  A    between atoms: CA_16  and  C_17
   15  A    between atoms: P_19  and  C_50
   16  A    between atoms: O_22  and  C_59
   17  A    between atoms: C_25  and  C_33
   18  A    between atoms: C_25  and  C_49
   19  A    between atoms: C_28  and  C_40
   20  A    between atoms: C_28  and  C_43
   21  A    between atoms: C_33  and  C_50
   22  A    between atoms: C_34  and  C_59
   23  A    between atoms: C_39  and  C_62
   24  A    between atoms: C_40  and  C_52
   25  A    between atoms: C_41  and  C_44
   26  A    between atoms: C_41  and  N_51
   27  A    between atoms: C_46  and  C_61
   28  A    between atoms: C_52  and  C_57
   29  A    between atoms: C_63  and  C_65
                            x       y       z     vdW  Elec       q    Type
                         _______ _______ _______ _____ _____    ______ ____

>  <TORSDO>
F 29

$$$$
=
 OpenBabel11042414183D

 65 68  0  0  1  0  0  0  0  0999 V2000
  187.2950  177.0500  142.3530 C   0  0  1  0  0  3  0  0  0  0  0  0
  182.1770  178.6500  140.6870 N   0  0  0  0  0  0  0  0  0  0  0  0
  185.6720  177.4950  140.3720 C   0  0  0  0  0  0  0  0  0  0  0  0
  186.7980  177.3150  139.3510 C   0  0  0  0  0  1  0  0  0  0  0  0
  183.4240  178.1850  140.8580 C   0  0  0  0  0  0  0  0  0  0  0  0
  184.8720  177.7180  142.6630 C   0  0  0  0  0  3  0  0  0  0  0  0
  184.4060  177.8750  139.9010 C   0  0  0  0  0  3  0  0  0  0  0  0
  183.6740  178.0720  142.1340 C   0  0  0  0  0  0  0  0  0  0  0  0
  185.9060  177.3560  141.7930 C   0  0  0  0  0  0  0  0  0  0  0  0
  181.7400  178.8160  141.9640 C   0  0  0  0  0  0  0  0  0  0  0  0
  182.7160  178.5290  142.9180 N   0  0  0  0  0  2  0  0  0  0  0  0
  180.4600  179.4990  142.3340 C   0  0  0  0  0  2  0  0  0  0  0  0
  179.2460  179.2630  141.4250 C   0  0  0  0  0  2  0  0  0  0  0  0
  178.5800  177.8060  141.2750 C   0  0  0  0  0  2  0  0  0  0  0  0
  180.0640  177.1780  138.7560 O   0  0  0  0  0  1  0  0  0  0  0  0
  178.4660  177.2550  139.4100 P   0  0  0  0  0  0  0  0  0  0  0  0
  177.6950  178.3420  138.6380 O   0  0  0  0  0  0  0  0  0  0  0  0
  177.6910  175.6970  139.2580 O   0  0  0  0  0  1  0  0  0  0  0  0
  189.2790  178.2170  144.4120 O   0  0  0  0  0  0  0  0  0  0  0  0
  188.3470  177.4520  144.7970 C   0  0  0  0  0  0  0  0  0  0  0  0
  187.3960  176.8850  143.8790 N   0  0  0  0  0  2  0  0  0  0  0  0
  188.1040  177.1050  146.2810 C   0  0  2  0  0  3  0  0  0  0  0  0
  186.8830  177.5200  146.7990 O   0  0  0  0  0  0  0  0  0  0  0  0
  186.0800  176.5410  146.4070 O   0  0  0  0  0  1  0  0  0  0  0  0
  189.3710  176.9640  147.1970 C   0  0  0  0  0  2  0  0  0  0  0  0
  190.3230  175.8420  146.7290 C   0  0  2  0  0  3  0  0  0  0  0  0
  190.9040  175.3340  148.0390 C   0  0  0  0  0  1  0  0  0  0  0  0
  191.4250  176.3180  145.7140 C   0  0  0  0  0  2  0  0  0  0  0  0
  191.6050  175.4150  144.4280 C   0  0  0  0  0  2  0  0  0  0  0  0
  192.9870  175.6060  143.8640 N   0  0  0  0  0  2  0  0  0  0  0  0
  194.0240  174.6210  144.1080 C   0  0  1  0  0  3  0  0  0  0  0  0
  193.7770  172.9930  142.4010 O   0  0  0  0  0  0  0  0  0  0  0  0
  194.3890  173.9670  142.8520 C   0  0  0  0  0  0  0  0  0  0  0  0
  195.3750  174.7200  142.0090 C   0  0  0  0  0  2  0  0  0  0  0  0
  196.5170  173.9590  141.5550 N   0  0  0  0  0  1  0  0  0  0  0  0
  195.6540  174.9070  146.0150 N   0  0  0  0  0  1  0  0  0  0  0  0
  195.2470  175.3670  144.7050 C   0  0  2  0  0  3  0  0  0  0  0  0
  194.9960  176.8730  144.9400 C   0  0  0  0  0  2  0  0  0  0  0  0
  194.7710  177.1680  146.2860 O   0  0  0  0  0  1  0  0  0  0  0  0
  188.2720  176.0600  141.5710 C   0  0  0  0  0  2  0  0  0  0  0  0
  187.8660  174.5770  141.7220 C   0  0  0  0  0  2  0  0  0  0  0  0
  189.0540  173.8650  141.9420 N   0  0  0  0  0  2  0  0  0  0  0  0
  189.2060  172.8120  141.0830 C   0  0  0  0  0  2  0  0  0  0  0  0
  192.2880  171.8370  139.3850 C   0  0  0  0  0  0  0  0  0  0  0  0
  191.4150  169.6710  141.5290 C   0  0  0  0  0  3  0  0  0  0  0  0
  192.6720  169.8680  141.1380 C   0  0  0  0  0  0  0  0  0  0  0  0
  190.2950  170.6940  141.6580 C   0  0  0  0  0  3  0  0  0  0  0  0
  193.2530  170.8210  140.0560 C   0  0  0  0  0  2  0  0  0  0  0  0
  191.1550  172.3190  139.8610 C   0  0  0  0  0  3  0  0  0  0  0  0
  190.3000  171.9340  141.1060 C   0  0  0  0  0  0  0  0  0  0  0  0
  193.7170  168.8820  141.8040 C   0  0  2  0  0  3  0  0  0  0  0  0
  194.4470  169.7260  142.7330 O   0  0  0  0  0  0  0  0  0  0  0  0
  194.7140  168.3330  140.7370 C   0  0  0  0  0  2  0  0  0  0  0  0
  195.7410  169.2330  142.7010 C   0  0  2  0  0  3  0  0  0  0  0  0
  195.9850  168.2210  141.5430 C   0  0  0  0  0  2  0  0  0  0  0  0
  196.1680  168.7620  144.0690 C   0  0  0  0  0  2  0  0  0  0  0  0
  197.2750  170.6230  144.2190 C   0  0  0  0  0  1  0  0  0  0  0  0
  196.3620  169.8350  144.9210 O   0  0  0  0  0  0  0  0  0  0  0  0
  192.6590  172.3730  138.0410 C   0  0  0  0  0  2  0  0  0  0  0  0
  192.1790  171.7800  136.7700 C   0  0  1  0  0  3  0  0  0  0  0  0
  191.8320  170.4580  136.9510 O   0  0  0  0  0  1  0  0  0  0  0  0
  191.6600  173.6680  135.4390 O   0  0  0  0  0  0  0  0  0  0  0  0
  191.2510  172.5850  135.9460 C   0  0  0  0  0  0  0  0  0  0  0  0
  189.9350  172.2460  135.8140 O   0  0  0  0  0  0  0  0  0  0  0  0
  189.3480  171.7500  134.6140 C   0  0  0  0  0  1  0  0  0  0  0  0
  1 40  1  6  0  0  0
  1 21  1  0  0  0  0
  2  5  1  0  0  0  0
  2 10  2  0  0  0  0
  3  9  1  0  0  0  0
  4  3  1  0  0  0  0
  5  8  2  0  0  0  0
  7  3  2  0  0  0  0
  7  5  1  0  0  0  0
  8  6  1  0  0  0  0
  8 11  1  0  0  0  0
  9  1  1  0  0  0  0
  9  6  2  0  0  0  0
 10 12  1  0  0  0  0
 10 11  1  0  0  0  0
 13 12  1  0  0  0  0
 14 13  1  0  0  0  0
 15 16  1  0  0  0  0
 16 14  1  0  0  0  0
 17 16  2  0  0  0  0
 18 16  1  0  0  0  0
 19 20  2  0  0  0  0
 20 22  1  0  0  0  0
 21 20  1  0  0  0  0
 22 23  1  0  0  0  0
 22 25  1  1  0  0  0
 24 23  1  0  0  0  0
 26 25  1  0  0  0  0
 26 27  1  1  0  0  0
 28 26  1  0  0  0  0
 29 28  1  0  0  0  0
 30 31  1  0  0  0  0
 30 29  1  0  0  0  0
 31 33  1  6  0  0  0
 31 37  1  0  0  0  0
 32 33  2  0  0  0  0
 34 33  1  0  0  0  0
 35 34  1  0  0  0  0
 37 38  1  0  0  0  0
 37 36  1  1  0  0  0
 38 39  1  0  0  0  0
 40 41  1  0  0  0  0
 41 42  1  0  0  0  0
 43 50  1  0  0  0  0
 43 42  1  0  0  0  0
 44 49  2  0  0  0  0
 44 48  1  0  0  0  0
 45 47  1  0  0  0  0
 46 45  2  0  0  0  0
 48 46  1  0  0  0  0
 49 50  1  0  0  0  0
 50 47  2  0  0  0  0
 51 46  1  6  0  0  0
 51 52  1  0  0  0  0
 53 55  1  0  0  0  0
 53 51  1  0  0  0  0
 54 52  1  0  0  0  0
 54 56  1  1  0  0  0
 55 54  1  0  0  0  0
 56 58  1  0  0  0  0
 57 58  1  0  0  0  0
 59 44  1  0  0  0  0
 60 61  1  1  0  0  0
 60 59  1  0  0  0  0
 62 63  2  0  0  0  0
 63 60  1  0  0  0  0
 64 63  1  0  0  0  0
 65 64  1  0  0  0  0
M  END
>  <MODEL>
4

>  <REMARK>
 VINA RESULT:      -4.0      4.694      9.728
  Name = 
  29 active torsions:
  status: ('A' for Active; 'I' for Inactive)
    1  A    between atoms: O_2  and  C_61
    2  A    between atoms: O_3  and  C_28
    3  A    between atoms: C_4  and  C_14
    4  A    between atoms: C_4  and  C_46
    5  A    between atoms: C_5  and  N_38
    6  A    between atoms: C_5  and  C_57
    7  A    between atoms: C_7  and  CA_16
    8  A    between atoms: C_7  and  N_38
    9  A    between atoms: C_7  and  C_62
   10  A    between atoms: C_10  and  C_42
   11  A    between atoms: C_10  and  C_44
   12  A    between atoms: C_10  and  N_58
   13  A    between atoms: C_11  and  C_30
   14  A    between atoms: CA_16  and  C_17
   15  A    between atoms: P_19  and  C_50
   16  A    between atoms: O_22  and  C_59
   17  A    between atoms: C_25  and  C_33
   18  A    between atoms: C_25  and  C_49
   19  A    between atoms: C_28  and  C_40
   20  A    between atoms: C_28  and  C_43
   21  A    between atoms: C_33  and  C_50
   22  A    between atoms: C_34  and  C_59
   23  A    between atoms: C_39  and  C_62
   24  A    between atoms: C_40  and  C_52
   25  A    between atoms: C_41  and  C_44
   26  A    between atoms: C_41  and  N_51
   27  A    between atoms: C_46  and  C_61
   28  A    between atoms: C_52  and  C_57
   29  A    between atoms: C_63  and  C_65
                            x       y       z     vdW  Elec       q    Type
                         _______ _______ _______ _____ _____    ______ ____

>  <TORSDO>
F 29

$$$$
=
 OpenBabel11042414183D

 65 68  0  0  1  0  0  0  0  0999 V2000
  190.5930  176.0530  144.9840 C   0  0  1  0  0  3  0  0  0  0  0  0
  195.7680  175.9550  142.8090 N   0  0  0  0  0  0  0  0  0  0  0  0
  193.1510  176.2480  145.4000 C   0  0  0  0  0  0  0  0  0  0  0  0
  192.9270  176.6960  146.8460 C   0  0  0  0  0  1  0  0  0  0  0  0
  194.6450  175.9570  143.5420 C   0  0  0  0  0  0  0  0  0  0  0  0
  192.3260  175.7110  143.1710 C   0  0  0  0  0  3  0  0  0  0  0  0
  194.4660  176.2210  144.9110 C   0  0  0  0  0  3  0  0  0  0  0  0
  193.6230  175.6970  142.7720 C   0  0  0  0  0  0  0  0  0  0  0  0
  192.0440  175.9310  144.5230 C   0  0  0  0  0  0  0  0  0  0  0  0
  195.3090  175.6970  141.5550 C   0  0  0  0  0  0  0  0  0  0  0  0
  193.9180  175.6080  141.4890 N   0  0  0  0  0  2  0  0  0  0  0  0
  196.1480  175.7770  140.3180 C   0  0  0  0  0  3  0  0  0  0  0  0
  195.6160  175.0800  139.0580 C   0  0  0  0  0  3  0  0  0  0  0  0
  196.4690  175.0470  137.6940 C   0  0  0  0  0  2  0  0  0  0  0  0
  196.1860  173.8660  134.9610 O   0  0  0  0  0  0  0  0  0  0  0  0
  196.0720  173.4590  136.6370 P   0  0  0  0  0  0  0  0  0  0  0  0
  194.6170  173.0470  136.9230 O   0  0  0  0  0  1  0  0  0  0  0  0
  197.1830  172.1620  137.0050 O   0  0  0  0  0  1  0  0  0  0  0  0
  189.5130  177.9870  142.8320 O   0  0  0  0  0  0  0  0  0  0  0  0
  189.0440  176.8160  142.9200 C   0  0  0  0  0  0  0  0  0  0  0  0
  189.5130  175.8760  143.9020 N   0  0  0  0  0  2  0  0  0  0  0  0
  187.9760  176.2640  141.9520 C   0  0  2  0  0  3  0  0  0  0  0  0
  188.4280  175.3180  141.0400 O   0  0  0  0  0  0  0  0  0  0  0  0
  187.9880  174.1920  141.5830 O   0  0  0  0  0  1  0  0  0  0  0  0
  186.7640  177.2030  141.6160 C   0  0  0  0  0  2  0  0  0  0  0  0
  186.6360  177.4940  140.1050 C   0  0  2  0  0  3  0  0  0  0  0  0
  185.3050  178.2230  140.0200 C   0  0  0  0  0  1  0  0  0  0  0  0
  186.6900  176.2100  139.1980 C   0  0  0  0  0  2  0  0  0  0  0  0
  186.7490  176.4770  137.6400 C   0  0  0  0  0  2  0  0  0  0  0  0
  187.2910  175.2600  136.9390 N   0  0  0  0  0  2  0  0  0  0  0  0
  188.7130  174.9770  136.9490 C   0  0  1  0  0  3  0  0  0  0  0  0
  188.3440  172.7030  137.5140 O   0  0  0  0  0  0  0  0  0  0  0  0
  188.9670  173.7520  137.7070 C   0  0  0  0  0  0  0  0  0  0  0  0
  190.2150  173.7690  138.5390 C   0  0  0  0  0  2  0  0  0  0  0  0
  191.2560  172.8580  138.1220 N   0  0  0  0  0  1  0  0  0  0  0  0
  190.5960  174.9170  135.2670 N   0  0  0  0  0  1  0  0  0  0  0  0
  189.1680  174.8050  135.4760 C   0  0  2  0  0  3  0  0  0  0  0  0
  188.6030  175.8850  134.5260 C   0  0  0  0  0  2  0  0  0  0  0  0
  189.2590  177.1100  134.6700 O   0  0  0  0  0  1  0  0  0  0  0  0
  190.1460  175.4440  146.3900 C   0  0  0  0  0  2  0  0  0  0  0  0
  189.6450  173.9870  146.2770 C   0  0  0  0  0  2  0  0  0  0  0  0
  190.5490  173.3250  145.4340 N   0  0  0  0  0  2  0  0  0  0  0  0
  189.9290  172.5010  144.5350 C   0  0  0  0  0  2  0  0  0  0  0  0
  192.9950  170.6390  143.8540 C   0  0  0  0  0  0  0  0  0  0  0  0
  191.2930  171.0680  141.2150 C   0  0  0  0  0  3  0  0  0  0  0  0
  192.1370  170.0550  141.4010 C   0  0  0  0  0  0  0  0  0  0  0  0
  190.4360  171.7850  142.2480 C   0  0  0  0  0  3  0  0  0  0  0  0
  193.0930  169.7450  142.5870 C   0  0  0  0  0  3  0  0  0  0  0  0
  191.9660  171.3540  144.2690 C   0  0  0  0  0  2  0  0  0  0  0  0
  190.6090  171.7160  143.5920 C   0  0  0  0  0  0  0  0  0  0  0  0
  192.2670  169.0860  140.1550 C   0  0  2  0  0  3  0  0  0  0  0  0
  193.0920  169.8320  139.2210 O   0  0  0  0  0  0  0  0  0  0  0  0
  190.8720  168.8380  139.5030 C   0  0  0  0  0  2  0  0  0  0  0  0
  192.5920  169.4920  137.9750 C   0  0  2  0  0  3  0  0  0  0  0  0
  191.2390  168.7250  138.0430 C   0  0  0  0  0  2  0  0  0  0  0  0
  193.6590  168.8420  137.1290 C   0  0  0  0  0  2  0  0  0  0  0  0
  194.8040  169.7300  135.5140 C   0  0  0  0  0  1  0  0  0  0  0  0
  194.7090  169.7140  136.9050 O   0  0  0  0  0  0  0  0  0  0  0  0
  194.1870  170.7140  144.7530 C   0  0  0  0  0  2  0  0  0  0  0  0
  195.4570  171.3700  144.3630 C   0  0  1  0  0  3  0  0  0  0  0  0
  195.2090  172.5140  143.6340 O   0  0  0  0  0  1  0  0  0  0  0  0
  196.5650  172.5060  146.1200 O   0  0  0  0  0  0  0  0  0  0  0  0
  196.5170  171.4750  145.3900 C   0  0  0  0  0  0  0  0  0  0  0  0
  197.5080  170.5430  145.4920 O   0  0  0  0  0  0  0  0  0  0  0  0
  197.6680  169.4370  144.6080 C   0  0  0  0  0  1  0  0  0  0  0  0
  1 40  1  1  0  0  0
  2  5  1  0  0  0  0
  3  4  1  0  0  0  0
  5  7  2  0  0  0  0
  6  9  1  0  0  0  0
  7  3  1  0  0  0  0
  8  6  2  0  0  0  0
  8  5  1  0  0  0  0
  9  1  1  0  0  0  0
  9  3  2  0  0  0  0
 10  2  2  0  0  0  0
 11 10  1  0  0  0  0
 11  8  1  0  0  0  0
 12 10  1  0  0  0  0
 13 12  2  0  0  0  0
 14 13  1  0  0  0  0
 15 16  2  0  0  0  0
 16 17  1  0  0  0  0
 16 18  1  0  0  0  0
 16 14  1  0  0  0  0
 19 20  2  0  0  0  0
 20 21  1  0  0  0  0
 21  1  1  0  0  0  0
 22 25  1  6  0  0  0
 22 20  1  0  0  0  0
 23 24  1  0  0  0  0
 23 22  1  0  0  0  0
 26 27  1  1  0  0  0
 26 25  1  0  0  0  0
 28 26  1  0  0  0  0
 29 28  1  0  0  0  0
 30 29  1  0  0  0  0
 31 30  1  6  0  0  0
 31 33  1  0  0  0  0
 32 33  2  0  0  0  0
 33 34  1  0  0  0  0
 35 34  1  0  0  0  0
 37 36  1  1  0  0  0
 37 31  1  0  0  0  0
 38 39  1  0  0  0  0
 38 37  1  0  0  0  0
 41 40  1  0  0  0  0
 42 41  1  0  0  0  0
 43 42  1  0  0  0  0
 44 49  1  0  0  0  0
 44 59  1  0  0  0  0
 45 46  2  0  0  0  0
 45 47  1  0  0  0  0
 46 48  1  0  0  0  0
 47 50  2  0  0  0  0
 48 44  2  0  0  0  0
 50 49  1  0  0  0  0
 50 43  1  0  0  0  0
 51 46  1  1  0  0  0
 52 51  1  0  0  0  0
 53 51  1  0  0  0  0
 54 56  1  1  0  0  0
 54 55  1  0  0  0  0
 54 52  1  0  0  0  0
 55 53  1  0  0  0  0
 57 58  1  0  0  0  0
 58 56  1  0  0  0  0
 60 61  1  1  0  0  0
 60 59  1  0  0  0  0
 60 63  1  0  0  0  0
 63 64  1  0  0  0  0
 63 62  2  0  0  0  0
 65 64  1  0  0  0  0
M  END
>  <MODEL>
5

>  <REMARK>
 VINA RESULT:      -3.8      2.182      2.998
  Name = 
  29 active torsions:
  status: ('A' for Active; 'I' for Inactive)
    1  A    between atoms: O_2  and  C_61
    2  A    between atoms: O_3  and  C_28
    3  A    between atoms: C_4  and  C_14
    4  A    between atoms: C_4  and  C_46
    5  A    between atoms: C_5  and  N_38
    6  A    between atoms: C_5  and  C_57
    7  A    between atoms: C_7  and  CA_16
    8  A    between atoms: C_7  and  N_38
    9  A    between atoms: C_7  and  C_62
   10  A    between atoms: C_10  and  C_42
   11  A    between atoms: C_10  and  C_44
   12  A    between atoms: C_10  and  N_58
   13  A    between atoms: C_11  and  C_30
   14  A    between atoms: CA_16  and  C_17
   15  A    between atoms: P_19  and  C_50
   16  A    between atoms: O_22  and  C_59
   17  A    between atoms: C_25  and  C_33
   18  A    between atoms: C_25  and  C_49
   19  A    between atoms: C_28  and  C_40
   20  A    between atoms: C_28  and  C_43
   21  A    between atoms: C_33  and  C_50
   22  A    between atoms: C_34  and  C_59
   23  A    between atoms: C_39  and  C_62
   24  A    between atoms: C_40  and  C_52
   25  A    between atoms: C_41  and  C_44
   26  A    between atoms: C_41  and  N_51
   27  A    between atoms: C_46  and  C_61
   28  A    between atoms: C_52  and  C_57
   29  A    between atoms: C_63  and  C_65
                            x       y       z     vdW  Elec       q    Type
                         _______ _______ _______ _____ _____    ______ ____

>  <TORSDO>
F 29

$$$$
=
 OpenBabel11042414183D

 65 68  0  0  1  0  0  0  0  0999 V2000
  187.1730  176.9910  142.2050 C   0  0  1  0  0  3  0  0  0  0  0  0
  182.1570  178.6420  140.2940 N   0  0  0  0  0  0  0  0  0  0  0  0
  185.6640  177.4880  140.1480 C   0  0  0  0  0  0  0  0  0  0  0  0
  186.8450  177.3310  139.1880 C   0  0  0  0  0  1  0  0  0  0  0  0
  183.3920  178.1710  140.5230 C   0  0  0  0  0  0  0  0  0  0  0  0
  184.7370  177.6560  142.3950 C   0  0  0  0  0  3  0  0  0  0  0  0
  184.4260  177.8820  139.6160 C   0  0  0  0  0  3  0  0  0  0  0  0
  183.5700  178.0260  141.8090 C   0  0  0  0  0  0  0  0  0  0  0  0
  185.8180  177.3140  141.5760 C   0  0  0  0  0  0  0  0  0  0  0  0
  181.6490  178.7770  141.5490 C   0  0  0  0  0  0  0  0  0  0  0  0
  182.5690  178.4640  142.5490 N   0  0  0  0  0  2  0  0  0  0  0  0
  180.3510  179.4520  141.8620 C   0  0  0  0  0  2  0  0  0  0  0  0
  179.5580  180.0390  140.6860 C   0  0  0  0  0  2  0  0  0  0  0  0
  179.3950  181.6280  140.4930 C   0  0  0  0  0  2  0  0  0  0  0  0
  178.2530  180.6690  137.9000 O   0  0  0  0  0  0  0  0  0  0  0  0
  178.8880  182.0820  138.6670 P   0  0  0  0  0  0  0  0  0  0  0  0
  180.1620  182.4960  137.9080 O   0  0  0  0  0  1  0  0  0  0  0  0
  177.6920  183.3540  138.6420 O   0  0  0  0  0  1  0  0  0  0  0  0
  188.4150  178.5660  144.5530 O   0  0  0  0  0  0  0  0  0  0  0  0
  187.7770  177.4960  144.7780 C   0  0  0  0  0  0  0  0  0  0  0  0
  187.1780  176.7280  143.7210 N   0  0  0  0  0  2  0  0  0  0  0  0
  187.5290  176.9480  146.2000 C   0  0  2  0  0  3  0  0  0  0  0  0
  186.3690  177.3980  146.8190 O   0  0  0  0  0  0  0  0  0  0  0  0
  186.8580  178.2160  147.7400 O   0  0  0  0  0  1  0  0  0  0  0  0
  188.7930  176.5410  147.0380 C   0  0  0  0  0  2  0  0  0  0  0  0
  189.1520  175.0470  146.8870 C   0  0  2  0  0  3  0  0  0  0  0  0
  190.2090  174.8510  147.9600 C   0  0  0  0  0  1  0  0  0  0  0  0
  189.6550  174.6500  145.4510 C   0  0  0  0  0  2  0  0  0  0  0  0
  190.8840  173.6560  145.4090 C   0  0  0  0  0  2  0  0  0  0  0  0
  192.0460  174.3160  144.7170 N   0  0  0  0  0  2  0  0  0  0  0  0
  193.4080  173.9360  145.0400 C   0  0  1  0  0  3  0  0  0  0  0  0
  193.5940  171.7770  144.0760 O   0  0  0  0  0  0  0  0  0  0  0  0
  193.9000  172.9740  144.0540 C   0  0  0  0  0  0  0  0  0  0  0  0
  194.5720  173.5800  142.8580 C   0  0  0  0  0  2  0  0  0  0  0  0
  193.6920  173.9910  141.7890 N   0  0  0  0  0  1  0  0  0  0  0  0
  195.5180  175.1300  145.7460 N   0  0  0  0  0  1  0  0  0  0  0  0
  194.2730  175.2240  145.0160 C   0  0  2  0  0  3  0  0  0  0  0  0
  193.5860  176.4400  145.6780 C   0  0  0  0  0  2  0  0  0  0  0  0
  194.3680  177.0030  146.6880 O   0  0  0  0  0  1  0  0  0  0  0  0
  188.2170  176.0700  141.4270 C   0  0  0  0  0  2  0  0  0  0  0  0
  187.7000  174.6290  141.2140 C   0  0  0  0  0  2  0  0  0  0  0  0
  188.8000  173.7830  141.4120 N   0  0  0  0  0  2  0  0  0  0  0  0
  189.4840  173.5260  140.2560 C   0  0  0  0  0  2  0  0  0  0  0  0
  192.6280  172.9130  138.5040 C   0  0  0  0  0  0  0  0  0  0  0  0
  191.8150  170.4430  140.3160 C   0  0  0  0  0  3  0  0  0  0  0  0
  193.0680  170.7400  139.9810 C   0  0  0  0  0  0  0  0  0  0  0  0
  190.6510  171.3940  140.5600 C   0  0  0  0  0  3  0  0  0  0  0  0
  193.6250  171.8540  139.0500 C   0  0  0  0  0  2  0  0  0  0  0  0
  191.4700  173.2810  139.0170 C   0  0  0  0  0  3  0  0  0  0  0  0
  190.6130  172.6970  140.1810 C   0  0  0  0  0  0  0  0  0  0  0  0
  194.1430  169.7140  140.5280 C   0  0  2  0  0  3  0  0  0  0  0  0
  194.9190  170.4960  141.4740 O   0  0  0  0  0  0  0  0  0  0  0  0
  195.0860  169.2410  139.3790 C   0  0  0  0  0  2  0  0  0  0  0  0
  196.2090  170.0090  141.3460 C   0  0  2  0  0  3  0  0  0  0  0  0
  196.3950  169.0770  140.1130 C   0  0  0  0  0  2  0  0  0  0  0  0
  196.7020  169.4490  142.6570 C   0  0  0  0  0  2  0  0  0  0  0  0
  197.7620  171.3410  142.7250 C   0  0  0  0  0  1  0  0  0  0  0  0
  197.9350  169.9820  142.9880 O   0  0  0  0  0  0  0  0  0  0  0  0
  192.9960  173.6410  137.2520 C   0  0  0  0  0  2  0  0  0  0  0  0
  194.0780  174.6520  137.1890 C   0  0  1  0  0  3  0  0  0  0  0  0
  194.2100  175.2980  138.4000 O   0  0  0  0  0  1  0  0  0  0  0  0
  195.9110  173.1900  136.8640 O   0  0  0  0  0  0  0  0  0  0  0  0
  195.3400  174.2650  136.5220 C   0  0  0  0  0  0  0  0  0  0  0  0
  195.9600  175.0910  135.6310 O   0  0  0  0  0  0  0  0  0  0  0  0
  195.4940  176.3900  135.2790 C   0  0  0  0  0  1  0  0  0  0  0  0
  1 40  1  6  0  0  0
  1 21  1  0  0  0  0
  2  5  1  0  0  0  0
  2 10  2  0  0  0  0
  3  9  1  0  0  0  0
  4  3  1  0  0  0  0
  5  8  2  0  0  0  0
  7  3  2  0  0  0  0
  7  5  1  0  0  0  0
  8  6  1  0  0  0  0
  8 11  1  0  0  0  0
  9  1  1  0  0  0  0
  9  6  2  0  0  0  0
 10 12  1  0  0  0  0
 10 11  1  0  0  0  0
 13 12  1  0  0  0  0
 14 13  1  0  0  0  0
 15 16  2  0  0  0  0
 16 14  1  0  0  0  0
 17 16  1  0  0  0  0
 18 16  1  0  0  0  0
 19 20  2  0  0  0  0
 20 22  1  0  0  0  0
 21 20  1  0  0  0  0
 22 23  1  0  0  0  0
 22 25  1  1  0  0  0
 23 24  1  0  0  0  0
 26 25  1  0  0  0  0
 26 27  1  1  0  0  0
 28 26  1  0  0  0  0
 29 28  1  0  0  0  0
 30 31  1  0  0  0  0
 30 29  1  0  0  0  0
 31 33  1  6  0  0  0
 33 32  2  0  0  0  0
 34 33  1  0  0  0  0
 35 34  1  0  0  0  0
 37 31  1  0  0  0  0
 37 38  1  0  0  0  0
 37 36  1  1  0  0  0
 38 39  1  0  0  0  0
 41 42  1  0  0  0  0
 41 40  1  0  0  0  0
 43 42  1  0  0  0  0
 44 49  2  0  0  0  0
 44 48  1  0  0  0  0
 45 47  1  0  0  0  0
 46 45  2  0  0  0  0
 48 46  1  0  0  0  0
 49 50  1  0  0  0  0
 50 43  1  0  0  0  0
 50 47  2  0  0  0  0
 51 46  1  6  0  0  0
 51 52  1  0  0  0  0
 53 55  1  0  0  0  0
 53 51  1  0  0  0  0
 54 52  1  0  0  0  0
 54 56  1  1  0  0  0
 55 54  1  0  0  0  0
 56 58  1  0  0  0  0
 57 58  1  0  0  0  0
 59 44  1  0  0  0  0
 60 59  1  0  0  0  0
 60 61  1  1  0  0  0
 63 62  2  0  0  0  0
 63 60  1  0  0  0  0
 64 63  1  0  0  0  0
 65 64  1  0  0  0  0
M  END
>  <MODEL>
6

>  <REMARK>
 VINA RESULT:      -3.3      5.072      9.820
  Name = 
  29 active torsions:
  status: ('A' for Active; 'I' for Inactive)
    1  A    between atoms: O_2  and  C_61
    2  A    between atoms: O_3  and  C_28
    3  A    between atoms: C_4  and  C_14
    4  A    between atoms: C_4  and  C_46
    5  A    between atoms: C_5  and  N_38
    6  A    between atoms: C_5  and  C_57
    7  A    between atoms: C_7  and  CA_16
    8  A    between atoms: C_7  and  N_38
    9  A    between atoms: C_7  and  C_62
   10  A    between atoms: C_10  and  C_42
   11  A    between atoms: C_10  and  C_44
   12  A    between atoms: C_10  and  N_58
   13  A    between atoms: C_11  and  C_30
   14  A    between atoms: CA_16  and  C_17
   15  A    between atoms: P_19  and  C_50
   16  A    between atoms: O_22  and  C_59
   17  A    between atoms: C_25  and  C_33
   18  A    between atoms: C_25  and  C_49
   19  A    between atoms: C_28  and  C_40
   20  A    between atoms: C_28  and  C_43
   21  A    between atoms: C_33  and  C_50
   22  A    between atoms: C_34  and  C_59
   23  A    between atoms: C_39  and  C_62
   24  A    between atoms: C_40  and  C_52
   25  A    between atoms: C_41  and  C_44
   26  A    between atoms: C_41  and  N_51
   27  A    between atoms: C_46  and  C_61
   28  A    between atoms: C_52  and  C_57
   29  A    between atoms: C_63  and  C_65
                            x       y       z     vdW  Elec       q    Type
                         _______ _______ _______ _____ _____    ______ ____

>  <TORSDO>
F 29

$$$$
=
 OpenBabel11042414183D

 65 68  0  0  1  0  0  0  0  0999 V2000
  188.8330  177.9120  143.1610 C   0  0  1  0  0  3  0  0  0  0  0  0
  184.7570  177.4550  139.3260 N   0  0  0  0  0  0  0  0  0  0  0  0
  186.3740  178.4340  142.5000 C   0  0  0  0  0  0  0  0  0  0  0  0
  186.0620  178.9620  143.9020 C   0  0  0  0  0  1  0  0  0  0  0  0
  185.5870  177.7320  140.3420 C   0  0  0  0  0  0  0  0  0  0  0  0
  187.8410  177.3150  140.9090 C   0  0  0  0  0  3  0  0  0  0  0  0
  185.3240  178.3600  141.5720 C   0  0  0  0  0  3  0  0  0  0  0  0
  186.7810  177.2840  140.0620 C   0  0  0  0  0  0  0  0  0  0  0  0
  187.6910  177.9490  142.1470 C   0  0  0  0  0  0  0  0  0  0  0  0
  185.5610  176.7920  138.4520 C   0  0  0  0  0  0  0  0  0  0  0  0
  186.8540  176.5960  138.9380 N   0  0  0  0  0  2  0  0  0  0  0  0
  185.0720  176.0920  137.2230 C   0  0  0  0  0  3  0  0  0  0  0  0
  183.5540  176.0220  137.0070 C   0  0  0  0  0  3  0  0  0  0  0  0
  182.9230  175.3310  135.6990 C   0  0  0  0  0  2  0  0  0  0  0  0
  180.2020  175.7490  134.5310 O   0  0  0  0  0  0  0  0  0  0  0  0
  181.0060  175.0460  135.8900 P   0  0  0  0  0  0  0  0  0  0  0  0
  180.5360  175.7930  137.1510 O   0  0  0  0  0  1  0  0  0  0  0  0
  180.6270  173.3430  135.9820 O   0  0  0  0  0  1  0  0  0  0  0  0
  188.7960  177.6560  146.2380 O   0  0  0  0  0  0  0  0  0  0  0  0
  188.8710  176.6180  145.5200 C   0  0  0  0  0  0  0  0  0  0  0  0
  188.8900  176.6820  144.0830 N   0  0  0  0  0  2  0  0  0  0  0  0
  188.8900  175.1900  146.1060 C   0  0  2  0  0  3  0  0  0  0  0  0
  188.3720  175.0640  147.3890 O   0  0  0  0  0  0  0  0  0  0  0  0
  189.1790  174.1540  147.9150 O   0  0  0  0  0  1  0  0  0  0  0  0
  190.0050  174.2180  145.5800 C   0  0  0  0  0  2  0  0  0  0  0  0
  189.4710  173.1980  144.5510 C   0  0  2  0  0  3  0  0  0  0  0  0
  189.3680  171.9240  145.3710 C   0  0  0  0  0  1  0  0  0  0  0  0
  190.3790  173.0370  143.2770 C   0  0  0  0  0  2  0  0  0  0  0  0
  189.6200  173.0560  141.8900 C   0  0  0  0  0  2  0  0  0  0  0  0
  190.4460  173.7920  140.8700 N   0  0  0  0  0  2  0  0  0  0  0  0
  190.6880  173.2130  139.5620 C   0  0  1  0  0  3  0  0  0  0  0  0
  192.9750  173.8440  139.5340 O   0  0  0  0  0  0  0  0  0  0  0  0
  191.8780  173.8210  138.9660 C   0  0  0  0  0  0  0  0  0  0  0  0
  191.7510  174.1660  137.5120 C   0  0  0  0  0  2  0  0  0  0  0  0
  191.4740  173.0560  136.6290 N   0  0  0  0  0  1  0  0  0  0  0  0
  192.2730  171.2490  139.6380 N   0  0  0  0  0  1  0  0  0  0  0  0
  190.8990  171.6880  139.7560 C   0  0  2  0  0  3  0  0  0  0  0  0
  190.1780  170.8270  138.6950 C   0  0  0  0  0  2  0  0  0  0  0  0
  190.2670  169.4610  138.9740 O   0  0  0  0  0  1  0  0  0  0  0  0
  190.2860  178.4270  142.7490 C   0  0  0  0  0  2  0  0  0  0  0  0
  191.4180  177.6230  143.4260 C   0  0  0  0  0  2  0  0  0  0  0  0
  192.2410  177.1560  142.3920 N   0  0  0  0  0  2  0  0  0  0  0  0
  193.2450  176.3440  142.8400 C   0  0  0  0  0  2  0  0  0  0  0  0
  195.3340  173.3980  142.2990 C   0  0  0  0  0  0  0  0  0  0  0  0
  196.2660  175.8240  140.4850 C   0  0  0  0  0  3  0  0  0  0  0  0
  196.4620  174.5450  140.1760 C   0  0  0  0  0  0  0  0  0  0  0  0
  195.1030  176.4450  141.2470 C   0  0  0  0  0  3  0  0  0  0  0  0
  196.1420  173.2530  140.9800 C   0  0  0  0  0  3  0  0  0  0  0  0
  194.5150  174.3720  142.6500 C   0  0  0  0  0  2  0  0  0  0  0  0
  194.2130  175.7600  142.0090 C   0  0  0  0  0  0  0  0  0  0  0  0
  197.2590  174.3220  138.8260 C   0  0  2  0  0  3  0  0  0  0  0  0
  196.3180  174.7280  137.7970 O   0  0  0  0  0  0  0  0  0  0  0  0
  197.5950  172.8120  138.6280 C   0  0  0  0  0  2  0  0  0  0  0  0
  196.5690  173.8670  136.7420 C   0  0  2  0  0  3  0  0  0  0  0  0
  197.4950  172.6760  137.1280 C   0  0  0  0  0  2  0  0  0  0  0  0
  196.9860  174.6350  135.5120 C   0  0  0  0  0  2  0  0  0  0  0  0
  196.9500  176.7480  135.0180 C   0  0  0  0  0  1  0  0  0  0  0  0
  196.1010  175.6660  135.2520 O   0  0  0  0  0  0  0  0  0  0  0  0
  195.4580  172.3130  143.3190 C   0  0  0  0  0  2  0  0  0  0  0  0
  196.7430  171.9400  143.9560 C   0  0  1  0  0  3  0  0  0  0  0  0
  197.7930  172.6040  143.3570 O   0  0  0  0  0  1  0  0  0  0  0  0
  196.8150  170.7370  145.9940 O   0  0  0  0  0  0  0  0  0  0  0  0
  196.7820  171.8700  145.4330 C   0  0  0  0  0  0  0  0  0  0  0  0
  196.6670  172.9900  146.2040 O   0  0  0  0  0  0  0  0  0  0  0  0
  196.4800  174.3050  145.6910 C   0  0  0  0  0  1  0  0  0  0  0  0
  1 40  1  6  0  0  0
  1 21  1  0  0  0  0
  2  5  1  0  0  0  0
  3  4  1  0  0  0  0
  5  7  1  0  0  0  0
  6  9  2  0  0  0  0
  7  3  2  0  0  0  0
  8  5  2  0  0  0  0
  8  6  1  0  0  0  0
  9  3  1  0  0  0  0
  9  1  1  0  0  0  0
 10 11  1  0  0  0  0
 10  2  2  0  0  0  0
 11  8  1  0  0  0  0
 12 10  1  0  0  0  0
 13 12  2  0  0  0  0
 14 16  1  0  0  0  0
 14 13  1  0  0  0  0
 15 16  2  0  0  0  0
 16 18  1  0  0  0  0
 16 17  1  0  0  0  0
 20 22  1  0  0  0  0
 20 19  2  0  0  0  0
 21 20  1  0  0  0  0
 22 25  1  1  0  0  0
 22 23  1  0  0  0  0
 23 24  1  0  0  0  0
 26 27  1  1  0  0  0
 26 25  1  0  0  0  0
 28 26  1  0  0  0  0
 29 28  1  0  0  0  0
 30 29  1  0  0  0  0
 31 33  1  1  0  0  0
 31 37  1  0  0  0  0
 31 30  1  0  0  0  0
 33 32  2  0  0  0  0
 34 33  1  0  0  0  0
 35 34  1  0  0  0  0
 37 36  1  6  0  0  0
 38 39  1  0  0  0  0
 38 37  1  0  0  0  0
 40 41  1  0  0  0  0
 42 43  1  0  0  0  0
 42 41  1  0  0  0  0
 44 49  1  0  0  0  0
 44 59  1  0  0  0  0
 45 47  1  0  0  0  0
 46 45  2  0  0  0  0
 46 48  1  0  0  0  0
 47 50  2  0  0  0  0
 48 44  2  0  0  0  0
 50 49  1  0  0  0  0
 50 43  1  0  0  0  0
 51 46  1  1  0  0  0
 52 51  1  0  0  0  0
 53 51  1  0  0  0  0
 54 56  1  6  0  0  0
 54 55  1  0  0  0  0
 54 52  1  0  0  0  0
 55 53  1  0  0  0  0
 57 58  1  0  0  0  0
 58 56  1  0  0  0  0
 59 60  1  0  0  0  0
 60 61  1  1  0  0  0
 60 63  1  0  0  0  0
 63 62  2  0  0  0  0
 63 64  1  0  0  0  0
 65 64  1  0  0  0  0
M  END
>  <MODEL>
7

>  <REMARK>
 VINA RESULT:      -3.2      4.059      7.455
  Name = 
  29 active torsions:
  status: ('A' for Active; 'I' for Inactive)
    1  A    between atoms: O_2  and  C_61
    2  A    between atoms: O_3  and  C_28
    3  A    between atoms: C_4  and  C_14
    4  A    between atoms: C_4  and  C_46
    5  A    between atoms: C_5  and  N_38
    6  A    between atoms: C_5  and  C_57
    7  A    between atoms: C_7  and  CA_16
    8  A    between atoms: C_7  and  N_38
    9  A    between atoms: C_7  and  C_62
   10  A    between atoms: C_10  and  C_42
   11  A    between atoms: C_10  and  C_44
   12  A    between atoms: C_10  and  N_58
   13  A    between atoms: C_11  and  C_30
   14  A    between atoms: CA_16  and  C_17
   15  A    between atoms: P_19  and  C_50
   16  A    between atoms: O_22  and  C_59
   17  A    between atoms: C_25  and  C_33
   18  A    between atoms: C_25  and  C_49
   19  A    between atoms: C_28  and  C_40
   20  A    between atoms: C_28  and  C_43
   21  A    between atoms: C_33  and  C_50
   22  A    between atoms: C_34  and  C_59
   23  A    between atoms: C_39  and  C_62
   24  A    between atoms: C_40  and  C_52
   25  A    between atoms: C_41  and  C_44
   26  A    between atoms: C_41  and  N_51
   27  A    between atoms: C_46  and  C_61
   28  A    between atoms: C_52  and  C_57
   29  A    between atoms: C_63  and  C_65
                            x       y       z     vdW  Elec       q    Type
                         _______ _______ _______ _____ _____    ______ ____

>  <TORSDO>
F 29

$$$$
=
 OpenBabel11042414183D

 65 68  0  0  1  0  0  0  0  0999 V2000
  194.2690  174.4070  144.6740 C   0  0  1  0  0  3  0  0  0  0  0  0
  189.9980  176.2960  147.7910 N   0  0  0  0  0  0  0  0  0  0  0  0
  193.4020  176.1840  146.3610 C   0  0  0  0  0  0  0  0  0  0  0  0
  194.8060  176.7670  146.5370 C   0  0  0  0  0  1  0  0  0  0  0  0
  191.1170  176.0620  147.0910 C   0  0  0  0  0  0  0  0  0  0  0  0
  191.8790  174.4850  145.5070 C   0  0  0  0  0  3  0  0  0  0  0  0
  192.3650  176.7060  147.1490 C   0  0  0  0  0  3  0  0  0  0  0  0
  190.9260  175.0470  146.2920 C   0  0  0  0  0  0  0  0  0  0  0  0
  193.1470  175.0740  145.4690 C   0  0  0  0  0  0  0  0  0  0  0  0
  189.1570  175.3230  147.3490 C   0  0  0  0  0  0  0  0  0  0  0  0
  189.7570  174.4520  146.4400 N   0  0  0  0  0  2  0  0  0  0  0  0
  187.8230  175.0220  147.9580 C   0  0  0  0  0  2  0  0  0  0  0  0
  186.7620  176.1300  147.9190 C   0  0  0  0  0  2  0  0  0  0  0  0
  186.2530  176.7560  146.5270 C   0  0  0  0  0  2  0  0  0  0  0  0
  184.9660  178.6050  148.4950 O   0  0  0  0  0  1  0  0  0  0  0  0
  185.2620  178.4110  146.8030 P   0  0  0  0  0  0  0  0  0  0  0  0
  183.8990  178.2730  146.1010 O   0  0  0  0  0  0  0  0  0  0  0  0
  186.1510  179.7870  146.1990 O   0  0  0  0  0  1  0  0  0  0  0  0
  192.9190  171.6300  144.6170 O   0  0  0  0  0  0  0  0  0  0  0  0
  194.0680  171.7620  145.1300 C   0  0  0  0  0  0  0  0  0  0  0  0
  194.7410  173.0320  145.1790 N   0  0  0  0  0  2  0  0  0  0  0  0
  194.8790  170.5750  145.6920 C   0  0  2  0  0  3  0  0  0  0  0  0
  194.3420  169.9670  146.8200 O   0  0  0  0  0  0  0  0  0  0  0  0
  195.3970  169.3270  147.3060 O   0  0  0  0  0  1  0  0  0  0  0  0
  196.4270  170.5810  145.4300 C   0  0  0  0  0  2  0  0  0  0  0  0
  196.7890  170.1550  143.9910 C   0  0  2  0  0  3  0  0  0  0  0  0
  197.1430  171.4790  143.3340 C   0  0  0  0  0  1  0  0  0  0  0  0
  195.6400  169.3860  143.2410 C   0  0  0  0  0  2  0  0  0  0  0  0
  196.0680  168.6500  141.9080 C   0  0  0  0  0  2  0  0  0  0  0  0
  194.9300  168.6830  140.9240 N   0  0  0  0  0  2  0  0  0  0  0  0
  194.7380  169.8300  140.0580 C   0  0  1  0  0  3  0  0  0  0  0  0
  193.3480  168.8340  138.4140 O   0  0  0  0  0  0  0  0  0  0  0  0
  194.4190  169.3790  138.7040 C   0  0  0  0  0  0  0  0  0  0  0  0
  195.3540  169.8650  137.6370 C   0  0  0  0  0  2  0  0  0  0  0  0
  195.4050  171.2980  137.4580 N   0  0  0  0  0  1  0  0  0  0  0  0
  193.9710  171.8720  141.3300 N   0  0  0  0  0  1  0  0  0  0  0  0
  193.5670  170.6660  140.6400 C   0  0  2  0  0  3  0  0  0  0  0  0
  192.7520  169.9180  141.7180 C   0  0  0  0  0  2  0  0  0  0  0  0
  191.4710  170.4530  141.8770 O   0  0  0  0  0  1  0  0  0  0  0  0
  194.2910  174.5070  143.0820 C   0  0  0  0  0  2  0  0  0  0  0  0
  194.4100  175.9620  142.5770 C   0  0  0  0  0  2  0  0  0  0  0  0
  193.0990  176.4330  142.4230 N   0  0  0  0  0  2  0  0  0  0  0  0
  192.1680  175.4320  142.4750 C   0  0  0  0  0  2  0  0  0  0  0  0
  189.0270  173.9430  141.3570 C   0  0  0  0  0  0  0  0  0  0  0  0
  188.7200  177.0600  141.8410 C   0  0  0  0  0  3  0  0  0  0  0  0
  187.7170  176.1900  141.9300 C   0  0  0  0  0  0  0  0  0  0  0  0
  190.1900  176.8450  142.1740 C   0  0  0  0  0  3  0  0  0  0  0  0
  187.6820  174.6610  141.6520 C   0  0  0  0  0  3  0  0  0  0  0  0
  190.2430  174.3180  141.7060 C   0  0  0  0  0  2  0  0  0  0  0  0
  190.7870  175.6370  142.3330 C   0  0  0  0  0  0  0  0  0  0  0  0
  186.3150  176.8520  142.2560 C   0  0  2  0  0  3  0  0  0  0  0  0
  185.9690  177.5490  141.0300 O   0  0  0  0  0  0  0  0  0  0  0  0
  186.4550  177.8980  143.4040 C   0  0  0  0  0  2  0  0  0  0  0  0
  185.3110  178.6900  141.4590 C   0  0  2  0  0  3  0  0  0  0  0  0
  185.4380  178.9340  142.9910 C   0  0  0  0  0  2  0  0  0  0  0  0
  183.9040  178.7320  140.9140 C   0  0  0  0  0  2  0  0  0  0  0  0
  181.8720  179.1390  141.5590 C   0  0  0  0  0  1  0  0  0  0  0  0
  182.9890  178.3690  141.8860 O   0  0  0  0  0  0  0  0  0  0  0  0
  188.9830  172.6550  140.6000 C   0  0  0  0  0  2  0  0  0  0  0  0
  188.9340  172.5840  139.1210 C   0  0  1  0  0  3  0  0  0  0  0  0
  187.9150  173.3730  138.6300 O   0  0  0  0  0  1  0  0  0  0  0  0
  190.3500  172.0010  137.3150 O   0  0  0  0  0  0  0  0  0  0  0  0
  190.2170  172.6560  138.3880 C   0  0  0  0  0  0  0  0  0  0  0  0
  191.2950  173.3190  138.8990 O   0  0  0  0  0  0  0  0  0  0  0  0
  192.5890  173.3300  138.3040 C   0  0  0  0  0  1  0  0  0  0  0  0
  1 40  1  6  0  0  0
  1 21  1  0  0  0  0
  1  9  1  0  0  0  0
  3  4  1  0  0  0  0
  3  7  1  0  0  0  0
  5  7  2  0  0  0  0
  5  2  1  0  0  0  0
  6  8  2  0  0  0  0
  8 11  1  0  0  0  0
  8  5  1  0  0  0  0
  9  6  1  0  0  0  0
  9  3  2  0  0  0  0
 10  2  2  0  0  0  0
 10 12  1  0  0  0  0
 11 10  1  0  0  0  0
 13 12  1  0  0  0  0
 14 16  1  0  0  0  0
 14 13  1  0  0  0  0
 16 15  1  0  0  0  0
 17 16  2  0  0  0  0
 18 16  1  0  0  0  0
 19 20  2  0  0  0  0
 20 21  1  0  0  0  0
 20 22  1  0  0  0  0
 22 25  1  1  0  0  0
 22 23  1  0  0  0  0
 23 24  1  0  0  0  0
 26 27  1  6  0  0  0
 26 25  1  0  0  0  0
 28 26  1  0  0  0  0
 29 28  1  0  0  0  0
 30 29  1  0  0  0  0
 31 33  1  6  0  0  0
 31 37  1  0  0  0  0
 31 30  1  0  0  0  0
 32 33  2  0  0  0  0
 34 33  1  0  0  0  0
 35 34  1  0  0  0  0
 37 36  1  1  0  0  0
 37 38  1  0  0  0  0
 38 39  1  0  0  0  0
 41 40  1  0  0  0  0
 42 43  1  0  0  0  0
 42 41  1  0  0  0  0
 44 48  2  0  0  0  0
 44 49  1  0  0  0  0
 45 46  2  0  0  0  0
 45 47  1  0  0  0  0
 47 50  2  0  0  0  0
 48 46  1  0  0  0  0
 49 50  1  0  0  0  0
 50 43  1  0  0  0  0
 51 46  1  6  0  0  0
 51 53  1  0  0  0  0
 52 54  1  0  0  0  0
 52 51  1  0  0  0  0
 54 56  1  1  0  0  0
 54 55  1  0  0  0  0
 55 53  1  0  0  0  0
 56 58  1  0  0  0  0
 57 58  1  0  0  0  0
 59 44  1  0  0  0  0
 60 61  1  6  0  0  0
 60 59  1  0  0  0  0
 62 63  2  0  0  0  0
 63 64  1  0  0  0  0
 63 60  1  0  0  0  0
 65 64  1  0  0  0  0
M  END
>  <MODEL>
8

>  <REMARK>
 VINA RESULT:      -3.1      3.476      9.319
  Name = 
  29 active torsions:
  status: ('A' for Active; 'I' for Inactive)
    1  A    between atoms: O_2  and  C_61
    2  A    between atoms: O_3  and  C_28
    3  A    between atoms: C_4  and  C_14
    4  A    between atoms: C_4  and  C_46
    5  A    between atoms: C_5  and  N_38
    6  A    between atoms: C_5  and  C_57
    7  A    between atoms: C_7  and  CA_16
    8  A    between atoms: C_7  and  N_38
    9  A    between atoms: C_7  and  C_62
   10  A    between atoms: C_10  and  C_42
   11  A    between atoms: C_10  and  C_44
   12  A    between atoms: C_10  and  N_58
   13  A    between atoms: C_11  and  C_30
   14  A    between atoms: CA_16  and  C_17
   15  A    between atoms: P_19  and  C_50
   16  A    between atoms: O_22  and  C_59
   17  A    between atoms: C_25  and  C_33
   18  A    between atoms: C_25  and  C_49
   19  A    between atoms: C_28  and  C_40
   20  A    between atoms: C_28  and  C_43
   21  A    between atoms: C_33  and  C_50
   22  A    between atoms: C_34  and  C_59
   23  A    between atoms: C_39  and  C_62
   24  A    between atoms: C_40  and  C_52
   25  A    between atoms: C_41  and  C_44
   26  A    between atoms: C_41  and  N_51
   27  A    between atoms: C_46  and  C_61
   28  A    between atoms: C_52  and  C_57
   29  A    between atoms: C_63  and  C_65
                            x       y       z     vdW  Elec       q    Type
                         _______ _______ _______ _____ _____    ______ ____

>  <TORSDO>
F 29

$$$$
=
 OpenBabel11042414183D

 65 68  0  0  1  0  0  0  0  0999 V2000
  189.7510  174.8580  145.4850 C   0  0  1  0  0  3  0  0  0  0  0  0
  194.9650  176.9400  145.4450 N   0  0  0  0  0  0  0  0  0  0  0  0
  191.6460  176.0520  146.8030 C   0  0  0  0  0  0  0  0  0  0  0  0
  190.7170  176.3150  147.9900 C   0  0  0  0  0  1  0  0  0  0  0  0
  193.7380  176.4600  145.6960 C   0  0  0  0  0  0  0  0  0  0  0  0
  192.0450  175.3150  144.5150 C   0  0  0  0  0  3  0  0  0  0  0  0
  192.9470  176.5760  146.8520 C   0  0  0  0  0  3  0  0  0  0  0  0
  193.2900  175.8400  144.6380 C   0  0  0  0  0  0  0  0  0  0  0  0
  191.1910  175.3500  145.6230 C   0  0  0  0  0  0  0  0  0  0  0  0
  195.1770  176.5670  144.1540 C   0  0  0  0  0  0  0  0  0  0  0  0
  194.0770  175.9270  143.5830 N   0  0  0  0  0  2  0  0  0  0  0  0
  196.3340  177.0260  143.3240 C   0  0  0  0  0  2  0  0  0  0  0  0
  196.9740  176.0020  142.3760 C   0  0  0  0  0  2  0  0  0  0  0  0
  197.3430  176.3810  140.8570 C   0  0  0  0  0  2  0  0  0  0  0  0
  195.0260  175.6850  139.0980 O   0  0  0  0  0  1  0  0  0  0  0  0
  196.5790  175.1090  139.5940 P   0  0  0  0  0  0  0  0  0  0  0  0
  196.3710  173.7730  140.3280 O   0  0  0  0  0  1  0  0  0  0  0  0
  197.6070  174.9130  138.1960 O   0  0  0  0  0  0  0  0  0  0  0  0
  189.4520  177.4850  143.8900 O   0  0  0  0  0  0  0  0  0  0  0  0
  188.9340  176.4180  143.4510 C   0  0  0  0  0  0  0  0  0  0  0  0
  189.0460  175.1680  144.1530 N   0  0  0  0  0  2  0  0  0  0  0  0
  188.1900  176.3390  142.1010 C   0  0  2  0  0  3  0  0  0  0  0  0
  187.5060  177.4900  141.7270 O   0  0  0  0  0  0  0  0  0  0  0  0
  187.2090  177.2250  140.4630 O   0  0  0  0  0  1  0  0  0  0  0  0
  187.7080  174.9190  141.6340 C   0  0  0  0  0  2  0  0  0  0  0  0
  188.8660  174.0370  141.1190 C   0  0  2  0  0  3  0  0  0  0  0  0
  189.5290  174.9310  140.0850 C   0  0  0  0  0  1  0  0  0  0  0  0
  188.4050  172.6540  140.5270 C   0  0  0  0  0  2  0  0  0  0  0  0
  188.6670  172.4520  138.9810 C   0  0  0  0  0  2  0  0  0  0  0  0
  189.8750  171.5770  138.7830 N   0  0  0  0  0  2  0  0  0  0  0  0
  190.0660  170.8570  137.5370 C   0  0  1  0  0  3  0  0  0  0  0  0
  190.1810  171.9060  135.4130 O   0  0  0  0  0  0  0  0  0  0  0  0
  190.6610  171.7460  136.5400 C   0  0  0  0  0  0  0  0  0  0  0  0
  191.7290  172.6600  137.0630 C   0  0  0  0  0  2  0  0  0  0  0  0
  193.0820  172.1610  136.9640 N   0  0  0  0  0  1  0  0  0  0  0  0
  190.6900  168.4500  137.1020 N   0  0  0  0  0  1  0  0  0  0  0  0
  191.0100  169.6610  137.8270 C   0  0  2  0  0  3  0  0  0  0  0  0
  190.9760  169.1910  139.2990 C   0  0  0  0  0  2  0  0  0  0  0  0
  192.2300  168.7730  139.7500 O   0  0  0  0  0  1  0  0  0  0  0  0
  189.3310  173.4360  146.0750 C   0  0  0  0  0  2  0  0  0  0  0  0
  189.3850  172.3110  145.0170 C   0  0  0  0  0  2  0  0  0  0  0  0
  190.7010  172.2900  144.5330 N   0  0  0  0  0  2  0  0  0  0  0  0
  190.9550  171.2060  143.7380 C   0  0  0  0  0  2  0  0  0  0  0  0
  194.4430  170.3300  144.3710 C   0  0  0  0  0  0  0  0  0  0  0  0
  194.0200  171.3060  141.3850 C   0  0  0  0  0  3  0  0  0  0  0  0
  194.9880  170.4760  141.7670 C   0  0  0  0  0  0  0  0  0  0  0  0
  192.6120  171.4390  141.9500 C   0  0  0  0  0  3  0  0  0  0  0  0
  195.3770  169.9670  143.1840 C   0  0  0  0  0  3  0  0  0  0  0  0
  193.1610  170.6420  144.3320 C   0  0  0  0  0  2  0  0  0  0  0  0
  192.1980  170.9440  143.1440 C   0  0  0  0  0  0  0  0  0  0  0  0
  195.9660  170.0440  140.6000 C   0  0  2  0  0  3  0  0  0  0  0  0
  195.5050  170.8140  139.4590 O   0  0  0  0  0  0  0  0  0  0  0  0
  195.8010  168.5260  140.2780 C   0  0  0  0  0  2  0  0  0  0  0  0
  195.6960  169.9720  138.3760 C   0  0  2  0  0  3  0  0  0  0  0  0
  196.0330  168.5090  138.7870 C   0  0  0  0  0  2  0  0  0  0  0  0
  196.6400  170.5930  137.3760 C   0  0  0  0  0  2  0  0  0  0  0  0
  196.3350  171.9100  135.6780 C   0  0  0  0  0  1  0  0  0  0  0  0
  196.2520  171.8860  137.0700 O   0  0  0  0  0  0  0  0  0  0  0  0
  195.0220  170.3200  145.7480 C   0  0  0  0  0  2  0  0  0  0  0  0
  195.1680  169.0870  146.5580 C   0  0  1  0  0  3  0  0  0  0  0  0
  194.1670  168.1870  146.2580 O   0  0  0  0  0  1  0  0  0  0  0  0
  197.1920  168.2450  145.6630 O   0  0  0  0  0  0  0  0  0  0  0  0
  196.5270  168.5190  146.7020 C   0  0  0  0  0  0  0  0  0  0  0  0
  197.0330  168.1790  147.9230 O   0  0  0  0  0  0  0  0  0  0  0  0
  196.3340  168.3310  149.1550 C   0  0  0  0  0  1  0  0  0  0  0  0
  1  9  1  0  0  0  0
  1 40  1  6  0  0  0
  2  5  1  0  0  0  0
  3  7  1  0  0  0  0
  3  4  1  0  0  0  0
  5  7  2  0  0  0  0
  6  8  2  0  0  0  0
  6  9  1  0  0  0  0
  8  5  1  0  0  0  0
  9  3  2  0  0  0  0
 10  2  2  0  0  0  0
 11 10  1  0  0  0  0
 11  8  1  0  0  0  0
 12 10  1  0  0  0  0
 13 12  1  0  0  0  0
 14 13  1  0  0  0  0
 15 16  1  0  0  0  0
 16 17  1  0  0  0  0
 16 14  1  0  0  0  0
 18 16  2  0  0  0  0
 20 19  2  0  0  0  0
 20 21  1  0  0  0  0
 21  1  1  0  0  0  0
 22 25  1  1  0  0  0
 22 20  1  0  0  0  0
 23 22  1  0  0  0  0
 24 23  1  0  0  0  0
 26 27  1  6  0  0  0
 26 25  1  0  0  0  0
 28 26  1  0  0  0  0
 29 28  1  0  0  0  0
 30 29  1  0  0  0  0
 31 33  1  6  0  0  0
 31 37  1  0  0  0  0
 31 30  1  0  0  0  0
 32 33  2  0  0  0  0
 33 34  1  0  0  0  0
 35 34  1  0  0  0  0
 37 36  1  6  0  0  0
 37 38  1  0  0  0  0
 38 39  1  0  0  0  0
 41 40  1  0  0  0  0
 42 41  1  0  0  0  0
 43 42  1  0  0  0  0
 44 59  1  0  0  0  0
 45 46  2  0  0  0  0
 45 47  1  0  0  0  0
 46 48  1  0  0  0  0
 47 50  2  0  0  0  0
 48 44  2  0  0  0  0
 49 44  1  0  0  0  0
 50 43  1  0  0  0  0
 50 49  1  0  0  0  0
 51 46  1  1  0  0  0
 52 51  1  0  0  0  0
 53 51  1  0  0  0  0
 54 56  1  6  0  0  0
 54 55  1  0  0  0  0
 54 52  1  0  0  0  0
 55 53  1  0  0  0  0
 57 58  1  0  0  0  0
 58 56  1  0  0  0  0
 59 60  1  0  0  0  0
 60 61  1  6  0  0  0
 60 63  1  0  0  0  0
 62 63  2  0  0  0  0
 63 64  1  0  0  0  0
 64 65  1  0  0  0  0
M  END
>  <MODEL>
9

>  <REMARK>
 VINA RESULT:      -2.9      1.433      2.384
  Name = 
  29 active torsions:
  status: ('A' for Active; 'I' for Inactive)
    1  A    between atoms: O_2  and  C_61
    2  A    between atoms: O_3  and  C_28
    3  A    between atoms: C_4  and  C_14
    4  A    between atoms: C_4  and  C_46
    5  A    between atoms: C_5  and  N_38
    6  A    between atoms: C_5  and  C_57
    7  A    between atoms: C_7  and  CA_16
    8  A    between atoms: C_7  and  N_38
    9  A    between atoms: C_7  and  C_62
   10  A    between atoms: C_10  and  C_42
   11  A    between atoms: C_10  and  C_44
   12  A    between atoms: C_10  and  N_58
   13  A    between atoms: C_11  and  C_30
   14  A    between atoms: CA_16  and  C_17
   15  A    between atoms: P_19  and  C_50
   16  A    between atoms: O_22  and  C_59
   17  A    between atoms: C_25  and  C_33
   18  A    between atoms: C_25  and  C_49
   19  A    between atoms: C_28  and  C_40
   20  A    between atoms: C_28  and  C_43
   21  A    between atoms: C_33  and  C_50
   22  A    between atoms: C_34  and  C_59
   23  A    between atoms: C_39  and  C_62
   24  A    between atoms: C_40  and  C_52
   25  A    between atoms: C_41  and  C_44
   26  A    between atoms: C_41  and  N_51
   27  A    between atoms: C_46  and  C_61
   28  A    between atoms: C_52  and  C_57
   29  A    between atoms: C_63  and  C_65
                            x       y       z     vdW  Elec       q    Type
                         _______ _______ _______ _____ _____    ______ ____

>  <TORSDO>
F 29

$$$$
