=
 OpenBabel11042414493D

 28 29  0  0  1  0  0  0  0  0999 V2000
  187.2970  176.9150  141.6050 C   0  0  0  0  0  0  0  0  0  0  0  0
  185.6420  178.5050  142.4930 C   0  0  0  0  0  2  0  0  0  0  0  0
  187.7630  177.0150  145.1880 N   0  0  0  0  0  0  0  0  0  0  0  0
  188.1730  177.2760  142.7700 C   0  0  0  0  0  2  0  0  0  0  0  0
  185.9700  178.0590  143.9230 C   0  0  1  0  0  3  0  0  0  0  0  0
  186.0960  177.4920  141.4850 C   0  0  0  0  0  3  0  0  0  0  0  0
  187.3470  177.4350  144.0250 C   0  0  0  0  0  0  0  0  0  0  0  0
  191.2160  176.2240  145.8390 C   0  0  0  0  0  0  0  0  0  0  0  0
  189.1810  175.1240  145.8900 C   0  0  0  0  0  3  0  0  0  0  0  0
  190.2800  177.0930  145.4870 C   0  0  0  0  0  3  0  0  0  0  0  0
  190.6320  174.8750  146.1330 C   0  0  1  0  0  3  0  0  0  0  0  0
  189.0120  176.3880  145.5230 C   0  0  0  0  0  0  0  0  0  0  0  0
  191.1390  173.8490  145.1350 C   0  0  0  0  0  1  0  0  0  0  0  0
  193.1710  176.6680  147.0990 O   0  0  0  0  0  0  0  0  0  0  0  0
  192.6420  176.5660  145.9610 C   0  0  0  0  0  0  0  0  0  0  0  0
  193.4360  176.7830  144.7980 N   0  0  0  0  0  1  0  0  0  0  0  0
  187.9550  174.0720  142.0330 O   0  0  0  0  0  0  0  0  0  0  0  0
  187.7830  175.9620  140.6490 N   0  0  0  0  0  2  0  0  0  0  0  0
  188.1020  174.5850  140.8910 C   0  0  0  0  0  0  0  0  0  0  0  0
  188.6040  173.7500  139.7570 C   0  0  1  0  0  3  0  0  0  0  0  0
  188.2130  174.3530  138.4930 N   0  0  0  0  0  1  0  0  0  0  0  0
  190.6580  173.6210  138.5330 O   0  0  0  0  0  1  0  0  0  0  0  0
  190.1200  173.5900  139.8210 C   0  0  0  0  0  3  0  0  0  0  0  0
  190.4490  172.3750  140.4230 O   0  0  0  0  0  1  0  0  0  0  0  0
  185.8370  179.2610  144.8460 C   0  0  0  0  0  2  0  0  0  0  0  0
  184.5170  179.3890  145.2820 O   0  0  0  0  0  0  0  0  0  0  0  0
  185.3770  178.7770  147.4110 C   0  0  0  0  0  1  0  0  0  0  0  0
  184.3920  178.4510  146.3070 C   0  0  0  0  0  2  0  0  0  0  0  0
  1  4  1  0  0  0  0
  2  5  1  0  0  0  0
  3 12  1  0  0  0  0
  4  7  1  0  0  0  0
  5  7  1  0  0  0  0
  5 25  1  1  0  0  0
  6  1  2  0  0  0  0
  6  2  1  0  0  0  0
  7  3  2  0  0  0  0
  8 15  1  0  0  0  0
  8 11  1  0  0  0  0
  9 11  1  0  0  0  0
 10 12  1  0  0  0  0
 10  8  2  0  0  0  0
 11 13  1  6  0  0  0
 12  9  2  0  0  0  0
 15 14  2  0  0  0  0
 16 15  1  0  0  0  0
 18 19  1  0  0  0  0
 18  1  1  0  0  0  0
 19 17  2  0  0  0  0
 20 21  1  6  0  0  0
 20 23  1  0  0  0  0
 20 19  1  0  0  0  0
 22 23  1  0  0  0  0
 23 24  1  0  0  0  0
 25 26  1  0  0  0  0
 26 28  1  0  0  0  0
 28 27  1  0  0  0  0
M  END
>  <MODEL>
1

>  <REMARK>
 VINA RESULT:      -6.4      0.000      0.000
  Name = 
  8 active torsions:
  status: ('A' for Active; 'I' for Inactive)
    1  A    between atoms: C_1  and  C_15
    2  A    between atoms: O_2  and  C_10
    3  A    between atoms: O_2  and  C_22
    4  A    between atoms: CA_3  and  C_16
    5  A    between atoms: CA_3  and  C_27
    6  A    between atoms: C_5  and  N_26
    7  A    between atoms: C_10  and  C_19
    8  A    between atoms: N_12  and  C_23
                            x       y       z     vdW  Elec       q    Type
                         _______ _______ _______ _____ _____    ______ ____

>  <TORSDO>
F 8

$$$$
=
 OpenBabel11042414493D

 28 29  0  0  1  0  0  0  0  0999 V2000
  187.2870  176.9570  141.6520 C   0  0  0  0  0  0  0  0  0  0  0  0
  185.5480  178.4900  142.4780 C   0  0  0  0  0  2  0  0  0  0  0  0
  187.7500  177.2330  145.2270 N   0  0  0  0  0  0  0  0  0  0  0  0
  188.1430  177.4140  142.7990 C   0  0  0  0  0  2  0  0  0  0  0  0
  185.9010  178.1230  143.9250 C   0  0  1  0  0  3  0  0  0  0  0  0
  186.0550  177.4610  141.5130 C   0  0  0  0  0  3  0  0  0  0  0  0
  187.3110  177.5810  144.0480 C   0  0  0  0  0  0  0  0  0  0  0  0
  190.7280  175.2380  145.5790 C   0  0  0  0  0  0  0  0  0  0  0  0
  189.8990  177.2210  146.4360 C   0  0  0  0  0  3  0  0  0  0  0  0
  189.5380  175.4450  145.0350 C   0  0  0  0  0  3  0  0  0  0  0  0
  191.0970  176.3360  146.5320 C   0  0  1  0  0  3  0  0  0  0  0  0
  189.0320  176.6900  145.5840 C   0  0  0  0  0  0  0  0  0  0  0  0
  191.2080  175.7950  147.9460 C   0  0  0  0  0  1  0  0  0  0  0  0
  191.0770  173.0210  144.8270 O   0  0  0  0  0  0  0  0  0  0  0  0
  191.5880  174.0910  145.2490 C   0  0  0  0  0  0  0  0  0  0  0  0
  193.0020  174.1790  145.4030 N   0  0  0  0  0  1  0  0  0  0  0  0
  187.8350  174.0970  142.1240 O   0  0  0  0  0  0  0  0  0  0  0  0
  187.8230  175.9920  140.7360 N   0  0  0  0  0  2  0  0  0  0  0  0
  188.0860  174.6070  140.9990 C   0  0  0  0  0  0  0  0  0  0  0  0
  188.6560  173.7610  139.9060 C   0  0  1  0  0  3  0  0  0  0  0  0
  188.2940  174.3190  138.6140 N   0  0  0  0  0  1  0  0  0  0  0  0
  190.7510  173.5800  138.7620 O   0  0  0  0  0  1  0  0  0  0  0  0
  190.1730  173.6510  140.0300 C   0  0  0  0  0  3  0  0  0  0  0  0
  190.5130  172.5050  140.7510 O   0  0  0  0  0  1  0  0  0  0  0  0
  185.7030  179.3540  144.7970 C   0  0  0  0  0  2  0  0  0  0  0  0
  184.4210  179.3520  145.3490 O   0  0  0  0  0  0  0  0  0  0  0  0
  185.5140  178.9600  147.4220 C   0  0  0  0  0  1  0  0  0  0  0  0
  184.4980  178.4570  146.4160 C   0  0  0  0  0  2  0  0  0  0  0  0
  1  4  1  0  0  0  0
  2  5  1  0  0  0  0
  3 12  1  0  0  0  0
  4  7  1  0  0  0  0
  5  7  1  0  0  0  0
  5 25  1  1  0  0  0
  6  1  2  0  0  0  0
  6  2  1  0  0  0  0
  7  3  2  0  0  0  0
  8 11  1  0  0  0  0
  9 11  1  0  0  0  0
 10  8  2  0  0  0  0
 10 12  1  0  0  0  0
 11 13  1  1  0  0  0
 12  9  2  0  0  0  0
 14 15  2  0  0  0  0
 15 16  1  0  0  0  0
 15  8  1  0  0  0  0
 18 19  1  0  0  0  0
 18  1  1  0  0  0  0
 19 17  2  0  0  0  0
 20 21  1  6  0  0  0
 20 23  1  0  0  0  0
 20 19  1  0  0  0  0
 22 23  1  0  0  0  0
 23 24  1  0  0  0  0
 25 26  1  0  0  0  0
 26 28  1  0  0  0  0
 28 27  1  0  0  0  0
M  END
>  <MODEL>
2

>  <REMARK>
 VINA RESULT:      -6.4      1.147      1.497
  Name = 
  8 active torsions:
  status: ('A' for Active; 'I' for Inactive)
    1  A    between atoms: C_1  and  C_15
    2  A    between atoms: O_2  and  C_10
    3  A    between atoms: O_2  and  C_22
    4  A    between atoms: CA_3  and  C_16
    5  A    between atoms: CA_3  and  C_27
    6  A    between atoms: C_5  and  N_26
    7  A    between atoms: C_10  and  C_19
    8  A    between atoms: N_12  and  C_23
                            x       y       z     vdW  Elec       q    Type
                         _______ _______ _______ _____ _____    ______ ____

>  <TORSDO>
F 8

$$$$
=
 OpenBabel11042414493D

 28 29  0  0  1  0  0  0  0  0999 V2000
  190.2770  174.8370  142.5760 C   0  0  0  0  0  0  0  0  0  0  0  0
  192.2680  175.2090  143.9730 C   0  0  0  0  0  2  0  0  0  0  0  0
  189.3090  177.1510  145.1790 N   0  0  0  0  0  0  0  0  0  0  0  0
  189.4480  175.1130  143.7980 C   0  0  0  0  0  2  0  0  0  0  0  0
  191.5550  176.3570  144.6980 C   0  0  1  0  0  3  0  0  0  0  0  0
  191.6110  174.8950  142.6630 C   0  0  0  0  0  3  0  0  0  0  0  0
  190.0470  176.2430  144.6010 C   0  0  0  0  0  0  0  0  0  0  0  0
  185.8470  177.9600  144.6020 C   0  0  0  0  0  0  0  0  0  0  0  0
  187.0640  176.6430  146.0650 C   0  0  0  0  0  3  0  0  0  0  0  0
  187.1280  178.0860  144.2860 C   0  0  0  0  0  3  0  0  0  0  0  0
  185.6560  177.0340  145.7660 C   0  0  1  0  0  3  0  0  0  0  0  0
  187.8760  177.2570  145.2130 C   0  0  0  0  0  0  0  0  0  0  0  0
  185.0820  177.7870  146.9530 C   0  0  0  0  0  1  0  0  0  0  0  0
  184.3440  179.7510  144.2320 O   0  0  0  0  0  0  0  0  0  0  0  0
  184.7570  178.6190  143.8670 C   0  0  0  0  0  0  0  0  0  0  0  0
  184.1590  177.9860  142.7390 N   0  0  0  0  0  1  0  0  0  0  0  0
  189.1700  172.2370  141.7300 O   0  0  0  0  0  0  0  0  0  0  0  0
  189.6070  174.5130  141.3490 N   0  0  0  0  0  2  0  0  0  0  0  0
  189.0860  173.2340  140.9640 C   0  0  0  0  0  0  0  0  0  0  0  0
  188.4230  173.0970  139.6310 C   0  0  1  0  0  3  0  0  0  0  0  0
  188.2070  174.4140  139.0520 N   0  0  0  0  0  1  0  0  0  0  0  0
  190.6130  172.5010  138.8720 O   0  0  0  0  0  1  0  0  0  0  0  0
  189.2560  172.2340  138.6870 C   0  0  0  0  0  3  0  0  0  0  0  0
  188.9140  172.5060  137.3620 O   0  0  0  0  0  1  0  0  0  0  0  0
  192.0170  176.3730  146.1470 C   0  0  0  0  0  2  0  0  0  0  0  0
  191.8140  175.1210  146.7310 O   0  0  0  0  0  0  0  0  0  0  0  0
  191.3350  176.8830  148.2520 C   0  0  0  0  0  1  0  0  0  0  0  0
  191.2270  175.4000  147.9660 C   0  0  0  0  0  2  0  0  0  0  0  0
  1  6  2  0  0  0  0
  1  4  1  0  0  0  0
  2  5  1  0  0  0  0
  3 12  1  0  0  0  0
  4  7  1  0  0  0  0
  5 25  1  1  0  0  0
  6  2  1  0  0  0  0
  7  5  1  0  0  0  0
  7  3  2  0  0  0  0
  8 11  1  0  0  0  0
 10  8  2  0  0  0  0
 10 12  1  0  0  0  0
 11  9  1  0  0  0  0
 11 13  1  1  0  0  0
 12  9  2  0  0  0  0
 15 14  2  0  0  0  0
 15  8  1  0  0  0  0
 16 15  1  0  0  0  0
 18  1  1  0  0  0  0
 19 18  1  0  0  0  0
 19 17  2  0  0  0  0
 20 21  1  6  0  0  0
 20 19  1  0  0  0  0
 23 22  1  0  0  0  0
 23 20  1  0  0  0  0
 24 23  1  0  0  0  0
 25 26  1  0  0  0  0
 26 28  1  0  0  0  0
 28 27  1  0  0  0  0
M  END
>  <MODEL>
3

>  <REMARK>
 VINA RESULT:      -6.4      1.913      5.388
  Name = 
  8 active torsions:
  status: ('A' for Active; 'I' for Inactive)
    1  A    between atoms: C_1  and  C_15
    2  A    between atoms: O_2  and  C_10
    3  A    between atoms: O_2  and  C_22
    4  A    between atoms: CA_3  and  C_16
    5  A    between atoms: CA_3  and  C_27
    6  A    between atoms: C_5  and  N_26
    7  A    between atoms: C_10  and  C_19
    8  A    between atoms: N_12  and  C_23
                            x       y       z     vdW  Elec       q    Type
                         _______ _______ _______ _____ _____    ______ ____

>  <TORSDO>
F 8

$$$$
=
 OpenBabel11042414493D

 28 29  0  0  1  0  0  0  0  0999 V2000
  190.4760  174.5720  142.4250 C   0  0  0  0  0  0  0  0  0  0  0  0
  192.3530  174.8500  143.9930 C   0  0  0  0  0  2  0  0  0  0  0  0
  189.6220  177.3310  144.5980 N   0  0  0  0  0  0  0  0  0  0  0  0
  189.5830  175.1240  143.4980 C   0  0  0  0  0  2  0  0  0  0  0  0
  191.7560  176.1740  144.4850 C   0  0  1  0  0  3  0  0  0  0  0  0
  191.7880  174.4550  142.6610 C   0  0  0  0  0  3  0  0  0  0  0  0
  190.2650  176.2590  144.2250 C   0  0  0  0  0  0  0  0  0  0  0  0
  186.0820  177.8220  145.0430 C   0  0  0  0  0  0  0  0  0  0  0  0
  187.6400  178.1110  143.3560 C   0  0  0  0  0  3  0  0  0  0  0  0
  187.2630  177.4540  145.5180 C   0  0  0  0  0  3  0  0  0  0  0  0
  186.1800  178.2790  143.6180 C   0  0  1  0  0  3  0  0  0  0  0  0
  188.2260  177.6390  144.4490 C   0  0  0  0  0  0  0  0  0  0  0  0
  185.3980  177.3490  142.7080 C   0  0  0  0  0  1  0  0  0  0  0  0
  184.6020  176.8620  146.6210 O   0  0  0  0  0  0  0  0  0  0  0  0
  184.8440  177.8160  145.8380 C   0  0  0  0  0  0  0  0  0  0  0  0
  183.9110  178.8880  145.7300 N   0  0  0  0  0  1  0  0  0  0  0  0
  188.6240  172.3380  141.8980 O   0  0  0  0  0  0  0  0  0  0  0  0
  189.8900  174.1800  141.1760 N   0  0  0  0  0  2  0  0  0  0  0  0
  188.9970  173.0810  140.9510 C   0  0  0  0  0  0  0  0  0  0  0  0
  188.4960  172.8310  139.5640 C   0  0  1  0  0  3  0  0  0  0  0  0
  188.2420  174.0980  138.8980 N   0  0  0  0  0  1  0  0  0  0  0  0
  190.1980  171.1490  139.6120 O   0  0  0  0  0  1  0  0  0  0  0  0
  189.4910  172.0000  138.7610 C   0  0  0  0  0  3  0  0  0  0  0  0
  190.3930  172.8370  138.1020 O   0  0  0  0  0  1  0  0  0  0  0  0
  192.0690  176.3240  145.9660 C   0  0  0  0  0  2  0  0  0  0  0  0
  191.7990  175.1300  146.6380 O   0  0  0  0  0  0  0  0  0  0  0  0
  189.5640  174.8820  147.4060 C   0  0  0  0  0  1  0  0  0  0  0  0
  190.9260  175.4940  147.6630 C   0  0  0  0  0  2  0  0  0  0  0  0
  1  6  2  0  0  0  0
  1  4  1  0  0  0  0
  2  5  1  0  0  0  0
  4  7  1  0  0  0  0
  5 25  1  1  0  0  0
  6  2  1  0  0  0  0
  7  5  1  0  0  0  0
  7  3  2  0  0  0  0
  8 10  2  0  0  0  0
  8 15  1  0  0  0  0
  9 11  1  0  0  0  0
  9 12  2  0  0  0  0
 11 13  1  6  0  0  0
 11  8  1  0  0  0  0
 12  3  1  0  0  0  0
 12 10  1  0  0  0  0
 15 14  2  0  0  0  0
 16 15  1  0  0  0  0
 18  1  1  0  0  0  0
 19 18  1  0  0  0  0
 19 17  2  0  0  0  0
 20 21  1  6  0  0  0
 20 19  1  0  0  0  0
 23 20  1  0  0  0  0
 23 22  1  0  0  0  0
 24 23  1  0  0  0  0
 25 26  1  0  0  0  0
 26 28  1  0  0  0  0
 27 28  1  0  0  0  0
M  END
>  <MODEL>
4

>  <REMARK>
 VINA RESULT:      -6.3      1.884      5.343
  Name = 
  8 active torsions:
  status: ('A' for Active; 'I' for Inactive)
    1  A    between atoms: C_1  and  C_15
    2  A    between atoms: O_2  and  C_10
    3  A    between atoms: O_2  and  C_22
    4  A    between atoms: CA_3  and  C_16
    5  A    between atoms: CA_3  and  C_27
    6  A    between atoms: C_5  and  N_26
    7  A    between atoms: C_10  and  C_19
    8  A    between atoms: N_12  and  C_23
                            x       y       z     vdW  Elec       q    Type
                         _______ _______ _______ _____ _____    ______ ____

>  <TORSDO>
F 8

$$$$
=
 OpenBabel11042414493D

 28 29  0  0  1  0  0  0  0  0999 V2000
  187.7440  177.5640  144.5840 C   0  0  0  0  0  0  0  0  0  0  0  0
  188.4280  177.0010  146.8810 C   0  0  0  0  0  2  0  0  0  0  0  0
  189.6450  174.4950  144.3860 N   0  0  0  0  0  0  0  0  0  0  0  0
  188.9810  176.8550  144.1120 C   0  0  0  0  0  2  0  0  0  0  0  0
  188.9070  175.6220  146.4080 C   0  0  1  0  0  3  0  0  0  0  0  0
  187.4820  177.6200  145.8950 C   0  0  0  0  0  3  0  0  0  0  0  0
  189.2190  175.6050  144.9250 C   0  0  0  0  0  0  0  0  0  0  0  0
  189.6620  173.6990  140.8730 C   0  0  0  0  0  0  0  0  0  0  0  0
  191.2090  174.2890  142.4900 C   0  0  0  0  0  3  0  0  0  0  0  0
  189.0080  173.8710  142.0120 C   0  0  0  0  0  3  0  0  0  0  0  0
  191.1320  173.9410  141.0410 C   0  0  1  0  0  3  0  0  0  0  0  0
  189.9910  174.2380  143.0140 C   0  0  0  0  0  0  0  0  0  0  0  0
  191.9120  172.6630  140.7900 C   0  0  0  0  0  1  0  0  0  0  0  0
  187.9910  172.6140  139.5940 O   0  0  0  0  0  0  0  0  0  0  0  0
  189.0090  173.3550  139.6000 C   0  0  0  0  0  0  0  0  0  0  0  0
  189.5200  173.8540  138.3680 N   0  0  0  0  0  1  0  0  0  0  0  0
  186.1790  176.2400  142.4630 O   0  0  0  0  0  0  0  0  0  0  0  0
  186.8820  178.1660  143.6090 N   0  0  0  0  0  2  0  0  0  0  0  0
  186.1390  177.4940  142.5830 C   0  0  0  0  0  0  0  0  0  0  0  0
  185.2960  178.3050  141.6530 C   0  0  1  0  0  3  0  0  0  0  0  0
  185.6510  178.0000  140.2760 N   0  0  0  0  0  1  0  0  0  0  0  0
  183.0650  178.5390  140.8160 O   0  0  0  0  0  1  0  0  0  0  0  0
  183.8110  178.0450  141.8870 C   0  0  0  0  0  3  0  0  0  0  0  0
  183.3930  178.6730  143.0610 O   0  0  0  0  0  1  0  0  0  0  0  0
  190.1210  175.2240  147.2340 C   0  0  0  0  0  2  0  0  0  0  0  0
  190.7240  176.3590  147.7800 O   0  0  0  0  0  0  0  0  0  0  0  0
  192.4020  174.9720  146.8270 C   0  0  0  0  0  1  0  0  0  0  0  0
  192.0040  176.3790  147.2230 C   0  0  0  0  0  2  0  0  0  0  0  0
  1  6  2  0  0  0  0
  3  7  2  0  0  0  0
  4  1  1  0  0  0  0
  4  7  1  0  0  0  0
  5  2  1  0  0  0  0
  5 25  1  1  0  0  0
  6  2  1  0  0  0  0
  7  5  1  0  0  0  0
  8 11  1  0  0  0  0
  8 10  2  0  0  0  0
  9 12  2  0  0  0  0
 10 12  1  0  0  0  0
 11 13  1  1  0  0  0
 11  9  1  0  0  0  0
 12  3  1  0  0  0  0
 14 15  2  0  0  0  0
 15  8  1  0  0  0  0
 16 15  1  0  0  0  0
 17 19  2  0  0  0  0
 18  1  1  0  0  0  0
 19 18  1  0  0  0  0
 20 21  1  6  0  0  0
 20 23  1  0  0  0  0
 20 19  1  0  0  0  0
 22 23  1  0  0  0  0
 23 24  1  0  0  0  0
 25 26  1  0  0  0  0
 27 28  1  0  0  0  0
 28 26  1  0  0  0  0
M  END
>  <MODEL>
5

>  <REMARK>
 VINA RESULT:      -6.2      2.145      6.063
  Name = 
  8 active torsions:
  status: ('A' for Active; 'I' for Inactive)
    1  A    between atoms: C_1  and  C_15
    2  A    between atoms: O_2  and  C_10
    3  A    between atoms: O_2  and  C_22
    4  A    between atoms: CA_3  and  C_16
    5  A    between atoms: CA_3  and  C_27
    6  A    between atoms: C_5  and  N_26
    7  A    between atoms: C_10  and  C_19
    8  A    between atoms: N_12  and  C_23
                            x       y       z     vdW  Elec       q    Type
                         _______ _______ _______ _____ _____    ______ ____

>  <TORSDO>
F 8

$$$$
=
 OpenBabel11042414493D

 28 29  0  0  1  0  0  0  0  0999 V2000
  190.6540  174.4390  144.6350 C   0  0  0  0  0  0  0  0  0  0  0  0
  192.1300  175.0300  146.5140 C   0  0  0  0  0  2  0  0  0  0  0  0
  188.9780  177.0420  146.5010 N   0  0  0  0  0  0  0  0  0  0  0  0
  189.4970  174.8480  145.5000 C   0  0  0  0  0  2  0  0  0  0  0  0
  191.2490  176.2440  146.8340 C   0  0  1  0  0  3  0  0  0  0  0  0
  191.8990  174.5370  145.1170 C   0  0  0  0  0  3  0  0  0  0  0  0
  189.8410  176.0850  146.2960 C   0  0  0  0  0  0  0  0  0  0  0  0
  185.8880  177.5190  144.7120 C   0  0  0  0  0  0  0  0  0  0  0  0
  186.5420  176.8180  146.8180 C   0  0  0  0  0  3  0  0  0  0  0  0
  187.2120  177.5580  144.7560 C   0  0  0  0  0  3  0  0  0  0  0  0
  185.3080  177.0480  146.0110 C   0  0  1  0  0  3  0  0  0  0  0  0
  187.6050  177.1180  146.0820 C   0  0  0  0  0  0  0  0  0  0  0  0
  184.4870  178.1500  146.6560 C   0  0  0  0  0  1  0  0  0  0  0  0
  184.0120  178.4770  143.6330 O   0  0  0  0  0  0  0  0  0  0  0  0
  185.1010  177.8580  143.5160 C   0  0  0  0  0  0  0  0  0  0  0  0
  185.5620  177.4900  142.2190 N   0  0  0  0  0  1  0  0  0  0  0  0
  189.6040  175.9220  142.3120 O   0  0  0  0  0  0  0  0  0  0  0  0
  190.3860  173.9470  143.3140 N   0  0  0  0  0  2  0  0  0  0  0  0
  189.8660  174.6930  142.2060 C   0  0  0  0  0  0  0  0  0  0  0  0
  189.6480  173.9930  140.9030 C   0  0  1  0  0  3  0  0  0  0  0  0
  190.8860  173.3660  140.4700 N   0  0  0  0  0  1  0  0  0  0  0  0
  188.0350  172.6520  139.7490 O   0  0  0  0  0  1  0  0  0  0  0  0
  188.5380  172.9530  141.0160 C   0  0  0  0  0  3  0  0  0  0  0  0
  187.5020  173.4420  141.8140 O   0  0  0  0  0  1  0  0  0  0  0  0
  191.2460  176.4540  148.3400 C   0  0  0  0  0  2  0  0  0  0  0  0
  191.9890  177.5900  148.6690 O   0  0  0  0  0  0  0  0  0  0  0  0
  191.5670  177.9110  150.9850 C   0  0  0  0  0  1  0  0  0  0  0  0
  191.1840  178.2890  149.5690 C   0  0  0  0  0  2  0  0  0  0  0  0
  1  6  2  0  0  0  0
  1  4  1  0  0  0  0
  2  5  1  0  0  0  0
  4  7  1  0  0  0  0
  5 25  1  1  0  0  0
  6  2  1  0  0  0  0
  7  3  2  0  0  0  0
  7  5  1  0  0  0  0
  8 10  2  0  0  0  0
  8 11  1  0  0  0  0
 10 12  1  0  0  0  0
 11 13  1  1  0  0  0
 11  9  1  0  0  0  0
 12  3  1  0  0  0  0
 12  9  2  0  0  0  0
 15 14  2  0  0  0  0
 15  8  1  0  0  0  0
 16 15  1  0  0  0  0
 18  1  1  0  0  0  0
 19 17  2  0  0  0  0
 19 18  1  0  0  0  0
 20 21  1  1  0  0  0
 20 23  1  0  0  0  0
 20 19  1  0  0  0  0
 22 23  1  0  0  0  0
 23 24  1  0  0  0  0
 25 26  1  0  0  0  0
 26 28  1  0  0  0  0
 28 27  1  0  0  0  0
M  END
>  <MODEL>
6

>  <REMARK>
 VINA RESULT:      -6.2      2.290      5.692
  Name = 
  8 active torsions:
  status: ('A' for Active; 'I' for Inactive)
    1  A    between atoms: C_1  and  C_15
    2  A    between atoms: O_2  and  C_10
    3  A    between atoms: O_2  and  C_22
    4  A    between atoms: CA_3  and  C_16
    5  A    between atoms: CA_3  and  C_27
    6  A    between atoms: C_5  and  N_26
    7  A    between atoms: C_10  and  C_19
    8  A    between atoms: N_12  and  C_23
                            x       y       z     vdW  Elec       q    Type
                         _______ _______ _______ _____ _____    ______ ____

>  <TORSDO>
F 8

$$$$
=
 OpenBabel11042414493D

 28 29  0  0  1  0  0  0  0  0999 V2000
  187.8970  175.7570  142.5410 C   0  0  0  0  0  0  0  0  0  0  0  0
  186.3850  176.9780  144.0510 C   0  0  0  0  0  2  0  0  0  0  0  0
  189.4230  175.7010  145.8180 N   0  0  0  0  0  0  0  0  0  0  0  0
  189.0280  176.1860  143.4320 C   0  0  0  0  0  2  0  0  0  0  0  0
  187.1980  176.5020  145.2620 C   0  0  1  0  0  3  0  0  0  0  0  0
  186.6470  176.1260  142.8460 C   0  0  0  0  0  3  0  0  0  0  0  0
  188.6140  176.1190  144.8830 C   0  0  0  0  0  0  0  0  0  0  0  0
  193.0160  175.4480  145.7770 C   0  0  0  0  0  0  0  0  0  0  0  0
  191.2100  174.0820  145.3000 C   0  0  0  0  0  3  0  0  0  0  0  0
  191.9130  176.1460  146.0030 C   0  0  0  0  0  3  0  0  0  0  0  0
  192.7020  174.0610  145.3040 C   0  0  1  0  0  3  0  0  0  0  0  0
  190.7920  175.2770  145.6980 C   0  0  0  0  0  0  0  0  0  0  0  0
  193.2040  173.8590  143.8840 C   0  0  0  0  0  1  0  0  0  0  0  0
  195.3130  175.1790  146.2810 O   0  0  0  0  0  0  0  0  0  0  0  0
  194.3730  175.9690  146.0060 C   0  0  0  0  0  0  0  0  0  0  0  0
  194.6350  177.3670  145.9210 N   0  0  0  0  0  1  0  0  0  0  0  0
  188.0990  172.8220  142.3370 O   0  0  0  0  0  0  0  0  0  0  0  0
  188.1970  174.9660  141.3830 N   0  0  0  0  0  2  0  0  0  0  0  0
  188.2960  173.5370  141.3170 C   0  0  0  0  0  0  0  0  0  0  0  0
  188.6270  172.8960  140.0080 C   0  0  1  0  0  3  0  0  0  0  0  0
  188.6060  173.8950  138.9530 N   0  0  0  0  0  1  0  0  0  0  0  0
  190.9770  173.1350  140.3940 O   0  0  0  0  0  1  0  0  0  0  0  0
  189.9880  172.2090  140.0600 C   0  0  0  0  0  3  0  0  0  0  0  0
  190.2900  171.6470  138.8180 O   0  0  0  0  0  1  0  0  0  0  0  0
  187.1830  177.6010  146.3140 C   0  0  0  0  0  2  0  0  0  0  0  0
  186.2270  177.3190  147.2910 O   0  0  0  0  0  0  0  0  0  0  0  0
  184.1560  178.2770  146.6300 C   0  0  0  0  0  1  0  0  0  0  0  0
  185.4580  178.4800  147.3770 C   0  0  0  0  0  2  0  0  0  0  0  0
  1  6  2  0  0  0  0
  1  4  1  0  0  0  0
  2  5  1  0  0  0  0
  4  7  1  0  0  0  0
  5 25  1  1  0  0  0
  6  2  1  0  0  0  0
  7  5  1  0  0  0  0
  7  3  2  0  0  0  0
  8 10  2  0  0  0  0
  8 15  1  0  0  0  0
  9 11  1  0  0  0  0
  9 12  2  0  0  0  0
 11 13  1  6  0  0  0
 11  8  1  0  0  0  0
 12  3  1  0  0  0  0
 12 10  1  0  0  0  0
 15 14  2  0  0  0  0
 16 15  1  0  0  0  0
 18  1  1  0  0  0  0
 19 18  1  0  0  0  0
 19 17  2  0  0  0  0
 20 21  1  6  0  0  0
 20 23  1  0  0  0  0
 20 19  1  0  0  0  0
 23 22  1  0  0  0  0
 24 23  1  0  0  0  0
 25 26  1  0  0  0  0
 26 28  1  0  0  0  0
 27 28  1  0  0  0  0
M  END
>  <MODEL>
7

>  <REMARK>
 VINA RESULT:      -6.2      1.590      1.978
  Name = 
  8 active torsions:
  status: ('A' for Active; 'I' for Inactive)
    1  A    between atoms: C_1  and  C_15
    2  A    between atoms: O_2  and  C_10
    3  A    between atoms: O_2  and  C_22
    4  A    between atoms: CA_3  and  C_16
    5  A    between atoms: CA_3  and  C_27
    6  A    between atoms: C_5  and  N_26
    7  A    between atoms: C_10  and  C_19
    8  A    between atoms: N_12  and  C_23
                            x       y       z     vdW  Elec       q    Type
                         _______ _______ _______ _____ _____    ______ ____

>  <TORSDO>
F 8

$$$$
=
 OpenBabel11042414493D

 28 29  0  0  1  0  0  0  0  0999 V2000
  190.2250  176.4530  146.0340 C   0  0  0  0  0  0  0  0  0  0  0  0
  188.0340  177.4090  146.6170 C   0  0  0  0  0  2  0  0  0  0  0  0
  187.9960  175.7070  143.2880 N   0  0  0  0  0  0  0  0  0  0  0  0
  189.4880  175.4200  145.2310 C   0  0  0  0  0  2  0  0  0  0  0  0
  187.5290  177.1400  145.1940 C   0  0  1  0  0  3  0  0  0  0  0  0
  189.5320  177.3980  146.6790 C   0  0  0  0  0  3  0  0  0  0  0  0
  188.3200  176.0460  144.5050 C   0  0  0  0  0  0  0  0  0  0  0  0
  190.1880  173.7650  141.1920 C   0  0  0  0  0  0  0  0  0  0  0  0
  188.0260  173.6040  142.0000 C   0  0  0  0  0  3  0  0  0  0  0  0
  189.9590  174.8320  141.9430 C   0  0  0  0  0  3  0  0  0  0  0  0
  188.9920  172.8630  141.1370 C   0  0  1  0  0  3  0  0  0  0  0  0
  188.6010  174.7170  142.4400 C   0  0  0  0  0  0  0  0  0  0  0  0
  188.4470  172.7910  139.7220 C   0  0  0  0  0  1  0  0  0  0  0  0
  191.6460  173.8060  139.3260 O   0  0  0  0  0  0  0  0  0  0  0  0
  191.4750  173.4920  140.5330 C   0  0  0  0  0  0  0  0  0  0  0  0
  192.5380  172.8710  141.2520 N   0  0  0  0  0  1  0  0  0  0  0  0
  192.1720  177.3310  144.0000 O   0  0  0  0  0  0  0  0  0  0  0  0
  191.6570  176.3880  146.0880 N   0  0  0  0  0  2  0  0  0  0  0  0
  192.5780  176.8170  145.0770 C   0  0  0  0  0  0  0  0  0  0  0  0
  194.0450  176.6580  145.3220 C   0  0  1  0  0  3  0  0  0  0  0  0
  194.2600  175.7660  146.4490 N   0  0  0  0  0  1  0  0  0  0  0  0
  194.9070  174.7400  144.1770 O   0  0  0  0  0  1  0  0  0  0  0  0
  194.7550  176.1250  144.0810 C   0  0  0  0  0  3  0  0  0  0  0  0
  196.0140  176.7140  143.9590 O   0  0  0  0  0  1  0  0  0  0  0  0
  186.0500  176.7930  145.2640 C   0  0  0  0  0  2  0  0  0  0  0  0
  185.3380  177.5240  144.3110 O   0  0  0  0  0  0  0  0  0  0  0  0
  185.3130  179.8950  144.1560 C   0  0  0  0  0  1  0  0  0  0  0  0
  184.9380  178.6810  144.9800 C   0  0  0  0  0  2  0  0  0  0  0  0
  1 18  1  0  0  0  0
  1  6  2  0  0  0  0
  2  6  1  0  0  0  0
  3  7  2  0  0  0  0
  4  1  1  0  0  0  0
  5 25  1  1  0  0  0
  5  2  1  0  0  0  0
  7  5  1  0  0  0  0
  7  4  1  0  0  0  0
  8 10  2  0  0  0  0
  9 12  2  0  0  0  0
 10 12  1  0  0  0  0
 11 13  1  6  0  0  0
 11  8  1  0  0  0  0
 11  9  1  0  0  0  0
 12  3  1  0  0  0  0
 14 15  2  0  0  0  0
 15  8  1  0  0  0  0
 15 16  1  0  0  0  0
 17 19  2  0  0  0  0
 19 20  1  0  0  0  0
 19 18  1  0  0  0  0
 20 21  1  1  0  0  0
 23 22  1  0  0  0  0
 23 20  1  0  0  0  0
 24 23  1  0  0  0  0
 26 28  1  0  0  0  0
 26 25  1  0  0  0  0
 27 28  1  0  0  0  0
M  END
>  <MODEL>
8

>  <REMARK>
 VINA RESULT:      -6.0      2.283      5.600
  Name = 
  8 active torsions:
  status: ('A' for Active; 'I' for Inactive)
    1  A    between atoms: C_1  and  C_15
    2  A    between atoms: O_2  and  C_10
    3  A    between atoms: O_2  and  C_22
    4  A    between atoms: CA_3  and  C_16
    5  A    between atoms: CA_3  and  C_27
    6  A    between atoms: C_5  and  N_26
    7  A    between atoms: C_10  and  C_19
    8  A    between atoms: N_12  and  C_23
                            x       y       z     vdW  Elec       q    Type
                         _______ _______ _______ _____ _____    ______ ____

>  <TORSDO>
F 8

$$$$
=
 OpenBabel11042414493D

 28 29  0  0  1  0  0  0  0  0999 V2000
  187.1760  176.5920  144.7430 C   0  0  0  0  0  0  0  0  0  0  0  0
  188.3700  176.7890  146.8870 C   0  0  0  0  0  2  0  0  0  0  0  0
  189.6990  174.0030  144.7760 N   0  0  0  0  0  0  0  0  0  0  0  0
  188.4450  176.0360  144.1630 C   0  0  0  0  0  2  0  0  0  0  0  0
  189.0780  175.4530  146.6240 C   0  0  1  0  0  3  0  0  0  0  0  0
  187.1430  176.9360  146.0360 C   0  0  0  0  0  3  0  0  0  0  0  0
  189.1190  175.1110  145.1480 C   0  0  0  0  0  0  0  0  0  0  0  0
  190.8520  173.0440  141.5010 C   0  0  0  0  0  0  0  0  0  0  0  0
  188.9420  172.7690  142.7790 C   0  0  0  0  0  3  0  0  0  0  0  0
  191.0540  173.6480  142.6630 C   0  0  0  0  0  3  0  0  0  0  0  0
  189.4910  172.4180  141.4370 C   0  0  1  0  0  3  0  0  0  0  0  0
  189.8490  173.4680  143.4500 C   0  0  0  0  0  0  0  0  0  0  0  0
  188.6510  173.0860  140.3620 C   0  0  0  0  0  1  0  0  0  0  0  0
  192.1430  171.8600  139.9100 O   0  0  0  0  0  0  0  0  0  0  0  0
  191.8610  172.9690  140.4330 C   0  0  0  0  0  0  0  0  0  0  0  0
  192.5250  174.1460  139.9820 N   0  0  0  0  0  1  0  0  0  0  0  0
  186.3200  178.9830  143.2440 O   0  0  0  0  0  0  0  0  0  0  0  0
  186.0350  176.7420  143.8870 N   0  0  0  0  0  2  0  0  0  0  0  0
  185.6410  177.9230  143.1760 C   0  0  0  0  0  0  0  0  0  0  0  0
  184.4070  177.8800  142.3330 C   0  0  1  0  0  3  0  0  0  0  0  0
  183.3660  178.6890  142.9470 N   0  0  0  0  0  1  0  0  0  0  0  0
  183.5330  178.2830  140.1410 O   0  0  0  0  0  1  0  0  0  0  0  0
  184.6910  178.3680  140.9160 C   0  0  0  0  0  3  0  0  0  0  0  0
  185.6890  177.5870  140.3310 O   0  0  0  0  0  1  0  0  0  0  0  0
  190.4780  175.5260  147.2150 C   0  0  0  0  0  2  0  0  0  0  0  0
  191.1110  176.7010  146.8090 O   0  0  0  0  0  0  0  0  0  0  0  0
  192.6840  174.9470  146.5020 C   0  0  0  0  0  1  0  0  0  0  0  0
  192.4730  176.4030  146.8610 C   0  0  0  0  0  2  0  0  0  0  0  0
  1  6  2  0  0  0  0
  3  7  2  0  0  0  0
  4  1  1  0  0  0  0
  4  7  1  0  0  0  0
  5  2  1  0  0  0  0
  5 25  1  6  0  0  0
  6  2  1  0  0  0  0
  7  5  1  0  0  0  0
  8 10  2  0  0  0  0
  9 12  2  0  0  0  0
 10 12  1  0  0  0  0
 11 13  1  6  0  0  0
 11  8  1  0  0  0  0
 11  9  1  0  0  0  0
 12  3  1  0  0  0  0
 14 15  2  0  0  0  0
 15  8  1  0  0  0  0
 16 15  1  0  0  0  0
 18  1  1  0  0  0  0
 19 17  2  0  0  0  0
 19 18  1  0  0  0  0
 20 21  1  1  0  0  0
 20 19  1  0  0  0  0
 22 23  1  0  0  0  0
 23 20  1  0  0  0  0
 24 23  1  0  0  0  0
 26 28  1  0  0  0  0
 26 25  1  0  0  0  0
 27 28  1  0  0  0  0
M  END
>  <MODEL>
9

>  <REMARK>
 VINA RESULT:      -6.0      2.559      5.915
  Name = 
  8 active torsions:
  status: ('A' for Active; 'I' for Inactive)
    1  A    between atoms: C_1  and  C_15
    2  A    between atoms: O_2  and  C_10
    3  A    between atoms: O_2  and  C_22
    4  A    between atoms: CA_3  and  C_16
    5  A    between atoms: CA_3  and  C_27
    6  A    between atoms: C_5  and  N_26
    7  A    between atoms: C_10  and  C_19
    8  A    between atoms: N_12  and  C_23
                            x       y       z     vdW  Elec       q    Type
                         _______ _______ _______ _____ _____    ______ ____

>  <TORSDO>
F 8

$$$$
