=
 OpenBabel11042413393D

 42 47  0  0  1  0  0  0  0  0999 V2000
  193.1800  174.0950  141.1790 N   0  0  0  0  0  2  0  0  0  0  0  0
  190.9540  173.5240  137.5700 C   0  0  0  0  0  0  0  0  0  0  0  0
  190.9000  173.7360  140.1480 C   0  0  2  0  0  3  0  0  0  0  0  0
  190.1890  173.6000  138.8270 C   0  0  0  0  0  0  0  0  0  0  0  0
  192.9800  173.8430  138.8360 N   0  0  0  0  0  0  0  0  0  0  0  0
  192.2790  173.6450  137.5990 C   0  0  0  0  0  3  0  0  0  0  0  0
  188.9290  173.5560  138.8100 O   0  0  0  0  0  0  0  0  0  0  0  0
  192.3950  173.8910  140.0010 C   0  0  0  0  0  0  0  0  0  0  0  0
  190.2910  173.3320  136.3080 C   0  0  0  0  0  0  0  0  0  0  0  0
  189.7590  173.1780  135.2930 N   0  0  0  0  0  0  0  0  0  0  0  0
  194.5200  174.3010  141.1190 O   0  0  0  0  0  0  0  0  0  0  0  0
  195.3510  174.9650  143.1900 C   0  0  2  0  0  3  0  0  0  0  0  0
  196.1980  175.5670  142.1500 N   0  0  0  0  0  2  0  0  0  0  0  0
  194.7530  175.4100  141.9360 C   0  0  1  0  0  3  0  0  0  0  0  0
  195.0400  175.9850  144.2690 C   0  0  0  0  0  2  0  0  0  0  0  0
  193.5410  176.2050  144.3660 C   0  0  0  0  0  2  0  0  0  0  0  0
  193.1390  176.3090  145.8010 C   0  0  0  0  0  0  0  0  0  0  0  0
  194.0100  176.6010  146.6640 O   0  0  0  0  0  0  0  0  0  0  0  0
  191.7960  176.0600  146.2190 N   0  0  0  0  0  2  0  0  0  0  0  0
  190.0310  174.3900  145.8310 C   0  0  0  0  0  2  0  0  0  0  0  0
  189.6950  176.7790  145.1360 C   0  0  2  0  0  3  0  0  0  0  0  0
  189.2780  174.6730  147.1330 C   0  0  0  0  0  2  0  0  0  0  0  0
  188.9700  177.0610  146.4510 C   0  0  0  0  0  2  0  0  0  0  0  0
  190.7270  175.6520  145.3060 C   0  0  1  0  0  3  0  0  0  0  0  0
  190.3440  178.0490  144.6140 C   0  0  0  0  0  1  0  0  0  0  0  0
  188.2650  175.7960  146.9300 C   0  0  0  0  0  2  0  0  0  0  0  0
  190.6080  172.6350  140.9630 O   0  0  0  0  0  0  0  0  0  0  0  0
  187.6640  173.8150  142.0990 C   0  0  0  0  0  2  0  0  0  0  0  0
  188.4570  175.0000  142.3790 N   0  0  0  0  0  0  0  0  0  0  0  0
  188.5830  172.6180  142.2220 C   0  0  0  0  0  2  0  0  0  0  0  0
  189.9800  173.1780  142.0890 C   0  0  2  0  0  3  0  0  0  0  0  0
  189.7950  174.6710  141.9070 C   0  0  0  0  0  2  0  0  0  0  0  0
  187.9450  176.0710  141.5360 C   0  0  0  0  0  2  0  0  0  0  0  0
  185.8530  177.3700  141.0270 C   0  0  0  0  0  2  0  0  0  0  0  0
  184.4480  178.1230  143.0010 C   0  0  0  0  0  2  0  0  0  0  0  0
  185.8720  179.3190  144.7200 C   0  0  0  0  0  2  0  0  0  0  0  0
  185.5400  178.5890  146.0090 C   0  0  0  0  0  2  0  0  0  0  0  0
  186.9530  177.5250  143.3030 C   0  0  0  0  0  2  0  0  0  0  0  0
  184.8990  178.4410  141.5780 C   0  0  0  0  0  2  0  0  0  0  0  0
  186.6500  176.6200  142.1110 C   0  0  2  0  0  3  0  0  0  0  0  0
  185.6550  178.0360  143.9440 C   0  0  0  0  0  0  0  0  0  0  0  0
  185.3210  177.3040  145.2270 C   0  0  0  0  0  2  0  0  0  0  0  0
  2  6  2  0  0  0  0
  2  4  1  0  0  0  0
  3 27  1  1  0  0  0
  4  3  1  0  0  0  0
  5  8  2  0  0  0  0
  6  5  1  0  0  0  0
  7  4  2  0  0  0  0
  8  3  1  0  0  0  0
  8  1  1  0  0  0  0
  9  2  1  0  0  0  0
 10  9  3  0  0  0  0
 11  1  1  0  0  0  0
 12 15  1  1  0  0  0
 13 12  1  0  0  0  0
 14 11  1  6  0  0  0
 14 13  1  0  0  0  0
 14 12  1  0  0  0  0
 15 16  1  0  0  0  0
 16 17  1  0  0  0  0
 17 19  1  0  0  0  0
 17 18  2  0  0  0  0
 20 22  1  0  0  0  0
 21 25  1  1  0  0  0
 21 24  1  0  0  0  0
 21 23  1  0  0  0  0
 23 26  1  0  0  0  0
 24 20  1  0  0  0  0
 24 19  1  1  0  0  0
 26 22  1  0  0  0  0
 28 30  1  0  0  0  0
 28 29  1  0  0  0  0
 31 27  1  6  0  0  0
 31 30  1  0  0  0  0
 32 31  1  0  0  0  0
 32 29  1  0  0  0  0
 33 29  1  0  0  0  0
 34 39  1  0  0  0  0
 34 40  1  0  0  0  0
 35 41  1  0  0  0  0
 36 37  1  0  0  0  0
 38 41  1  0  0  0  0
 39 35  1  0  0  0  0
 40 33  1  6  0  0  0
 40 38  1  0  0  0  0
 41 36  1  0  0  0  0
 41 42  1  0  0  0  0
 42 37  1  0  0  0  0
M  END
>  <MODEL>
1

>  <REMARK>
 VINA RESULT:      -7.6      0.000      0.000
  Name = 
  11 active torsions:
  status: ('A' for Active; 'I' for Inactive)
    1  A    between atoms: C_3  and  C_10
    2  A    between atoms: C_3  and  C_15
    3  A    between atoms: O_4  and  N_7
    4  A    between atoms: O_4  and  C_37
    5  A    between atoms: C_5  and  N_21
    6  A    between atoms: C_5  and  C_31
    7  A    between atoms: O_6  and  C_12
    8  A    between atoms: O_6  and  C_26
    9  A    between atoms: C_9  and  C_22
   10  A    between atoms: C_15  and  C_17
   11  A    between atoms: C_24  and  N_28
                            x       y       z     vdW  Elec       q    Type
                         _______ _______ _______ _____ _____    ______ ____

>  <TORSDO>
F 11

$$$$
=
 OpenBabel11042413393D

 42 47  0  0  1  0  0  0  0  0999 V2000
  192.4430  174.1660  141.0130 N   0  0  0  0  0  2  0  0  0  0  0  0
  195.7440  175.0400  138.4350 C   0  0  0  0  0  0  0  0  0  0  0  0
  194.9070  174.7080  140.8610 C   0  0  2  0  0  3  0  0  0  0  0  0
  196.0230  174.9490  139.8800 C   0  0  0  0  0  0  0  0  0  0  0  0
  193.4310  174.5420  138.8980 N   0  0  0  0  0  0  0  0  0  0  0  0
  194.5050  174.8390  137.9930 C   0  0  0  0  0  3  0  0  0  0  0  0
  197.2030  175.0690  140.3080 O   0  0  0  0  0  0  0  0  0  0  0  0
  193.5730  174.4720  140.1930 C   0  0  0  0  0  0  0  0  0  0  0  0
  196.7900  175.3310  137.4930 C   0  0  0  0  0  0  0  0  0  0  0  0
  197.6330  175.5660  136.7370 N   0  0  0  0  0  0  0  0  0  0  0  0
  191.2270  173.8840  140.4810 O   0  0  0  0  0  0  0  0  0  0  0  0
  188.9930  174.3260  140.9610 C   0  0  2  0  0  3  0  0  0  0  0  0
  189.3250  173.0110  141.5290 N   0  0  0  0  0  2  0  0  0  0  0  0
  190.3190  174.0930  141.5210 C   0  0  1  0  0  3  0  0  0  0  0  0
  188.1780  175.1360  141.9510 C   0  0  0  0  0  2  0  0  0  0  0  0
  187.5340  176.3220  141.2540 C   0  0  0  0  0  2  0  0  0  0  0  0
  187.8640  177.5780  141.9910 C   0  0  0  0  0  0  0  0  0  0  0  0
  188.8440  178.2740  141.6110 O   0  0  0  0  0  0  0  0  0  0  0  0
  187.1120  177.9940  143.1320 N   0  0  0  0  0  2  0  0  0  0  0  0
  186.2710  176.8880  145.1630 C   0  0  0  0  0  2  0  0  0  0  0  0
  184.6810  178.0070  143.5740 C   0  0  2  0  0  3  0  0  0  0  0  0
  186.2810  178.1490  146.0280 C   0  0  0  0  0  2  0  0  0  0  0  0
  184.7190  179.2740  144.4270 C   0  0  0  0  0  2  0  0  0  0  0  0
  185.9990  177.2250  143.6910 C   0  0  1  0  0  3  0  0  0  0  0  0
  184.3720  178.3580  142.1300 C   0  0  0  0  0  1  0  0  0  0  0  0
  184.9610  178.9030  145.8880 C   0  0  0  0  0  2  0  0  0  0  0  0
  194.8150  175.7840  141.7540 O   0  0  0  0  0  0  0  0  0  0  0  0
  194.3720  174.4120  144.7990 C   0  0  0  0  0  2  0  0  0  0  0  0
  195.0590  175.6160  145.2370 N   0  0  0  0  0  0  0  0  0  0  0  0
  194.8890  174.0770  143.4160 C   0  0  0  0  0  2  0  0  0  0  0  0
  195.4970  175.3610  142.8990 C   0  0  2  0  0  3  0  0  0  0  0  0
  195.3070  176.3680  144.0150 C   0  0  0  0  0  2  0  0  0  0  0  0
  194.1180  176.3820  146.0410 C   0  0  0  0  0  2  0  0  0  0  0  0
  192.3090  177.3620  144.5950 C   0  0  0  0  0  2  0  0  0  0  0  0
  189.9950  176.3370  144.7800 C   0  0  0  0  0  2  0  0  0  0  0  0
  189.2580  176.1980  147.1980 C   0  0  0  0  0  2  0  0  0  0  0  0
  188.8510  174.7440  147.3510 C   0  0  0  0  0  2  0  0  0  0  0  0
  191.7300  176.0540  146.6860 C   0  0  0  0  0  2  0  0  0  0  0  0
  190.7940  177.6090  144.5070 C   0  0  0  0  0  2  0  0  0  0  0  0
  192.7030  176.1930  145.5170 C   0  0  2  0  0  3  0  0  0  0  0  0
  190.3040  175.7930  146.1800 C   0  0  0  0  0  0  0  0  0  0  0  0
  189.9000  174.3410  146.3270 C   0  0  0  0  0  2  0  0  0  0  0  0
  2  4  1  0  0  0  0
  3 27  1  1  0  0  0
  4  7  2  0  0  0  0
  4  3  1  0  0  0  0
  5  8  2  0  0  0  0
  6  2  2  0  0  0  0
  6  5  1  0  0  0  0
  8  3  1  0  0  0  0
  8  1  1  0  0  0  0
  9  2  1  0  0  0  0
 10  9  3  0  0  0  0
 11  1  1  0  0  0  0
 12 14  1  0  0  0  0
 12 13  1  0  0  0  0
 12 15  1  1  0  0  0
 14 11  1  6  0  0  0
 14 13  1  0  0  0  0
 16 15  1  0  0  0  0
 16 17  1  0  0  0  0
 17 19  1  0  0  0  0
 18 17  2  0  0  0  0
 20 22  1  0  0  0  0
 21 25  1  6  0  0  0
 21 24  1  0  0  0  0
 21 23  1  0  0  0  0
 23 26  1  0  0  0  0
 24 19  1  1  0  0  0
 24 20  1  0  0  0  0
 26 22  1  0  0  0  0
 28 29  1  0  0  0  0
 29 33  1  0  0  0  0
 30 28  1  0  0  0  0
 31 27  1  6  0  0  0
 31 30  1  0  0  0  0
 31 32  1  0  0  0  0
 32 29  1  0  0  0  0
 34 40  1  0  0  0  0
 35 41  1  0  0  0  0
 36 37  1  0  0  0  0
 39 34  1  0  0  0  0
 39 35  1  0  0  0  0
 40 33  1  1  0  0  0
 40 38  1  0  0  0  0
 41 42  1  0  0  0  0
 41 38  1  0  0  0  0
 41 36  1  0  0  0  0
 42 37  1  0  0  0  0
M  END
>  <MODEL>
2

>  <REMARK>
 VINA RESULT:      -7.5      2.076      5.942
  Name = 
  11 active torsions:
  status: ('A' for Active; 'I' for Inactive)
    1  A    between atoms: C_3  and  C_10
    2  A    between atoms: C_3  and  C_15
    3  A    between atoms: O_4  and  N_7
    4  A    between atoms: O_4  and  C_37
    5  A    between atoms: C_5  and  N_21
    6  A    between atoms: C_5  and  C_31
    7  A    between atoms: O_6  and  C_12
    8  A    between atoms: O_6  and  C_26
    9  A    between atoms: C_9  and  C_22
   10  A    between atoms: C_15  and  C_17
   11  A    between atoms: C_24  and  N_28
                            x       y       z     vdW  Elec       q    Type
                         _______ _______ _______ _____ _____    ______ ____

>  <TORSDO>
F 11

$$$$
=
 OpenBabel11042413393D

 42 47  0  0  1  0  0  0  0  0999 V2000
  192.2280  172.8640  141.9990 N   0  0  0  0  0  2  0  0  0  0  0  0
  194.2130  170.6810  145.0970 C   0  0  0  0  0  0  0  0  0  0  0  0
  194.2110  172.7650  143.5630 C   0  0  2  0  0  3  0  0  0  0  0  0
  194.8110  171.9650  144.6890 C   0  0  0  0  0  0  0  0  0  0  0  0
  192.4630  171.0340  143.4780 N   0  0  0  0  0  0  0  0  0  0  0  0
  193.0960  170.2610  144.5090 C   0  0  0  0  0  3  0  0  0  0  0  0
  195.8310  172.4100  145.2840 O   0  0  0  0  0  0  0  0  0  0  0  0
  192.9330  172.1650  143.0280 C   0  0  0  0  0  0  0  0  0  0  0  0
  194.8120  169.8780  146.1290 C   0  0  0  0  0  0  0  0  0  0  0  0
  195.2930  169.2320  146.9590 N   0  0  0  0  0  0  0  0  0  0  0  0
  191.0450  172.4160  141.5100 O   0  0  0  0  0  0  0  0  0  0  0  0
  189.4710  174.0840  141.9100 C   0  0  2  0  0  3  0  0  0  0  0  0
  190.7810  174.7310  141.7470 N   0  0  0  0  0  2  0  0  0  0  0  0
  190.4310  173.5430  140.9560 C   0  0  1  0  0  3  0  0  0  0  0  0
  188.4070  174.8540  141.1510 C   0  0  0  0  0  2  0  0  0  0  0  0
  187.3810  175.4210  142.1160 C   0  0  0  0  0  2  0  0  0  0  0  0
  187.5290  176.9060  142.1930 C   0  0  0  0  0  0  0  0  0  0  0  0
  188.4230  177.4700  141.5090 O   0  0  0  0  0  0  0  0  0  0  0  0
  186.6970  177.6950  143.0450 N   0  0  0  0  0  2  0  0  0  0  0  0
  186.2650  176.8460  145.3130 C   0  0  0  0  0  2  0  0  0  0  0  0
  184.4790  178.0860  144.0590 C   0  0  2  0  0  3  0  0  0  0  0  0
  186.6520  178.1420  146.0280 C   0  0  0  0  0  2  0  0  0  0  0  0
  184.8890  179.3830  144.7540 C   0  0  0  0  0  2  0  0  0  0  0  0
  185.6750  177.1300  143.9260 C   0  0  1  0  0  3  0  0  0  0  0  0
  183.8610  178.3910  142.7060 C   0  0  0  0  0  1  0  0  0  0  0  0
  185.4440  179.0690  146.1410 C   0  0  0  0  0  2  0  0  0  0  0  0
  195.1460  172.9100  142.5290 O   0  0  0  0  0  0  0  0  0  0  0  0
  196.1330  175.7240  144.0960 C   0  0  0  0  0  2  0  0  0  0  0  0
  194.7830  176.1560  143.7740 N   0  0  0  0  0  0  0  0  0  0  0  0
  196.5680  174.7610  143.0120 C   0  0  0  0  0  2  0  0  0  0  0  0
  195.2870  174.2910  142.3630 C   0  0  2  0  0  3  0  0  0  0  0  0
  194.1790  175.0150  143.1000 C   0  0  0  0  0  2  0  0  0  0  0  0
  194.0790  176.3460  145.0340 C   0  0  0  0  0  2  0  0  0  0  0  0
  192.0510  177.5460  144.1550 C   0  0  0  0  0  2  0  0  0  0  0  0
  189.7840  176.5560  144.7190 C   0  0  0  0  0  2  0  0  0  0  0  0
  189.5820  176.1190  147.2050 C   0  0  0  0  0  2  0  0  0  0  0  0
  189.1450  174.6660  147.2640 C   0  0  0  0  0  2  0  0  0  0  0  0
  191.8740  175.9890  146.1450 C   0  0  0  0  0  2  0  0  0  0  0  0
  190.5680  177.8350  144.4350 C   0  0  0  0  0  2  0  0  0  0  0  0
  192.5770  176.2590  144.8160 C   0  0  2  0  0  3  0  0  0  0  0  0
  190.3610  175.8270  145.9390 C   0  0  0  0  0  0  0  0  0  0  0  0
  189.9260  174.3770  145.9920 C   0  0  0  0  0  2  0  0  0  0  0  0
  1  8  1  0  0  0  0
  2  9  1  0  0  0  0
  3 27  1  6  0  0  0
  3  4  1  0  0  0  0
  4  2  1  0  0  0  0
  4  7  2  0  0  0  0
  5  6  1  0  0  0  0
  6  2  2  0  0  0  0
  8  5  2  0  0  0  0
  8  3  1  0  0  0  0
  9 10  3  0  0  0  0
 11  1  1  0  0  0  0
 12 15  1  6  0  0  0
 13 12  1  0  0  0  0
 14 11  1  1  0  0  0
 14 13  1  0  0  0  0
 14 12  1  0  0  0  0
 15 16  1  0  0  0  0
 16 17  1  0  0  0  0
 17 19  1  0  0  0  0
 18 17  2  0  0  0  0
 20 22  1  0  0  0  0
 21 25  1  6  0  0  0
 21 23  1  0  0  0  0
 22 26  1  0  0  0  0
 23 26  1  0  0  0  0
 24 19  1  6  0  0  0
 24 21  1  0  0  0  0
 24 20  1  0  0  0  0
 29 28  1  0  0  0  0
 29 33  1  0  0  0  0
 30 28  1  0  0  0  0
 31 27  1  1  0  0  0
 31 30  1  0  0  0  0
 31 32  1  0  0  0  0
 32 29  1  0  0  0  0
 34 39  1  0  0  0  0
 34 40  1  0  0  0  0
 35 41  1  0  0  0  0
 36 37  1  0  0  0  0
 39 35  1  0  0  0  0
 40 33  1  1  0  0  0
 40 38  1  0  0  0  0
 41 42  1  0  0  0  0
 41 38  1  0  0  0  0
 41 36  1  0  0  0  0
 42 37  1  0  0  0  0
M  END
>  <MODEL>
3

>  <REMARK>
 VINA RESULT:      -7.4      2.614      6.615
  Name = 
  11 active torsions:
  status: ('A' for Active; 'I' for Inactive)
    1  A    between atoms: C_3  and  C_10
    2  A    between atoms: C_3  and  C_15
    3  A    between atoms: O_4  and  N_7
    4  A    between atoms: O_4  and  C_37
    5  A    between atoms: C_5  and  N_21
    6  A    between atoms: C_5  and  C_31
    7  A    between atoms: O_6  and  C_12
    8  A    between atoms: O_6  and  C_26
    9  A    between atoms: C_9  and  C_22
   10  A    between atoms: C_15  and  C_17
   11  A    between atoms: C_24  and  N_28
                            x       y       z     vdW  Elec       q    Type
                         _______ _______ _______ _____ _____    ______ ____

>  <TORSDO>
F 11

$$$$
=
 OpenBabel11042413393D

 42 47  0  0  1  0  0  0  0  0999 V2000
  191.7310  171.7370  144.1160 N   0  0  0  0  0  2  0  0  0  0  0  0
  189.6020  172.6360  140.5150 C   0  0  0  0  0  0  0  0  0  0  0  0
  190.3010  173.4160  142.8810 C   0  0  2  0  0  3  0  0  0  0  0  0
  189.6280  173.6760  141.5590 C   0  0  0  0  0  0  0  0  0  0  0  0
  190.9450  171.2330  141.9430 N   0  0  0  0  0  0  0  0  0  0  0  0
  190.2380  171.4850  140.7190 C   0  0  0  0  0  3  0  0  0  0  0  0
  189.0890  174.7980  141.3540 O   0  0  0  0  0  0  0  0  0  0  0  0
  190.9980  172.0770  142.9360 C   0  0  0  0  0  0  0  0  0  0  0  0
  188.9100  172.8490  139.2730 C   0  0  0  0  0  0  0  0  0  0  0  0
  188.3540  173.0210  138.2740 N   0  0  0  0  0  0  0  0  0  0  0  0
  192.4300  170.5790  144.2140 O   0  0  0  0  0  0  0  0  0  0  0  0
  194.6820  170.6070  144.8030 C   0  0  2  0  0  3  0  0  0  0  0  0
  194.5190  169.6620  143.6880 N   0  0  0  0  0  2  0  0  0  0  0  0
  193.7120  170.8880  143.7520 C   0  0  1  0  0  3  0  0  0  0  0  0
  195.9080  171.4740  144.5820 C   0  0  0  0  0  2  0  0  0  0  0  0
  196.1930  172.3040  145.8210 C   0  0  0  0  0  2  0  0  0  0  0  0
  196.5360  173.7020  145.4230 C   0  0  0  0  0  0  0  0  0  0  0  0
  197.7430  174.0650  145.4310 O   0  0  0  0  0  0  0  0  0  0  0  0
  195.5250  174.6430  145.0590 N   0  0  0  0  0  2  0  0  0  0  0  0
  193.4390  174.9460  146.3270 C   0  0  0  0  0  2  0  0  0  0  0  0
  193.4020  174.8830  143.8180 C   0  0  2  0  0  3  0  0  0  0  0  0
  193.4630  176.4750  146.2800 C   0  0  0  0  0  2  0  0  0  0  0  0
  193.4560  176.4090  143.7770 C   0  0  0  0  0  2  0  0  0  0  0  0
  194.0930  174.3400  145.0790 C   0  0  1  0  0  3  0  0  0  0  0  0
  194.0190  174.3040  142.5570 C   0  0  0  0  0  1  0  0  0  0  0  0
  192.7720  176.9800  145.0160 C   0  0  0  0  0  2  0  0  0  0  0  0
  189.3660  173.5160  143.9210 O   0  0  0  0  0  0  0  0  0  0  0  0
  188.9620  175.0640  146.8860 C   0  0  0  0  0  2  0  0  0  0  0  0
  188.6010  176.1900  146.0400 N   0  0  0  0  0  0  0  0  0  0  0  0
  189.9610  174.2250  146.1180 C   0  0  0  0  0  2  0  0  0  0  0  0
  189.7810  174.6210  144.6710 C   0  0  2  0  0  3  0  0  0  0  0  0
  188.6930  175.6760  144.6800 C   0  0  0  0  0  2  0  0  0  0  0  0
  187.2020  176.4950  146.3010 C   0  0  0  0  0  2  0  0  0  0  0  0
  185.9350  178.6670  146.3150 C   0  0  0  0  0  2  0  0  0  0  0  0
  185.4250  179.7250  144.0650 C   0  0  0  0  0  2  0  0  0  0  0  0
  184.3510  178.0490  142.5010 C   0  0  0  0  0  2  0  0  0  0  0  0
  185.2130  178.1410  141.2540 C   0  0  0  0  0  2  0  0  0  0  0  0
  185.9610  177.1950  144.2530 C   0  0  0  0  0  2  0  0  0  0  0  0
  184.9560  179.5320  145.5050 C   0  0  0  0  0  2  0  0  0  0  0  0
  186.7570  177.6820  145.4630 C   0  0  2  0  0  3  0  0  0  0  0  0
  185.5600  178.3730  143.3530 C   0  0  0  0  0  0  0  0  0  0  0  0
  186.4230  178.4680  142.1130 C   0  0  0  0  0  2  0  0  0  0  0  0
  1 11  1  0  0  0  0
  2  6  2  0  0  0  0
  2  4  1  0  0  0  0
  3  8  1  0  0  0  0
  3 27  1  1  0  0  0
  4  3  1  0  0  0  0
  5  8  2  0  0  0  0
  6  5  1  0  0  0  0
  7  4  2  0  0  0  0
  8  1  1  0  0  0  0
  9  2  1  0  0  0  0
 10  9  3  0  0  0  0
 12 15  1  6  0  0  0
 13 14  1  0  0  0  0
 13 12  1  0  0  0  0
 14 11  1  1  0  0  0
 14 12  1  0  0  0  0
 15 16  1  0  0  0  0
 17 18  2  0  0  0  0
 17 16  1  0  0  0  0
 19 17  1  0  0  0  0
 21 25  1  6  0  0  0
 21 24  1  0  0  0  0
 22 20  1  0  0  0  0
 23 21  1  0  0  0  0
 23 26  1  0  0  0  0
 24 19  1  6  0  0  0
 24 20  1  0  0  0  0
 26 22  1  0  0  0  0
 29 33  1  0  0  0  0
 29 28  1  0  0  0  0
 30 28  1  0  0  0  0
 31 27  1  6  0  0  0
 31 32  1  0  0  0  0
 31 30  1  0  0  0  0
 32 29  1  0  0  0  0
 35 39  1  0  0  0  0
 36 41  1  0  0  0  0
 37 42  1  0  0  0  0
 37 36  1  0  0  0  0
 38 40  1  0  0  0  0
 39 34  1  0  0  0  0
 40 33  1  1  0  0  0
 40 34  1  0  0  0  0
 41 35  1  0  0  0  0
 41 38  1  0  0  0  0
 42 41  1  0  0  0  0
M  END
>  <MODEL>
4

>  <REMARK>
 VINA RESULT:      -7.3      2.529      4.136
  Name = 
  11 active torsions:
  status: ('A' for Active; 'I' for Inactive)
    1  A    between atoms: C_3  and  C_10
    2  A    between atoms: C_3  and  C_15
    3  A    between atoms: O_4  and  N_7
    4  A    between atoms: O_4  and  C_37
    5  A    between atoms: C_5  and  N_21
    6  A    between atoms: C_5  and  C_31
    7  A    between atoms: O_6  and  C_12
    8  A    between atoms: O_6  and  C_26
    9  A    between atoms: C_9  and  C_22
   10  A    between atoms: C_15  and  C_17
   11  A    between atoms: C_24  and  N_28
                            x       y       z     vdW  Elec       q    Type
                         _______ _______ _______ _____ _____    ______ ____

>  <TORSDO>
F 11

$$$$
=
 OpenBabel11042413393D

 42 47  0  0  1  0  0  0  0  0999 V2000
  189.8180  172.4580  142.6690 N   0  0  0  0  0  2  0  0  0  0  0  0
  189.8020  171.7210  138.4540 C   0  0  0  0  0  0  0  0  0  0  0  0
  191.0050  171.3750  140.7190 C   0  0  2  0  0  3  0  0  0  0  0  0
  190.8900  171.1130  139.2400 C   0  0  0  0  0  0  0  0  0  0  0  0
  188.9220  172.6650  140.4900 N   0  0  0  0  0  0  0  0  0  0  0  0
  188.8760  172.4520  139.0710 C   0  0  0  0  0  3  0  0  0  0  0  0
  191.7350  170.3610  138.6810 O   0  0  0  0  0  0  0  0  0  0  0  0
  189.8610  172.1950  141.2640 C   0  0  0  0  0  0  0  0  0  0  0  0
  189.7160  171.5300  137.0320 C   0  0  0  0  0  0  0  0  0  0  0  0
  189.6470  171.3750  135.8880 N   0  0  0  0  0  0  0  0  0  0  0  0
  188.7910  173.1380  143.2380 O   0  0  0  0  0  0  0  0  0  0  0  0
  190.1580  173.8030  145.0010 C   0  0  2  0  0  3  0  0  0  0  0  0
  190.8460  174.1390  143.7460 N   0  0  0  0  0  2  0  0  0  0  0  0
  189.3840  174.2460  143.8480 C   0  0  1  0  0  3  0  0  0  0  0  0
  190.2710  174.9510  145.9860 C   0  0  0  0  0  2  0  0  0  0  0  0
  188.8980  175.3240  146.5170 C   0  0  0  0  0  2  0  0  0  0  0  0
  188.8050  176.8060  146.6740 C   0  0  0  0  0  0  0  0  0  0  0  0
  189.7290  177.4210  147.2690 O   0  0  0  0  0  0  0  0  0  0  0  0
  187.6780  177.5390  146.1880 N   0  0  0  0  0  2  0  0  0  0  0  0
  185.3310  176.8720  146.5060 C   0  0  0  0  0  2  0  0  0  0  0  0
  186.1320  177.6740  144.2660 C   0  0  2  0  0  3  0  0  0  0  0  0
  184.8230  178.2800  146.8190 C   0  0  0  0  0  2  0  0  0  0  0  0
  185.6490  179.0850  144.5970 C   0  0  0  0  0  2  0  0  0  0  0  0
  186.5240  176.9120  145.5420 C   0  0  1  0  0  3  0  0  0  0  0  0
  187.2860  177.7350  143.2820 C   0  0  0  0  0  1  0  0  0  0  0  0
  184.4450  179.0090  145.5330 C   0  0  0  0  0  2  0  0  0  0  0  0
  192.2260  172.0030  140.9990 O   0  0  0  0  0  0  0  0  0  0  0  0
  192.5340  169.8910  143.6050 C   0  0  0  0  0  2  0  0  0  0  0  0
  193.8260  170.5440  143.7430 N   0  0  0  0  0  0  0  0  0  0  0  0
  192.1760  169.9070  142.1350 C   0  0  0  0  0  2  0  0  0  0  0  0
  193.0350  170.9950  141.5310 C   0  0  2  0  0  3  0  0  0  0  0  0
  193.8520  171.5420  142.6830 C   0  0  0  0  0  2  0  0  0  0  0  0
  193.8170  171.2530  145.0150 C   0  0  0  0  0  2  0  0  0  0  0  0
  196.0090  172.3940  145.4800 C   0  0  0  0  0  2  0  0  0  0  0  0
  196.0770  174.9190  145.2270 C   0  0  0  0  0  2  0  0  0  0  0  0
  194.1880  176.0070  146.5140 C   0  0  0  0  0  2  0  0  0  0  0  0
  193.5310  176.8960  145.4730 C   0  0  0  0  0  2  0  0  0  0  0  0
  193.8290  173.6800  145.5930 C   0  0  0  0  0  2  0  0  0  0  0  0
  196.6390  173.7080  145.9690 C   0  0  0  0  0  2  0  0  0  0  0  0
  194.5930  172.5550  144.8970 C   0  0  2  0  0  3  0  0  0  0  0  0
  194.5600  175.0200  145.4270 C   0  0  0  0  0  0  0  0  0  0  0  0
  193.9080  175.9040  144.3850 C   0  0  0  0  0  2  0  0  0  0  0  0
  1 11  1  0  0  0  0
  2  6  2  0  0  0  0
  2  4  1  0  0  0  0
  3 27  1  6  0  0  0
  3  8  1  0  0  0  0
  4  3  1  0  0  0  0
  5  8  2  0  0  0  0
  6  5  1  0  0  0  0
  7  4  2  0  0  0  0
  8  1  1  0  0  0  0
  9  2  1  0  0  0  0
 10  9  3  0  0  0  0
 12 15  1  1  0  0  0
 13 14  1  0  0  0  0
 13 12  1  0  0  0  0
 14 11  1  6  0  0  0
 14 12  1  0  0  0  0
 15 16  1  0  0  0  0
 16 17  1  0  0  0  0
 17 18  2  0  0  0  0
 19 17  1  0  0  0  0
 20 22  1  0  0  0  0
 21 25  1  6  0  0  0
 21 23  1  0  0  0  0
 21 24  1  0  0  0  0
 23 26  1  0  0  0  0
 24 19  1  1  0  0  0
 24 20  1  0  0  0  0
 26 22  1  0  0  0  0
 28 29  1  0  0  0  0
 29 33  1  0  0  0  0
 30 28  1  0  0  0  0
 31 27  1  1  0  0  0
 31 30  1  0  0  0  0
 31 32  1  0  0  0  0
 32 29  1  0  0  0  0
 34 39  1  0  0  0  0
 35 41  1  0  0  0  0
 35 39  1  0  0  0  0
 37 36  1  0  0  0  0
 40 33  1  1  0  0  0
 40 34  1  0  0  0  0
 40 38  1  0  0  0  0
 41 38  1  0  0  0  0
 41 36  1  0  0  0  0
 42 41  1  0  0  0  0
 42 37  1  0  0  0  0
M  END
>  <MODEL>
5

>  <REMARK>
 VINA RESULT:      -7.1      2.572      6.332
  Name = 
  11 active torsions:
  status: ('A' for Active; 'I' for Inactive)
    1  A    between atoms: C_3  and  C_10
    2  A    between atoms: C_3  and  C_15
    3  A    between atoms: O_4  and  N_7
    4  A    between atoms: O_4  and  C_37
    5  A    between atoms: C_5  and  N_21
    6  A    between atoms: C_5  and  C_31
    7  A    between atoms: O_6  and  C_12
    8  A    between atoms: O_6  and  C_26
    9  A    between atoms: C_9  and  C_22
   10  A    between atoms: C_15  and  C_17
   11  A    between atoms: C_24  and  N_28
                            x       y       z     vdW  Elec       q    Type
                         _______ _______ _______ _____ _____    ______ ____

>  <TORSDO>
F 11

$$$$
=
 OpenBabel11042413393D

 42 47  0  0  1  0  0  0  0  0999 V2000
  191.9530  170.7780  142.0930 N   0  0  0  0  0  2  0  0  0  0  0  0
  191.6740  169.4360  138.0400 C   0  0  0  0  0  0  0  0  0  0  0  0
  191.2430  171.3440  139.7340 C   0  0  2  0  0  3  0  0  0  0  0  0
  191.2370  170.8150  138.3240 C   0  0  0  0  0  0  0  0  0  0  0  0
  192.2200  169.1770  140.3730 N   0  0  0  0  0  0  0  0  0  0  0  0
  192.1400  168.6780  139.0290 C   0  0  0  0  0  3  0  0  0  0  0  0
  190.8570  171.5690  137.3870 O   0  0  0  0  0  0  0  0  0  0  0  0
  191.8300  170.3700  140.7280 C   0  0  0  0  0  0  0  0  0  0  0  0
  191.6140  168.8990  136.7070 C   0  0  0  0  0  0  0  0  0  0  0  0
  191.5670  168.4670  135.6360 N   0  0  0  0  0  0  0  0  0  0  0  0
  192.5230  169.9790  143.0300 O   0  0  0  0  0  0  0  0  0  0  0  0
  192.6300  172.1620  143.8310 C   0  0  2  0  0  3  0  0  0  0  0  0
  191.3490  171.5850  144.2640 N   0  0  0  0  0  2  0  0  0  0  0  0
  192.5570  170.7510  144.1930 C   0  0  1  0  0  3  0  0  0  0  0  0
  193.2740  172.9270  144.9710 C   0  0  0  0  0  2  0  0  0  0  0  0
  193.5130  174.3710  144.5640 C   0  0  0  0  0  2  0  0  0  0  0  0
  193.2530  175.2710  145.7280 C   0  0  0  0  0  0  0  0  0  0  0  0
  194.1970  175.5480  146.5150 O   0  0  0  0  0  0  0  0  0  0  0  0
  191.9510  175.8030  145.9820 N   0  0  0  0  0  2  0  0  0  0  0  0
  189.9300  174.4070  145.8470 C   0  0  0  0  0  2  0  0  0  0  0  0
  189.9210  176.7470  144.9390 C   0  0  2  0  0  3  0  0  0  0  0  0
  189.3140  174.9200  147.1500 C   0  0  0  0  0  2  0  0  0  0  0  0
  189.3330  177.2570  146.2540 C   0  0  0  0  0  2  0  0  0  0  0  0
  190.7760  175.4910  145.1670 C   0  0  1  0  0  3  0  0  0  0  0  0
  190.7220  177.8470  144.2640 C   0  0  0  0  0  1  0  0  0  0  0  0
  188.4740  176.1670  146.8890 C   0  0  0  0  0  2  0  0  0  0  0  0
  189.9430  171.6990  140.1170 O   0  0  0  0  0  0  0  0  0  0  0  0
  189.9470  174.5630  141.8910 C   0  0  0  0  0  2  0  0  0  0  0  0
  188.7020  174.7910  141.1760 N   0  0  0  0  0  0  0  0  0  0  0  0
  190.8360  173.7290  140.9940 C   0  0  0  0  0  2  0  0  0  0  0  0
  189.9000  173.0910  139.9920 C   0  0  2  0  0  3  0  0  0  0  0  0
  188.5200  173.6000  140.3580 C   0  0  0  0  0  2  0  0  0  0  0  0
  187.6340  174.8130  142.1650 C   0  0  0  0  0  2  0  0  0  0  0  0
  187.9120  177.2340  141.5440 C   0  0  0  0  0  2  0  0  0  0  0  0
  186.3120  178.8930  142.6070 C   0  0  0  0  0  2  0  0  0  0  0  0
  186.2400  178.5950  145.1200 C   0  0  0  0  0  2  0  0  0  0  0  0
  184.7550  178.4630  145.4080 C   0  0  0  0  0  2  0  0  0  0  0  0
  186.7310  176.5730  143.6850 C   0  0  0  0  0  2  0  0  0  0  0  0
  187.7180  178.6710  142.0540 C   0  0  0  0  0  2  0  0  0  0  0  0
  187.0060  176.1950  142.2310 C   0  0  2  0  0  3  0  0  0  0  0  0
  186.0310  177.9360  143.7730 C   0  0  0  0  0  0  0  0  0  0  0  0
  184.5490  177.8050  144.0540 C   0  0  0  0  0  2  0  0  0  0  0  0
  1 11  1  0  0  0  0
  2  4  1  0  0  0  0
  2  6  2  0  0  0  0
  3 27  1  1  0  0  0
  3  8  1  0  0  0  0
  4  3  1  0  0  0  0
  5  8  2  0  0  0  0
  6  5  1  0  0  0  0
  7  4  2  0  0  0  0
  8  1  1  0  0  0  0
  9  2  1  0  0  0  0
 10  9  3  0  0  0  0
 12 14  1  0  0  0  0
 12 13  1  0  0  0  0
 12 15  1  1  0  0  0
 14 11  1  6  0  0  0
 14 13  1  0  0  0  0
 16 15  1  0  0  0  0
 16 17  1  0  0  0  0
 17 19  1  0  0  0  0
 17 18  2  0  0  0  0
 20 22  1  0  0  0  0
 21 25  1  1  0  0  0
 21 24  1  0  0  0  0
 21 23  1  0  0  0  0
 23 26  1  0  0  0  0
 24 20  1  0  0  0  0
 24 19  1  1  0  0  0
 26 22  1  0  0  0  0
 29 28  1  0  0  0  0
 29 33  1  0  0  0  0
 30 28  1  0  0  0  0
 31 27  1  1  0  0  0
 31 32  1  0  0  0  0
 31 30  1  0  0  0  0
 32 29  1  0  0  0  0
 34 39  1  0  0  0  0
 34 40  1  0  0  0  0
 35 41  1  0  0  0  0
 36 37  1  0  0  0  0
 38 41  1  0  0  0  0
 39 35  1  0  0  0  0
 40 33  1  1  0  0  0
 40 38  1  0  0  0  0
 41 42  1  0  0  0  0
 41 36  1  0  0  0  0
 42 37  1  0  0  0  0
M  END
>  <MODEL>
6

>  <REMARK>
 VINA RESULT:      -7.1      2.529      2.912
  Name = 
  11 active torsions:
  status: ('A' for Active; 'I' for Inactive)
    1  A    between atoms: C_3  and  C_10
    2  A    between atoms: C_3  and  C_15
    3  A    between atoms: O_4  and  N_7
    4  A    between atoms: O_4  and  C_37
    5  A    between atoms: C_5  and  N_21
    6  A    between atoms: C_5  and  C_31
    7  A    between atoms: O_6  and  C_12
    8  A    between atoms: O_6  and  C_26
    9  A    between atoms: C_9  and  C_22
   10  A    between atoms: C_15  and  C_17
   11  A    between atoms: C_24  and  N_28
                            x       y       z     vdW  Elec       q    Type
                         _______ _______ _______ _____ _____    ______ ____

>  <TORSDO>
F 11

$$$$
=
 OpenBabel11042413393D

 42 47  0  0  1  0  0  0  0  0999 V2000
  194.0470  172.3210  145.6690 N   0  0  0  0  0  2  0  0  0  0  0  0
  195.2870  175.4110  142.9830 C   0  0  0  0  0  0  0  0  0  0  0  0
  193.8720  174.7660  145.0510 C   0  0  2  0  0  3  0  0  0  0  0  0
  194.4050  175.8030  144.0980 C   0  0  0  0  0  0  0  0  0  0  0  0
  195.2290  173.1420  143.7930 N   0  0  0  0  0  0  0  0  0  0  0  0
  195.6670  174.1420  142.8610 C   0  0  0  0  0  3  0  0  0  0  0  0
  194.0920  177.0120  144.2670 O   0  0  0  0  0  0  0  0  0  0  0  0
  194.4250  173.3840  144.7910 C   0  0  0  0  0  0  0  0  0  0  0  0
  195.7530  176.3820  142.0290 C   0  0  0  0  0  0  0  0  0  0  0  0
  196.1270  177.1630  141.2630 N   0  0  0  0  0  0  0  0  0  0  0  0
  194.5480  171.0680  145.5330 O   0  0  0  0  0  0  0  0  0  0  0  0
  193.9510  169.5390  143.8820 C   0  0  2  0  0  3  0  0  0  0  0  0
  193.7970  168.8780  145.1870 N   0  0  0  0  0  2  0  0  0  0  0  0
  193.4890  170.3060  145.0330 C   0  0  1  0  0  3  0  0  0  0  0  0
  192.7630  169.2290  142.9920 C   0  0  0  0  0  2  0  0  0  0  0  0
  192.3910  170.4500  142.1690 C   0  0  0  0  0  2  0  0  0  0  0  0
  190.9440  170.3900  141.8040 C   0  0  0  0  0  0  0  0  0  0  0  0
  190.4440  169.2880  141.4540 O   0  0  0  0  0  0  0  0  0  0  0  0
  190.1220  171.5580  141.8190 N   0  0  0  0  0  2  0  0  0  0  0  0
  190.6500  173.7750  140.8930 C   0  0  0  0  0  2  0  0  0  0  0  0
  189.7450  173.5550  143.2240 C   0  0  2  0  0  3  0  0  0  0  0  0
  189.2370  174.0570  140.3800 C   0  0  0  0  0  2  0  0  0  0  0  0
  188.3320  173.8070  142.7000 C   0  0  0  0  0  2  0  0  0  0  0  0
  190.6210  172.8940  142.1480 C   0  0  1  0  0  3  0  0  0  0  0  0
  189.6910  172.7140  144.4870 C   0  0  0  0  0  1  0  0  0  0  0  0
  188.3940  174.7100  141.4710 C   0  0  0  0  0  2  0  0  0  0  0  0
  192.4720  174.7430  144.9980 O   0  0  0  0  0  0  0  0  0  0  0  0
  190.4560  175.2890  147.6410 C   0  0  0  0  0  2  0  0  0  0  0  0
  189.9210  176.3330  146.7820 N   0  0  0  0  0  0  0  0  0  0  0  0
  191.9180  175.1200  147.2860 C   0  0  0  0  0  2  0  0  0  0  0  0
  192.0620  175.7230  145.9070 C   0  0  2  0  0  3  0  0  0  0  0  0
  190.6770  176.2190  145.5430 C   0  0  0  0  0  2  0  0  0  0  0  0
  188.5390  175.9810  146.4870 C   0  0  0  0  0  2  0  0  0  0  0  0
  186.8620  177.8240  146.8240 C   0  0  0  0  0  2  0  0  0  0  0  0
  186.0500  179.0450  144.7530 C   0  0  0  0  0  2  0  0  0  0  0  0
  185.2670  177.4070  142.9880 C   0  0  0  0  0  2  0  0  0  0  0  0
  186.0360  177.8400  141.7520 C   0  0  0  0  0  2  0  0  0  0  0  0
  187.0920  176.6770  144.5780 C   0  0  0  0  0  2  0  0  0  0  0  0
  185.6930  178.5690  146.1590 C   0  0  0  0  0  2  0  0  0  0  0  0
  187.8270  177.1520  145.8300 C   0  0  2  0  0  3  0  0  0  0  0  0
  186.4230  177.8560  143.8570 C   0  0  0  0  0  0  0  0  0  0  0  0
  187.1930  178.2920  142.6280 C   0  0  0  0  0  2  0  0  0  0  0  0
  2  4  1  0  0  0  0
  3 27  1  6  0  0  0
  4  7  2  0  0  0  0
  4  3  1  0  0  0  0
  5  8  2  0  0  0  0
  6  2  2  0  0  0  0
  6  5  1  0  0  0  0
  8  3  1  0  0  0  0
  8  1  1  0  0  0  0
  9  2  1  0  0  0  0
 10  9  3  0  0  0  0
 11  1  1  0  0  0  0
 12 15  1  6  0  0  0
 12 14  1  0  0  0  0
 12 13  1  0  0  0  0
 14 13  1  0  0  0  0
 14 11  1  1  0  0  0
 16 15  1  0  0  0  0
 17 19  1  0  0  0  0
 17 16  1  0  0  0  0
 18 17  2  0  0  0  0
 20 24  1  0  0  0  0
 21 25  1  1  0  0  0
 22 20  1  0  0  0  0
 22 26  1  0  0  0  0
 23 21  1  0  0  0  0
 24 19  1  6  0  0  0
 24 21  1  0  0  0  0
 26 23  1  0  0  0  0
 29 28  1  0  0  0  0
 30 28  1  0  0  0  0
 31 27  1  6  0  0  0
 31 30  1  0  0  0  0
 32 31  1  0  0  0  0
 32 29  1  0  0  0  0
 33 29  1  0  0  0  0
 35 39  1  0  0  0  0
 36 41  1  0  0  0  0
 37 42  1  0  0  0  0
 37 36  1  0  0  0  0
 38 40  1  0  0  0  0
 39 34  1  0  0  0  0
 40 33  1  1  0  0  0
 40 34  1  0  0  0  0
 41 38  1  0  0  0  0
 41 35  1  0  0  0  0
 42 41  1  0  0  0  0
M  END
>  <MODEL>
7

>  <REMARK>
 VINA RESULT:      -7.0      2.683      5.846
  Name = 
  11 active torsions:
  status: ('A' for Active; 'I' for Inactive)
    1  A    between atoms: C_3  and  C_10
    2  A    between atoms: C_3  and  C_15
    3  A    between atoms: O_4  and  N_7
    4  A    between atoms: O_4  and  C_37
    5  A    between atoms: C_5  and  N_21
    6  A    between atoms: C_5  and  C_31
    7  A    between atoms: O_6  and  C_12
    8  A    between atoms: O_6  and  C_26
    9  A    between atoms: C_9  and  C_22
   10  A    between atoms: C_15  and  C_17
   11  A    between atoms: C_24  and  N_28
                            x       y       z     vdW  Elec       q    Type
                         _______ _______ _______ _____ _____    ______ ____

>  <TORSDO>
F 11

$$$$
=
 OpenBabel11042413393D

 42 47  0  0  1  0  0  0  0  0999 V2000
  189.1720  172.7590  140.2480 N   0  0  0  0  0  2  0  0  0  0  0  0
  190.7580  170.3260  137.1070 C   0  0  0  0  0  0  0  0  0  0  0  0
  190.6860  170.8280  139.6450 C   0  0  2  0  0  3  0  0  0  0  0  0
  191.1490  169.9830  138.4860 C   0  0  0  0  0  0  0  0  0  0  0  0
  189.4240  172.1320  137.9820 N   0  0  0  0  0  0  0  0  0  0  0  0
  189.9350  171.3490  136.8930 C   0  0  0  0  0  3  0  0  0  0  0  0
  191.8730  168.9760  138.7110 O   0  0  0  0  0  0  0  0  0  0  0  0
  189.7360  171.9270  139.2320 C   0  0  0  0  0  0  0  0  0  0  0  0
  191.2440  169.5650  135.9870 C   0  0  0  0  0  0  0  0  0  0  0  0
  191.6330  168.9530  135.0870 N   0  0  0  0  0  0  0  0  0  0  0  0
  188.2680  173.7280  139.9600 O   0  0  0  0  0  0  0  0  0  0  0  0
  188.6490  174.2140  142.2040 C   0  0  2  0  0  3  0  0  0  0  0  0
  189.8700  174.5500  141.4560 N   0  0  0  0  0  2  0  0  0  0  0  0
  188.5450  174.7620  140.8570 C   0  0  1  0  0  3  0  0  0  0  0  0
  188.3280  175.3080  143.2040 C   0  0  0  0  0  2  0  0  0  0  0  0
  187.0590  176.0370  142.7950 C   0  0  0  0  0  2  0  0  0  0  0  0
  187.1860  177.4890  143.1210 C   0  0  0  0  0  0  0  0  0  0  0  0
  187.8200  178.2430  142.3360 O   0  0  0  0  0  0  0  0  0  0  0  0
  186.6280  178.0360  144.3170 N   0  0  0  0  0  2  0  0  0  0  0  0
  186.9390  176.5890  146.2820 C   0  0  0  0  0  2  0  0  0  0  0  0
  184.9410  178.0990  146.1210 C   0  0  2  0  0  3  0  0  0  0  0  0
  187.6580  177.6440  147.1250 C   0  0  0  0  0  2  0  0  0  0  0  0
  185.6750  179.1610  146.9380 C   0  0  0  0  0  2  0  0  0  0  0  0
  185.9300  177.2350  145.3240 C   0  0  1  0  0  3  0  0  0  0  0  0
  183.9200  178.7560  145.2080 C   0  0  0  0  0  1  0  0  0  0  0  0
  186.6480  178.4860  147.9010 C   0  0  0  0  0  2  0  0  0  0  0  0
  191.7920  171.3710  140.3110 O   0  0  0  0  0  0  0  0  0  0  0  0
  191.3760  171.5740  143.6480 C   0  0  0  0  0  2  0  0  0  0  0  0
  192.7690  171.1590  143.6620 N   0  0  0  0  0  0  0  0  0  0  0  0
  190.7390  170.9750  142.4130 C   0  0  0  0  0  2  0  0  0  0  0  0
  191.8930  170.6370  141.4970 C   0  0  2  0  0  3  0  0  0  0  0  0
  193.1370  171.0510  142.2570 C   0  0  0  0  0  2  0  0  0  0  0  0
  193.5400  172.2530  144.2340 C   0  0  0  0  0  2  0  0  0  0  0  0
  193.1800  174.5680  143.3190 C   0  0  0  0  0  2  0  0  0  0  0  0
  191.5890  176.0820  144.5900 C   0  0  0  0  0  2  0  0  0  0  0  0
  192.1820  176.1540  147.0510 C   0  0  0  0  0  2  0  0  0  0  0  0
  190.8660  175.8250  147.7310 C   0  0  0  0  0  2  0  0  0  0  0  0
  192.7010  174.0480  145.7510 C   0  0  0  0  0  2  0  0  0  0  0  0
  192.8370  176.0130  143.7130 C   0  0  0  0  0  2  0  0  0  0  0  0
  192.6870  173.5090  144.3220 C   0  0  2  0  0  3  0  0  0  0  0  0
  191.7900  175.2760  145.8800 C   0  0  0  0  0  0  0  0  0  0  0  0
  190.4730  174.9480  146.5540 C   0  0  0  0  0  2  0  0  0  0  0  0
  2  4  1  0  0  0  0
  3 27  1  6  0  0  0
  4  7  2  0  0  0  0
  4  3  1  0  0  0  0
  5  8  2  0  0  0  0
  6  2  2  0  0  0  0
  6  5  1  0  0  0  0
  8  3  1  0  0  0  0
  8  1  1  0  0  0  0
  9  2  1  0  0  0  0
 10  9  3  0  0  0  0
 11  1  1  0  0  0  0
 12 15  1  1  0  0  0
 13 12  1  0  0  0  0
 14 11  1  6  0  0  0
 14 13  1  0  0  0  0
 14 12  1  0  0  0  0
 16 17  1  0  0  0  0
 16 15  1  0  0  0  0
 17 19  1  0  0  0  0
 18 17  2  0  0  0  0
 20 22  1  0  0  0  0
 21 25  1  6  0  0  0
 21 23  1  0  0  0  0
 22 26  1  0  0  0  0
 23 26  1  0  0  0  0
 24 19  1  6  0  0  0
 24 21  1  0  0  0  0
 24 20  1  0  0  0  0
 28 29  1  0  0  0  0
 29 33  1  0  0  0  0
 30 28  1  0  0  0  0
 31 27  1  6  0  0  0
 31 32  1  0  0  0  0
 31 30  1  0  0  0  0
 32 29  1  0  0  0  0
 34 39  1  0  0  0  0
 34 40  1  0  0  0  0
 35 41  1  0  0  0  0
 36 37  1  0  0  0  0
 38 41  1  0  0  0  0
 39 35  1  0  0  0  0
 40 33  1  1  0  0  0
 40 38  1  0  0  0  0
 41 42  1  0  0  0  0
 41 36  1  0  0  0  0
 42 37  1  0  0  0  0
M  END
>  <MODEL>
8

>  <REMARK>
 VINA RESULT:      -7.0      2.684      5.634
  Name = 
  11 active torsions:
  status: ('A' for Active; 'I' for Inactive)
    1  A    between atoms: C_3  and  C_10
    2  A    between atoms: C_3  and  C_15
    3  A    between atoms: O_4  and  N_7
    4  A    between atoms: O_4  and  C_37
    5  A    between atoms: C_5  and  N_21
    6  A    between atoms: C_5  and  C_31
    7  A    between atoms: O_6  and  C_12
    8  A    between atoms: O_6  and  C_26
    9  A    between atoms: C_9  and  C_22
   10  A    between atoms: C_15  and  C_17
   11  A    between atoms: C_24  and  N_28
                            x       y       z     vdW  Elec       q    Type
                         _______ _______ _______ _____ _____    ______ ____

>  <TORSDO>
F 11

$$$$
=
 OpenBabel11042413393D

 42 47  0  0  1  0  0  0  0  0999 V2000
  191.7820  171.4390  142.2440 N   0  0  0  0  0  2  0  0  0  0  0  0
  192.2240  171.8330  138.0070 C   0  0  0  0  0  0  0  0  0  0  0  0
  191.1400  172.7410  140.1740 C   0  0  2  0  0  3  0  0  0  0  0  0
  191.3990  172.8430  138.6940 C   0  0  0  0  0  0  0  0  0  0  0  0
  192.6250  170.7780  140.1360 N   0  0  0  0  0  0  0  0  0  0  0  0
  192.7990  170.8630  138.7140 C   0  0  0  0  0  3  0  0  0  0  0  0
  190.9040  173.8070  138.0490 O   0  0  0  0  0  0  0  0  0  0  0  0
  191.8900  171.6040  140.8280 C   0  0  0  0  0  0  0  0  0  0  0  0
  192.4270  171.8840  136.5840 C   0  0  0  0  0  0  0  0  0  0  0  0
  192.5910  171.9250  135.4400 N   0  0  0  0  0  0  0  0  0  0  0  0
  192.4720  170.4770  142.9070 O   0  0  0  0  0  0  0  0  0  0  0  0
  193.1000  172.1280  144.4230 C   0  0  2  0  0  3  0  0  0  0  0  0
  193.6420  170.8470  144.9010 N   0  0  0  0  0  2  0  0  0  0  0  0
  193.5710  171.1380  143.4620 C   0  0  1  0  0  3  0  0  0  0  0  0
  194.1450  173.2210  144.5510 C   0  0  0  0  0  2  0  0  0  0  0  0
  193.6650  174.2950  145.5120 C   0  0  0  0  0  2  0  0  0  0  0  0
  192.8270  175.2890  144.7760 C   0  0  0  0  0  0  0  0  0  0  0  0
  193.2530  175.7710  143.6930 O   0  0  0  0  0  0  0  0  0  0  0  0
  191.5660  175.7250  145.2880 N   0  0  0  0  0  2  0  0  0  0  0  0
  190.8590  176.4620  147.5260 C   0  0  0  0  0  2  0  0  0  0  0  0
  189.6500  174.5950  146.3620 C   0  0  2  0  0  3  0  0  0  0  0  0
  189.8010  177.4470  147.0250 C   0  0  0  0  0  2  0  0  0  0  0  0
  188.6140  175.5890  145.8410 C   0  0  0  0  0  2  0  0  0  0  0  0
  191.0130  175.2750  146.5660 C   0  0  1  0  0  3  0  0  0  0  0  0
  189.7590  173.4100  145.4190 C   0  0  0  0  0  1  0  0  0  0  0  0
  188.4630  176.7400  146.8310 C   0  0  0  0  0  2  0  0  0  0  0  0
  189.7660  172.6110  140.4110 O   0  0  0  0  0  0  0  0  0  0  0  0
  187.5350  174.2980  142.2890 C   0  0  0  0  0  2  0  0  0  0  0  0
  188.6300  175.2460  142.4090 N   0  0  0  0  0  0  0  0  0  0  0  0
  188.1450  172.9220  142.1320 C   0  0  0  0  0  2  0  0  0  0  0  0
  189.5660  173.1690  141.6780 C   0  0  2  0  0  3  0  0  0  0  0  0
  189.7040  174.6760  141.6060 C   0  0  0  0  0  2  0  0  0  0  0  0
  188.2060  176.4790  141.7620 C   0  0  0  0  0  2  0  0  0  0  0  0
  185.9980  177.4880  141.1070 C   0  0  0  0  0  2  0  0  0  0  0  0
  184.4180  178.1370  142.9840 C   0  0  0  0  0  2  0  0  0  0  0  0
  185.6010  179.5660  144.7070 C   0  0  0  0  0  2  0  0  0  0  0  0
  185.3000  178.8510  146.0120 C   0  0  0  0  0  2  0  0  0  0  0  0
  186.9600  177.8660  143.4190 C   0  0  0  0  0  2  0  0  0  0  0  0
  184.8940  178.4530  141.5680 C   0  0  0  0  0  2  0  0  0  0  0  0
  186.8270  176.8850  142.2560 C   0  0  2  0  0  3  0  0  0  0  0  0
  185.5800  178.2370  143.9810 C   0  0  0  0  0  0  0  0  0  0  0  0
  185.2760  177.5190  145.2800 C   0  0  0  0  0  2  0  0  0  0  0  0
  1 11  1  0  0  0  0
  2  4  1  0  0  0  0
  2  6  2  0  0  0  0
  3 27  1  6  0  0  0
  3  8  1  0  0  0  0
  4  3  1  0  0  0  0
  5  8  2  0  0  0  0
  6  5  1  0  0  0  0
  7  4  2  0  0  0  0
  8  1  1  0  0  0  0
  9  2  1  0  0  0  0
 10  9  3  0  0  0  0
 12 15  1  1  0  0  0
 12 13  1  0  0  0  0
 14 11  1  6  0  0  0
 14 12  1  0  0  0  0
 14 13  1  0  0  0  0
 15 16  1  0  0  0  0
 17 19  1  0  0  0  0
 17 16  1  0  0  0  0
 18 17  2  0  0  0  0
 21 25  1  6  0  0  0
 21 24  1  0  0  0  0
 22 20  1  0  0  0  0
 23 21  1  0  0  0  0
 23 26  1  0  0  0  0
 24 19  1  6  0  0  0
 24 20  1  0  0  0  0
 26 22  1  0  0  0  0
 28 29  1  0  0  0  0
 30 28  1  0  0  0  0
 31 27  1  6  0  0  0
 31 30  1  0  0  0  0
 32 31  1  0  0  0  0
 32 29  1  0  0  0  0
 33 29  1  0  0  0  0
 34 39  1  0  0  0  0
 34 40  1  0  0  0  0
 35 41  1  0  0  0  0
 36 37  1  0  0  0  0
 38 41  1  0  0  0  0
 39 35  1  0  0  0  0
 40 33  1  6  0  0  0
 40 38  1  0  0  0  0
 41 36  1  0  0  0  0
 41 42  1  0  0  0  0
 42 37  1  0  0  0  0
M  END
>  <MODEL>
9

>  <REMARK>
 VINA RESULT:      -7.0      2.003      2.392
  Name = 
  11 active torsions:
  status: ('A' for Active; 'I' for Inactive)
    1  A    between atoms: C_3  and  C_10
    2  A    between atoms: C_3  and  C_15
    3  A    between atoms: O_4  and  N_7
    4  A    between atoms: O_4  and  C_37
    5  A    between atoms: C_5  and  N_21
    6  A    between atoms: C_5  and  C_31
    7  A    between atoms: O_6  and  C_12
    8  A    between atoms: O_6  and  C_26
    9  A    between atoms: C_9  and  C_22
   10  A    between atoms: C_15  and  C_17
   11  A    between atoms: C_24  and  N_28
                            x       y       z     vdW  Elec       q    Type
                         _______ _______ _______ _____ _____    ______ ____

>  <TORSDO>
F 11

$$$$
