=
 OpenBabel11042417203D

 26 28  0  0  1  0  0  0  0  0999 V2000
  185.2280  178.5250  142.6550 C   0  0  0  0  0  3  0  0  0  0  0  0
  183.7430  178.7560  145.9890 N   0  0  0  0  0  2  0  0  0  0  0  0
  184.4670  178.5980  147.0930 N   0  0  0  0  0  0  0  0  0  0  0  0
  184.5630  178.5770  144.9400 C   0  0  0  0  0  0  0  0  0  0  0  0
  185.7430  178.3150  146.7410 C   0  0  0  0  0  0  0  0  0  0  0  0
  184.2170  178.6970  143.6060 C   0  0  0  0  0  3  0  0  0  0  0  0
  186.5520  178.2240  143.0490 C   0  0  0  0  0  0  0  0  0  0  0  0
  186.8840  178.0760  144.4160 C   0  0  0  0  0  0  0  0  0  0  0  0
  185.8450  178.2860  145.3530 C   0  0  0  0  0  0  0  0  0  0  0  0
  186.7940  178.1630  147.6930 N   0  0  0  0  0  2  0  0  0  0  0  0
  187.1390  179.1780  148.5250 O   0  0  0  0  0  1  0  0  0  0  0  0
  188.2380  177.7460  144.7700 N   0  0  0  0  0  2  0  0  0  0  0  0
  188.8370  176.4220  144.8600 C   0  0  2  0  0  3  0  0  0  0  0  0
  189.0170  176.0570  146.3280 C   0  0  0  0  0  2  0  0  0  0  0  0
  189.6970  174.6940  146.4250 C   0  0  0  0  0  2  0  0  0  0  0  0
  190.1600  176.3870  144.1400 C   0  0  0  0  0  3  0  0  0  0  0  0
  191.1580  175.5760  144.5260 C   0  0  0  0  0  3  0  0  0  0  0  0
  191.0790  174.6870  145.7480 C   0  0  1  0  0  3  0  0  0  0  0  0
  192.0830  175.0450  146.6570 O   0  0  0  0  0  0  0  0  0  0  0  0
  194.1760  176.1750  146.5220 C   0  0  0  0  0  1  0  0  0  0  0  0
  193.2540  175.1440  145.8990 C   0  0  0  0  0  2  0  0  0  0  0  0
  187.5940  178.0930  141.9790 C   0  0  0  0  0  2  0  0  0  0  0  0
  187.0020  176.9660  139.9430 O   0  0  0  0  0  0  0  0  0  0  0  0
  187.4010  176.8620  141.1370 C   0  0  0  0  0  0  0  0  0  0  0  0
  187.6500  175.5890  141.6580 O   0  0  0  0  0  0  0  0  0  0  0  0
  188.5180  174.6620  141.0180 C   0  0  0  0  0  1  0  0  0  0  0  0
  1  7  2  0  0  0  0
  1  6  1  0  0  0  0
  2  3  1  0  0  0  0
  4  9  1  0  0  0  0
  4  2  1  0  0  0  0
  5  3  2  0  0  0  0
  5 10  1  0  0  0  0
  6  4  2  0  0  0  0
  7  8  1  0  0  0  0
  8 12  1  0  0  0  0
  8  9  2  0  0  0  0
  9  5  1  0  0  0  0
 10 11  1  0  0  0  0
 13 12  1  1  0  0  0
 13 14  1  0  0  0  0
 14 15  1  0  0  0  0
 16 17  2  0  0  0  0
 16 13  1  0  0  0  0
 17 18  1  0  0  0  0
 18 15  1  0  0  0  0
 18 19  1  1  0  0  0
 21 20  1  0  0  0  0
 21 19  1  0  0  0  0
 22  7  1  0  0  0  0
 23 24  2  0  0  0  0
 24 25  1  0  0  0  0
 24 22  1  0  0  0  0
 26 25  1  0  0  0  0
M  END
>  <MODEL>
1

>  <REMARK>
 VINA RESULT:      -6.7      0.000      0.000
  Name = 
  8 active torsions:
  status: ('A' for Active; 'I' for Inactive)
    1  A    between atoms: O_4  and  C_17
    2  A    between atoms: O_6  and  C_23
    3  A    between atoms: O_6  and  C_25
    4  A    between atoms: C_7  and  N_21
    5  A    between atoms: C_11  and  N_13
    6  A    between atoms: C_17  and  C_22
    7  A    between atoms: C_20  and  C_22
    8  A    between atoms: N_21  and  C_24
                            x       y       z     vdW  Elec       q    Type
                         _______ _______ _______ _____ _____    ______ ____

>  <TORSDO>
F 8

$$$$
=
 OpenBabel11042417203D

 26 28  0  0  1  0  0  0  0  0999 V2000
  185.5320  179.5830  143.8210 C   0  0  0  0  0  3  0  0  0  0  0  0
  185.5330  178.6390  147.3550 N   0  0  0  0  0  2  0  0  0  0  0  0
  186.2180  177.5910  147.8010 N   0  0  0  0  0  0  0  0  0  0  0  0
  185.7060  178.6960  146.0230 C   0  0  0  0  0  0  0  0  0  0  0  0
  186.8210  176.9850  146.7530 C   0  0  0  0  0  0  0  0  0  0  0  0
  185.1950  179.6640  145.1760 C   0  0  0  0  0  3  0  0  0  0  0  0
  186.3510  178.5370  143.3370 C   0  0  0  0  0  0  0  0  0  0  0  0
  186.8410  177.5380  144.2110 C   0  0  0  0  0  0  0  0  0  0  0  0
  186.5080  177.6670  145.5800 C   0  0  0  0  0  0  0  0  0  0  0  0
  187.6970  175.8700  146.9010 N   0  0  0  0  0  2  0  0  0  0  0  0
  188.9930  176.0400  147.2680 O   0  0  0  0  0  1  0  0  0  0  0  0
  187.6510  176.4800  143.6720 N   0  0  0  0  0  2  0  0  0  0  0  0
  189.0990  176.4610  143.5110 C   0  0  2  0  0  3  0  0  0  0  0  0
  189.6390  175.1390  144.0400 C   0  0  0  0  0  2  0  0  0  0  0  0
  191.1610  175.1390  143.9240 C   0  0  0  0  0  2  0  0  0  0  0  0
  189.7300  177.6200  144.2370 C   0  0  0  0  0  3  0  0  0  0  0  0
  190.9660  177.5460  144.7560 C   0  0  0  0  0  3  0  0  0  0  0  0
  191.8030  176.2840  144.7280 C   0  0  1  0  0  3  0  0  0  0  0  0
  192.0880  175.8780  146.0370 O   0  0  0  0  0  0  0  0  0  0  0  0
  194.2950  176.7150  146.3640 C   0  0  0  0  0  1  0  0  0  0  0  0
  193.4380  175.5090  146.0270 C   0  0  0  0  0  2  0  0  0  0  0  0
  186.7040  178.5340  141.8800 C   0  0  0  0  0  2  0  0  0  0  0  0
  185.8900  177.4560  139.8950 O   0  0  0  0  0  0  0  0  0  0  0  0
  185.6150  177.9460  141.0260 C   0  0  0  0  0  0  0  0  0  0  0  0
  184.2860  177.9390  141.4610 O   0  0  0  0  0  0  0  0  0  0  0  0
  183.2030  178.2700  140.6020 C   0  0  0  0  0  1  0  0  0  0  0  0
  1  6  1  0  0  0  0
  2  3  1  0  0  0  0
  4  2  1  0  0  0  0
  5 10  1  0  0  0  0
  5  3  2  0  0  0  0
  6  4  2  0  0  0  0
  7  1  2  0  0  0  0
  7  8  1  0  0  0  0
  8  9  2  0  0  0  0
  9  4  1  0  0  0  0
  9  5  1  0  0  0  0
 10 11  1  0  0  0  0
 12  8  1  0  0  0  0
 13 12  1  1  0  0  0
 13 14  1  0  0  0  0
 13 16  1  0  0  0  0
 15 14  1  0  0  0  0
 15 18  1  0  0  0  0
 16 17  2  0  0  0  0
 18 17  1  0  0  0  0
 18 19  1  1  0  0  0
 21 19  1  0  0  0  0
 21 20  1  0  0  0  0
 22  7  1  0  0  0  0
 23 24  2  0  0  0  0
 24 25  1  0  0  0  0
 24 22  1  0  0  0  0
 26 25  1  0  0  0  0
M  END
>  <MODEL>
2

>  <REMARK>
 VINA RESULT:      -6.6      1.747      2.334
  Name = 
  8 active torsions:
  status: ('A' for Active; 'I' for Inactive)
    1  A    between atoms: O_4  and  C_17
    2  A    between atoms: O_6  and  C_23
    3  A    between atoms: O_6  and  C_25
    4  A    between atoms: C_7  and  N_21
    5  A    between atoms: C_11  and  N_13
    6  A    between atoms: C_17  and  C_22
    7  A    between atoms: C_20  and  C_22
    8  A    between atoms: N_21  and  C_24
                            x       y       z     vdW  Elec       q    Type
                         _______ _______ _______ _____ _____    ______ ____

>  <TORSDO>
F 8

$$$$
=
 OpenBabel11042417203D

 26 28  0  0  1  0  0  0  0  0999 V2000
  186.3940  177.3510  147.4200 C   0  0  0  0  0  3  0  0  0  0  0  0
  184.0500  179.0750  145.2050 N   0  0  0  0  0  2  0  0  0  0  0  0
  184.0550  178.8820  143.8900 N   0  0  0  0  0  0  0  0  0  0  0  0
  185.0430  178.3340  145.7260 C   0  0  0  0  0  0  0  0  0  0  0  0
  185.0530  178.0240  143.5790 C   0  0  0  0  0  0  0  0  0  0  0  0
  185.3540  178.2170  147.0680 C   0  0  0  0  0  3  0  0  0  0  0  0
  187.1100  176.6370  146.4310 C   0  0  0  0  0  0  0  0  0  0  0  0
  186.8000  176.7900  145.0600 C   0  0  0  0  0  0  0  0  0  0  0  0
  185.7230  177.6490  144.7410 C   0  0  0  0  0  0  0  0  0  0  0  0
  185.2820  177.5480  142.2540 N   0  0  0  0  0  2  0  0  0  0  0  0
  186.1840  178.1500  141.4380 O   0  0  0  0  0  1  0  0  0  0  0  0
  187.5690  176.0620  144.0880 N   0  0  0  0  0  2  0  0  0  0  0  0
  188.7300  176.5280  143.3410 C   0  0  2  0  0  3  0  0  0  0  0  0
  189.8600  175.5200  143.5000 C   0  0  0  0  0  2  0  0  0  0  0  0
  191.0950  176.0330  142.7660 C   0  0  0  0  0  2  0  0  0  0  0  0
  189.1620  177.8880  143.8250 C   0  0  0  0  0  3  0  0  0  0  0  0
  190.4440  178.2850  143.7790 C   0  0  0  0  0  3  0  0  0  0  0  0
  191.5720  177.3900  143.3140 C   0  0  1  0  0  3  0  0  0  0  0  0
  192.4930  177.2130  144.3550 O   0  0  0  0  0  0  0  0  0  0  0  0
  194.5820  176.1850  144.8580 C   0  0  0  0  0  1  0  0  0  0  0  0
  193.4500  176.3220  143.8580 C   0  0  0  0  0  2  0  0  0  0  0  0
  188.1860  175.6950  146.8830 C   0  0  0  0  0  2  0  0  0  0  0  0
  189.6130  177.5860  147.2770 O   0  0  0  0  0  0  0  0  0  0  0  0
  189.5310  176.3620  146.9770 C   0  0  0  0  0  0  0  0  0  0  0  0
  190.7070  175.6470  146.7290 O   0  0  0  0  0  0  0  0  0  0  0  0
  191.8690  175.7900  147.5360 C   0  0  0  0  0  1  0  0  0  0  0  0
  2  4  1  0  0  0  0
  3  2  1  0  0  0  0
  4  6  2  0  0  0  0
  5  3  2  0  0  0  0
  5  9  1  0  0  0  0
  6  1  1  0  0  0  0
  7 22  1  0  0  0  0
  7  1  2  0  0  0  0
  8  7  1  0  0  0  0
  9  8  2  0  0  0  0
  9  4  1  0  0  0  0
 10  5  1  0  0  0  0
 11 10  1  0  0  0  0
 12  8  1  0  0  0  0
 13 14  1  0  0  0  0
 13 16  1  0  0  0  0
 13 12  1  1  0  0  0
 15 18  1  0  0  0  0
 15 14  1  0  0  0  0
 17 16  2  0  0  0  0
 18 17  1  0  0  0  0
 18 19  1  1  0  0  0
 21 19  1  0  0  0  0
 21 20  1  0  0  0  0
 22 24  1  0  0  0  0
 24 23  2  0  0  0  0
 25 24  1  0  0  0  0
 25 26  1  0  0  0  0
M  END
>  <MODEL>
3

>  <REMARK>
 VINA RESULT:      -6.6      1.963      4.204
  Name = 
  8 active torsions:
  status: ('A' for Active; 'I' for Inactive)
    1  A    between atoms: O_4  and  C_17
    2  A    between atoms: O_6  and  C_23
    3  A    between atoms: O_6  and  C_25
    4  A    between atoms: C_7  and  N_21
    5  A    between atoms: C_11  and  N_13
    6  A    between atoms: C_17  and  C_22
    7  A    between atoms: C_20  and  C_22
    8  A    between atoms: N_21  and  C_24
                            x       y       z     vdW  Elec       q    Type
                         _______ _______ _______ _____ _____    ______ ____

>  <TORSDO>
F 8

$$$$
=
 OpenBabel11042417203D

 26 28  0  0  1  0  0  0  0  0999 V2000
  187.7580  177.0640  142.1820 C   0  0  0  0  0  3  0  0  0  0  0  0
  185.6830  179.7980  143.4450 N   0  0  0  0  0  2  0  0  0  0  0  0
  185.3310  179.8780  144.7250 N   0  0  0  0  0  0  0  0  0  0  0  0
  186.4050  178.6730  143.2960 C   0  0  0  0  0  0  0  0  0  0  0  0
  185.8260  178.8040  145.3820 C   0  0  0  0  0  0  0  0  0  0  0  0
  186.9990  178.2370  142.1250 C   0  0  0  0  0  3  0  0  0  0  0  0
  187.8960  176.3450  143.3910 C   0  0  0  0  0  0  0  0  0  0  0  0
  187.2580  176.7890  144.5730 C   0  0  0  0  0  0  0  0  0  0  0  0
  186.5230  177.9950  144.4890 C   0  0  0  0  0  0  0  0  0  0  0  0
  185.6910  178.6270  146.7910 N   0  0  0  0  0  2  0  0  0  0  0  0
  184.4770  178.4010  147.3560 O   0  0  0  0  0  1  0  0  0  0  0  0
  187.4060  176.0140  145.7750 N   0  0  0  0  0  2  0  0  0  0  0  0
  188.3630  176.2180  146.8540 C   0  0  2  0  0  3  0  0  0  0  0  0
  189.2170  177.4380  146.5360 C   0  0  0  0  0  2  0  0  0  0  0  0
  190.2590  177.6200  147.6360 C   0  0  0  0  0  2  0  0  0  0  0  0
  189.2290  174.9980  147.0330 C   0  0  0  0  0  3  0  0  0  0  0  0
  190.4930  175.0820  147.4780 C   0  0  0  0  0  3  0  0  0  0  0  0
  191.1850  176.3970  147.7650 C   0  0  1  0  0  3  0  0  0  0  0  0
  192.3080  176.5300  146.9380 O   0  0  0  0  0  0  0  0  0  0  0  0
  193.9610  175.2590  145.7880 C   0  0  0  0  0  1  0  0  0  0  0  0
  192.7810  175.2290  146.7410 C   0  0  0  0  0  2  0  0  0  0  0  0
  188.7580  175.1180  143.3880 C   0  0  0  0  0  2  0  0  0  0  0  0
  190.6990  174.9680  141.9820 O   0  0  0  0  0  0  0  0  0  0  0  0
  190.1900  175.4230  143.0440 C   0  0  0  0  0  0  0  0  0  0  0  0
  190.9810  176.2050  143.8920 O   0  0  0  0  0  0  0  0  0  0  0  0
  191.4930  177.4720  143.5000 C   0  0  0  0  0  1  0  0  0  0  0  0
  1  7  1  0  0  0  0
  2  3  1  0  0  0  0
  3  5  2  0  0  0  0
  4  2  1  0  0  0  0
  4  9  2  0  0  0  0
  5 10  1  0  0  0  0
  6  1  2  0  0  0  0
  6  4  1  0  0  0  0
  7  8  2  0  0  0  0
  8 12  1  0  0  0  0
  9  8  1  0  0  0  0
  9  5  1  0  0  0  0
 10 11  1  0  0  0  0
 13 12  1  6  0  0  0
 13 16  1  0  0  0  0
 14 13  1  0  0  0  0
 14 15  1  0  0  0  0
 15 18  1  0  0  0  0
 16 17  2  0  0  0  0
 17 18  1  0  0  0  0
 18 19  1  6  0  0  0
 20 21  1  0  0  0  0
 21 19  1  0  0  0  0
 22  7  1  0  0  0  0
 23 24  2  0  0  0  0
 24 22  1  0  0  0  0
 24 25  1  0  0  0  0
 26 25  1  0  0  0  0
M  END
>  <MODEL>
4

>  <REMARK>
 VINA RESULT:      -6.5      1.862      2.820
  Name = 
  8 active torsions:
  status: ('A' for Active; 'I' for Inactive)
    1  A    between atoms: O_4  and  C_17
    2  A    between atoms: O_6  and  C_23
    3  A    between atoms: O_6  and  C_25
    4  A    between atoms: C_7  and  N_21
    5  A    between atoms: C_11  and  N_13
    6  A    between atoms: C_17  and  C_22
    7  A    between atoms: C_20  and  C_22
    8  A    between atoms: N_21  and  C_24
                            x       y       z     vdW  Elec       q    Type
                         _______ _______ _______ _____ _____    ______ ____

>  <TORSDO>
F 8

$$$$
=
 OpenBabel11042417203D

 26 28  0  0  1  0  0  0  0  0999 V2000
  186.5520  176.7600  147.2050 C   0  0  0  0  0  3  0  0  0  0  0  0
  184.0740  178.7020  145.3440 N   0  0  0  0  0  2  0  0  0  0  0  0
  184.3130  179.1510  144.1160 N   0  0  0  0  0  0  0  0  0  0  0  0
  185.1820  178.0650  145.7630 C   0  0  0  0  0  0  0  0  0  0  0  0
  185.5710  178.8030  143.7600 C   0  0  0  0  0  0  0  0  0  0  0  0
  185.3380  177.4130  146.9730 C   0  0  0  0  0  3  0  0  0  0  0  0
  187.5860  176.7820  146.2400 C   0  0  0  0  0  0  0  0  0  0  0  0
  187.4210  177.4780  145.0200 C   0  0  0  0  0  0  0  0  0  0  0  0
  186.1710  178.1020  144.8030 C   0  0  0  0  0  0  0  0  0  0  0  0
  186.1130  179.0690  142.4680 N   0  0  0  0  0  2  0  0  0  0  0  0
  185.9060  178.2170  141.4320 O   0  0  0  0  0  1  0  0  0  0  0  0
  188.5070  177.4940  144.0780 N   0  0  0  0  0  2  0  0  0  0  0  0
  188.7170  176.6030  142.9450 C   0  0  2  0  0  3  0  0  0  0  0  0
  187.6530  175.5140  142.9670 C   0  0  0  0  0  2  0  0  0  0  0  0
  187.9050  174.5460  141.8140 C   0  0  0  0  0  2  0  0  0  0  0  0
  190.0960  175.9970  142.9950 C   0  0  0  0  0  3  0  0  0  0  0  0
  190.3550  174.7780  142.4950 C   0  0  0  0  0  3  0  0  0  0  0  0
  189.2880  173.8780  141.9110 C   0  0  1  0  0  3  0  0  0  0  0  0
  189.2180  172.6890  142.6480 O   0  0  0  0  0  0  0  0  0  0  0  0
  189.6870  172.2920  144.9500 C   0  0  0  0  0  1  0  0  0  0  0  0
  190.2180  172.7940  143.6210 C   0  0  0  0  0  2  0  0  0  0  0  0
  188.8460  176.0270  146.5390 C   0  0  0  0  0  2  0  0  0  0  0  0
  189.8090  177.9260  147.6500 O   0  0  0  0  0  0  0  0  0  0  0  0
  189.9920  176.9360  146.8880 C   0  0  0  0  0  0  0  0  0  0  0  0
  191.2720  176.7070  146.3730 O   0  0  0  0  0  0  0  0  0  0  0  0
  192.0220  175.5410  146.6880 C   0  0  0  0  0  1  0  0  0  0  0  0
  2  4  1  0  0  0  0
  3  2  1  0  0  0  0
  4  6  2  0  0  0  0
  5  3  2  0  0  0  0
  5  9  1  0  0  0  0
  6  1  1  0  0  0  0
  7 22  1  0  0  0  0
  7  1  2  0  0  0  0
  8  7  1  0  0  0  0
  9  8  2  0  0  0  0
  9  4  1  0  0  0  0
 10  5  1  0  0  0  0
 11 10  1  0  0  0  0
 12  8  1  0  0  0  0
 13 14  1  0  0  0  0
 13 16  1  0  0  0  0
 13 12  1  1  0  0  0
 15 18  1  0  0  0  0
 15 14  1  0  0  0  0
 17 16  2  0  0  0  0
 18 17  1  0  0  0  0
 18 19  1  1  0  0  0
 19 21  1  0  0  0  0
 21 20  1  0  0  0  0
 22 24  1  0  0  0  0
 24 23  2  0  0  0  0
 25 26  1  0  0  0  0
 25 24  1  0  0  0  0
M  END
>  <MODEL>
5

>  <REMARK>
 VINA RESULT:      -6.4      1.929      4.505
  Name = 
  8 active torsions:
  status: ('A' for Active; 'I' for Inactive)
    1  A    between atoms: O_4  and  C_17
    2  A    between atoms: O_6  and  C_23
    3  A    between atoms: O_6  and  C_25
    4  A    between atoms: C_7  and  N_21
    5  A    between atoms: C_11  and  N_13
    6  A    between atoms: C_17  and  C_22
    7  A    between atoms: C_20  and  C_22
    8  A    between atoms: N_21  and  C_24
                            x       y       z     vdW  Elec       q    Type
                         _______ _______ _______ _____ _____    ______ ____

>  <TORSDO>
F 8

$$$$
=
 OpenBabel11042417203D

 26 28  0  0  1  0  0  0  0  0999 V2000
  190.4130  176.3650  147.3680 C   0  0  0  0  0  3  0  0  0  0  0  0
  193.6520  176.6230  145.6890 N   0  0  0  0  0  2  0  0  0  0  0  0
  193.8000  176.3290  144.4010 N   0  0  0  0  0  0  0  0  0  0  0  0
  192.3670  176.3940  146.0090 C   0  0  0  0  0  0  0  0  0  0  0  0
  192.6110  175.9110  143.9080 C   0  0  0  0  0  0  0  0  0  0  0  0
  191.7840  176.6140  147.2440 C   0  0  0  0  0  3  0  0  0  0  0  0
  189.6590  175.8890  146.2700 C   0  0  0  0  0  0  0  0  0  0  0  0
  190.2760  175.6410  145.0220 C   0  0  0  0  0  0  0  0  0  0  0  0
  191.6560  175.9330  144.9210 C   0  0  0  0  0  0  0  0  0  0  0  0
  192.4110  175.5910  142.5330 N   0  0  0  0  0  2  0  0  0  0  0  0
  193.4270  175.6800  141.6370 O   0  0  0  0  0  1  0  0  0  0  0  0
  189.4760  175.1350  143.9400 N   0  0  0  0  0  2  0  0  0  0  0  0
  188.8660  175.8910  142.8550 C   0  0  2  0  0  3  0  0  0  0  0  0
  189.2410  177.3600  143.0000 C   0  0  0  0  0  2  0  0  0  0  0  0
  188.5560  178.1620  141.8970 C   0  0  0  0  0  2  0  0  0  0  0  0
  187.3680  175.7240  142.8670 C   0  0  0  0  0  3  0  0  0  0  0  0
  186.5410  176.6880  142.4300 C   0  0  0  0  0  3  0  0  0  0  0  0
  187.0230  178.0430  141.9610 C   0  0  1  0  0  3  0  0  0  0  0  0
  186.4770  179.0450  142.7730 O   0  0  0  0  0  0  0  0  0  0  0  0
  184.6590  179.4120  144.2680 C   0  0  0  0  0  1  0  0  0  0  0  0
  185.1950  178.5960  143.1080 C   0  0  0  0  0  2  0  0  0  0  0  0
  188.1870  175.6820  146.4630 C   0  0  0  0  0  2  0  0  0  0  0  0
  187.6130  177.8920  145.7200 O   0  0  0  0  0  0  0  0  0  0  0  0
  187.4340  176.9790  146.5730 C   0  0  0  0  0  0  0  0  0  0  0  0
  186.5330  177.2000  147.6200 O   0  0  0  0  0  0  0  0  0  0  0  0
  185.6420  178.3090  147.6360 C   0  0  0  0  0  1  0  0  0  0  0  0
  2  4  1  0  0  0  0
  3  2  1  0  0  0  0
  4  6  2  0  0  0  0
  5  3  2  0  0  0  0
  5  9  1  0  0  0  0
  6  1  1  0  0  0  0
  7 22  1  0  0  0  0
  7  1  2  0  0  0  0
  8  7  1  0  0  0  0
  9  8  2  0  0  0  0
  9  4  1  0  0  0  0
 10  5  1  0  0  0  0
 11 10  1  0  0  0  0
 12  8  1  0  0  0  0
 13 16  1  0  0  0  0
 13 14  1  0  0  0  0
 13 12  1  1  0  0  0
 15 18  1  0  0  0  0
 15 14  1  0  0  0  0
 17 16  2  0  0  0  0
 18 17  1  0  0  0  0
 18 19  1  1  0  0  0
 19 21  1  0  0  0  0
 21 20  1  0  0  0  0
 22 24  1  0  0  0  0
 23 24  2  0  0  0  0
 24 25  1  0  0  0  0
 25 26  1  0  0  0  0
M  END
>  <MODEL>
6

>  <REMARK>
 VINA RESULT:      -6.2      2.986      7.052
  Name = 
  8 active torsions:
  status: ('A' for Active; 'I' for Inactive)
    1  A    between atoms: O_4  and  C_17
    2  A    between atoms: O_6  and  C_23
    3  A    between atoms: O_6  and  C_25
    4  A    between atoms: C_7  and  N_21
    5  A    between atoms: C_11  and  N_13
    6  A    between atoms: C_17  and  C_22
    7  A    between atoms: C_20  and  C_22
    8  A    between atoms: N_21  and  C_24
                            x       y       z     vdW  Elec       q    Type
                         _______ _______ _______ _____ _____    ______ ____

>  <TORSDO>
F 8

$$$$
=
 OpenBabel11042417203D

 26 28  0  0  1  0  0  0  0  0999 V2000
  186.2100  178.7070  144.1820 C   0  0  0  0  0  3  0  0  0  0  0  0
  186.3960  177.9220  140.6150 N   0  0  0  0  0  2  0  0  0  0  0  0
  187.0580  176.8610  140.1640 N   0  0  0  0  0  0  0  0  0  0  0  0
  186.5460  177.9520  141.9510 C   0  0  0  0  0  0  0  0  0  0  0  0
  187.6300  176.2240  141.2120 C   0  0  0  0  0  0  0  0  0  0  0  0
  185.9800  178.8730  142.8130 C   0  0  0  0  0  3  0  0  0  0  0  0
  187.0080  177.6420  144.6610 C   0  0  0  0  0  0  0  0  0  0  0  0
  187.6050  176.7260  143.7640 C   0  0  0  0  0  0  0  0  0  0  0  0
  187.3270  176.9040  142.3880 C   0  0  0  0  0  0  0  0  0  0  0  0
  188.3510  175.0020  141.0760 N   0  0  0  0  0  2  0  0  0  0  0  0
  187.8320  173.8280  141.5190 O   0  0  0  0  0  1  0  0  0  0  0  0
  188.4280  175.6730  144.2930 N   0  0  0  0  0  2  0  0  0  0  0  0
  189.8600  175.4820  144.1040 C   0  0  2  0  0  3  0  0  0  0  0  0
  190.3670  174.4800  145.1330 C   0  0  0  0  0  2  0  0  0  0  0  0
  191.8770  174.3220  144.9740 C   0  0  0  0  0  2  0  0  0  0  0  0
  190.5920  176.7920  144.2340 C   0  0  0  0  0  3  0  0  0  0  0  0
  191.8540  176.8590  144.6900 C   0  0  0  0  0  3  0  0  0  0  0  0
  192.6240  175.6520  145.1790 C   0  0  1  0  0  3  0  0  0  0  0  0
  192.9710  175.8280  146.5250 O   0  0  0  0  0  0  0  0  0  0  0  0
  195.2190  175.2920  145.9460 C   0  0  0  0  0  1  0  0  0  0  0  0
  194.2740  176.3370  146.5090 C   0  0  0  0  0  2  0  0  0  0  0  0
  187.1800  177.5010  146.1430 C   0  0  0  0  0  2  0  0  0  0  0  0
  184.9680  176.6630  146.5570 O   0  0  0  0  0  0  0  0  0  0  0  0
  185.8660  177.4910  146.8750 C   0  0  0  0  0  0  0  0  0  0  0  0
  185.6130  178.3980  147.9100 O   0  0  0  0  0  0  0  0  0  0  0  0
  186.2940  179.6430  148.0120 C   0  0  0  0  0  1  0  0  0  0  0  0
  1  7  1  0  0  0  0
  2  4  1  0  0  0  0
  3  2  1  0  0  0  0
  3  5  2  0  0  0  0
  4  9  2  0  0  0  0
  4  6  1  0  0  0  0
  5  9  1  0  0  0  0
  6  1  2  0  0  0  0
  7 22  1  0  0  0  0
  8 12  1  0  0  0  0
  8  7  2  0  0  0  0
  9  8  1  0  0  0  0
 10  5  1  0  0  0  0
 10 11  1  0  0  0  0
 13 16  1  0  0  0  0
 13 12  1  1  0  0  0
 13 14  1  0  0  0  0
 15 14  1  0  0  0  0
 15 18  1  0  0  0  0
 16 17  2  0  0  0  0
 17 18  1  0  0  0  0
 18 19  1  1  0  0  0
 20 21  1  0  0  0  0
 21 19  1  0  0  0  0
 22 24  1  0  0  0  0
 23 24  2  0  0  0  0
 24 25  1  0  0  0  0
 25 26  1  0  0  0  0
M  END
>  <MODEL>
7

>  <REMARK>
 VINA RESULT:      -6.2      2.345      4.683
  Name = 
  8 active torsions:
  status: ('A' for Active; 'I' for Inactive)
    1  A    between atoms: O_4  and  C_17
    2  A    between atoms: O_6  and  C_23
    3  A    between atoms: O_6  and  C_25
    4  A    between atoms: C_7  and  N_21
    5  A    between atoms: C_11  and  N_13
    6  A    between atoms: C_17  and  C_22
    7  A    between atoms: C_20  and  C_22
    8  A    between atoms: N_21  and  C_24
                            x       y       z     vdW  Elec       q    Type
                         _______ _______ _______ _____ _____    ______ ____

>  <TORSDO>
F 8

$$$$
=
 OpenBabel11042417203D

 26 28  0  0  1  0  0  0  0  0999 V2000
  184.7720  179.2880  144.2630 C   0  0  0  0  0  3  0  0  0  0  0  0
  185.1830  177.9290  147.6330 N   0  0  0  0  0  2  0  0  0  0  0  0
  186.2230  177.1690  147.9620 N   0  0  0  0  0  0  0  0  0  0  0  0
  185.3020  178.2340  146.3300 C   0  0  0  0  0  0  0  0  0  0  0  0
  186.9970  176.9910  146.8670 C   0  0  0  0  0  0  0  0  0  0  0  0
  184.4490  179.0430  145.6020 C   0  0  0  0  0  3  0  0  0  0  0  0
  185.9220  178.7120  143.6770 C   0  0  0  0  0  0  0  0  0  0  0  0
  186.7690  177.8630  144.4270 C   0  0  0  0  0  0  0  0  0  0  0  0
  186.4310  177.6610  145.7850 C   0  0  0  0  0  0  0  0  0  0  0  0
  188.2360  176.2850  146.8990 N   0  0  0  0  0  2  0  0  0  0  0  0
  189.4210  176.9470  146.8950 O   0  0  0  0  0  1  0  0  0  0  0  0
  187.9150  177.2810  143.7830 N   0  0  0  0  0  2  0  0  0  0  0  0
  188.1600  175.8720  143.5050 C   0  0  2  0  0  3  0  0  0  0  0  0
  189.6550  175.6000  143.5990 C   0  0  0  0  0  2  0  0  0  0  0  0
  189.9200  174.1370  143.2520 C   0  0  0  0  0  2  0  0  0  0  0  0
  187.6390  175.5020  142.1400 C   0  0  0  0  0  3  0  0  0  0  0  0
  188.2060  174.5340  141.4010 C   0  0  0  0  0  3  0  0  0  0  0  0
  189.4490  173.7850  141.8300 C   0  0  1  0  0  3  0  0  0  0  0  0
  190.4730  173.9980  140.8970 O   0  0  0  0  0  0  0  0  0  0  0  0
  190.3800  171.7260  140.1890 C   0  0  0  0  0  1  0  0  0  0  0  0
  190.1610  173.1770  139.8080 C   0  0  0  0  0  2  0  0  0  0  0  0
  186.2300  179.0500  142.2490 C   0  0  0  0  0  2  0  0  0  0  0  0
  185.8790  177.8930  140.1740 O   0  0  0  0  0  0  0  0  0  0  0  0
  185.3920  178.2620  141.2790 C   0  0  0  0  0  0  0  0  0  0  0  0
  184.0660  177.9320  141.5780 O   0  0  0  0  0  0  0  0  0  0  0  0
  182.9830  178.2940  140.7310 C   0  0  0  0  0  1  0  0  0  0  0  0
  1  6  1  0  0  0  0
  2  3  1  0  0  0  0
  4  2  1  0  0  0  0
  5 10  1  0  0  0  0
  5  3  2  0  0  0  0
  6  4  2  0  0  0  0
  7  1  2  0  0  0  0
  7  8  1  0  0  0  0
  8  9  2  0  0  0  0
  9  4  1  0  0  0  0
  9  5  1  0  0  0  0
 11 10  1  0  0  0  0
 12  8  1  0  0  0  0
 13 14  1  0  0  0  0
 13 12  1  6  0  0  0
 15 14  1  0  0  0  0
 16 13  1  0  0  0  0
 17 18  1  0  0  0  0
 17 16  2  0  0  0  0
 18 19  1  6  0  0  0
 18 15  1  0  0  0  0
 21 20  1  0  0  0  0
 21 19  1  0  0  0  0
 22  7  1  0  0  0  0
 23 24  2  0  0  0  0
 24 25  1  0  0  0  0
 24 22  1  0  0  0  0
 26 25  1  0  0  0  0
M  END
>  <MODEL>
8

>  <REMARK>
 VINA RESULT:      -6.1      2.267      3.684
  Name = 
  8 active torsions:
  status: ('A' for Active; 'I' for Inactive)
    1  A    between atoms: O_4  and  C_17
    2  A    between atoms: O_6  and  C_23
    3  A    between atoms: O_6  and  C_25
    4  A    between atoms: C_7  and  N_21
    5  A    between atoms: C_11  and  N_13
    6  A    between atoms: C_17  and  C_22
    7  A    between atoms: C_20  and  C_22
    8  A    between atoms: N_21  and  C_24
                            x       y       z     vdW  Elec       q    Type
                         _______ _______ _______ _____ _____    ______ ____

>  <TORSDO>
F 8

$$$$
=
 OpenBabel11042417203D

 26 28  0  0  1  0  0  0  0  0999 V2000
  184.0800  178.7290  144.3550 C   0  0  0  0  0  3  0  0  0  0  0  0
  183.5620  178.2750  140.7630 N   0  0  0  0  0  2  0  0  0  0  0  0
  184.5620  177.9650  139.9430 N   0  0  0  0  0  0  0  0  0  0  0  0
  184.0790  178.4070  141.9970 C   0  0  0  0  0  0  0  0  0  0  0  0
  185.7100  177.9050  140.6570 C   0  0  0  0  0  0  0  0  0  0  0  0
  183.3690  178.6840  143.1510 C   0  0  0  0  0  3  0  0  0  0  0  0
  185.4770  178.5140  144.3810 C   0  0  0  0  0  0  0  0  0  0  0  0
  186.1930  178.2610  143.1880 C   0  0  0  0  0  0  0  0  0  0  0  0
  185.4400  178.1920  141.9930 C   0  0  0  0  0  0  0  0  0  0  0  0
  186.9590  177.5210  140.0870 N   0  0  0  0  0  2  0  0  0  0  0  0
  187.0510  176.4490  139.2590 O   0  0  0  0  0  1  0  0  0  0  0  0
  187.6170  178.0730  143.2590 N   0  0  0  0  0  2  0  0  0  0  0  0
  188.3450  176.8150  143.3480 C   0  0  2  0  0  3  0  0  0  0  0  0
  189.5670  176.8830  142.4420 C   0  0  0  0  0  2  0  0  0  0  0  0
  190.3000  175.5450  142.4900 C   0  0  0  0  0  2  0  0  0  0  0  0
  187.4600  175.6590  142.9580 C   0  0  0  0  0  3  0  0  0  0  0  0
  187.9520  174.5470  142.3900 C   0  0  0  0  0  3  0  0  0  0  0  0
  189.4110  174.3800  142.0220 C   0  0  1  0  0  3  0  0  0  0  0  0
  189.5290  174.1830  140.6400 O   0  0  0  0  0  0  0  0  0  0  0  0
  188.3940  173.1710  138.8060 C   0  0  0  0  0  1  0  0  0  0  0  0
  188.5540  173.2350  140.3130 C   0  0  0  0  0  2  0  0  0  0  0  0
  186.1690  178.5370  145.7110 C   0  0  0  0  0  2  0  0  0  0  0  0
  185.0300  176.5830  146.5180 O   0  0  0  0  0  0  0  0  0  0  0  0
  186.1230  177.2030  146.4050 C   0  0  0  0  0  0  0  0  0  0  0  0
  187.2820  176.6330  146.9420 O   0  0  0  0  0  0  0  0  0  0  0  0
  188.5430  177.2900  146.8970 C   0  0  0  0  0  1  0  0  0  0  0  0
  1  7  1  0  0  0  0
  2  4  1  0  0  0  0
  3  5  2  0  0  0  0
  3  2  1  0  0  0  0
  4  6  1  0  0  0  0
  5  9  1  0  0  0  0
  6  1  2  0  0  0  0
  7 22  1  0  0  0  0
  8 12  1  0  0  0  0
  8  7  2  0  0  0  0
  9  4  2  0  0  0  0
  9  8  1  0  0  0  0
 10  5  1  0  0  0  0
 11 10  1  0  0  0  0
 13 12  1  6  0  0  0
 14 15  1  0  0  0  0
 14 13  1  0  0  0  0
 16 13  1  0  0  0  0
 17 16  2  0  0  0  0
 18 19  1  6  0  0  0
 18 17  1  0  0  0  0
 18 15  1  0  0  0  0
 20 21  1  0  0  0  0
 21 19  1  0  0  0  0
 22 24  1  0  0  0  0
 24 23  2  0  0  0  0
 24 25  1  0  0  0  0
 26 25  1  0  0  0  0
M  END
>  <MODEL>
9

>  <REMARK>
 VINA RESULT:      -6.1      2.865      5.351
  Name = 
  8 active torsions:
  status: ('A' for Active; 'I' for Inactive)
    1  A    between atoms: O_4  and  C_17
    2  A    between atoms: O_6  and  C_23
    3  A    between atoms: O_6  and  C_25
    4  A    between atoms: C_7  and  N_21
    5  A    between atoms: C_11  and  N_13
    6  A    between atoms: C_17  and  C_22
    7  A    between atoms: C_20  and  C_22
    8  A    between atoms: N_21  and  C_24
                            x       y       z     vdW  Elec       q    Type
                         _______ _______ _______ _____ _____    ______ ____

>  <TORSDO>
F 8

$$$$
