=
 OpenBabel11042419433D

 40 45  0  0  1  0  0  0  0  0999 V2000
  192.5070  174.1650  144.5740 C   0  0  0  0  0  0  0  0  0  0  0  0
  193.6100  173.6030  144.0630 C   0  0  0  0  0  3  0  0  0  0  0  0
  191.5270  174.7000  143.6730 N   0  0  0  0  0  0  0  0  0  0  0  0
  188.9140  172.3360  142.8370 C   0  0  0  0  0  3  0  0  0  0  0  0
  190.4650  174.0690  143.1540 C   0  0  0  0  0  0  0  0  0  0  0  0
  188.1980  173.1380  141.9190 C   0  0  0  0  0  3  0  0  0  0  0  0
  189.8020  174.8770  142.2800 C   0  0  0  0  0  0  0  0  0  0  0  0
  190.0400  172.8130  143.4480 N   0  0  0  0  0  0  0  0  0  0  0  0
  190.4740  176.0840  142.2210 C   0  0  0  0  0  3  0  0  0  0  0  0
  188.6500  174.4380  141.6350 C   0  0  0  0  0  0  0  0  0  0  0  0
  191.5520  175.9270  143.1030 C   0  0  0  0  0  3  0  0  0  0  0  0
  187.9670  175.2490  140.7380 O   0  0  0  0  0  1  0  0  0  0  0  0
  194.7490  173.0180  144.7980 C   0  0  0  0  0  0  0  0  0  0  0  0
  196.8510  173.1810  146.0120 C   0  0  0  0  0  3  0  0  0  0  0  0
  195.8680  171.0100  145.5880 C   0  0  0  0  0  0  0  0  0  0  0  0
  196.8940  171.7900  146.1330 C   0  0  0  0  0  3  0  0  0  0  0  0
  194.7990  171.6250  144.9270 C   0  0  0  0  0  3  0  0  0  0  0  0
  195.7860  173.7930  145.3450 C   0  0  0  0  0  3  0  0  0  0  0  0
  195.9120  169.5260  145.7110 C   0  0  0  0  0  2  0  0  0  0  0  0
  194.5190  168.7440  147.7900 N   0  0  0  0  0  0  0  0  0  0  0  0
  195.1340  169.0870  146.8730 C   0  0  0  0  0  0  0  0  0  0  0  0
  192.3040  174.2400  145.9900 N   0  0  0  0  0  2  0  0  0  0  0  0
  192.1390  175.4920  146.7180 C   0  0  0  0  0  2  0  0  0  0  0  0
  190.3180  176.8520  148.0510 C   0  0  1  0  0  3  0  0  0  0  0  0
  189.6150  174.7050  146.8450 C   0  0  0  0  0  1  0  0  0  0  0  0
  191.5340  177.5020  148.6940 C   0  0  0  0  0  1  0  0  0  0  0  0
  190.2800  177.2320  146.5720 C   0  0  1  0  0  3  0  0  0  0  0  0
  190.6630  175.8080  146.9920 C   0  0  2  0  0  0  0  0  0  0  0  0
  187.3690  177.7310  144.1860 C   0  0  0  0  0  0  0  0  0  0  0  0
  187.1600  177.9040  142.8160 C   0  0  0  0  0  3  0  0  0  0  0  0
  185.8590  178.0770  142.3170 C   0  0  0  0  0  0  0  0  0  0  0  0
  184.7730  178.0760  143.1990 C   0  0  0  0  0  3  0  0  0  0  0  0
  187.7760  177.3980  146.9340 C   0  0  0  0  0  3  0  0  0  0  0  0
  184.9750  177.9060  144.5720 C   0  0  0  0  0  3  0  0  0  0  0  0
  186.2680  177.7340  145.0710 C   0  0  0  0  0  0  0  0  0  0  0  0
  186.4790  177.5720  146.4430 C   0  0  0  0  0  3  0  0  0  0  0  0
  188.8720  177.3710  146.0560 C   0  0  0  0  0  0  0  0  0  0  0  0
  188.6630  177.5550  144.6840 C   0  0  0  0  0  3  0  0  0  0  0  0
  185.6070  178.2580  140.8840 C   0  0  0  0  0  3  0  0  0  0  0  0
  184.4330  178.0840  140.3770 N   0  0  0  0  0  2  0  0  0  0  0  0
  1 22  1  0  0  0  0
  2  1  2  0  0  0  0
  2 13  1  0  0  0  0
  3  1  1  0  0  0  0
  4  8  1  0  0  0  0
  5  8  2  0  0  0  0
  5  3  1  0  0  0  0
  6  4  2  0  0  0  0
  7  5  1  0  0  0  0
  9  7  1  0  0  0  0
  9 11  2  0  0  0  0
 10  6  1  0  0  0  0
 10  7  2  0  0  0  0
 11  3  1  0  0  0  0
 12 10  1  0  0  0  0
 13 17  2  0  0  0  0
 13 18  1  0  0  0  0
 14 16  1  0  0  0  0
 15 19  1  0  0  0  0
 15 16  2  0  0  0  0
 17 15  1  0  0  0  0
 18 14  2  0  0  0  0
 19 21  1  0  0  0  0
 21 20  3  0  0  0  0
 22 23  1  0  0  0  0
 23 28  1  0  0  0  0
 24 26  1  1  0  0  0
 27 37  1  6  0  0  0
 27 28  1  0  0  0  0
 27 24  1  0  0  0  0
 28 25  1  6  0  0  0
 28 24  1  0  0  0  0
 29 38  2  0  0  0  0
 29 35  1  0  0  0  0
 30 29  1  0  0  0  0
 31 30  2  0  0  0  0
 31 32  1  0  0  0  0
 32 34  2  0  0  0  0
 34 35  1  0  0  0  0
 35 36  2  0  0  0  0
 36 33  1  0  0  0  0
 37 33  2  0  0  0  0
 38 37  1  0  0  0  0
 39 31  1  0  0  0  0
 40 39  2  0  0  0  0
M  END
>  <MODEL>
1

>  <REMARK>
 VINA RESULT:      -8.4      0.000      0.000
  Name = 
  9 active torsions:
  status: ('A' for Active; 'I' for Inactive)
    1  A    between atoms: C_3  and  N_7
    2  A    between atoms: C_3  and  N_8
    3  A    between atoms: C_4  and  C_16
    4  A    between atoms: C_6  and  C_31
    5  A    between atoms: N_8  and  C_18
    6  A    between atoms: C_18  and  C_30
    7  A    between atoms: C_20  and  C_26
    8  A    between atoms: C_23  and  C_38
    9  A    between atoms: C_26  and  C_33
                            x       y       z     vdW  Elec       q    Type
                         _______ _______ _______ _____ _____    ______ ____

>  <TORSDO>
F 9

$$$$
=
 OpenBabel11042419433D

 40 45  0  0  1  0  0  0  0  0999 V2000
  191.0510  173.6830  143.9400 C   0  0  0  0  0  0  0  0  0  0  0  0
  192.1380  173.1370  143.3790 C   0  0  0  0  0  3  0  0  0  0  0  0
  190.0220  174.2010  143.0850 N   0  0  0  0  0  0  0  0  0  0  0  0
  190.1320  177.8040  142.7380 C   0  0  0  0  0  3  0  0  0  0  0  0
  189.7780  175.4840  142.7860 C   0  0  0  0  0  0  0  0  0  0  0  0
  188.9860  177.9660  141.9250 C   0  0  0  0  0  3  0  0  0  0  0  0
  188.6720  175.5950  141.9990 C   0  0  0  0  0  0  0  0  0  0  0  0
  190.5170  176.5610  143.1580 N   0  0  0  0  0  0  0  0  0  0  0  0
  188.1680  174.3250  141.7890 C   0  0  0  0  0  3  0  0  0  0  0  0
  188.2410  176.8380  141.5460 C   0  0  0  0  0  0  0  0  0  0  0  0
  189.0390  173.4830  142.4930 C   0  0  0  0  0  3  0  0  0  0  0  0
  187.1120  176.9670  140.7460 O   0  0  0  0  0  1  0  0  0  0  0  0
  193.3190  172.5720  144.0600 C   0  0  0  0  0  0  0  0  0  0  0  0
  194.5590  170.7390  145.0710 C   0  0  0  0  0  3  0  0  0  0  0  0
  195.4970  172.9710  145.0640 C   0  0  0  0  0  0  0  0  0  0  0  0
  195.5950  171.6160  145.4010 C   0  0  0  0  0  3  0  0  0  0  0  0
  194.3630  173.4420  144.3920 C   0  0  0  0  0  3  0  0  0  0  0  0
  193.4250  171.2140  144.4070 C   0  0  0  0  0  3  0  0  0  0  0  0
  196.5970  173.9110  145.4180 C   0  0  0  0  0  2  0  0  0  0  0  0
  196.8900  175.7230  143.5470 N   0  0  0  0  0  0  0  0  0  0  0  0
  196.7600  174.9220  144.3710 C   0  0  0  0  0  0  0  0  0  0  0  0
  190.9140  173.7590  145.3630 N   0  0  0  0  0  2  0  0  0  0  0  0
  191.3430  174.9030  146.1580 C   0  0  0  0  0  2  0  0  0  0  0  0
  190.4730  176.6590  147.9190 C   0  0  1  0  0  3  0  0  0  0  0  0
  188.9500  174.7050  147.2720 C   0  0  0  0  0  1  0  0  0  0  0  0
  191.9460  177.0310  148.0070 C   0  0  0  0  0  1  0  0  0  0  0  0
  189.9590  177.0130  146.5260 C   0  0  1  0  0  3  0  0  0  0  0  0
  190.1760  175.5460  146.9170 C   0  0  2  0  0  0  0  0  0  0  0  0
  186.4850  177.9700  145.3280 C   0  0  0  0  0  0  0  0  0  0  0  0
  185.7710  178.0230  144.1290 C   0  0  0  0  0  3  0  0  0  0  0  0
  184.4410  178.4720  144.1180 C   0  0  0  0  0  0  0  0  0  0  0  0
  183.8330  178.8660  145.3150 C   0  0  0  0  0  3  0  0  0  0  0  0
  187.9060  177.8790  147.7360 C   0  0  0  0  0  3  0  0  0  0  0  0
  184.5420  178.8170  146.5190 C   0  0  0  0  0  3  0  0  0  0  0  0
  185.8660  178.3720  146.5330 C   0  0  0  0  0  0  0  0  0  0  0  0
  186.5830  178.3290  147.7310 C   0  0  0  0  0  3  0  0  0  0  0  0
  188.5190  177.4560  146.5460 C   0  0  0  0  0  0  0  0  0  0  0  0
  187.8070  177.5200  145.3420 C   0  0  0  0  0  3  0  0  0  0  0  0
  183.6660  178.5370  142.8750 C   0  0  0  0  0  3  0  0  0  0  0  0
  184.0580  177.9340  141.8020 N   0  0  0  0  0  2  0  0  0  0  0  0
  1 22  1  0  0  0  0
  2  1  2  0  0  0  0
  2 13  1  0  0  0  0
  3  1  1  0  0  0  0
  4  8  1  0  0  0  0
  5  3  1  0  0  0  0
  5  8  2  0  0  0  0
  6  4  2  0  0  0  0
  7  5  1  0  0  0  0
  9  7  1  0  0  0  0
  9 11  2  0  0  0  0
 10  6  1  0  0  0  0
 10  7  2  0  0  0  0
 11  3  1  0  0  0  0
 12 10  1  0  0  0  0
 13 17  2  0  0  0  0
 13 18  1  0  0  0  0
 14 16  1  0  0  0  0
 15 16  2  0  0  0  0
 15 19  1  0  0  0  0
 17 15  1  0  0  0  0
 18 14  2  0  0  0  0
 20 21  3  0  0  0  0
 21 19  1  0  0  0  0
 22 23  1  0  0  0  0
 23 28  1  0  0  0  0
 24 26  1  6  0  0  0
 27 37  1  1  0  0  0
 27 28  1  0  0  0  0
 27 24  1  0  0  0  0
 28 25  1  1  0  0  0
 28 24  1  0  0  0  0
 29 38  2  0  0  0  0
 29 35  1  0  0  0  0
 30 29  1  0  0  0  0
 31 30  2  0  0  0  0
 31 32  1  0  0  0  0
 32 34  2  0  0  0  0
 34 35  1  0  0  0  0
 35 36  2  0  0  0  0
 36 33  1  0  0  0  0
 37 33  2  0  0  0  0
 38 37  1  0  0  0  0
 39 31  1  0  0  0  0
 40 39  2  0  0  0  0
M  END
>  <MODEL>
2

>  <REMARK>
 VINA RESULT:      -8.4      1.663      2.881
  Name = 
  9 active torsions:
  status: ('A' for Active; 'I' for Inactive)
    1  A    between atoms: C_3  and  N_7
    2  A    between atoms: C_3  and  N_8
    3  A    between atoms: C_4  and  C_16
    4  A    between atoms: C_6  and  C_31
    5  A    between atoms: N_8  and  C_18
    6  A    between atoms: C_18  and  C_30
    7  A    between atoms: C_20  and  C_26
    8  A    between atoms: C_23  and  C_38
    9  A    between atoms: C_26  and  C_33
                            x       y       z     vdW  Elec       q    Type
                         _______ _______ _______ _____ _____    ______ ____

>  <TORSDO>
F 9

$$$$
=
 OpenBabel11042419433D

 40 45  0  0  1  0  0  0  0  0999 V2000
  192.1660  173.2200  144.5290 C   0  0  0  0  0  0  0  0  0  0  0  0
  191.6880  173.3870  143.2890 C   0  0  0  0  0  3  0  0  0  0  0  0
  193.3830  172.4810  144.7040 N   0  0  0  0  0  0  0  0  0  0  0  0
  196.2810  174.5960  145.1970 C   0  0  0  0  0  3  0  0  0  0  0  0
  194.6190  172.9710  144.8730 C   0  0  0  0  0  0  0  0  0  0  0  0
  197.2650  173.5830  145.2590 C   0  0  0  0  0  3  0  0  0  0  0  0
  195.5340  171.9640  144.9320 C   0  0  0  0  0  0  0  0  0  0  0  0
  194.9650  174.2770  145.0060 N   0  0  0  0  0  0  0  0  0  0  0  0
  194.8610  170.7660  144.7830 C   0  0  0  0  0  3  0  0  0  0  0  0
  196.8840  172.2380  145.1260 C   0  0  0  0  0  0  0  0  0  0  0  0
  193.5170  171.1360  144.6350 C   0  0  0  0  0  3  0  0  0  0  0  0
  197.8300  171.2210  145.1840 O   0  0  0  0  0  1  0  0  0  0  0  0
  190.4520  174.0850  142.8830 C   0  0  0  0  0  0  0  0  0  0  0  0
  188.1110  174.1250  142.2240 C   0  0  0  0  0  3  0  0  0  0  0  0
  189.3740  176.1880  142.3150 C   0  0  0  0  0  0  0  0  0  0  0  0
  188.1750  175.5120  142.0670 C   0  0  0  0  0  3  0  0  0  0  0  0
  190.5060  175.4740  142.7260 C   0  0  0  0  0  3  0  0  0  0  0  0
  189.2440  173.4140  142.6270 C   0  0  0  0  0  3  0  0  0  0  0  0
  189.4480  177.6660  142.1440 C   0  0  0  0  0  2  0  0  0  0  0  0
  191.3070  178.6730  143.6930 N   0  0  0  0  0  0  0  0  0  0  0  0
  190.4890  178.2280  143.0090 C   0  0  0  0  0  0  0  0  0  0  0  0
  191.4780  173.7590  145.6640 N   0  0  0  0  0  2  0  0  0  0  0  0
  191.5920  175.1470  146.0950 C   0  0  0  0  0  2  0  0  0  0  0  0
  190.4620  176.6180  147.9660 C   0  0  1  0  0  3  0  0  0  0  0  0
  189.1200  174.6990  146.9290 C   0  0  0  0  0  1  0  0  0  0  0  0
  191.8970  177.0390  148.2480 C   0  0  0  0  0  1  0  0  0  0  0  0
  190.0610  177.1280  146.5840 C   0  0  1  0  0  3  0  0  0  0  0  0
  190.3240  175.6340  146.8070 C   0  0  2  0  0  0  0  0  0  0  0  0
  186.6170  177.8830  145.1770 C   0  0  0  0  0  0  0  0  0  0  0  0
  185.9680  177.8710  143.9410 C   0  0  0  0  0  3  0  0  0  0  0  0
  184.6200  178.2540  143.8470 C   0  0  0  0  0  0  0  0  0  0  0  0
  183.9300  178.6480  144.9980 C   0  0  0  0  0  3  0  0  0  0  0  0
  187.9080  177.9230  147.6590 C   0  0  0  0  0  3  0  0  0  0  0  0
  184.5740  178.6640  146.2400 C   0  0  0  0  0  3  0  0  0  0  0  0
  185.9140  178.2840  146.3360 C   0  0  0  0  0  0  0  0  0  0  0  0
  186.5660  178.3070  147.5710 C   0  0  0  0  0  3  0  0  0  0  0  0
  188.6040  177.5000  146.5160 C   0  0  0  0  0  0  0  0  0  0  0  0
  187.9560  177.4990  145.2740 C   0  0  0  0  0  3  0  0  0  0  0  0
  183.9120  178.2490  142.5630 C   0  0  0  0  0  3  0  0  0  0  0  0
  184.5470  178.3130  141.4410 N   0  0  0  0  0  2  0  0  0  0  0  0
  1  3  1  0  0  0  0
  1 22  1  0  0  0  0
  2  1  2  0  0  0  0
  3  5  1  0  0  0  0
  4  6  1  0  0  0  0
  5  7  2  0  0  0  0
  5  8  1  0  0  0  0
  7 10  1  0  0  0  0
  8  4  2  0  0  0  0
  9  7  1  0  0  0  0
 10 12  1  0  0  0  0
 10  6  2  0  0  0  0
 11  3  1  0  0  0  0
 11  9  2  0  0  0  0
 13  2  1  0  0  0  0
 14 18  1  0  0  0  0
 15 17  2  0  0  0  0
 16 14  2  0  0  0  0
 16 15  1  0  0  0  0
 17 13  1  0  0  0  0
 18 13  2  0  0  0  0
 19 15  1  0  0  0  0
 19 21  1  0  0  0  0
 21 20  3  0  0  0  0
 22 23  1  0  0  0  0
 23 28  1  0  0  0  0
 24 26  1  6  0  0  0
 27 37  1  1  0  0  0
 27 28  1  0  0  0  0
 27 24  1  0  0  0  0
 28 25  1  1  0  0  0
 28 24  1  0  0  0  0
 29 38  2  0  0  0  0
 29 35  1  0  0  0  0
 30 29  1  0  0  0  0
 31 30  2  0  0  0  0
 31 32  1  0  0  0  0
 32 34  2  0  0  0  0
 34 35  1  0  0  0  0
 35 36  2  0  0  0  0
 36 33  1  0  0  0  0
 37 33  2  0  0  0  0
 38 37  1  0  0  0  0
 39 31  1  0  0  0  0
 40 39  2  0  0  0  0
M  END
>  <MODEL>
3

>  <REMARK>
 VINA RESULT:      -8.2      2.330      5.833
  Name = 
  9 active torsions:
  status: ('A' for Active; 'I' for Inactive)
    1  A    between atoms: C_3  and  N_7
    2  A    between atoms: C_3  and  N_8
    3  A    between atoms: C_4  and  C_16
    4  A    between atoms: C_6  and  C_31
    5  A    between atoms: N_8  and  C_18
    6  A    between atoms: C_18  and  C_30
    7  A    between atoms: C_20  and  C_26
    8  A    between atoms: C_23  and  C_38
    9  A    between atoms: C_26  and  C_33
                            x       y       z     vdW  Elec       q    Type
                         _______ _______ _______ _____ _____    ______ ____

>  <TORSDO>
F 9

$$$$
=
 OpenBabel11042419433D

 40 45  0  0  1  0  0  0  0  0999 V2000
  188.7270  176.3300  143.5940 C   0  0  0  0  0  0  0  0  0  0  0  0
  188.6510  175.1160  143.0320 C   0  0  0  0  0  3  0  0  0  0  0  0
  187.5800  177.1880  143.5380 N   0  0  0  0  0  0  0  0  0  0  0  0
  185.5050  176.9940  146.5000 C   0  0  0  0  0  3  0  0  0  0  0  0
  186.6120  177.3170  144.4560 C   0  0  0  0  0  0  0  0  0  0  0  0
  184.4780  177.8730  146.0880 C   0  0  0  0  0  3  0  0  0  0  0  0
  185.6460  178.1750  144.0220 C   0  0  0  0  0  0  0  0  0  0  0  0
  186.5650  176.7280  145.6780 N   0  0  0  0  0  0  0  0  0  0  0  0
  185.9990  178.6120  142.7590 C   0  0  0  0  0  3  0  0  0  0  0  0
  184.5500  178.4790  144.8230 C   0  0  0  0  0  0  0  0  0  0  0  0
  187.2130  177.9640  142.4920 C   0  0  0  0  0  3  0  0  0  0  0  0
  183.5550  179.3480  144.3920 O   0  0  0  0  0  1  0  0  0  0  0  0
  189.7080  174.0900  142.9510 C   0  0  0  0  0  0  0  0  0  0  0  0
  190.7390  171.9910  143.6250 C   0  0  0  0  0  3  0  0  0  0  0  0
  191.8210  173.3920  141.9740 C   0  0  0  0  0  0  0  0  0  0  0  0
  191.8010  172.2270  142.7490 C   0  0  0  0  0  3  0  0  0  0  0  0
  190.7750  174.3150  142.0740 C   0  0  0  0  0  3  0  0  0  0  0  0
  189.6990  172.9190  143.7280 C   0  0  0  0  0  3  0  0  0  0  0  0
  192.9550  173.6500  141.0420 C   0  0  0  0  0  2  0  0  0  0  0  0
  194.9660  174.7350  142.3260 N   0  0  0  0  0  0  0  0  0  0  0  0
  194.0770  174.2580  141.7600 C   0  0  0  0  0  0  0  0  0  0  0  0
  189.9300  176.7720  144.2340 N   0  0  0  0  0  2  0  0  0  0  0  0
  190.3600  176.3170  145.5510 C   0  0  0  0  0  2  0  0  0  0  0  0
  192.5440  176.5050  147.0130 C   0  0  1  0  0  3  0  0  0  0  0  0
  192.7530  176.6300  144.4630 C   0  0  0  0  0  1  0  0  0  0  0  0
  191.5530  176.7880  148.1330 C   0  0  0  0  0  1  0  0  0  0  0  0
  192.3520  175.0670  146.5370 C   0  0  1  0  0  3  0  0  0  0  0  0
  191.8880  176.2360  145.6610 C   0  0  2  0  0  0  0  0  0  0  0  0
  194.8230  172.5140  145.1970 C   0  0  0  0  0  0  0  0  0  0  0  0
  194.8060  171.2250  144.6630 C   0  0  0  0  0  3  0  0  0  0  0  0
  196.0050  170.6010  144.2850 C   0  0  0  0  0  0  0  0  0  0  0  0
  197.2190  171.2770  144.4460 C   0  0  0  0  0  3  0  0  0  0  0  0
  194.8740  175.0940  146.2790 C   0  0  0  0  0  3  0  0  0  0  0  0
  197.2450  172.5680  144.9830 C   0  0  0  0  0  3  0  0  0  0  0  0
  196.0530  173.1910  145.3600 C   0  0  0  0  0  0  0  0  0  0  0  0
  196.0720  174.4770  145.9060 C   0  0  0  0  0  3  0  0  0  0  0  0
  193.6480  174.4360  146.0980 C   0  0  0  0  0  0  0  0  0  0  0  0
  193.6310  173.1390  145.5710 C   0  0  0  0  0  3  0  0  0  0  0  0
  196.0180  169.2480  143.7180 C   0  0  0  0  0  3  0  0  0  0  0  0
  195.0070  168.4540  143.8410 N   0  0  0  0  0  2  0  0  0  0  0  0
  1 22  1  0  0  0  0
  2  1  2  0  0  0  0
  3  1  1  0  0  0  0
  3  5  1  0  0  0  0
  5  8  1  0  0  0  0
  6  4  1  0  0  0  0
  7  5  2  0  0  0  0
  7 10  1  0  0  0  0
  8  4  2  0  0  0  0
  9  7  1  0  0  0  0
 10  6  2  0  0  0  0
 11  9  2  0  0  0  0
 11  3  1  0  0  0  0
 12 10  1  0  0  0  0
 13  2  1  0  0  0  0
 13 18  1  0  0  0  0
 14 18  2  0  0  0  0
 15 17  1  0  0  0  0
 15 16  2  0  0  0  0
 16 14  1  0  0  0  0
 17 13  2  0  0  0  0
 19 21  1  0  0  0  0
 19 15  1  0  0  0  0
 21 20  3  0  0  0  0
 22 23  1  0  0  0  0
 23 28  1  0  0  0  0
 24 26  1  1  0  0  0
 27 37  1  6  0  0  0
 27 24  1  0  0  0  0
 28 25  1  6  0  0  0
 28 27  1  0  0  0  0
 28 24  1  0  0  0  0
 29 35  2  0  0  0  0
 29 38  1  0  0  0  0
 30 29  1  0  0  0  0
 31 32  1  0  0  0  0
 31 30  2  0  0  0  0
 32 34  2  0  0  0  0
 34 35  1  0  0  0  0
 35 36  1  0  0  0  0
 36 33  2  0  0  0  0
 37 33  1  0  0  0  0
 38 37  2  0  0  0  0
 39 40  2  0  0  0  0
 39 31  1  0  0  0  0
M  END
>  <MODEL>
4

>  <REMARK>
 VINA RESULT:      -7.9      2.314      7.664
  Name = 
  9 active torsions:
  status: ('A' for Active; 'I' for Inactive)
    1  A    between atoms: C_3  and  N_7
    2  A    between atoms: C_3  and  N_8
    3  A    between atoms: C_4  and  C_16
    4  A    between atoms: C_6  and  C_31
    5  A    between atoms: N_8  and  C_18
    6  A    between atoms: C_18  and  C_30
    7  A    between atoms: C_20  and  C_26
    8  A    between atoms: C_23  and  C_38
    9  A    between atoms: C_26  and  C_33
                            x       y       z     vdW  Elec       q    Type
                         _______ _______ _______ _____ _____    ______ ____

>  <TORSDO>
F 9

$$$$
=
 OpenBabel11042419433D

 40 45  0  0  1  0  0  0  0  0999 V2000
  189.4260  176.4400  144.5020 C   0  0  0  0  0  0  0  0  0  0  0  0
  188.9090  177.5160  145.1100 C   0  0  0  0  0  3  0  0  0  0  0  0
  190.8070  176.4660  144.1160 N   0  0  0  0  0  0  0  0  0  0  0  0
  193.0750  175.9280  146.8880 C   0  0  0  0  0  3  0  0  0  0  0  0
  191.8790  176.3330  144.9100 C   0  0  0  0  0  0  0  0  0  0  0  0
  194.2940  176.0820  146.1880 C   0  0  0  0  0  3  0  0  0  0  0  0
  193.0300  176.4850  144.1960 C   0  0  0  0  0  0  0  0  0  0  0  0
  191.8790  176.0520  146.2380 N   0  0  0  0  0  0  0  0  0  0  0  0
  192.6870  176.7390  142.8820 C   0  0  0  0  0  3  0  0  0  0  0  0
  194.2720  176.3650  144.8120 C   0  0  0  0  0  0  0  0  0  0  0  0
  191.2860  176.7260  142.8770 C   0  0  0  0  0  3  0  0  0  0  0  0
  195.4540  176.5210  144.0990 O   0  0  0  0  0  1  0  0  0  0  0  0
  187.5190  177.7150  145.5660 C   0  0  0  0  0  0  0  0  0  0  0  0
  185.7420  177.5450  147.2190 C   0  0  0  0  0  3  0  0  0  0  0  0
  185.2680  178.4540  145.0260 C   0  0  0  0  0  0  0  0  0  0  0  0
  184.8370  178.0950  146.3080 C   0  0  0  0  0  3  0  0  0  0  0  0
  186.6060  178.2670  144.6610 C   0  0  0  0  0  3  0  0  0  0  0  0
  187.0760  177.3530  146.8500 C   0  0  0  0  0  3  0  0  0  0  0  0
  184.3050  179.0360  144.0490 C   0  0  0  0  0  2  0  0  0  0  0  0
  184.6070  177.9160  141.6990 N   0  0  0  0  0  0  0  0  0  0  0  0
  184.4720  178.4110  142.7350 C   0  0  0  0  0  0  0  0  0  0  0  0
  188.6220  175.2860  144.2330 N   0  0  0  0  0  2  0  0  0  0  0  0
  188.6200  174.5800  142.9570 C   0  0  0  0  0  2  0  0  0  0  0  0
  189.3170  172.3020  141.8310 C   0  0  1  0  0  3  0  0  0  0  0  0
  189.3170  172.4640  144.3870 C   0  0  0  0  0  1  0  0  0  0  0  0
  188.6430  172.9090  140.6090 C   0  0  0  0  0  1  0  0  0  0  0  0
  190.5590  173.1230  142.1680 C   0  0  1  0  0  3  0  0  0  0  0  0
  189.3120  173.2150  143.0550 C   0  0  2  0  0  0  0  0  0  0  0  0
  193.7210  172.1200  144.0160 C   0  0  0  0  0  0  0  0  0  0  0  0
  194.7060  172.7210  144.8020 C   0  0  0  0  0  3  0  0  0  0  0  0
  195.7700  171.9570  145.3070 C   0  0  0  0  0  0  0  0  0  0  0  0
  195.8380  170.5900  145.0190 C   0  0  0  0  0  3  0  0  0  0  0  0
  191.7600  170.9060  142.4310 C   0  0  0  0  0  3  0  0  0  0  0  0
  194.8570  169.9810  144.2310 C   0  0  0  0  0  3  0  0  0  0  0  0
  193.7980  170.7400  143.7260 C   0  0  0  0  0  0  0  0  0  0  0  0
  192.8180  170.1400  142.9310 C   0  0  0  0  0  3  0  0  0  0  0  0
  191.6660  172.2730  142.7350 C   0  0  0  0  0  0  0  0  0  0  0  0
  192.6590  172.8780  143.5150 C   0  0  0  0  0  3  0  0  0  0  0  0
  196.8170  172.5590  146.1380 C   0  0  0  0  0  3  0  0  0  0  0  0
  197.1760  173.7900  145.9860 N   0  0  0  0  0  2  0  0  0  0  0  0
  1  2  2  0  0  0  0
  2 13  1  0  0  0  0
  3  1  1  0  0  0  0
  3  5  1  0  0  0  0
  5  8  2  0  0  0  0
  6  4  2  0  0  0  0
  7 10  2  0  0  0  0
  7  5  1  0  0  0  0
  8  4  1  0  0  0  0
  9  7  1  0  0  0  0
 10  6  1  0  0  0  0
 11  9  2  0  0  0  0
 11  3  1  0  0  0  0
 12 10  1  0  0  0  0
 13 18  1  0  0  0  0
 15 16  2  0  0  0  0
 16 14  1  0  0  0  0
 17 15  1  0  0  0  0
 17 13  2  0  0  0  0
 18 14  2  0  0  0  0
 19 15  1  0  0  0  0
 20 21  3  0  0  0  0
 21 19  1  0  0  0  0
 22  1  1  0  0  0  0
 23 28  1  0  0  0  0
 23 22  1  0  0  0  0
 24 26  1  6  0  0  0
 24 27  1  0  0  0  0
 24 28  1  0  0  0  0
 27 37  1  1  0  0  0
 27 28  1  0  0  0  0
 28 25  1  1  0  0  0
 29 30  2  0  0  0  0
 30 31  1  0  0  0  0
 31 39  1  0  0  0  0
 32 31  2  0  0  0  0
 33 37  1  0  0  0  0
 33 36  2  0  0  0  0
 34 32  1  0  0  0  0
 35 29  1  0  0  0  0
 35 34  2  0  0  0  0
 36 35  1  0  0  0  0
 37 38  2  0  0  0  0
 38 29  1  0  0  0  0
 40 39  2  0  0  0  0
M  END
>  <MODEL>
5

>  <REMARK>
 VINA RESULT:      -7.9      2.260      9.315
  Name = 
  9 active torsions:
  status: ('A' for Active; 'I' for Inactive)
    1  A    between atoms: C_3  and  N_7
    2  A    between atoms: C_3  and  N_8
    3  A    between atoms: C_4  and  C_16
    4  A    between atoms: C_6  and  C_31
    5  A    between atoms: N_8  and  C_18
    6  A    between atoms: C_18  and  C_30
    7  A    between atoms: C_20  and  C_26
    8  A    between atoms: C_23  and  C_38
    9  A    between atoms: C_26  and  C_33
                            x       y       z     vdW  Elec       q    Type
                         _______ _______ _______ _____ _____    ______ ____

>  <TORSDO>
F 9

$$$$
=
 OpenBabel11042419433D

 40 45  0  0  1  0  0  0  0  0999 V2000
  191.2910  172.6630  144.2780 C   0  0  0  0  0  0  0  0  0  0  0  0
  191.4400  173.5840  145.2380 C   0  0  0  0  0  3  0  0  0  0  0  0
  192.4240  171.8660  143.9060 N   0  0  0  0  0  0  0  0  0  0  0  0
  194.8070  173.6490  141.8410 C   0  0  0  0  0  3  0  0  0  0  0  0
  193.4530  172.2250  143.1260 C   0  0  0  0  0  0  0  0  0  0  0  0
  195.7140  172.5890  141.6150 C   0  0  0  0  0  3  0  0  0  0  0  0
  194.3050  171.1780  142.9370 C   0  0  0  0  0  0  0  0  0  0  0  0
  193.6850  173.4540  142.5990 N   0  0  0  0  0  0  0  0  0  0  0  0
  193.7960  170.0870  143.6170 C   0  0  0  0  0  3  0  0  0  0  0  0
  195.4590  171.3260  142.1760 C   0  0  0  0  0  0  0  0  0  0  0  0
  192.6140  170.5600  144.2030 C   0  0  0  0  0  3  0  0  0  0  0  0
  196.3350  170.2670  141.9710 O   0  0  0  0  0  1  0  0  0  0  0  0
  190.4260  174.5230  145.7560 C   0  0  0  0  0  0  0  0  0  0  0  0
  188.5690  175.1090  147.2160 C   0  0  0  0  0  3  0  0  0  0  0  0
  189.3920  176.7170  145.6050 C   0  0  0  0  0  0  0  0  0  0  0  0
  188.5010  176.3740  146.6280 C   0  0  0  0  0  3  0  0  0  0  0  0
  190.3520  175.7940  145.1760 C   0  0  0  0  0  3  0  0  0  0  0  0
  189.5240  174.1860  146.7810 C   0  0  0  0  0  3  0  0  0  0  0  0
  189.3200  178.0640  144.9710 C   0  0  0  0  0  2  0  0  0  0  0  0
  191.2900  178.3810  143.2710 N   0  0  0  0  0  0  0  0  0  0  0  0
  190.4200  178.2390  144.0200 C   0  0  0  0  0  0  0  0  0  0  0  0
  190.0300  172.4750  143.6250 N   0  0  0  0  0  2  0  0  0  0  0  0
  189.8500  172.5340  142.1800 C   0  0  0  0  0  2  0  0  0  0  0  0
  188.5880  174.0370  140.4210 C   0  0  1  0  0  3  0  0  0  0  0  0
  190.2570  175.1450  142.0170 C   0  0  0  0  0  1  0  0  0  0  0  0
  188.3000  172.6990  139.7550 C   0  0  0  0  0  1  0  0  0  0  0  0
  187.8670  174.0840  141.7650 C   0  0  1  0  0  3  0  0  0  0  0  0
  189.3900  173.9220  141.7150 C   0  0  2  0  0  0  0  0  0  0  0  0
  186.2560  176.9570  143.6530 C   0  0  0  0  0  0  0  0  0  0  0  0
  185.6060  177.1740  144.8700 C   0  0  0  0  0  3  0  0  0  0  0  0
  185.1250  178.4520  145.1960 C   0  0  0  0  0  0  0  0  0  0  0  0
  185.3000  179.5080  144.2960 C   0  0  0  0  0  3  0  0  0  0  0  0
  187.5440  176.5350  141.2050 C   0  0  0  0  0  3  0  0  0  0  0  0
  185.9470  179.2990  143.0740 C   0  0  0  0  0  3  0  0  0  0  0  0
  186.4260  178.0280  142.7470 C   0  0  0  0  0  0  0  0  0  0  0  0
  187.0660  177.8100  141.5240 C   0  0  0  0  0  3  0  0  0  0  0  0
  187.3990  175.4730  142.1120 C   0  0  0  0  0  0  0  0  0  0  0  0
  186.7380  175.6870  143.3270 C   0  0  0  0  0  3  0  0  0  0  0  0
  184.4420  178.7100  146.4670 C   0  0  0  0  0  3  0  0  0  0  0  0
  184.9130  178.2750  147.5880 N   0  0  0  0  0  2  0  0  0  0  0  0
  1  2  2  0  0  0  0
  2 13  1  0  0  0  0
  3 11  1  0  0  0  0
  3  1  1  0  0  0  0
  4  8  1  0  0  0  0
  5  3  1  0  0  0  0
  6  4  2  0  0  0  0
  6 10  1  0  0  0  0
  7  5  1  0  0  0  0
  7  9  1  0  0  0  0
  8  5  2  0  0  0  0
  9 11  2  0  0  0  0
 10  7  2  0  0  0  0
 12 10  1  0  0  0  0
 13 18  1  0  0  0  0
 15 16  2  0  0  0  0
 16 14  1  0  0  0  0
 17 15  1  0  0  0  0
 17 13  2  0  0  0  0
 18 14  2  0  0  0  0
 19 15  1  0  0  0  0
 20 21  3  0  0  0  0
 21 19  1  0  0  0  0
 22  1  1  0  0  0  0
 23 22  1  0  0  0  0
 24 26  1  6  0  0  0
 24 28  1  0  0  0  0
 24 27  1  0  0  0  0
 27 37  1  1  0  0  0
 28 27  1  0  0  0  0
 28 25  1  1  0  0  0
 28 23  1  0  0  0  0
 29 30  2  0  0  0  0
 30 31  1  0  0  0  0
 31 39  1  0  0  0  0
 32 31  2  0  0  0  0
 33 36  2  0  0  0  0
 33 37  1  0  0  0  0
 34 32  1  0  0  0  0
 35 34  2  0  0  0  0
 35 29  1  0  0  0  0
 36 35  1  0  0  0  0
 37 38  2  0  0  0  0
 38 29  1  0  0  0  0
 39 40  2  0  0  0  0
M  END
>  <MODEL>
6

>  <REMARK>
 VINA RESULT:      -7.8      2.954      6.394
  Name = 
  9 active torsions:
  status: ('A' for Active; 'I' for Inactive)
    1  A    between atoms: C_3  and  N_7
    2  A    between atoms: C_3  and  N_8
    3  A    between atoms: C_4  and  C_16
    4  A    between atoms: C_6  and  C_31
    5  A    between atoms: N_8  and  C_18
    6  A    between atoms: C_18  and  C_30
    7  A    between atoms: C_20  and  C_26
    8  A    between atoms: C_23  and  C_38
    9  A    between atoms: C_26  and  C_33
                            x       y       z     vdW  Elec       q    Type
                         _______ _______ _______ _____ _____    ______ ____

>  <TORSDO>
F 9

$$$$
=
 OpenBabel11042419433D

 40 45  0  0  1  0  0  0  0  0999 V2000
  192.0590  173.8940  144.1360 C   0  0  0  0  0  0  0  0  0  0  0  0
  191.5370  173.9800  142.9060 C   0  0  0  0  0  3  0  0  0  0  0  0
  193.4450  173.5500  144.2730 N   0  0  0  0  0  0  0  0  0  0  0  0
  193.9900  170.0170  144.8490 C   0  0  0  0  0  3  0  0  0  0  0  0
  193.9650  172.3410  144.5240 C   0  0  0  0  0  0  0  0  0  0  0  0
  195.3950  170.0480  145.0000 C   0  0  0  0  0  3  0  0  0  0  0  0
  195.3190  172.4150  144.6580 C   0  0  0  0  0  0  0  0  0  0  0  0
  193.2900  171.1660  144.6090 N   0  0  0  0  0  0  0  0  0  0  0  0
  195.6920  173.7370  144.4980 C   0  0  0  0  0  3  0  0  0  0  0  0
  196.0750  171.2730  144.9010 C   0  0  0  0  0  0  0  0  0  0  0  0
  194.4870  174.4140  144.2670 C   0  0  0  0  0  3  0  0  0  0  0  0
  197.4560  171.3340  145.0440 O   0  0  0  0  0  1  0  0  0  0  0  0
  190.1420  174.2910  142.5360 C   0  0  0  0  0  0  0  0  0  0  0  0
  187.8450  173.6600  142.0430 C   0  0  0  0  0  3  0  0  0  0  0  0
  188.5190  175.9790  141.8850 C   0  0  0  0  0  0  0  0  0  0  0  0
  187.5320  174.9950  141.7750 C   0  0  0  0  0  3  0  0  0  0  0  0
  189.8180  175.6260  142.2680 C   0  0  0  0  0  3  0  0  0  0  0  0
  189.1440  173.3080  142.4180 C   0  0  0  0  0  3  0  0  0  0  0  0
  188.1910  177.4030  141.5950 C   0  0  0  0  0  2  0  0  0  0  0  0
  186.3300  177.5510  139.7560 N   0  0  0  0  0  0  0  0  0  0  0  0
  187.1510  177.4880  140.5670 C   0  0  0  0  0  0  0  0  0  0  0  0
  191.2560  174.1330  145.2970 N   0  0  0  0  0  2  0  0  0  0  0  0
  191.5690  175.1390  146.3050 C   0  0  0  0  0  2  0  0  0  0  0  0
  190.4530  176.7720  148.0460 C   0  0  1  0  0  3  0  0  0  0  0  0
  189.1010  174.7740  147.1890 C   0  0  0  0  0  1  0  0  0  0  0  0
  191.8910  177.2130  148.2810 C   0  0  0  0  0  1  0  0  0  0  0  0
  190.0460  177.1590  146.6260 C   0  0  1  0  0  3  0  0  0  0  0  0
  190.3060  175.6900  146.9790 C   0  0  2  0  0  0  0  0  0  0  0  0
  186.6240  177.9070  145.1610 C   0  0  0  0  0  0  0  0  0  0  0  0
  185.9960  177.8930  143.9150 C   0  0  0  0  0  3  0  0  0  0  0  0
  184.6500  178.2730  143.7980 C   0  0  0  0  0  0  0  0  0  0  0  0
  183.9390  178.6660  144.9370 C   0  0  0  0  0  3  0  0  0  0  0  0
  187.8730  177.9510  147.6650 C   0  0  0  0  0  3  0  0  0  0  0  0
  184.5620  178.6840  146.1890 C   0  0  0  0  0  3  0  0  0  0  0  0
  185.9020  178.3070  146.3080 C   0  0  0  0  0  0  0  0  0  0  0  0
  186.5330  178.3320  147.5540 C   0  0  0  0  0  3  0  0  0  0  0  0
  188.5890  177.5290  146.5330 C   0  0  0  0  0  0  0  0  0  0  0  0
  187.9630  177.5250  145.2810 C   0  0  0  0  0  3  0  0  0  0  0  0
  183.9630  178.2660  142.5020 C   0  0  0  0  0  3  0  0  0  0  0  0
  182.7430  178.6710  142.3820 N   0  0  0  0  0  2  0  0  0  0  0  0
  1  3  1  0  0  0  0
  1 22  1  0  0  0  0
  2  1  2  0  0  0  0
  3  5  1  0  0  0  0
  4  6  1  0  0  0  0
  5  8  1  0  0  0  0
  5  7  2  0  0  0  0
  7 10  1  0  0  0  0
  8  4  2  0  0  0  0
  9  7  1  0  0  0  0
 10  6  2  0  0  0  0
 10 12  1  0  0  0  0
 11  3  1  0  0  0  0
 11  9  2  0  0  0  0
 13  2  1  0  0  0  0
 14 18  2  0  0  0  0
 15 17  1  0  0  0  0
 16 15  2  0  0  0  0
 16 14  1  0  0  0  0
 17 13  2  0  0  0  0
 18 13  1  0  0  0  0
 19 15  1  0  0  0  0
 20 21  3  0  0  0  0
 21 19  1  0  0  0  0
 22 23  1  0  0  0  0
 23 28  1  0  0  0  0
 24 26  1  6  0  0  0
 27 37  1  1  0  0  0
 27 28  1  0  0  0  0
 27 24  1  0  0  0  0
 28 25  1  1  0  0  0
 28 24  1  0  0  0  0
 29 38  2  0  0  0  0
 29 35  1  0  0  0  0
 30 29  1  0  0  0  0
 31 30  2  0  0  0  0
 31 32  1  0  0  0  0
 32 34  2  0  0  0  0
 34 35  1  0  0  0  0
 35 36  2  0  0  0  0
 36 33  1  0  0  0  0
 37 33  2  0  0  0  0
 38 37  1  0  0  0  0
 39 31  1  0  0  0  0
 40 39  2  0  0  0  0
M  END
>  <MODEL>
7

>  <REMARK>
 VINA RESULT:      -7.8      2.225      5.990
  Name = 
  9 active torsions:
  status: ('A' for Active; 'I' for Inactive)
    1  A    between atoms: C_3  and  N_7
    2  A    between atoms: C_3  and  N_8
    3  A    between atoms: C_4  and  C_16
    4  A    between atoms: C_6  and  C_31
    5  A    between atoms: N_8  and  C_18
    6  A    between atoms: C_18  and  C_30
    7  A    between atoms: C_20  and  C_26
    8  A    between atoms: C_23  and  C_38
    9  A    between atoms: C_26  and  C_33
                            x       y       z     vdW  Elec       q    Type
                         _______ _______ _______ _____ _____    ______ ____

>  <TORSDO>
F 9

$$$$
=
 OpenBabel11042419433D

 40 45  0  0  1  0  0  0  0  0999 V2000
  191.8820  172.1330  143.9990 C   0  0  0  0  0  0  0  0  0  0  0  0
  192.7770  171.1470  143.8560 C   0  0  0  0  0  3  0  0  0  0  0  0
  190.8010  172.2230  143.0600 N   0  0  0  0  0  0  0  0  0  0  0  0
  191.8350  173.4200  139.8020 C   0  0  0  0  0  3  0  0  0  0  0  0
  190.8540  172.6590  141.7940 C   0  0  0  0  0  0  0  0  0  0  0  0
  190.5640  173.4510  139.1830 C   0  0  0  0  0  3  0  0  0  0  0  0
  189.6120  172.6690  141.2340 C   0  0  0  0  0  0  0  0  0  0  0  0
  191.9650  173.0210  141.1030 N   0  0  0  0  0  0  0  0  0  0  0  0
  188.7110  172.2300  142.1860 C   0  0  0  0  0  3  0  0  0  0  0  0
  189.4280  173.0650  139.9130 C   0  0  0  0  0  0  0  0  0  0  0  0
  189.4970  171.9690  143.3170 C   0  0  0  0  0  3  0  0  0  0  0  0
  188.1670  173.0850  139.3300 O   0  0  0  0  0  1  0  0  0  0  0  0
  193.9700  170.8820  144.6830 C   0  0  0  0  0  0  0  0  0  0  0  0
  195.3470  169.4610  146.0990 C   0  0  0  0  0  3  0  0  0  0  0  0
  196.0220  171.7440  145.6600 C   0  0  0  0  0  0  0  0  0  0  0  0
  196.2530  170.5090  146.2760 C   0  0  0  0  0  3  0  0  0  0  0  0
  194.8860  171.9250  144.8640 C   0  0  0  0  0  3  0  0  0  0  0  0
  194.2090  169.6470  145.3090 C   0  0  0  0  0  3  0  0  0  0  0  0
  196.9840  172.8660  145.8500 C   0  0  0  0  0  2  0  0  0  0  0  0
  195.7480  175.1710  145.6770 N   0  0  0  0  0  0  0  0  0  0  0  0
  196.2910  174.1530  145.7520 C   0  0  0  0  0  0  0  0  0  0  0  0
  191.9980  173.0870  145.0610 N   0  0  0  0  0  2  0  0  0  0  0  0
  191.8350  174.5240  144.8790 C   0  0  0  0  0  2  0  0  0  0  0  0
  191.1380  176.1020  146.8710 C   0  0  1  0  0  3  0  0  0  0  0  0
  189.5360  174.2350  146.1590 C   0  0  0  0  0  1  0  0  0  0  0  0
  192.6200  176.4500  146.8750 C   0  0  0  0  0  1  0  0  0  0  0  0
  190.5190  176.5980  145.5660 C   0  0  1  0  0  3  0  0  0  0  0  0
  190.7430  175.0980  145.7910 C   0  0  2  0  0  0  0  0  0  0  0  0
  186.9480  177.6080  144.7630 C   0  0  0  0  0  0  0  0  0  0  0  0
  186.1150  177.7000  143.6460 C   0  0  0  0  0  3  0  0  0  0  0  0
  184.7950  178.1570  143.7860 C   0  0  0  0  0  0  0  0  0  0  0  0
  184.3180  178.5200  145.0490 C   0  0  0  0  0  3  0  0  0  0  0  0
  188.6110  177.4420  147.0070 C   0  0  0  0  0  3  0  0  0  0  0  0
  185.1470  178.4340  146.1720 C   0  0  0  0  0  3  0  0  0  0  0  0
  186.4610  177.9800  146.0350 C   0  0  0  0  0  0  0  0  0  0  0  0
  187.2980  177.9000  147.1510 C   0  0  0  0  0  3  0  0  0  0  0  0
  189.0930  177.0490  145.7490 C   0  0  0  0  0  0  0  0  0  0  0  0
  188.2610  177.1500  144.6270 C   0  0  0  0  0  3  0  0  0  0  0  0
  183.8960  178.2600  142.6320 C   0  0  0  0  0  3  0  0  0  0  0  0
  184.3440  178.2360  141.4210 N   0  0  0  0  0  2  0  0  0  0  0  0
  1 22  1  0  0  0  0
  2  1  2  0  0  0  0
  2 13  1  0  0  0  0
  3 11  1  0  0  0  0
  3  1  1  0  0  0  0
  4  8  1  0  0  0  0
  5  3  1  0  0  0  0
  6  4  2  0  0  0  0
  6 10  1  0  0  0  0
  7  5  1  0  0  0  0
  7  9  1  0  0  0  0
  8  5  2  0  0  0  0
  9 11  2  0  0  0  0
 10  7  2  0  0  0  0
 12 10  1  0  0  0  0
 13 17  2  0  0  0  0
 13 18  1  0  0  0  0
 14 16  1  0  0  0  0
 15 19  1  0  0  0  0
 15 16  2  0  0  0  0
 17 15  1  0  0  0  0
 18 14  2  0  0  0  0
 20 21  3  0  0  0  0
 21 19  1  0  0  0  0
 23 22  1  0  0  0  0
 23 28  1  0  0  0  0
 24 26  1  6  0  0  0
 27 37  1  1  0  0  0
 27 28  1  0  0  0  0
 27 24  1  0  0  0  0
 28 25  1  1  0  0  0
 28 24  1  0  0  0  0
 29 35  1  0  0  0  0
 30 31  2  0  0  0  0
 30 29  1  0  0  0  0
 31 32  1  0  0  0  0
 32 34  2  0  0  0  0
 33 36  1  0  0  0  0
 35 34  1  0  0  0  0
 35 36  2  0  0  0  0
 37 33  2  0  0  0  0
 38 29  2  0  0  0  0
 38 37  1  0  0  0  0
 39 31  1  0  0  0  0
 40 39  2  0  0  0  0
M  END
>  <MODEL>
8

>  <REMARK>
 VINA RESULT:      -7.7      1.705      2.709
  Name = 
  9 active torsions:
  status: ('A' for Active; 'I' for Inactive)
    1  A    between atoms: C_3  and  N_7
    2  A    between atoms: C_3  and  N_8
    3  A    between atoms: C_4  and  C_16
    4  A    between atoms: C_6  and  C_31
    5  A    between atoms: N_8  and  C_18
    6  A    between atoms: C_18  and  C_30
    7  A    between atoms: C_20  and  C_26
    8  A    between atoms: C_23  and  C_38
    9  A    between atoms: C_26  and  C_33
                            x       y       z     vdW  Elec       q    Type
                         _______ _______ _______ _____ _____    ______ ____

>  <TORSDO>
F 9

$$$$
=
 OpenBabel11042419433D

 40 45  0  0  1  0  0  0  0  0999 V2000
  188.4130  175.4280  142.0470 C   0  0  0  0  0  0  0  0  0  0  0  0
  187.1250  175.7940  142.0910 C   0  0  0  0  0  3  0  0  0  0  0  0
  188.7780  174.2900  141.2530 N   0  0  0  0  0  0  0  0  0  0  0  0
  190.4910  171.7200  143.1450 C   0  0  0  0  0  3  0  0  0  0  0  0
  189.4460  173.1980  141.6510 C   0  0  0  0  0  0  0  0  0  0  0  0
  190.7530  170.8240  142.0830 C   0  0  0  0  0  3  0  0  0  0  0  0
  189.6730  172.3610  140.6000 C   0  0  0  0  0  0  0  0  0  0  0  0
  189.8360  172.8980  142.9160 N   0  0  0  0  0  0  0  0  0  0  0  0
  189.1370  172.9440  139.4670 C   0  0  0  0  0  3  0  0  0  0  0  0
  190.3330  171.1500  140.7820 C   0  0  0  0  0  0  0  0  0  0  0  0
  188.5940  174.1540  139.9190 C   0  0  0  0  0  3  0  0  0  0  0  0
  190.5760  170.2880  139.7200 O   0  0  0  0  0  1  0  0  0  0  0  0
  186.5280  176.9060  142.8550 C   0  0  0  0  0  0  0  0  0  0  0  0
  185.8610  179.2300  143.1240 C   0  0  0  0  0  3  0  0  0  0  0  0
  185.5290  177.6620  144.9380 C   0  0  0  0  0  0  0  0  0  0  0  0
  185.4180  178.9580  144.4200 C   0  0  0  0  0  3  0  0  0  0  0  0
  186.0790  176.6420  144.1540 C   0  0  0  0  0  3  0  0  0  0  0  0
  186.4160  178.2110  142.3460 C   0  0  0  0  0  3  0  0  0  0  0  0
  185.0630  177.3680  146.3220 C   0  0  0  0  0  2  0  0  0  0  0  0
  186.5490  178.6330  148.0720 N   0  0  0  0  0  0  0  0  0  0  0  0
  185.8940  178.0730  147.3010 C   0  0  0  0  0  0  0  0  0  0  0  0
  189.4110  176.1480  142.7790 N   0  0  0  0  0  2  0  0  0  0  0  0
  189.5540  176.0850  144.2290 C   0  0  0  0  0  2  0  0  0  0  0  0
  191.2820  176.8350  146.0700 C   0  0  1  0  0  3  0  0  0  0  0  0
  192.0670  176.6700  143.6380 C   0  0  0  0  0  1  0  0  0  0  0  0
  190.0250  177.0810  146.8920 C   0  0  0  0  0  1  0  0  0  0  0  0
  191.4130  175.3370  145.8060 C   0  0  1  0  0  3  0  0  0  0  0  0
  191.0080  176.2870  144.6720 C   0  0  2  0  0  0  0  0  0  0  0  0
  194.4670  173.1190  145.3930 C   0  0  0  0  0  0  0  0  0  0  0  0
  194.7610  171.8050  145.0230 C   0  0  0  0  0  3  0  0  0  0  0  0
  196.0910  171.3550  145.0140 C   0  0  0  0  0  0  0  0  0  0  0  0
  197.1210  172.2300  145.3760 C   0  0  0  0  0  3  0  0  0  0  0  0
  193.8910  175.7510  146.1470 C   0  0  0  0  0  3  0  0  0  0  0  0
  196.8340  173.5460  145.7490 C   0  0  0  0  0  3  0  0  0  0  0  0
  195.5120  173.9960  145.7600 C   0  0  0  0  0  0  0  0  0  0  0  0
  195.2170  175.3080  146.1410 C   0  0  0  0  0  3  0  0  0  0  0  0
  192.8510  174.8910  145.7600 C   0  0  0  0  0  0  0  0  0  0  0  0
  193.1450  173.5700  145.4000 C   0  0  0  0  0  3  0  0  0  0  0  0
  196.4310  169.9820  144.6270 C   0  0  0  0  0  3  0  0  0  0  0  0
  196.4020  169.0130  145.4800 N   0  0  0  0  0  2  0  0  0  0  0  0
  1  2  2  0  0  0  0
  1 22  1  0  0  0  0
  2 13  1  0  0  0  0
  3  5  1  0  0  0  0
  3  1  1  0  0  0  0
  5  8  2  0  0  0  0
  6  4  2  0  0  0  0
  7 10  2  0  0  0  0
  7  5  1  0  0  0  0
  8  4  1  0  0  0  0
  9 11  2  0  0  0  0
  9  7  1  0  0  0  0
 10  6  1  0  0  0  0
 11  3  1  0  0  0  0
 12 10  1  0  0  0  0
 13 17  1  0  0  0  0
 14 16  2  0  0  0  0
 15 19  1  0  0  0  0
 16 15  1  0  0  0  0
 17 15  2  0  0  0  0
 18 13  2  0  0  0  0
 18 14  1  0  0  0  0
 19 21  1  0  0  0  0
 21 20  3  0  0  0  0
 22 23  1  0  0  0  0
 23 28  1  0  0  0  0
 24 26  1  1  0  0  0
 27 37  1  6  0  0  0
 27 24  1  0  0  0  0
 28 25  1  6  0  0  0
 28 27  1  0  0  0  0
 28 24  1  0  0  0  0
 29 38  2  0  0  0  0
 29 35  1  0  0  0  0
 30 29  1  0  0  0  0
 31 30  2  0  0  0  0
 31 32  1  0  0  0  0
 32 34  2  0  0  0  0
 34 35  1  0  0  0  0
 35 36  2  0  0  0  0
 36 33  1  0  0  0  0
 37 33  2  0  0  0  0
 38 37  1  0  0  0  0
 39 31  1  0  0  0  0
 39 40  2  0  0  0  0
M  END
>  <MODEL>
9

>  <REMARK>
 VINA RESULT:      -7.6      2.168      8.679
  Name = 
  9 active torsions:
  status: ('A' for Active; 'I' for Inactive)
    1  A    between atoms: C_3  and  N_7
    2  A    between atoms: C_3  and  N_8
    3  A    between atoms: C_4  and  C_16
    4  A    between atoms: C_6  and  C_31
    5  A    between atoms: N_8  and  C_18
    6  A    between atoms: C_18  and  C_30
    7  A    between atoms: C_20  and  C_26
    8  A    between atoms: C_23  and  C_38
    9  A    between atoms: C_26  and  C_33
                            x       y       z     vdW  Elec       q    Type
                         _______ _______ _______ _____ _____    ______ ____

>  <TORSDO>
F 9

$$$$
