=
 OpenBabel11042414033D

 31 34  0  0  1  0  0  0  0  0999 V2000
  184.7550  178.2720  147.7050 N   0  0  0  0  0  0  0  0  0  0  0  0
  186.8090  176.8790  145.8560 C   0  0  0  0  0  0  0  0  0  0  0  0
  187.4390  176.0980  144.8840 C   0  0  0  0  0  3  0  0  0  0  0  0
  189.6130  176.5710  145.8340 C   0  0  0  0  0  0  0  0  0  0  0  0
  184.5650  177.2060  146.9960 C   0  0  0  0  0  3  0  0  0  0  0  0
  188.9940  177.4050  146.7750 C   0  0  0  0  0  3  0  0  0  0  0  0
  187.6150  177.6160  146.7690 C   0  0  0  0  0  0  0  0  0  0  0  0
  185.8230  179.2270  147.4720 C   0  0  0  0  0  2  0  0  0  0  0  0
  188.8330  175.9570  144.8320 C   0  0  0  0  0  0  0  0  0  0  0  0
  185.4800  176.7130  145.9490 C   0  0  0  0  0  2  0  0  0  0  0  0
  187.1750  178.5990  147.5580 C   0  0  0  0  0  2  0  0  0  0  0  0
  191.0250  176.3380  145.8990 N   0  0  0  0  0  0  0  0  0  0  0  0
  191.5340  175.5040  146.7150 N   0  0  0  0  0  0  0  0  0  0  0  0
  193.3690  174.3920  145.6010 C   0  0  0  0  0  3  0  0  0  0  0  0
  194.8000  176.1200  144.6680 C   0  0  0  0  0  0  0  0  0  0  0  0
  193.6960  176.6170  146.7740 C   0  0  0  0  0  3  0  0  0  0  0  0
  192.9710  175.2890  146.7510 C   0  0  1  0  0  3  0  0  0  0  0  0
  195.5610  176.4980  143.7390 O   0  0  0  0  0  0  0  0  0  0  0  0
  194.2010  174.7820  144.6330 C   0  0  0  0  0  3  0  0  0  0  0  0
  194.5300  177.0040  145.8050 C   0  0  0  0  0  3  0  0  0  0  0  0
  189.4250  175.1410  143.7990 N   0  0  0  0  0  0  0  0  0  0  0  0
  189.8780  173.7870  144.0770 C   0  0  0  0  0  1  0  0  0  0  0  0
  189.8050  175.7160  142.5170 C   0  0  0  0  0  2  0  0  0  0  0  0
  188.6240  175.6890  141.5630 C   0  0  0  0  0  2  0  0  0  0  0  0
  188.0020  177.0370  141.4930 C   0  0  0  0  0  0  0  0  0  0  0  0
  188.7110  178.0580  141.6920 O   0  0  0  0  0  0  0  0  0  0  0  0
  186.6460  177.1530  141.1810 O   0  0  0  0  0  0  0  0  0  0  0  0
  185.6370  177.2450  142.1770 C   0  0  0  0  0  2  0  0  0  0  0  0
  185.7010  179.3550  143.4510 C   0  0  0  0  0  2  0  0  0  0  0  0
  185.0980  178.6620  142.2470 C   0  0  0  0  0  3  0  0  0  0  0  0
  184.2890  178.8190  143.5180 C   0  0  0  0  0  2  0  0  0  0  0  0
  2 10  1  0  0  0  0
  2  7  1  0  0  0  0
  3  2  2  0  0  0  0
  4 12  1  0  0  0  0
  4  6  1  0  0  0  0
  5  1  2  0  0  0  0
  7  6  2  0  0  0  0
  7 11  1  0  0  0  0
  8 11  1  0  0  0  0
  8  1  1  0  0  0  0
  9  3  1  0  0  0  0
  9  4  2  0  0  0  0
 10  5  1  0  0  0  0
 12 13  2  0  0  0  0
 14 17  1  0  0  0  0
 15 20  1  0  0  0  0
 17 13  1  6  0  0  0
 17 16  1  0  0  0  0
 18 15  2  0  0  0  0
 19 15  1  0  0  0  0
 19 14  2  0  0  0  0
 20 16  2  0  0  0  0
 21 22  1  0  0  0  0
 21  9  1  0  0  0  0
 23 21  1  0  0  0  0
 24 23  1  0  0  0  0
 25 24  1  0  0  0  0
 25 26  2  0  0  0  0
 27 25  1  0  0  0  0
 27 28  1  0  0  0  0
 28 30  1  0  0  0  0
 29 31  1  0  0  0  0
 30 29  1  0  0  0  0
 30 31  1  0  0  0  0
M  END
>  <MODEL>
1

>  <REMARK>
 VINA RESULT:      -7.0      0.000      0.000
  Name = 
  9 active torsions:
  status: ('A' for Active; 'I' for Inactive)
    1  A    between atoms: C_1  and  C_7
    2  A    between atoms: C_1  and  N_9
    3  A    between atoms: C_7  and  C_11
    4  A    between atoms: N_8  and  C_12
    5  A    between atoms: N_9  and  C_23
    6  A    between atoms: C_11  and  O_30
    7  A    between atoms: C_15  and  N_17
    8  A    between atoms: C_16  and  C_24
    9  A    between atoms: C_24  and  O_30
                            x       y       z     vdW  Elec       q    Type
                         _______ _______ _______ _____ _____    ______ ____

>  <TORSDO>
F 9

$$$$
=
 OpenBabel11042414033D

 31 34  0  0  1  0  0  0  0  0999 V2000
  184.0630  178.9230  145.6060 N   0  0  0  0  0  0  0  0  0  0  0  0
  186.5140  177.0960  146.0800 C   0  0  0  0  0  0  0  0  0  0  0  0
  187.4230  176.1540  146.5710 C   0  0  0  0  0  3  0  0  0  0  0  0
  189.1650  176.9940  145.1180 C   0  0  0  0  0  0  0  0  0  0  0  0
  184.3620  178.2910  146.6950 C   0  0  0  0  0  3  0  0  0  0  0  0
  188.2430  177.9000  144.5770 C   0  0  0  0  0  3  0  0  0  0  0  0
  186.9140  177.9290  144.9980 C   0  0  0  0  0  0  0  0  0  0  0  0
  184.5960  178.5910  144.2970 C   0  0  0  0  0  2  0  0  0  0  0  0
  188.7340  176.0610  146.0840 C   0  0  0  0  0  0  0  0  0  0  0  0
  185.3970  177.2460  146.8080 C   0  0  0  0  0  2  0  0  0  0  0  0
  186.0860  178.6690  144.2550 C   0  0  0  0  0  2  0  0  0  0  0  0
  190.5330  177.0230  144.6970 N   0  0  0  0  0  0  0  0  0  0  0  0
  190.8900  176.6460  143.5350 N   0  0  0  0  0  0  0  0  0  0  0  0
  193.1560  176.7210  144.3770 C   0  0  0  0  0  3  0  0  0  0  0  0
  194.2290  174.6340  143.7460 C   0  0  0  0  0  0  0  0  0  0  0  0
  192.6000  175.5540  142.1950 C   0  0  0  0  0  3  0  0  0  0  0  0
  192.2880  176.6940  143.1390 C   0  0  1  0  0  3  0  0  0  0  0  0
  195.0410  173.7150  144.0310 O   0  0  0  0  0  0  0  0  0  0  0  0
  194.0400  175.7630  144.6630 C   0  0  0  0  0  3  0  0  0  0  0  0
  193.4870  174.5970  142.4820 C   0  0  0  0  0  3  0  0  0  0  0  0
  189.6230  175.0630  146.6290 N   0  0  0  0  0  0  0  0  0  0  0  0
  190.6600  175.4190  147.5850 C   0  0  0  0  0  1  0  0  0  0  0  0
  189.6700  173.7190  146.0700 C   0  0  0  0  0  2  0  0  0  0  0  0
  190.8830  173.5720  145.1680 C   0  0  0  0  0  2  0  0  0  0  0  0
  190.6280  172.5200  144.1490 C   0  0  0  0  0  0  0  0  0  0  0  0
  191.5890  171.8330  143.7140 O   0  0  0  0  0  0  0  0  0  0  0  0
  189.3230  172.2900  143.7100 O   0  0  0  0  0  0  0  0  0  0  0  0
  188.8960  172.5940  142.3890 C   0  0  0  0  0  2  0  0  0  0  0  0
  187.9350  174.8630  142.2910 C   0  0  0  0  0  2  0  0  0  0  0  0
  189.1910  174.0480  142.0650 C   0  0  0  0  0  3  0  0  0  0  0  0
  188.3380  174.4720  140.8880 C   0  0  0  0  0  2  0  0  0  0  0  0
  1  5  2  0  0  0  0
  2  3  1  0  0  0  0
  2 10  1  0  0  0  0
  4  9  1  0  0  0  0
  5 10  1  0  0  0  0
  6  7  1  0  0  0  0
  6  4  2  0  0  0  0
  7  2  2  0  0  0  0
  8  1  1  0  0  0  0
  9  3  2  0  0  0  0
  9 21  1  0  0  0  0
 11  8  1  0  0  0  0
 11  7  1  0  0  0  0
 12  4  1  0  0  0  0
 13 12  2  0  0  0  0
 14 19  2  0  0  0  0
 15 18  2  0  0  0  0
 15 19  1  0  0  0  0
 16 20  2  0  0  0  0
 16 17  1  0  0  0  0
 17 13  1  1  0  0  0
 17 14  1  0  0  0  0
 20 15  1  0  0  0  0
 21 22  1  0  0  0  0
 23 21  1  0  0  0  0
 24 23  1  0  0  0  0
 25 24  1  0  0  0  0
 26 25  2  0  0  0  0
 27 25  1  0  0  0  0
 28 27  1  0  0  0  0
 30 29  1  0  0  0  0
 30 28  1  0  0  0  0
 31 30  1  0  0  0  0
 31 29  1  0  0  0  0
M  END
>  <MODEL>
2

>  <REMARK>
 VINA RESULT:      -6.9      2.297      3.858
  Name = 
  9 active torsions:
  status: ('A' for Active; 'I' for Inactive)
    1  A    between atoms: C_1  and  C_7
    2  A    between atoms: C_1  and  N_9
    3  A    between atoms: C_7  and  C_11
    4  A    between atoms: N_8  and  C_12
    5  A    between atoms: N_9  and  C_23
    6  A    between atoms: C_11  and  O_30
    7  A    between atoms: C_15  and  N_17
    8  A    between atoms: C_16  and  C_24
    9  A    between atoms: C_24  and  O_30
                            x       y       z     vdW  Elec       q    Type
                         _______ _______ _______ _____ _____    ______ ____

>  <TORSDO>
F 9

$$$$
=
 OpenBabel11042414033D

 31 34  0  0  1  0  0  0  0  0999 V2000
  185.7510  178.7600  141.9560 N   0  0  0  0  0  0  0  0  0  0  0  0
  187.6990  177.5830  144.0530 C   0  0  0  0  0  0  0  0  0  0  0  0
  188.2840  177.0590  145.2090 C   0  0  0  0  0  3  0  0  0  0  0  0
  190.4970  177.2800  144.2550 C   0  0  0  0  0  0  0  0  0  0  0  0
  185.5870  178.7330  143.2400 C   0  0  0  0  0  3  0  0  0  0  0  0
  189.9130  177.7490  143.0710 C   0  0  0  0  0  3  0  0  0  0  0  0
  188.5290  177.8530  142.9290 C   0  0  0  0  0  0  0  0  0  0  0  0
  186.6790  177.9090  141.2340 C   0  0  0  0  0  2  0  0  0  0  0  0
  189.6680  176.8670  145.3200 C   0  0  0  0  0  0  0  0  0  0  0  0
  186.4150  177.9540  144.1810 C   0  0  0  0  0  2  0  0  0  0  0  0
  188.0880  178.0890  141.6910 C   0  0  0  0  0  2  0  0  0  0  0  0
  191.9220  177.2320  144.3840 N   0  0  0  0  0  0  0  0  0  0  0  0
  192.6150  176.3000  143.8640 N   0  0  0  0  0  0  0  0  0  0  0  0
  194.4140  176.3200  145.4800 C   0  0  0  0  0  3  0  0  0  0  0  0
  195.5480  174.1760  145.3230 C   0  0  0  0  0  0  0  0  0  0  0  0
  194.6460  175.1040  143.2660 C   0  0  0  0  0  3  0  0  0  0  0  0
  194.0610  176.2840  144.0100 C   0  0  1  0  0  3  0  0  0  0  0  0
  196.1560  173.2380  145.9020 O   0  0  0  0  0  0  0  0  0  0  0  0
  195.0870  175.3400  146.0870 C   0  0  0  0  0  3  0  0  0  0  0  0
  195.3210  174.1250  143.8750 C   0  0  0  0  0  3  0  0  0  0  0  0
  190.2120  176.3160  146.5380 N   0  0  0  0  0  0  0  0  0  0  0  0
  190.5410  177.1700  147.6700 C   0  0  0  0  0  1  0  0  0  0  0  0
  190.6690  174.9350  146.5960 C   0  0  0  0  0  2  0  0  0  0  0  0
  189.7130  174.0370  145.8310 C   0  0  0  0  0  2  0  0  0  0  0  0
  190.4560  173.2820  144.7890 C   0  0  0  0  0  0  0  0  0  0  0  0
  191.7130  173.2300  144.8380 O   0  0  0  0  0  0  0  0  0  0  0  0
  189.7490  172.6180  143.7850 O   0  0  0  0  0  0  0  0  0  0  0  0
  189.9180  172.9150  142.4050 C   0  0  0  0  0  2  0  0  0  0  0  0
  187.9200  174.3390  142.1550 C   0  0  0  0  0  2  0  0  0  0  0  0
  189.4330  174.3230  142.1100 C   0  0  0  0  0  3  0  0  0  0  0  0
  188.6350  174.3100  140.8240 C   0  0  0  0  0  2  0  0  0  0  0  0
  1  5  2  0  0  0  0
  2 10  1  0  0  0  0
  2  3  1  0  0  0  0
  3  9  2  0  0  0  0
  4 12  1  0  0  0  0
  4  9  1  0  0  0  0
  5 10  1  0  0  0  0
  6  4  2  0  0  0  0
  7  6  1  0  0  0  0
  7  2  2  0  0  0  0
  8 11  1  0  0  0  0
  8  1  1  0  0  0  0
  9 21  1  0  0  0  0
 11  7  1  0  0  0  0
 13 12  2  0  0  0  0
 14 19  2  0  0  0  0
 15 18  2  0  0  0  0
 15 19  1  0  0  0  0
 16 20  2  0  0  0  0
 16 17  1  0  0  0  0
 17 13  1  1  0  0  0
 17 14  1  0  0  0  0
 20 15  1  0  0  0  0
 21 23  1  0  0  0  0
 21 22  1  0  0  0  0
 24 23  1  0  0  0  0
 25 26  2  0  0  0  0
 25 24  1  0  0  0  0
 27 25  1  0  0  0  0
 28 27  1  0  0  0  0
 30 29  1  0  0  0  0
 30 28  1  0  0  0  0
 31 30  1  0  0  0  0
 31 29  1  0  0  0  0
M  END
>  <MODEL>
3

>  <REMARK>
 VINA RESULT:      -6.8      2.629      4.378
  Name = 
  9 active torsions:
  status: ('A' for Active; 'I' for Inactive)
    1  A    between atoms: C_1  and  C_7
    2  A    between atoms: C_1  and  N_9
    3  A    between atoms: C_7  and  C_11
    4  A    between atoms: N_8  and  C_12
    5  A    between atoms: N_9  and  C_23
    6  A    between atoms: C_11  and  O_30
    7  A    between atoms: C_15  and  N_17
    8  A    between atoms: C_16  and  C_24
    9  A    between atoms: C_24  and  O_30
                            x       y       z     vdW  Elec       q    Type
                         _______ _______ _______ _____ _____    ______ ____

>  <TORSDO>
F 9

$$$$
=
 OpenBabel11042414033D

 31 34  0  0  1  0  0  0  0  0999 V2000
  184.3770  178.6270  146.9550 N   0  0  0  0  0  0  0  0  0  0  0  0
  186.8790  177.8650  145.3020 C   0  0  0  0  0  0  0  0  0  0  0  0
  187.7990  177.6170  144.2790 C   0  0  0  0  0  3  0  0  0  0  0  0
  189.2940  176.4990  145.8180 C   0  0  0  0  0  0  0  0  0  0  0  0
  184.4210  178.3670  145.6880 C   0  0  0  0  0  3  0  0  0  0  0  0
  188.4060  176.7990  146.8600 C   0  0  0  0  0  3  0  0  0  0  0  0
  187.2340  177.5220  146.6360 C   0  0  0  0  0  0  0  0  0  0  0  0
  185.5330  178.9900  147.7540 C   0  0  0  0  0  2  0  0  0  0  0  0
  189.0200  176.9710  144.5160 C   0  0  0  0  0  0  0  0  0  0  0  0
  185.6590  178.2460  144.8930 C   0  0  0  0  0  2  0  0  0  0  0  0
  186.5920  177.9400  147.7300 C   0  0  0  0  0  2  0  0  0  0  0  0
  190.4630  175.7130  146.0730 N   0  0  0  0  0  0  0  0  0  0  0  0
  191.5510  176.2350  146.4790 N   0  0  0  0  0  0  0  0  0  0  0  0
  192.6800  174.1990  145.8250 C   0  0  0  0  0  3  0  0  0  0  0  0
  194.7780  174.8420  144.7800 C   0  0  0  0  0  0  0  0  0  0  0  0
  193.9800  176.2330  146.6060 C   0  0  0  0  0  3  0  0  0  0  0  0
  192.7180  175.4070  146.7340 C   0  0  1  0  0  3  0  0  0  0  0  0
  195.6510  174.6210  143.9010 O   0  0  0  0  0  0  0  0  0  0  0  0
  193.6230  173.9480  144.9140 C   0  0  0  0  0  3  0  0  0  0  0  0
  194.9230  175.9780  145.6950 C   0  0  0  0  0  3  0  0  0  0  0  0
  189.9300  176.7480  143.4190 N   0  0  0  0  0  0  0  0  0  0  0  0
  190.7080  177.8390  142.8530 C   0  0  0  0  0  1  0  0  0  0  0  0
  189.9270  175.4880  142.6890 C   0  0  0  0  0  2  0  0  0  0  0  0
  188.5020  175.0850  142.3520 C   0  0  0  0  0  2  0  0  0  0  0  0
  188.1230  175.6360  141.0250 C   0  0  0  0  0  0  0  0  0  0  0  0
  188.1560  174.8900  140.0120 O   0  0  0  0  0  0  0  0  0  0  0  0
  187.7100  176.9660  140.9250 O   0  0  0  0  0  0  0  0  0  0  0  0
  186.5420  177.3520  140.2140 C   0  0  0  0  0  2  0  0  0  0  0  0
  184.6560  177.6600  141.7730 C   0  0  0  0  0  2  0  0  0  0  0  0
  185.7550  178.3740  141.0150 C   0  0  0  0  0  3  0  0  0  0  0  0
  184.3310  178.4110  140.5020 C   0  0  0  0  0  2  0  0  0  0  0  0
  1  8  1  0  0  0  0
  2  7  1  0  0  0  0
  3  9  1  0  0  0  0
  3  2  2  0  0  0  0
  4 12  1  0  0  0  0
  4  6  1  0  0  0  0
  5  1  2  0  0  0  0
  7  6  2  0  0  0  0
  7 11  1  0  0  0  0
  9  4  2  0  0  0  0
 10  2  1  0  0  0  0
 10  5  1  0  0  0  0
 11  8  1  0  0  0  0
 12 13  2  0  0  0  0
 14 17  1  0  0  0  0
 15 19  1  0  0  0  0
 15 20  1  0  0  0  0
 16 17  1  0  0  0  0
 17 13  1  6  0  0  0
 18 15  2  0  0  0  0
 19 14  2  0  0  0  0
 20 16  2  0  0  0  0
 21  9  1  0  0  0  0
 22 21  1  0  0  0  0
 23 21  1  0  0  0  0
 24 23  1  0  0  0  0
 25 24  1  0  0  0  0
 26 25  2  0  0  0  0
 27 25  1  0  0  0  0
 28 27  1  0  0  0  0
 28 30  1  0  0  0  0
 30 29  1  0  0  0  0
 31 30  1  0  0  0  0
 31 29  1  0  0  0  0
M  END
>  <MODEL>
4

>  <REMARK>
 VINA RESULT:      -6.8      1.313      1.670
  Name = 
  9 active torsions:
  status: ('A' for Active; 'I' for Inactive)
    1  A    between atoms: C_1  and  C_7
    2  A    between atoms: C_1  and  N_9
    3  A    between atoms: C_7  and  C_11
    4  A    between atoms: N_8  and  C_12
    5  A    between atoms: N_9  and  C_23
    6  A    between atoms: C_11  and  O_30
    7  A    between atoms: C_15  and  N_17
    8  A    between atoms: C_16  and  C_24
    9  A    between atoms: C_24  and  O_30
                            x       y       z     vdW  Elec       q    Type
                         _______ _______ _______ _____ _____    ______ ____

>  <TORSDO>
F 9

$$$$
=
 OpenBabel11042414033D

 31 34  0  0  1  0  0  0  0  0999 V2000
  185.1610  178.3350  142.0510 N   0  0  0  0  0  0  0  0  0  0  0  0
  187.2940  176.3200  143.0330 C   0  0  0  0  0  0  0  0  0  0  0  0
  187.9690  175.2430  143.6140 C   0  0  0  0  0  3  0  0  0  0  0  0
  190.1080  176.3050  143.2330 C   0  0  0  0  0  0  0  0  0  0  0  0
  185.0220  177.4510  142.9860 C   0  0  0  0  0  3  0  0  0  0  0  0
  189.4430  177.3610  142.5940 C   0  0  0  0  0  3  0  0  0  0  0  0
  188.0570  177.3610  142.4350 C   0  0  0  0  0  0  0  0  0  0  0  0
  186.1950  178.2910  141.0330 C   0  0  0  0  0  2  0  0  0  0  0  0
  189.3670  175.1960  143.6930 C   0  0  0  0  0  0  0  0  0  0  0  0
  185.9710  176.3550  143.2600 C   0  0  0  0  0  2  0  0  0  0  0  0
  187.5680  178.2970  141.6170 C   0  0  0  0  0  2  0  0  0  0  0  0
  191.5270  176.3590  143.4220 N   0  0  0  0  0  0  0  0  0  0  0  0
  192.0510  176.9510  144.4190 N   0  0  0  0  0  0  0  0  0  0  0  0
  193.8380  176.6980  146.0290 C   0  0  0  0  0  3  0  0  0  0  0  0
  195.0960  174.7140  145.4040 C   0  0  0  0  0  0  0  0  0  0  0  0
  194.1520  176.0400  143.5990 C   0  0  0  0  0  3  0  0  0  0  0  0
  193.4960  176.9830  144.5840 C   0  0  1  0  0  3  0  0  0  0  0  0
  195.7540  173.7040  145.7630 O   0  0  0  0  0  0  0  0  0  0  0  0
  194.5640  175.6430  146.4070 C   0  0  0  0  0  3  0  0  0  0  0  0
  194.8800  174.9860  143.9800 C   0  0  0  0  0  3  0  0  0  0  0  0
  190.0060  174.0520  144.3000 N   0  0  0  0  0  0  0  0  0  0  0  0
  190.0150  172.7570  143.6380 C   0  0  0  0  0  1  0  0  0  0  0  0
  190.4510  174.0920  145.6860 C   0  0  0  0  0  2  0  0  0  0  0  0
  189.4290  174.8200  146.5400 C   0  0  0  0  0  2  0  0  0  0  0  0
  190.0860  175.9350  147.2710 C   0  0  0  0  0  0  0  0  0  0  0  0
  191.0730  175.6930  148.0140 O   0  0  0  0  0  0  0  0  0  0  0  0
  189.6170  177.2390  147.1010 O   0  0  0  0  0  0  0  0  0  0  0  0
  188.4540  177.5410  146.3410 C   0  0  0  0  0  2  0  0  0  0  0  0
  186.1640  176.8020  146.8770 C   0  0  0  0  0  2  0  0  0  0  0  0
  187.2690  177.7620  147.2630 C   0  0  0  0  0  3  0  0  0  0  0  0
  186.0920  178.2480  146.4440 C   0  0  0  0  0  2  0  0  0  0  0  0
  1  5  2  0  0  0  0
  2 10  1  0  0  0  0
  2  3  1  0  0  0  0
  3  9  2  0  0  0  0
  4 12  1  0  0  0  0
  4  9  1  0  0  0  0
  5 10  1  0  0  0  0
  6  4  2  0  0  0  0
  7  6  1  0  0  0  0
  7  2  2  0  0  0  0
  8 11  1  0  0  0  0
  8  1  1  0  0  0  0
  9 21  1  0  0  0  0
 11  7  1  0  0  0  0
 12 13  2  0  0  0  0
 14 19  2  0  0  0  0
 15 18  2  0  0  0  0
 15 19  1  0  0  0  0
 16 20  2  0  0  0  0
 16 17  1  0  0  0  0
 17 13  1  1  0  0  0
 17 14  1  0  0  0  0
 20 15  1  0  0  0  0
 21 23  1  0  0  0  0
 22 21  1  0  0  0  0
 23 24  1  0  0  0  0
 24 25  1  0  0  0  0
 25 26  2  0  0  0  0
 27 25  1  0  0  0  0
 28 27  1  0  0  0  0
 28 30  1  0  0  0  0
 29 30  1  0  0  0  0
 31 29  1  0  0  0  0
 31 30  1  0  0  0  0
M  END
>  <MODEL>
5

>  <REMARK>
 VINA RESULT:      -6.7      2.377      4.089
  Name = 
  9 active torsions:
  status: ('A' for Active; 'I' for Inactive)
    1  A    between atoms: C_1  and  C_7
    2  A    between atoms: C_1  and  N_9
    3  A    between atoms: C_7  and  C_11
    4  A    between atoms: N_8  and  C_12
    5  A    between atoms: N_9  and  C_23
    6  A    between atoms: C_11  and  O_30
    7  A    between atoms: C_15  and  N_17
    8  A    between atoms: C_16  and  C_24
    9  A    between atoms: C_24  and  O_30
                            x       y       z     vdW  Elec       q    Type
                         _______ _______ _______ _____ _____    ______ ____

>  <TORSDO>
F 9

$$$$
=
 OpenBabel11042414033D

 31 34  0  0  1  0  0  0  0  0999 V2000
  184.1440  178.4400  146.2960 N   0  0  0  0  0  0  0  0  0  0  0  0
  186.9210  177.9770  145.0110 C   0  0  0  0  0  0  0  0  0  0  0  0
  188.0030  177.8760  144.1330 C   0  0  0  0  0  3  0  0  0  0  0  0
  189.3150  176.7080  145.7960 C   0  0  0  0  0  0  0  0  0  0  0  0
  184.4030  178.3010  145.0350 C   0  0  0  0  0  3  0  0  0  0  0  0
  188.2570  176.8590  146.7030 C   0  0  0  0  0  3  0  0  0  0  0  0
  187.0870  177.5320  146.3530 C   0  0  0  0  0  0  0  0  0  0  0  0
  185.1330  178.7920  147.2980 C   0  0  0  0  0  2  0  0  0  0  0  0
  189.2150  177.2810  144.5110 C   0  0  0  0  0  0  0  0  0  0  0  0
  185.7550  178.3240  144.4440 C   0  0  0  0  0  2  0  0  0  0  0  0
  186.2540  177.8100  147.3600 C   0  0  0  0  0  2  0  0  0  0  0  0
  190.4830  175.9690  146.1720 N   0  0  0  0  0  0  0  0  0  0  0  0
  191.5680  176.5450  146.5050 N   0  0  0  0  0  0  0  0  0  0  0  0
  192.6390  174.3910  146.2590 C   0  0  0  0  0  3  0  0  0  0  0  0
  194.6990  174.7480  145.0190 C   0  0  0  0  0  0  0  0  0  0  0  0
  193.9990  176.5150  146.5340 C   0  0  0  0  0  3  0  0  0  0  0  0
  192.7330  175.7640  146.8850 C   0  0  1  0  0  3  0  0  0  0  0  0
  195.5310  174.3250  144.1750 O   0  0  0  0  0  0  0  0  0  0  0  0
  193.5390  173.9300  145.3880 C   0  0  0  0  0  3  0  0  0  0  0  0
  194.8990  176.0500  145.6630 C   0  0  0  0  0  3  0  0  0  0  0  0
  190.2980  177.2130  143.5600 N   0  0  0  0  0  0  0  0  0  0  0  0
  191.3010  178.2630  143.4840 C   0  0  0  0  0  1  0  0  0  0  0  0
  190.2950  176.2210  142.4930 C   0  0  0  0  0  2  0  0  0  0  0  0
  191.2440  175.0860  142.8340 C   0  0  0  0  0  2  0  0  0  0  0  0
  190.4770  173.8260  143.0120 C   0  0  0  0  0  0  0  0  0  0  0  0
  189.7180  173.6980  144.0080 O   0  0  0  0  0  0  0  0  0  0  0  0
  190.5900  172.8120  142.0580 O   0  0  0  0  0  0  0  0  0  0  0  0
  190.3260  173.0280  140.6790 C   0  0  0  0  0  2  0  0  0  0  0  0
  188.5600  172.7290  138.9830 C   0  0  0  0  0  2  0  0  0  0  0  0
  188.8280  173.0740  140.4330 C   0  0  0  0  0  3  0  0  0  0  0  0
  188.5270  174.1710  139.4340 C   0  0  0  0  0  2  0  0  0  0  0  0
  1  8  1  0  0  0  0
  2  7  1  0  0  0  0
  3  9  1  0  0  0  0
  3  2  2  0  0  0  0
  4 12  1  0  0  0  0
  4  6  1  0  0  0  0
  5  1  2  0  0  0  0
  7  6  2  0  0  0  0
  7 11  1  0  0  0  0
  8 11  1  0  0  0  0
  9  4  2  0  0  0  0
 10  2  1  0  0  0  0
 10  5  1  0  0  0  0
 12 13  2  0  0  0  0
 14 17  1  0  0  0  0
 15 19  1  0  0  0  0
 15 20  1  0  0  0  0
 16 17  1  0  0  0  0
 17 13  1  6  0  0  0
 18 15  2  0  0  0  0
 19 14  2  0  0  0  0
 20 16  2  0  0  0  0
 21  9  1  0  0  0  0
 22 21  1  0  0  0  0
 23 24  1  0  0  0  0
 23 21  1  0  0  0  0
 24 25  1  0  0  0  0
 25 26  2  0  0  0  0
 27 25  1  0  0  0  0
 28 27  1  0  0  0  0
 29 31  1  0  0  0  0
 29 30  1  0  0  0  0
 30 28  1  0  0  0  0
 31 30  1  0  0  0  0
M  END
>  <MODEL>
6

>  <REMARK>
 VINA RESULT:      -6.6      2.162      3.463
  Name = 
  9 active torsions:
  status: ('A' for Active; 'I' for Inactive)
    1  A    between atoms: C_1  and  C_7
    2  A    between atoms: C_1  and  N_9
    3  A    between atoms: C_7  and  C_11
    4  A    between atoms: N_8  and  C_12
    5  A    between atoms: N_9  and  C_23
    6  A    between atoms: C_11  and  O_30
    7  A    between atoms: C_15  and  N_17
    8  A    between atoms: C_16  and  C_24
    9  A    between atoms: C_24  and  O_30
                            x       y       z     vdW  Elec       q    Type
                         _______ _______ _______ _____ _____    ______ ____

>  <TORSDO>
F 9

$$$$
=
 OpenBabel11042414033D

 31 34  0  0  1  0  0  0  0  0999 V2000
  191.7300  175.9270  147.5770 N   0  0  0  0  0  0  0  0  0  0  0  0
  189.7420  176.4750  145.2690 C   0  0  0  0  0  0  0  0  0  0  0  0
  188.7440  176.9940  144.4400 C   0  0  0  0  0  3  0  0  0  0  0  0
  188.8530  175.0550  142.9990 C   0  0  0  0  0  0  0  0  0  0  0  0
  190.6560  176.6480  147.6310 C   0  0  0  0  0  3  0  0  0  0  0  0
  189.8970  174.5550  143.7900 C   0  0  0  0  0  3  0  0  0  0  0  0
  190.3900  175.2680  144.8830 C   0  0  0  0  0  0  0  0  0  0  0  0
  192.4070  175.5640  146.3460 C   0  0  0  0  0  2  0  0  0  0  0  0
  188.3100  176.3240  143.2880 C   0  0  0  0  0  0  0  0  0  0  0  0
  189.8700  177.0820  146.4600 C   0  0  0  0  0  2  0  0  0  0  0  0
  191.5240  174.8040  145.4140 C   0  0  0  0  0  2  0  0  0  0  0  0
  188.3380  174.2760  141.9130 N   0  0  0  0  0  0  0  0  0  0  0  0
  188.9040  174.2510  140.7740 N   0  0  0  0  0  0  0  0  0  0  0  0
  188.1870  174.3090  138.4650 C   0  0  0  0  0  3  0  0  0  0  0  0
  189.7240  172.9160  137.1980 C   0  0  0  0  0  0  0  0  0  0  0  0
  189.2190  172.2210  139.4710 C   0  0  0  0  0  3  0  0  0  0  0  0
  188.3580  173.4450  139.6940 C   0  0  1  0  0  3  0  0  0  0  0  0
  190.3520  172.7100  136.1270 O   0  0  0  0  0  0  0  0  0  0  0  0
  188.8290  174.0720  137.3190 C   0  0  0  0  0  3  0  0  0  0  0  0
  189.8590  171.9850  138.3220 C   0  0  0  0  0  3  0  0  0  0  0  0
  187.2790  176.9160  142.4700 N   0  0  0  0  0  0  0  0  0  0  0  0
  187.6110  177.7690  141.3400 C   0  0  0  0  0  1  0  0  0  0  0  0
  185.8820  176.8760  142.8820 C   0  0  0  0  0  2  0  0  0  0  0  0
  185.2070  178.1970  142.5590 C   0  0  0  0  0  2  0  0  0  0  0  0
  185.0230  178.9860  143.8060 C   0  0  0  0  0  0  0  0  0  0  0  0
  185.5510  180.1250  143.9010 O   0  0  0  0  0  0  0  0  0  0  0  0
  184.2460  178.4640  144.8420 O   0  0  0  0  0  0  0  0  0  0  0  0
  184.5620  178.6680  146.2120 C   0  0  0  0  0  2  0  0  0  0  0  0
  185.9620  176.7780  146.9520 C   0  0  0  0  0  2  0  0  0  0  0  0
  185.9850  178.2210  146.4940 C   0  0  0  0  0  3  0  0  0  0  0  0
  186.1140  177.8890  147.9660 C   0  0  0  0  0  2  0  0  0  0  0  0
  1  5  2  0  0  0  0
  2 10  1  0  0  0  0
  3  2  2  0  0  0  0
  4  9  2  0  0  0  0
  4  6  1  0  0  0  0
  6  7  2  0  0  0  0
  7  2  1  0  0  0  0
  7 11  1  0  0  0  0
  8  1  1  0  0  0  0
  9  3  1  0  0  0  0
 10  5  1  0  0  0  0
 11  8  1  0  0  0  0
 12  4  1  0  0  0  0
 13 12  2  0  0  0  0
 14 17  1  0  0  0  0
 15 19  1  0  0  0  0
 15 20  1  0  0  0  0
 16 17  1  0  0  0  0
 17 13  1  1  0  0  0
 18 15  2  0  0  0  0
 19 14  2  0  0  0  0
 20 16  2  0  0  0  0
 21 23  1  0  0  0  0
 21  9  1  0  0  0  0
 22 21  1  0  0  0  0
 24 23  1  0  0  0  0
 24 25  1  0  0  0  0
 25 26  2  0  0  0  0
 25 27  1  0  0  0  0
 27 28  1  0  0  0  0
 28 30  1  0  0  0  0
 29 31  1  0  0  0  0
 30 29  1  0  0  0  0
 30 31  1  0  0  0  0
M  END
>  <MODEL>
7

>  <REMARK>
 VINA RESULT:      -6.6      2.916      6.155
  Name = 
  9 active torsions:
  status: ('A' for Active; 'I' for Inactive)
    1  A    between atoms: C_1  and  C_7
    2  A    between atoms: C_1  and  N_9
    3  A    between atoms: C_7  and  C_11
    4  A    between atoms: N_8  and  C_12
    5  A    between atoms: N_9  and  C_23
    6  A    between atoms: C_11  and  O_30
    7  A    between atoms: C_15  and  N_17
    8  A    between atoms: C_16  and  C_24
    9  A    between atoms: C_24  and  O_30
                            x       y       z     vdW  Elec       q    Type
                         _______ _______ _______ _____ _____    ______ ____

>  <TORSDO>
F 9

$$$$
=
 OpenBabel11042414033D

 31 34  0  0  1  0  0  0  0  0999 V2000
  195.1590  175.9780  145.5120 N   0  0  0  0  0  0  0  0  0  0  0  0
  192.3420  176.1030  144.2360 C   0  0  0  0  0  0  0  0  0  0  0  0
  191.2600  176.2150  143.3580 C   0  0  0  0  0  3  0  0  0  0  0  0
  189.7010  176.3100  145.2050 C   0  0  0  0  0  0  0  0  0  0  0  0
  194.8480  176.4840  144.3610 C   0  0  0  0  0  3  0  0  0  0  0  0
  190.7740  176.1360  146.0890 C   0  0  0  0  0  3  0  0  0  0  0  0
  192.0810  175.9750  145.6280 C   0  0  0  0  0  0  0  0  0  0  0  0
  194.3270  175.0370  146.2400 C   0  0  0  0  0  2  0  0  0  0  0  0
  189.9360  176.2850  143.8140 C   0  0  0  0  0  0  0  0  0  0  0  0
  193.5490  176.3110  143.6850 C   0  0  0  0  0  2  0  0  0  0  0  0
  192.9750  175.5910  146.5430 C   0  0  0  0  0  2  0  0  0  0  0  0
  188.3780  176.5200  145.7120 N   0  0  0  0  0  0  0  0  0  0  0  0
  188.1660  176.8600  146.9210 N   0  0  0  0  0  0  0  0  0  0  0  0
  186.6010  178.5430  147.6730 C   0  0  0  0  0  3  0  0  0  0  0  0
  184.8170  178.6560  146.0270 C   0  0  0  0  0  0  0  0  0  0  0  0
  185.8150  176.4780  146.4290 C   0  0  0  0  0  3  0  0  0  0  0  0
  186.8100  177.0710  147.4020 C   0  0  1  0  0  3  0  0  0  0  0  0
  183.9800  179.3540  145.3970 O   0  0  0  0  0  0  0  0  0  0  0  0
  185.6920  179.2760  147.0280 C   0  0  0  0  0  3  0  0  0  0  0  0
  184.9040  177.2130  145.7860 C   0  0  0  0  0  3  0  0  0  0  0  0
  188.8620  176.3940  142.8570 N   0  0  0  0  0  0  0  0  0  0  0  0
  188.4010  177.6910  142.3880 C   0  0  0  0  0  1  0  0  0  0  0  0
  188.0490  175.2370  142.5100 C   0  0  0  0  0  2  0  0  0  0  0  0
  188.2250  174.8990  141.0400 C   0  0  0  0  0  2  0  0  0  0  0  0
  188.4180  173.4340  140.8800 C   0  0  0  0  0  0  0  0  0  0  0  0
  188.1670  172.8930  139.7710 O   0  0  0  0  0  0  0  0  0  0  0  0
  188.9020  172.6830  141.9530 O   0  0  0  0  0  0  0  0  0  0  0  0
  190.2840  172.6140  142.2760 C   0  0  0  0  0  2  0  0  0  0  0  0
  190.0440  172.7310  144.7270 C   0  0  0  0  0  2  0  0  0  0  0  0
  190.4810  171.8530  143.5740 C   0  0  0  0  0  3  0  0  0  0  0  0
  191.5140  172.5720  144.4150 C   0  0  0  0  0  2  0  0  0  0  0  0
  1  8  1  0  0  0  0
  2  7  1  0  0  0  0
  3  9  1  0  0  0  0
  3  2  2  0  0  0  0
  4 12  1  0  0  0  0
  4  6  1  0  0  0  0
  5  1  2  0  0  0  0
  7  6  2  0  0  0  0
  7 11  1  0  0  0  0
  8 11  1  0  0  0  0
  9  4  2  0  0  0  0
 10  2  1  0  0  0  0
 10  5  1  0  0  0  0
 12 13  2  0  0  0  0
 15 19  1  0  0  0  0
 16 17  1  0  0  0  0
 17 13  1  6  0  0  0
 17 14  1  0  0  0  0
 18 15  2  0  0  0  0
 19 14  2  0  0  0  0
 20 15  1  0  0  0  0
 20 16  2  0  0  0  0
 21  9  1  0  0  0  0
 22 21  1  0  0  0  0
 23 21  1  0  0  0  0
 24 23  1  0  0  0  0
 25 24  1  0  0  0  0
 25 27  1  0  0  0  0
 26 25  2  0  0  0  0
 27 28  1  0  0  0  0
 28 30  1  0  0  0  0
 30 31  1  0  0  0  0
 30 29  1  0  0  0  0
 31 29  1  0  0  0  0
M  END
>  <MODEL>
8

>  <REMARK>
 VINA RESULT:      -6.5      2.633      7.023
  Name = 
  9 active torsions:
  status: ('A' for Active; 'I' for Inactive)
    1  A    between atoms: C_1  and  C_7
    2  A    between atoms: C_1  and  N_9
    3  A    between atoms: C_7  and  C_11
    4  A    between atoms: N_8  and  C_12
    5  A    between atoms: N_9  and  C_23
    6  A    between atoms: C_11  and  O_30
    7  A    between atoms: C_15  and  N_17
    8  A    between atoms: C_16  and  C_24
    9  A    between atoms: C_24  and  O_30
                            x       y       z     vdW  Elec       q    Type
                         _______ _______ _______ _____ _____    ______ ____

>  <TORSDO>
F 9

$$$$
=
 OpenBabel11042414033D

 31 34  0  0  1  0  0  0  0  0999 V2000
  184.1050  178.3980  146.3310 N   0  0  0  0  0  0  0  0  0  0  0  0
  186.8830  177.9840  145.0330 C   0  0  0  0  0  0  0  0  0  0  0  0
  187.9660  177.9150  144.1530 C   0  0  0  0  0  3  0  0  0  0  0  0
  189.2790  176.6920  145.7750 C   0  0  0  0  0  0  0  0  0  0  0  0
  184.3650  178.3020  145.0670 C   0  0  0  0  0  3  0  0  0  0  0  0
  188.2200  176.8100  146.6860 C   0  0  0  0  0  3  0  0  0  0  0  0
  187.0490  177.4930  146.3590 C   0  0  0  0  0  0  0  0  0  0  0  0
  185.0920  178.7170  147.3460 C   0  0  0  0  0  2  0  0  0  0  0  0
  189.1790  177.3090  144.5110 C   0  0  0  0  0  0  0  0  0  0  0  0
  185.7170  178.3490  144.4770 C   0  0  0  0  0  2  0  0  0  0  0  0
  186.2150  177.7350  147.3740 C   0  0  0  0  0  2  0  0  0  0  0  0
  190.4480  175.9420  146.1260 N   0  0  0  0  0  0  0  0  0  0  0  0
  191.5250  176.5080  146.4990 N   0  0  0  0  0  0  0  0  0  0  0  0
  192.6580  174.4110  146.0900 C   0  0  0  0  0  3  0  0  0  0  0  0
  194.7600  174.9310  144.9850 C   0  0  0  0  0  0  0  0  0  0  0  0
  193.9530  176.5230  146.6340 C   0  0  0  0  0  3  0  0  0  0  0  0
  192.6920  175.7160  146.8520 C   0  0  1  0  0  3  0  0  0  0  0  0
  195.6370  174.6100  144.1410 O   0  0  0  0  0  0  0  0  0  0  0  0
  193.6050  174.0570  145.2180 C   0  0  0  0  0  3  0  0  0  0  0  0
  194.9010  176.1650  145.7630 C   0  0  0  0  0  3  0  0  0  0  0  0
  190.2630  177.2750  143.5590 N   0  0  0  0  0  0  0  0  0  0  0  0
  191.3040  178.2900  143.5670 C   0  0  0  0  0  1  0  0  0  0  0  0
  190.2270  176.3720  142.4170 C   0  0  0  0  0  2  0  0  0  0  0  0
  189.6980  175.0140  142.8430 C   0  0  0  0  0  2  0  0  0  0  0  0
  188.5500  174.6290  141.9820 C   0  0  0  0  0  0  0  0  0  0  0  0
  187.8440  175.5260  141.4510 O   0  0  0  0  0  0  0  0  0  0  0  0
  188.2860  173.2770  141.7520 O   0  0  0  0  0  0  0  0  0  0  0  0
  189.0460  172.2370  142.3530 C   0  0  0  0  0  2  0  0  0  0  0  0
  190.7770  170.5170  141.9970 C   0  0  0  0  0  2  0  0  0  0  0  0
  190.0660  171.6960  141.3670 C   0  0  0  0  0  3  0  0  0  0  0  0
  191.4530  171.8680  141.9510 C   0  0  0  0  0  2  0  0  0  0  0  0
  1  8  1  0  0  0  0
  2  7  1  0  0  0  0
  3  9  1  0  0  0  0
  3  2  2  0  0  0  0
  4 12  1  0  0  0  0
  4  6  1  0  0  0  0
  5  1  2  0  0  0  0
  7  6  2  0  0  0  0
  7 11  1  0  0  0  0
  8 11  1  0  0  0  0
  9  4  2  0  0  0  0
 10  2  1  0  0  0  0
 10  5  1  0  0  0  0
 12 13  2  0  0  0  0
 14 17  1  0  0  0  0
 15 19  1  0  0  0  0
 15 20  1  0  0  0  0
 16 17  1  0  0  0  0
 17 13  1  6  0  0  0
 18 15  2  0  0  0  0
 19 14  2  0  0  0  0
 20 16  2  0  0  0  0
 21 22  1  0  0  0  0
 21  9  1  0  0  0  0
 23 24  1  0  0  0  0
 23 21  1  0  0  0  0
 25 24  1  0  0  0  0
 26 25  2  0  0  0  0
 27 25  1  0  0  0  0
 27 28  1  0  0  0  0
 30 31  1  0  0  0  0
 30 29  1  0  0  0  0
 30 28  1  0  0  0  0
 31 29  1  0  0  0  0
M  END
>  <MODEL>
9

>  <REMARK>
 VINA RESULT:      -6.5      1.894      3.666
  Name = 
  9 active torsions:
  status: ('A' for Active; 'I' for Inactive)
    1  A    between atoms: C_1  and  C_7
    2  A    between atoms: C_1  and  N_9
    3  A    between atoms: C_7  and  C_11
    4  A    between atoms: N_8  and  C_12
    5  A    between atoms: N_9  and  C_23
    6  A    between atoms: C_11  and  O_30
    7  A    between atoms: C_15  and  N_17
    8  A    between atoms: C_16  and  C_24
    9  A    between atoms: C_24  and  O_30
                            x       y       z     vdW  Elec       q    Type
                         _______ _______ _______ _____ _____    ______ ____

>  <TORSDO>
F 9

$$$$
