=
 OpenBabel11042416303D

 29 32  0  0  1  0  0  0  0  0999 V2000
  188.3190  176.0830  147.1100 C   0  0  0  0  0  2  0  0  0  0  0  0
  189.7200  174.7240  145.0270 C   0  0  1  0  0  3  0  0  0  0  0  0
  185.3170  179.4290  144.5960 C   0  0  0  0  0  3  0  0  0  0  0  0
  189.6870  175.7600  142.3410 O   0  0  0  0  0  1  0  0  0  0  0  0
  188.9030  175.7640  144.6630 C   0  0  0  0  0  0  0  0  0  0  0  0
  186.1320  177.8810  146.2280 N   0  0  0  0  0  0  0  0  0  0  0  0
  189.6390  174.1550  146.3930 C   0  0  0  0  0  3  0  0  0  0  0  0
  187.1040  177.3440  145.2830 C   0  0  0  0  0  0  0  0  0  0  0  0
  188.9560  174.7580  147.3550 C   0  0  0  0  0  3  0  0  0  0  0  0
  186.2350  178.8220  143.6260 C   0  0  0  0  0  3  0  0  0  0  0  0
  188.0600  176.3600  145.6470 C   0  0  0  0  0  0  0  0  0  0  0  0
  185.7830  177.2340  147.4840 C   0  0  0  0  0  1  0  0  0  0  0  0
  187.0910  177.8360  143.9550 C   0  0  0  0  0  0  0  0  0  0  0  0
  185.2800  178.9640  145.8390 C   0  0  0  0  0  3  0  0  0  0  0  0
  188.8470  176.2620  143.3320 C   0  0  0  0  0  0  0  0  0  0  0  0
  187.9620  177.3000  142.9810 C   0  0  1  0  0  3  0  0  0  0  0  0
  192.4240  172.8400  144.6500 C   0  0  1  0  0  3  0  0  0  0  0  0
  190.6440  174.0240  144.0570 C   0  0  1  0  0  3  0  0  0  0  0  0
  192.1080  174.2910  144.3480 C   0  0  0  0  0  2  0  0  0  0  0  0
  190.7260  172.2350  144.3750 S   0  0  0  0  0  0  0  0  0  0  0  0
  193.3540  172.2890  143.5840 C   0  0  0  0  0  2  0  0  0  0  0  0
  194.6020  171.7120  144.2270 C   0  0  0  0  0  2  0  0  0  0  0  0
  197.0910  173.5270  146.4250 O   0  0  0  0  0  1  0  0  0  0  0  0
  196.4240  172.4800  145.8050 C   0  0  0  0  0  0  0  0  0  0  0  0
  196.7840  171.2930  146.0260 O   0  0  0  0  0  0  0  0  0  0  0  0
  195.3330  172.7590  144.9260 N   0  0  0  0  0  2  0  0  0  0  0  0
  187.0800  177.2500  140.6050 N   0  0  0  0  0  1  0  0  0  0  0  0
  187.9610  177.8050  141.5780 C   0  0  0  0  0  0  0  0  0  0  0  0
  188.7300  178.7430  141.2410 O   0  0  0  0  0  0  0  0  0  0  0  0
  1  9  1  0  0  0  0
  2  7  1  6  0  0  0
  3 14  2  0  0  0  0
  4 15  1  0  0  0  0
  5  2  1  0  0  0  0
  5 11  1  0  0  0  0
  6 12  1  0  0  0  0
  7  9  2  0  0  0  0
  8 11  2  0  0  0  0
  8  6  1  0  0  0  0
 10 13  2  0  0  0  0
 10  3  1  0  0  0  0
 11  1  1  0  0  0  0
 13  8  1  0  0  0  0
 14  6  1  0  0  0  0
 15  5  2  0  0  0  0
 16 28  1  6  0  0  0
 16 15  1  0  0  0  0
 16 13  1  0  0  0  0
 17 21  1  6  0  0  0
 18 19  1  1  0  0  0
 18 20  1  0  0  0  0
 18  2  1  0  0  0  0
 19 17  1  0  0  0  0
 20 17  1  0  0  0  0
 21 22  1  0  0  0  0
 22 26  1  0  0  0  0
 24 25  2  0  0  0  0
 24 23  1  0  0  0  0
 26 24  1  0  0  0  0
 27 28  1  0  0  0  0
 29 28  2  0  0  0  0
M  END
>  <MODEL>
1

>  <REMARK>
 VINA RESULT:      -7.5      0.000      0.000
  Name = 
  5 active torsions:
  status: ('A' for Active; 'I' for Inactive)
    1  A    between atoms: C_2  and  C_5
    2  A    between atoms: C_2  and  N_29
    3  A    between atoms: C_3  and  C_17
    4  A    between atoms: C_5  and  C_10
    5  A    between atoms: C_16  and  C_28
                            x       y       z     vdW  Elec       q    Type
                         _______ _______ _______ _____ _____    ______ ____

>  <TORSDO>
F 5

$$$$
=
 OpenBabel11042416303D

 29 32  0  0  1  0  0  0  0  0999 V2000
  187.2270  176.0410  142.2630 C   0  0  0  0  0  2  0  0  0  0  0  0
  189.2280  175.9070  144.2960 C   0  0  1  0  0  3  0  0  0  0  0  0
  183.5790  179.0380  144.3210 C   0  0  0  0  0  3  0  0  0  0  0  0
  188.6410  176.8000  146.9690 O   0  0  0  0  0  1  0  0  0  0  0  0
  188.0640  176.5680  144.5980 C   0  0  0  0  0  0  0  0  0  0  0  0
  185.0330  177.9760  142.7450 N   0  0  0  0  0  0  0  0  0  0  0  0
  189.5370  175.5490  142.8910 C   0  0  0  0  0  3  0  0  0  0  0  0
  185.9610  177.5980  143.8040 C   0  0  2  0  0  3  0  0  0  0  0  0
  188.6270  175.6480  141.9340 C   0  0  0  0  0  3  0  0  0  0  0  0
  184.5620  178.7330  145.3670 C   0  0  0  0  0  3  0  0  0  0  0  0
  187.1110  176.8030  143.5640 C   0  0  0  0  0  0  0  0  0  0  0  0
  185.3560  177.9180  141.3270 C   0  0  0  0  0  1  0  0  0  0  0  0
  185.6900  178.0410  145.1220 C   0  0  0  0  0  0  0  0  0  0  0  0
  183.8220  178.6680  143.0690 C   0  0  0  0  0  3  0  0  0  0  0  0
  187.7760  177.0490  145.9050 C   0  0  0  0  0  0  0  0  0  0  0  0
  186.5930  177.7650  146.1720 C   0  0  0  0  0  0  0  0  0  0  0  0
  192.3330  174.8710  144.8340 C   0  0  1  0  0  3  0  0  0  0  0  0
  190.2990  175.6160  145.3200 C   0  0  1  0  0  3  0  0  0  0  0  0
  190.9670  174.2710  145.1030 C   0  0  0  0  0  2  0  0  0  0  0  0
  191.7990  176.6030  145.0270 S   0  0  0  0  0  0  0  0  0  0  0  0
  193.2850  174.4900  145.9540 C   0  0  0  0  0  2  0  0  0  0  0  0
  194.6560  174.1710  145.3860 C   0  0  0  0  0  2  0  0  0  0  0  0
  196.4260  177.1610  143.8870 O   0  0  0  0  0  1  0  0  0  0  0  0
  195.6960  175.9820  143.9600 C   0  0  0  0  0  0  0  0  0  0  0  0
  195.2780  175.4410  142.9020 O   0  0  0  0  0  0  0  0  0  0  0  0
  195.4310  175.3930  145.2340 N   0  0  0  0  0  2  0  0  0  0  0  0
  186.6910  179.5370  147.9820 N   0  0  0  0  0  1  0  0  0  0  0  0
  186.3260  178.2240  147.5650 C   0  0  0  0  0  0  0  0  0  0  0  0
  185.7550  177.4590  148.3880 O   0  0  0  0  0  0  0  0  0  0  0  0
  1 11  1  0  0  0  0
  2  7  1  6  0  0  0
  2  5  1  0  0  0  0
  2 18  1  0  0  0  0
  3 10  1  0  0  0  0
  5 15  1  0  0  0  0
  6 14  1  0  0  0  0
  6  8  1  0  0  0  0
  8 11  1  1  0  0  0
  8 13  1  0  0  0  0
  9  1  1  0  0  0  0
  9  7  2  0  0  0  0
 11  5  2  0  0  0  0
 12  6  1  0  0  0  0
 13 10  2  0  0  0  0
 13 16  1  0  0  0  0
 14  3  2  0  0  0  0
 15 16  2  0  0  0  0
 15  4  1  0  0  0  0
 16 28  1  0  0  0  0
 17 20  1  0  0  0  0
 17 19  1  0  0  0  0
 17 21  1  1  0  0  0
 18 19  1  6  0  0  0
 20 18  1  0  0  0  0
 22 21  1  0  0  0  0
 23 24  1  0  0  0  0
 24 26  1  0  0  0  0
 25 24  2  0  0  0  0
 26 22  1  0  0  0  0
 28 27  1  0  0  0  0
 28 29  2  0  0  0  0
M  END
>  <MODEL>
2

>  <REMARK>
 VINA RESULT:      -7.4      2.761      4.075
  Name = 
  5 active torsions:
  status: ('A' for Active; 'I' for Inactive)
    1  A    between atoms: C_2  and  C_5
    2  A    between atoms: C_2  and  N_29
    3  A    between atoms: C_3  and  C_17
    4  A    between atoms: C_5  and  C_10
    5  A    between atoms: C_16  and  C_28
                            x       y       z     vdW  Elec       q    Type
                         _______ _______ _______ _____ _____    ______ ____

>  <TORSDO>
F 5

$$$$
=
 OpenBabel11042416303D

 29 32  0  0  1  0  0  0  0  0999 V2000
  188.4400  176.0590  147.1040 C   0  0  0  0  0  2  0  0  0  0  0  0
  189.6620  174.6320  144.9550 C   0  0  1  0  0  3  0  0  0  0  0  0
  185.4010  179.4810  144.7420 C   0  0  0  0  0  3  0  0  0  0  0  0
  189.4970  175.6420  142.2640 O   0  0  0  0  0  1  0  0  0  0  0  0
  188.8590  175.6960  144.6300 C   0  0  0  0  0  0  0  0  0  0  0  0
  186.2640  177.9220  146.3380 N   0  0  0  0  0  0  0  0  0  0  0  0
  189.6470  174.0800  146.3300 C   0  0  0  0  0  3  0  0  0  0  0  0
  187.1570  177.3430  145.3410 C   0  0  0  0  0  0  0  0  0  0  0  0
  189.0460  174.7150  147.3250 C   0  0  0  0  0  3  0  0  0  0  0  0
  186.2370  178.8330  143.7240 C   0  0  0  0  0  3  0  0  0  0  0  0
  188.0990  176.3300  145.6570 C   0  0  0  0  0  0  0  0  0  0  0  0
  185.9720  177.2990  147.6210 C   0  0  0  0  0  1  0  0  0  0  0  0
  187.0770  177.8230  144.0110 C   0  0  0  0  0  0  0  0  0  0  0  0
  185.4270  179.0300  145.9900 C   0  0  0  0  0  3  0  0  0  0  0  0
  188.7370  176.1830  143.3000 C   0  0  0  0  0  0  0  0  0  0  0  0
  187.8680  177.2470  142.9920 C   0  0  1  0  0  3  0  0  0  0  0  0
  192.3050  172.6980  144.4270 C   0  0  1  0  0  3  0  0  0  0  0  0
  190.5000  173.8920  143.9380 C   0  0  1  0  0  3  0  0  0  0  0  0
  191.9850  174.1450  144.1080 C   0  0  0  0  0  2  0  0  0  0  0  0
  190.5840  172.1120  144.3000 S   0  0  0  0  0  0  0  0  0  0  0  0
  193.1430  172.1030  143.3100 C   0  0  0  0  0  2  0  0  0  0  0  0
  194.3970  171.4670  143.8800 C   0  0  0  0  0  2  0  0  0  0  0  0
  194.6860  169.3600  147.0100 O   0  0  0  0  0  1  0  0  0  0  0  0
  195.0430  169.9760  145.8190 C   0  0  0  0  0  0  0  0  0  0  0  0
  196.2060  169.8220  145.3610 O   0  0  0  0  0  0  0  0  0  0  0  0
  194.0860  170.7760  145.1230 N   0  0  0  0  0  2  0  0  0  0  0  0
  186.8200  177.2250  140.6840 N   0  0  0  0  0  1  0  0  0  0  0  0
  187.7960  177.7380  141.5860 C   0  0  0  0  0  0  0  0  0  0  0  0
  188.5900  178.6290  141.1830 O   0  0  0  0  0  0  0  0  0  0  0  0
  1  9  1  0  0  0  0
  2  7  1  6  0  0  0
  3 14  2  0  0  0  0
  4 15  1  0  0  0  0
  5  2  1  0  0  0  0
  5 11  1  0  0  0  0
  6 12  1  0  0  0  0
  7  9  2  0  0  0  0
  8 11  2  0  0  0  0
  8  6  1  0  0  0  0
 10 13  2  0  0  0  0
 10  3  1  0  0  0  0
 11  1  1  0  0  0  0
 13  8  1  0  0  0  0
 14  6  1  0  0  0  0
 15  5  2  0  0  0  0
 16 28  1  6  0  0  0
 16 15  1  0  0  0  0
 16 13  1  0  0  0  0
 17 21  1  6  0  0  0
 18 19  1  1  0  0  0
 18 20  1  0  0  0  0
 18  2  1  0  0  0  0
 19 17  1  0  0  0  0
 20 17  1  0  0  0  0
 21 22  1  0  0  0  0
 22 26  1  0  0  0  0
 24 23  1  0  0  0  0
 25 24  2  0  0  0  0
 26 24  1  0  0  0  0
 27 28  1  0  0  0  0
 29 28  2  0  0  0  0
M  END
>  <MODEL>
3

>  <REMARK>
 VINA RESULT:      -7.3      1.073      1.193
  Name = 
  5 active torsions:
  status: ('A' for Active; 'I' for Inactive)
    1  A    between atoms: C_2  and  C_5
    2  A    between atoms: C_2  and  N_29
    3  A    between atoms: C_3  and  C_17
    4  A    between atoms: C_5  and  C_10
    5  A    between atoms: C_16  and  C_28
                            x       y       z     vdW  Elec       q    Type
                         _______ _______ _______ _____ _____    ______ ____

>  <TORSDO>
F 5

$$$$
=
 OpenBabel11042416303D

 29 32  0  0  1  0  0  0  0  0999 V2000
  187.2240  175.9000  142.2410 C   0  0  0  0  0  2  0  0  0  0  0  0
  189.2060  175.5660  144.2680 C   0  0  1  0  0  3  0  0  0  0  0  0
  183.7210  178.9720  144.4360 C   0  0  0  0  0  3  0  0  0  0  0  0
  188.6530  176.3550  146.9810 O   0  0  0  0  0  1  0  0  0  0  0  0
  188.0760  176.2690  144.6000 C   0  0  0  0  0  0  0  0  0  0  0  0
  185.1270  177.9160  142.8130 N   0  0  0  0  0  0  0  0  0  0  0  0
  189.5040  175.2620  142.8480 C   0  0  0  0  0  3  0  0  0  0  0  0
  186.0300  177.4410  143.8540 C   0  0  2  0  0  3  0  0  0  0  0  0
  188.6040  175.4530  141.8950 C   0  0  0  0  0  3  0  0  0  0  0  0
  184.6830  178.5670  145.4680 C   0  0  0  0  0  3  0  0  0  0  0  0
  187.1400  176.6020  143.5770 C   0  0  0  0  0  0  0  0  0  0  0  0
  185.4540  177.9110  141.3950 C   0  0  0  0  0  1  0  0  0  0  0  0
  185.7760  177.8320  145.1910 C   0  0  0  0  0  0  0  0  0  0  0  0
  183.9510  178.6520  143.1680 C   0  0  0  0  0  3  0  0  0  0  0  0
  187.8070  176.6990  145.9290 C   0  0  0  0  0  0  0  0  0  0  0  0
  186.6600  177.4600  146.2280 C   0  0  0  0  0  0  0  0  0  0  0  0
  192.3410  174.6020  144.7680 C   0  0  1  0  0  3  0  0  0  0  0  0
  190.2580  175.1720  145.2790 C   0  0  1  0  0  3  0  0  0  0  0  0
  190.9990  173.9070  144.8890 C   0  0  0  0  0  2  0  0  0  0  0  0
  191.7130  176.2590  145.1970 S   0  0  0  0  0  0  0  0  0  0  0  0
  193.2740  174.1000  145.8540 C   0  0  0  0  0  2  0  0  0  0  0  0
  194.7100  174.1240  145.3610 C   0  0  0  0  0  2  0  0  0  0  0  0
  197.0710  171.2360  146.0000 O   0  0  0  0  0  0  0  0  0  0  0  0
  196.5910  172.5370  145.9460 C   0  0  0  0  0  0  0  0  0  0  0  0
  197.3150  173.4860  146.3500 O   0  0  0  0  0  1  0  0  0  0  0  0
  195.2830  172.7880  145.4290 N   0  0  0  0  0  2  0  0  0  0  0  0
  186.9340  179.0850  148.1540 N   0  0  0  0  0  1  0  0  0  0  0  0
  186.4100  177.8630  147.6420 C   0  0  0  0  0  0  0  0  0  0  0  0
  185.7150  177.1340  148.3970 O   0  0  0  0  0  0  0  0  0  0  0  0
  1 11  1  0  0  0  0
  2  7  1  6  0  0  0
  2  5  1  0  0  0  0
  2 18  1  0  0  0  0
  3 10  1  0  0  0  0
  5 15  1  0  0  0  0
  6 14  1  0  0  0  0
  6  8  1  0  0  0  0
  8 11  1  1  0  0  0
  8 13  1  0  0  0  0
  9  1  1  0  0  0  0
  9  7  2  0  0  0  0
 11  5  2  0  0  0  0
 12  6  1  0  0  0  0
 13 10  2  0  0  0  0
 13 16  1  0  0  0  0
 14  3  2  0  0  0  0
 15 16  2  0  0  0  0
 15  4  1  0  0  0  0
 16 28  1  0  0  0  0
 17 19  1  0  0  0  0
 17 20  1  0  0  0  0
 17 21  1  1  0  0  0
 18 19  1  6  0  0  0
 20 18  1  0  0  0  0
 22 26  1  0  0  0  0
 22 21  1  0  0  0  0
 24 23  2  0  0  0  0
 24 25  1  0  0  0  0
 26 24  1  0  0  0  0
 28 27  1  0  0  0  0
 28 29  2  0  0  0  0
M  END
>  <MODEL>
4

>  <REMARK>
 VINA RESULT:      -7.3      2.287      3.756
  Name = 
  5 active torsions:
  status: ('A' for Active; 'I' for Inactive)
    1  A    between atoms: C_2  and  C_5
    2  A    between atoms: C_2  and  N_29
    3  A    between atoms: C_3  and  C_17
    4  A    between atoms: C_5  and  C_10
    5  A    between atoms: C_16  and  C_28
                            x       y       z     vdW  Elec       q    Type
                         _______ _______ _______ _____ _____    ______ ____

>  <TORSDO>
F 5

$$$$
=
 OpenBabel11042416303D

 29 32  0  0  1  0  0  0  0  0999 V2000
  188.4690  176.0990  147.0700 C   0  0  0  0  0  2  0  0  0  0  0  0
  189.6780  174.7010  144.8940 C   0  0  1  0  0  3  0  0  0  0  0  0
  185.3550  179.4980  144.7740 C   0  0  0  0  0  3  0  0  0  0  0  0
  189.4620  175.7270  142.2130 O   0  0  0  0  0  1  0  0  0  0  0  0
  188.8570  175.7570  144.5880 C   0  0  0  0  0  0  0  0  0  0  0  0
  186.2590  177.9390  146.3470 N   0  0  0  0  0  0  0  0  0  0  0  0
  189.6900  174.1400  146.2660 C   0  0  0  0  0  3  0  0  0  0  0  0
  187.1450  177.3780  145.3340 C   0  0  0  0  0  0  0  0  0  0  0  0
  189.0950  174.7610  147.2730 C   0  0  0  0  0  3  0  0  0  0  0  0
  186.1830  178.8670  143.7390 C   0  0  0  0  0  3  0  0  0  0  0  0
  188.1050  176.3750  145.6290 C   0  0  0  0  0  0  0  0  0  0  0  0
  185.9930  177.3040  147.6300 C   0  0  0  0  0  1  0  0  0  0  0  0
  187.0410  177.8650  144.0080 C   0  0  0  0  0  0  0  0  0  0  0  0
  185.4030  179.0390  146.0180 C   0  0  0  0  0  3  0  0  0  0  0  0
  188.7100  176.2510  143.2620 C   0  0  0  0  0  0  0  0  0  0  0  0
  187.8230  177.3060  142.9740 C   0  0  1  0  0  3  0  0  0  0  0  0
  191.6190  172.0920  144.2350 C   0  0  1  0  0  3  0  0  0  0  0  0
  190.5100  173.9780  143.8600 C   0  0  1  0  0  3  0  0  0  0  0  0
  191.8760  173.5790  144.3840 C   0  0  0  0  0  2  0  0  0  0  0  0
  189.9230  172.2780  143.5910 S   0  0  0  0  0  0  0  0  0  0  0  0
  192.5260  171.5240  143.1590 C   0  0  0  0  0  2  0  0  0  0  0  0
  192.6310  170.0170  143.3080 C   0  0  0  0  0  2  0  0  0  0  0  0
  191.9260  168.3800  139.9700 O   0  0  0  0  0  0  0  0  0  0  0  0
  191.6960  168.9460  141.2160 C   0  0  0  0  0  0  0  0  0  0  0  0
  190.5160  169.0530  141.6450 O   0  0  0  0  0  1  0  0  0  0  0  0
  192.8000  169.3970  142.0020 N   0  0  0  0  0  2  0  0  0  0  0  0
  186.6970  177.3390  140.7030 N   0  0  0  0  0  1  0  0  0  0  0  0
  187.7260  177.8050  141.5720 C   0  0  0  0  0  0  0  0  0  0  0  0
  188.5440  178.6610  141.1440 O   0  0  0  0  0  0  0  0  0  0  0  0
  1  9  1  0  0  0  0
  2  7  1  6  0  0  0
  3 14  2  0  0  0  0
  4 15  1  0  0  0  0
  5  2  1  0  0  0  0
  5 11  1  0  0  0  0
  6 12  1  0  0  0  0
  7  9  2  0  0  0  0
  8 11  2  0  0  0  0
  8  6  1  0  0  0  0
 10 13  2  0  0  0  0
 10  3  1  0  0  0  0
 11  1  1  0  0  0  0
 13  8  1  0  0  0  0
 14  6  1  0  0  0  0
 15  5  2  0  0  0  0
 16 28  1  6  0  0  0
 16 15  1  0  0  0  0
 16 13  1  0  0  0  0
 17 21  1  6  0  0  0
 17 19  1  0  0  0  0
 18 19  1  1  0  0  0
 18  2  1  0  0  0  0
 20 18  1  0  0  0  0
 20 17  1  0  0  0  0
 21 22  1  0  0  0  0
 23 24  2  0  0  0  0
 24 25  1  0  0  0  0
 24 26  1  0  0  0  0
 26 22  1  0  0  0  0
 27 28  1  0  0  0  0
 29 28  2  0  0  0  0
M  END
>  <MODEL>
5

>  <REMARK>
 VINA RESULT:      -7.0      2.653      2.957
  Name = 
  5 active torsions:
  status: ('A' for Active; 'I' for Inactive)
    1  A    between atoms: C_2  and  C_5
    2  A    between atoms: C_2  and  N_29
    3  A    between atoms: C_3  and  C_17
    4  A    between atoms: C_5  and  C_10
    5  A    between atoms: C_16  and  C_28
                            x       y       z     vdW  Elec       q    Type
                         _______ _______ _______ _____ _____    ______ ____

>  <TORSDO>
F 5

$$$$
=
 OpenBabel11042416303D

 29 32  0  0  1  0  0  0  0  0999 V2000
  189.2110  177.8260  147.2850 C   0  0  0  0  0  2  0  0  0  0  0  0
  191.0010  176.5200  145.4870 C   0  0  1  0  0  3  0  0  0  0  0  0
  184.8080  178.1400  144.6310 C   0  0  0  0  0  3  0  0  0  0  0  0
  190.3160  176.2430  142.7040 O   0  0  0  0  0  1  0  0  0  0  0  0
  189.7540  176.8390  145.0140 C   0  0  0  0  0  0  0  0  0  0  0  0
  186.3740  177.9290  146.4270 N   0  0  0  0  0  0  0  0  0  0  0  0
  191.2870  176.5840  146.9400 C   0  0  0  0  0  3  0  0  0  0  0  0
  187.4360  177.5500  145.5030 C   0  0  0  0  0  0  0  0  0  0  0  0
  190.4420  177.1520  147.7870 C   0  0  0  0  0  3  0  0  0  0  0  0
  185.8580  177.6710  143.7190 C   0  0  0  0  0  3  0  0  0  0  0  0
  188.7750  177.3380  145.9230 C   0  0  0  0  0  0  0  0  0  0  0  0
  186.4630  177.7660  147.8710 C   0  0  0  0  0  1  0  0  0  0  0  0
  187.1100  177.3990  144.1330 C   0  0  0  0  0  0  0  0  0  0  0  0
  185.0730  178.2570  145.9260 C   0  0  0  0  0  3  0  0  0  0  0  0
  189.3870  176.6720  143.6500 C   0  0  0  0  0  0  0  0  0  0  0  0
  188.0830  176.9630  143.2070 C   0  0  1  0  0  3  0  0  0  0  0  0
  194.0970  175.3370  145.3350 C   0  0  1  0  0  3  0  0  0  0  0  0
  192.1030  175.9800  144.6040 C   0  0  1  0  0  3  0  0  0  0  0  0
  193.4460  176.6280  144.8810 C   0  0  0  0  0  2  0  0  0  0  0  0
  192.6100  174.3070  145.1060 S   0  0  0  0  0  0  0  0  0  0  0  0
  195.1710  174.9320  144.3420 C   0  0  0  0  0  2  0  0  0  0  0  0
  196.4400  174.5410  145.0770 C   0  0  0  0  0  2  0  0  0  0  0  0
  196.8160  170.9280  146.1390 O   0  0  0  0  0  1  0  0  0  0  0  0
  197.0330  172.1090  145.4440 C   0  0  0  0  0  0  0  0  0  0  0  0
  197.9140  172.1500  144.5440 O   0  0  0  0  0  0  0  0  0  0  0  0
  196.2530  173.2650  145.7520 N   0  0  0  0  0  2  0  0  0  0  0  0
  187.7720  177.9160  140.8780 N   0  0  0  0  0  1  0  0  0  0  0  0
  187.7570  176.7970  141.7610 C   0  0  0  0  0  0  0  0  0  0  0  0
  187.4820  175.6590  141.2980 O   0  0  0  0  0  0  0  0  0  0  0  0
  1  9  1  0  0  0  0
  2  7  1  1  0  0  0
  3 14  2  0  0  0  0
  4 15  1  0  0  0  0
  5  2  1  0  0  0  0
  5 11  1  0  0  0  0
  6 12  1  0  0  0  0
  7  9  2  0  0  0  0
  8 11  2  0  0  0  0
  8  6  1  0  0  0  0
 10 13  2  0  0  0  0
 10  3  1  0  0  0  0
 11  1  1  0  0  0  0
 13  8  1  0  0  0  0
 14  6  1  0  0  0  0
 15  5  2  0  0  0  0
 16 28  1  1  0  0  0
 16 15  1  0  0  0  0
 16 13  1  0  0  0  0
 17 21  1  6  0  0  0
 18 19  1  1  0  0  0
 18 20  1  0  0  0  0
 18  2  1  0  0  0  0
 19 17  1  0  0  0  0
 20 17  1  0  0  0  0
 21 22  1  0  0  0  0
 22 26  1  0  0  0  0
 24 26  1  0  0  0  0
 24 23  1  0  0  0  0
 25 24  2  0  0  0  0
 27 28  1  0  0  0  0
 29 28  2  0  0  0  0
M  END
>  <MODEL>
6

>  <REMARK>
 VINA RESULT:      -6.8      1.872      2.015
  Name = 
  5 active torsions:
  status: ('A' for Active; 'I' for Inactive)
    1  A    between atoms: C_2  and  C_5
    2  A    between atoms: C_2  and  N_29
    3  A    between atoms: C_3  and  C_17
    4  A    between atoms: C_5  and  C_10
    5  A    between atoms: C_16  and  C_28
                            x       y       z     vdW  Elec       q    Type
                         _______ _______ _______ _____ _____    ______ ____

>  <TORSDO>
F 5

$$$$
=
 OpenBabel11042416303D

 29 32  0  0  1  0  0  0  0  0999 V2000
  189.0770  177.9140  147.2960 C   0  0  0  0  0  2  0  0  0  0  0  0
  190.7810  176.4420  145.5420 C   0  0  1  0  0  3  0  0  0  0  0  0
  184.7070  178.4360  144.6210 C   0  0  0  0  0  3  0  0  0  0  0  0
  190.0830  176.1300  142.7660 O   0  0  0  0  0  1  0  0  0  0  0  0
  189.5570  176.8280  145.0570 C   0  0  0  0  0  0  0  0  0  0  0  0
  186.2550  178.1760  146.4270 N   0  0  0  0  0  0  0  0  0  0  0  0
  191.0690  176.5310  146.9930 C   0  0  0  0  0  3  0  0  0  0  0  0
  187.2900  177.7020  145.5170 C   0  0  0  0  0  0  0  0  0  0  0  0
  190.2610  177.1760  147.8210 C   0  0  0  0  0  3  0  0  0  0  0  0
  185.7260  177.8730  143.7260 C   0  0  0  0  0  3  0  0  0  0  0  0
  188.6120  177.4150  145.9480 C   0  0  0  0  0  0  0  0  0  0  0  0
  186.3310  178.0500  147.8750 C   0  0  0  0  0  1  0  0  0  0  0  0
  186.9570  177.5330  144.1520 C   0  0  0  0  0  0  0  0  0  0  0  0
  184.9780  178.5730  145.9130 C   0  0  0  0  0  3  0  0  0  0  0  0
  189.1830  176.6450  143.6970 C   0  0  0  0  0  0  0  0  0  0  0  0
  187.9010  177.0080  143.2410 C   0  0  1  0  0  3  0  0  0  0  0  0
  194.0270  175.9410  145.0700 C   0  0  1  0  0  3  0  0  0  0  0  0
  191.8460  175.8070  144.6780 C   0  0  1  0  0  3  0  0  0  0  0  0
  192.9770  176.7610  144.3460 C   0  0  0  0  0  2  0  0  0  0  0  0
  192.8740  174.6420  145.6240 S   0  0  0  0  0  0  0  0  0  0  0  0
  195.0110  175.3720  144.0640 C   0  0  0  0  0  2  0  0  0  0  0  0
  196.1830  176.3200  143.8870 C   0  0  0  0  0  2  0  0  0  0  0  0
  197.1960  176.0410  140.2520 O   0  0  0  0  0  0  0  0  0  0  0  0
  196.4450  176.3670  141.3720 C   0  0  0  0  0  0  0  0  0  0  0  0
  195.3570  176.9870  141.2340 O   0  0  0  0  0  1  0  0  0  0  0  0
  196.9100  175.9930  142.6700 N   0  0  0  0  0  2  0  0  0  0  0  0
  187.6340  177.9150  140.8890 N   0  0  0  0  0  1  0  0  0  0  0  0
  187.5660  176.8220  141.8000 C   0  0  0  0  0  0  0  0  0  0  0  0
  187.2360  175.6860  141.3660 O   0  0  0  0  0  0  0  0  0  0  0  0
  1  9  1  0  0  0  0
  2  7  1  1  0  0  0
  3 14  2  0  0  0  0
  4 15  1  0  0  0  0
  5  2  1  0  0  0  0
  5 11  1  0  0  0  0
  6 12  1  0  0  0  0
  7  9  2  0  0  0  0
  8 11  2  0  0  0  0
  8  6  1  0  0  0  0
 10 13  2  0  0  0  0
 10  3  1  0  0  0  0
 11  1  1  0  0  0  0
 13  8  1  0  0  0  0
 14  6  1  0  0  0  0
 15  5  2  0  0  0  0
 16 28  1  1  0  0  0
 16 15  1  0  0  0  0
 16 13  1  0  0  0  0
 17 21  1  6  0  0  0
 17 20  1  0  0  0  0
 18 19  1  1  0  0  0
 18  2  1  0  0  0  0
 18 20  1  0  0  0  0
 19 17  1  0  0  0  0
 22 21  1  0  0  0  0
 23 24  2  0  0  0  0
 24 26  1  0  0  0  0
 25 24  1  0  0  0  0
 26 22  1  0  0  0  0
 27 28  1  0  0  0  0
 29 28  2  0  0  0  0
M  END
>  <MODEL>
7

>  <REMARK>
 VINA RESULT:      -6.8      2.806      3.071
  Name = 
  5 active torsions:
  status: ('A' for Active; 'I' for Inactive)
    1  A    between atoms: C_2  and  C_5
    2  A    between atoms: C_2  and  N_29
    3  A    between atoms: C_3  and  C_17
    4  A    between atoms: C_5  and  C_10
    5  A    between atoms: C_16  and  C_28
                            x       y       z     vdW  Elec       q    Type
                         _______ _______ _______ _____ _____    ______ ____

>  <TORSDO>
F 5

$$$$
=
 OpenBabel11042416303D

 29 32  0  0  1  0  0  0  0  0999 V2000
  186.4990  176.8070  142.2710 C   0  0  0  0  0  2  0  0  0  0  0  0
  188.7290  175.0250  142.2970 C   0  0  1  0  0  3  0  0  0  0  0  0
  186.2900  178.5920  147.0980 C   0  0  0  0  0  3  0  0  0  0  0  0
  189.8800  174.1790  144.7970 O   0  0  0  0  0  1  0  0  0  0  0  0
  188.3570  175.5880  143.4910 C   0  0  0  0  0  0  0  0  0  0  0  0
  186.1340  178.4460  144.7150 N   0  0  0  0  0  0  0  0  0  0  0  0
  188.1850  175.5530  141.0230 C   0  0  0  0  0  3  0  0  0  0  0  0
  187.0460  177.3090  144.6900 C   0  0  2  0  0  3  0  0  0  0  0  0
  187.1780  176.4120  141.0030 C   0  0  0  0  0  3  0  0  0  0  0  0
  187.2760  177.5050  147.0550 C   0  0  0  0  0  3  0  0  0  0  0  0
  187.3600  176.6080  143.4970 C   0  0  0  0  0  0  0  0  0  0  0  0
  185.7580  179.2070  143.5320 C   0  0  0  0  0  1  0  0  0  0  0  0
  187.6280  176.8900  145.9110 C   0  0  0  0  0  0  0  0  0  0  0  0
  185.7540  179.0310  145.9650 C   0  0  0  0  0  3  0  0  0  0  0  0
  188.9430  175.2090  144.7310 C   0  0  0  0  0  0  0  0  0  0  0  0
  188.5730  175.8400  145.9340 C   0  0  0  0  0  0  0  0  0  0  0  0
  189.8070  172.3740  140.6190 C   0  0  1  0  0  3  0  0  0  0  0  0
  189.7790  173.9440  142.1880 C   0  0  1  0  0  3  0  0  0  0  0  0
  189.1800  172.5650  141.9860 C   0  0  0  0  0  2  0  0  0  0  0  0
  190.6380  173.9970  140.5870 S   0  0  0  0  0  0  0  0  0  0  0  0
  190.8380  171.2610  140.6830 C   0  0  0  0  0  2  0  0  0  0  0  0
  190.6940  170.3480  139.4790 C   0  0  0  0  0  2  0  0  0  0  0  0
  189.3440  171.2550  136.0630 O   0  0  0  0  0  0  0  0  0  0  0  0
  189.9750  170.5270  137.0610 C   0  0  0  0  0  0  0  0  0  0  0  0
  190.4660  169.3980  136.7930 O   0  0  0  0  0  1  0  0  0  0  0  0
  190.0640  171.0660  138.3810 N   0  0  0  0  0  2  0  0  0  0  0  0
  190.4460  175.9220  147.6390 N   0  0  0  0  0  1  0  0  0  0  0  0
  189.1970  175.3870  147.2100 C   0  0  0  0  0  0  0  0  0  0  0  0
  188.6170  174.5350  147.9340 O   0  0  0  0  0  0  0  0  0  0  0  0
  1 11  1  0  0  0  0
  2  7  1  6  0  0  0
  2  5  1  0  0  0  0
  5 11  2  0  0  0  0
  5 15  1  0  0  0  0
  6 14  1  0  0  0  0
  8 11  1  1  0  0  0
  8  6  1  0  0  0  0
  8 13  1  0  0  0  0
  9  7  2  0  0  0  0
  9  1  1  0  0  0  0
 10  3  1  0  0  0  0
 12  6  1  0  0  0  0
 13 16  1  0  0  0  0
 13 10  2  0  0  0  0
 14  3  2  0  0  0  0
 15  4  1  0  0  0  0
 15 16  2  0  0  0  0
 16 28  1  0  0  0  0
 17 21  1  1  0  0  0
 17 19  1  0  0  0  0
 18 19  1  6  0  0  0
 18  2  1  0  0  0  0
 20 17  1  0  0  0  0
 20 18  1  0  0  0  0
 22 21  1  0  0  0  0
 23 24  2  0  0  0  0
 24 26  1  0  0  0  0
 25 24  1  0  0  0  0
 26 22  1  0  0  0  0
 28 27  1  0  0  0  0
 28 29  2  0  0  0  0
M  END
>  <MODEL>
8

>  <REMARK>
 VINA RESULT:      -6.6      3.818      5.793
  Name = 
  5 active torsions:
  status: ('A' for Active; 'I' for Inactive)
    1  A    between atoms: C_2  and  C_5
    2  A    between atoms: C_2  and  N_29
    3  A    between atoms: C_3  and  C_17
    4  A    between atoms: C_5  and  C_10
    5  A    between atoms: C_16  and  C_28
                            x       y       z     vdW  Elec       q    Type
                         _______ _______ _______ _____ _____    ______ ____

>  <TORSDO>
F 5

$$$$
=
 OpenBabel11042416303D

 29 32  0  0  1  0  0  0  0  0999 V2000
  188.1190  175.1190  141.3480 C   0  0  0  0  0  2  0  0  0  0  0  0
  189.9010  174.2320  143.3940 C   0  0  1  0  0  3  0  0  0  0  0  0
  185.5570  179.0100  143.5450 C   0  0  0  0  0  3  0  0  0  0  0  0
  189.5410  175.1120  146.1120 O   0  0  0  0  0  1  0  0  0  0  0  0
  189.0010  175.2140  143.7230 C   0  0  0  0  0  0  0  0  0  0  0  0
  186.6460  177.6270  141.9240 N   0  0  0  0  0  0  0  0  0  0  0  0
  190.1260  173.8730  141.9740 C   0  0  0  0  0  3  0  0  0  0  0  0
  187.3670  176.9110  142.9690 C   0  0  2  0  0  3  0  0  0  0  0  0
  189.3290  174.3150  141.0130 C   0  0  0  0  0  3  0  0  0  0  0  0
  186.3550  178.3450  144.5830 C   0  0  0  0  0  3  0  0  0  0  0  0
  188.2090  175.8020  142.6930 C   0  0  0  0  0  0  0  0  0  0  0  0
  186.9820  177.5480  140.5100 C   0  0  0  0  0  1  0  0  0  0  0  0
  187.2090  177.3410  144.3090 C   0  0  0  0  0  0  0  0  0  0  0  0
  185.7110  178.6530  142.2760 C   0  0  0  0  0  3  0  0  0  0  0  0
  188.8380  175.6870  145.0550 C   0  0  0  0  0  0  0  0  0  0  0  0
  187.9400  176.7290  145.3510 C   0  0  0  0  0  0  0  0  0  0  0  0
  192.6920  172.5220  143.9300 C   0  0  1  0  0  3  0  0  0  0  0  0
  190.7870  173.5530  144.4120 C   0  0  1  0  0  3  0  0  0  0  0  0
  191.2200  172.1650  143.9790 C   0  0  0  0  0  2  0  0  0  0  0  0
  192.4630  174.2610  144.4270 S   0  0  0  0  0  0  0  0  0  0  0  0
  193.4360  171.7630  145.0150 C   0  0  0  0  0  2  0  0  0  0  0  0
  194.8860  171.5670  144.6130 C   0  0  0  0  0  2  0  0  0  0  0  0
  197.1940  173.7910  146.6260 O   0  0  0  0  0  1  0  0  0  0  0  0
  196.3800  173.3610  145.5870 C   0  0  0  0  0  0  0  0  0  0  0  0
  196.1940  174.1080  144.5900 O   0  0  0  0  0  0  0  0  0  0  0  0
  195.7660  172.0730  145.6560 N   0  0  0  0  0  2  0  0  0  0  0  0
  186.6840  176.7270  147.5530 N   0  0  0  0  0  1  0  0  0  0  0  0
  187.7870  177.1700  146.7670 C   0  0  0  0  0  0  0  0  0  0  0  0
  188.6440  177.9290  147.2930 O   0  0  0  0  0  0  0  0  0  0  0  0
  1 11  1  0  0  0  0
  2  7  1  6  0  0  0
  2  5  1  0  0  0  0
  2 18  1  0  0  0  0
  3 10  1  0  0  0  0
  5 15  1  0  0  0  0
  6 14  1  0  0  0  0
  6  8  1  0  0  0  0
  8 11  1  1  0  0  0
  8 13  1  0  0  0  0
  9  1  1  0  0  0  0
  9  7  2  0  0  0  0
 11  5  2  0  0  0  0
 12  6  1  0  0  0  0
 13 10  2  0  0  0  0
 13 16  1  0  0  0  0
 14  3  2  0  0  0  0
 15 16  2  0  0  0  0
 15  4  1  0  0  0  0
 16 28  1  0  0  0  0
 17 19  1  0  0  0  0
 17 20  1  0  0  0  0
 17 21  1  1  0  0  0
 18 19  1  6  0  0  0
 18 20  1  0  0  0  0
 22 21  1  0  0  0  0
 22 26  1  0  0  0  0
 24 26  1  0  0  0  0
 24 23  1  0  0  0  0
 25 24  2  0  0  0  0
 28 29  2  0  0  0  0
 28 27  1  0  0  0  0
M  END
>  <MODEL>
9

>  <REMARK>
 VINA RESULT:      -6.6      1.919      3.544
  Name = 
  5 active torsions:
  status: ('A' for Active; 'I' for Inactive)
    1  A    between atoms: C_2  and  C_5
    2  A    between atoms: C_2  and  N_29
    3  A    between atoms: C_3  and  C_17
    4  A    between atoms: C_5  and  C_10
    5  A    between atoms: C_16  and  C_28
                            x       y       z     vdW  Elec       q    Type
                         _______ _______ _______ _____ _____    ______ ____

>  <TORSDO>
F 5

$$$$
