=
 OpenBabel11042417253D

 29 31  0  0  1  0  0  0  0  0999 V2000
  190.6930  174.3920  143.4650 C   0  0  0  0  0  0  0  0  0  0  0  0
  188.6000  172.9250  141.9270 C   0  0  2  0  0  3  0  0  0  0  0  0
  190.0060  171.0210  142.2950 O   0  0  0  0  0  0  0  0  0  0  0  0
  191.6480  175.0440  143.9570 O   0  0  0  0  0  0  0  0  0  0  0  0
  190.8730  173.0120  143.1320 N   0  0  0  0  0  2  0  0  0  0  0  0
  189.8500  172.2590  142.4620 C   0  0  0  0  0  0  0  0  0  0  0  0
  189.3900  175.0070  143.1760 C   0  0  0  0  0  0  0  0  0  0  0  0
  187.3580  175.1650  142.2580 C   0  0  0  0  0  3  0  0  0  0  0  0
  187.6270  176.3450  142.8560 N   0  0  0  0  0  0  0  0  0  0  0  0
  188.8520  176.2690  143.4190 C   0  0  0  0  0  0  0  0  0  0  0  0
  188.6490  172.9550  140.4080 C   0  0  0  0  0  1  0  0  0  0  0  0
  188.4350  174.3210  142.4590 C   0  0  0  0  0  0  0  0  0  0  0  0
  186.7750  177.5330  142.8490 C   0  0  1  0  0  3  0  0  0  0  0  0
  186.5810  178.0540  141.4300 C   0  0  0  0  0  1  0  0  0  0  0  0
  184.5600  178.5360  143.6200 C   0  0  0  0  0  2  0  0  0  0  0  0
  185.4570  177.3050  143.6050 C   0  0  2  0  0  3  0  0  0  0  0  0
  184.8070  177.6600  145.8200 C   0  0  1  0  0  3  0  0  0  0  0  0
  184.4350  178.9200  145.0690 C   0  0  0  0  0  2  0  0  0  0  0  0
  185.7300  176.9050  144.9810 N   0  0  0  0  0  2  0  0  0  0  0  0
  186.4790  178.8780  147.0060 F   0  0  0  0  0  0  0  0  0  0  0  0
  184.4940  178.5330  148.0080 F   0  0  0  0  0  0  0  0  0  0  0  0
  185.4440  177.9750  147.1720 C   0  0  0  0  0  0  0  0  0  0  0  0
  185.9380  176.8200  147.7560 F   0  0  0  0  0  0  0  0  0  0  0  0
  189.4190  177.3430  144.1150 O   0  0  0  0  0  0  0  0  0  0  0  0
  189.4980  177.4170  145.5270 C   0  0  0  0  0  2  0  0  0  0  0  0
  190.8450  175.6230  147.3510 O   0  0  0  0  0  0  0  0  0  0  0  0
  188.8360  176.2630  146.1090 N   0  0  0  0  0  2  0  0  0  0  0  0
  189.5170  175.3930  147.0110 C   0  0  0  0  0  0  0  0  0  0  0  0
  188.9100  174.4070  147.5050 O   0  0  0  0  0  1  0  0  0  0  0  0
  1  4  2  0  0  0  0
  2 11  1  6  0  0  0
  2 12  1  0  0  0  0
  2  6  1  0  0  0  0
  3  6  2  0  0  0  0
  5  1  1  0  0  0  0
  6  5  1  0  0  0  0
  7 10  2  0  0  0  0
  7  1  1  0  0  0  0
  8 12  2  0  0  0  0
  8  9  1  0  0  0  0
  9 10  1  0  0  0  0
 10 24  1  0  0  0  0
 12  7  1  0  0  0  0
 13 14  1  6  0  0  0
 13  9  1  0  0  0  0
 15 18  1  0  0  0  0
 16 13  1  1  0  0  0
 16 15  1  0  0  0  0
 16 19  1  0  0  0  0
 17 22  1  1  0  0  0
 18 17  1  0  0  0  0
 19 17  1  0  0  0  0
 20 22  1  0  0  0  0
 22 23  1  0  0  0  0
 22 21  1  0  0  0  0
 24 25  1  0  0  0  0
 25 27  1  0  0  0  0
 27 28  1  0  0  0  0
 28 26  2  0  0  0  0
 28 29  1  0  0  0  0
M  END
>  <MODEL>
1

>  <REMARK>
 VINA RESULT:      -7.3      0.000      0.000
  Name = 
  6 active torsions:
  status: ('A' for Active; 'I' for Inactive)
    1  A    between atoms: C_8  and  C_12
    2  A    between atoms: N_10  and  C_14
    3  A    between atoms: C_11  and  C_13
    4  A    between atoms: C_13  and  N_25
    5  A    between atoms: C_14  and  O_18
    6  A    between atoms: O_18  and  C_26
                            x       y       z     vdW  Elec       q    Type
                         _______ _______ _______ _____ _____    ______ ____

>  <TORSDO>
F 6

$$$$
=
 OpenBabel11042417253D

 29 31  0  0  1  0  0  0  0  0999 V2000
  192.9220  175.0220  142.8230 C   0  0  0  0  0  0  0  0  0  0  0  0
  193.8650  176.6060  145.1680 C   0  0  2  0  0  3  0  0  0  0  0  0
  195.9270  176.7230  143.9550 O   0  0  0  0  0  0  0  0  0  0  0  0
  192.5760  174.2140  141.9240 O   0  0  0  0  0  0  0  0  0  0  0  0
  194.2850  175.4480  142.9070 N   0  0  0  0  0  2  0  0  0  0  0  0
  194.7490  176.2770  143.9840 C   0  0  0  0  0  0  0  0  0  0  0  0
  191.9770  175.5260  143.8300 C   0  0  0  0  0  0  0  0  0  0  0  0
  191.3470  176.5130  145.7340 C   0  0  0  0  0  3  0  0  0  0  0  0
  190.2430  175.9820  145.1660 N   0  0  0  0  0  0  0  0  0  0  0  0
  190.6040  175.3820  144.0120 C   0  0  0  0  0  0  0  0  0  0  0  0
  194.3660  175.8670  146.3980 C   0  0  0  0  0  1  0  0  0  0  0  0
  192.4270  176.2510  144.9110 C   0  0  0  0  0  0  0  0  0  0  0  0
  188.8920  175.9910  145.7250 C   0  0  1  0  0  3  0  0  0  0  0  0
  188.8230  175.1500  146.9930 C   0  0  0  0  0  1  0  0  0  0  0  0
  188.1050  177.7810  147.3620 C   0  0  0  0  0  2  0  0  0  0  0  0
  188.3490  177.4170  145.9040 C   0  0  2  0  0  3  0  0  0  0  0  0
  186.1880  178.2920  146.0460 C   0  0  1  0  0  3  0  0  0  0  0  0
  186.6240  178.0260  147.4700 C   0  0  0  0  0  2  0  0  0  0  0  0
  187.1000  177.5740  145.1640 N   0  0  0  0  0  2  0  0  0  0  0  0
  184.5460  177.6180  144.4540 F   0  0  0  0  0  0  0  0  0  0  0  0
  184.5010  176.6800  146.4990 F   0  0  0  0  0  0  0  0  0  0  0  0
  184.7460  177.8510  145.8030 C   0  0  0  0  0  0  0  0  0  0  0  0
  183.8610  178.8260  146.2320 F   0  0  0  0  0  0  0  0  0  0  0  0
  189.6750  174.7320  143.1890 O   0  0  0  0  0  0  0  0  0  0  0  0
  189.2600  175.2200  141.9260 C   0  0  0  0  0  2  0  0  0  0  0  0
  188.2370  177.8730  141.4000 O   0  0  0  0  0  0  0  0  0  0  0  0
  187.8410  175.5260  141.9680 N   0  0  0  0  0  2  0  0  0  0  0  0
  187.3560  176.8400  141.7010 C   0  0  0  0  0  0  0  0  0  0  0  0
  186.1190  177.0670  141.7360 O   0  0  0  0  0  1  0  0  0  0  0  0
  1  5  1  0  0  0  0
  1  7  1  0  0  0  0
  2 11  1  1  0  0  0
  3  6  2  0  0  0  0
  4  1  2  0  0  0  0
  5  6  1  0  0  0  0
  6  2  1  0  0  0  0
  7 10  2  0  0  0  0
  7 12  1  0  0  0  0
  9 13  1  0  0  0  0
  9  8  1  0  0  0  0
 10  9  1  0  0  0  0
 12  2  1  0  0  0  0
 12  8  2  0  0  0  0
 13 14  1  1  0  0  0
 15 18  1  0  0  0  0
 16 13  1  1  0  0  0
 16 15  1  0  0  0  0
 17 22  1  1  0  0  0
 17 18  1  0  0  0  0
 19 16  1  0  0  0  0
 19 17  1  0  0  0  0
 20 22  1  0  0  0  0
 22 23  1  0  0  0  0
 22 21  1  0  0  0  0
 24 10  1  0  0  0  0
 25 27  1  0  0  0  0
 25 24  1  0  0  0  0
 26 28  2  0  0  0  0
 28 29  1  0  0  0  0
 28 27  1  0  0  0  0
M  END
>  <MODEL>
2

>  <REMARK>
 VINA RESULT:      -7.2      2.645      4.813
  Name = 
  6 active torsions:
  status: ('A' for Active; 'I' for Inactive)
    1  A    between atoms: C_8  and  C_12
    2  A    between atoms: N_10  and  C_14
    3  A    between atoms: C_11  and  C_13
    4  A    between atoms: C_13  and  N_25
    5  A    between atoms: C_14  and  O_18
    6  A    between atoms: O_18  and  C_26
                            x       y       z     vdW  Elec       q    Type
                         _______ _______ _______ _____ _____    ______ ____

>  <TORSDO>
F 6

$$$$
=
 OpenBabel11042417253D

 29 31  0  0  1  0  0  0  0  0999 V2000
  185.3170  178.2010  143.4690 C   0  0  0  0  0  0  0  0  0  0  0  0
  186.1850  177.9170  146.3080 C   0  0  2  0  0  3  0  0  0  0  0  0
  183.8370  177.9640  146.7790 O   0  0  0  0  0  0  0  0  0  0  0  0
  184.9670  178.4930  142.2970 O   0  0  0  0  0  0  0  0  0  0  0  0
  184.3560  178.2450  144.5270 N   0  0  0  0  0  2  0  0  0  0  0  0
  184.7330  178.0330  145.8960 C   0  0  0  0  0  0  0  0  0  0  0  0
  186.7020  177.8480  143.8080 C   0  0  0  0  0  0  0  0  0  0  0  0
  188.4530  177.4830  145.1500 C   0  0  0  0  0  3  0  0  0  0  0  0
  188.8990  177.4320  143.8760 N   0  0  0  0  0  0  0  0  0  0  0  0
  187.8540  177.6490  143.0500 C   0  0  0  0  0  0  0  0  0  0  0  0
  186.5970  179.1620  147.0770 C   0  0  0  0  0  1  0  0  0  0  0  0
  187.0910  177.7270  145.1240 C   0  0  0  0  0  0  0  0  0  0  0  0
  190.2830  177.2390  143.4510 C   0  0  1  0  0  3  0  0  0  0  0  0
  191.1200  178.4770  143.7480 C   0  0  0  0  0  1  0  0  0  0  0  0
  189.9320  174.7590  143.9320 C   0  0  0  0  0  2  0  0  0  0  0  0
  190.8870  175.9420  144.0120 C   0  0  2  0  0  3  0  0  0  0  0  0
  190.8430  174.9460  146.1240 C   0  0  1  0  0  3  0  0  0  0  0  0
  189.6800  174.3540  145.3590 C   0  0  0  0  0  2  0  0  0  0  0  0
  191.2840  176.1340  145.4030 N   0  0  0  0  0  2  0  0  0  0  0  0
  189.2880  174.6450  147.9060 F   0  0  0  0  0  0  0  0  0  0  0  0
  191.4640  174.9030  148.4180 F   0  0  0  0  0  0  0  0  0  0  0  0
  190.4560  175.3010  147.5580 C   0  0  0  0  0  0  0  0  0  0  0  0
  190.2650  176.6670  147.6860 F   0  0  0  0  0  0  0  0  0  0  0  0
  187.9970  177.6610  141.6560 O   0  0  0  0  0  0  0  0  0  0  0  0
  187.5040  176.6440  140.8020 C   0  0  0  0  0  2  0  0  0  0  0  0
  188.3050  174.5600  138.9630 O   0  0  0  0  0  0  0  0  0  0  0  0
  187.9910  175.3540  141.2570 N   0  0  0  0  0  2  0  0  0  0  0  0
  188.3860  174.3410  140.3340 C   0  0  0  0  0  0  0  0  0  0  0  0
  188.8120  173.2380  140.7630 O   0  0  0  0  0  1  0  0  0  0  0  0
  1  7  1  0  0  0  0
  1  5  1  0  0  0  0
  2 11  1  6  0  0  0
  4  1  2  0  0  0  0
  5  6  1  0  0  0  0
  6  2  1  0  0  0  0
  6  3  2  0  0  0  0
  7 12  1  0  0  0  0
  9  8  1  0  0  0  0
 10  7  2  0  0  0  0
 10  9  1  0  0  0  0
 12  8  2  0  0  0  0
 12  2  1  0  0  0  0
 13 14  1  1  0  0  0
 13  9  1  0  0  0  0
 15 16  1  0  0  0  0
 15 18  1  0  0  0  0
 16 13  1  1  0  0  0
 16 19  1  0  0  0  0
 17 22  1  1  0  0  0
 18 17  1  0  0  0  0
 19 17  1  0  0  0  0
 22 23  1  0  0  0  0
 22 20  1  0  0  0  0
 22 21  1  0  0  0  0
 24 10  1  0  0  0  0
 25 27  1  0  0  0  0
 25 24  1  0  0  0  0
 26 28  2  0  0  0  0
 28 29  1  0  0  0  0
 28 27  1  0  0  0  0
M  END
>  <MODEL>
3

>  <REMARK>
 VINA RESULT:      -7.1      3.014      6.315
  Name = 
  6 active torsions:
  status: ('A' for Active; 'I' for Inactive)
    1  A    between atoms: C_8  and  C_12
    2  A    between atoms: N_10  and  C_14
    3  A    between atoms: C_11  and  C_13
    4  A    between atoms: C_13  and  N_25
    5  A    between atoms: C_14  and  O_18
    6  A    between atoms: O_18  and  C_26
                            x       y       z     vdW  Elec       q    Type
                         _______ _______ _______ _____ _____    ______ ____

>  <TORSDO>
F 6

$$$$
=
 OpenBabel11042417253D

 29 31  0  0  1  0  0  0  0  0999 V2000
  186.3000  177.9870  143.7430 C   0  0  0  0  0  0  0  0  0  0  0  0
  185.8220  177.5540  146.6550 C   0  0  2  0  0  3  0  0  0  0  0  0
  183.7090  178.5950  146.2180 O   0  0  0  0  0  0  0  0  0  0  0  0
  186.5750  178.3220  142.5630 O   0  0  0  0  0  0  0  0  0  0  0  0
  185.1140  178.4910  144.3650 N   0  0  0  0  0  2  0  0  0  0  0  0
  184.8190  178.2310  145.7460 C   0  0  0  0  0  0  0  0  0  0  0  0
  187.1790  177.1170  144.5370 C   0  0  0  0  0  0  0  0  0  0  0  0
  187.9730  176.1500  146.3890 C   0  0  0  0  0  3  0  0  0  0  0  0
  188.8100  175.8370  145.3750 N   0  0  0  0  0  0  0  0  0  0  0  0
  188.3450  176.4120  144.2460 C   0  0  0  0  0  0  0  0  0  0  0  0
  186.3730  178.5630  147.6480 C   0  0  0  0  0  1  0  0  0  0  0  0
  186.9500  176.9310  145.8820 C   0  0  0  0  0  0  0  0  0  0  0  0
  190.0450  175.0640  145.4800 C   0  0  1  0  0  3  0  0  0  0  0  0
  189.7930  173.5920  145.1760 C   0  0  0  0  0  1  0  0  0  0  0  0
  192.1720  174.6350  144.1390 C   0  0  0  0  0  2  0  0  0  0  0  0
  191.1850  175.6750  144.6500 C   0  0  2  0  0  3  0  0  0  0  0  0
  193.3270  176.4290  145.1950 C   0  0  1  0  0  3  0  0  0  0  0  0
  193.4860  174.9820  144.7840 C   0  0  0  0  0  2  0  0  0  0  0  0
  191.9100  176.6620  145.4430 N   0  0  0  0  0  2  0  0  0  0  0  0
  194.9320  177.8770  146.2010 F   0  0  0  0  0  0  0  0  0  0  0  0
  193.3020  177.0240  147.4960 F   0  0  0  0  0  0  0  0  0  0  0  0
  194.1520  176.7590  146.4370 C   0  0  0  0  0  0  0  0  0  0  0  0
  194.9730  175.6950  146.7710 F   0  0  0  0  0  0  0  0  0  0  0  0
  189.0010  176.2750  143.0160 O   0  0  0  0  0  0  0  0  0  0  0  0
  188.5000  175.5120  141.9340 C   0  0  0  0  0  2  0  0  0  0  0  0
  187.5400  172.7840  141.8880 O   0  0  0  0  0  1  0  0  0  0  0  0
  189.3820  174.3840  141.6890 N   0  0  0  0  0  2  0  0  0  0  0  0
  188.8870  173.0460  141.6650 C   0  0  0  0  0  0  0  0  0  0  0  0
  189.6780  172.0930  141.4390 O   0  0  0  0  0  0  0  0  0  0  0  0
  1  5  1  0  0  0  0
  1  7  1  0  0  0  0
  2 11  1  1  0  0  0
  4  1  2  0  0  0  0
  5  6  1  0  0  0  0
  6  3  2  0  0  0  0
  6  2  1  0  0  0  0
  7 12  1  0  0  0  0
  9 13  1  0  0  0  0
  9  8  1  0  0  0  0
 10  7  2  0  0  0  0
 10  9  1  0  0  0  0
 12  8  2  0  0  0  0
 12  2  1  0  0  0  0
 13 14  1  6  0  0  0
 15 16  1  0  0  0  0
 15 18  1  0  0  0  0
 16 19  1  0  0  0  0
 16 13  1  1  0  0  0
 17 19  1  0  0  0  0
 17 22  1  1  0  0  0
 18 17  1  0  0  0  0
 20 22  1  0  0  0  0
 22 23  1  0  0  0  0
 22 21  1  0  0  0  0
 24 10  1  0  0  0  0
 25 24  1  0  0  0  0
 27 25  1  0  0  0  0
 28 27  1  0  0  0  0
 28 26  1  0  0  0  0
 29 28  2  0  0  0  0
M  END
>  <MODEL>
4

>  <REMARK>
 VINA RESULT:      -7.1      3.560      6.929
  Name = 
  6 active torsions:
  status: ('A' for Active; 'I' for Inactive)
    1  A    between atoms: C_8  and  C_12
    2  A    between atoms: N_10  and  C_14
    3  A    between atoms: C_11  and  C_13
    4  A    between atoms: C_13  and  N_25
    5  A    between atoms: C_14  and  O_18
    6  A    between atoms: O_18  and  C_26
                            x       y       z     vdW  Elec       q    Type
                         _______ _______ _______ _____ _____    ______ ____

>  <TORSDO>
F 6

$$$$
=
 OpenBabel11042417253D

 29 31  0  0  1  0  0  0  0  0999 V2000
  193.1840  174.3930  143.4140 C   0  0  0  0  0  0  0  0  0  0  0  0
  193.7750  176.7410  145.1550 C   0  0  2  0  0  3  0  0  0  0  0  0
  195.8320  176.8260  143.9310 O   0  0  0  0  0  0  0  0  0  0  0  0
  193.0050  173.3060  142.8070 O   0  0  0  0  0  0  0  0  0  0  0  0
  194.4560  175.0430  143.3440 N   0  0  0  0  0  2  0  0  0  0  0  0
  194.7420  176.2220  144.1120 C   0  0  0  0  0  0  0  0  0  0  0  0
  192.1350  175.0130  144.2350 C   0  0  0  0  0  0  0  0  0  0  0  0
  191.2870  176.4090  145.7620 C   0  0  0  0  0  3  0  0  0  0  0  0
  190.3040  175.5570  145.3980 N   0  0  0  0  0  0  0  0  0  0  0  0
  190.7970  174.7060  144.4740 C   0  0  0  0  0  0  0  0  0  0  0  0
  194.3450  176.5000  146.5430 C   0  0  0  0  0  1  0  0  0  0  0  0
  192.4240  176.0930  145.0400 C   0  0  0  0  0  0  0  0  0  0  0  0
  188.9510  175.5110  145.9490 C   0  0  1  0  0  3  0  0  0  0  0  0
  188.9340  174.7840  147.2870 C   0  0  0  0  0  1  0  0  0  0  0  0
  187.1270  176.9740  146.9690 C   0  0  0  0  0  2  0  0  0  0  0  0
  188.2970  176.9010  145.9970 C   0  0  2  0  0  3  0  0  0  0  0  0
  186.5030  177.8590  144.8490 C   0  0  1  0  0  3  0  0  0  0  0  0
  185.9230  177.2810  146.1210 C   0  0  0  0  0  2  0  0  0  0  0  0
  187.8290  177.2820  144.6680 N   0  0  0  0  0  2  0  0  0  0  0  0
  186.0300  178.3280  142.5590 F   0  0  0  0  0  0  0  0  0  0  0  0
  185.7270  176.2270  143.3060 F   0  0  0  0  0  0  0  0  0  0  0  0
  185.6200  177.5650  143.6380 C   0  0  0  0  0  0  0  0  0  0  0  0
  184.2950  177.8560  143.9220 F   0  0  0  0  0  0  0  0  0  0  0  0
  190.0160  173.6940  143.9010 O   0  0  0  0  0  0  0  0  0  0  0  0
  189.5770  173.7020  142.5540 C   0  0  0  0  0  2  0  0  0  0  0  0
  188.5580  174.3710  139.9310 O   0  0  0  0  0  0  0  0  0  0  0  0
  188.7900  174.8990  142.3100 N   0  0  0  0  0  2  0  0  0  0  0  0
  188.2930  175.2080  141.0090 C   0  0  0  0  0  0  0  0  0  0  0  0
  187.6050  176.2470  140.8350 O   0  0  0  0  0  1  0  0  0  0  0  0
  1  7  1  0  0  0  0
  2 11  1  1  0  0  0
  3  6  2  0  0  0  0
  4  1  2  0  0  0  0
  5  1  1  0  0  0  0
  5  6  1  0  0  0  0
  6  2  1  0  0  0  0
  7 10  2  0  0  0  0
  7 12  1  0  0  0  0
  9  8  1  0  0  0  0
  9 13  1  0  0  0  0
 10  9  1  0  0  0  0
 12  2  1  0  0  0  0
 12  8  2  0  0  0  0
 13 14  1  1  0  0  0
 16 13  1  6  0  0  0
 16 15  1  0  0  0  0
 17 22  1  6  0  0  0
 17 18  1  0  0  0  0
 18 15  1  0  0  0  0
 19 17  1  0  0  0  0
 19 16  1  0  0  0  0
 20 22  1  0  0  0  0
 21 22  1  0  0  0  0
 22 23  1  0  0  0  0
 24 10  1  0  0  0  0
 25 24  1  0  0  0  0
 26 28  2  0  0  0  0
 27 25  1  0  0  0  0
 28 27  1  0  0  0  0
 29 28  1  0  0  0  0
M  END
>  <MODEL>
5

>  <REMARK>
 VINA RESULT:      -7.1      2.947      5.124
  Name = 
  6 active torsions:
  status: ('A' for Active; 'I' for Inactive)
    1  A    between atoms: C_8  and  C_12
    2  A    between atoms: N_10  and  C_14
    3  A    between atoms: C_11  and  C_13
    4  A    between atoms: C_13  and  N_25
    5  A    between atoms: C_14  and  O_18
    6  A    between atoms: O_18  and  C_26
                            x       y       z     vdW  Elec       q    Type
                         _______ _______ _______ _____ _____    ______ ____

>  <TORSDO>
F 6

$$$$
=
 OpenBabel11042417253D

 29 31  0  0  1  0  0  0  0  0999 V2000
  193.3900  175.5930  142.3480 C   0  0  0  0  0  0  0  0  0  0  0  0
  194.3500  176.5090  145.0190 C   0  0  2  0  0  3  0  0  0  0  0  0
  196.4350  176.8430  143.8890 O   0  0  0  0  0  0  0  0  0  0  0  0
  193.0300  175.0460  141.2750 O   0  0  0  0  0  0  0  0  0  0  0  0
  194.7660  175.9320  142.5460 N   0  0  0  0  0  2  0  0  0  0  0  0
  195.2410  176.4500  143.7980 C   0  0  0  0  0  0  0  0  0  0  0  0
  192.4470  175.8690  143.4420 C   0  0  0  0  0  0  0  0  0  0  0  0
  191.8210  176.3780  145.5270 C   0  0  0  0  0  3  0  0  0  0  0  0
  190.7080  176.0470  144.8360 N   0  0  0  0  0  0  0  0  0  0  0  0
  191.0660  175.7380  143.5720 C   0  0  0  0  0  0  0  0  0  0  0  0
  194.8030  175.4710  146.0320 C   0  0  0  0  0  1  0  0  0  0  0  0
  192.9050  176.2860  144.6720 C   0  0  0  0  0  0  0  0  0  0  0  0
  189.3500  175.9710  145.3690 C   0  0  1  0  0  3  0  0  0  0  0  0
  189.2950  175.0560  146.5870 C   0  0  0  0  0  1  0  0  0  0  0  0
  188.5270  177.6580  147.0970 C   0  0  0  0  0  2  0  0  0  0  0  0
  188.7450  177.3610  145.6190 C   0  0  2  0  0  3  0  0  0  0  0  0
  186.5510  178.1270  145.8540 C   0  0  1  0  0  3  0  0  0  0  0  0
  187.0410  177.8280  147.2540 C   0  0  0  0  0  2  0  0  0  0  0  0
  187.4700  177.4870  144.9210 N   0  0  0  0  0  2  0  0  0  0  0  0
  184.2210  178.5510  146.1230 F   0  0  0  0  0  0  0  0  0  0  0  0
  184.9020  177.4570  144.2790 F   0  0  0  0  0  0  0  0  0  0  0  0
  185.1250  177.6260  145.6340 C   0  0  0  0  0  0  0  0  0  0  0  0
  184.9310  176.4160  146.2790 F   0  0  0  0  0  0  0  0  0  0  0  0
  190.1290  175.3480  142.6070 O   0  0  0  0  0  0  0  0  0  0  0  0
  189.9500  174.0120  142.1740 C   0  0  0  0  0  2  0  0  0  0  0  0
  191.3390  172.3160  144.0610 O   0  0  0  0  0  0  0  0  0  0  0  0
  189.2510  173.2600  143.2010 N   0  0  0  0  0  2  0  0  0  0  0  0
  189.9550  172.4340  144.1260 C   0  0  0  0  0  0  0  0  0  0  0  0
  189.3180  171.8050  145.0110 O   0  0  0  0  0  1  0  0  0  0  0  0
  1  5  1  0  0  0  0
  1  7  1  0  0  0  0
  2 11  1  1  0  0  0
  4  1  2  0  0  0  0
  5  6  1  0  0  0  0
  6  3  2  0  0  0  0
  6  2  1  0  0  0  0
  7 10  2  0  0  0  0
  7 12  1  0  0  0  0
  9 13  1  0  0  0  0
  9  8  1  0  0  0  0
 10  9  1  0  0  0  0
 12  2  1  0  0  0  0
 12  8  2  0  0  0  0
 13 14  1  1  0  0  0
 15 18  1  0  0  0  0
 16 13  1  1  0  0  0
 16 15  1  0  0  0  0
 17 22  1  1  0  0  0
 17 18  1  0  0  0  0
 19 16  1  0  0  0  0
 19 17  1  0  0  0  0
 21 22  1  0  0  0  0
 22 20  1  0  0  0  0
 22 23  1  0  0  0  0
 24 10  1  0  0  0  0
 25 24  1  0  0  0  0
 25 27  1  0  0  0  0
 26 28  2  0  0  0  0
 27 28  1  0  0  0  0
 28 29  1  0  0  0  0
M  END
>  <MODEL>
6

>  <REMARK>
 VINA RESULT:      -6.8      2.814      4.692
  Name = 
  6 active torsions:
  status: ('A' for Active; 'I' for Inactive)
    1  A    between atoms: C_8  and  C_12
    2  A    between atoms: N_10  and  C_14
    3  A    between atoms: C_11  and  C_13
    4  A    between atoms: C_13  and  N_25
    5  A    between atoms: C_14  and  O_18
    6  A    between atoms: O_18  and  C_26
                            x       y       z     vdW  Elec       q    Type
                         _______ _______ _______ _____ _____    ______ ____

>  <TORSDO>
F 6

$$$$
=
 OpenBabel11042417253D

 29 31  0  0  1  0  0  0  0  0999 V2000
  185.5760  178.3910  143.8370 C   0  0  0  0  0  0  0  0  0  0  0  0
  185.9580  177.8840  146.7510 C   0  0  2  0  0  3  0  0  0  0  0  0
  183.6010  178.2910  146.8860 O   0  0  0  0  0  0  0  0  0  0  0  0
  185.4540  178.7710  142.6450 O   0  0  0  0  0  0  0  0  0  0  0  0
  184.4860  178.5540  144.7490 N   0  0  0  0  0  2  0  0  0  0  0  0
  184.6180  178.2430  146.1450 C   0  0  0  0  0  0  0  0  0  0  0  0
  186.8250  177.8110  144.3510 C   0  0  0  0  0  0  0  0  0  0  0  0
  188.2790  177.1300  145.9060 C   0  0  0  0  0  3  0  0  0  0  0  0
  188.8960  177.0470  144.7070 N   0  0  0  0  0  0  0  0  0  0  0  0
  188.0320  177.4540  143.7540 C   0  0  0  0  0  0  0  0  0  0  0  0
  186.4370  179.0220  147.6380 C   0  0  0  0  0  1  0  0  0  0  0  0
  186.9900  177.5880  145.7000 C   0  0  0  0  0  0  0  0  0  0  0  0
  190.2830  176.6500  144.4740 C   0  0  1  0  0  3  0  0  0  0  0  0
  191.1660  177.8690  144.2400 C   0  0  0  0  0  1  0  0  0  0  0  0
  191.2730  176.4560  146.8170 C   0  0  0  0  0  2  0  0  0  0  0  0
  190.8100  175.7120  145.5710 C   0  0  2  0  0  3  0  0  0  0  0  0
  192.9410  174.9170  146.1000 C   0  0  1  0  0  3  0  0  0  0  0  0
  192.7440  176.1650  146.9310 C   0  0  0  0  0  2  0  0  0  0  0  0
  191.9200  174.9150  145.0600 N   0  0  0  0  0  2  0  0  0  0  0  0
  194.6310  173.5660  145.0980 F   0  0  0  0  0  0  0  0  0  0  0  0
  194.3790  175.6790  144.3680 F   0  0  0  0  0  0  0  0  0  0  0  0
  194.3370  174.8620  145.4830 C   0  0  0  0  0  0  0  0  0  0  0  0
  195.2880  175.2910  146.3940 F   0  0  0  0  0  0  0  0  0  0  0  0
  188.3810  177.4870  142.3980 O   0  0  0  0  0  0  0  0  0  0  0  0
  187.8910  176.5730  141.4330 C   0  0  0  0  0  2  0  0  0  0  0  0
  189.9210  174.5200  141.2630 O   0  0  0  0  0  0  0  0  0  0  0  0
  187.7250  175.2660  142.0450 N   0  0  0  0  0  2  0  0  0  0  0  0
  188.7410  174.2690  141.9550 C   0  0  0  0  0  0  0  0  0  0  0  0
  188.5680  173.1510  142.5070 O   0  0  0  0  0  1  0  0  0  0  0  0
  1  7  1  0  0  0  0
  1  5  1  0  0  0  0
  2 11  1  6  0  0  0
  4  1  2  0  0  0  0
  5  6  1  0  0  0  0
  6  2  1  0  0  0  0
  6  3  2  0  0  0  0
  7 12  1  0  0  0  0
  9  8  1  0  0  0  0
 10  7  2  0  0  0  0
 10  9  1  0  0  0  0
 12  8  2  0  0  0  0
 12  2  1  0  0  0  0
 13 14  1  1  0  0  0
 13  9  1  0  0  0  0
 15 18  1  0  0  0  0
 16 13  1  6  0  0  0
 16 15  1  0  0  0  0
 17 22  1  6  0  0  0
 17 18  1  0  0  0  0
 19 16  1  0  0  0  0
 19 17  1  0  0  0  0
 20 22  1  0  0  0  0
 21 22  1  0  0  0  0
 22 23  1  0  0  0  0
 24 10  1  0  0  0  0
 25 27  1  0  0  0  0
 25 24  1  0  0  0  0
 26 28  2  0  0  0  0
 28 27  1  0  0  0  0
 28 29  1  0  0  0  0
M  END
>  <MODEL>
7

>  <REMARK>
 VINA RESULT:      -6.7      3.890      7.066
  Name = 
  6 active torsions:
  status: ('A' for Active; 'I' for Inactive)
    1  A    between atoms: C_8  and  C_12
    2  A    between atoms: N_10  and  C_14
    3  A    between atoms: C_11  and  C_13
    4  A    between atoms: C_13  and  N_25
    5  A    between atoms: C_14  and  O_18
    6  A    between atoms: O_18  and  C_26
                            x       y       z     vdW  Elec       q    Type
                         _______ _______ _______ _____ _____    ______ ____

>  <TORSDO>
F 6

$$$$
=
 OpenBabel11042417253D

 29 31  0  0  1  0  0  0  0  0999 V2000
  191.5210  174.5080  141.7140 C   0  0  0  0  0  0  0  0  0  0  0  0
  193.0790  176.4290  143.3810 C   0  0  2  0  0  3  0  0  0  0  0  0
  194.6640  176.3290  141.5890 O   0  0  0  0  0  0  0  0  0  0  0  0
  190.9470  173.5730  141.1010 O   0  0  0  0  0  0  0  0  0  0  0  0
  192.8280  174.9250  141.3070 N   0  0  0  0  0  2  0  0  0  0  0  0
  193.5690  175.9080  142.0480 C   0  0  0  0  0  0  0  0  0  0  0  0
  190.9130  175.1760  142.8730 C   0  0  0  0  0  0  0  0  0  0  0  0
  190.8600  176.4580  144.7030 C   0  0  0  0  0  3  0  0  0  0  0  0
  189.6550  175.8580  144.5920 N   0  0  0  0  0  0  0  0  0  0  0  0
  189.6670  175.0800  143.4890 C   0  0  0  0  0  0  0  0  0  0  0  0
  193.9590  175.8880  144.4950 C   0  0  0  0  0  1  0  0  0  0  0  0
  191.6450  176.0560  143.6370 C   0  0  0  0  0  0  0  0  0  0  0  0
  188.5420  175.9720  145.5310 C   0  0  1  0  0  3  0  0  0  0  0  0
  188.8410  175.2200  146.8220 C   0  0  0  0  0  1  0  0  0  0  0  0
  188.2170  177.8620  147.2130 C   0  0  0  0  0  2  0  0  0  0  0  0
  188.1190  177.4320  145.7560 C   0  0  2  0  0  3  0  0  0  0  0  0
  186.0870  178.4350  146.3180 C   0  0  1  0  0  3  0  0  0  0  0  0
  186.8090  178.1950  147.6250 C   0  0  0  0  0  2  0  0  0  0  0  0
  186.7490  177.6350  145.2960 N   0  0  0  0  0  2  0  0  0  0  0  0
  184.4670  176.6950  146.5030 F   0  0  0  0  0  0  0  0  0  0  0  0
  184.0610  178.6480  147.5440 F   0  0  0  0  0  0  0  0  0  0  0  0
  184.6070  178.0680  146.4130 C   0  0  0  0  0  0  0  0  0  0  0  0
  183.9230  178.5220  145.2970 F   0  0  0  0  0  0  0  0  0  0  0  0
  188.5560  174.3200  143.1030 O   0  0  0  0  0  0  0  0  0  0  0  0
  187.7170  174.6450  142.0090 C   0  0  0  0  0  2  0  0  0  0  0  0
  187.4400  177.2010  140.6840 O   0  0  0  0  0  0  0  0  0  0  0  0
  186.7390  175.6330  142.4270 N   0  0  0  0  0  2  0  0  0  0  0  0
  186.6140  176.8860  141.7570 C   0  0  0  0  0  0  0  0  0  0  0  0
  185.7480  177.7150  142.1400 O   0  0  0  0  0  1  0  0  0  0  0  0
  1  7  1  0  0  0  0
  2 12  1  0  0  0  0
  2 11  1  1  0  0  0
  3  6  2  0  0  0  0
  4  1  2  0  0  0  0
  5  1  1  0  0  0  0
  5  6  1  0  0  0  0
  6  2  1  0  0  0  0
  7 10  2  0  0  0  0
  7 12  1  0  0  0  0
  9  8  1  0  0  0  0
  9 13  1  0  0  0  0
 10  9  1  0  0  0  0
 12  8  2  0  0  0  0
 13 14  1  1  0  0  0
 15 18  1  0  0  0  0
 16 13  1  1  0  0  0
 16 15  1  0  0  0  0
 17 22  1  1  0  0  0
 17 18  1  0  0  0  0
 19 16  1  0  0  0  0
 19 17  1  0  0  0  0
 22 20  1  0  0  0  0
 22 21  1  0  0  0  0
 23 22  1  0  0  0  0
 24 10  1  0  0  0  0
 25 27  1  0  0  0  0
 25 24  1  0  0  0  0
 26 28  2  0  0  0  0
 28 29  1  0  0  0  0
 28 27  1  0  0  0  0
M  END
>  <MODEL>
8

>  <REMARK>
 VINA RESULT:      -6.7      2.369      4.436
  Name = 
  6 active torsions:
  status: ('A' for Active; 'I' for Inactive)
    1  A    between atoms: C_8  and  C_12
    2  A    between atoms: N_10  and  C_14
    3  A    between atoms: C_11  and  C_13
    4  A    between atoms: C_13  and  N_25
    5  A    between atoms: C_14  and  O_18
    6  A    between atoms: O_18  and  C_26
                            x       y       z     vdW  Elec       q    Type
                         _______ _______ _______ _____ _____    ______ ____

>  <TORSDO>
F 6

$$$$
=
 OpenBabel11042417253D

 29 31  0  0  1  0  0  0  0  0999 V2000
  191.7480  175.1580  144.5470 C   0  0  0  0  0  0  0  0  0  0  0  0
  191.8070  176.7900  147.0430 C   0  0  2  0  0  3  0  0  0  0  0  0
  194.1780  176.4810  146.9030 O   0  0  0  0  0  0  0  0  0  0  0  0
  191.7030  174.3320  143.6010 O   0  0  0  0  0  0  0  0  0  0  0  0
  192.9810  175.3790  145.2390 N   0  0  0  0  0  2  0  0  0  0  0  0
  193.0530  176.2240  146.3980 C   0  0  0  0  0  0  0  0  0  0  0  0
  190.5590  175.8910  145.0050 C   0  0  0  0  0  0  0  0  0  0  0  0
  189.3300  177.1330  146.3980 C   0  0  0  0  0  3  0  0  0  0  0  0
  188.5210  176.7250  145.3960 N   0  0  0  0  0  0  0  0  0  0  0  0
  189.2480  175.9740  144.5420 C   0  0  0  0  0  0  0  0  0  0  0  0
  191.5650  176.1020  148.3760 C   0  0  0  0  0  1  0  0  0  0  0  0
  190.5980  176.6360  146.1630 C   0  0  0  0  0  0  0  0  0  0  0  0
  187.0890  176.9910  145.2760 C   0  0  1  0  0  3  0  0  0  0  0  0
  186.3950  176.8420  146.6240 C   0  0  0  0  0  1  0  0  0  0  0  0
  185.5260  178.9960  145.0770 C   0  0  0  0  0  2  0  0  0  0  0  0
  186.8040  178.3330  144.5840 C   0  0  2  0  0  3  0  0  0  0  0  0
  185.5570  178.9200  142.6980 C   0  0  1  0  0  3  0  0  0  0  0  0
  184.6200  179.0590  143.8780 C   0  0  0  0  0  2  0  0  0  0  0  0
  186.7080  178.1420  143.1400 N   0  0  0  0  0  2  0  0  0  0  0  0
  183.5780  177.9020  141.8440 F   0  0  0  0  0  0  0  0  0  0  0  0
  184.8450  179.1200  140.4400 F   0  0  0  0  0  0  0  0  0  0  0  0
  184.8760  178.2440  141.5100 C   0  0  0  0  0  0  0  0  0  0  0  0
  185.5660  177.1020  141.1410 F   0  0  0  0  0  0  0  0  0  0  0  0
  188.6870  175.3980  143.3950 O   0  0  0  0  0  0  0  0  0  0  0  0
  188.9100  175.8760  142.0800 C   0  0  0  0  0  2  0  0  0  0  0  0
  190.1670  173.6050  140.8060 O   0  0  0  0  0  1  0  0  0  0  0  0
  188.2050  175.0310  141.1320 N   0  0  0  0  0  2  0  0  0  0  0  0
  188.8420  173.9120  140.5190 C   0  0  0  0  0  0  0  0  0  0  0  0
  188.1980  173.1940  139.7100 O   0  0  0  0  0  0  0  0  0  0  0  0
  1  7  1  0  0  0  0
  1  5  1  0  0  0  0
  2 11  1  1  0  0  0
  4  1  2  0  0  0  0
  5  6  1  0  0  0  0
  6  3  2  0  0  0  0
  6  2  1  0  0  0  0
  7 12  1  0  0  0  0
  9  8  1  0  0  0  0
 10  7  2  0  0  0  0
 10  9  1  0  0  0  0
 12  8  2  0  0  0  0
 12  2  1  0  0  0  0
 13  9  1  0  0  0  0
 13 14  1  1  0  0  0
 16 15  1  0  0  0  0
 16 13  1  1  0  0  0
 17 22  1  6  0  0  0
 17 19  1  0  0  0  0
 17 18  1  0  0  0  0
 18 15  1  0  0  0  0
 19 16  1  0  0  0  0
 21 22  1  0  0  0  0
 22 20  1  0  0  0  0
 23 22  1  0  0  0  0
 24 10  1  0  0  0  0
 25 24  1  0  0  0  0
 27 25  1  0  0  0  0
 28 26  1  0  0  0  0
 28 27  1  0  0  0  0
 29 28  2  0  0  0  0
M  END
>  <MODEL>
9

>  <REMARK>
 VINA RESULT:      -6.7      2.910      5.108
  Name = 
  6 active torsions:
  status: ('A' for Active; 'I' for Inactive)
    1  A    between atoms: C_8  and  C_12
    2  A    between atoms: N_10  and  C_14
    3  A    between atoms: C_11  and  C_13
    4  A    between atoms: C_13  and  N_25
    5  A    between atoms: C_14  and  O_18
    6  A    between atoms: O_18  and  C_26
                            x       y       z     vdW  Elec       q    Type
                         _______ _______ _______ _____ _____    ______ ____

>  <TORSDO>
F 6

$$$$
