=
 OpenBabel11042418303D

 30 34  0  0  1  0  0  0  0  0999 V2000
  189.1140  177.6840  145.4260 C   0  0  2  0  0  3  0  0  0  0  0  0
  187.5800  178.4730  147.1960 N   0  0  0  0  0  0  0  0  0  0  0  0
  187.7100  175.7810  141.3790 C   0  0  2  0  0  3  0  0  0  0  0  0
  188.9710  174.9850  147.3610 C   0  0  0  0  0  2  0  0  0  0  0  0
  187.0840  174.9840  142.3390 O   0  0  0  0  0  1  0  0  0  0  0  0
  185.7690  177.3560  143.2220 C   0  0  0  0  0  3  0  0  0  0  0  0
  187.6540  177.4480  145.0250 C   0  0  0  0  0  0  0  0  0  0  0  0
  186.8050  175.8620  147.7990 N   0  0  0  0  0  2  0  0  0  0  0  0
  185.9630  176.9670  148.0330 N   0  0  0  0  0  2  0  0  0  0  0  0
  189.1110  176.1740  141.8150 C   0  0  0  0  0  2  0  0  0  0  0  0
  187.8950  175.9870  147.0980 C   0  0  1  0  0  3  0  0  0  0  0  0
  189.8310  176.6360  144.7060 N   0  0  0  0  0  2  0  0  0  0  0  0
  191.7040  174.7330  143.4880 C   0  0  0  0  0  0  0  0  0  0  0  0
  191.9370  175.3940  144.8290 C   0  0  2  0  0  3  0  0  0  0  0  0
  186.4840  178.2950  147.8700 C   0  0  0  0  0  3  0  0  0  0  0  0
  186.0270  177.6230  141.7990 C   0  0  0  0  0  3  0  0  0  0  0  0
  189.8920  175.0280  141.9880 O   0  0  0  0  0  0  0  0  0  0  0  0
  191.9440  173.5410  143.3560 O   0  0  0  0  0  0  0  0  0  0  0  0
  188.1650  177.3460  146.4630 C   0  0  1  0  0  0  0  0  0  0  0  0
  186.8870  176.9900  140.9840 C   0  0  0  0  0  0  0  0  0  0  0  0
  191.1610  175.5100  142.3250 C   0  0  0  0  0  2  0  0  0  0  0  0
  190.6230  175.7600  145.5460 C   0  0  2  0  0  3  0  0  0  0  0  0
  189.6480  174.2630  145.8530 S   0  0  0  0  0  0  0  0  0  0  0  0
  186.7160  177.3900  144.1200 C   0  0  0  0  0  0  0  0  0  0  0  0
  194.6840  177.6150  145.9310 N   0  0  0  0  0  1  0  0  0  0  0  0
  192.8590  176.6130  144.7320 C   0  0  1  0  0  3  0  0  0  0  0  0
  194.0800  176.3570  145.5360 C   0  0  1  0  0  3  0  0  0  0  0  0
  194.0850  176.2550  144.1300 O   0  0  0  0  0  0  0  0  0  0  0  0
  187.0140  177.5030  139.6880 O   0  0  0  0  0  0  0  0  0  0  0  0
  186.6400  176.7650  138.5330 C   0  0  0  0  0  1  0  0  0  0  0  0
  1 12  1  6  0  0  0
  1 19  1  0  0  0  0
  2 15  2  0  0  0  0
  3 10  1  0  0  0  0
  3  5  1  1  0  0  0
  6 24  2  0  0  0  0
  7  1  1  0  0  0  0
  8  9  1  0  0  0  0
 10 17  1  0  0  0  0
 11  4  1  1  0  0  0
 11  8  1  0  0  0  0
 14 13  1  6  0  0  0
 14 22  1  0  0  0  0
 15  9  1  0  0  0  0
 16  6  1  0  0  0  0
 17 21  1  0  0  0  0
 18 13  2  0  0  0  0
 19  7  1  6  0  0  0
 19 11  1  0  0  0  0
 19  2  1  0  0  0  0
 20  3  1  0  0  0  0
 20 16  2  0  0  0  0
 21 13  1  0  0  0  0
 22 12  1  6  0  0  0
 22 23  1  0  0  0  0
 23  4  1  0  0  0  0
 24  7  2  0  0  0  0
 26 28  1  6  0  0  0
 26 14  1  0  0  0  0
 26 27  1  0  0  0  0
 27 25  1  6  0  0  0
 28 27  1  0  0  0  0
 29 20  1  0  0  0  0
 30 29  1  0  0  0  0
M  END
>  <MODEL>
1

>  <REMARK>
 VINA RESULT:      -7.1      0.000      0.000
  Name = 
  2 active torsions:
  status: ('A' for Active; 'I' for Inactive)
    1  A    between atoms: O_6  and  C_25
    2  A    between atoms: C_16  and  C_19
                            x       y       z     vdW  Elec       q    Type
                         _______ _______ _______ _____ _____    ______ ____

>  <TORSDO>
F 2

$$$$
=
 OpenBabel11042418303D

 30 34  0  0  1  0  0  0  0  0999 V2000
  190.4430  175.0090  142.2340 C   0  0  2  0  0  3  0  0  0  0  0  0
  190.1540  173.7480  140.1290 N   0  0  0  0  0  0  0  0  0  0  0  0
  194.4220  175.1270  144.7090 C   0  0  2  0  0  3  0  0  0  0  0  0
  189.1790  172.1620  143.3930 C   0  0  0  0  0  2  0  0  0  0  0  0
  194.1560  173.7610  144.6000 O   0  0  0  0  0  1  0  0  0  0  0  0
  194.3340  174.1140  141.7760 C   0  0  0  0  0  3  0  0  0  0  0  0
  191.7300  174.2630  141.8660 C   0  0  0  0  0  0  0  0  0  0  0  0
  190.2960  171.3100  141.4760 N   0  0  0  0  0  2  0  0  0  0  0  0
  190.6650  171.4410  140.1230 N   0  0  0  0  0  2  0  0  0  0  0  0
  193.1450  175.9240  144.9140 C   0  0  0  0  0  2  0  0  0  0  0  0
  190.0750  172.3590  142.2150 C   0  0  1  0  0  3  0  0  0  0  0  0
  190.5150  175.1010  143.6890 N   0  0  0  0  0  2  0  0  0  0  0  0
  190.1960  175.5370  146.5740 C   0  0  0  0  0  0  0  0  0  0  0  0
  189.0330  175.3890  145.6150 C   0  0  2  0  0  3  0  0  0  0  0  0
  190.4010  172.6750  139.4390 C   0  0  0  0  0  3  0  0  0  0  0  0
  195.2030  175.1770  142.3030 C   0  0  0  0  0  3  0  0  0  0  0  0
  192.5170  175.5190  146.0950 O   0  0  0  0  0  0  0  0  0  0  0  0
  190.1610  174.9640  147.6540 O   0  0  0  0  0  0  0  0  0  0  0  0
  190.3270  173.7230  141.5840 C   0  0  1  0  0  0  0  0  0  0  0  0
  195.2380  175.6670  143.5540 C   0  0  0  0  0  0  0  0  0  0  0  0
  191.4010  176.3530  146.2100 C   0  0  0  0  0  2  0  0  0  0  0  0
  189.3830  174.5280  144.3880 C   0  0  2  0  0  3  0  0  0  0  0  0
  189.8520  172.8580  144.9150 S   0  0  0  0  0  0  0  0  0  0  0  0
  193.0320  174.1850  141.8340 C   0  0  0  0  0  0  0  0  0  0  0  0
  186.3120  177.7600  144.8000 N   0  0  0  0  0  1  0  0  0  0  0  0
  188.4530  176.7390  145.1840 C   0  0  1  0  0  3  0  0  0  0  0  0
  187.0390  176.8180  145.6290 C   0  0  1  0  0  3  0  0  0  0  0  0
  188.0700  177.4930  146.3140 O   0  0  0  0  0  0  0  0  0  0  0  0
  196.0950  176.7500  143.7770 O   0  0  0  0  0  0  0  0  0  0  0  0
  197.3260  176.9080  143.0830 C   0  0  0  0  0  1  0  0  0  0  0  0
  1  7  1  6  0  0  0
  1 12  1  0  0  0  0
  3  5  1  6  0  0  0
  3 10  1  0  0  0  0
  4 23  1  0  0  0  0
  6 24  2  0  0  0  0
  6 16  1  0  0  0  0
  8 11  1  0  0  0  0
  9  8  1  0  0  0  0
 10 17  1  0  0  0  0
 11  4  1  6  0  0  0
 13 18  2  0  0  0  0
 14 13  1  6  0  0  0
 15  9  1  0  0  0  0
 15  2  2  0  0  0  0
 16 20  2  0  0  0  0
 17 21  1  0  0  0  0
 19  2  1  6  0  0  0
 19  7  1  0  0  0  0
 19 11  1  0  0  0  0
 19  1  1  0  0  0  0
 20 29  1  0  0  0  0
 20  3  1  0  0  0  0
 21 13  1  0  0  0  0
 22 12  1  1  0  0  0
 22 23  1  0  0  0  0
 22 14  1  0  0  0  0
 24  7  2  0  0  0  0
 26 14  1  0  0  0  0
 26 27  1  0  0  0  0
 26 28  1  1  0  0  0
 27 25  1  6  0  0  0
 27 28  1  0  0  0  0
 30 29  1  0  0  0  0
M  END
>  <MODEL>
2

>  <REMARK>
 VINA RESULT:      -6.7      3.210      7.097
  Name = 
  2 active torsions:
  status: ('A' for Active; 'I' for Inactive)
    1  A    between atoms: O_6  and  C_25
    2  A    between atoms: C_16  and  C_19
                            x       y       z     vdW  Elec       q    Type
                         _______ _______ _______ _____ _____    ______ ____

>  <TORSDO>
F 2

$$$$
=
 OpenBabel11042418303D

 30 34  0  0  1  0  0  0  0  0999 V2000
  190.4570  175.3980  145.4070 C   0  0  2  0  0  3  0  0  0  0  0  0
  192.5050  175.8130  146.7260 N   0  0  0  0  0  0  0  0  0  0  0  0
  190.3100  172.7730  141.5270 C   0  0  2  0  0  3  0  0  0  0  0  0
  191.4760  178.2660  144.0720 C   0  0  0  0  0  2  0  0  0  0  0  0
  191.2980  173.7160  141.2350 O   0  0  0  0  0  1  0  0  0  0  0  0
  192.7180  172.6880  143.4840 C   0  0  0  0  0  3  0  0  0  0  0  0
  191.6640  174.6980  144.7720 C   0  0  0  0  0  0  0  0  0  0  0  0
  193.5930  177.3820  144.6930 N   0  0  0  0  0  2  0  0  0  0  0  0
  194.3990  176.6850  145.6150 N   0  0  0  0  0  2  0  0  0  0  0  0
  189.1630  173.3970  142.3020 C   0  0  0  0  0  2  0  0  0  0  0  0
  192.3130  177.1560  144.6180 C   0  0  1  0  0  3  0  0  0  0  0  0
  189.5780  175.6450  144.2680 N   0  0  0  0  0  2  0  0  0  0  0  0
  187.4880  176.3620  142.3370 C   0  0  0  0  0  0  0  0  0  0  0  0
  187.7500  177.1350  143.6120 C   0  0  2  0  0  3  0  0  0  0  0  0
  193.7840  176.0430  146.7420 C   0  0  0  0  0  3  0  0  0  0  0  0
  191.9220  171.5360  143.0340 C   0  0  0  0  0  3  0  0  0  0  0  0
  188.5710  174.4090  141.5420 O   0  0  0  0  0  0  0  0  0  0  0  0
  187.2820  176.9720  141.2960 O   0  0  0  0  0  0  0  0  0  0  0  0
  191.7470  176.0440  145.4940 C   0  0  1  0  0  0  0  0  0  0  0  0
  190.8520  171.5420  142.2220 C   0  0  0  0  0  0  0  0  0  0  0  0
  187.5030  174.8620  142.3220 C   0  0  0  0  0  2  0  0  0  0  0  0
  189.2160  177.0340  144.0750 C   0  0  2  0  0  3  0  0  0  0  0  0
  190.3150  177.7170  142.8050 S   0  0  0  0  0  0  0  0  0  0  0  0
  192.1860  173.6990  144.1170 C   0  0  0  0  0  0  0  0  0  0  0  0
  185.6460  177.7610  146.5900 N   0  0  0  0  0  1  0  0  0  0  0  0
  186.7950  176.7420  144.7430 C   0  0  1  0  0  3  0  0  0  0  0  0
  186.0980  177.9590  145.2270 C   0  0  1  0  0  3  0  0  0  0  0  0
  185.4610  177.0270  144.3820 O   0  0  0  0  0  0  0  0  0  0  0  0
  190.2110  170.3140  142.0230 O   0  0  0  0  0  0  0  0  0  0  0  0
  190.9180  169.1290  141.6780 C   0  0  0  0  0  1  0  0  0  0  0  0
  1 12  1  6  0  0  0
  1 19  1  0  0  0  0
  2 15  2  0  0  0  0
  3  5  1  1  0  0  0
  3 20  1  0  0  0  0
  3 10  1  0  0  0  0
  6 24  2  0  0  0  0
  7  1  1  0  0  0  0
  8  9  1  0  0  0  0
  9 15  1  0  0  0  0
 11  4  1  1  0  0  0
 11  8  1  0  0  0  0
 11 19  1  0  0  0  0
 14 13  1  6  0  0  0
 14 22  1  0  0  0  0
 14 26  1  0  0  0  0
 16  6  1  0  0  0  0
 17 10  1  0  0  0  0
 17 21  1  0  0  0  0
 18 13  2  0  0  0  0
 19  7  1  6  0  0  0
 19  2  1  0  0  0  0
 20 16  2  0  0  0  0
 21 13  1  0  0  0  0
 22 23  1  6  0  0  0
 22 12  1  0  0  0  0
 23  4  1  0  0  0  0
 24  7  2  0  0  0  0
 26 28  1  6  0  0  0
 26 27  1  0  0  0  0
 27 25  1  1  0  0  0
 28 27  1  0  0  0  0
 29 20  1  0  0  0  0
 30 29  1  0  0  0  0
M  END
>  <MODEL>
3

>  <REMARK>
 VINA RESULT:      -6.5      2.410      6.181
  Name = 
  2 active torsions:
  status: ('A' for Active; 'I' for Inactive)
    1  A    between atoms: O_6  and  C_25
    2  A    between atoms: C_16  and  C_19
                            x       y       z     vdW  Elec       q    Type
                         _______ _______ _______ _____ _____    ______ ____

>  <TORSDO>
F 2

$$$$
=
 OpenBabel11042418303D

 30 34  0  0  1  0  0  0  0  0999 V2000
  189.9210  176.8820  143.8580 C   0  0  2  0  0  3  0  0  0  0  0  0
  187.8800  178.2280  144.2230 N   0  0  0  0  0  0  0  0  0  0  0  0
  189.9690  172.6860  141.7730 C   0  0  2  0  0  3  0  0  0  0  0  0
  189.1050  175.9370  146.9380 C   0  0  0  0  0  2  0  0  0  0  0  0
  189.0480  172.5150  142.8070 O   0  0  0  0  0  1  0  0  0  0  0  0
  187.5280  174.5940  141.5800 C   0  0  0  0  0  3  0  0  0  0  0  0
  188.6840  176.1490  143.3280 C   0  0  0  0  0  0  0  0  0  0  0  0
  186.9260  176.4160  146.1160 N   0  0  0  0  0  2  0  0  0  0  0  0
  186.0630  177.2290  145.3550 N   0  0  0  0  0  2  0  0  0  0  0  0
  191.1400  173.5480  142.2120 C   0  0  0  0  0  2  0  0  0  0  0  0
  188.1910  176.3220  145.8220 C   0  0  1  0  0  3  0  0  0  0  0  0
  190.8330  175.7950  144.1990 N   0  0  0  0  0  2  0  0  0  0  0  0
  192.9950  173.9950  145.0330 C   0  0  0  0  0  0  0  0  0  0  0  0
  192.7600  175.3610  145.6430 C   0  0  2  0  0  3  0  0  0  0  0  0
  186.6180  178.2640  144.5300 C   0  0  0  0  0  3  0  0  0  0  0  0
  188.2580  173.9990  140.4510 C   0  0  0  0  0  3  0  0  0  0  0  0
  191.8070  172.9360  143.2770 O   0  0  0  0  0  0  0  0  0  0  0  0
  193.2560  173.0480  145.7620 O   0  0  0  0  0  0  0  0  0  0  0  0
  188.6720  177.0450  144.5690 C   0  0  1  0  0  0  0  0  0  0  0  0
  189.3410  173.2040  140.4960 C   0  0  0  0  0  0  0  0  0  0  0  0
  192.8880  173.7790  143.5520 C   0  0  0  0  0  2  0  0  0  0  0  0
  191.2840  175.7940  145.5760 C   0  0  2  0  0  3  0  0  0  0  0  0
  190.2510  174.6180  146.4910 S   0  0  0  0  0  0  0  0  0  0  0  0
  188.1110  175.3610  142.4610 C   0  0  0  0  0  0  0  0  0  0  0  0
  195.0160  178.2910  145.7630 N   0  0  0  0  0  1  0  0  0  0  0  0
  193.6700  176.4360  145.0420 C   0  0  1  0  0  3  0  0  0  0  0  0
  194.5660  176.9560  146.1050 C   0  0  1  0  0  3  0  0  0  0  0  0
  195.0220  176.0430  145.1310 O   0  0  0  0  0  0  0  0  0  0  0  0
  189.9070  172.8470  139.2680 O   0  0  0  0  0  0  0  0  0  0  0  0
  189.8190  173.6750  138.1150 C   0  0  0  0  0  1  0  0  0  0  0  0
  1  7  1  6  0  0  0
  1 12  1  0  0  0  0
  1 19  1  0  0  0  0
  2 15  2  0  0  0  0
  2 19  1  0  0  0  0
  3 10  1  0  0  0  0
  3  5  1  1  0  0  0
  6 24  2  0  0  0  0
  9  8  1  0  0  0  0
 10 17  1  0  0  0  0
 11  8  1  0  0  0  0
 11  4  1  1  0  0  0
 13 18  2  0  0  0  0
 14 13  1  6  0  0  0
 15  9  1  0  0  0  0
 16 20  2  0  0  0  0
 16  6  1  0  0  0  0
 17 21  1  0  0  0  0
 19  7  1  6  0  0  0
 19 11  1  0  0  0  0
 20  3  1  0  0  0  0
 21 13  1  0  0  0  0
 22 12  1  6  0  0  0
 22 14  1  0  0  0  0
 22 23  1  0  0  0  0
 23  4  1  0  0  0  0
 24  7  2  0  0  0  0
 26 28  1  6  0  0  0
 26 14  1  0  0  0  0
 26 27  1  0  0  0  0
 27 25  1  6  0  0  0
 28 27  1  0  0  0  0
 29 20  1  0  0  0  0
 30 29  1  0  0  0  0
M  END
>  <MODEL>
4

>  <REMARK>
 VINA RESULT:      -6.5      2.088      2.794
  Name = 
  2 active torsions:
  status: ('A' for Active; 'I' for Inactive)
    1  A    between atoms: O_6  and  C_25
    2  A    between atoms: C_16  and  C_19
                            x       y       z     vdW  Elec       q    Type
                         _______ _______ _______ _____ _____    ______ ____

>  <TORSDO>
F 2

$$$$
=
 OpenBabel11042418303D

 30 34  0  0  1  0  0  0  0  0999 V2000
  191.9050  173.1920  143.4990 C   0  0  2  0  0  3  0  0  0  0  0  0
  190.6930  171.8010  141.8540 N   0  0  0  0  0  0  0  0  0  0  0  0
  190.5550  177.4800  144.8250 C   0  0  2  0  0  3  0  0  0  0  0  0
  193.5300  173.9840  140.7100 C   0  0  0  0  0  2  0  0  0  0  0  0
  190.6400  177.5890  143.4360 O   0  0  0  0  0  1  0  0  0  0  0  0
  188.6530  175.5470  143.3130 C   0  0  0  0  0  3  0  0  0  0  0  0
  190.6720  173.9310  142.9650 C   0  0  0  0  0  0  0  0  0  0  0  0
  191.4000  173.5110  139.7670 N   0  0  0  0  0  2  0  0  0  0  0  0
  190.2340  172.7220  139.7270 N   0  0  0  0  0  2  0  0  0  0  0  0
  191.6740  176.6160  145.3810 C   0  0  0  0  0  2  0  0  0  0  0  0
  192.0860  173.6370  140.8670 C   0  0  1  0  0  3  0  0  0  0  0  0
  192.8130  174.2760  143.8590 N   0  0  0  0  0  2  0  0  0  0  0  0
  194.9700  176.0670  144.7250 C   0  0  0  0  0  0  0  0  0  0  0  0
  195.2060  174.6720  144.1870 C   0  0  2  0  0  3  0  0  0  0  0  0
  190.0190  171.7330  140.7460 C   0  0  0  0  0  3  0  0  0  0  0  0
  188.3820  176.2030  144.6010 C   0  0  0  0  0  3  0  0  0  0  0  0
  192.9110  177.1880  145.0760 O   0  0  0  0  0  0  0  0  0  0  0  0
  195.6920  176.9840  144.3560 O   0  0  0  0  0  0  0  0  0  0  0  0
  191.5230  172.9790  142.1210 C   0  0  1  0  0  0  0  0  0  0  0  0
  189.1960  177.0110  145.3010 C   0  0  0  0  0  0  0  0  0  0  0  0
  193.8510  176.3500  145.6830 C   0  0  0  0  0  2  0  0  0  0  0  0
  194.1070  174.2210  143.2070 C   0  0  2  0  0  3  0  0  0  0  0  0
  194.0510  175.3390  141.7810 S   0  0  0  0  0  0  0  0  0  0  0  0
  189.6720  174.7490  143.1380 C   0  0  0  0  0  0  0  0  0  0  0  0
  196.8190  171.7730  145.8240 N   0  0  0  0  0  1  0  0  0  0  0  0
  195.3990  173.6380  145.3000 C   0  0  1  0  0  3  0  0  0  0  0  0
  196.7730  173.0840  145.2080 C   0  0  1  0  0  3  0  0  0  0  0  0
  196.4260  174.0470  146.1780 O   0  0  0  0  0  0  0  0  0  0  0  0
  188.7330  177.4320  146.5530 O   0  0  0  0  0  0  0  0  0  0  0  0
  187.3560  177.4170  146.9040 C   0  0  0  0  0  1  0  0  0  0  0  0
  1  7  1  1  0  0  0
  1 12  1  0  0  0  0
  3  5  1  6  0  0  0
  3 20  1  0  0  0  0
  3 10  1  0  0  0  0
  4 23  1  0  0  0  0
  6 16  1  0  0  0  0
  7 24  2  0  0  0  0
  8 11  1  0  0  0  0
  9  8  1  0  0  0  0
  9 15  1  0  0  0  0
 11  4  1  6  0  0  0
 11 19  1  0  0  0  0
 13 21  1  0  0  0  0
 14 13  1  1  0  0  0
 14 26  1  0  0  0  0
 15  2  2  0  0  0  0
 16 20  2  0  0  0  0
 17 10  1  0  0  0  0
 17 21  1  0  0  0  0
 18 13  2  0  0  0  0
 19  2  1  6  0  0  0
 19  7  1  0  0  0  0
 19  1  1  0  0  0  0
 20 29  1  0  0  0  0
 22 23  1  6  0  0  0
 22 12  1  0  0  0  0
 22 14  1  0  0  0  0
 24  6  2  0  0  0  0
 26 28  1  1  0  0  0
 27 26  1  0  0  0  0
 27 25  1  1  0  0  0
 27 28  1  0  0  0  0
 29 30  1  0  0  0  0
M  END
>  <MODEL>
5

>  <REMARK>
 VINA RESULT:      -6.4      3.797      6.126
  Name = 
  2 active torsions:
  status: ('A' for Active; 'I' for Inactive)
    1  A    between atoms: O_6  and  C_25
    2  A    between atoms: C_16  and  C_19
                            x       y       z     vdW  Elec       q    Type
                         _______ _______ _______ _____ _____    ______ ____

>  <TORSDO>
F 2

$$$$
=
 OpenBabel11042418303D

 30 34  0  0  1  0  0  0  0  0999 V2000
  193.0690  175.2740  142.7410 C   0  0  2  0  0  3  0  0  0  0  0  0
  194.4540  176.6060  144.2950 N   0  0  0  0  0  0  0  0  0  0  0  0
  188.4080  175.6320  142.3980 C   0  0  2  0  0  3  0  0  0  0  0  0
  193.2540  173.1990  145.3320 C   0  0  0  0  0  2  0  0  0  0  0  0
  188.6070  175.3670  143.7540 O   0  0  0  0  0  1  0  0  0  0  0  0
  190.1250  177.7800  143.8390 C   0  0  0  0  0  3  0  0  0  0  0  0
  192.1950  176.2110  143.5820 C   0  0  0  0  0  0  0  0  0  0  0  0
  193.4120  175.2600  146.5050 N   0  0  0  0  0  2  0  0  0  0  0  0
  193.9070  176.5760  146.5940 N   0  0  0  0  0  2  0  0  0  0  0  0
  189.3720  174.8390  141.5330 C   0  0  0  0  0  2  0  0  0  0  0  0
  193.2240  174.6920  145.3480 C   0  0  1  0  0  3  0  0  0  0  0  0
  192.1700  174.1660  142.4330 N   0  0  0  0  0  2  0  0  0  0  0  0
  190.7780  171.7370  141.5550 C   0  0  0  0  0  0  0  0  0  0  0  0
  192.2690  171.8030  141.8020 C   0  0  2  0  0  3  0  0  0  0  0  0
  194.5910  177.1470  145.4680 C   0  0  0  0  0  3  0  0  0  0  0  0
  189.1760  178.0180  142.7420 C   0  0  0  0  0  3  0  0  0  0  0  0
  189.1700  173.4700  141.7310 O   0  0  0  0  0  0  0  0  0  0  0  0
  190.1440  170.7700  141.9560 O   0  0  0  0  0  0  0  0  0  0  0  0
  193.4660  175.5410  144.1060 C   0  0  1  0  0  0  0  0  0  0  0  0
  188.4490  177.1100  142.0700 C   0  0  0  0  0  0  0  0  0  0  0  0
  190.0590  172.8480  140.8480 C   0  0  0  0  0  2  0  0  0  0  0  0
  192.6490  172.8650  142.8520 C   0  0  2  0  0  3  0  0  0  0  0  0
  191.8640  172.4750  144.4390 S   0  0  0  0  0  0  0  0  0  0  0  0
  191.1530  176.9850  143.7120 C   0  0  0  0  0  0  0  0  0  0  0  0
  195.1020  171.2270  139.4920 N   0  0  0  0  0  1  0  0  0  0  0  0
  193.0700  172.0050  140.5130 C   0  0  1  0  0  3  0  0  0  0  0  0
  193.9780  170.8450  140.3250 C   0  0  1  0  0  3  0  0  0  0  0  0
  192.7820  170.9770  139.5900 O   0  0  0  0  0  0  0  0  0  0  0  0
  187.6870  177.5880  140.9980 O   0  0  0  0  0  0  0  0  0  0  0  0
  186.2670  177.6370  141.0290 C   0  0  0  0  0  1  0  0  0  0  0  0
  1 12  1  1  0  0  0
  1  7  1  0  0  0  0
  1 19  1  0  0  0  0
  2 15  2  0  0  0  0
  3  5  1  1  0  0  0
  7 24  2  0  0  0  0
  8  9  1  0  0  0  0
 10 17  1  0  0  0  0
 10  3  1  0  0  0  0
 11  4  1  6  0  0  0
 11  8  1  0  0  0  0
 13 18  2  0  0  0  0
 14 13  1  6  0  0  0
 14 22  1  0  0  0  0
 15  9  1  0  0  0  0
 16  6  1  0  0  0  0
 19  7  1  1  0  0  0
 19  2  1  0  0  0  0
 19 11  1  0  0  0  0
 20  3  1  0  0  0  0
 20 16  2  0  0  0  0
 21 13  1  0  0  0  0
 21 17  1  0  0  0  0
 22 12  1  6  0  0  0
 22 23  1  0  0  0  0
 23  4  1  0  0  0  0
 24  6  2  0  0  0  0
 26 28  1  6  0  0  0
 26 14  1  0  0  0  0
 27 25  1  6  0  0  0
 27 26  1  0  0  0  0
 28 27  1  0  0  0  0
 29 30  1  0  0  0  0
 29 20  1  0  0  0  0
M  END
>  <MODEL>
6

>  <REMARK>
 VINA RESULT:      -6.2      3.474      5.167
  Name = 
  2 active torsions:
  status: ('A' for Active; 'I' for Inactive)
    1  A    between atoms: O_6  and  C_25
    2  A    between atoms: C_16  and  C_19
                            x       y       z     vdW  Elec       q    Type
                         _______ _______ _______ _____ _____    ______ ____

>  <TORSDO>
F 2

$$$$
=
 OpenBabel11042418303D

 30 34  0  0  1  0  0  0  0  0999 V2000
  190.9630  176.1250  143.5530 C   0  0  2  0  0  3  0  0  0  0  0  0
  191.6680  176.7720  145.8310 N   0  0  0  0  0  0  0  0  0  0  0  0
  186.5470  176.3460  142.0000 C   0  0  2  0  0  3  0  0  0  0  0  0
  190.8390  173.1820  145.0930 C   0  0  0  0  0  2  0  0  0  0  0  0
  186.4410  175.5570  143.1470 O   0  0  0  0  0  1  0  0  0  0  0  0
  187.4590  177.7990  144.5870 C   0  0  0  0  0  3  0  0  0  0  0  0
  189.7610  176.5860  144.3830 C   0  0  0  0  0  0  0  0  0  0  0  0
  190.3480  174.5840  146.9480 N   0  0  0  0  0  2  0  0  0  0  0  0
  190.5760  175.7720  147.6720 N   0  0  0  0  0  2  0  0  0  0  0  0
  187.8160  176.0300  141.2280 C   0  0  0  0  0  2  0  0  0  0  0  0
  190.5550  174.5320  145.6640 C   0  0  1  0  0  3  0  0  0  0  0  0
  190.3710  175.1960  142.5960 N   0  0  0  0  0  2  0  0  0  0  0  0
  189.6740  173.2720  140.4920 C   0  0  0  0  0  0  0  0  0  0  0  0
  191.0230  173.3100  141.1780 C   0  0  2  0  0  3  0  0  0  0  0  0
  191.4140  176.7900  147.1050 C   0  0  0  0  0  3  0  0  0  0  0  0
  186.7890  178.4170  143.4330 C   0  0  0  0  0  3  0  0  0  0  0  0
  187.8050  174.6920  140.8240 O   0  0  0  0  0  0  0  0  0  0  0  0
  189.1330  172.1940  140.2890 O   0  0  0  0  0  0  0  0  0  0  0  0
  190.9540  175.8280  144.9670 C   0  0  1  0  0  0  0  0  0  0  0  0
  186.4180  177.8280  142.2830 C   0  0  0  0  0  0  0  0  0  0  0  0
  188.9790  174.5360  140.0790 C   0  0  0  0  0  2  0  0  0  0  0  0
  190.9420  173.8650  142.6130 C   0  0  2  0  0  3  0  0  0  0  0  0
  189.8610  172.8160  143.6230 S   0  0  0  0  0  0  0  0  0  0  0  0
  188.6040  177.1820  144.4800 C   0  0  0  0  0  0  0  0  0  0  0  0
  194.3920  173.8700  139.7560 N   0  0  0  0  0  1  0  0  0  0  0  0
  192.0760  174.0650  140.3630 C   0  0  1  0  0  3  0  0  0  0  0  0
  193.1720  173.1290  140.0090 C   0  0  1  0  0  3  0  0  0  0  0  0
  192.1900  173.5090  139.0710 O   0  0  0  0  0  0  0  0  0  0  0  0
  185.8810  178.6630  141.2980 O   0  0  0  0  0  0  0  0  0  0  0  0
  184.7530  178.2950  140.5140 C   0  0  0  0  0  1  0  0  0  0  0  0
  1 12  1  6  0  0  0
  1  7  1  0  0  0  0
  1 19  1  0  0  0  0
  2 15  2  0  0  0  0
  3 20  1  0  0  0  0
  3  5  1  1  0  0  0
  7 24  2  0  0  0  0
  8  9  1  0  0  0  0
 10  3  1  0  0  0  0
 11  4  1  1  0  0  0
 11  8  1  0  0  0  0
 14 13  1  6  0  0  0
 14 22  1  0  0  0  0
 15  9  1  0  0  0  0
 16  6  1  0  0  0  0
 17 10  1  0  0  0  0
 18 13  2  0  0  0  0
 19  7  1  1  0  0  0
 19 11  1  0  0  0  0
 19  2  1  0  0  0  0
 20 16  2  0  0  0  0
 21 13  1  0  0  0  0
 21 17  1  0  0  0  0
 22 12  1  6  0  0  0
 22 23  1  0  0  0  0
 23  4  1  0  0  0  0
 24  6  2  0  0  0  0
 26 28  1  6  0  0  0
 26 14  1  0  0  0  0
 27 25  1  6  0  0  0
 27 26  1  0  0  0  0
 28 27  1  0  0  0  0
 29 20  1  0  0  0  0
 30 29  1  0  0  0  0
M  END
>  <MODEL>
7

>  <REMARK>
 VINA RESULT:      -6.2      2.649      3.764
  Name = 
  2 active torsions:
  status: ('A' for Active; 'I' for Inactive)
    1  A    between atoms: O_6  and  C_25
    2  A    between atoms: C_16  and  C_19
                            x       y       z     vdW  Elec       q    Type
                         _______ _______ _______ _____ _____    ______ ____

>  <TORSDO>
F 2

$$$$
=
 OpenBabel11042418303D

 30 34  0  0  1  0  0  0  0  0999 V2000
  190.3130  173.2260  142.4040 C   0  0  2  0  0  3  0  0  0  0  0  0
  189.1600  172.1940  140.4770 N   0  0  0  0  0  0  0  0  0  0  0  0
  189.6550  177.6490  143.8070 C   0  0  2  0  0  3  0  0  0  0  0  0
  192.5440  173.7560  139.9990 C   0  0  0  0  0  2  0  0  0  0  0  0
  190.0120  177.7910  142.4650 O   0  0  0  0  0  1  0  0  0  0  0  0
  187.7030  176.2320  141.8520 C   0  0  0  0  0  3  0  0  0  0  0  0
  189.3760  174.2330  141.7280 C   0  0  0  0  0  0  0  0  0  0  0  0
  190.5700  173.7910  138.6760 N   0  0  0  0  0  2  0  0  0  0  0  0
  189.2930  173.2740  138.3790 N   0  0  0  0  0  2  0  0  0  0  0  0
  190.4530  176.5430  144.4760 C   0  0  0  0  0  2  0  0  0  0  0  0
  191.0560  173.7230  139.8820 C   0  0  1  0  0  3  0  0  0  0  0  0
  191.3440  174.0730  142.9940 N   0  0  0  0  0  2  0  0  0  0  0  0
  193.6290  175.3210  144.3470 C   0  0  0  0  0  0  0  0  0  0  0  0
  193.6670  173.9300  143.7520 C   0  0  2  0  0  3  0  0  0  0  0  0
  188.6990  172.3160  139.2680 C   0  0  0  0  0  3  0  0  0  0  0  0
  187.3440  176.8810  143.1220 C   0  0  0  0  0  3  0  0  0  0  0  0
  191.8160  176.8460  144.4300 O   0  0  0  0  0  0  0  0  0  0  0  0
  194.5780  176.0740  144.1770 O   0  0  0  0  0  0  0  0  0  0  0  0
  190.1510  173.1540  140.9690 C   0  0  1  0  0  0  0  0  0  0  0  0
  188.1660  177.4660  144.0100 C   0  0  0  0  0  0  0  0  0  0  0  0
  192.4370  175.8010  145.1210 C   0  0  0  0  0  2  0  0  0  0  0  0
  192.6950  173.7660  142.5690 C   0  0  2  0  0  3  0  0  0  0  0  0
  193.1300  174.9230  141.2430 S   0  0  0  0  0  0  0  0  0  0  0  0
  188.5500  175.2400  141.7910 C   0  0  0  0  0  0  0  0  0  0  0  0
  194.1930  170.6120  145.3020 N   0  0  0  0  0  1  0  0  0  0  0  0
  193.4380  172.8370  144.7990 C   0  0  1  0  0  3  0  0  0  0  0  0
  194.5930  171.9050  144.7810 C   0  0  1  0  0  3  0  0  0  0  0  0
  194.4460  172.8820  145.7860 O   0  0  0  0  0  0  0  0  0  0  0  0
  187.5800  177.9280  145.1940 O   0  0  0  0  0  0  0  0  0  0  0  0
  187.1470  177.0520  146.2260 C   0  0  0  0  0  1  0  0  0  0  0  0
  1  7  1  1  0  0  0
  1 12  1  0  0  0  0
  3  5  1  6  0  0  0
  3 20  1  0  0  0  0
  3 10  1  0  0  0  0
  4 23  1  0  0  0  0
  6 16  1  0  0  0  0
  7 24  2  0  0  0  0
  8 11  1  0  0  0  0
  9  8  1  0  0  0  0
  9 15  1  0  0  0  0
 11  4  1  6  0  0  0
 11 19  1  0  0  0  0
 13 21  1  0  0  0  0
 14 13  1  1  0  0  0
 14 26  1  0  0  0  0
 15  2  2  0  0  0  0
 16 20  2  0  0  0  0
 17 10  1  0  0  0  0
 17 21  1  0  0  0  0
 18 13  2  0  0  0  0
 19  2  1  6  0  0  0
 19  7  1  0  0  0  0
 19  1  1  0  0  0  0
 20 29  1  0  0  0  0
 22 23  1  6  0  0  0
 22 12  1  0  0  0  0
 22 14  1  0  0  0  0
 24  6  2  0  0  0  0
 26 28  1  1  0  0  0
 27 26  1  0  0  0  0
 27 25  1  1  0  0  0
 27 28  1  0  0  0  0
 29 30  1  0  0  0  0
M  END
>  <MODEL>
8

>  <REMARK>
 VINA RESULT:      -6.2      3.536      5.880
  Name = 
  2 active torsions:
  status: ('A' for Active; 'I' for Inactive)
    1  A    between atoms: O_6  and  C_25
    2  A    between atoms: C_16  and  C_19
                            x       y       z     vdW  Elec       q    Type
                         _______ _______ _______ _____ _____    ______ ____

>  <TORSDO>
F 2

$$$$
=
 OpenBabel11042418303D

 30 34  0  0  1  0  0  0  0  0999 V2000
  191.1820  174.1730  141.2860 C   0  0  2  0  0  3  0  0  0  0  0  0
  191.5020  172.0230  140.1110 N   0  0  0  0  0  0  0  0  0  0  0  0
  193.9460  175.7250  144.7380 C   0  0  2  0  0  3  0  0  0  0  0  0
  189.1750  172.2020  143.0560 C   0  0  0  0  0  2  0  0  0  0  0  0
  193.5390  174.4700  145.1970 O   0  0  0  0  0  1  0  0  0  0  0  0
  194.7910  173.3930  142.8720 C   0  0  0  0  0  3  0  0  0  0  0  0
  192.3890  173.4180  141.8530 C   0  0  0  0  0  0  0  0  0  0  0  0
  190.7770  170.5800  142.3860 N   0  0  0  0  0  2  0  0  0  0  0  0
  191.6320  170.0470  141.4000 N   0  0  0  0  0  2  0  0  0  0  0  0
  192.8160  176.4450  144.0230 C   0  0  0  0  0  2  0  0  0  0  0  0
  190.4580  171.8430  142.3830 C   0  0  1  0  0  3  0  0  0  0  0  0
  190.7280  174.9760  142.4180 N   0  0  0  0  0  2  0  0  0  0  0  0
  189.4410  176.7590  144.3610 C   0  0  0  0  0  0  0  0  0  0  0  0
  188.7030  176.0920  143.2200 C   0  0  2  0  0  3  0  0  0  0  0  0
  191.8230  170.7660  140.1720 C   0  0  0  0  0  3  0  0  0  0  0  0
  195.5530  174.6250  143.1240 C   0  0  0  0  0  3  0  0  0  0  0  0
  191.7460  176.6400  144.9010 O   0  0  0  0  0  0  0  0  0  0  0  0
  188.9280  176.7930  145.4710 O   0  0  0  0  0  0  0  0  0  0  0  0
  191.1240  172.7300  141.3380 C   0  0  1  0  0  0  0  0  0  0  0  0
  195.2000  175.6700  143.8910 C   0  0  0  0  0  0  0  0  0  0  0  0
  190.8030  177.3570  144.1590 C   0  0  0  0  0  2  0  0  0  0  0  0
  189.3470  174.7580  142.7980 C   0  0  2  0  0  3  0  0  0  0  0  0
  189.3370  173.5960  144.1900 S   0  0  0  0  0  0  0  0  0  0  0  0
  193.5840  173.4090  142.3740 C   0  0  0  0  0  0  0  0  0  0  0  0
  186.8790  177.5410  140.3460 N   0  0  0  0  0  1  0  0  0  0  0  0
  188.5280  177.0170  142.0130 C   0  0  1  0  0  3  0  0  0  0  0  0
  187.0790  177.1740  141.7350 C   0  0  1  0  0  3  0  0  0  0  0  0
  187.8220  178.1810  142.3840 O   0  0  0  0  0  0  0  0  0  0  0  0
  196.0650  176.7690  143.8880 O   0  0  0  0  0  0  0  0  0  0  0  0
  197.2730  176.7910  143.1380 C   0  0  0  0  0  1  0  0  0  0  0  0
  1 19  1  0  0  0  0
  1  7  1  1  0  0  0
  1 12  1  0  0  0  0
  2 15  2  0  0  0  0
  3  5  1  6  0  0  0
  4 23  1  0  0  0  0
  6 16  1  0  0  0  0
  7 24  2  0  0  0  0
  9  8  1  0  0  0  0
 10  3  1  0  0  0  0
 10 17  1  0  0  0  0
 11  8  1  0  0  0  0
 11  4  1  6  0  0  0
 13 18  2  0  0  0  0
 14 13  1  1  0  0  0
 15  9  1  0  0  0  0
 16 20  2  0  0  0  0
 19  2  1  6  0  0  0
 19  7  1  0  0  0  0
 19 11  1  0  0  0  0
 20  3  1  0  0  0  0
 21 13  1  0  0  0  0
 21 17  1  0  0  0  0
 22 12  1  1  0  0  0
 22 14  1  0  0  0  0
 22 23  1  0  0  0  0
 24  6  2  0  0  0  0
 26 28  1  1  0  0  0
 26 14  1  0  0  0  0
 27 25  1  6  0  0  0
 27 26  1  0  0  0  0
 27 28  1  0  0  0  0
 29 20  1  0  0  0  0
 30 29  1  0  0  0  0
M  END
>  <MODEL>
9

>  <REMARK>
 VINA RESULT:      -6.1      3.455      7.477
  Name = 
  2 active torsions:
  status: ('A' for Active; 'I' for Inactive)
    1  A    between atoms: O_6  and  C_25
    2  A    between atoms: C_16  and  C_19
                            x       y       z     vdW  Elec       q    Type
                         _______ _______ _______ _____ _____    ______ ____

>  <TORSDO>
F 2

$$$$
