=
 OpenBabel11042416483D

 29 32  0  0  1  0  0  0  0  0999 V2000
  189.8280  177.3430  145.4240 C   0  0  1  0  0  3  0  0  0  0  0  0
  187.8800  177.1570  142.2440 N   0  0  0  0  0  2  0  0  0  0  0  0
  190.6890  176.7890  144.3060 C   0  0  0  0  0  2  0  0  0  0  0  0
  190.2970  177.4210  142.9860 C   0  0  0  0  0  2  0  0  0  0  0  0
  184.8020  178.4150  147.0770 C   0  0  0  0  0  3  0  0  0  0  0  0
  183.8410  178.8340  146.1360 C   0  0  0  0  0  3  0  0  0  0  0  0
  185.0810  178.4300  141.8580 C   0  0  0  0  0  1  0  0  0  0  0  0
  184.1210  178.7910  144.7610 C   0  0  0  0  0  3  0  0  0  0  0  0
  189.4970  175.5720  141.7230 O   0  0  0  0  0  0  0  0  0  0  0  0
  187.4360  177.5230  144.6800 C   0  0  0  0  0  0  0  0  0  0  0  0
  186.0590  177.9530  146.6560 C   0  0  0  0  0  2  0  0  0  0  0  0
  188.4820  176.8050  145.3320 N   0  0  0  0  0  2  0  0  0  0  0  0
  187.1800  177.6230  143.2350 C   0  0  0  0  0  0  0  0  0  0  0  0
  189.2110  176.6420  142.3230 C   0  0  0  0  0  0  0  0  0  0  0  0
  185.3770  178.3330  144.3580 C   0  0  0  0  0  0  0  0  0  0  0  0
  186.3280  177.9320  145.2860 C   0  0  0  0  0  0  0  0  0  0  0  0
  185.8300  178.1640  143.1200 C   0  0  0  0  0  0  0  0  0  0  0  0
  190.4370  176.9600  146.7620 C   0  0  0  0  0  2  0  0  0  0  0  0
  189.7670  174.8300  147.6040 O   0  0  0  0  0  1  0  0  0  0  0  0
  190.7210  175.4680  146.8080 C   0  0  2  0  0  3  0  0  0  0  0  0
  192.1090  175.2310  147.3790 C   0  0  0  0  0  2  0  0  0  0  0  0
  193.2270  174.1150  144.8790 O   0  0  0  0  0  1  0  0  0  0  0  0
  193.1860  175.8530  146.5400 C   0  0  0  0  0  0  0  0  0  0  0  0
  194.6920  176.1660  144.8850 C   0  0  0  0  0  0  0  0  0  0  0  0
  193.8990  177.1430  146.8170 C   0  0  0  0  0  2  0  0  0  0  0  0
  193.6590  175.3150  145.4330 C   0  0  0  0  0  0  0  0  0  0  0  0
  194.8410  177.2350  145.6530 C   0  0  0  0  0  3  0  0  0  0  0  0
  196.5290  176.7850  143.5420 O   0  0  0  0  0  1  0  0  0  0  0  0
  195.4270  175.9320  143.6130 C   0  0  0  0  0  2  0  0  0  0  0  0
  1 18  1  1  0  0  0
  2 14  1  0  0  0  0
  2 13  1  0  0  0  0
  3  1  1  0  0  0  0
  4  3  1  0  0  0  0
  6  5  2  0  0  0  0
  7 17  1  0  0  0  0
  8  6  1  0  0  0  0
  9 14  2  0  0  0  0
 10 16  2  0  0  0  0
 10 12  1  0  0  0  0
 11  5  1  0  0  0  0
 12  1  1  0  0  0  0
 13 10  1  0  0  0  0
 14  4  1  0  0  0  0
 15  8  2  0  0  0  0
 15 16  1  0  0  0  0
 16 11  1  0  0  0  0
 17 13  2  0  0  0  0
 17 15  1  0  0  0  0
 18 20  1  0  0  0  0
 20 21  1  0  0  0  0
 20 19  1  1  0  0  0
 22 26  1  0  0  0  0
 23 25  1  0  0  0  0
 23 21  1  0  0  0  0
 24 26  1  0  0  0  0
 24 27  2  0  0  0  0
 26 23  2  0  0  0  0
 27 25  1  0  0  0  0
 28 29  1  0  0  0  0
 29 24  1  0  0  0  0
M  END
>  <MODEL>
1

>  <REMARK>
 VINA RESULT:      -8.4      0.000      0.000
  Name = 
  5 active torsions:
  status: ('A' for Active; 'I' for Inactive)
    1  A    between atoms: C_1  and  C_13
    2  A    between atoms: C_8  and  C_28
    3  A    between atoms: C_9  and  C_15
    4  A    between atoms: C_13  and  C_18
    5  A    between atoms: C_18  and  C_28
                            x       y       z     vdW  Elec       q    Type
                         _______ _______ _______ _____ _____    ______ ____

>  <TORSDO>
F 5

$$$$
=
 OpenBabel11042416483D

 29 32  0  0  1  0  0  0  0  0999 V2000
  186.5080  176.8910  145.8250 C   0  0  1  0  0  3  0  0  0  0  0  0
  185.7570  178.6560  142.6220 N   0  0  0  0  0  2  0  0  0  0  0  0
  185.7280  178.1620  146.0910 C   0  0  0  0  0  2  0  0  0  0  0  0
  184.7660  178.4290  144.9510 C   0  0  0  0  0  2  0  0  0  0  0  0
  189.4870  174.1420  142.2580 C   0  0  0  0  0  3  0  0  0  0  0  0
  189.1790  174.2330  140.8860 C   0  0  0  0  0  3  0  0  0  0  0  0
  186.2280  177.4210  139.8180 C   0  0  0  0  0  1  0  0  0  0  0  0
  188.2400  175.1700  140.4260 C   0  0  0  0  0  3  0  0  0  0  0  0
  185.5600  180.4800  144.0470 O   0  0  0  0  0  0  0  0  0  0  0  0
  187.2170  176.7840  143.4180 C   0  0  0  0  0  0  0  0  0  0  0  0
  188.8550  174.9820  143.1890 C   0  0  0  0  0  2  0  0  0  0  0  0
  187.4900  177.1160  144.7780 N   0  0  0  0  0  2  0  0  0  0  0  0
  186.4320  177.5590  142.4450 C   0  0  0  0  0  0  0  0  0  0  0  0
  185.4170  179.2400  143.8810 C   0  0  0  0  0  0  0  0  0  0  0  0
  187.6170  175.9960  141.3640 C   0  0  0  0  0  0  0  0  0  0  0  0
  187.9110  175.8970  142.7170 C   0  0  0  0  0  0  0  0  0  0  0  0
  186.7460  176.9750  141.1440 C   0  0  0  0  0  0  0  0  0  0  0  0
  187.2160  176.4610  147.0990 C   0  0  0  0  0  2  0  0  0  0  0  0
  188.7340  174.6720  147.5340 O   0  0  0  0  0  1  0  0  0  0  0  0
  188.5590  175.8300  146.7730 C   0  0  2  0  0  3  0  0  0  0  0  0
  189.6740  176.8180  147.0740 C   0  0  0  0  0  2  0  0  0  0  0  0
  192.0560  175.1230  147.5180 O   0  0  0  0  0  1  0  0  0  0  0  0
  190.8370  176.6700  146.1380 C   0  0  0  0  0  0  0  0  0  0  0  0
  192.8200  176.0050  145.2830 C   0  0  0  0  0  0  0  0  0  0  0  0
  191.0120  177.3580  144.8180 C   0  0  0  0  0  3  0  0  0  0  0  0
  191.8830  175.9050  146.3810 C   0  0  2  0  0  3  0  0  0  0  0  0
  192.3370  176.8220  144.3610 C   0  0  0  0  0  3  0  0  0  0  0  0
  195.0350  175.7610  146.0530 O   0  0  0  0  0  1  0  0  0  0  0  0
  194.0950  175.2490  145.1580 C   0  0  0  0  0  2  0  0  0  0  0  0
  1  3  1  0  0  0  0
  1 18  1  1  0  0  0
  2 14  1  0  0  0  0
  4  3  1  0  0  0  0
  5 11  1  0  0  0  0
  6  5  2  0  0  0  0
  7 17  1  0  0  0  0
  8  6  1  0  0  0  0
  8 15  2  0  0  0  0
 10 12  1  0  0  0  0
 12  1  1  0  0  0  0
 13  2  1  0  0  0  0
 13 10  1  0  0  0  0
 14  9  2  0  0  0  0
 14  4  1  0  0  0  0
 15 16  1  0  0  0  0
 16 11  1  0  0  0  0
 16 10  2  0  0  0  0
 17 15  1  0  0  0  0
 17 13  2  0  0  0  0
 20 21  1  0  0  0  0
 20 18  1  0  0  0  0
 20 19  1  1  0  0  0
 23 26  1  0  0  0  0
 23 21  1  0  0  0  0
 24 26  1  0  0  0  0
 25 23  2  0  0  0  0
 26 22  1  6  0  0  0
 27 25  1  0  0  0  0
 27 24  2  0  0  0  0
 29 24  1  0  0  0  0
 29 28  1  0  0  0  0
M  END
>  <MODEL>
2

>  <REMARK>
 VINA RESULT:      -8.2      2.126      4.169
  Name = 
  5 active torsions:
  status: ('A' for Active; 'I' for Inactive)
    1  A    between atoms: C_1  and  C_13
    2  A    between atoms: C_8  and  C_28
    3  A    between atoms: C_9  and  C_15
    4  A    between atoms: C_13  and  C_18
    5  A    between atoms: C_18  and  C_28
                            x       y       z     vdW  Elec       q    Type
                         _______ _______ _______ _____ _____    ______ ____

>  <TORSDO>
F 5

$$$$
=
 OpenBabel11042416483D

 29 32  0  0  1  0  0  0  0  0999 V2000
  188.0720  175.8180  142.4220 C   0  0  1  0  0  3  0  0  0  0  0  0
  185.7380  178.7080  142.0400 N   0  0  0  0  0  2  0  0  0  0  0  0
  187.7550  176.0540  140.9590 C   0  0  0  0  0  2  0  0  0  0  0  0
  187.5540  177.5340  140.7030 C   0  0  0  0  0  2  0  0  0  0  0  0
  186.6160  176.8170  147.5250 C   0  0  0  0  0  3  0  0  0  0  0  0
  186.0640  178.0710  147.8520 C   0  0  0  0  0  3  0  0  0  0  0  0
  184.9840  180.6340  144.3480 C   0  0  0  0  0  1  0  0  0  0  0  0
  185.7160  178.9840  146.8420 C   0  0  0  0  0  3  0  0  0  0  0  0
  185.2790  177.6550  140.0210 O   0  0  0  0  0  0  0  0  0  0  0  0
  186.6040  177.2440  143.8780 C   0  0  0  0  0  0  0  0  0  0  0  0
  186.8320  176.4600  146.1840 C   0  0  0  0  0  3  0  0  0  0  0  0
  186.8780  176.0040  143.2290 N   0  0  0  0  0  2  0  0  0  0  0  0
  186.0360  178.4630  143.2820 C   0  0  0  0  0  0  0  0  0  0  0  0
  186.1280  177.9220  140.9110 C   0  0  0  0  0  0  0  0  0  0  0  0
  185.9410  178.6160  145.5140 C   0  0  0  0  0  0  0  0  0  0  0  0
  186.4950  177.3850  145.1930 C   0  0  2  0  0  3  0  0  0  0  0  0
  185.6420  179.2970  144.4130 C   0  0  0  0  0  0  0  0  0  0  0  0
  188.5890  174.4010  142.6010 C   0  0  0  0  0  2  0  0  0  0  0  0
  190.3600  173.7280  141.1500 O   0  0  0  0  0  1  0  0  0  0  0  0
  190.0900  174.3510  142.3700 C   0  0  2  0  0  3  0  0  0  0  0  0
  190.7540  173.5800  143.5000 C   0  0  0  0  0  2  0  0  0  0  0  0
  191.8250  176.0960  144.6270 O   0  0  0  0  0  1  0  0  0  0  0  0
  190.4300  174.1500  144.8490 C   0  0  0  0  0  0  0  0  0  0  0  0
  190.4260  175.5230  146.6430 C   0  0  0  0  0  0  0  0  0  0  0  0
  189.5160  173.5490  145.8740 C   0  0  0  0  0  2  0  0  0  0  0  0
  190.9370  175.2750  145.3130 C   0  0  0  0  0  0  0  0  0  0  0  0
  189.5930  174.5530  146.9860 C   0  0  0  0  0  3  0  0  0  0  0  0
  189.9350  177.7920  147.0510 O   0  0  0  0  0  1  0  0  0  0  0  0
  190.7190  176.7200  147.4780 C   0  0  0  0  0  2  0  0  0  0  0  0
  1 18  1  6  0  0  0
  1 12  1  0  0  0  0
  2 13  1  0  0  0  0
  3  1  1  0  0  0  0
  4 14  1  0  0  0  0
  4  3  1  0  0  0  0
  5  6  1  0  0  0  0
  7 17  1  0  0  0  0
  8  6  2  0  0  0  0
  9 14  2  0  0  0  0
 10 16  1  0  0  0  0
 11  5  2  0  0  0  0
 12 10  1  0  0  0  0
 13 10  2  0  0  0  0
 13 17  1  0  0  0  0
 14  2  1  0  0  0  0
 15  8  1  0  0  0  0
 16 15  1  0  0  0  0
 16 11  1  6  0  0  0
 17 15  2  0  0  0  0
 20 19  1  6  0  0  0
 20 18  1  0  0  0  0
 20 21  1  0  0  0  0
 21 23  1  0  0  0  0
 22 26  1  0  0  0  0
 23 26  2  0  0  0  0
 23 25  1  0  0  0  0
 24 27  2  0  0  0  0
 24 29  1  0  0  0  0
 25 27  1  0  0  0  0
 26 24  1  0  0  0  0
 28 29  1  0  0  0  0
M  END
>  <MODEL>
3

>  <REMARK>
 VINA RESULT:      -8.1      2.454      4.019
  Name = 
  5 active torsions:
  status: ('A' for Active; 'I' for Inactive)
    1  A    between atoms: C_1  and  C_13
    2  A    between atoms: C_8  and  C_28
    3  A    between atoms: C_9  and  C_15
    4  A    between atoms: C_13  and  C_18
    5  A    between atoms: C_18  and  C_28
                            x       y       z     vdW  Elec       q    Type
                         _______ _______ _______ _____ _____    ______ ____

>  <TORSDO>
F 5

$$$$
=
 OpenBabel11042416483D

 29 32  0  0  1  0  0  0  0  0999 V2000
  189.5890  177.8750  144.1940 C   0  0  1  0  0  3  0  0  0  0  0  0
  186.4700  177.7180  142.1470 N   0  0  0  0  0  2  0  0  0  0  0  0
  189.9160  177.5270  142.7550 C   0  0  0  0  0  2  0  0  0  0  0  0
  188.9420  178.2140  141.8200 C   0  0  0  0  0  2  0  0  0  0  0  0
  185.7200  178.1770  147.9480 C   0  0  0  0  0  3  0  0  0  0  0  0
  184.4170  178.5520  147.5660 C   0  0  0  0  0  3  0  0  0  0  0  0
  183.6950  178.6650  143.1530 C   0  0  0  0  0  1  0  0  0  0  0  0
  184.0720  178.6590  146.2090 C   0  0  0  0  0  3  0  0  0  0  0  0
  187.8120  176.3940  140.7900 O   0  0  0  0  0  0  0  0  0  0  0  0
  187.1060  177.8210  144.5660 C   0  0  0  0  0  0  0  0  0  0  0  0
  186.6990  177.9100  146.9770 C   0  0  0  0  0  3  0  0  0  0  0  0
  188.3820  177.1850  144.6140 N   0  0  0  0  0  2  0  0  0  0  0  0
  186.2390  178.0090  143.3930 C   0  0  0  0  0  0  0  0  0  0  0  0
  187.7370  177.3660  141.5860 C   0  0  0  0  0  0  0  0  0  0  0  0
  185.0580  178.3960  145.2560 C   0  0  0  0  0  0  0  0  0  0  0  0
  186.3450  178.0380  145.6320 C   0  0  2  0  0  3  0  0  0  0  0  0
  184.9370  178.3880  143.9330 C   0  0  0  0  0  0  0  0  0  0  0  0
  190.7460  177.4590  145.0860 C   0  0  0  0  0  2  0  0  0  0  0  0
  190.2040  177.7010  147.3970 O   0  0  0  0  0  1  0  0  0  0  0  0
  190.2300  176.7830  146.3440 C   0  0  2  0  0  3  0  0  0  0  0  0
  191.1320  175.6140  146.7030 C   0  0  0  0  0  2  0  0  0  0  0  0
  193.2980  174.3180  145.1620 O   0  0  0  0  0  1  0  0  0  0  0  0
  190.9730  174.4590  145.7590 C   0  0  0  0  0  0  0  0  0  0  0  0
  191.4660  172.8380  144.2650 C   0  0  0  0  0  0  0  0  0  0  0  0
  189.6930  173.7580  145.4160 C   0  0  0  0  0  2  0  0  0  0  0  0
  191.9690  173.9150  145.0880 C   0  0  0  0  0  0  0  0  0  0  0  0
  190.1600  172.7130  144.4450 C   0  0  0  0  0  3  0  0  0  0  0  0
  192.1900  170.6310  143.8620 O   0  0  0  0  0  1  0  0  0  0  0  0
  192.2880  171.9440  143.4040 C   0  0  0  0  0  2  0  0  0  0  0  0
  1 12  1  0  0  0  0
  1 18  1  1  0  0  0
  2 13  1  0  0  0  0
  3  1  1  0  0  0  0
  4  3  1  0  0  0  0
  6  5  1  0  0  0  0
  7 17  1  0  0  0  0
  8  6  2  0  0  0  0
  9 14  2  0  0  0  0
 10 12  1  0  0  0  0
 10 16  1  0  0  0  0
 11  5  2  0  0  0  0
 13 17  1  0  0  0  0
 13 10  2  0  0  0  0
 14  4  1  0  0  0  0
 14  2  1  0  0  0  0
 15 16  1  0  0  0  0
 15  8  1  0  0  0  0
 16 11  1  1  0  0  0
 17 15  2  0  0  0  0
 18 20  1  0  0  0  0
 20 21  1  0  0  0  0
 20 19  1  1  0  0  0
 23 21  1  0  0  0  0
 24 27  2  0  0  0  0
 24 26  1  0  0  0  0
 25 23  1  0  0  0  0
 26 22  1  0  0  0  0
 26 23  2  0  0  0  0
 27 25  1  0  0  0  0
 29 28  1  0  0  0  0
 29 24  1  0  0  0  0
M  END
>  <MODEL>
4

>  <REMARK>
 VINA RESULT:      -7.9      1.999      2.885
  Name = 
  5 active torsions:
  status: ('A' for Active; 'I' for Inactive)
    1  A    between atoms: C_1  and  C_13
    2  A    between atoms: C_8  and  C_28
    3  A    between atoms: C_9  and  C_15
    4  A    between atoms: C_13  and  C_18
    5  A    between atoms: C_18  and  C_28
                            x       y       z     vdW  Elec       q    Type
                         _______ _______ _______ _____ _____    ______ ____

>  <TORSDO>
F 5

$$$$
=
 OpenBabel11042416483D

 29 32  0  0  1  0  0  0  0  0999 V2000
  189.9620  175.2050  144.7940 C   0  0  1  0  0  3  0  0  0  0  0  0
  187.5930  176.3570  142.1480 N   0  0  0  0  0  2  0  0  0  0  0  0
  190.2490  174.5020  143.4820 C   0  0  0  0  0  2  0  0  0  0  0  0
  189.9520  175.4280  142.3210 C   0  0  0  0  0  2  0  0  0  0  0  0
  186.3900  178.1060  147.6180 C   0  0  0  0  0  3  0  0  0  0  0  0
  185.5720  179.0360  146.9470 C   0  0  0  0  0  3  0  0  0  0  0  0
  185.6700  178.7660  142.4830 C   0  0  0  0  0  1  0  0  0  0  0  0
  185.5410  179.0770  145.5430 C   0  0  0  0  0  3  0  0  0  0  0  0
  188.1750  174.3220  141.1930 O   0  0  0  0  0  0  0  0  0  0  0  0
  187.8270  176.5180  144.6360 C   0  0  0  0  0  0  0  0  0  0  0  0
  187.1930  177.2090  146.8950 C   0  0  0  0  0  3  0  0  0  0  0  0
  188.5280  175.3280  144.9930 N   0  0  0  0  0  2  0  0  0  0  0  0
  187.3820  176.9300  143.2960 C   0  0  0  0  0  0  0  0  0  0  0  0
  188.5280  175.3070  141.8920 C   0  0  0  0  0  0  0  0  0  0  0  0
  186.3480  178.1830  144.8390 C   0  0  0  0  0  0  0  0  0  0  0  0
  187.1630  177.2750  145.5000 C   0  0  2  0  0  3  0  0  0  0  0  0
  186.4340  178.0170  143.5230 C   0  0  0  0  0  0  0  0  0  0  0  0
  190.5640  174.4030  145.9350 C   0  0  0  0  0  2  0  0  0  0  0  0
  190.7510  175.7880  147.8690 O   0  0  0  0  0  1  0  0  0  0  0  0
  191.4680  175.2820  146.7820 C   0  0  2  0  0  3  0  0  0  0  0  0
  192.0010  176.4280  145.9380 C   0  0  0  0  0  2  0  0  0  0  0  0
  192.9530  176.7880  143.1620 O   0  0  0  0  0  1  0  0  0  0  0  0
  193.3940  176.1750  145.4440 C   0  0  0  0  0  0  0  0  0  0  0  0
  195.1710  175.9980  144.0600 C   0  0  0  0  0  0  0  0  0  0  0  0
  194.5540  175.6850  146.2590 C   0  0  0  0  0  2  0  0  0  0  0  0
  193.7730  176.3440  144.1930 C   0  0  0  0  0  0  0  0  0  0  0  0
  195.6510  175.6300  145.2370 C   0  0  0  0  0  3  0  0  0  0  0  0
  197.2690  176.5390  143.1310 O   0  0  0  0  0  1  0  0  0  0  0  0
  195.9800  176.1110  142.8160 C   0  0  0  0  0  2  0  0  0  0  0  0
  1 12  1  0  0  0  0
  1 18  1  1  0  0  0
  2 13  1  0  0  0  0
  3  1  1  0  0  0  0
  4  3  1  0  0  0  0
  6  5  1  0  0  0  0
  7 17  1  0  0  0  0
  8  6  2  0  0  0  0
  9 14  2  0  0  0  0
 10 12  1  0  0  0  0
 10 16  1  0  0  0  0
 11  5  2  0  0  0  0
 13 17  1  0  0  0  0
 13 10  2  0  0  0  0
 14  2  1  0  0  0  0
 14  4  1  0  0  0  0
 15 16  1  0  0  0  0
 15  8  1  0  0  0  0
 16 11  1  1  0  0  0
 17 15  2  0  0  0  0
 18 20  1  0  0  0  0
 20 19  1  1  0  0  0
 21 20  1  0  0  0  0
 22 26  1  0  0  0  0
 23 21  1  0  0  0  0
 23 25  1  0  0  0  0
 24 26  1  0  0  0  0
 24 27  2  0  0  0  0
 26 23  2  0  0  0  0
 27 25  1  0  0  0  0
 29 28  1  0  0  0  0
 29 24  1  0  0  0  0
M  END
>  <MODEL>
5

>  <REMARK>
 VINA RESULT:      -7.9      1.444      1.637
  Name = 
  5 active torsions:
  status: ('A' for Active; 'I' for Inactive)
    1  A    between atoms: C_1  and  C_13
    2  A    between atoms: C_8  and  C_28
    3  A    between atoms: C_9  and  C_15
    4  A    between atoms: C_13  and  C_18
    5  A    between atoms: C_18  and  C_28
                            x       y       z     vdW  Elec       q    Type
                         _______ _______ _______ _____ _____    ______ ____

>  <TORSDO>
F 5

$$$$
=
 OpenBabel11042416483D

 29 32  0  0  1  0  0  0  0  0999 V2000
  189.4570  175.3610  145.1940 C   0  0  1  0  0  3  0  0  0  0  0  0
  187.9550  175.2590  141.7780 N   0  0  0  0  0  2  0  0  0  0  0  0
  189.9570  174.1510  144.4310 C   0  0  0  0  0  2  0  0  0  0  0  0
  190.0670  174.4760  142.9560 C   0  0  0  0  0  2  0  0  0  0  0  0
  185.7130  179.2420  145.4560 C   0  0  0  0  0  3  0  0  0  0  0  0
  185.2040  179.7910  144.2630 C   0  0  0  0  0  3  0  0  0  0  0  0
  186.3300  177.5880  140.5360 C   0  0  0  0  0  1  0  0  0  0  0  0
  185.5140  179.2130  143.0210 C   0  0  0  0  0  3  0  0  0  0  0  0
  188.4840  173.0050  141.9630 O   0  0  0  0  0  0  0  0  0  0  0  0
  187.6060  176.4930  143.9290 C   0  0  0  0  0  0  0  0  0  0  0  0
  186.5440  178.1120  145.4240 C   0  0  0  0  0  2  0  0  0  0  0  0
  188.0450  175.5730  144.9270 N   0  0  0  0  0  2  0  0  0  0  0  0
  187.5500  176.2790  142.4740 C   0  0  0  0  0  0  0  0  0  0  0  0
  188.7830  174.1940  142.2500 C   0  0  0  0  0  0  0  0  0  0  0  0
  186.3460  178.0920  143.0050 C   0  0  0  0  0  0  0  0  0  0  0  0
  186.8570  177.5590  144.1800 C   0  0  0  0  0  0  0  0  0  0  0  0
  186.7220  177.3650  141.9580 C   0  0  0  0  0  0  0  0  0  0  0  0
  189.6620  175.1350  146.6830 C   0  0  0  0  0  2  0  0  0  0  0  0
  191.2900  175.2910  148.4210 O   0  0  0  0  0  1  0  0  0  0  0  0
  191.1380  175.2250  147.0340 C   0  0  2  0  0  3  0  0  0  0  0  0
  191.7400  176.4630  146.3910 C   0  0  0  0  0  2  0  0  0  0  0  0
  192.5010  176.8750  143.5640 O   0  0  0  0  0  1  0  0  0  0  0  0
  193.0900  176.1970  145.7940 C   0  0  0  0  0  0  0  0  0  0  0  0
  194.7620  176.0230  144.2830 C   0  0  0  0  0  0  0  0  0  0  0  0
  194.2940  175.6660  146.5130 C   0  0  0  0  0  2  0  0  0  0  0  0
  193.3840  176.3910  144.5230 C   0  0  0  0  0  0  0  0  0  0  0  0
  195.3160  175.6170  145.4150 C   0  0  0  0  0  3  0  0  0  0  0  0
  196.7070  176.7880  143.1940 O   0  0  0  0  0  1  0  0  0  0  0  0
  195.4830  176.1520  142.9880 C   0  0  0  0  0  2  0  0  0  0  0  0
  1 18  1  1  0  0  0
  2 14  1  0  0  0  0
  2 13  1  0  0  0  0
  3  1  1  0  0  0  0
  4  3  1  0  0  0  0
  6  5  2  0  0  0  0
  7 17  1  0  0  0  0
  8  6  1  0  0  0  0
  9 14  2  0  0  0  0
 10 16  2  0  0  0  0
 10 12  1  0  0  0  0
 11  5  1  0  0  0  0
 12  1  1  0  0  0  0
 13 10  1  0  0  0  0
 14  4  1  0  0  0  0
 15  8  2  0  0  0  0
 15 16  1  0  0  0  0
 16 11  1  0  0  0  0
 17 13  2  0  0  0  0
 17 15  1  0  0  0  0
 18 20  1  0  0  0  0
 20 19  1  1  0  0  0
 21 20  1  0  0  0  0
 22 26  1  0  0  0  0
 23 21  1  0  0  0  0
 23 25  1  0  0  0  0
 24 26  1  0  0  0  0
 24 27  2  0  0  0  0
 26 23  2  0  0  0  0
 27 25  1  0  0  0  0
 29 28  1  0  0  0  0
 29 24  1  0  0  0  0
M  END
>  <MODEL>
6

>  <REMARK>
 VINA RESULT:      -7.9      1.629      1.873
  Name = 
  5 active torsions:
  status: ('A' for Active; 'I' for Inactive)
    1  A    between atoms: C_1  and  C_13
    2  A    between atoms: C_8  and  C_28
    3  A    between atoms: C_9  and  C_15
    4  A    between atoms: C_13  and  C_18
    5  A    between atoms: C_18  and  C_28
                            x       y       z     vdW  Elec       q    Type
                         _______ _______ _______ _____ _____    ______ ____

>  <TORSDO>
F 5

$$$$
=
 OpenBabel11042416483D

 29 32  0  0  1  0  0  0  0  0999 V2000
  189.0050  174.7160  144.6510 C   0  0  1  0  0  3  0  0  0  0  0  0
  188.1970  177.3910  147.1270 N   0  0  0  0  0  0  0  0  0  0  0  0
  190.0040  174.7030  145.7900 C   0  0  0  0  0  2  0  0  0  0  0  0
  189.3260  175.1140  147.0810 C   0  0  0  0  0  2  0  0  0  0  0  0
  185.1750  177.5390  142.1000 C   0  0  0  0  0  3  0  0  0  0  0  0
  184.3270  178.3820  142.8450 C   0  0  0  0  0  3  0  0  0  0  0  0
  185.5720  179.0400  147.0910 C   0  0  0  0  0  1  0  0  0  0  0  0
  184.5890  178.6400  144.2010 C   0  0  0  0  0  3  0  0  0  0  0  0
  190.4440  177.1330  147.6550 O   0  0  0  0  0  0  0  0  0  0  0  0
  187.5260  176.7390  144.8040 C   0  0  0  0  0  0  0  0  0  0  0  0
  186.2920  176.9380  142.7010 C   0  0  0  0  0  3  0  0  0  0  0  0
  188.6800  176.0830  144.2840 N   0  0  0  0  0  2  0  0  0  0  0  0
  187.3680  177.3660  146.1260 C   0  0  0  0  0  0  0  0  0  0  0  0
  189.3760  176.5940  147.2620 C   0  0  0  0  0  0  0  0  0  0  0  0
  185.7010  178.0310  144.7860 C   0  0  0  0  0  0  0  0  0  0  0  0
  186.5280  177.1910  144.0540 C   0  0  0  0  0  0  0  0  0  0  0  0
  186.1570  178.1760  146.0250 C   0  0  0  0  0  0  0  0  0  0  0  0
  189.6020  173.9980  143.4520 C   0  0  0  0  0  2  0  0  0  0  0  0
  189.2740  174.7260  141.2040 O   0  0  0  0  0  1  0  0  0  0  0  0
  189.9870  174.9960  142.3740 C   0  0  2  0  0  3  0  0  0  0  0  0
  191.4790  174.9030  142.1010 C   0  0  0  0  0  2  0  0  0  0  0  0
  193.5570  173.4390  143.6110 O   0  0  0  0  0  1  0  0  0  0  0  0
  192.3020  175.4530  143.2280 C   0  0  0  0  0  0  0  0  0  0  0  0
  193.8060  175.5850  144.9080 C   0  0  0  0  0  0  0  0  0  0  0  0
  192.2160  176.8350  143.8020 C   0  0  0  0  0  3  0  0  0  0  0  0
  193.2160  174.7600  143.8780 C   0  0  1  0  0  3  0  0  0  0  0  0
  193.2620  176.7910  144.8780 C   0  0  0  0  0  3  0  0  0  0  0  0
  196.0910  175.0300  145.0840 O   0  0  0  0  0  1  0  0  0  0  0  0
  194.9140  175.1820  145.8170 C   0  0  0  0  0  2  0  0  0  0  0  0
  1 18  1  6  0  0  0
  1  3  1  0  0  0  0
  2 14  1  0  0  0  0
  3  4  1  0  0  0  0
  4 14  1  0  0  0  0
  5 11  2  0  0  0  0
  5  6  1  0  0  0  0
  6  8  2  0  0  0  0
  8 15  1  0  0  0  0
 10 13  1  0  0  0  0
 11 16  1  0  0  0  0
 12  1  1  0  0  0  0
 12 10  1  0  0  0  0
 13  2  2  0  0  0  0
 14  9  2  0  0  0  0
 15 17  2  0  0  0  0
 16 15  1  0  0  0  0
 16 10  2  0  0  0  0
 17 13  1  0  0  0  0
 17  7  1  0  0  0  0
 20 19  1  6  0  0  0
 20 18  1  0  0  0  0
 21 20  1  0  0  0  0
 21 23  1  0  0  0  0
 23 25  2  0  0  0  0
 23 26  1  0  0  0  0
 24 29  1  0  0  0  0
 25 27  1  0  0  0  0
 26 22  1  1  0  0  0
 26 24  1  0  0  0  0
 27 24  2  0  0  0  0
 28 29  1  0  0  0  0
M  END
>  <MODEL>
7

>  <REMARK>
 VINA RESULT:      -7.8      1.649      3.641
  Name = 
  5 active torsions:
  status: ('A' for Active; 'I' for Inactive)
    1  A    between atoms: C_1  and  C_13
    2  A    between atoms: C_8  and  C_28
    3  A    between atoms: C_9  and  C_15
    4  A    between atoms: C_13  and  C_18
    5  A    between atoms: C_18  and  C_28
                            x       y       z     vdW  Elec       q    Type
                         _______ _______ _______ _____ _____    ______ ____

>  <TORSDO>
F 5

$$$$
=
 OpenBabel11042416483D

 29 32  0  0  1  0  0  0  0  0999 V2000
  189.4840  177.2530  142.7720 C   0  0  1  0  0  3  0  0  0  0  0  0
  190.3320  174.4630  145.1030 N   0  0  0  0  0  2  0  0  0  0  0  0
  189.4750  177.7400  144.2070 C   0  0  0  0  0  2  0  0  0  0  0  0
  190.5190  176.9970  145.0140 C   0  0  0  0  0  2  0  0  0  0  0  0
  189.3810  172.9480  139.5150 C   0  0  0  0  0  3  0  0  0  0  0  0
  190.0340  171.7650  139.9140 C   0  0  0  0  0  3  0  0  0  0  0  0
  191.3920  171.7010  144.1760 C   0  0  0  0  0  1  0  0  0  0  0  0
  190.5390  171.6340  141.2180 C   0  0  0  0  0  3  0  0  0  0  0  0
  189.2180  175.8220  146.6220 O   0  0  0  0  0  0  0  0  0  0  0  0
  189.7090  174.7530  142.6950 C   0  0  0  0  0  0  0  0  0  0  0  0
  189.2310  174.0180  140.4110 C   0  0  0  0  0  2  0  0  0  0  0  0
  188.8980  175.9270  142.6890 N   0  0  0  0  0  2  0  0  0  0  0  0
  190.3220  174.0910  143.8570 C   0  0  0  0  0  0  0  0  0  0  0  0
  189.9510  175.7470  145.6000 C   0  0  0  0  0  0  0  0  0  0  0  0
  190.3860  172.7080  142.0970 C   0  0  0  0  0  0  0  0  0  0  0  0
  189.7550  173.8780  141.6990 C   0  0  0  0  0  0  0  0  0  0  0  0
  190.7400  172.7780  143.3750 C   0  0  0  0  0  0  0  0  0  0  0  0
  188.6820  178.2150  141.9110 C   0  0  0  0  0  2  0  0  0  0  0  0
  187.1410  177.5830  140.2020 O   0  0  0  0  0  1  0  0  0  0  0  0
  187.3190  177.6270  141.5860 C   0  0  2  0  0  3  0  0  0  0  0  0
  186.2320  178.4800  142.2180 C   0  0  0  0  0  2  0  0  0  0  0  0
  185.4770  180.2780  144.4410 O   0  0  0  0  0  1  0  0  0  0  0  0
  185.9220  178.0610  143.6250 C   0  0  0  0  0  0  0  0  0  0  0  0
  185.3760  178.1670  145.8150 C   0  0  0  0  0  0  0  0  0  0  0  0
  185.9480  176.6620  144.1650 C   0  0  0  0  0  3  0  0  0  0  0  0
  185.5940  178.9000  144.5870 C   0  0  1  0  0  3  0  0  0  0  0  0
  185.5570  176.8740  145.5980 C   0  0  0  0  0  3  0  0  0  0  0  0
  185.9760  179.4990  147.6660 O   0  0  0  0  0  1  0  0  0  0  0  0
  184.9360  178.7530  147.1100 C   0  0  0  0  0  2  0  0  0  0  0  0
  1 18  1  6  0  0  0
  1  3  1  0  0  0  0
  2 14  1  0  0  0  0
  3  4  1  0  0  0  0
  4 14  1  0  0  0  0
  5  6  2  0  0  0  0
  5 11  1  0  0  0  0
  6  8  1  0  0  0  0
  8 15  2  0  0  0  0
 10 13  1  0  0  0  0
 11 16  1  0  0  0  0
 12 10  1  0  0  0  0
 12  1  1  0  0  0  0
 13  2  1  0  0  0  0
 14  9  2  0  0  0  0
 15 17  1  0  0  0  0
 16 15  1  0  0  0  0
 16 10  2  0  0  0  0
 17 13  2  0  0  0  0
 17  7  1  0  0  0  0
 20 19  1  6  0  0  0
 20 18  1  0  0  0  0
 20 21  1  0  0  0  0
 21 23  1  0  0  0  0
 23 25  2  0  0  0  0
 23 26  1  0  0  0  0
 24 29  1  0  0  0  0
 25 27  1  0  0  0  0
 26 22  1  1  0  0  0
 26 24  1  0  0  0  0
 27 24  2  0  0  0  0
 29 28  1  0  0  0  0
M  END
>  <MODEL>
8

>  <REMARK>
 VINA RESULT:      -7.7      3.164      7.747
  Name = 
  5 active torsions:
  status: ('A' for Active; 'I' for Inactive)
    1  A    between atoms: C_1  and  C_13
    2  A    between atoms: C_8  and  C_28
    3  A    between atoms: C_9  and  C_15
    4  A    between atoms: C_13  and  C_18
    5  A    between atoms: C_18  and  C_28
                            x       y       z     vdW  Elec       q    Type
                         _______ _______ _______ _____ _____    ______ ____

>  <TORSDO>
F 5

$$$$
=
 OpenBabel11042416483D

 29 32  0  0  1  0  0  0  0  0999 V2000
  187.6760  176.5420  145.6960 C   0  0  1  0  0  3  0  0  0  0  0  0
  184.4480  178.3730  145.2770 N   0  0  0  0  0  2  0  0  0  0  0  0
  187.1220  176.9560  147.0440 C   0  0  0  0  0  2  0  0  0  0  0  0
  185.6080  176.9250  147.0160 C   0  0  0  0  0  2  0  0  0  0  0  0
  187.4550  177.3000  140.3540 C   0  0  0  0  0  3  0  0  0  0  0  0
  186.2170  177.5930  139.7500 C   0  0  0  0  0  3  0  0  0  0  0  0
  182.9030  178.5560  142.5970 C   0  0  0  0  0  1  0  0  0  0  0  0
  185.0870  177.8770  140.5360 C   0  0  0  0  0  3  0  0  0  0  0  0
  185.0180  179.2010  147.3720 O   0  0  0  0  0  0  0  0  0  0  0  0
  186.3470  177.5950  143.8430 C   0  0  0  0  0  0  0  0  0  0  0  0
  187.5800  177.2800  141.7530 C   0  0  0  0  0  2  0  0  0  0  0  0
  187.4690  177.6020  144.7240 N   0  0  0  0  0  2  0  0  0  0  0  0
  184.9660  178.0020  144.1440 C   0  0  0  0  0  0  0  0  0  0  0  0
  185.0550  178.2360  146.5640 C   0  0  0  0  0  0  0  0  0  0  0  0
  185.2260  177.8500  141.9250 C   0  0  0  0  0  0  0  0  0  0  0  0
  186.4430  177.5490  142.5200 C   0  0  0  0  0  0  0  0  0  0  0  0
  184.3120  178.1340  142.8460 C   0  0  0  0  0  0  0  0  0  0  0  0
  189.1630  176.2610  145.8290 C   0  0  0  0  0  2  0  0  0  0  0  0
  189.7890  174.8080  147.6160 O   0  0  0  0  0  1  0  0  0  0  0  0
  189.3930  174.8270  146.2770 C   0  0  2  0  0  3  0  0  0  0  0  0
  190.4680  174.1900  145.4120 C   0  0  0  0  0  2  0  0  0  0  0  0
  190.3780  175.4750  142.7510 O   0  0  0  0  0  1  0  0  0  0  0  0
  189.9100  173.5840  144.1590 C   0  0  0  0  0  0  0  0  0  0  0  0
  189.2690  173.3380  142.0070 C   0  0  0  0  0  0  0  0  0  0  0  0
  189.2870  172.2260  144.0260 C   0  0  0  0  0  2  0  0  0  0  0  0
  189.8860  174.1980  142.9930 C   0  0  0  0  0  0  0  0  0  0  0  0
  188.9300  172.1890  142.5700 C   0  0  0  0  0  3  0  0  0  0  0  0
  189.5510  172.5700  139.7950 O   0  0  0  0  0  1  0  0  0  0  0  0
  189.1090  173.6500  140.5600 C   0  0  0  0  0  2  0  0  0  0  0  0
  1 18  1  1  0  0  0
  1  3  1  0  0  0  0
  2 14  1  0  0  0  0
  4  3  1  0  0  0  0
  5 11  1  0  0  0  0
  6  5  2  0  0  0  0
  6  8  1  0  0  0  0
  7 17  1  0  0  0  0
  8 15  2  0  0  0  0
 10 13  1  0  0  0  0
 10 12  1  0  0  0  0
 11 16  1  0  0  0  0
 12  1  1  0  0  0  0
 13  2  1  0  0  0  0
 14  4  1  0  0  0  0
 14  9  2  0  0  0  0
 15 16  1  0  0  0  0
 15 17  1  0  0  0  0
 16 10  2  0  0  0  0
 17 13  2  0  0  0  0
 18 20  1  0  0  0  0
 20 19  1  1  0  0  0
 21 20  1  0  0  0  0
 22 26  1  0  0  0  0
 23 21  1  0  0  0  0
 24 27  2  0  0  0  0
 24 26  1  0  0  0  0
 25 23  1  0  0  0  0
 26 23  2  0  0  0  0
 27 25  1  0  0  0  0
 28 29  1  0  0  0  0
 29 24  1  0  0  0  0
M  END
>  <MODEL>
9

>  <REMARK>
 VINA RESULT:      -7.7      2.852      5.062
  Name = 
  5 active torsions:
  status: ('A' for Active; 'I' for Inactive)
    1  A    between atoms: C_1  and  C_13
    2  A    between atoms: C_8  and  C_28
    3  A    between atoms: C_9  and  C_15
    4  A    between atoms: C_13  and  C_18
    5  A    between atoms: C_18  and  C_28
                            x       y       z     vdW  Elec       q    Type
                         _______ _______ _______ _____ _____    ______ ____

>  <TORSDO>
F 5

$$$$
