=
 OpenBabel11042419293D

 40 42  0  0  1  0  0  0  0  0999 V2000
  188.3900  176.1300  145.9570 C   0  0  0  0  0  3  0  0  0  0  0  0
  190.6250  176.9170  146.2370 O   0  0  0  0  0  0  0  0  0  0  0  0
  189.7050  176.0250  145.7810 C   0  0  0  0  0  0  0  0  0  0  0  0
  190.3800  174.9780  145.1160 N   0  0  0  0  0  0  0  0  0  0  0  0
  191.7260  175.1210  145.2840 O   0  0  0  0  0  0  0  0  0  0  0  0
  191.8930  176.4440  145.7960 C   0  0  2  0  0  3  0  0  0  0  0  0
  189.1560  171.9270  143.3300 C   0  0  0  0  0  3  0  0  0  0  0  0
  189.6790  172.7650  144.3190 C   0  0  0  0  0  3  0  0  0  0  0  0
  189.4710  174.6560  142.8280 C   0  0  0  0  0  3  0  0  0  0  0  0
  188.7900  172.4540  142.0890 C   0  0  0  0  0  3  0  0  0  0  0  0
  188.9450  173.8210  141.8390 C   0  0  0  0  0  0  0  0  0  0  0  0
  189.8430  174.1370  144.0790 C   0  0  0  0  0  0  0  0  0  0  0  0
  188.2220  173.3070  139.6020 N   0  0  0  0  0  1  0  0  0  0  0  0
  188.5730  174.3840  140.5130 C   0  0  0  0  0  2  0  0  0  0  0  0
  192.8850  176.4300  146.9500 C   0  0  0  0  0  2  0  0  0  0  0  0
  194.2860  176.1130  146.4560 C   0  0  0  0  0  2  0  0  0  0  0  0
  194.7230  177.1260  145.4150 C   0  0  0  0  0  2  0  0  0  0  0  0
  195.4820  176.4240  144.3090 C   0  0  2  0  0  3  0  0  0  0  0  0
  194.7870  175.1740  143.9640 N   0  0  0  0  0  0  0  0  0  0  0  0
  195.9970  175.1530  144.8010 C   0  0  0  0  0  2  0  0  0  0  0  0
  195.1920  174.8410  142.6650 N   0  0  0  0  0  2  0  0  0  0  0  0
  194.0360  174.2770  141.9860 C   0  0  0  0  0  2  0  0  0  0  0  0
  193.6110  173.1290  142.6550 O   0  0  0  0  0  0  0  0  0  0  0  0
  192.5370  172.6570  141.8990 C   0  0  0  0  0  2  0  0  0  0  0  0
  192.4860  173.3870  140.5710 C   0  0  0  0  0  2  0  0  0  0  0  0
  191.6200  172.7250  139.7000 O   0  0  0  0  0  0  0  0  0  0  0  0
  191.7130  171.3820  140.0630 C   0  0  0  0  0  2  0  0  0  0  0  0
  190.6610  169.2550  139.8010 O   0  0  0  0  0  1  0  0  0  0  0  0
  190.6260  170.5830  139.3710 C   0  0  0  0  0  2  0  0  0  0  0  0
  187.7980  177.2790  146.6930 C   0  0  0  0  0  2  0  0  0  0  0  0
  186.4310  176.8930  147.2160 C   0  0  0  0  0  2  0  0  0  0  0  0
  185.4600  176.7980  146.0570 C   0  0  0  0  0  2  0  0  0  0  0  0
  184.4850  177.8700  146.1530 N   0  0  0  0  0  2  0  0  0  0  0  0
  184.8830  178.9030  145.2100 C   0  0  0  0  0  2  0  0  0  0  0  0
  183.8970  178.9800  144.0530 C   0  0  0  0  0  2  0  0  0  0  0  0
  184.2930  178.0570  143.0020 N   0  0  0  0  0  2  0  0  0  0  0  0
  186.3230  176.1730  142.6590 O   0  0  0  0  0  1  0  0  0  0  0  0
  186.6040  177.3880  142.4770 C   0  0  0  0  0  0  0  0  0  0  0  0
  185.6060  178.3930  142.6450 N   0  0  0  0  0  2  0  0  0  0  0  0
  187.8920  177.7510  142.1110 O   0  0  0  0  0  0  0  0  0  0  0  0
  1 30  1  0  0  0  0
  3  1  2  0  0  0  0
  3  2  1  0  0  0  0
  4  5  1  0  0  0  0
  4  3  1  0  0  0  0
  5  6  1  0  0  0  0
  6  2  1  0  0  0  0
  6 15  1  1  0  0  0
  7  8  1  0  0  0  0
  9 12  1  0  0  0  0
 10  7  2  0  0  0  0
 11 10  1  0  0  0  0
 11  9  2  0  0  0  0
 12  8  2  0  0  0  0
 12  4  1  0  0  0  0
 13 14  1  0  0  0  0
 14 11  1  0  0  0  0
 16 15  1  0  0  0  0
 17 16  1  0  0  0  0
 18 20  1  0  0  0  0
 18 17  1  1  0  0  0
 19 18  1  0  0  0  0
 19 20  1  0  0  0  0
 21 19  1  0  0  0  0
 22 23  1  0  0  0  0
 22 21  1  0  0  0  0
 24 23  1  0  0  0  0
 25 24  1  0  0  0  0
 26 27  1  0  0  0  0
 26 25  1  0  0  0  0
 29 28  1  0  0  0  0
 29 27  1  0  0  0  0
 30 31  1  0  0  0  0
 32 33  1  0  0  0  0
 32 31  1  0  0  0  0
 34 33  1  0  0  0  0
 35 34  1  0  0  0  0
 36 35  1  0  0  0  0
 38 39  1  0  0  0  0
 38 37  1  0  0  0  0
 39 36  1  0  0  0  0
 40 38  2  0  0  0  0
M  END
>  <MODEL>
1

>  <REMARK>
 VINA RESULT:      -5.4      0.000      0.000
  Name = 
  22 active torsions:
  status: ('A' for Active; 'I' for Inactive)
    1  A    between atoms: O_1  and  C_8
    2  A    between atoms: O_1  and  C_22
    3  A    between atoms: C_2  and  O_4
    4  A    between atoms: C_2  and  C_8
    5  A    between atoms: N_3  and  C_26
    6  A    between atoms: N_3  and  N_27
    7  A    between atoms: O_4  and  C_19
    8  A    between atoms: C_5  and  C_20
    9  A    between atoms: C_7  and  C_40
   10  A    between atoms: C_16  and  N_17
   11  A    between atoms: C_16  and  C_26
   12  A    between atoms: N_17  and  C_31
   13  A    between atoms: C_18  and  C_35
   14  A    between atoms: C_19  and  C_24
   15  A    between atoms: C_20  and  C_28
   16  A    between atoms: C_22  and  N_32
   17  A    between atoms: C_25  and  C_37
   18  A    between atoms: C_25  and  C_38
   19  A    between atoms: C_28  and  C_31
   20  A    between atoms: N_29  and  C_39
   21  A    between atoms: N_32  and  N_33
   22  A    between atoms: C_37  and  C_40
                            x       y       z     vdW  Elec       q    Type
                         _______ _______ _______ _____ _____    ______ ____

>  <TORSDO>
F 22

$$$$
=
 OpenBabel11042419293D

 40 42  0  0  1  0  0  0  0  0999 V2000
  188.4140  176.1220  146.0870 C   0  0  0  0  0  3  0  0  0  0  0  0
  190.6530  176.9110  146.3330 O   0  0  0  0  0  0  0  0  0  0  0  0
  189.7230  176.0330  145.8670 C   0  0  0  0  0  0  0  0  0  0  0  0
  190.3830  175.0200  145.1380 N   0  0  0  0  0  0  0  0  0  0  0  0
  191.7330  175.1630  145.2720 O   0  0  0  0  0  0  0  0  0  0  0  0
  191.9090  176.4640  145.8350 C   0  0  2  0  0  3  0  0  0  0  0  0
  189.0760  172.0480  143.2790 C   0  0  0  0  0  3  0  0  0  0  0  0
  189.6250  172.8460  144.2870 C   0  0  0  0  0  3  0  0  0  0  0  0
  189.4490  174.7820  142.8500 C   0  0  0  0  0  3  0  0  0  0  0  0
  188.7130  172.6170  142.0570 C   0  0  0  0  0  3  0  0  0  0  0  0
  188.8960  173.9870  141.8430 C   0  0  0  0  0  0  0  0  0  0  0  0
  189.8180  174.2200  144.0830 C   0  0  0  0  0  0  0  0  0  0  0  0
  188.3470  173.5510  139.5410 N   0  0  0  0  0  1  0  0  0  0  0  0
  188.5270  174.5950  140.5360 C   0  0  0  0  0  2  0  0  0  0  0  0
  192.9360  176.4070  146.9570 C   0  0  0  0  0  2  0  0  0  0  0  0
  194.3030  176.0190  146.4200 C   0  0  0  0  0  2  0  0  0  0  0  0
  194.6710  176.8840  145.2300 C   0  0  0  0  0  2  0  0  0  0  0  0
  195.6060  176.1210  144.3160 C   0  0  2  0  0  3  0  0  0  0  0  0
  194.9650  174.8610  143.9120 N   0  0  0  0  0  0  0  0  0  0  0  0
  196.0020  174.8730  144.9550 C   0  0  0  0  0  2  0  0  0  0  0  0
  195.5930  174.4580  142.7260 N   0  0  0  0  0  2  0  0  0  0  0  0
  194.7100  173.5040  142.0750 C   0  0  0  0  0  2  0  0  0  0  0  0
  193.3940  173.9620  142.1360 O   0  0  0  0  0  0  0  0  0  0  0  0
  192.6150  172.8380  141.8600 C   0  0  0  0  0  2  0  0  0  0  0  0
  193.3300  171.5900  142.3390 C   0  0  0  0  0  2  0  0  0  0  0  0
  192.4160  170.7180  142.9310 O   0  0  0  0  0  0  0  0  0  0  0  0
  192.5900  170.9040  144.3020 C   0  0  0  0  0  2  0  0  0  0  0  0
  194.2930  171.8250  145.6980 O   0  0  0  0  0  1  0  0  0  0  0  0
  194.0690  170.9480  144.6350 C   0  0  0  0  0  2  0  0  0  0  0  0
  187.8390  177.2360  146.8890 C   0  0  0  0  0  2  0  0  0  0  0  0
  186.3880  176.9360  147.2010 C   0  0  0  0  0  2  0  0  0  0  0  0
  185.6230  176.7650  145.9050 C   0  0  0  0  0  2  0  0  0  0  0  0
  184.5760  177.7690  145.8250 N   0  0  0  0  0  2  0  0  0  0  0  0
  185.0950  178.8740  145.0330 C   0  0  0  0  0  2  0  0  0  0  0  0
  184.1370  179.2170  143.9010 C   0  0  0  0  0  2  0  0  0  0  0  0
  184.0570  178.1080  142.9650 N   0  0  0  0  0  2  0  0  0  0  0  0
  186.2690  176.4960  142.4250 O   0  0  0  0  0  1  0  0  0  0  0  0
  186.0880  177.5160  141.7070 C   0  0  0  0  0  0  0  0  0  0  0  0
  184.9770  178.3780  141.9430 N   0  0  0  0  0  2  0  0  0  0  0  0
  186.9760  177.8020  140.6790 O   0  0  0  0  0  0  0  0  0  0  0  0
  1 30  1  0  0  0  0
  3  1  2  0  0  0  0
  3  2  1  0  0  0  0
  4  5  1  0  0  0  0
  4  3  1  0  0  0  0
  5  6  1  0  0  0  0
  6  2  1  0  0  0  0
  6 15  1  1  0  0  0
  7  8  1  0  0  0  0
  9 12  1  0  0  0  0
 10  7  2  0  0  0  0
 11 10  1  0  0  0  0
 11  9  2  0  0  0  0
 12  8  2  0  0  0  0
 12  4  1  0  0  0  0
 13 14  1  0  0  0  0
 14 11  1  0  0  0  0
 16 15  1  0  0  0  0
 17 16  1  0  0  0  0
 18 20  1  0  0  0  0
 18 17  1  1  0  0  0
 19 18  1  0  0  0  0
 19 20  1  0  0  0  0
 21 19  1  0  0  0  0
 22 23  1  0  0  0  0
 22 21  1  0  0  0  0
 24 23  1  0  0  0  0
 24 25  1  0  0  0  0
 25 26  1  0  0  0  0
 26 27  1  0  0  0  0
 27 29  1  0  0  0  0
 29 28  1  0  0  0  0
 30 31  1  0  0  0  0
 32 31  1  0  0  0  0
 33 32  1  0  0  0  0
 34 33  1  0  0  0  0
 35 34  1  0  0  0  0
 36 35  1  0  0  0  0
 38 39  1  0  0  0  0
 38 37  1  0  0  0  0
 39 36  1  0  0  0  0
 40 38  2  0  0  0  0
M  END
>  <MODEL>
2

>  <REMARK>
 VINA RESULT:      -5.3      1.197      1.897
  Name = 
  22 active torsions:
  status: ('A' for Active; 'I' for Inactive)
    1  A    between atoms: O_1  and  C_8
    2  A    between atoms: O_1  and  C_22
    3  A    between atoms: C_2  and  O_4
    4  A    between atoms: C_2  and  C_8
    5  A    between atoms: N_3  and  C_26
    6  A    between atoms: N_3  and  N_27
    7  A    between atoms: O_4  and  C_19
    8  A    between atoms: C_5  and  C_20
    9  A    between atoms: C_7  and  C_40
   10  A    between atoms: C_16  and  N_17
   11  A    between atoms: C_16  and  C_26
   12  A    between atoms: N_17  and  C_31
   13  A    between atoms: C_18  and  C_35
   14  A    between atoms: C_19  and  C_24
   15  A    between atoms: C_20  and  C_28
   16  A    between atoms: C_22  and  N_32
   17  A    between atoms: C_25  and  C_37
   18  A    between atoms: C_25  and  C_38
   19  A    between atoms: C_28  and  C_31
   20  A    between atoms: N_29  and  C_39
   21  A    between atoms: N_32  and  N_33
   22  A    between atoms: C_37  and  C_40
                            x       y       z     vdW  Elec       q    Type
                         _______ _______ _______ _____ _____    ______ ____

>  <TORSDO>
F 22

$$$$
=
 OpenBabel11042419293D

 40 42  0  0  1  0  0  0  0  0999 V2000
  191.5440  173.4060  144.4340 C   0  0  0  0  0  3  0  0  0  0  0  0
  190.2900  175.4320  144.5400 O   0  0  0  0  0  0  0  0  0  0  0  0
  191.4410  174.7150  144.6470 C   0  0  0  0  0  0  0  0  0  0  0  0
  192.4830  175.5850  145.0350 N   0  0  0  0  0  0  0  0  0  0  0  0
  191.9690  176.8150  145.3260 O   0  0  0  0  0  0  0  0  0  0  0  0
  190.6360  176.7860  144.8110 C   0  0  2  0  0  3  0  0  0  0  0  0
  195.8320  175.8740  143.3950 C   0  0  0  0  0  3  0  0  0  0  0  0
  194.4700  176.0300  143.6650 C   0  0  0  0  0  3  0  0  0  0  0  0
  194.6960  174.6220  145.6160 C   0  0  0  0  0  3  0  0  0  0  0  0
  196.6270  175.0930  144.2350 C   0  0  0  0  0  3  0  0  0  0  0  0
  196.0590  174.4680  145.3500 C   0  0  0  0  0  0  0  0  0  0  0  0
  193.8870  175.4050  144.7770 C   0  0  0  0  0  0  0  0  0  0  0  0
  196.6110  172.2170  145.9950 N   0  0  0  0  0  1  0  0  0  0  0  0
  196.8980  173.6200  146.2400 C   0  0  0  0  0  2  0  0  0  0  0  0
  189.6770  177.3860  145.8280 C   0  0  0  0  0  2  0  0  0  0  0  0
  188.7180  176.3320  146.3560 C   0  0  0  0  0  2  0  0  0  0  0  0
  187.4620  176.9840  146.9030 C   0  0  0  0  0  2  0  0  0  0  0  0
  186.3850  176.9870  145.8390 C   0  0  2  0  0  3  0  0  0  0  0  0
  185.5090  178.1500  146.0410 N   0  0  0  0  0  0  0  0  0  0  0  0
  185.0820  176.8070  146.4630 C   0  0  0  0  0  2  0  0  0  0  0  0
  184.8900  178.3990  144.8090 N   0  0  0  0  0  2  0  0  0  0  0  0
  185.4420  179.6430  144.2950 C   0  0  0  0  0  2  0  0  0  0  0  0
  185.7540  179.4950  142.9440 O   0  0  0  0  0  0  0  0  0  0  0  0
  184.9990  178.3990  142.5240 C   0  0  0  0  0  2  0  0  0  0  0  0
  185.1990  178.1790  141.0380 C   0  0  0  0  0  2  0  0  0  0  0  0
  186.5520  177.9710  140.7670 O   0  0  0  0  0  0  0  0  0  0  0  0
  186.8830  176.8230  141.4870 C   0  0  0  0  0  2  0  0  0  0  0  0
  188.7570  178.1880  142.0560 O   0  0  0  0  0  1  0  0  0  0  0  0
  188.3470  176.8650  141.8820 C   0  0  0  0  0  2  0  0  0  0  0  0
  190.3630  172.5900  144.0420 C   0  0  0  0  0  2  0  0  0  0  0  0
  190.7850  171.5420  143.0340 C   0  0  0  0  0  2  0  0  0  0  0  0
  190.0110  171.7450  141.7480 C   0  0  0  0  0  2  0  0  0  0  0  0
  190.6650  172.7630  140.9450 N   0  0  0  0  0  2  0  0  0  0  0  0
  189.6380  173.6990  140.5140 C   0  0  0  0  0  2  0  0  0  0  0  0
  189.5110  173.6910  138.9970 C   0  0  0  0  0  2  0  0  0  0  0  0
  188.1170  173.8480  138.6160 N   0  0  0  0  0  2  0  0  0  0  0  0
  186.6800  176.1460  137.9510 O   0  0  0  0  0  1  0  0  0  0  0  0
  187.3630  175.5910  137.0490 C   0  0  0  0  0  0  0  0  0  0  0  0
  188.1120  174.4110  137.3320 N   0  0  0  0  0  2  0  0  0  0  0  0
  187.3880  176.1330  135.7710 O   0  0  0  0  0  0  0  0  0  0  0  0
  1  3  2  0  0  0  0
  2  3  1  0  0  0  0
  2  6  1  0  0  0  0
  3  4  1  0  0  0  0
  4  5  1  0  0  0  0
  6  5  1  0  0  0  0
  6 15  1  1  0  0  0
  7  8  2  0  0  0  0
  7 10  1  0  0  0  0
  8 12  1  0  0  0  0
 10 11  2  0  0  0  0
 11  9  1  0  0  0  0
 11 14  1  0  0  0  0
 12  4  1  0  0  0  0
 12  9  2  0  0  0  0
 13 14  1  0  0  0  0
 15 16  1  0  0  0  0
 16 17  1  0  0  0  0
 18 19  1  0  0  0  0
 18 20  1  0  0  0  0
 18 17  1  1  0  0  0
 19 20  1  0  0  0  0
 21 19  1  0  0  0  0
 22 21  1  0  0  0  0
 23 22  1  0  0  0  0
 24 23  1  0  0  0  0
 25 24  1  0  0  0  0
 26 25  1  0  0  0  0
 26 27  1  0  0  0  0
 27 29  1  0  0  0  0
 29 28  1  0  0  0  0
 30  1  1  0  0  0  0
 31 30  1  0  0  0  0
 32 31  1  0  0  0  0
 33 32  1  0  0  0  0
 34 33  1  0  0  0  0
 35 34  1  0  0  0  0
 36 35  1  0  0  0  0
 38 39  1  0  0  0  0
 38 37  1  0  0  0  0
 39 36  1  0  0  0  0
 40 38  2  0  0  0  0
M  END
>  <MODEL>
3

>  <REMARK>
 VINA RESULT:      -5.2      2.458      7.602
  Name = 
  22 active torsions:
  status: ('A' for Active; 'I' for Inactive)
    1  A    between atoms: O_1  and  C_8
    2  A    between atoms: O_1  and  C_22
    3  A    between atoms: C_2  and  O_4
    4  A    between atoms: C_2  and  C_8
    5  A    between atoms: N_3  and  C_26
    6  A    between atoms: N_3  and  N_27
    7  A    between atoms: O_4  and  C_19
    8  A    between atoms: C_5  and  C_20
    9  A    between atoms: C_7  and  C_40
   10  A    between atoms: C_16  and  N_17
   11  A    between atoms: C_16  and  C_26
   12  A    between atoms: N_17  and  C_31
   13  A    between atoms: C_18  and  C_35
   14  A    between atoms: C_19  and  C_24
   15  A    between atoms: C_20  and  C_28
   16  A    between atoms: C_22  and  N_32
   17  A    between atoms: C_25  and  C_37
   18  A    between atoms: C_25  and  C_38
   19  A    between atoms: C_28  and  C_31
   20  A    between atoms: N_29  and  C_39
   21  A    between atoms: N_32  and  N_33
   22  A    between atoms: C_37  and  C_40
                            x       y       z     vdW  Elec       q    Type
                         _______ _______ _______ _____ _____    ______ ____

>  <TORSDO>
F 22

$$$$
=
 OpenBabel11042419293D

 40 42  0  0  1  0  0  0  0  0999 V2000
  190.6300  173.2320  144.5810 C   0  0  0  0  0  3  0  0  0  0  0  0
  189.0410  174.8760  145.2620 O   0  0  0  0  0  0  0  0  0  0  0  0
  190.3090  174.3980  145.1350 C   0  0  0  0  0  0  0  0  0  0  0  0
  191.2040  175.3320  145.6990 N   0  0  0  0  0  0  0  0  0  0  0  0
  190.5020  176.3220  146.3220 O   0  0  0  0  0  0  0  0  0  0  0  0
  189.1570  176.1590  145.8680 C   0  0  2  0  0  3  0  0  0  0  0  0
  194.9200  175.5950  146.0440 C   0  0  0  0  0  3  0  0  0  0  0  0
  193.5670  175.4320  146.3560 C   0  0  0  0  0  3  0  0  0  0  0  0
  192.9930  175.7440  144.0280 C   0  0  0  0  0  3  0  0  0  0  0  0
  195.3100  175.8310  144.7240 C   0  0  0  0  0  3  0  0  0  0  0  0
  194.3460  175.9020  143.7140 C   0  0  0  0  0  0  0  0  0  0  0  0
  192.5900  175.5060  145.3520 C   0  0  0  0  0  0  0  0  0  0  0  0
  195.2460  174.9480  141.6970 N   0  0  0  0  0  1  0  0  0  0  0  0
  194.7550  176.1710  142.3090 C   0  0  0  0  0  2  0  0  0  0  0  0
  188.1960  176.2820  147.0410 C   0  0  0  0  0  2  0  0  0  0  0  0
  187.1160  177.3100  146.7520 C   0  0  0  0  0  2  0  0  0  0  0  0
  185.8270  176.6230  146.3420 C   0  0  0  0  0  2  0  0  0  0  0  0
  184.7670  177.6640  146.0500 C   0  0  2  0  0  3  0  0  0  0  0  0
  185.3770  178.7820  145.3150 N   0  0  0  0  0  0  0  0  0  0  0  0
  185.0890  178.8990  146.7530 C   0  0  0  0  0  2  0  0  0  0  0  0
  184.3330  179.4320  144.6430 N   0  0  0  0  0  2  0  0  0  0  0  0
  184.1590  178.7580  143.3660 C   0  0  0  0  0  2  0  0  0  0  0  0
  185.3420  178.8330  142.6300 O   0  0  0  0  0  0  0  0  0  0  0  0
  185.4000  177.6270  141.9300 C   0  0  0  0  0  2  0  0  0  0  0  0
  186.4610  176.7330  142.5390 C   0  0  0  0  0  2  0  0  0  0  0  0
  187.5050  177.5110  143.0430 O   0  0  0  0  0  0  0  0  0  0  0  0
  188.4480  177.5420  142.0170 C   0  0  0  0  0  2  0  0  0  0  0  0
  190.5090  178.0700  143.1010 O   0  0  0  0  0  1  0  0  0  0  0  0
  189.7810  177.0260  142.5250 C   0  0  0  0  0  2  0  0  0  0  0  0
  189.5880  172.3220  144.0320 C   0  0  0  0  0  2  0  0  0  0  0  0
  189.5080  172.4960  142.5310 C   0  0  0  0  0  2  0  0  0  0  0  0
  188.1880  173.1470  142.1730 C   0  0  0  0  0  2  0  0  0  0  0  0
  188.3630  173.9790  140.9940 N   0  0  0  0  0  2  0  0  0  0  0  0
  188.4760  173.0900  139.8490 C   0  0  0  0  0  2  0  0  0  0  0  0
  188.9660  173.8540  138.6260 C   0  0  0  0  0  2  0  0  0  0  0  0
  190.0560  173.1300  137.9940 N   0  0  0  0  0  2  0  0  0  0  0  0
  191.3200  170.6900  137.5100 O   0  0  0  0  0  0  0  0  0  0  0  0
  191.3030  171.1260  138.6930 C   0  0  0  0  0  0  0  0  0  0  0  0
  190.6660  172.3650  138.9970 N   0  0  0  0  0  2  0  0  0  0  0  0
  191.9100  170.3960  139.7060 O   0  0  0  0  0  1  0  0  0  0  0  0
  1  3  2  0  0  0  0
  2  6  1  0  0  0  0
  3  2  1  0  0  0  0
  3  4  1  0  0  0  0
  4  5  1  0  0  0  0
  6  5  1  0  0  0  0
  6 15  1  1  0  0  0
  7  8  1  0  0  0  0
  9 12  1  0  0  0  0
 10  7  2  0  0  0  0
 11  9  2  0  0  0  0
 11 10  1  0  0  0  0
 12  4  1  0  0  0  0
 12  8  2  0  0  0  0
 13 14  1  0  0  0  0
 14 11  1  0  0  0  0
 16 15  1  0  0  0  0
 17 16  1  0  0  0  0
 18 17  1  1  0  0  0
 18 20  1  0  0  0  0
 19 18  1  0  0  0  0
 19 20  1  0  0  0  0
 21 19  1  0  0  0  0
 22 21  1  0  0  0  0
 23 22  1  0  0  0  0
 24 25  1  0  0  0  0
 24 23  1  0  0  0  0
 25 26  1  0  0  0  0
 27 29  1  0  0  0  0
 27 26  1  0  0  0  0
 29 28  1  0  0  0  0
 30  1  1  0  0  0  0
 31 30  1  0  0  0  0
 32 31  1  0  0  0  0
 33 32  1  0  0  0  0
 34 33  1  0  0  0  0
 35 34  1  0  0  0  0
 36 35  1  0  0  0  0
 36 39  1  0  0  0  0
 37 38  2  0  0  0  0
 38 39  1  0  0  0  0
 38 40  1  0  0  0  0
M  END
>  <MODEL>
4

>  <REMARK>
 VINA RESULT:      -5.1      1.672      7.616
  Name = 
  22 active torsions:
  status: ('A' for Active; 'I' for Inactive)
    1  A    between atoms: O_1  and  C_8
    2  A    between atoms: O_1  and  C_22
    3  A    between atoms: C_2  and  O_4
    4  A    between atoms: C_2  and  C_8
    5  A    between atoms: N_3  and  C_26
    6  A    between atoms: N_3  and  N_27
    7  A    between atoms: O_4  and  C_19
    8  A    between atoms: C_5  and  C_20
    9  A    between atoms: C_7  and  C_40
   10  A    between atoms: C_16  and  N_17
   11  A    between atoms: C_16  and  C_26
   12  A    between atoms: N_17  and  C_31
   13  A    between atoms: C_18  and  C_35
   14  A    between atoms: C_19  and  C_24
   15  A    between atoms: C_20  and  C_28
   16  A    between atoms: C_22  and  N_32
   17  A    between atoms: C_25  and  C_37
   18  A    between atoms: C_25  and  C_38
   19  A    between atoms: C_28  and  C_31
   20  A    between atoms: N_29  and  C_39
   21  A    between atoms: N_32  and  N_33
   22  A    between atoms: C_37  and  C_40
                            x       y       z     vdW  Elec       q    Type
                         _______ _______ _______ _____ _____    ______ ____

>  <TORSDO>
F 22

$$$$
=
 OpenBabel11042419293D

 40 42  0  0  1  0  0  0  0  0999 V2000
  192.9450  176.0240  144.5350 C   0  0  0  0  0  3  0  0  0  0  0  0
  191.3030  176.5040  146.1970 O   0  0  0  0  0  0  0  0  0  0  0  0
  191.7220  175.9130  145.0460 C   0  0  0  0  0  0  0  0  0  0  0  0
  190.6450  175.1890  144.4900 N   0  0  0  0  0  0  0  0  0  0  0  0
  189.5070  175.4460  145.1970 O   0  0  0  0  0  0  0  0  0  0  0  0
  189.9540  176.0930  146.3900 C   0  0  2  0  0  3  0  0  0  0  0  0
  190.9540  171.6380  143.3530 C   0  0  0  0  0  3  0  0  0  0  0  0
  190.8630  172.7640  144.1760 C   0  0  0  0  0  3  0  0  0  0  0  0
  190.7100  174.1800  142.2230 C   0  0  0  0  0  3  0  0  0  0  0  0
  190.9230  171.7830  141.9650 C   0  0  0  0  0  3  0  0  0  0  0  0
  190.7970  173.0550  141.3980 C   0  0  0  0  0  0  0  0  0  0  0  0
  190.7400  174.0470  143.6200 C   0  0  0  0  0  0  0  0  0  0  0  0
  189.5680  172.6290  139.3740 N   0  0  0  0  0  1  0  0  0  0  0  0
  190.7810  173.2160  139.9190 C   0  0  0  0  0  2  0  0  0  0  0  0
  189.0690  177.2940  146.6890 C   0  0  0  0  0  2  0  0  0  0  0  0
  187.7190  177.1560  146.0060 C   0  0  0  0  0  2  0  0  0  0  0  0
  186.6580  176.7400  147.0080 C   0  0  0  0  0  2  0  0  0  0  0  0
  185.3160  177.3020  146.5900 C   0  0  2  0  0  3  0  0  0  0  0  0
  185.5000  178.6700  146.0850 N   0  0  0  0  0  0  0  0  0  0  0  0
  184.9760  178.4350  147.4390 C   0  0  0  0  0  2  0  0  0  0  0  0
  184.3960  178.9440  145.2680 N   0  0  0  0  0  2  0  0  0  0  0  0
  184.7320  178.4960  143.9260 C   0  0  0  0  0  2  0  0  0  0  0  0
  183.6240  178.6390  143.0910 O   0  0  0  0  0  0  0  0  0  0  0  0
  184.0270  178.0920  141.8730 C   0  0  0  0  0  2  0  0  0  0  0  0
  185.4930  178.3950  141.6360 C   0  0  0  0  0  2  0  0  0  0  0  0
  185.9360  177.7300  140.4920 O   0  0  0  0  0  0  0  0  0  0  0  0
  187.1040  177.0810  140.8910 C   0  0  0  0  0  2  0  0  0  0  0  0
  188.9880  177.2870  142.3430 O   0  0  0  0  0  1  0  0  0  0  0  0
  187.9260  177.9960  141.7780 C   0  0  0  0  0  2  0  0  0  0  0  0
  193.9960  176.8330  145.2100 C   0  0  0  0  0  2  0  0  0  0  0  0
  195.2940  176.7190  144.4400 C   0  0  0  0  0  2  0  0  0  0  0  0
  195.7300  175.2690  144.4080 C   0  0  0  0  0  2  0  0  0  0  0  0
  197.1480  175.1960  144.0990 N   0  0  0  0  0  2  0  0  0  0  0  0
  197.6460  173.9440  144.6460 C   0  0  0  0  0  2  0  0  0  0  0  0
  196.9510  173.6220  145.9620 C   0  0  0  0  0  2  0  0  0  0  0  0
  196.8280  172.1830  146.1190 N   0  0  0  0  0  2  0  0  0  0  0  0
  194.1250  171.5190  145.9260 O   0  0  0  0  0  1  0  0  0  0  0  0
  194.8440  171.3810  144.9010 C   0  0  0  0  0  0  0  0  0  0  0  0
  196.2340  171.7000  144.9450 N   0  0  0  0  0  2  0  0  0  0  0  0
  194.2810  170.9170  143.7200 O   0  0  0  0  0  0  0  0  0  0  0  0
  1  3  2  0  0  0  0
  1 30  1  0  0  0  0
  2  6  1  0  0  0  0
  3  2  1  0  0  0  0
  4  3  1  0  0  0  0
  4  5  1  0  0  0  0
  5  6  1  0  0  0  0
  6 15  1  6  0  0  0
  7  8  1  0  0  0  0
  9 12  1  0  0  0  0
 10  7  2  0  0  0  0
 11 10  1  0  0  0  0
 11  9  2  0  0  0  0
 12  8  2  0  0  0  0
 12  4  1  0  0  0  0
 13 14  1  0  0  0  0
 14 11  1  0  0  0  0
 16 15  1  0  0  0  0
 16 17  1  0  0  0  0
 18 17  1  1  0  0  0
 18 20  1  0  0  0  0
 19 18  1  0  0  0  0
 19 20  1  0  0  0  0
 21 19  1  0  0  0  0
 22 21  1  0  0  0  0
 23 22  1  0  0  0  0
 24 23  1  0  0  0  0
 25 24  1  0  0  0  0
 26 27  1  0  0  0  0
 26 25  1  0  0  0  0
 27 29  1  0  0  0  0
 29 28  1  0  0  0  0
 31 30  1  0  0  0  0
 32 31  1  0  0  0  0
 33 32  1  0  0  0  0
 33 34  1  0  0  0  0
 34 35  1  0  0  0  0
 35 36  1  0  0  0  0
 38 39  1  0  0  0  0
 38 37  1  0  0  0  0
 39 36  1  0  0  0  0
 40 38  2  0  0  0  0
M  END
>  <MODEL>
5

>  <REMARK>
 VINA RESULT:      -5.1      2.091      8.382
  Name = 
  22 active torsions:
  status: ('A' for Active; 'I' for Inactive)
    1  A    between atoms: O_1  and  C_8
    2  A    between atoms: O_1  and  C_22
    3  A    between atoms: C_2  and  O_4
    4  A    between atoms: C_2  and  C_8
    5  A    between atoms: N_3  and  C_26
    6  A    between atoms: N_3  and  N_27
    7  A    between atoms: O_4  and  C_19
    8  A    between atoms: C_5  and  C_20
    9  A    between atoms: C_7  and  C_40
   10  A    between atoms: C_16  and  N_17
   11  A    between atoms: C_16  and  C_26
   12  A    between atoms: N_17  and  C_31
   13  A    between atoms: C_18  and  C_35
   14  A    between atoms: C_19  and  C_24
   15  A    between atoms: C_20  and  C_28
   16  A    between atoms: C_22  and  N_32
   17  A    between atoms: C_25  and  C_37
   18  A    between atoms: C_25  and  C_38
   19  A    between atoms: C_28  and  C_31
   20  A    between atoms: N_29  and  C_39
   21  A    between atoms: N_32  and  N_33
   22  A    between atoms: C_37  and  C_40
                            x       y       z     vdW  Elec       q    Type
                         _______ _______ _______ _____ _____    ______ ____

>  <TORSDO>
F 22

$$$$
=
 OpenBabel11042419293D

 40 42  0  0  1  0  0  0  0  0999 V2000
  190.8270  173.1330  144.9540 C   0  0  0  0  0  3  0  0  0  0  0  0
  189.4220  175.0120  145.3850 O   0  0  0  0  0  0  0  0  0  0  0  0
  190.6370  174.4120  145.2690 C   0  0  0  0  0  0  0  0  0  0  0  0
  191.6410  175.3620  145.5530 N   0  0  0  0  0  0  0  0  0  0  0  0
  191.0670  176.5150  146.0010 O   0  0  0  0  0  0  0  0  0  0  0  0
  189.6790  176.3780  145.6930 C   0  0  2  0  0  3  0  0  0  0  0  0
  195.3810  175.2970  145.5580 C   0  0  0  0  0  3  0  0  0  0  0  0
  194.0550  175.3210  145.9970 C   0  0  0  0  0  3  0  0  0  0  0  0
  193.2960  175.3370  143.7020 C   0  0  0  0  0  3  0  0  0  0  0  0
  195.6660  175.2930  144.1920 C   0  0  0  0  0  3  0  0  0  0  0  0
  194.6220  175.3090  143.2620 C   0  0  0  0  0  0  0  0  0  0  0  0
  192.9980  175.3410  145.0750 C   0  0  0  0  0  0  0  0  0  0  0  0
  193.6800  175.2660  141.0480 N   0  0  0  0  0  1  0  0  0  0  0  0
  194.9200  175.3220  141.8040 C   0  0  0  0  0  2  0  0  0  0  0  0
  188.8390  176.8210  146.8820 C   0  0  0  0  0  2  0  0  0  0  0  0
  187.5210  177.4200  146.4200 C   0  0  0  0  0  2  0  0  0  0  0  0
  186.3610  176.7870  147.1660 C   0  0  0  0  0  2  0  0  0  0  0  0
  185.1330  177.6630  147.0330 C   0  0  2  0  0  3  0  0  0  0  0  0
  185.2750  178.5180  145.8450 N   0  0  0  0  0  0  0  0  0  0  0  0
  185.5110  179.0610  147.1920 C   0  0  0  0  0  2  0  0  0  0  0  0
  183.9790  178.9050  145.4780 N   0  0  0  0  0  2  0  0  0  0  0  0
  183.9780  179.0890  144.0360 C   0  0  0  0  0  2  0  0  0  0  0  0
  184.6170  178.0100  143.4240 O   0  0  0  0  0  0  0  0  0  0  0  0
  185.1060  178.5240  142.2220 C   0  0  0  0  0  2  0  0  0  0  0  0
  185.7610  177.4170  141.4200 C   0  0  0  0  0  2  0  0  0  0  0  0
  187.0290  177.8210  141.0020 O   0  0  0  0  0  0  0  0  0  0  0  0
  187.8130  177.7680  142.1540 C   0  0  0  0  0  2  0  0  0  0  0  0
  190.1280  177.8930  142.7230 O   0  0  0  0  0  1  0  0  0  0  0  0
  189.1450  178.4510  141.9040 C   0  0  0  0  0  2  0  0  0  0  0  0
  189.6800  172.2220  144.6900 C   0  0  0  0  0  2  0  0  0  0  0  0
  189.7520  171.7200  143.2640 C   0  0  0  0  0  2  0  0  0  0  0  0
  191.1900  171.7590  142.7910 C   0  0  0  0  0  2  0  0  0  0  0  0
  191.3180  170.9920  141.5630 N   0  0  0  0  0  2  0  0  0  0  0  0
  191.5210  171.9420  140.4800 C   0  0  0  0  0  2  0  0  0  0  0  0
  190.3080  171.9670  139.5590 C   0  0  0  0  0  2  0  0  0  0  0  0
  189.8480  173.3340  139.3830 N   0  0  0  0  0  2  0  0  0  0  0  0
  189.8050  174.8430  141.7290 O   0  0  0  0  0  0  0  0  0  0  0  0
  188.7410  174.2700  141.3730 C   0  0  0  0  0  0  0  0  0  0  0  0
  188.7080  173.4810  140.1850 N   0  0  0  0  0  2  0  0  0  0  0  0
  187.5920  174.4070  142.1400 O   0  0  0  0  0  1  0  0  0  0  0  0
  1  3  2  0  0  0  0
  2  6  1  0  0  0  0
  3  2  1  0  0  0  0
  3  4  1  0  0  0  0
  4  5  1  0  0  0  0
  6  5  1  0  0  0  0
  6 15  1  1  0  0  0
  7  8  1  0  0  0  0
  9 12  1  0  0  0  0
 10  7  2  0  0  0  0
 11  9  2  0  0  0  0
 11 10  1  0  0  0  0
 12  4  1  0  0  0  0
 12  8  2  0  0  0  0
 13 14  1  0  0  0  0
 14 11  1  0  0  0  0
 16 15  1  0  0  0  0
 16 17  1  0  0  0  0
 18 17  1  6  0  0  0
 18 20  1  0  0  0  0
 19 18  1  0  0  0  0
 19 20  1  0  0  0  0
 21 19  1  0  0  0  0
 22 21  1  0  0  0  0
 23 22  1  0  0  0  0
 24 23  1  0  0  0  0
 25 24  1  0  0  0  0
 26 25  1  0  0  0  0
 26 27  1  0  0  0  0
 29 27  1  0  0  0  0
 29 28  1  0  0  0  0
 30  1  1  0  0  0  0
 31 30  1  0  0  0  0
 32 31  1  0  0  0  0
 33 32  1  0  0  0  0
 34 33  1  0  0  0  0
 35 34  1  0  0  0  0
 36 35  1  0  0  0  0
 36 39  1  0  0  0  0
 38 37  2  0  0  0  0
 38 40  1  0  0  0  0
 39 38  1  0  0  0  0
M  END
>  <MODEL>
6

>  <REMARK>
 VINA RESULT:      -5.1      1.958      7.506
  Name = 
  22 active torsions:
  status: ('A' for Active; 'I' for Inactive)
    1  A    between atoms: O_1  and  C_8
    2  A    between atoms: O_1  and  C_22
    3  A    between atoms: C_2  and  O_4
    4  A    between atoms: C_2  and  C_8
    5  A    between atoms: N_3  and  C_26
    6  A    between atoms: N_3  and  N_27
    7  A    between atoms: O_4  and  C_19
    8  A    between atoms: C_5  and  C_20
    9  A    between atoms: C_7  and  C_40
   10  A    between atoms: C_16  and  N_17
   11  A    between atoms: C_16  and  C_26
   12  A    between atoms: N_17  and  C_31
   13  A    between atoms: C_18  and  C_35
   14  A    between atoms: C_19  and  C_24
   15  A    between atoms: C_20  and  C_28
   16  A    between atoms: C_22  and  N_32
   17  A    between atoms: C_25  and  C_37
   18  A    between atoms: C_25  and  C_38
   19  A    between atoms: C_28  and  C_31
   20  A    between atoms: N_29  and  C_39
   21  A    between atoms: N_32  and  N_33
   22  A    between atoms: C_37  and  C_40
                            x       y       z     vdW  Elec       q    Type
                         _______ _______ _______ _____ _____    ______ ____

>  <TORSDO>
F 22

$$$$
=
 OpenBabel11042419293D

 40 42  0  0  1  0  0  0  0  0999 V2000
  189.2750  174.1100  145.3070 C   0  0  0  0  0  3  0  0  0  0  0  0
  190.8160  174.9820  146.9070 O   0  0  0  0  0  0  0  0  0  0  0  0
  189.7160  175.0740  146.1110 C   0  0  0  0  0  0  0  0  0  0  0  0
  189.1470  176.3560  146.2730 N   0  0  0  0  0  0  0  0  0  0  0  0
  189.9660  177.1280  147.0440 O   0  0  0  0  0  0  0  0  0  0  0  0
  190.8980  176.2110  147.6200 C   0  0  2  0  0  3  0  0  0  0  0  0
  185.5440  177.0800  146.9700 C   0  0  0  0  0  3  0  0  0  0  0  0
  186.8860  176.7340  147.1500 C   0  0  0  0  0  3  0  0  0  0  0  0
  187.2830  177.0460  144.7860 C   0  0  0  0  0  3  0  0  0  0  0  0
  185.0700  177.4100  145.6990 C   0  0  0  0  0  3  0  0  0  0  0  0
  185.9420  177.3960  144.6050 C   0  0  0  0  0  0  0  0  0  0  0  0
  187.7690  176.7120  146.0600 C   0  0  0  0  0  0  0  0  0  0  0  0
  186.2080  178.8330  142.6930 N   0  0  0  0  0  1  0  0  0  0  0  0
  185.4390  177.7300  143.2450 C   0  0  0  0  0  2  0  0  0  0  0  0
  192.3060  176.7820  147.5330 C   0  0  0  0  0  2  0  0  0  0  0  0
  193.2290  175.8360  146.7840 C   0  0  0  0  0  2  0  0  0  0  0  0
  194.3130  176.6130  146.0620 C   0  0  0  0  0  2  0  0  0  0  0  0
  194.0810  176.5410  144.5670 C   0  0  2  0  0  3  0  0  0  0  0  0
  192.9010  175.7050  144.3020 N   0  0  0  0  0  0  0  0  0  0  0  0
  194.2570  175.1680  144.1130 C   0  0  0  0  0  2  0  0  0  0  0  0
  192.4330  176.0710  143.0320 N   0  0  0  0  0  2  0  0  0  0  0  0
  191.6000  177.2500  143.2050 C   0  0  0  0  0  2  0  0  0  0  0  0
  190.2560  176.9010  143.0670 O   0  0  0  0  0  0  0  0  0  0  0  0
  190.2620  175.8120  142.1950 C   0  0  0  0  0  2  0  0  0  0  0  0
  188.8400  175.4630  141.8010 C   0  0  0  0  0  2  0  0  0  0  0  0
  188.7170  174.0820  141.6440 O   0  0  0  0  0  0  0  0  0  0  0  0
  189.6390  173.7570  140.6500 C   0  0  0  0  0  2  0  0  0  0  0  0
  187.9380  172.6150  139.4240 O   0  0  0  0  0  1  0  0  0  0  0  0
  188.9280  173.5940  139.3200 C   0  0  0  0  0  2  0  0  0  0  0  0
  189.9750  172.8010  145.2130 C   0  0  0  0  0  2  0  0  0  0  0  0
  191.0270  172.8670  144.1270 C   0  0  0  0  0  2  0  0  0  0  0  0
  191.4650  171.4630  143.7680 C   0  0  0  0  0  2  0  0  0  0  0  0
  192.5970  171.5260  142.8580 N   0  0  0  0  0  2  0  0  0  0  0  0
  193.2420  170.2230  142.8800 C   0  0  0  0  0  2  0  0  0  0  0  0
  193.6400  169.8480  144.3010 C   0  0  0  0  0  2  0  0  0  0  0  0
  195.0620  169.5500  144.3560 N   0  0  0  0  0  2  0  0  0  0  0  0
  197.2230  170.4920  145.8480 O   0  0  0  0  0  0  0  0  0  0  0  0
  196.4520  169.6530  146.3850 C   0  0  0  0  0  0  0  0  0  0  0  0
  195.3350  169.1340  145.6670 N   0  0  0  0  0  2  0  0  0  0  0  0
  196.6900  169.2310  147.6870 O   0  0  0  0  0  1  0  0  0  0  0  0
  1  3  2  0  0  0  0
  2  6  1  0  0  0  0
  3  4  1  0  0  0  0
  3  2  1  0  0  0  0
  4  5  1  0  0  0  0
  5  6  1  0  0  0  0
  6 15  1  6  0  0  0
  7  8  1  0  0  0  0
  9 12  1  0  0  0  0
 10  7  2  0  0  0  0
 11  9  2  0  0  0  0
 11 10  1  0  0  0  0
 12  4  1  0  0  0  0
 12  8  2  0  0  0  0
 13 14  1  0  0  0  0
 14 11  1  0  0  0  0
 16 15  1  0  0  0  0
 17 16  1  0  0  0  0
 18 17  1  1  0  0  0
 19 18  1  0  0  0  0
 20 19  1  0  0  0  0
 20 18  1  0  0  0  0
 21 22  1  0  0  0  0
 21 19  1  0  0  0  0
 23 22  1  0  0  0  0
 24 23  1  0  0  0  0
 25 24  1  0  0  0  0
 26 25  1  0  0  0  0
 27 26  1  0  0  0  0
 29 28  1  0  0  0  0
 29 27  1  0  0  0  0
 30  1  1  0  0  0  0
 31 30  1  0  0  0  0
 32 31  1  0  0  0  0
 33 34  1  0  0  0  0
 33 32  1  0  0  0  0
 34 35  1  0  0  0  0
 35 36  1  0  0  0  0
 36 39  1  0  0  0  0
 37 38  2  0  0  0  0
 38 40  1  0  0  0  0
 39 38  1  0  0  0  0
M  END
>  <MODEL>
7

>  <REMARK>
 VINA RESULT:      -4.9      2.849      6.953
  Name = 
  22 active torsions:
  status: ('A' for Active; 'I' for Inactive)
    1  A    between atoms: O_1  and  C_8
    2  A    between atoms: O_1  and  C_22
    3  A    between atoms: C_2  and  O_4
    4  A    between atoms: C_2  and  C_8
    5  A    between atoms: N_3  and  C_26
    6  A    between atoms: N_3  and  N_27
    7  A    between atoms: O_4  and  C_19
    8  A    between atoms: C_5  and  C_20
    9  A    between atoms: C_7  and  C_40
   10  A    between atoms: C_16  and  N_17
   11  A    between atoms: C_16  and  C_26
   12  A    between atoms: N_17  and  C_31
   13  A    between atoms: C_18  and  C_35
   14  A    between atoms: C_19  and  C_24
   15  A    between atoms: C_20  and  C_28
   16  A    between atoms: C_22  and  N_32
   17  A    between atoms: C_25  and  C_37
   18  A    between atoms: C_25  and  C_38
   19  A    between atoms: C_28  and  C_31
   20  A    between atoms: N_29  and  C_39
   21  A    between atoms: N_32  and  N_33
   22  A    between atoms: C_37  and  C_40
                            x       y       z     vdW  Elec       q    Type
                         _______ _______ _______ _____ _____    ______ ____

>  <TORSDO>
F 22

$$$$
=
 OpenBabel11042419293D

 40 42  0  0  1  0  0  0  0  0999 V2000
  183.3420  178.8110  143.7290 C   0  0  0  0  0  3  0  0  0  0  0  0
  184.9710  178.6790  141.9910 O   0  0  0  0  0  0  0  0  0  0  0  0
  183.6950  178.6280  142.4590 C   0  0  0  0  0  0  0  0  0  0  0  0
  182.8290  178.3350  141.3830 N   0  0  0  0  0  0  0  0  0  0  0  0
  183.5630  178.0460  140.2700 O   0  0  0  0  0  0  0  0  0  0  0  0
  184.8900  178.4700  140.5860 C   0  0  2  0  0  3  0  0  0  0  0  0
  179.1280  178.2370  141.9160 C   0  0  0  0  0  3  0  0  0  0  0  0
  180.4870  177.9200  141.9890 C   0  0  0  0  0  3  0  0  0  0  0  0
  180.9960  179.7670  140.5140 C   0  0  0  0  0  3  0  0  0  0  0  0
  178.7020  179.3190  141.1430 C   0  0  0  0  0  3  0  0  0  0  0  0
  179.6380  180.0880  140.4440 C   0  0  0  0  0  0  0  0  0  0  0  0
  181.4360  178.6810  141.2890 C   0  0  0  0  0  0  0  0  0  0  0  0
  178.4490  182.1790  140.4210 N   0  0  0  0  0  1  0  0  0  0  0  0
  179.1880  181.2310  139.6050 C   0  0  0  0  0  2  0  0  0  0  0  0
  185.8890  177.4080  140.1480 C   0  0  0  0  0  2  0  0  0  0  0  0
  187.0060  177.2620  141.1680 C   0  0  0  0  0  2  0  0  0  0  0  0
  187.8100  176.0050  140.8990 C   0  0  0  0  0  2  0  0  0  0  0  0
  188.1230  175.3110  142.2070 C   0  0  2  0  0  3  0  0  0  0  0  0
  189.4250  174.6360  142.0980 N   0  0  0  0  0  0  0  0  0  0  0  0
  188.1730  173.8700  141.9960 C   0  0  0  0  0  2  0  0  0  0  0  0
  189.8950  174.4660  143.4070 N   0  0  0  0  0  2  0  0  0  0  0  0
  191.1300  175.2240  143.5220 C   0  0  0  0  0  2  0  0  0  0  0  0
  191.9820  174.8990  142.4670 O   0  0  0  0  0  0  0  0  0  0  0  0
  193.0590  175.7760  142.5990 C   0  0  0  0  0  2  0  0  0  0  0  0
  193.5780  175.7390  144.0230 C   0  0  0  0  0  2  0  0  0  0  0  0
  194.7520  176.4860  144.1190 O   0  0  0  0  0  0  0  0  0  0  0  0
  195.7060  175.7340  143.4340 C   0  0  0  0  0  2  0  0  0  0  0  0
  196.4290  176.8340  141.4420 O   0  0  0  0  0  1  0  0  0  0  0  0
  196.7280  176.6530  142.7940 C   0  0  0  0  0  2  0  0  0  0  0  0
  184.3550  179.1000  144.7800 C   0  0  0  0  0  2  0  0  0  0  0  0
  183.8070  178.6990  146.1330 C   0  0  0  0  0  2  0  0  0  0  0  0
  184.9200  178.0950  146.9630 C   0  0  0  0  0  2  0  0  0  0  0  0
  185.2230  176.7610  146.4700 N   0  0  0  0  0  2  0  0  0  0  0  0
  186.5680  176.4320  146.9130 C   0  0  0  0  0  2  0  0  0  0  0  0
  187.5320  177.5630  146.5800 C   0  0  0  0  0  2  0  0  0  0  0  0
  188.7420  177.0230  145.9830 N   0  0  0  0  0  2  0  0  0  0  0  0
  191.4400  176.8060  146.6620 O   0  0  0  0  0  0  0  0  0  0  0  0
  190.6280  176.0010  147.1920 C   0  0  0  0  0  0  0  0  0  0  0  0
  189.2390  176.0640  146.8760 N   0  0  0  0  0  2  0  0  0  0  0  0
  191.0880  175.0480  148.0900 O   0  0  0  0  0  1  0  0  0  0  0  0
  1 30  1  0  0  0  0
  2  3  1  0  0  0  0
  3  1  2  0  0  0  0
  4  3  1  0  0  0  0
  5  6  1  0  0  0  0
  5  4  1  0  0  0  0
  6 15  1  1  0  0  0
  6  2  1  0  0  0  0
  7  8  1  0  0  0  0
  9 12  1  0  0  0  0
 10  7  2  0  0  0  0
 11  9  2  0  0  0  0
 11 10  1  0  0  0  0
 12  4  1  0  0  0  0
 12  8  2  0  0  0  0
 14 13  1  0  0  0  0
 14 11  1  0  0  0  0
 15 16  1  0  0  0  0
 17 16  1  0  0  0  0
 18 17  1  6  0  0  0
 19 18  1  0  0  0  0
 19 21  1  0  0  0  0
 20 19  1  0  0  0  0
 20 18  1  0  0  0  0
 21 22  1  0  0  0  0
 23 24  1  0  0  0  0
 23 22  1  0  0  0  0
 24 25  1  0  0  0  0
 25 26  1  0  0  0  0
 27 26  1  0  0  0  0
 28 29  1  0  0  0  0
 29 27  1  0  0  0  0
 30 31  1  0  0  0  0
 31 32  1  0  0  0  0
 33 34  1  0  0  0  0
 33 32  1  0  0  0  0
 35 34  1  0  0  0  0
 36 35  1  0  0  0  0
 36 39  1  0  0  0  0
 37 38  2  0  0  0  0
 38 40  1  0  0  0  0
 39 38  1  0  0  0  0
M  END
>  <MODEL>
8

>  <REMARK>
 VINA RESULT:      -4.9      3.204      7.879
  Name = 
  22 active torsions:
  status: ('A' for Active; 'I' for Inactive)
    1  A    between atoms: O_1  and  C_8
    2  A    between atoms: O_1  and  C_22
    3  A    between atoms: C_2  and  O_4
    4  A    between atoms: C_2  and  C_8
    5  A    between atoms: N_3  and  C_26
    6  A    between atoms: N_3  and  N_27
    7  A    between atoms: O_4  and  C_19
    8  A    between atoms: C_5  and  C_20
    9  A    between atoms: C_7  and  C_40
   10  A    between atoms: C_16  and  N_17
   11  A    between atoms: C_16  and  C_26
   12  A    between atoms: N_17  and  C_31
   13  A    between atoms: C_18  and  C_35
   14  A    between atoms: C_19  and  C_24
   15  A    between atoms: C_20  and  C_28
   16  A    between atoms: C_22  and  N_32
   17  A    between atoms: C_25  and  C_37
   18  A    between atoms: C_25  and  C_38
   19  A    between atoms: C_28  and  C_31
   20  A    between atoms: N_29  and  C_39
   21  A    between atoms: N_32  and  N_33
   22  A    between atoms: C_37  and  C_40
                            x       y       z     vdW  Elec       q    Type
                         _______ _______ _______ _____ _____    ______ ____

>  <TORSDO>
F 22

$$$$
=
 OpenBabel11042419293D

 40 42  0  0  1  0  0  0  0  0999 V2000
  188.2970  174.6510  142.3380 C   0  0  0  0  0  3  0  0  0  0  0  0
  190.1680  175.7260  143.3560 O   0  0  0  0  0  0  0  0  0  0  0  0
  188.9800  175.7360  142.6930 C   0  0  0  0  0  0  0  0  0  0  0  0
  188.6170  177.0760  142.4350 N   0  0  0  0  0  0  0  0  0  0  0  0
  189.6400  177.9050  142.7920 O   0  0  0  0  0  0  0  0  0  0  0  0
  190.5210  177.0890  143.5650 C   0  0  2  0  0  3  0  0  0  0  0  0
  185.3910  177.9730  140.7660 C   0  0  0  0  0  3  0  0  0  0  0  0
  186.6880  177.4950  140.9770 C   0  0  0  0  0  3  0  0  0  0  0  0
  186.5510  178.1470  143.3000 C   0  0  0  0  0  3  0  0  0  0  0  0
  184.6740  178.5370  141.8230 C   0  0  0  0  0  3  0  0  0  0  0  0
  185.2520  178.6210  143.0930 C   0  0  0  0  0  0  0  0  0  0  0  0
  187.2820  177.5780  142.2450 C   0  0  0  0  0  0  0  0  0  0  0  0
  184.3830  178.2860  145.3110 N   0  0  0  0  0  1  0  0  0  0  0  0
  184.4990  179.2370  144.2180 C   0  0  0  0  0  2  0  0  0  0  0  0
  191.9610  177.3360  143.1400 C   0  0  0  0  0  2  0  0  0  0  0  0
  192.5960  176.0620  142.6100 C   0  0  0  0  0  2  0  0  0  0  0  0
  194.0830  176.0450  142.9100 C   0  0  0  0  0  2  0  0  0  0  0  0
  194.3160  175.4810  144.2960 C   0  0  2  0  0  3  0  0  0  0  0  0
  194.6030  176.5850  145.2240 N   0  0  0  0  0  0  0  0  0  0  0  0
  195.6900  175.7420  144.7030 C   0  0  0  0  0  2  0  0  0  0  0  0
  194.3060  176.1100  146.5090 N   0  0  0  0  0  2  0  0  0  0  0  0
  192.8950  176.3690  146.7470 C   0  0  0  0  0  2  0  0  0  0  0  0
  192.2690  175.1980  147.1740 O   0  0  0  0  0  0  0  0  0  0  0  0
  191.1950  175.6350  147.9510 C   0  0  0  0  0  2  0  0  0  0  0  0
  190.1290  176.2370  147.0570 C   0  0  0  0  0  2  0  0  0  0  0  0
  189.1170  175.3040  146.8310 O   0  0  0  0  0  0  0  0  0  0  0  0
  188.0600  176.0490  146.3090 C   0  0  0  0  0  2  0  0  0  0  0  0
  187.1770  178.0490  147.2670 O   0  0  0  0  0  1  0  0  0  0  0  0
  188.2790  177.5230  146.5890 C   0  0  0  0  0  2  0  0  0  0  0  0
  188.7950  173.2850  142.6550 C   0  0  0  0  0  2  0  0  0  0  0  0
  189.9630  172.9520  141.7520 C   0  0  0  0  0  2  0  0  0  0  0  0
  190.1980  171.4560  141.7700 C   0  0  0  0  0  2  0  0  0  0  0  0
  190.6910  171.0270  140.4720 N   0  0  0  0  0  2  0  0  0  0  0  0
  191.3480  172.1720  139.8590 C   0  0  0  0  0  2  0  0  0  0  0  0
  191.7780  171.8420  138.4360 C   0  0  0  0  0  2  0  0  0  0  0  0
  191.0150  172.6390  137.4900 N   0  0  0  0  0  2  0  0  0  0  0  0
  188.9330  174.0680  136.3020 O   0  0  0  0  0  0  0  0  0  0  0  0
  188.9400  173.9620  137.5580 C   0  0  0  0  0  0  0  0  0  0  0  0
  189.9830  173.2480  138.2180 N   0  0  0  0  0  2  0  0  0  0  0  0
  187.9240  174.5440  138.3050 O   0  0  0  0  0  1  0  0  0  0  0  0
  1 30  1  0  0  0  0
  1  3  2  0  0  0  0
  2  6  1  0  0  0  0
  3  2  1  0  0  0  0
  4  3  1  0  0  0  0
  4  5  1  0  0  0  0
  5  6  1  0  0  0  0
  6 15  1  6  0  0  0
  7  8  2  0  0  0  0
  7 10  1  0  0  0  0
  8 12  1  0  0  0  0
 10 11  2  0  0  0  0
 11  9  1  0  0  0  0
 11 14  1  0  0  0  0
 12  4  1  0  0  0  0
 12  9  2  0  0  0  0
 14 13  1  0  0  0  0
 16 17  1  0  0  0  0
 16 15  1  0  0  0  0
 18 17  1  6  0  0  0
 18 20  1  0  0  0  0
 18 19  1  0  0  0  0
 19 21  1  0  0  0  0
 20 19  1  0  0  0  0
 21 22  1  0  0  0  0
 22 23  1  0  0  0  0
 23 24  1  0  0  0  0
 25 24  1  0  0  0  0
 26 25  1  0  0  0  0
 27 29  1  0  0  0  0
 27 26  1  0  0  0  0
 29 28  1  0  0  0  0
 31 32  1  0  0  0  0
 31 30  1  0  0  0  0
 33 32  1  0  0  0  0
 34 33  1  0  0  0  0
 35 34  1  0  0  0  0
 36 39  1  0  0  0  0
 36 35  1  0  0  0  0
 37 38  2  0  0  0  0
 38 39  1  0  0  0  0
 38 40  1  0  0  0  0
M  END
>  <MODEL>
9

>  <REMARK>
 VINA RESULT:      -4.9      2.288      6.846
  Name = 
  22 active torsions:
  status: ('A' for Active; 'I' for Inactive)
    1  A    between atoms: O_1  and  C_8
    2  A    between atoms: O_1  and  C_22
    3  A    between atoms: C_2  and  O_4
    4  A    between atoms: C_2  and  C_8
    5  A    between atoms: N_3  and  C_26
    6  A    between atoms: N_3  and  N_27
    7  A    between atoms: O_4  and  C_19
    8  A    between atoms: C_5  and  C_20
    9  A    between atoms: C_7  and  C_40
   10  A    between atoms: C_16  and  N_17
   11  A    between atoms: C_16  and  C_26
   12  A    between atoms: N_17  and  C_31
   13  A    between atoms: C_18  and  C_35
   14  A    between atoms: C_19  and  C_24
   15  A    between atoms: C_20  and  C_28
   16  A    between atoms: C_22  and  N_32
   17  A    between atoms: C_25  and  C_37
   18  A    between atoms: C_25  and  C_38
   19  A    between atoms: C_28  and  C_31
   20  A    between atoms: N_29  and  C_39
   21  A    between atoms: N_32  and  N_33
   22  A    between atoms: C_37  and  C_40
                            x       y       z     vdW  Elec       q    Type
                         _______ _______ _______ _____ _____    ______ ____

>  <TORSDO>
F 22

$$$$
