=
 OpenBabel11042417063D

 44 46  0  0  1  0  0  0  0  0999 V2000
  187.9430  177.8700  144.5940 C   0  0  0  0  0  2  0  0  0  0  0  0
  187.9280  176.4920  145.2320 C   0  0  0  0  0  2  0  0  0  0  0  0
  190.3690  174.4180  145.5730 C   0  0  1  0  0  3  0  0  0  0  0  0
  189.4420  174.1610  146.7350 C   0  0  0  0  0  3  0  0  0  0  0  0
  191.0170  175.8140  145.6180 C   0  0  0  0  0  2  0  0  0  0  0  0
  190.1570  176.9060  146.2810 C   0  0  2  0  0  3  0  0  0  0  0  0
  190.7540  177.2830  147.4780 O   0  0  0  0  0  1  0  0  0  0  0  0
  188.6990  176.4950  146.5370 C   0  0  2  0  0  3  0  0  0  0  0  0
  188.6490  175.1380  147.1880 C   0  0  0  0  0  3  0  0  0  0  0  0
  191.4150  173.3090  145.3850 C   0  0  2  0  0  3  0  0  0  0  0  0
  193.9470  173.2930  145.2040 C   0  0  0  0  0  0  0  0  0  0  0  0
  194.0270  172.2120  145.8440 O   0  0  0  0  0  0  0  0  0  0  0  0
  192.6770  173.8850  144.9290 N   0  0  0  0  0  2  0  0  0  0  0  0
  195.1360  173.9280  144.7420 N   0  0  0  0  0  0  0  0  0  0  0  0
  195.7020  175.0140  145.5160 C   0  0  0  0  0  2  0  0  0  0  0  0
  194.9480  176.2920  145.2340 C   0  0  0  0  0  1  0  0  0  0  0  0
  195.8920  173.4030  143.5970 C   0  0  0  0  0  3  0  0  0  0  0  0
  196.7940  171.3060  143.7840 C   0  0  0  0  0  1  0  0  0  0  0  0
  197.0430  172.6710  143.9950 O   0  0  0  0  0  0  0  0  0  0  0  0
  196.1820  174.4070  142.6590 O   0  0  0  0  0  0  0  0  0  0  0  0
  195.7390  173.9010  141.4340 C   0  0  0  0  0  1  0  0  0  0  0  0
  190.9450  172.2130  144.4300 C   0  0  0  0  0  2  0  0  0  0  0  0
  189.4310  172.1610  144.3970 C   0  0  0  0  0  1  0  0  0  0  0  0
  187.6640  177.7520  143.0940 C   0  0  1  0  0  3  0  0  0  0  0  0
  189.6320  176.3200  142.3040 C   0  0  0  0  0  0  0  0  0  0  0  0
  190.4520  177.2510  142.5120 O   0  0  0  0  0  0  0  0  0  0  0  0
  188.2360  176.5200  142.5610 N   0  0  0  0  0  2  0  0  0  0  0  0
  191.4710  174.7340  141.7750 C   0  0  0  0  0  3  0  0  0  0  0  0
  191.0320  172.5590  140.8140 C   0  0  0  0  0  0  0  0  0  0  0  0
  191.9350  173.5120  141.2920 C   0  0  0  0  0  3  0  0  0  0  0  0
  189.1950  174.0710  141.3150 C   0  0  0  0  0  3  0  0  0  0  0  0
  189.6550  172.8410  140.8290 C   0  0  0  0  0  3  0  0  0  0  0  0
  190.1050  175.0290  141.7970 C   0  0  0  0  0  0  0  0  0  0  0  0
  191.2000  170.0930  140.9100 C   0  0  0  0  0  1  0  0  0  0  0  0
  191.5250  171.3410  140.3260 O   0  0  0  0  0  0  0  0  0  0  0  0
  186.1930  177.8960  142.6510 C   0  0  1  0  0  3  0  0  0  0  0  0
  184.0040  178.7330  143.2620 O   0  0  0  0  0  0  0  0  0  0  0  0
  185.3850  178.8960  143.4840 C   0  0  1  0  0  3  0  0  0  0  0  0
  184.5250  178.1530  144.4300 C   0  0  1  0  0  3  0  0  0  0  0  0
  184.1840  179.0260  145.6230 C   0  0  0  0  0  2  0  0  0  0  0  0
  184.5400  178.3010  146.8990 C   0  0  0  0  0  2  0  0  0  0  0  0
  184.8970  176.8650  146.5720 C   0  0  0  0  0  1  0  0  0  0  0  0
  186.1640  178.2900  141.2040 C   0  0  0  0  0  3  0  0  0  0  0  0
  185.6830  177.5360  140.3720 O   0  0  0  0  0  0  0  0  0  0  0  0
  1  2  1  0  0  0  0
  3 10  1  1  0  0  0
  3  5  1  0  0  0  0
  3  4  1  0  0  0  0
  4  9  2  0  0  0  0
  5  6  1  0  0  0  0
  6  8  1  0  0  0  0
  6  7  1  1  0  0  0
  8  2  1  6  0  0  0
  8  9  1  0  0  0  0
 10 22  1  6  0  0  0
 11 12  2  0  0  0  0
 13 11  1  0  0  0  0
 13 10  1  0  0  0  0
 14 11  1  0  0  0  0
 14 15  1  0  0  0  0
 16 15  1  0  0  0  0
 17 19  1  0  0  0  0
 17 14  1  0  0  0  0
 18 19  1  0  0  0  0
 20 17  1  0  0  0  0
 21 20  1  0  0  0  0
 23 22  1  0  0  0  0
 24  1  1  1  0  0  0
 25 26  2  0  0  0  0
 25 27  1  0  0  0  0
 27 24  1  0  0  0  0
 28 33  1  0  0  0  0
 29 32  2  0  0  0  0
 29 30  1  0  0  0  0
 30 28  2  0  0  0  0
 31 33  2  0  0  0  0
 32 31  1  0  0  0  0
 33 25  1  0  0  0  0
 35 29  1  0  0  0  0
 35 34  1  0  0  0  0
 36 43  1  6  0  0  0
 36 24  1  0  0  0  0
 37 38  1  0  0  0  0
 37 39  1  0  0  0  0
 38 36  1  6  0  0  0
 38 39  1  0  0  0  0
 39 40  1  1  0  0  0
 40 41  1  0  0  0  0
 42 41  1  0  0  0  0
 44 43  2  0  0  0  0
M  END
>  <MODEL>
1

>  <REMARK>
 VINA RESULT:      -6.2      0.000      0.000
  Name = 
  18 active torsions:
  status: ('A' for Active; 'I' for Inactive)
    1  A    between atoms: C_1  and  C_28
    2  A    between atoms: C_6  and  C_26
    3  A    between atoms: C_6  and  C_37
    4  A    between atoms: C_8  and  C_27
    5  A    between atoms: C_8  and  C_31
    6  A    between atoms: C_9  and  C_43
    7  A    between atoms: C_11  and  O_20
    8  A    between atoms: C_11  and  N_35
    9  A    between atoms: C_11  and  O_41
   10  A    between atoms: C_14  and  C_29
   11  A    between atoms: C_16  and  N_35
   12  A    between atoms: O_17  and  C_25
   13  A    between atoms: N_18  and  C_31
   14  A    between atoms: C_21  and  C_29
   15  A    between atoms: N_22  and  C_28
   16  A    between atoms: C_27  and  C_34
   17  A    between atoms: C_28  and  C_30
   18  A    between atoms: C_29  and  C_31
                            x       y       z     vdW  Elec       q    Type
                         _______ _______ _______ _____ _____    ______ ____

>  <TORSDO>
F 18

$$$$
=
 OpenBabel11042417063D

 44 46  0  0  1  0  0  0  0  0999 V2000
  192.9610  173.2930  145.3830 C   0  0  0  0  0  2  0  0  0  0  0  0
  192.7240  174.5840  144.6210 C   0  0  0  0  0  2  0  0  0  0  0  0
  189.7410  175.6050  145.2800 C   0  0  1  0  0  3  0  0  0  0  0  0
  190.4900  176.8140  144.7770 C   0  0  0  0  0  3  0  0  0  0  0  0
  190.2880  175.0710  146.6170 C   0  0  0  0  0  2  0  0  0  0  0  0
  191.7980  175.2900  146.8320 C   0  0  2  0  0  3  0  0  0  0  0  0
  191.9770  176.2160  147.8520 O   0  0  0  0  0  1  0  0  0  0  0  0
  192.5560  175.7500  145.5770 C   0  0  2  0  0  3  0  0  0  0  0  0
  191.8190  176.8820  144.9110 C   0  0  0  0  0  3  0  0  0  0  0  0
  188.2210  175.8220  145.3330 C   0  0  2  0  0  3  0  0  0  0  0  0
  186.8000  176.6370  143.3940 C   0  0  0  0  0  0  0  0  0  0  0  0
  186.1610  175.5540  143.3530 O   0  0  0  0  0  0  0  0  0  0  0  0
  187.8270  176.8410  144.3650 N   0  0  0  0  0  2  0  0  0  0  0  0
  186.4880  177.6740  142.4690 N   0  0  0  0  0  0  0  0  0  0  0  0
  187.3000  177.8260  141.2780 C   0  0  0  0  0  2  0  0  0  0  0  0
  188.6760  178.3230  141.6560 C   0  0  0  0  0  1  0  0  0  0  0  0
  185.2700  178.4840  142.6040 C   0  0  0  0  0  3  0  0  0  0  0  0
  183.3890  178.1100  141.3520 C   0  0  0  0  0  1  0  0  0  0  0  0
  184.6440  178.7380  141.3540 O   0  0  0  0  0  0  0  0  0  0  0  0
  185.5010  179.6550  143.3460 O   0  0  0  0  0  0  0  0  0  0  0  0
  184.6940  179.5340  144.4790 C   0  0  0  0  0  1  0  0  0  0  0  0
  187.7270  176.1870  146.7330 C   0  0  0  0  0  2  0  0  0  0  0  0
  187.4710  177.6770  146.8250 C   0  0  0  0  0  1  0  0  0  0  0  0
  192.7330  172.0940  144.4590 C   0  0  1  0  0  3  0  0  0  0  0  0
  190.5830  172.5180  143.1370 C   0  0  0  0  0  0  0  0  0  0  0  0
  189.8630  172.1350  144.0950 O   0  0  0  0  0  0  0  0  0  0  0  0
  192.0110  172.5020  143.2580 N   0  0  0  0  0  2  0  0  0  0  0  0
  190.3930  172.4840  140.6590 C   0  0  0  0  0  3  0  0  0  0  0  0
  188.7770  173.8550  139.4930 C   0  0  0  0  0  0  0  0  0  0  0  0
  189.8100  172.9150  139.4680 C   0  0  0  0  0  3  0  0  0  0  0  0
  188.9190  173.9240  141.9190 C   0  0  0  0  0  3  0  0  0  0  0  0
  188.3290  174.3590  140.7260 C   0  0  0  0  0  3  0  0  0  0  0  0
  189.9580  172.9760  141.8930 C   0  0  0  0  0  0  0  0  0  0  0  0
  188.8950  174.1800  137.0440 C   0  0  0  0  0  1  0  0  0  0  0  0
  188.2140  174.2770  138.2810 O   0  0  0  0  0  0  0  0  0  0  0  0
  193.9770  171.2650  144.0810 C   0  0  1  0  0  3  0  0  0  0  0  0
  196.2180  170.5800  144.6900 O   0  0  0  0  0  0  0  0  0  0  0  0
  195.0840  171.2820  145.1400 C   0  0  1  0  0  3  0  0  0  0  0  0
  196.2670  171.9790  144.5930 C   0  0  1  0  0  3  0  0  0  0  0  0
  197.1140  172.5360  145.7210 C   0  0  0  0  0  2  0  0  0  0  0  0
  197.5710  173.9320  145.3690 C   0  0  0  0  0  2  0  0  0  0  0  0
  196.3590  174.8010  145.1070 C   0  0  0  0  0  1  0  0  0  0  0  0
  193.5490  169.8550  143.8060 C   0  0  0  0  0  3  0  0  0  0  0  0
  192.7270  169.3110  144.5270 O   0  0  0  0  0  0  0  0  0  0  0  0
  2  1  1  0  0  0  0
  3 10  1  1  0  0  0
  3  5  1  0  0  0  0
  4  9  2  0  0  0  0
  4  3  1  0  0  0  0
  5  6  1  0  0  0  0
  6  7  1  1  0  0  0
  8  2  1  6  0  0  0
  8  6  1  0  0  0  0
  9  8  1  0  0  0  0
 10 22  1  1  0  0  0
 11 13  1  0  0  0  0
 12 11  2  0  0  0  0
 13 10  1  0  0  0  0
 14 17  1  0  0  0  0
 14 11  1  0  0  0  0
 15 16  1  0  0  0  0
 15 14  1  0  0  0  0
 17 20  1  0  0  0  0
 18 19  1  0  0  0  0
 19 17  1  0  0  0  0
 20 21  1  0  0  0  0
 22 23  1  0  0  0  0
 24  1  1  6  0  0  0
 25 27  1  0  0  0  0
 25 26  2  0  0  0  0
 27 24  1  0  0  0  0
 28 33  1  0  0  0  0
 29 32  2  0  0  0  0
 30 29  1  0  0  0  0
 30 28  2  0  0  0  0
 32 31  1  0  0  0  0
 33 31  2  0  0  0  0
 33 25  1  0  0  0  0
 34 35  1  0  0  0  0
 35 29  1  0  0  0  0
 36 43  1  1  0  0  0
 36 24  1  0  0  0  0
 37 38  1  0  0  0  0
 38 36  1  6  0  0  0
 39 37  1  0  0  0  0
 39 38  1  0  0  0  0
 39 40  1  1  0  0  0
 41 40  1  0  0  0  0
 42 41  1  0  0  0  0
 43 44  2  0  0  0  0
M  END
>  <MODEL>
2

>  <REMARK>
 VINA RESULT:      -5.8      2.139      8.540
  Name = 
  18 active torsions:
  status: ('A' for Active; 'I' for Inactive)
    1  A    between atoms: C_1  and  C_28
    2  A    between atoms: C_6  and  C_26
    3  A    between atoms: C_6  and  C_37
    4  A    between atoms: C_8  and  C_27
    5  A    between atoms: C_8  and  C_31
    6  A    between atoms: C_9  and  C_43
    7  A    between atoms: C_11  and  O_20
    8  A    between atoms: C_11  and  N_35
    9  A    between atoms: C_11  and  O_41
   10  A    between atoms: C_14  and  C_29
   11  A    between atoms: C_16  and  N_35
   12  A    between atoms: O_17  and  C_25
   13  A    between atoms: N_18  and  C_31
   14  A    between atoms: C_21  and  C_29
   15  A    between atoms: N_22  and  C_28
   16  A    between atoms: C_27  and  C_34
   17  A    between atoms: C_28  and  C_30
   18  A    between atoms: C_29  and  C_31
                            x       y       z     vdW  Elec       q    Type
                         _______ _______ _______ _____ _____    ______ ____

>  <TORSDO>
F 18

$$$$
=
 OpenBabel11042417063D

 44 46  0  0  1  0  0  0  0  0999 V2000
  187.5380  178.5600  143.7560 C   0  0  0  0  0  2  0  0  0  0  0  0
  188.2720  177.4430  144.4760 C   0  0  0  0  0  2  0  0  0  0  0  0
  190.3690  175.0180  144.7930 C   0  0  1  0  0  3  0  0  0  0  0  0
  190.5860  175.9120  145.9890 C   0  0  0  0  0  3  0  0  0  0  0  0
  190.7350  175.6960  143.4600 C   0  0  0  0  0  2  0  0  0  0  0  0
  190.5320  177.2240  143.4330 C   0  0  2  0  0  3  0  0  0  0  0  0
  191.7740  177.8410  143.3640 O   0  0  0  0  0  1  0  0  0  0  0  0
  189.7430  177.7780  144.6290 C   0  0  2  0  0  3  0  0  0  0  0  0
  190.2860  177.2120  145.9160 C   0  0  0  0  0  3  0  0  0  0  0  0
  191.0440  173.6470  144.9390 C   0  0  2  0  0  3  0  0  0  0  0  0
  193.5640  173.9130  144.7730 C   0  0  0  0  0  0  0  0  0  0  0  0
  193.6580  174.1810  145.9990 O   0  0  0  0  0  0  0  0  0  0  0  0
  192.2950  173.6220  144.1860 N   0  0  0  0  0  2  0  0  0  0  0  0
  194.7370  173.8890  143.9660 N   0  0  0  0  0  0  0  0  0  0  0  0
  195.0680  175.0530  143.1680 C   0  0  0  0  0  2  0  0  0  0  0  0
  194.7950  174.7700  141.7100 C   0  0  0  0  0  1  0  0  0  0  0  0
  195.7040  172.7870  144.0470 C   0  0  0  0  0  3  0  0  0  0  0  0
  194.8420  170.8580  143.1620 C   0  0  0  0  0  1  0  0  0  0  0  0
  195.0880  171.5450  144.3600 O   0  0  0  0  0  0  0  0  0  0  0  0
  196.7760  173.0940  144.9020 O   0  0  0  0  0  0  0  0  0  0  0  0
  196.7490  172.1090  145.8910 C   0  0  0  0  0  1  0  0  0  0  0  0
  190.1350  172.4940  144.5130 C   0  0  0  0  0  2  0  0  0  0  0  0
  190.8400  171.6190  143.4980 C   0  0  0  0  0  1  0  0  0  0  0  0
  186.4320  177.9730  142.8750 C   0  0  1  0  0  3  0  0  0  0  0  0
  187.3780  176.5830  140.9450 C   0  0  0  0  0  0  0  0  0  0  0  0
  187.4510  177.5900  140.1950 O   0  0  0  0  0  0  0  0  0  0  0  0
  186.8660  176.7140  142.2780 N   0  0  0  0  0  2  0  0  0  0  0  0
  188.2130  174.2780  141.3520 C   0  0  0  0  0  3  0  0  0  0  0  0
  188.6700  172.7560  139.5290 C   0  0  0  0  0  0  0  0  0  0  0  0
  188.6350  173.0300  140.8980 C   0  0  0  0  0  3  0  0  0  0  0  0
  187.8520  175.0000  139.0760 C   0  0  0  0  0  3  0  0  0  0  0  0
  188.2730  173.7470  138.6140 C   0  0  0  0  0  3  0  0  0  0  0  0
  187.8160  175.2740  140.4550 C   0  0  0  0  0  0  0  0  0  0  0  0
  189.9700  171.3180  137.9930 C   0  0  0  0  0  1  0  0  0  0  0  0
  189.1050  171.4950  139.0990 O   0  0  0  0  0  0  0  0  0  0  0  0
  185.0440  177.8080  143.5260 C   0  0  1  0  0  3  0  0  0  0  0  0
  183.5600  178.4470  145.3290 O   0  0  0  0  0  0  0  0  0  0  0  0
  184.8190  178.6980  144.7520 C   0  0  1  0  0  3  0  0  0  0  0  0
  184.6650  177.8430  145.9480 C   0  0  1  0  0  3  0  0  0  0  0  0
  185.0320  178.6210  147.1990 C   0  0  0  0  0  2  0  0  0  0  0  0
  186.3600  178.1310  147.7260 C   0  0  0  0  0  2  0  0  0  0  0  0
  187.0140  179.2350  148.5310 C   0  0  0  0  0  1  0  0  0  0  0  0
  183.9930  178.0820  142.4920 C   0  0  0  0  0  3  0  0  0  0  0  0
  184.3050  178.5560  141.4100 O   0  0  0  0  0  0  0  0  0  0  0  0
  1  2  1  0  0  0  0
  3 10  1  1  0  0  0
  3  4  1  0  0  0  0
  5  3  1  0  0  0  0
  6  7  1  1  0  0  0
  6  5  1  0  0  0  0
  6  8  1  0  0  0  0
  8  2  1  6  0  0  0
  8  9  1  0  0  0  0
  9  4  2  0  0  0  0
 10 22  1  6  0  0  0
 11 12  2  0  0  0  0
 13 11  1  0  0  0  0
 13 10  1  0  0  0  0
 14 17  1  0  0  0  0
 14 11  1  0  0  0  0
 15 14  1  0  0  0  0
 16 15  1  0  0  0  0
 17 19  1  0  0  0  0
 17 20  1  0  0  0  0
 18 19  1  0  0  0  0
 20 21  1  0  0  0  0
 23 22  1  0  0  0  0
 24 36  1  0  0  0  0
 24  1  1  1  0  0  0
 25 27  1  0  0  0  0
 26 25  2  0  0  0  0
 27 24  1  0  0  0  0
 29 30  2  0  0  0  0
 30 28  1  0  0  0  0
 31 33  1  0  0  0  0
 32 31  2  0  0  0  0
 32 29  1  0  0  0  0
 33 25  1  0  0  0  0
 33 28  2  0  0  0  0
 34 35  1  0  0  0  0
 35 29  1  0  0  0  0
 36 43  1  6  0  0  0
 37 39  1  0  0  0  0
 38 36  1  6  0  0  0
 38 37  1  0  0  0  0
 38 39  1  0  0  0  0
 39 40  1  1  0  0  0
 40 41  1  0  0  0  0
 41 42  1  0  0  0  0
 44 43  2  0  0  0  0
M  END
>  <MODEL>
3

>  <REMARK>
 VINA RESULT:      -5.8      1.752      2.462
  Name = 
  18 active torsions:
  status: ('A' for Active; 'I' for Inactive)
    1  A    between atoms: C_1  and  C_28
    2  A    between atoms: C_6  and  C_26
    3  A    between atoms: C_6  and  C_37
    4  A    between atoms: C_8  and  C_27
    5  A    between atoms: C_8  and  C_31
    6  A    between atoms: C_9  and  C_43
    7  A    between atoms: C_11  and  O_20
    8  A    between atoms: C_11  and  N_35
    9  A    between atoms: C_11  and  O_41
   10  A    between atoms: C_14  and  C_29
   11  A    between atoms: C_16  and  N_35
   12  A    between atoms: O_17  and  C_25
   13  A    between atoms: N_18  and  C_31
   14  A    between atoms: C_21  and  C_29
   15  A    between atoms: N_22  and  C_28
   16  A    between atoms: C_27  and  C_34
   17  A    between atoms: C_28  and  C_30
   18  A    between atoms: C_29  and  C_31
                            x       y       z     vdW  Elec       q    Type
                         _______ _______ _______ _____ _____    ______ ____

>  <TORSDO>
F 18

$$$$
=
 OpenBabel11042417063D

 44 46  0  0  1  0  0  0  0  0999 V2000
  193.3720  173.7920  145.8160 C   0  0  0  0  0  2  0  0  0  0  0  0
  192.5470  174.8260  145.0720 C   0  0  0  0  0  2  0  0  0  0  0  0
  189.5210  175.8350  145.5200 C   0  0  1  0  0  3  0  0  0  0  0  0
  190.2750  177.0190  144.9680 C   0  0  0  0  0  3  0  0  0  0  0  0
  190.0140  175.4050  146.9150 C   0  0  0  0  0  2  0  0  0  0  0  0
  191.5080  175.6670  147.1830 C   0  0  2  0  0  3  0  0  0  0  0  0
  191.6250  176.6650  148.1420 O   0  0  0  0  0  1  0  0  0  0  0  0
  192.3170  176.0520  145.9340 C   0  0  2  0  0  3  0  0  0  0  0  0
  191.5940  177.1210  145.1570 C   0  0  0  0  0  3  0  0  0  0  0  0
  187.9980  176.0260  145.4880 C   0  0  2  0  0  3  0  0  0  0  0  0
  186.8620  176.6140  143.2940 C   0  0  0  0  0  0  0  0  0  0  0  0
  186.4320  175.4400  143.1550 O   0  0  0  0  0  0  0  0  0  0  0  0
  187.6350  176.9760  144.4400 N   0  0  0  0  0  2  0  0  0  0  0  0
  186.5680  177.5950  142.3040 N   0  0  0  0  0  0  0  0  0  0  0  0
  187.5590  177.8930  141.2890 C   0  0  0  0  0  2  0  0  0  0  0  0
  188.8680  178.2660  141.9440 C   0  0  0  0  0  1  0  0  0  0  0  0
  185.2300  178.1890  142.1850 C   0  0  0  0  0  3  0  0  0  0  0  0
  184.7750  179.4970  144.0090 C   0  0  0  0  0  1  0  0  0  0  0  0
  184.5450  178.2410  143.4290 O   0  0  0  0  0  0  0  0  0  0  0  0
  184.4740  177.5760  141.1720 O   0  0  0  0  0  0  0  0  0  0  0  0
  183.8210  178.6230  140.5190 C   0  0  0  0  0  1  0  0  0  0  0  0
  187.4310  176.4680  146.8370 C   0  0  0  0  0  2  0  0  0  0  0  0
  186.7750  177.8270  146.7090 C   0  0  0  0  0  1  0  0  0  0  0  0
  193.5890  172.5630  144.9300 C   0  0  1  0  0  3  0  0  0  0  0  0
  192.0810  171.6700  143.0650 C   0  0  0  0  0  0  0  0  0  0  0  0
  192.0030  170.5380  143.6070 O   0  0  0  0  0  0  0  0  0  0  0  0
  192.8670  172.7050  143.6700 N   0  0  0  0  0  2  0  0  0  0  0  0
  192.0370  171.8360  140.5850 C   0  0  0  0  0  3  0  0  0  0  0  0
  190.0210  172.4360  139.3920 C   0  0  0  0  0  0  0  0  0  0  0  0
  191.3720  172.0840  139.3850 C   0  0  0  0  0  3  0  0  0  0  0  0
  190.0100  172.2870  141.8180 C   0  0  0  0  0  3  0  0  0  0  0  0
  189.3370  172.5350  140.6160 C   0  0  0  0  0  3  0  0  0  0  0  0
  191.3700  171.9300  141.8100 C   0  0  0  0  0  0  0  0  0  0  0  0
  188.2490  173.5320  138.0590 C   0  0  0  0  0  1  0  0  0  0  0  0
  189.3790  172.6880  138.1710 O   0  0  0  0  0  0  0  0  0  0  0  0
  195.0520  172.1500  144.6660 C   0  0  1  0  0  3  0  0  0  0  0  0
  197.2370  173.0570  144.1520 O   0  0  0  0  0  0  0  0  0  0  0  0
  196.0700  173.2680  144.9110 C   0  0  1  0  0  3  0  0  0  0  0  0
  196.3150  173.9850  143.6410 C   0  0  1  0  0  3  0  0  0  0  0  0
  196.8060  175.3930  143.9220 C   0  0  0  0  0  2  0  0  0  0  0  0
  195.8080  176.3920  143.3870 C   0  0  0  0  0  2  0  0  0  0  0  0
  194.9270  175.7140  142.3580 C   0  0  0  0  0  1  0  0  0  0  0  0
  195.3770  170.9620  145.5220 C   0  0  0  0  0  3  0  0  0  0  0  0
  194.5000  170.4160  146.1740 O   0  0  0  0  0  0  0  0  0  0  0  0
  2  1  1  0  0  0  0
  3 10  1  1  0  0  0
  3  5  1  0  0  0  0
  4  9  2  0  0  0  0
  4  3  1  0  0  0  0
  5  6  1  0  0  0  0
  6  7  1  1  0  0  0
  8  2  1  6  0  0  0
  8  6  1  0  0  0  0
  9  8  1  0  0  0  0
 10 22  1  1  0  0  0
 11 13  1  0  0  0  0
 12 11  2  0  0  0  0
 13 10  1  0  0  0  0
 14 11  1  0  0  0  0
 15 16  1  0  0  0  0
 15 14  1  0  0  0  0
 17 14  1  0  0  0  0
 17 19  1  0  0  0  0
 19 18  1  0  0  0  0
 20 17  1  0  0  0  0
 21 20  1  0  0  0  0
 23 22  1  0  0  0  0
 24  1  1  6  0  0  0
 25 26  2  0  0  0  0
 25 27  1  0  0  0  0
 27 24  1  0  0  0  0
 28 33  1  0  0  0  0
 29 32  2  0  0  0  0
 30 29  1  0  0  0  0
 30 28  2  0  0  0  0
 32 31  1  0  0  0  0
 33 31  2  0  0  0  0
 33 25  1  0  0  0  0
 34 35  1  0  0  0  0
 35 29  1  0  0  0  0
 36 24  1  0  0  0  0
 36 43  1  1  0  0  0
 37 38  1  0  0  0  0
 38 36  1  6  0  0  0
 39 40  1  1  0  0  0
 39 37  1  0  0  0  0
 39 38  1  0  0  0  0
 41 40  1  0  0  0  0
 42 41  1  0  0  0  0
 43 44  2  0  0  0  0
M  END
>  <MODEL>
4

>  <REMARK>
 VINA RESULT:      -5.5      1.908      8.434
  Name = 
  18 active torsions:
  status: ('A' for Active; 'I' for Inactive)
    1  A    between atoms: C_1  and  C_28
    2  A    between atoms: C_6  and  C_26
    3  A    between atoms: C_6  and  C_37
    4  A    between atoms: C_8  and  C_27
    5  A    between atoms: C_8  and  C_31
    6  A    between atoms: C_9  and  C_43
    7  A    between atoms: C_11  and  O_20
    8  A    between atoms: C_11  and  N_35
    9  A    between atoms: C_11  and  O_41
   10  A    between atoms: C_14  and  C_29
   11  A    between atoms: C_16  and  N_35
   12  A    between atoms: O_17  and  C_25
   13  A    between atoms: N_18  and  C_31
   14  A    between atoms: C_21  and  C_29
   15  A    between atoms: N_22  and  C_28
   16  A    between atoms: C_27  and  C_34
   17  A    between atoms: C_28  and  C_30
   18  A    between atoms: C_29  and  C_31
                            x       y       z     vdW  Elec       q    Type
                         _______ _______ _______ _____ _____    ______ ____

>  <TORSDO>
F 18

$$$$
=
 OpenBabel11042417063D

 44 46  0  0  1  0  0  0  0  0999 V2000
  192.7060  175.5690  147.0740 C   0  0  0  0  0  2  0  0  0  0  0  0
  191.3540  174.8960  146.9200 C   0  0  0  0  0  2  0  0  0  0  0  0
  189.9690  175.7720  144.1470 C   0  0  1  0  0  3  0  0  0  0  0  0
  190.4470  177.0490  144.7920 C   0  0  0  0  0  3  0  0  0  0  0  0
  188.8570  175.0720  144.9500 C   0  0  0  0  0  2  0  0  0  0  0  0
  188.9270  175.2840  146.4740 C   0  0  2  0  0  3  0  0  0  0  0  0
  187.8500  176.0670  146.8690 O   0  0  0  0  0  1  0  0  0  0  0  0
  190.2360  175.9200  146.9640 C   0  0  2  0  0  3  0  0  0  0  0  0
  190.5800  177.1190  146.1210 C   0  0  0  0  0  3  0  0  0  0  0  0
  189.5780  175.9560  142.6730 C   0  0  2  0  0  3  0  0  0  0  0  0
  187.8630  177.7450  142.1250 C   0  0  0  0  0  0  0  0  0  0  0  0
  188.7580  178.5500  141.7600 O   0  0  0  0  0  0  0  0  0  0  0  0
  188.2020  176.4330  142.5750 N   0  0  0  0  0  2  0  0  0  0  0  0
  186.4960  178.1440  142.0780 N   0  0  0  0  0  0  0  0  0  0  0  0
  185.8570  178.6160  143.2900 C   0  0  0  0  0  2  0  0  0  0  0  0
  186.7510  178.3500  144.4790 C   0  0  0  0  0  1  0  0  0  0  0  0
  185.7680  178.2470  140.8070 C   0  0  0  0  0  3  0  0  0  0  0  0
  183.5610  177.9570  140.2710 C   0  0  0  0  0  1  0  0  0  0  0  0
  184.4600  178.7760  140.9700 O   0  0  0  0  0  0  0  0  0  0  0  0
  185.7820  177.0340  140.0980 O   0  0  0  0  0  0  0  0  0  0  0  0
  186.7000  177.2260  139.0630 C   0  0  0  0  0  1  0  0  0  0  0  0
  189.7670  174.6800  141.8510 C   0  0  0  0  0  2  0  0  0  0  0  0
  188.4720  174.3090  141.1580 C   0  0  0  0  0  1  0  0  0  0  0  0
  193.7400  174.8690  146.1890 C   0  0  1  0  0  3  0  0  0  0  0  0
  193.1600  172.8230  144.7640 C   0  0  0  0  0  0  0  0  0  0  0  0
  193.8390  172.0610  145.4990 O   0  0  0  0  0  0  0  0  0  0  0  0
  193.0900  174.2260  145.0510 N   0  0  0  0  0  2  0  0  0  0  0  0
  193.0070  172.3310  142.3330 C   0  0  0  0  0  3  0  0  0  0  0  0
  191.0710  171.2370  141.3810 C   0  0  0  0  0  0  0  0  0  0  0  0
  192.3330  171.8160  141.2270 C   0  0  0  0  0  3  0  0  0  0  0  0
  191.1710  171.6940  143.7670 C   0  0  0  0  0  3  0  0  0  0  0  0
  190.4900  171.1740  142.6590 C   0  0  0  0  0  3  0  0  0  0  0  0
  192.4420  172.2750  143.6110 C   0  0  0  0  0  0  0  0  0  0  0  0
  190.0680  171.5430  139.1410 C   0  0  0  0  0  1  0  0  0  0  0  0
  190.4120  170.7350  140.2510 O   0  0  0  0  0  0  0  0  0  0  0  0
  194.9340  175.7220  145.7130 C   0  0  1  0  0  3  0  0  0  0  0  0
  196.5660  176.0900  143.9620 O   0  0  0  0  0  0  0  0  0  0  0  0
  195.3290  175.4830  144.2520 C   0  0  1  0  0  3  0  0  0  0  0  0
  196.5880  174.7090  144.2120 C   0  0  1  0  0  3  0  0  0  0  0  0
  196.6990  173.9590  142.8980 C   0  0  0  0  0  2  0  0  0  0  0  0
  196.5400  172.4780  143.1470 C   0  0  0  0  0  2  0  0  0  0  0  0
  197.2560  171.7090  142.0560 C   0  0  0  0  0  1  0  0  0  0  0  0
  194.6050  177.1690  145.9270 C   0  0  0  0  0  3  0  0  0  0  0  0
  194.0260  177.8030  145.0570 O   0  0  0  0  0  0  0  0  0  0  0  0
  2  1  1  0  0  0  0
  3 10  1  6  0  0  0
  3  4  1  0  0  0  0
  3  5  1  0  0  0  0
  4  9  2  0  0  0  0
  5  6  1  0  0  0  0
  6  7  1  6  0  0  0
  6  8  1  0  0  0  0
  8  2  1  6  0  0  0
  9  8  1  0  0  0  0
 10 22  1  6  0  0  0
 11 13  1  0  0  0  0
 12 11  2  0  0  0  0
 13 10  1  0  0  0  0
 14 11  1  0  0  0  0
 14 15  1  0  0  0  0
 15 16  1  0  0  0  0
 17 19  1  0  0  0  0
 17 14  1  0  0  0  0
 18 19  1  0  0  0  0
 20 17  1  0  0  0  0
 21 20  1  0  0  0  0
 23 22  1  0  0  0  0
 24  1  1  6  0  0  0
 25 27  1  0  0  0  0
 25 26  2  0  0  0  0
 27 24  1  0  0  0  0
 28 33  1  0  0  0  0
 29 32  2  0  0  0  0
 30 29  1  0  0  0  0
 30 28  2  0  0  0  0
 32 31  1  0  0  0  0
 33 31  2  0  0  0  0
 33 25  1  0  0  0  0
 34 35  1  0  0  0  0
 35 29  1  0  0  0  0
 36 43  1  6  0  0  0
 36 24  1  0  0  0  0
 37 39  1  0  0  0  0
 37 38  1  0  0  0  0
 38 36  1  1  0  0  0
 39 40  1  6  0  0  0
 39 38  1  0  0  0  0
 40 41  1  0  0  0  0
 42 41  1  0  0  0  0
 44 43  2  0  0  0  0
M  END
>  <MODEL>
5

>  <REMARK>
 VINA RESULT:      -5.4      1.683      8.158
  Name = 
  18 active torsions:
  status: ('A' for Active; 'I' for Inactive)
    1  A    between atoms: C_1  and  C_28
    2  A    between atoms: C_6  and  C_26
    3  A    between atoms: C_6  and  C_37
    4  A    between atoms: C_8  and  C_27
    5  A    between atoms: C_8  and  C_31
    6  A    between atoms: C_9  and  C_43
    7  A    between atoms: C_11  and  O_20
    8  A    between atoms: C_11  and  N_35
    9  A    between atoms: C_11  and  O_41
   10  A    between atoms: C_14  and  C_29
   11  A    between atoms: C_16  and  N_35
   12  A    between atoms: O_17  and  C_25
   13  A    between atoms: N_18  and  C_31
   14  A    between atoms: C_21  and  C_29
   15  A    between atoms: N_22  and  C_28
   16  A    between atoms: C_27  and  C_34
   17  A    between atoms: C_28  and  C_30
   18  A    between atoms: C_29  and  C_31
                            x       y       z     vdW  Elec       q    Type
                         _______ _______ _______ _____ _____    ______ ____

>  <TORSDO>
F 18

$$$$
=
 OpenBabel11042417063D

 44 46  0  0  1  0  0  0  0  0999 V2000
  188.4060  178.0670  143.4960 C   0  0  0  0  0  2  0  0  0  0  0  0
  189.6820  177.2490  143.5770 C   0  0  0  0  0  2  0  0  0  0  0  0
  192.4210  175.7860  144.4320 C   0  0  1  0  0  3  0  0  0  0  0  0
  191.3980  174.6880  144.2740 C   0  0  0  0  0  3  0  0  0  0  0  0
  192.0990  176.7470  145.5910 C   0  0  0  0  0  2  0  0  0  0  0  0
  190.5980  176.9330  145.8810 C   0  0  2  0  0  3  0  0  0  0  0  0
  190.3020  176.3570  147.1090 O   0  0  0  0  0  1  0  0  0  0  0  0
  189.6700  176.3540  144.8020 C   0  0  2  0  0  3  0  0  0  0  0  0
  190.0990  174.9550  144.4420 C   0  0  0  0  0  3  0  0  0  0  0  0
  193.8600  175.2550  144.5140 C   0  0  2  0  0  3  0  0  0  0  0  0
  194.4640  174.7160  142.1080 C   0  0  0  0  0  0  0  0  0  0  0  0
  194.6070  175.9350  141.8270 O   0  0  0  0  0  0  0  0  0  0  0  0
  194.1080  174.3090  143.4300 N   0  0  0  0  0  2  0  0  0  0  0  0
  194.6680  173.7330  141.0980 N   0  0  0  0  0  0  0  0  0  0  0  0
  193.5200  173.1870  140.4020 C   0  0  0  0  0  2  0  0  0  0  0  0
  192.3470  174.1310  140.5270 C   0  0  0  0  0  1  0  0  0  0  0  0
  196.0140  173.3800  140.6300 C   0  0  0  0  0  3  0  0  0  0  0  0
  197.3820  171.9300  141.7580 C   0  0  0  0  0  1  0  0  0  0  0  0
  196.9470  173.2630  141.6950 O   0  0  0  0  0  0  0  0  0  0  0  0
  196.4550  174.2410  139.6110 O   0  0  0  0  0  0  0  0  0  0  0  0
  196.6080  173.4280  138.4860 C   0  0  0  0  0  1  0  0  0  0  0  0
  194.1760  174.6190  145.8680 C   0  0  0  0  0  2  0  0  0  0  0  0
  195.6750  174.5670  146.0840 C   0  0  0  0  0  1  0  0  0  0  0  0
  187.7390  177.8590  142.1340 C   0  0  1  0  0  3  0  0  0  0  0  0
  187.7780  175.3320  141.7300 C   0  0  0  0  0  0  0  0  0  0  0  0
  186.8630  175.1370  142.5710 O   0  0  0  0  0  0  0  0  0  0  0  0
  188.2600  176.6600  141.4860 N   0  0  0  0  0  2  0  0  0  0  0  0
  188.9220  173.1270  141.6920 C   0  0  0  0  0  3  0  0  0  0  0  0
  189.4700  172.0190  139.6130 C   0  0  0  0  0  0  0  0  0  0  0  0
  189.4750  172.0440  141.0100 C   0  0  0  0  0  3  0  0  0  0  0  0
  188.3480  174.1750  139.5940 C   0  0  0  0  0  3  0  0  0  0  0  0
  188.9000  173.0900  138.9030 C   0  0  0  0  0  3  0  0  0  0  0  0
  188.3520  174.1990  141.0000 C   0  0  0  0  0  0  0  0  0  0  0  0
  191.2570  170.3280  139.3610 C   0  0  0  0  0  1  0  0  0  0  0  0
  190.0390  170.9220  138.9520 O   0  0  0  0  0  0  0  0  0  0  0  0
  186.1970  177.8530  142.1130 C   0  0  1  0  0  3  0  0  0  0  0  0
  184.1510  178.6290  143.1500 O   0  0  0  0  0  0  0  0  0  0  0  0
  185.5540  178.7330  143.1900 C   0  0  1  0  0  3  0  0  0  0  0  0
  184.8080  177.8740  144.1340 C   0  0  1  0  0  3  0  0  0  0  0  0
  184.6730  178.5670  145.4770 C   0  0  0  0  0  2  0  0  0  0  0  0
  184.9910  177.5900  146.5840 C   0  0  0  0  0  2  0  0  0  0  0  0
  186.2470  176.8230  146.2250 C   0  0  0  0  0  1  0  0  0  0  0  0
  185.7340  178.2840  140.7530 C   0  0  0  0  0  3  0  0  0  0  0  0
  185.7860  177.5060  139.8120 O   0  0  0  0  0  0  0  0  0  0  0  0
  1  2  1  0  0  0  0
  3 10  1  1  0  0  0
  3  5  1  0  0  0  0
  4  3  1  0  0  0  0
  4  9  2  0  0  0  0
  5  6  1  0  0  0  0
  6  7  1  1  0  0  0
  8  2  1  6  0  0  0
  8  6  1  0  0  0  0
  9  8  1  0  0  0  0
 10 22  1  1  0  0  0
 11 13  1  0  0  0  0
 12 11  2  0  0  0  0
 13 10  1  0  0  0  0
 14 11  1  0  0  0  0
 15 16  1  0  0  0  0
 15 14  1  0  0  0  0
 17 14  1  0  0  0  0
 17 19  1  0  0  0  0
 19 18  1  0  0  0  0
 20 17  1  0  0  0  0
 21 20  1  0  0  0  0
 22 23  1  0  0  0  0
 24  1  1  1  0  0  0
 25 26  2  0  0  0  0
 27 25  1  0  0  0  0
 27 24  1  0  0  0  0
 29 30  2  0  0  0  0
 30 28  1  0  0  0  0
 31 33  1  0  0  0  0
 32 31  2  0  0  0  0
 32 29  1  0  0  0  0
 33 28  2  0  0  0  0
 33 25  1  0  0  0  0
 35 34  1  0  0  0  0
 35 29  1  0  0  0  0
 36 43  1  6  0  0  0
 36 24  1  0  0  0  0
 37 38  1  0  0  0  0
 37 39  1  0  0  0  0
 38 36  1  6  0  0  0
 38 39  1  0  0  0  0
 39 40  1  1  0  0  0
 40 41  1  0  0  0  0
 42 41  1  0  0  0  0
 44 43  2  0  0  0  0
M  END
>  <MODEL>
6

>  <REMARK>
 VINA RESULT:      -5.4      1.847      2.841
  Name = 
  18 active torsions:
  status: ('A' for Active; 'I' for Inactive)
    1  A    between atoms: C_1  and  C_28
    2  A    between atoms: C_6  and  C_26
    3  A    between atoms: C_6  and  C_37
    4  A    between atoms: C_8  and  C_27
    5  A    between atoms: C_8  and  C_31
    6  A    between atoms: C_9  and  C_43
    7  A    between atoms: C_11  and  O_20
    8  A    between atoms: C_11  and  N_35
    9  A    between atoms: C_11  and  O_41
   10  A    between atoms: C_14  and  C_29
   11  A    between atoms: C_16  and  N_35
   12  A    between atoms: O_17  and  C_25
   13  A    between atoms: N_18  and  C_31
   14  A    between atoms: C_21  and  C_29
   15  A    between atoms: N_22  and  C_28
   16  A    between atoms: C_27  and  C_34
   17  A    between atoms: C_28  and  C_30
   18  A    between atoms: C_29  and  C_31
                            x       y       z     vdW  Elec       q    Type
                         _______ _______ _______ _____ _____    ______ ____

>  <TORSDO>
F 18

$$$$
=
 OpenBabel11042417063D

 44 46  0  0  1  0  0  0  0  0999 V2000
  193.8800  173.9180  145.6440 C   0  0  0  0  0  2  0  0  0  0  0  0
  192.4410  174.0130  146.1180 C   0  0  0  0  0  2  0  0  0  0  0  0
  190.2000  175.2440  144.1590 C   0  0  1  0  0  3  0  0  0  0  0  0
  191.3980  176.1520  144.0380 C   0  0  0  0  0  3  0  0  0  0  0  0
  189.5660  175.2680  145.5620 C   0  0  0  0  0  2  0  0  0  0  0  0
  190.5530  175.5370  146.7140 C   0  0  2  0  0  3  0  0  0  0  0  0
  190.2800  176.7860  147.2580 O   0  0  0  0  0  1  0  0  0  0  0  0
  192.0330  175.4610  146.3090 C   0  0  2  0  0  3  0  0  0  0  0  0
  192.2680  176.2510  145.0490 C   0  0  0  0  0  3  0  0  0  0  0  0
  189.1550  175.4810  143.0580 C   0  0  2  0  0  3  0  0  0  0  0  0
  187.4440  177.0540  144.0800 C   0  0  0  0  0  0  0  0  0  0  0  0
  188.2040  178.0460  143.9270 O   0  0  0  0  0  0  0  0  0  0  0  0
  187.8510  175.7530  143.6550 N   0  0  0  0  0  2  0  0  0  0  0  0
  186.1630  177.2340  144.6740 N   0  0  0  0  0  0  0  0  0  0  0  0
  185.9910  176.9430  146.0840 C   0  0  0  0  0  2  0  0  0  0  0  0
  186.9560  177.7710  146.9000 C   0  0  0  0  0  1  0  0  0  0  0  0
  185.0570  177.8620  143.9400 C   0  0  0  0  0  3  0  0  0  0  0  0
  184.2610  177.9850  141.7960 C   0  0  0  0  0  1  0  0  0  0  0  0
  185.4000  178.1670  142.5950 O   0  0  0  0  0  0  0  0  0  0  0  0
  184.5300  178.9660  144.6320 O   0  0  0  0  0  0  0  0  0  0  0  0
  185.3680  180.0340  144.3070 C   0  0  0  0  0  1  0  0  0  0  0  0
  189.0660  174.3160  142.0720 C   0  0  0  0  0  2  0  0  0  0  0  0
  188.4030  174.7690  140.7870 C   0  0  0  0  0  1  0  0  0  0  0  0
  194.0800  172.6280  144.8430 C   0  0  1  0  0  3  0  0  0  0  0  0
  192.4820  171.8700  142.9940 C   0  0  0  0  0  0  0  0  0  0  0  0
  192.0780  170.8950  143.6790 O   0  0  0  0  0  0  0  0  0  0  0  0
  193.4850  172.7510  143.5160 N   0  0  0  0  0  2  0  0  0  0  0  0
  192.3450  173.2010  140.8990 C   0  0  0  0  0  3  0  0  0  0  0  0
  190.8670  172.5690  139.0920 C   0  0  0  0  0  0  0  0  0  0  0  0
  191.8230  173.4350  139.6280 C   0  0  0  0  0  3  0  0  0  0  0  0
  190.9650  171.2310  141.1190 C   0  0  0  0  0  3  0  0  0  0  0  0
  190.4390  171.4600  139.8410 C   0  0  0  0  0  3  0  0  0  0  0  0
  191.9290  172.1020  141.6570 C   0  0  0  0  0  0  0  0  0  0  0  0
  190.6230  174.0310  137.1120 C   0  0  0  0  0  1  0  0  0  0  0  0
  190.3540  172.8320  137.8140 O   0  0  0  0  0  0  0  0  0  0  0  0
  195.5240  172.0980  144.7370 C   0  0  1  0  0  3  0  0  0  0  0  0
  197.8490  172.7300  144.4880 O   0  0  0  0  0  0  0  0  0  0  0  0
  196.6000  173.1630  144.9730 C   0  0  1  0  0  3  0  0  0  0  0  0
  197.1290  173.6130  143.6680 C   0  0  1  0  0  3  0  0  0  0  0  0
  197.7120  175.0090  143.7940 C   0  0  0  0  0  2  0  0  0  0  0  0
  197.0790  175.9160  142.7650 C   0  0  0  0  0  2  0  0  0  0  0  0
  195.6380  176.1790  143.1530 C   0  0  0  0  0  1  0  0  0  0  0  0
  195.6940  170.9700  145.7100 C   0  0  0  0  0  3  0  0  0  0  0  0
  194.7150  170.4050  146.1730 O   0  0  0  0  0  0  0  0  0  0  0  0
  1  2  1  0  0  0  0
  3 10  1  6  0  0  0
  3  5  1  0  0  0  0
  4  3  1  0  0  0  0
  4  9  2  0  0  0  0
  5  6  1  0  0  0  0
  6  7  1  6  0  0  0
  8  2  1  6  0  0  0
  8  6  1  0  0  0  0
  9  8  1  0  0  0  0
 10 22  1  6  0  0  0
 10 13  1  0  0  0  0
 11 14  1  0  0  0  0
 12 11  2  0  0  0  0
 13 11  1  0  0  0  0
 14 15  1  0  0  0  0
 15 16  1  0  0  0  0
 17 20  1  0  0  0  0
 17 14  1  0  0  0  0
 18 19  1  0  0  0  0
 19 17  1  0  0  0  0
 21 20  1  0  0  0  0
 23 22  1  0  0  0  0
 24  1  1  6  0  0  0
 25 27  1  0  0  0  0
 25 26  2  0  0  0  0
 27 24  1  0  0  0  0
 28 33  1  0  0  0  0
 29 30  1  0  0  0  0
 29 32  2  0  0  0  0
 30 28  2  0  0  0  0
 31 33  2  0  0  0  0
 32 31  1  0  0  0  0
 33 25  1  0  0  0  0
 34 35  1  0  0  0  0
 35 29  1  0  0  0  0
 36 24  1  0  0  0  0
 36 43  1  1  0  0  0
 37 38  1  0  0  0  0
 38 36  1  6  0  0  0
 39 40  1  1  0  0  0
 39 37  1  0  0  0  0
 39 38  1  0  0  0  0
 41 42  1  0  0  0  0
 41 40  1  0  0  0  0
 43 44  2  0  0  0  0
M  END
>  <MODEL>
7

>  <REMARK>
 VINA RESULT:      -5.3      1.840      8.558
  Name = 
  18 active torsions:
  status: ('A' for Active; 'I' for Inactive)
    1  A    between atoms: C_1  and  C_28
    2  A    between atoms: C_6  and  C_26
    3  A    between atoms: C_6  and  C_37
    4  A    between atoms: C_8  and  C_27
    5  A    between atoms: C_8  and  C_31
    6  A    between atoms: C_9  and  C_43
    7  A    between atoms: C_11  and  O_20
    8  A    between atoms: C_11  and  N_35
    9  A    between atoms: C_11  and  O_41
   10  A    between atoms: C_14  and  C_29
   11  A    between atoms: C_16  and  N_35
   12  A    between atoms: O_17  and  C_25
   13  A    between atoms: N_18  and  C_31
   14  A    between atoms: C_21  and  C_29
   15  A    between atoms: N_22  and  C_28
   16  A    between atoms: C_27  and  C_34
   17  A    between atoms: C_28  and  C_30
   18  A    between atoms: C_29  and  C_31
                            x       y       z     vdW  Elec       q    Type
                         _______ _______ _______ _____ _____    ______ ____

>  <TORSDO>
F 18

$$$$
=
 OpenBabel11042417063D

 44 46  0  0  1  0  0  0  0  0999 V2000
  192.8440  174.1090  145.9580 C   0  0  0  0  0  2  0  0  0  0  0  0
  192.3450  175.3370  145.2180 C   0  0  0  0  0  2  0  0  0  0  0  0
  189.2660  176.1960  145.6150 C   0  0  1  0  0  3  0  0  0  0  0  0
  189.9990  177.4550  145.2250 C   0  0  0  0  0  3  0  0  0  0  0  0
  189.7080  175.6400  146.9810 C   0  0  0  0  0  2  0  0  0  0  0  0
  191.1780  175.9210  147.3490 C   0  0  2  0  0  3  0  0  0  0  0  0
  191.2130  176.8170  148.4090 O   0  0  0  0  0  1  0  0  0  0  0  0
  192.0280  176.4590  146.1880 C   0  0  2  0  0  3  0  0  0  0  0  0
  191.3040  177.5780  145.4890 C   0  0  0  0  0  3  0  0  0  0  0  0
  187.7390  176.3400  145.5260 C   0  0  2  0  0  3  0  0  0  0  0  0
  186.7440  176.8240  143.2410 C   0  0  0  0  0  0  0  0  0  0  0  0
  186.4290  175.6160  143.0770 O   0  0  0  0  0  0  0  0  0  0  0  0
  187.3850  177.2530  144.4430 N   0  0  0  0  0  2  0  0  0  0  0  0
  186.4510  177.7730  142.2200 N   0  0  0  0  0  0  0  0  0  0  0  0
  187.4940  178.1520  141.2880 C   0  0  0  0  0  2  0  0  0  0  0  0
  188.8330  178.1430  141.9860 C   0  0  0  0  0  1  0  0  0  0  0  0
  185.0820  178.2490  141.9850 C   0  0  0  0  0  3  0  0  0  0  0  0
  183.9710  179.0400  143.8260 C   0  0  0  0  0  1  0  0  0  0  0  0
  184.1950  177.9000  143.0390 O   0  0  0  0  0  0  0  0  0  0  0  0
  184.6040  177.8650  140.7210 O   0  0  0  0  0  0  0  0  0  0  0  0
  183.3400  178.4480  140.6150 C   0  0  0  0  0  1  0  0  0  0  0  0
  187.1140  176.7970  146.8440 C   0  0  0  0  0  2  0  0  0  0  0  0
  185.6090  176.9070  146.6980 C   0  0  0  0  0  1  0  0  0  0  0  0
  193.4870  173.1320  144.9720 C   0  0  1  0  0  3  0  0  0  0  0  0
  191.5860  172.3870  143.4280 C   0  0  0  0  0  0  0  0  0  0  0  0
  191.1080  171.6260  144.3080 O   0  0  0  0  0  0  0  0  0  0  0  0
  192.7730  173.1440  143.6990 N   0  0  0  0  0  2  0  0  0  0  0  0
  190.1400  173.6090  141.8190 C   0  0  0  0  0  3  0  0  0  0  0  0
  189.6530  172.7180  139.6240 C   0  0  0  0  0  0  0  0  0  0  0  0
  189.5070  173.7230  140.5820 C   0  0  0  0  0  3  0  0  0  0  0  0
  191.0770  171.4830  141.1590 C   0  0  0  0  0  3  0  0  0  0  0  0
  190.4450  171.5940  139.9140 C   0  0  0  0  0  3  0  0  0  0  0  0
  190.9300  172.4960  142.1230 C   0  0  0  0  0  0  0  0  0  0  0  0
  189.6900  172.8710  137.1550 C   0  0  0  0  0  1  0  0  0  0  0  0
  189.0000  172.8550  138.3910 O   0  0  0  0  0  0  0  0  0  0  0  0
  195.0040  173.2840  144.7380 C   0  0  1  0  0  3  0  0  0  0  0  0
  197.1290  172.1430  144.5270 O   0  0  0  0  0  0  0  0  0  0  0  0
  195.7340  171.9600  144.4920 C   0  0  1  0  0  3  0  0  0  0  0  0
  196.5350  171.6200  145.6870 C   0  0  1  0  0  3  0  0  0  0  0  0
  196.7750  170.1230  145.7480 C   0  0  0  0  0  2  0  0  0  0  0  0
  196.6420  169.6480  147.1750 C   0  0  0  0  0  2  0  0  0  0  0  0
  195.3770  168.8250  147.3100 C   0  0  0  0  0  1  0  0  0  0  0  0
  195.2200  174.2130  143.5800 C   0  0  0  0  0  3  0  0  0  0  0  0
  195.7420  175.3040  143.7580 O   0  0  0  0  0  0  0  0  0  0  0  0
  2  1  1  0  0  0  0
  3 10  1  1  0  0  0
  3  5  1  0  0  0  0
  4  9  2  0  0  0  0
  4  3  1  0  0  0  0
  5  6  1  0  0  0  0
  6  7  1  1  0  0  0
  8  2  1  6  0  0  0
  8  6  1  0  0  0  0
  9  8  1  0  0  0  0
 10 22  1  1  0  0  0
 11 13  1  0  0  0  0
 12 11  2  0  0  0  0
 13 10  1  0  0  0  0
 14 11  1  0  0  0  0
 15 16  1  0  0  0  0
 15 14  1  0  0  0  0
 17 14  1  0  0  0  0
 17 19  1  0  0  0  0
 19 18  1  0  0  0  0
 20 17  1  0  0  0  0
 21 20  1  0  0  0  0
 23 22  1  0  0  0  0
 24  1  1  1  0  0  0
 25 27  1  0  0  0  0
 25 26  2  0  0  0  0
 27 24  1  0  0  0  0
 28 33  1  0  0  0  0
 29 32  2  0  0  0  0
 29 30  1  0  0  0  0
 30 28  2  0  0  0  0
 31 33  2  0  0  0  0
 32 31  1  0  0  0  0
 33 25  1  0  0  0  0
 34 35  1  0  0  0  0
 35 29  1  0  0  0  0
 36 43  1  6  0  0  0
 36 24  1  0  0  0  0
 37 39  1  0  0  0  0
 38 37  1  0  0  0  0
 38 36  1  1  0  0  0
 38 39  1  0  0  0  0
 39 40  1  6  0  0  0
 40 41  1  0  0  0  0
 41 42  1  0  0  0  0
 43 44  2  0  0  0  0
M  END
>  <MODEL>
8

>  <REMARK>
 VINA RESULT:      -5.3      1.923      8.624
  Name = 
  18 active torsions:
  status: ('A' for Active; 'I' for Inactive)
    1  A    between atoms: C_1  and  C_28
    2  A    between atoms: C_6  and  C_26
    3  A    between atoms: C_6  and  C_37
    4  A    between atoms: C_8  and  C_27
    5  A    between atoms: C_8  and  C_31
    6  A    between atoms: C_9  and  C_43
    7  A    between atoms: C_11  and  O_20
    8  A    between atoms: C_11  and  N_35
    9  A    between atoms: C_11  and  O_41
   10  A    between atoms: C_14  and  C_29
   11  A    between atoms: C_16  and  N_35
   12  A    between atoms: O_17  and  C_25
   13  A    between atoms: N_18  and  C_31
   14  A    between atoms: C_21  and  C_29
   15  A    between atoms: N_22  and  C_28
   16  A    between atoms: C_27  and  C_34
   17  A    between atoms: C_28  and  C_30
   18  A    between atoms: C_29  and  C_31
                            x       y       z     vdW  Elec       q    Type
                         _______ _______ _______ _____ _____    ______ ____

>  <TORSDO>
F 18

$$$$
=
 OpenBabel11042417063D

 44 46  0  0  1  0  0  0  0  0999 V2000
  193.8250  172.9440  140.3730 C   0  0  0  0  0  2  0  0  0  0  0  0
  192.5430  173.6520  139.9760 C   0  0  0  0  0  2  0  0  0  0  0  0
  190.2060  173.6460  142.1940 C   0  0  1  0  0  3  0  0  0  0  0  0
  190.7390  172.2350  142.1500 C   0  0  0  0  0  3  0  0  0  0  0  0
  189.5170  174.0700  140.8840 C   0  0  0  0  0  2  0  0  0  0  0  0
  190.0830  173.4100  139.6120 C   0  0  2  0  0  3  0  0  0  0  0  0
  189.1300  172.5420  139.0940 O   0  0  0  0  0  1  0  0  0  0  0  0
  191.4060  172.6600  139.8230 C   0  0  2  0  0  3  0  0  0  0  0  0
  191.3110  171.7700  141.0350 C   0  0  0  0  0  3  0  0  0  0  0  0
  189.3180  173.9130  143.4180 C   0  0  2  0  0  3  0  0  0  0  0  0
  187.6120  175.7660  143.0950 C   0  0  0  0  0  0  0  0  0  0  0  0
  186.7210  174.9430  142.7580 O   0  0  0  0  0  0  0  0  0  0  0  0
  188.9200  175.3180  143.4510 N   0  0  0  0  0  2  0  0  0  0  0  0
  187.3070  177.1570  143.1320 N   0  0  0  0  0  0  0  0  0  0  0  0
  187.6770  177.9900  142.0050 C   0  0  0  0  0  2  0  0  0  0  0  0
  189.1570  178.2900  142.0520 C   0  0  0  0  0  1  0  0  0  0  0  0
  186.4850  177.7350  144.2020 C   0  0  0  0  0  3  0  0  0  0  0  0
  187.5900  177.5340  146.1980 C   0  0  0  0  0  1  0  0  0  0  0  0
  186.5630  176.9920  145.4110 O   0  0  0  0  0  0  0  0  0  0  0  0
  185.1630  177.9570  143.7830 O   0  0  0  0  0  0  0  0  0  0  0  0
  184.4630  178.2950  144.9440 C   0  0  0  0  0  1  0  0  0  0  0  0
  189.9880  173.5110  144.7310 C   0  0  0  0  0  2  0  0  0  0  0  0
  189.3010  174.1900  145.8990 C   0  0  0  0  0  1  0  0  0  0  0  0
  194.7120  173.8900  141.1880 C   0  0  1  0  0  3  0  0  0  0  0  0
  193.7130  175.6470  142.7580 C   0  0  0  0  0  0  0  0  0  0  0  0
  194.0360  176.5870  141.9880 O   0  0  0  0  0  0  0  0  0  0  0  0
  194.0370  174.2930  142.4180 N   0  0  0  0  0  2  0  0  0  0  0  0
  191.9710  176.8780  144.0340 C   0  0  0  0  0  3  0  0  0  0  0  0
  191.6420  176.5160  146.4020 C   0  0  0  0  0  0  0  0  0  0  0  0
  191.2920  177.1660  145.2170 C   0  0  0  0  0  3  0  0  0  0  0  0
  193.3590  175.2840  145.2020 C   0  0  0  0  0  3  0  0  0  0  0  0
  192.6790  175.5680  146.3930 C   0  0  0  0  0  3  0  0  0  0  0  0
  193.0050  175.9380  144.0080 C   0  0  0  0  0  0  0  0  0  0  0  0
  191.5990  177.2450  148.7660 C   0  0  0  0  0  1  0  0  0  0  0  0
  190.9480  176.8310  147.5790 O   0  0  0  0  0  0  0  0  0  0  0  0
  196.1430  173.4040  141.4950 C   0  0  1  0  0  3  0  0  0  0  0  0
  197.5380  171.8690  142.7430 O   0  0  0  0  0  0  0  0  0  0  0  0
  196.2040  172.1940  142.4320 C   0  0  1  0  0  3  0  0  0  0  0  0
  196.8300  172.6030  143.7070 C   0  0  1  0  0  3  0  0  0  0  0  0
  196.3910  171.6770  144.8260 C   0  0  0  0  0  2  0  0  0  0  0  0
  196.8180  172.2510  146.1560 C   0  0  0  0  0  2  0  0  0  0  0  0
  196.6840  173.7600  146.1130 C   0  0  0  0  0  1  0  0  0  0  0  0
  196.8300  173.0870  140.2000 C   0  0  0  0  0  3  0  0  0  0  0  0
  197.7690  173.7700  139.8200 O   0  0  0  0  0  0  0  0  0  0  0  0
  2  1  1  0  0  0  0
  3 10  1  1  0  0  0
  4  3  1  0  0  0  0
  5  3  1  0  0  0  0
  6  7  1  1  0  0  0
  6  8  1  0  0  0  0
  6  5  1  0  0  0  0
  8  2  1  1  0  0  0
  8  9  1  0  0  0  0
  9  4  2  0  0  0  0
 10 13  1  0  0  0  0
 10 22  1  1  0  0  0
 11 14  1  0  0  0  0
 11 13  1  0  0  0  0
 12 11  2  0  0  0  0
 14 17  1  0  0  0  0
 15 16  1  0  0  0  0
 15 14  1  0  0  0  0
 17 19  1  0  0  0  0
 19 18  1  0  0  0  0
 20 17  1  0  0  0  0
 20 21  1  0  0  0  0
 22 23  1  0  0  0  0
 24  1  1  1  0  0  0
 24 36  1  0  0  0  0
 24 27  1  0  0  0  0
 25 33  1  0  0  0  0
 26 25  2  0  0  0  0
 27 25  1  0  0  0  0
 28 30  1  0  0  0  0
 29 35  1  0  0  0  0
 30 29  2  0  0  0  0
 31 32  2  0  0  0  0
 32 29  1  0  0  0  0
 33 28  2  0  0  0  0
 33 31  1  0  0  0  0
 35 34  1  0  0  0  0
 36 43  1  6  0  0  0
 37 39  1  0  0  0  0
 38 36  1  6  0  0  0
 38 37  1  0  0  0  0
 38 39  1  0  0  0  0
 39 40  1  1  0  0  0
 40 41  1  0  0  0  0
 42 41  1  0  0  0  0
 44 43  2  0  0  0  0
M  END
>  <MODEL>
9

>  <REMARK>
 VINA RESULT:      -5.2      1.930      8.991
  Name = 
  18 active torsions:
  status: ('A' for Active; 'I' for Inactive)
    1  A    between atoms: C_1  and  C_28
    2  A    between atoms: C_6  and  C_26
    3  A    between atoms: C_6  and  C_37
    4  A    between atoms: C_8  and  C_27
    5  A    between atoms: C_8  and  C_31
    6  A    between atoms: C_9  and  C_43
    7  A    between atoms: C_11  and  O_20
    8  A    between atoms: C_11  and  N_35
    9  A    between atoms: C_11  and  O_41
   10  A    between atoms: C_14  and  C_29
   11  A    between atoms: C_16  and  N_35
   12  A    between atoms: O_17  and  C_25
   13  A    between atoms: N_18  and  C_31
   14  A    between atoms: C_21  and  C_29
   15  A    between atoms: N_22  and  C_28
   16  A    between atoms: C_27  and  C_34
   17  A    between atoms: C_28  and  C_30
   18  A    between atoms: C_29  and  C_31
                            x       y       z     vdW  Elec       q    Type
                         _______ _______ _______ _____ _____    ______ ____

>  <TORSDO>
F 18

$$$$
