=
 OpenBabel11042418263D

 28 31  0  0  1  0  0  0  0  0999 V2000
  186.5590  178.6400  142.4550 O   0  0  0  0  0  0  0  0  0  0  0  0
  187.9100  177.4020  146.3340 C   0  0  2  0  0  3  0  0  0  0  0  0
  189.5430  176.5810  142.9470 C   0  0  0  0  0  1  0  0  0  0  0  0
  186.5340  177.8010  146.8380 C   0  0  0  0  0  0  0  0  0  0  0  0
  184.8650  179.9080  144.2800 O   0  0  0  0  0  1  0  0  0  0  0  0
  188.2180  177.7870  145.0080 O   0  0  0  0  0  0  0  0  0  0  0  0
  188.0430  176.7990  142.8140 C   0  0  0  0  0  0  0  0  0  0  0  0
  187.3580  177.1040  144.1210 C   0  0  2  0  0  3  0  0  0  0  0  0
  186.2270  178.0280  143.6820 C   0  0  1  0  0  3  0  0  0  0  0  0
  187.6860  177.7980  140.6310 O   0  0  0  0  0  1  0  0  0  0  0  0
  187.4100  175.5530  142.2050 C   0  0  0  0  0  1  0  0  0  0  0  0
  184.1700  178.5230  146.5020 C   0  0  0  0  0  1  0  0  0  0  0  0
  186.2610  177.5550  148.0440 O   0  0  0  0  0  0  0  0  0  0  0  0
  187.7550  178.0520  142.0050 C   0  0  1  0  0  3  0  0  0  0  0  0
  185.5420  178.4430  146.0090 N   0  0  0  0  0  0  0  0  0  0  0  0
  185.8990  179.0830  144.7390 C   0  0  2  0  0  3  0  0  0  0  0  0
  188.2380  175.9350  146.6280 C   0  0  0  0  0  2  0  0  0  0  0  0
  191.8900  175.9310  146.5650 C   0  0  0  0  0  0  0  0  0  0  0  0
  196.0740  174.5990  145.6470 N   0  0  0  0  0  1  0  0  0  0  0  0
  193.1220  176.4730  146.8560 C   0  0  0  0  0  3  0  0  0  0  0  0
  193.8250  173.9180  145.2990 N   0  0  0  0  0  0  0  0  0  0  0  0
  194.6830  174.8330  145.8270 C   0  0  0  0  0  0  0  0  0  0  0  0
  194.3220  175.9520  146.5090 N   0  0  0  0  0  0  0  0  0  0  0  0
  189.6960  175.6680  146.4640 C   0  0  0  0  0  0  0  0  0  0  0  0
  192.4760  173.8230  145.2790 C   0  0  0  0  0  2  0  0  0  0  0  0
  191.5940  174.7190  145.8430 C   0  0  0  0  0  0  0  0  0  0  0  0
  190.2250  174.5800  145.7890 C   0  0  0  0  0  3  0  0  0  0  0  0
  190.6930  176.5040  146.9370 C   0  0  0  0  0  2  0  0  0  0  0  0
  2 17  1  6  0  0  0
  2  4  1  0  0  0  0
  4 13  2  0  0  0  0
  6  2  1  0  0  0  0
  7  3  1  0  0  0  0
  7  8  1  0  0  0  0
  8  6  1  1  0  0  0
  9  1  1  6  0  0  0
  9  8  1  0  0  0  0
  9 16  1  0  0  0  0
 11  7  1  0  0  0  0
 14 10  1  6  0  0  0
 14  1  1  0  0  0  0
 14  7  1  0  0  0  0
 15 12  1  0  0  0  0
 15  4  1  0  0  0  0
 16  5  1  6  0  0  0
 16 15  1  0  0  0  0
 18 20  1  0  0  0  0
 18 28  1  0  0  0  0
 19 22  1  0  0  0  0
 21 22  2  0  0  0  0
 22 23  1  0  0  0  0
 23 20  2  0  0  0  0
 24 17  1  0  0  0  0
 24 28  1  0  0  0  0
 25 21  1  0  0  0  0
 25 26  1  0  0  0  0
 26 18  2  0  0  0  0
 27 26  1  0  0  0  0
 27 24  2  0  0  0  0
M  END
>  <MODEL>
1

>  <REMARK>
 VINA RESULT:      -8.8      0.000      0.000
  Name = 
  2 active torsions:
  status: ('A' for Active; 'I' for Inactive)
    1  A    between atoms: C_2  and  C_3
    2  A    between atoms: C_3  and  C_22
                            x       y       z     vdW  Elec       q    Type
                         _______ _______ _______ _____ _____    ______ ____

>  <TORSDO>
F 2

$$$$
=
 OpenBabel11042418263D

 28 31  0  0  1  0  0  0  0  0999 V2000
  186.8430  176.8120  141.3230 O   0  0  0  0  0  0  0  0  0  0  0  0
  188.4600  177.0650  145.2890 C   0  0  2  0  0  3  0  0  0  0  0  0
  189.8870  175.0520  142.3350 C   0  0  0  0  0  1  0  0  0  0  0  0
  187.1130  177.6300  145.7010 C   0  0  0  0  0  0  0  0  0  0  0  0
  185.2470  178.6710  142.6670 O   0  0  0  0  0  1  0  0  0  0  0  0
  188.6760  176.9370  143.8970 O   0  0  0  0  0  0  0  0  0  0  0  0
  188.3780  175.2170  142.2300 C   0  0  0  0  0  0  0  0  0  0  0  0
  187.7730  175.9840  143.3790 C   0  0  2  0  0  3  0  0  0  0  0  0
  186.6010  176.6920  142.7080 C   0  0  1  0  0  3  0  0  0  0  0  0
  187.8660  175.3540  139.8620 O   0  0  0  0  0  1  0  0  0  0  0  0
  187.7290  173.8400  142.1610 C   0  0  0  0  0  1  0  0  0  0  0  0
  184.7200  178.1970  145.2810 C   0  0  0  0  0  1  0  0  0  0  0  0
  186.9210  177.8440  146.9300 O   0  0  0  0  0  0  0  0  0  0  0  0
  188.0180  176.0910  141.0410 C   0  0  1  0  0  3  0  0  0  0  0  0
  186.0580  177.9330  144.7630 N   0  0  0  0  0  0  0  0  0  0  0  0
  186.3220  178.0620  143.3260 C   0  0  2  0  0  3  0  0  0  0  0  0
  188.8310  175.8040  146.0750 C   0  0  0  0  0  2  0  0  0  0  0  0
  192.1960  174.4490  145.6570 C   0  0  0  0  0  0  0  0  0  0  0  0
  196.6770  174.2380  145.7130 N   0  0  0  0  0  1  0  0  0  0  0  0
  193.0830  173.4470  145.3290 C   0  0  0  0  0  3  0  0  0  0  0  0
  194.9170  175.7560  146.1980 N   0  0  0  0  0  0  0  0  0  0  0  0
  195.2850  174.5180  145.7700 C   0  0  0  0  0  0  0  0  0  0  0  0
  194.4330  173.5270  145.3970 N   0  0  0  0  0  0  0  0  0  0  0  0
  190.2940  175.5270  145.9860 C   0  0  0  0  0  0  0  0  0  0  0  0
  193.7150  176.3510  146.3750 C   0  0  0  0  0  3  0  0  0  0  0  0
  192.4860  175.7780  146.1360 C   0  0  0  0  0  0  0  0  0  0  0  0
  191.2870  176.4250  146.3380 C   0  0  0  0  0  3  0  0  0  0  0  0
  190.8280  174.3170  145.5760 C   0  0  0  0  0  3  0  0  0  0  0  0
  2  4  1  0  0  0  0
  2 17  1  1  0  0  0
  4 13  2  0  0  0  0
  6  2  1  0  0  0  0
  7  3  1  0  0  0  0
  7  8  1  0  0  0  0
  8  6  1  6  0  0  0
  9  1  1  6  0  0  0
  9 16  1  0  0  0  0
  9  8  1  0  0  0  0
 11  7  1  0  0  0  0
 14 10  1  6  0  0  0
 14  1  1  0  0  0  0
 14  7  1  0  0  0  0
 15 12  1  0  0  0  0
 15  4  1  0  0  0  0
 16  5  1  6  0  0  0
 16 15  1  0  0  0  0
 18 26  1  0  0  0  0
 19 22  1  0  0  0  0
 20 23  2  0  0  0  0
 20 18  1  0  0  0  0
 21 25  1  0  0  0  0
 22 21  2  0  0  0  0
 23 22  1  0  0  0  0
 24 17  1  0  0  0  0
 24 27  2  0  0  0  0
 26 27  1  0  0  0  0
 26 25  2  0  0  0  0
 28 18  2  0  0  0  0
 28 24  1  0  0  0  0
M  END
>  <MODEL>
2

>  <REMARK>
 VINA RESULT:      -7.7      1.192      1.893
  Name = 
  2 active torsions:
  status: ('A' for Active; 'I' for Inactive)
    1  A    between atoms: C_2  and  C_3
    2  A    between atoms: C_3  and  C_22
                            x       y       z     vdW  Elec       q    Type
                         _______ _______ _______ _____ _____    ______ ____

>  <TORSDO>
F 2

$$$$
=
 OpenBabel11042418263D

 28 31  0  0  1  0  0  0  0  0999 V2000
  192.3350  171.7780  144.0890 O   0  0  0  0  0  0  0  0  0  0  0  0
  192.0710  175.6590  145.8970 C   0  0  2  0  0  3  0  0  0  0  0  0
  189.4070  173.9400  143.7140 C   0  0  0  0  0  1  0  0  0  0  0  0
  193.5720  175.5640  146.1010 C   0  0  0  0  0  0  0  0  0  0  0  0
  194.6420  172.0410  145.6440 O   0  0  0  0  0  1  0  0  0  0  0  0
  191.4280  174.4730  145.4730 O   0  0  0  0  0  0  0  0  0  0  0  0
  190.8130  173.4740  143.3630 C   0  0  0  0  0  0  0  0  0  0  0  0
  191.8910  174.1380  144.1810 C   0  0  2  0  0  3  0  0  0  0  0  0
  192.9420  173.0370  144.2780 C   0  0  1  0  0  3  0  0  0  0  0  0
  190.6170  171.1520  142.6870 O   0  0  0  0  0  1  0  0  0  0  0  0
  191.0750  173.7490  141.8880 C   0  0  0  0  0  1  0  0  0  0  0  0
  195.7960  174.4880  145.7530 C   0  0  0  0  0  1  0  0  0  0  0  0
  194.1630  176.5760  146.5670 O   0  0  0  0  0  0  0  0  0  0  0  0
  190.9960  172.0100  143.7250 C   0  0  1  0  0  3  0  0  0  0  0  0
  194.3410  174.3820  145.7920 N   0  0  0  0  0  0  0  0  0  0  0  0
  193.7000  173.0760  145.6050 C   0  0  2  0  0  3  0  0  0  0  0  0
  191.6680  176.8890  145.0780 C   0  0  0  0  0  2  0  0  0  0  0  0
  188.1400  177.7740  144.7450 C   0  0  0  0  0  0  0  0  0  0  0  0
  183.8960  178.6310  145.9160 N   0  0  0  0  0  1  0  0  0  0  0  0
  187.0370  178.1620  144.0180 C   0  0  0  0  0  3  0  0  0  0  0  0
  185.9580  177.9690  146.8900 N   0  0  0  0  0  0  0  0  0  0  0  0
  185.2740  178.3150  145.7660 C   0  0  0  0  0  0  0  0  0  0  0  0
  185.7970  178.3880  144.5140 N   0  0  0  0  0  0  0  0  0  0  0  0
  190.2150  177.1880  145.2360 C   0  0  0  0  0  0  0  0  0  0  0  0
  187.2450  177.6170  147.1140 C   0  0  0  0  0  3  0  0  0  0  0  0
  188.2360  177.5250  146.1620 C   0  0  0  0  0  0  0  0  0  0  0  0
  189.5360  177.1690  146.4430 C   0  0  0  0  0  3  0  0  0  0  0  0
  189.3850  177.5610  144.1940 C   0  0  0  0  0  3  0  0  0  0  0  0
  2 17  1  6  0  0  0
  2  4  1  0  0  0  0
  4 13  2  0  0  0  0
  6  2  1  0  0  0  0
  7  3  1  0  0  0  0
  7 14  1  0  0  0  0
  7  8  1  0  0  0  0
  8  9  1  0  0  0  0
  8  6  1  1  0  0  0
  9  1  1  1  0  0  0
  9 16  1  0  0  0  0
 11  7  1  0  0  0  0
 12 15  1  0  0  0  0
 14 10  1  6  0  0  0
 14  1  1  0  0  0  0
 15  4  1  0  0  0  0
 16  5  1  6  0  0  0
 16 15  1  0  0  0  0
 17 24  1  0  0  0  0
 18 26  1  0  0  0  0
 20 23  2  0  0  0  0
 20 18  1  0  0  0  0
 21 25  1  0  0  0  0
 22 19  1  0  0  0  0
 22 21  2  0  0  0  0
 23 22  1  0  0  0  0
 24 27  2  0  0  0  0
 26 27  1  0  0  0  0
 26 25  2  0  0  0  0
 28 18  2  0  0  0  0
 28 24  1  0  0  0  0
M  END
>  <MODEL>
3

>  <REMARK>
 VINA RESULT:      -7.7      3.317      7.554
  Name = 
  2 active torsions:
  status: ('A' for Active; 'I' for Inactive)
    1  A    between atoms: C_2  and  C_3
    2  A    between atoms: C_3  and  C_22
                            x       y       z     vdW  Elec       q    Type
                         _______ _______ _______ _____ _____    ______ ____

>  <TORSDO>
F 2

$$$$
=
 OpenBabel11042418263D

 28 31  0  0  1  0  0  0  0  0999 V2000
  192.2990  171.7560  144.0990 O   0  0  0  0  0  0  0  0  0  0  0  0
  192.1040  175.6730  145.8410 C   0  0  2  0  0  3  0  0  0  0  0  0
  189.4020  173.9560  143.7030 C   0  0  0  0  0  1  0  0  0  0  0  0
  193.6040  175.5580  146.0370 C   0  0  0  0  0  0  0  0  0  0  0  0
  194.6180  172.0110  145.6370 O   0  0  0  0  0  1  0  0  0  0  0  0
  191.4410  174.4890  145.4400 O   0  0  0  0  0  0  0  0  0  0  0  0
  190.7980  173.4630  143.3530 C   0  0  0  0  0  0  0  0  0  0  0  0
  191.8910  174.1240  144.1530 C   0  0  2  0  0  3  0  0  0  0  0  0
  192.9260  173.0100  144.2630 C   0  0  1  0  0  3  0  0  0  0  0  0
  190.5630  171.1320  142.7190 O   0  0  0  0  0  1  0  0  0  0  0  0
  191.0560  173.7070  141.8710 C   0  0  0  0  0  1  0  0  0  0  0  0
  195.8100  174.4420  145.6970 C   0  0  0  0  0  1  0  0  0  0  0  0
  194.2130  176.5690  146.4820 O   0  0  0  0  0  0  0  0  0  0  0  0
  190.9610  172.0030  143.7390 C   0  0  1  0  0  3  0  0  0  0  0  0
  194.3530  174.3590  145.7460 N   0  0  0  0  0  0  0  0  0  0  0  0
  193.6920  173.0600  145.5840 C   0  0  2  0  0  3  0  0  0  0  0  0
  191.7150  176.8940  145.0020 C   0  0  0  0  0  2  0  0  0  0  0  0
  188.3070  177.5510  146.1390 C   0  0  0  0  0  0  0  0  0  0  0  0
  183.9390  178.5540  145.9600 N   0  0  0  0  0  1  0  0  0  0  0  0
  187.3350  177.6440  147.1110 C   0  0  0  0  0  3  0  0  0  0  0  0
  185.8150  178.3160  144.5240 N   0  0  0  0  0  0  0  0  0  0  0  0
  185.3210  178.2670  145.7910 C   0  0  0  0  0  0  0  0  0  0  0  0
  186.0350  177.9620  146.9060 N   0  0  0  0  0  0  0  0  0  0  0  0
  190.2720  177.2290  145.1770 C   0  0  0  0  0  0  0  0  0  0  0  0
  187.0480  178.1040  144.0070 C   0  0  0  0  0  2  0  0  0  0  0  0
  188.1750  177.7600  144.7190 C   0  0  0  0  0  0  0  0  0  0  0  0
  189.4080  177.5490  144.1430 C   0  0  0  0  0  3  0  0  0  0  0  0
  189.6190  177.2180  146.3970 C   0  0  0  0  0  2  0  0  0  0  0  0
  2 17  1  6  0  0  0
  2  4  1  0  0  0  0
  4 13  2  0  0  0  0
  6  2  1  0  0  0  0
  7  3  1  0  0  0  0
  7 14  1  0  0  0  0
  7  8  1  0  0  0  0
  8  9  1  0  0  0  0
  8  6  1  1  0  0  0
  9  1  1  1  0  0  0
  9 16  1  0  0  0  0
 11  7  1  0  0  0  0
 12 15  1  0  0  0  0
 14 10  1  6  0  0  0
 14  1  1  0  0  0  0
 15  4  1  0  0  0  0
 16  5  1  6  0  0  0
 16 15  1  0  0  0  0
 17 24  1  0  0  0  0
 18 28  1  0  0  0  0
 18 20  1  0  0  0  0
 21 22  2  0  0  0  0
 22 19  1  0  0  0  0
 22 23  1  0  0  0  0
 23 20  2  0  0  0  0
 24 28  1  0  0  0  0
 25 21  1  0  0  0  0
 25 26  1  0  0  0  0
 26 18  2  0  0  0  0
 27 26  1  0  0  0  0
 27 24  2  0  0  0  0
M  END
>  <MODEL>
4

>  <REMARK>
 VINA RESULT:      -7.7      3.324      7.506
  Name = 
  2 active torsions:
  status: ('A' for Active; 'I' for Inactive)
    1  A    between atoms: C_2  and  C_3
    2  A    between atoms: C_3  and  C_22
                            x       y       z     vdW  Elec       q    Type
                         _______ _______ _______ _____ _____    ______ ____

>  <TORSDO>
F 2

$$$$
=
 OpenBabel11042418263D

 28 31  0  0  1  0  0  0  0  0999 V2000
  190.5800  172.9400  143.5870 O   0  0  0  0  0  0  0  0  0  0  0  0
  189.6260  177.1230  143.6620 C   0  0  2  0  0  3  0  0  0  0  0  0
  187.6360  174.3280  141.9160 C   0  0  0  0  0  1  0  0  0  0  0  0
  191.0520  177.3440  144.1320 C   0  0  0  0  0  0  0  0  0  0  0  0
  192.4730  174.1130  145.2760 O   0  0  0  0  0  1  0  0  0  0  0  0
  189.1860  175.7780  143.6350 O   0  0  0  0  0  0  0  0  0  0  0  0
  189.1170  173.9920  142.0140 C   0  0  0  0  0  0  0  0  0  0  0  0
  189.9390  175.0690  142.6740 C   0  0  2  0  0  3  0  0  0  0  0  0
  191.0300  174.2600  143.3670 C   0  0  1  0  0  3  0  0  0  0  0  0
  189.2560  171.5830  142.2790 O   0  0  0  0  0  1  0  0  0  0  0  0
  189.6650  173.7410  140.6150 C   0  0  0  0  0  1  0  0  0  0  0  0
  193.3770  176.5770  144.6080 C   0  0  0  0  0  1  0  0  0  0  0  0
  191.4460  178.5360  144.2560 O   0  0  0  0  0  0  0  0  0  0  0  0
  189.3350  172.8110  142.9450 C   0  0  1  0  0  3  0  0  0  0  0  0
  191.9610  176.2670  144.4430 N   0  0  0  0  0  0  0  0  0  0  0  0
  191.4820  174.9010  144.6780 C   0  0  2  0  0  3  0  0  0  0  0  0
  189.3100  177.8860  142.3720 C   0  0  0  0  0  2  0  0  0  0  0  0
  185.6800  178.2260  142.5930 C   0  0  0  0  0  0  0  0  0  0  0  0
  181.3880  178.3690  141.2980 N   0  0  0  0  0  1  0  0  0  0  0  0
  184.5060  178.4100  143.2890 C   0  0  0  0  0  3  0  0  0  0  0  0
  183.5600  178.0790  140.3830 N   0  0  0  0  0  0  0  0  0  0  0  0
  182.7940  178.2910  141.4880 C   0  0  0  0  0  0  0  0  0  0  0  0
  183.2610  178.4300  142.7570 N   0  0  0  0  0  0  0  0  0  0  0  0
  187.8380  178.0000  142.1620 C   0  0  0  0  0  0  0  0  0  0  0  0
  184.8940  177.9520  140.1960 C   0  0  0  0  0  2  0  0  0  0  0  0
  185.8570  178.0150  141.1780 C   0  0  0  0  0  0  0  0  0  0  0  0
  187.2060  177.8730  140.9360 C   0  0  0  0  0  3  0  0  0  0  0  0
  186.9250  178.2080  143.1820 C   0  0  0  0  0  2  0  0  0  0  0  0
  2 17  1  6  0  0  0
  2  4  1  0  0  0  0
  3  7  1  0  0  0  0
  4 13  2  0  0  0  0
  4 15  1  0  0  0  0
  6  2  1  0  0  0  0
  7  8  1  0  0  0  0
  7 14  1  0  0  0  0
  8  9  1  0  0  0  0
  8  6  1  1  0  0  0
  9  1  1  1  0  0  0
  9 16  1  0  0  0  0
 11  7  1  0  0  0  0
 14 10  1  6  0  0  0
 14  1  1  0  0  0  0
 15 12  1  0  0  0  0
 15 16  1  0  0  0  0
 16  5  1  6  0  0  0
 18 28  1  0  0  0  0
 18 20  1  0  0  0  0
 19 22  1  0  0  0  0
 21 22  2  0  0  0  0
 22 23  1  0  0  0  0
 23 20  2  0  0  0  0
 24 17  1  0  0  0  0
 24 28  1  0  0  0  0
 25 21  1  0  0  0  0
 25 26  1  0  0  0  0
 26 18  2  0  0  0  0
 27 26  1  0  0  0  0
 27 24  2  0  0  0  0
M  END
>  <MODEL>
5

>  <REMARK>
 VINA RESULT:      -7.4      3.365      7.851
  Name = 
  2 active torsions:
  status: ('A' for Active; 'I' for Inactive)
    1  A    between atoms: C_2  and  C_3
    2  A    between atoms: C_3  and  C_22
                            x       y       z     vdW  Elec       q    Type
                         _______ _______ _______ _____ _____    ______ ____

>  <TORSDO>
F 2

$$$$
=
 OpenBabel11042418263D

 28 31  0  0  1  0  0  0  0  0999 V2000
  184.9440  177.9580  144.6170 O   0  0  0  0  0  0  0  0  0  0  0  0
  188.8730  176.2700  144.9690 C   0  0  2  0  0  3  0  0  0  0  0  0
  186.3180  176.7910  147.8010 C   0  0  0  0  0  1  0  0  0  0  0  0
  189.1480  176.8590  143.5970 C   0  0  0  0  0  0  0  0  0  0  0  0
  185.9290  177.7950  142.0060 O   0  0  0  0  0  1  0  0  0  0  0  0
  187.5260  176.3070  145.3990 O   0  0  0  0  0  0  0  0  0  0  0  0
  186.1400  177.8080  146.6830 C   0  0  0  0  0  0  0  0  0  0  0  0
  187.1340  177.6540  145.5610 C   0  0  2  0  0  3  0  0  0  0  0  0
  186.3220  178.1050  144.3510 C   0  0  1  0  0  3  0  0  0  0  0  0
  183.7640  178.2880  146.5670 O   0  0  0  0  0  1  0  0  0  0  0  0
  186.2650  179.2120  147.2630 C   0  0  0  0  0  1  0  0  0  0  0  0
  188.5660  178.2910  141.6380 C   0  0  0  0  0  1  0  0  0  0  0  0
  190.3200  176.7600  143.1440 O   0  0  0  0  0  0  0  0  0  0  0  0
  184.8170  177.5890  145.9690 C   0  0  1  0  0  3  0  0  0  0  0  0
  188.1390  177.5160  142.8000 N   0  0  0  0  0  0  0  0  0  0  0  0
  186.7090  177.3500  143.0800 C   0  0  2  0  0  3  0  0  0  0  0  0
  189.8580  176.7700  146.0290 C   0  0  0  0  0  2  0  0  0  0  0  0
  193.3150  175.5920  146.0040 C   0  0  0  0  0  0  0  0  0  0  0  0
  196.7990  172.8030  145.5490 N   0  0  0  0  0  1  0  0  0  0  0  0
  194.6730  175.7740  146.1380 C   0  0  0  0  0  3  0  0  0  0  0  0
  194.4290  172.8010  145.3930 N   0  0  0  0  0  0  0  0  0  0  0  0
  195.5660  173.5050  145.6410 C   0  0  0  0  0  0  0  0  0  0  0  0
  195.6230  174.8240  145.9670 N   0  0  0  0  0  0  0  0  0  0  0  0
  191.1460  176.0200  145.9630 C   0  0  0  0  0  0  0  0  0  0  0  0
  193.1190  173.1380  145.3880 C   0  0  0  0  0  2  0  0  0  0  0  0
  192.6040  174.3860  145.6600 C   0  0  0  0  0  0  0  0  0  0  0  0
  191.2580  174.6790  145.6360 C   0  0  0  0  0  3  0  0  0  0  0  0
  192.3860  176.5930  146.1830 C   0  0  0  0  0  2  0  0  0  0  0  0
  1 14  1  0  0  0  0
  2  6  1  0  0  0  0
  2 17  1  1  0  0  0
  4  2  1  0  0  0  0
  7 11  1  0  0  0  0
  7  3  1  0  0  0  0
  8  6  1  6  0  0  0
  8  7  1  0  0  0  0
  9  1  1  1  0  0  0
  9  8  1  0  0  0  0
 12 15  1  0  0  0  0
 13  4  2  0  0  0  0
 14 10  1  1  0  0  0
 14  7  1  0  0  0  0
 15 16  1  0  0  0  0
 15  4  1  0  0  0  0
 16  5  1  6  0  0  0
 16  9  1  0  0  0  0
 18 20  1  0  0  0  0
 18 28  1  0  0  0  0
 19 22  1  0  0  0  0
 21 22  2  0  0  0  0
 22 23  1  0  0  0  0
 23 20  2  0  0  0  0
 24 17  1  0  0  0  0
 24 28  1  0  0  0  0
 25 21  1  0  0  0  0
 25 26  1  0  0  0  0
 26 18  2  0  0  0  0
 27 26  1  0  0  0  0
 27 24  2  0  0  0  0
M  END
>  <MODEL>
6

>  <REMARK>
 VINA RESULT:      -7.4      1.614      3.556
  Name = 
  2 active torsions:
  status: ('A' for Active; 'I' for Inactive)
    1  A    between atoms: C_2  and  C_3
    2  A    between atoms: C_3  and  C_22
                            x       y       z     vdW  Elec       q    Type
                         _______ _______ _______ _____ _____    ______ ____

>  <TORSDO>
F 2

$$$$
=
 OpenBabel11042418263D

 28 31  0  0  1  0  0  0  0  0999 V2000
  194.9040  174.6690  143.3070 O   0  0  0  0  0  0  0  0  0  0  0  0
  190.8140  174.1380  144.4910 C   0  0  2  0  0  3  0  0  0  0  0  0
  192.9590  177.3030  144.9400 C   0  0  0  0  0  1  0  0  0  0  0  0
  191.0530  172.6500  144.3110 C   0  0  0  0  0  0  0  0  0  0  0  0
  194.1710  172.1430  142.3650 O   0  0  0  0  0  1  0  0  0  0  0  0
  191.8390  174.9900  144.0150 O   0  0  0  0  0  0  0  0  0  0  0  0
  193.8080  176.0410  144.9320 C   0  0  0  0  0  0  0  0  0  0  0  0
  193.0070  174.7740  144.7790 C   0  0  2  0  0  3  0  0  0  0  0  0
  193.9700  173.8770  144.0070 C   0  0  1  0  0  3  0  0  0  0  0  0
  195.9250  176.6450  143.9090 O   0  0  0  0  0  1  0  0  0  0  0  0
  194.6030  175.9660  146.2300 C   0  0  0  0  0  1  0  0  0  0  0  0
  192.5160  170.6670  143.9190 C   0  0  0  0  0  1  0  0  0  0  0  0
  190.1220  171.8660  144.6400 O   0  0  0  0  0  0  0  0  0  0  0  0
  194.6980  176.0040  143.7020 C   0  0  1  0  0  3  0  0  0  0  0  0
  192.2810  172.1010  143.7850 N   0  0  0  0  0  0  0  0  0  0  0  0
  193.2420  172.9320  143.0520 C   0  0  2  0  0  3  0  0  0  0  0  0
  190.3480  174.4900  145.9070 C   0  0  0  0  0  2  0  0  0  0  0  0
  187.3170  176.4250  146.5460 C   0  0  0  0  0  0  0  0  0  0  0  0
  183.6930  178.9430  145.7400 N   0  0  0  0  0  1  0  0  0  0  0  0
  186.3390  176.9350  147.3700 C   0  0  0  0  0  3  0  0  0  0  0  0
  185.5070  177.9360  144.5850 N   0  0  0  0  0  0  0  0  0  0  0  0
  184.8780  178.1590  145.7710 C   0  0  0  0  0  0  0  0  0  0  0  0
  185.2860  177.6910  146.9810 N   0  0  0  0  0  0  0  0  0  0  0  0
  189.1230  175.3400  145.8730 C   0  0  0  0  0  0  0  0  0  0  0  0
  186.6250  177.2520  144.2490 C   0  0  0  0  0  2  0  0  0  0  0  0
  187.4470  176.5700  145.1170 C   0  0  0  0  0  0  0  0  0  0  0  0
  188.5740  175.8820  144.7230 C   0  0  0  0  0  3  0  0  0  0  0  0
  188.3680  175.6530  146.9900 C   0  0  0  0  0  2  0  0  0  0  0  0
  1 14  1  0  0  0  0
  2 17  1  1  0  0  0
  4  2  1  0  0  0  0
  4 13  2  0  0  0  0
  6  2  1  0  0  0  0
  7  3  1  0  0  0  0
  7 11  1  0  0  0  0
  8  6  1  6  0  0  0
  8  7  1  0  0  0  0
  9  1  1  6  0  0  0
  9  8  1  0  0  0  0
 14 10  1  1  0  0  0
 14  7  1  0  0  0  0
 15 12  1  0  0  0  0
 15  4  1  0  0  0  0
 16  5  1  1  0  0  0
 16 15  1  0  0  0  0
 16  9  1  0  0  0  0
 18 28  1  0  0  0  0
 18 20  1  0  0  0  0
 19 22  1  0  0  0  0
 21 22  2  0  0  0  0
 22 23  1  0  0  0  0
 23 20  2  0  0  0  0
 24 17  1  0  0  0  0
 24 28  1  0  0  0  0
 25 21  1  0  0  0  0
 25 26  1  0  0  0  0
 26 18  2  0  0  0  0
 27 26  1  0  0  0  0
 27 24  2  0  0  0  0
M  END
>  <MODEL>
7

>  <REMARK>
 VINA RESULT:      -7.4      3.479      7.780
  Name = 
  2 active torsions:
  status: ('A' for Active; 'I' for Inactive)
    1  A    between atoms: C_2  and  C_3
    2  A    between atoms: C_3  and  C_22
                            x       y       z     vdW  Elec       q    Type
                         _______ _______ _______ _____ _____    ______ ____

>  <TORSDO>
F 2

$$$$
=
 OpenBabel11042418263D

 28 31  0  0  1  0  0  0  0  0999 V2000
  191.5100  172.2490  143.6710 O   0  0  0  0  0  0  0  0  0  0  0  0
  191.0740  176.2800  145.0750 C   0  0  2  0  0  3  0  0  0  0  0  0
  188.7400  174.4120  142.6500 C   0  0  0  0  0  1  0  0  0  0  0  0
  192.5210  176.1820  145.5220 C   0  0  0  0  0  0  0  0  0  0  0  0
  193.5490  172.6160  145.5460 O   0  0  0  0  0  1  0  0  0  0  0  0
  190.4730  175.0700  144.6560 O   0  0  0  0  0  0  0  0  0  0  0  0
  190.1700  173.8960  142.5690 C   0  0  0  0  0  0  0  0  0  0  0  0
  191.1240  174.6150  143.4890 C   0  0  2  0  0  3  0  0  0  0  0  0
  192.1150  173.5120  143.8460 C   0  0  1  0  0  3  0  0  0  0  0  0
  190.0170  171.5260  142.0720 O   0  0  0  0  0  1  0  0  0  0  0  0
  190.6690  174.0340  141.1360 C   0  0  0  0  0  1  0  0  0  0  0  0
  194.7410  175.0470  145.6270 C   0  0  0  0  0  1  0  0  0  0  0  0
  193.0600  177.2220  145.9880 O   0  0  0  0  0  0  0  0  0  0  0  0
  190.2520  172.4680  143.0800 C   0  0  1  0  0  3  0  0  0  0  0  0
  193.2950  174.9650  145.4430 N   0  0  0  0  0  0  0  0  0  0  0  0
  192.6550  173.6570  145.2680 C   0  0  2  0  0  3  0  0  0  0  0  0
  190.8410  177.4380  144.0990 C   0  0  0  0  0  2  0  0  0  0  0  0
  187.5460  177.8450  142.5770 C   0  0  0  0  0  0  0  0  0  0  0  0
  183.0940  178.2890  142.2540 N   0  0  0  0  0  1  0  0  0  0  0  0
  186.7060  178.0190  141.4990 C   0  0  0  0  0  3  0  0  0  0  0  0
  184.7820  177.9870  143.8970 N   0  0  0  0  0  0  0  0  0  0  0  0
  184.4680  178.1310  142.5810 C   0  0  0  0  0  0  0  0  0  0  0  0
  185.3590  178.1400  141.5540 N   0  0  0  0  0  0  0  0  0  0  0  0
  189.3950  177.5710  143.7600 C   0  0  0  0  0  0  0  0  0  0  0  0
  185.9530  177.8200  144.5520 C   0  0  0  0  0  3  0  0  0  0  0  0
  187.2010  177.7550  143.9740 C   0  0  0  0  0  0  0  0  0  0  0  0
  188.3670  177.5900  144.6880 C   0  0  0  0  0  3  0  0  0  0  0  0
  188.9150  177.7320  142.4710 C   0  0  0  0  0  3  0  0  0  0  0  0
  2 17  1  6  0  0  0
  2  4  1  0  0  0  0
  4 13  2  0  0  0  0
  6  2  1  0  0  0  0
  7  3  1  0  0  0  0
  7 14  1  0  0  0  0
  7  8  1  0  0  0  0
  8  9  1  0  0  0  0
  8  6  1  1  0  0  0
  9  1  1  1  0  0  0
  9 16  1  0  0  0  0
 11  7  1  0  0  0  0
 14 10  1  6  0  0  0
 14  1  1  0  0  0  0
 15  4  1  0  0  0  0
 15 12  1  0  0  0  0
 16 15  1  0  0  0  0
 16  5  1  6  0  0  0
 18 26  1  0  0  0  0
 19 22  1  0  0  0  0
 20 23  2  0  0  0  0
 20 18  1  0  0  0  0
 21 25  1  0  0  0  0
 22 21  2  0  0  0  0
 23 22  1  0  0  0  0
 24 17  1  0  0  0  0
 24 27  2  0  0  0  0
 26 25  2  0  0  0  0
 26 27  1  0  0  0  0
 28 18  2  0  0  0  0
 28 24  1  0  0  0  0
M  END
>  <MODEL>
8

>  <REMARK>
 VINA RESULT:      -7.1      3.230      7.501
  Name = 
  2 active torsions:
  status: ('A' for Active; 'I' for Inactive)
    1  A    between atoms: C_2  and  C_3
    2  A    between atoms: C_3  and  C_22
                            x       y       z     vdW  Elec       q    Type
                         _______ _______ _______ _____ _____    ______ ____

>  <TORSDO>
F 2

$$$$
=
 OpenBabel11042418263D

 28 31  0  0  1  0  0  0  0  0999 V2000
  192.8960  176.6370  147.0080 O   0  0  0  0  0  0  0  0  0  0  0  0
  191.0630  175.7190  143.2390 C   0  0  2  0  0  3  0  0  0  0  0  0
  189.2940  176.9290  146.4360 C   0  0  0  0  0  1  0  0  0  0  0  0
  192.3610  175.0150  142.8850 C   0  0  0  0  0  0  0  0  0  0  0  0
  195.0060  176.0680  145.2650 O   0  0  0  0  0  1  0  0  0  0  0  0
  191.0850  176.4980  144.4190 O   0  0  0  0  0  0  0  0  0  0  0  0
  190.5670  176.1570  146.7520 C   0  0  0  0  0  0  0  0  0  0  0  0
  191.2830  175.6460  145.5280 C   0  0  2  0  0  3  0  0  0  0  0  0
  192.7430  175.6980  145.9660 C   0  0  1  0  0  3  0  0  0  0  0  0
  191.4940  177.1550  148.7600 O   0  0  0  0  0  1  0  0  0  0  0  0
  190.2240  174.9760  147.6500 C   0  0  0  0  0  1  0  0  0  0  0  0
  194.6160  174.1050  143.4410 C   0  0  0  0  0  1  0  0  0  0  0  0
  192.4050  174.3870  141.7920 O   0  0  0  0  0  0  0  0  0  0  0  0
  191.6080  177.0750  147.3680 C   0  0  1  0  0  3  0  0  0  0  0  0
  193.5310  175.0370  143.7300 N   0  0  0  0  0  0  0  0  0  0  0  0
  193.6840  176.0220  144.8060 C   0  0  2  0  0  3  0  0  0  0  0  0
  189.8500  174.7870  143.1540 C   0  0  0  0  0  2  0  0  0  0  0  0
  187.2580  176.6040  141.3340 C   0  0  0  0  0  0  0  0  0  0  0  0
  183.4430  178.8370  140.5680 N   0  0  0  0  0  1  0  0  0  0  0  0
  186.7320  177.1820  140.2000 C   0  0  0  0  0  3  0  0  0  0  0  0
  184.6000  177.7560  142.3380 N   0  0  0  0  0  0  0  0  0  0  0  0
  184.5770  178.1120  141.0250 C   0  0  0  0  0  0  0  0  0  0  0  0
  185.5490  177.8350  140.1160 N   0  0  0  0  0  0  0  0  0  0  0  0
  188.6430  175.5180  142.6730 C   0  0  0  0  0  0  0  0  0  0  0  0
  185.4950  177.0820  143.0950 C   0  0  0  0  0  3  0  0  0  0  0  0
  186.6920  176.5590  142.6590 C   0  0  0  0  0  0  0  0  0  0  0  0
  187.5740  175.8840  143.4740 C   0  0  0  0  0  3  0  0  0  0  0  0
  188.4720  175.9540  141.3700 C   0  0  0  0  0  3  0  0  0  0  0  0
  1 14  1  0  0  0  0
  2 17  1  1  0  0  0
  2  6  1  0  0  0  0
  3  7  1  0  0  0  0
  4  2  1  0  0  0  0
  4 15  1  0  0  0  0
  7 14  1  0  0  0  0
  7 11  1  0  0  0  0
  8  6  1  6  0  0  0
  8  9  1  0  0  0  0
  8  7  1  0  0  0  0
  9  1  1  1  0  0  0
 12 15  1  0  0  0  0
 13  4  2  0  0  0  0
 14 10  1  1  0  0  0
 15 16  1  0  0  0  0
 16  5  1  1  0  0  0
 16  9  1  0  0  0  0
 18 28  2  0  0  0  0
 18 26  1  0  0  0  0
 19 22  1  0  0  0  0
 20 18  1  0  0  0  0
 21 25  1  0  0  0  0
 22 21  2  0  0  0  0
 23 20  2  0  0  0  0
 23 22  1  0  0  0  0
 24 17  1  0  0  0  0
 24 27  2  0  0  0  0
 26 25  2  0  0  0  0
 26 27  1  0  0  0  0
 28 24  1  0  0  0  0
M  END
>  <MODEL>
9

>  <REMARK>
 VINA RESULT:      -7.0      3.226      8.034
  Name = 
  2 active torsions:
  status: ('A' for Active; 'I' for Inactive)
    1  A    between atoms: C_2  and  C_3
    2  A    between atoms: C_3  and  C_22
                            x       y       z     vdW  Elec       q    Type
                         _______ _______ _______ _____ _____    ______ ____

>  <TORSDO>
F 2

$$$$
