=
 OpenBabel11042417063D

 44 47  0  0  1  0  0  0  0  0999 V2000
  190.4640  175.7480  145.3030 C   0  0  2  0  0  3  0  0  0  0  0  0
  191.3150  175.6880  142.9510 C   0  0  0  0  0  3  0  0  0  0  0  0
  191.6970  173.4560  141.9000 C   0  0  2  0  0  3  0  0  0  0  0  0
  190.3810  173.0230  142.5490 C   0  0  0  0  0  2  0  0  0  0  0  0
  190.3070  175.1150  143.9190 C   0  0  1  0  0  3  0  0  0  0  0  0
  190.3250  173.5800  143.9660 C   0  0  0  0  0  2  0  0  0  0  0  0
  191.9090  174.9450  142.0030 C   0  0  0  0  0  3  0  0  0  0  0  0
  192.1590  173.8520  139.6140 N   0  0  0  0  0  0  0  0  0  0  0  0
  191.7330  173.0520  140.5040 N   0  0  0  0  0  0  0  0  0  0  0  0
  192.1900  173.4550  138.2720 N   0  0  0  0  0  2  0  0  0  0  0  0
  193.3760  173.6890  137.4650 C   0  0  0  0  0  2  0  0  0  0  0  0
  194.2100  174.8210  138.0530 C   0  0  0  0  0  2  0  0  0  0  0  0
  195.6360  174.3690  138.3420 C   0  0  1  0  0  3  0  0  0  0  0  0
  197.5230  175.3690  139.0440 C   0  0  0  0  0  2  0  0  0  0  0  0
  196.8960  174.8470  140.3080 C   0  0  2  0  0  3  0  0  0  0  0  0
  197.9410  174.1800  141.1970 C   0  0  0  0  0  1  0  0  0  0  0  0
  196.5240  175.4230  138.0580 O   0  0  0  0  0  0  0  0  0  0  0  0
  195.7860  173.9500  139.7970 C   0  0  2  0  0  3  0  0  0  0  0  0
  196.0940  172.4540  139.8410 C   0  0  0  0  0  2  0  0  0  0  0  0
  194.9410  171.7300  140.3470 N   0  0  0  0  0  1  0  0  0  0  0  0
  188.5970  174.9970  147.3400 O   0  0  0  0  0  0  0  0  0  0  0  0
  189.2650  176.4910  145.6710 N   0  0  0  0  0  2  0  0  0  0  0  0
  188.3790  176.0640  146.7060 C   0  0  0  0  0  0  0  0  0  0  0  0
  187.2010  176.9020  147.0520 C   0  0  0  0  0  2  0  0  0  0  0  0
  186.8060  177.7510  145.8580 C   0  0  0  0  0  2  0  0  0  0  0  0
  185.4150  177.3680  145.3800 C   0  0  2  0  0  3  0  0  0  0  0  0
  185.4200  177.2260  143.9330 C   0  0  0  0  0  0  0  0  0  0  0  0
  185.9010  176.2490  143.2980 O   0  0  0  0  0  0  0  0  0  0  0  0
  184.4650  178.5660  145.4990 C   0  0  0  0  0  2  0  0  0  0  0  0
  184.7440  178.3010  143.3290 N   0  0  0  0  0  0  0  0  0  0  0  0
  184.3810  179.2360  144.2480 O   0  0  0  0  0  0  0  0  0  0  0  0
  183.9660  178.1040  142.1160 C   0  0  0  0  0  2  0  0  0  0  0  0
  185.0370  178.2590  140.6570 S   0  0  0  0  0  1  0  0  0  0  0  0
  191.6880  176.6600  145.3560 C   0  0  0  0  0  2  0  0  0  0  0  0
  192.5670  176.3190  146.5470 C   0  0  0  0  0  2  0  0  0  0  0  0
  194.0160  176.1770  146.1090 C   0  0  0  0  0  2  0  0  0  0  0  0
  193.6570  173.7240  145.8800 C   0  0  0  0  0  3  0  0  0  0  0  0
  194.2010  174.9000  145.3520 C   0  0  0  0  0  0  0  0  0  0  0  0
  194.9970  173.6460  143.4310 C   0  0  0  0  0  3  0  0  0  0  0  0
  194.8770  174.8650  144.1140 C   0  0  0  0  0  0  0  0  0  0  0  0
  193.7860  172.5150  145.1920 C   0  0  0  0  0  3  0  0  0  0  0  0
  194.4560  172.4750  143.9680 C   0  0  0  0  0  3  0  0  0  0  0  0
  196.6520  176.4150  143.7460 O   0  0  0  0  0  0  0  0  0  0  0  0
  195.4530  176.0890  143.5350 C   0  0  0  0  0  3  0  0  0  0  0  0
  1 34  1  6  0  0  0
  1 22  1  0  0  0  0
  2  5  1  0  0  0  0
  3  9  1  6  0  0  0
  3  7  1  0  0  0  0
  3  4  1  0  0  0  0
  4  6  1  0  0  0  0
  5  6  1  0  0  0  0
  5  1  1  1  0  0  0
  7  2  2  0  0  0  0
  8  9  2  0  0  0  0
 10  8  1  0  0  0  0
 11 12  1  0  0  0  0
 11 10  1  0  0  0  0
 13 12  1  1  0  0  0
 13 18  1  0  0  0  0
 14 15  1  0  0  0  0
 15 16  1  6  0  0  0
 17 13  1  0  0  0  0
 17 14  1  0  0  0  0
 18 19  1  6  0  0  0
 18 15  1  0  0  0  0
 19 20  1  0  0  0  0
 22 23  1  0  0  0  0
 23 24  1  0  0  0  0
 23 21  2  0  0  0  0
 25 24  1  0  0  0  0
 26 29  1  0  0  0  0
 26 25  1  6  0  0  0
 27 26  1  0  0  0  0
 28 27  2  0  0  0  0
 30 27  1  0  0  0  0
 30 31  1  0  0  0  0
 31 29  1  0  0  0  0
 32 30  1  0  0  0  0
 33 32  1  0  0  0  0
 34 35  1  0  0  0  0
 36 35  1  0  0  0  0
 38 37  1  0  0  0  0
 38 36  1  0  0  0  0
 39 42  2  0  0  0  0
 39 40  1  0  0  0  0
 40 38  2  0  0  0  0
 41 37  2  0  0  0  0
 42 41  1  0  0  0  0
 44 43  2  0  0  0  0
 44 40  1  0  0  0  0
M  END
>  <MODEL>
1

>  <REMARK>
 VINA RESULT:      -6.1      0.000      0.000
  Name = 
  17 active torsions:
  status: ('A' for Active; 'I' for Inactive)
    1  A    between atoms: C_1  and  C_20
    2  A    between atoms: C_2  and  C_11
    3  A    between atoms: C_3  and  C_20
    4  A    between atoms: C_3  and  N_24
    5  A    between atoms: N_7  and  N_24
    6  A    between atoms: C_9  and  N_29
    7  A    between atoms: C_10  and  N_15
    8  A    between atoms: C_10  and  C_37
    9  A    between atoms: C_10  and  C_39
   10  A    between atoms: C_11  and  C_31
   11  A    between atoms: C_18  and  N_34
   12  A    between atoms: C_19  and  C_36
   13  A    between atoms: C_23  and  C_33
   14  A    between atoms: C_30  and  C_35
   15  A    between atoms: C_31  and  C_44
   16  A    between atoms: C_32  and  C_33
   17  A    between atoms: C_32  and  C_37
                            x       y       z     vdW  Elec       q    Type
                         _______ _______ _______ _____ _____    ______ ____

>  <TORSDO>
F 17

$$$$
=
 OpenBabel11042417063D

 44 47  0  0  1  0  0  0  0  0999 V2000
  191.1000  175.0750  145.4390 C   0  0  2  0  0  3  0  0  0  0  0  0
  192.2810  173.7020  143.7120 C   0  0  0  0  0  3  0  0  0  0  0  0
  191.7030  171.2780  143.5480 C   0  0  2  0  0  3  0  0  0  0  0  0
  190.2450  171.7040  143.7310 C   0  0  0  0  0  2  0  0  0  0  0  0
  190.9430  174.0290  144.3330 C   0  0  1  0  0  3  0  0  0  0  0  0
  190.1780  172.7830  144.8040 C   0  0  0  0  0  2  0  0  0  0  0  0
  192.6070  172.4630  143.3120 C   0  0  0  0  0  3  0  0  0  0  0  0
  190.7900  169.8400  141.9070 N   0  0  0  0  0  0  0  0  0  0  0  0
  191.8270  170.3410  142.4440 N   0  0  0  0  0  0  0  0  0  0  0  0
  190.9180  168.9370  140.8460 N   0  0  0  0  0  2  0  0  0  0  0  0
  190.4310  169.2860  139.5210 C   0  0  0  0  0  2  0  0  0  0  0  0
  191.3400  170.3240  138.8740 C   0  0  0  0  0  2  0  0  0  0  0  0
  190.6400  171.6710  138.7420 C   0  0  1  0  0  3  0  0  0  0  0  0
  188.6370  172.5010  139.3350 C   0  0  0  0  0  2  0  0  0  0  0  0
  189.5370  172.8640  140.4860 C   0  0  2  0  0  3  0  0  0  0  0  0
  189.3020  174.3070  140.9250 C   0  0  0  0  0  1  0  0  0  0  0  0
  189.2530  171.4640  138.6170 O   0  0  0  0  0  0  0  0  0  0  0  0
  190.9210  172.5480  139.9530 C   0  0  2  0  0  3  0  0  0  0  0  0
  191.7300  173.7610  139.4970 C   0  0  0  0  0  2  0  0  0  0  0  0
  191.7810  173.8000  138.0470 N   0  0  0  0  0  1  0  0  0  0  0  0
  189.2050  174.6510  147.5430 O   0  0  0  0  0  0  0  0  0  0  0  0
  189.8610  175.8190  145.6260 N   0  0  0  0  0  2  0  0  0  0  0  0
  188.9610  175.5620  146.7050 C   0  0  0  0  0  0  0  0  0  0  0  0
  187.7390  176.3960  146.8540 C   0  0  0  0  0  2  0  0  0  0  0  0
  187.4260  177.0860  145.5390 C   0  0  0  0  0  2  0  0  0  0  0  0
  185.9800  176.8350  145.1480 C   0  0  2  0  0  3  0  0  0  0  0  0
  185.8630  176.8230  143.6980 C   0  0  0  0  0  0  0  0  0  0  0  0
  186.2260  175.8780  142.9460 O   0  0  0  0  0  0  0  0  0  0  0  0
  185.1270  178.0740  145.4450 C   0  0  0  0  0  2  0  0  0  0  0  0
  185.2190  177.9880  143.2450 N   0  0  0  0  0  0  0  0  0  0  0  0
  184.9930  178.8570  144.2660 O   0  0  0  0  0  0  0  0  0  0  0  0
  184.3380  177.9490  142.0880 C   0  0  0  0  0  2  0  0  0  0  0  0
  185.2930  178.2340  140.5690 S   0  0  0  0  0  1  0  0  0  0  0  0
  192.2500  176.0330  145.1320 C   0  0  0  0  0  2  0  0  0  0  0  0
  193.2030  176.1290  146.3100 C   0  0  0  0  0  2  0  0  0  0  0  0
  194.6140  176.4180  145.8230 C   0  0  0  0  0  2  0  0  0  0  0  0
  195.1140  173.9850  145.9940 C   0  0  0  0  0  3  0  0  0  0  0  0
  195.2300  175.1740  145.2650 C   0  0  0  0  0  0  0  0  0  0  0  0
  196.4210  173.9690  143.5260 C   0  0  0  0  0  3  0  0  0  0  0  0
  195.8860  175.1690  144.0160 C   0  0  0  0  0  0  0  0  0  0  0  0
  195.6530  172.7960  145.4960 C   0  0  0  0  0  3  0  0  0  0  0  0
  196.3070  172.7880  144.2620 C   0  0  0  0  0  3  0  0  0  0  0  0
  197.0250  177.1510  143.3360 O   0  0  0  0  0  0  0  0  0  0  0  0
  196.0170  176.4050  143.2280 C   0  0  0  0  0  3  0  0  0  0  0  0
  1 34  1  6  0  0  0
  1 22  1  0  0  0  0
  2  5  1  0  0  0  0
  3  9  1  6  0  0  0
  3  4  1  0  0  0  0
  4  6  1  0  0  0  0
  5  6  1  0  0  0  0
  5  1  1  1  0  0  0
  7  3  1  0  0  0  0
  7  2  2  0  0  0  0
  8  9  2  0  0  0  0
 10  8  1  0  0  0  0
 11 10  1  0  0  0  0
 12 11  1  0  0  0  0
 13 12  1  1  0  0  0
 13 18  1  0  0  0  0
 14 15  1  0  0  0  0
 15 16  1  6  0  0  0
 17 13  1  0  0  0  0
 17 14  1  0  0  0  0
 18 19  1  6  0  0  0
 18 15  1  0  0  0  0
 20 19  1  0  0  0  0
 22 23  1  0  0  0  0
 23 24  1  0  0  0  0
 23 21  2  0  0  0  0
 25 24  1  0  0  0  0
 26 29  1  0  0  0  0
 26 25  1  6  0  0  0
 27 26  1  0  0  0  0
 28 27  2  0  0  0  0
 30 27  1  0  0  0  0
 30 31  1  0  0  0  0
 31 29  1  0  0  0  0
 32 30  1  0  0  0  0
 33 32  1  0  0  0  0
 34 35  1  0  0  0  0
 36 35  1  0  0  0  0
 38 36  1  0  0  0  0
 38 37  2  0  0  0  0
 39 40  2  0  0  0  0
 39 42  1  0  0  0  0
 40 38  1  0  0  0  0
 41 37  1  0  0  0  0
 42 41  2  0  0  0  0
 44 43  2  0  0  0  0
 44 40  1  0  0  0  0
M  END
>  <MODEL>
2

>  <REMARK>
 VINA RESULT:      -6.0      2.285      3.580
  Name = 
  17 active torsions:
  status: ('A' for Active; 'I' for Inactive)
    1  A    between atoms: C_1  and  C_20
    2  A    between atoms: C_2  and  C_11
    3  A    between atoms: C_3  and  C_20
    4  A    between atoms: C_3  and  N_24
    5  A    between atoms: N_7  and  N_24
    6  A    between atoms: C_9  and  N_29
    7  A    between atoms: C_10  and  N_15
    8  A    between atoms: C_10  and  C_37
    9  A    between atoms: C_10  and  C_39
   10  A    between atoms: C_11  and  C_31
   11  A    between atoms: C_18  and  N_34
   12  A    between atoms: C_19  and  C_36
   13  A    between atoms: C_23  and  C_33
   14  A    between atoms: C_30  and  C_35
   15  A    between atoms: C_31  and  C_44
   16  A    between atoms: C_32  and  C_33
   17  A    between atoms: C_32  and  C_37
                            x       y       z     vdW  Elec       q    Type
                         _______ _______ _______ _____ _____    ______ ____

>  <TORSDO>
F 17

$$$$
=
 OpenBabel11042417063D

 44 47  0  0  1  0  0  0  0  0999 V2000
  191.7300  175.1700  145.3540 C   0  0  2  0  0  3  0  0  0  0  0  0
  192.2560  175.2750  142.9110 C   0  0  0  0  0  3  0  0  0  0  0  0
  193.9550  173.6840  142.0090 C   0  0  2  0  0  3  0  0  0  0  0  0
  193.3010  172.6220  142.8950 C   0  0  0  0  0  2  0  0  0  0  0  0
  191.9460  174.3620  144.0730 C   0  0  1  0  0  3  0  0  0  0  0  0
  192.9800  173.2410  144.2490 C   0  0  0  0  0  2  0  0  0  0  0  0
  193.1320  174.9460  141.9480 C   0  0  0  0  0  3  0  0  0  0  0  0
  193.7670  172.0030  140.3540 N   0  0  0  0  0  0  0  0  0  0  0  0
  194.1630  173.1700  140.6650 N   0  0  0  0  0  0  0  0  0  0  0  0
  193.9720  171.5150  139.0590 N   0  0  0  0  0  2  0  0  0  0  0  0
  192.8620  171.4200  138.1260 C   0  0  0  0  0  2  0  0  0  0  0  0
  191.9220  170.2880  138.5270 C   0  0  0  0  0  2  0  0  0  0  0  0
  190.6590  170.8230  139.1900 C   0  0  1  0  0  3  0  0  0  0  0  0
  190.1550  171.7160  141.1910 C   0  0  0  0  0  2  0  0  0  0  0  0
  190.4360  172.9100  140.3200 C   0  0  2  0  0  3  0  0  0  0  0  0
  189.3860  173.9970  140.5360 C   0  0  0  0  0  1  0  0  0  0  0  0
  190.7280  170.5910  140.5770 O   0  0  0  0  0  0  0  0  0  0  0  0
  190.5000  172.3140  138.9280 C   0  0  2  0  0  3  0  0  0  0  0  0
  189.2490  172.5250  138.0770 C   0  0  0  0  0  2  0  0  0  0  0  0
  189.5110  172.1160  136.7080 N   0  0  0  0  0  1  0  0  0  0  0  0
  190.5780  175.1390  147.9760 O   0  0  0  0  0  0  0  0  0  0  0  0
  190.3090  175.2880  145.6580 N   0  0  0  0  0  2  0  0  0  0  0  0
  189.8010  175.2730  146.9930 C   0  0  0  0  0  0  0  0  0  0  0  0
  188.3420  175.4450  147.2230 C   0  0  0  0  0  2  0  0  0  0  0  0
  187.9080  176.8220  146.7530 C   0  0  0  0  0  2  0  0  0  0  0  0
  186.8490  176.6950  145.6700 C   0  0  2  0  0  3  0  0  0  0  0  0
  186.9470  177.8250  144.7590 C   0  0  0  0  0  0  0  0  0  0  0  0
  187.8300  177.9710  143.8720 O   0  0  0  0  0  0  0  0  0  0  0  0
  185.4590  176.9780  146.2520 C   0  0  0  0  0  2  0  0  0  0  0  0
  185.8720  178.7100  144.9540 N   0  0  0  0  0  0  0  0  0  0  0  0
  185.1070  178.3350  146.0140 O   0  0  0  0  0  0  0  0  0  0  0  0
  185.2910  179.4320  143.8320 C   0  0  0  0  0  2  0  0  0  0  0  0
  184.3750  178.2860  142.7620 S   0  0  0  0  0  1  0  0  0  0  0  0
  192.3630  176.5550  145.2460 C   0  0  0  0  0  2  0  0  0  0  0  0
  193.6540  176.6250  146.0440 C   0  0  0  0  0  2  0  0  0  0  0  0
  194.8220  176.9570  145.1290 C   0  0  0  0  0  2  0  0  0  0  0  0
  195.6020  174.7160  145.8820 C   0  0  0  0  0  3  0  0  0  0  0  0
  195.6890  175.7520  144.9450 C   0  0  0  0  0  0  0  0  0  0  0  0
  197.3270  174.4620  143.7010 C   0  0  0  0  0  3  0  0  0  0  0  0
  196.5570  175.6260  143.8400 C   0  0  0  0  0  0  0  0  0  0  0  0
  196.3750  173.5620  145.7340 C   0  0  0  0  0  3  0  0  0  0  0  0
  197.2390  173.4350  144.6440 C   0  0  0  0  0  3  0  0  0  0  0  0
  196.2320  176.5470  141.6650 O   0  0  0  0  0  0  0  0  0  0  0  0
  196.6630  176.6990  142.8390 C   0  0  0  0  0  3  0  0  0  0  0  0
  1 34  1  6  0  0  0
  1 22  1  0  0  0  0
  2  5  1  0  0  0  0
  3  9  1  6  0  0  0
  3  4  1  0  0  0  0
  4  6  1  0  0  0  0
  5  6  1  0  0  0  0
  5  1  1  1  0  0  0
  7  3  1  0  0  0  0
  7  2  2  0  0  0  0
  8  9  2  0  0  0  0
 10  8  1  0  0  0  0
 11 12  1  0  0  0  0
 11 10  1  0  0  0  0
 13 12  1  6  0  0  0
 13 17  1  0  0  0  0
 15 16  1  6  0  0  0
 15 14  1  0  0  0  0
 17 14  1  0  0  0  0
 18 19  1  6  0  0  0
 18 13  1  0  0  0  0
 18 15  1  0  0  0  0
 20 19  1  0  0  0  0
 22 23  1  0  0  0  0
 23 24  1  0  0  0  0
 23 21  2  0  0  0  0
 25 24  1  0  0  0  0
 26 29  1  0  0  0  0
 26 25  1  1  0  0  0
 27 30  1  0  0  0  0
 27 26  1  0  0  0  0
 28 27  2  0  0  0  0
 30 31  1  0  0  0  0
 31 29  1  0  0  0  0
 32 30  1  0  0  0  0
 33 32  1  0  0  0  0
 34 35  1  0  0  0  0
 36 35  1  0  0  0  0
 38 36  1  0  0  0  0
 38 37  2  0  0  0  0
 39 40  2  0  0  0  0
 39 42  1  0  0  0  0
 40 38  1  0  0  0  0
 41 37  1  0  0  0  0
 42 41  2  0  0  0  0
 43 44  2  0  0  0  0
 44 40  1  0  0  0  0
M  END
>  <MODEL>
3

>  <REMARK>
 VINA RESULT:      -5.9      2.387      3.682
  Name = 
  17 active torsions:
  status: ('A' for Active; 'I' for Inactive)
    1  A    between atoms: C_1  and  C_20
    2  A    between atoms: C_2  and  C_11
    3  A    between atoms: C_3  and  C_20
    4  A    between atoms: C_3  and  N_24
    5  A    between atoms: N_7  and  N_24
    6  A    between atoms: C_9  and  N_29
    7  A    between atoms: C_10  and  N_15
    8  A    between atoms: C_10  and  C_37
    9  A    between atoms: C_10  and  C_39
   10  A    between atoms: C_11  and  C_31
   11  A    between atoms: C_18  and  N_34
   12  A    between atoms: C_19  and  C_36
   13  A    between atoms: C_23  and  C_33
   14  A    between atoms: C_30  and  C_35
   15  A    between atoms: C_31  and  C_44
   16  A    between atoms: C_32  and  C_33
   17  A    between atoms: C_32  and  C_37
                            x       y       z     vdW  Elec       q    Type
                         _______ _______ _______ _____ _____    ______ ____

>  <TORSDO>
F 17

$$$$
=
 OpenBabel11042417063D

 44 47  0  0  1  0  0  0  0  0999 V2000
  191.1440  174.4250  145.7200 C   0  0  2  0  0  3  0  0  0  0  0  0
  190.1240  172.6520  144.2790 C   0  0  0  0  0  3  0  0  0  0  0  0
  188.9940  173.3640  142.1700 C   0  0  2  0  0  3  0  0  0  0  0  0
  190.1640  174.3300  141.9730 C   0  0  0  0  0  2  0  0  0  0  0  0
  190.9850  173.8930  144.2940 C   0  0  1  0  0  3  0  0  0  0  0  0
  190.5030  174.9710  143.3120 C   0  0  0  0  0  2  0  0  0  0  0  0
  189.2550  172.3890  143.2900 C   0  0  0  0  0  3  0  0  0  0  0  0
  188.9830  173.1590  139.8130 N   0  0  0  0  0  0  0  0  0  0  0  0
  188.7200  172.6370  140.9410 N   0  0  0  0  0  0  0  0  0  0  0  0
  188.7140  172.4530  138.6350 N   0  0  0  0  0  2  0  0  0  0  0  0
  189.7520  172.2780  137.6320 C   0  0  0  0  0  2  0  0  0  0  0  0
  190.4040  170.9070  137.7710 C   0  0  0  0  0  2  0  0  0  0  0  0
  191.7520  171.0010  138.4750 C   0  0  1  0  0  3  0  0  0  0  0  0
  192.8250  172.5690  139.6770 C   0  0  0  0  0  2  0  0  0  0  0  0
  192.1250  171.7320  140.7130 C   0  0  2  0  0  3  0  0  0  0  0  0
  193.0550  171.4280  141.8840 C   0  0  0  0  0  1  0  0  0  0  0  0
  192.2020  172.3350  138.4410 O   0  0  0  0  0  0  0  0  0  0  0  0
  191.6410  170.5350  139.9190 C   0  0  2  0  0  3  0  0  0  0  0  0
  192.4800  169.2680  140.0850 C   0  0  0  0  0  2  0  0  0  0  0  0
  191.6330  168.1710  140.5180 N   0  0  0  0  0  1  0  0  0  0  0  0
  188.7610  174.8340  147.2550 O   0  0  0  0  0  0  0  0  0  0  0  0
  190.4440  175.6950  145.8790 N   0  0  0  0  0  2  0  0  0  0  0  0
  189.2620  175.8310  146.6690 C   0  0  0  0  0  0  0  0  0  0  0  0
  188.6330  177.1700  146.8190 C   0  0  0  0  0  2  0  0  0  0  0  0
  187.2490  177.1600  146.1950 C   0  0  0  0  0  2  0  0  0  0  0  0
  187.3050  177.7310  144.7880 C   0  0  2  0  0  3  0  0  0  0  0  0
  186.0740  178.4520  144.5060 C   0  0  0  0  0  0  0  0  0  0  0  0
  185.7800  179.5930  144.9520 O   0  0  0  0  0  0  0  0  0  0  0  0
  187.1660  176.6070  143.7540 C   0  0  0  0  0  2  0  0  0  0  0  0
  185.2760  177.7290  143.6010 N   0  0  0  0  0  0  0  0  0  0  0  0
  185.8110  176.5080  143.3350 O   0  0  0  0  0  0  0  0  0  0  0  0
  184.4600  178.4190  142.6140 C   0  0  0  0  0  2  0  0  0  0  0  0
  185.1000  178.0980  140.9450 S   0  0  0  0  0  1  0  0  0  0  0  0
  192.6170  174.5840  146.0880 C   0  0  0  0  0  2  0  0  0  0  0  0
  192.9950  176.0520  146.1880 C   0  0  0  0  0  2  0  0  0  0  0  0
  194.4450  176.2520  145.7750 C   0  0  0  0  0  2  0  0  0  0  0  0
  193.9490  176.0800  143.3410 C   0  0  0  0  0  3  0  0  0  0  0  0
  194.6890  175.6250  144.4380 C   0  0  0  0  0  0  0  0  0  0  0  0
  195.8720  174.0880  142.9780 C   0  0  0  0  0  3  0  0  0  0  0  0
  195.6640  174.6210  144.2590 C   0  0  0  0  0  0  0  0  0  0  0  0
  194.1640  175.5390  142.0710 C   0  0  0  0  0  3  0  0  0  0  0  0
  195.1250  174.5430  141.8890 C   0  0  0  0  0  3  0  0  0  0  0  0
  197.7170  174.0890  145.3490 O   0  0  0  0  0  0  0  0  0  0  0  0
  196.4580  174.1300  145.3950 C   0  0  0  0  0  3  0  0  0  0  0  0
  1 22  1  0  0  0  0
  1 34  1  6  0  0  0
  2  5  1  0  0  0  0
  3  9  1  6  0  0  0
  3  7  1  0  0  0  0
  4  3  1  0  0  0  0
  4  6  1  0  0  0  0
  5  1  1  1  0  0  0
  6  5  1  0  0  0  0
  7  2  2  0  0  0  0
  8  9  2  0  0  0  0
 10  8  1  0  0  0  0
 11 12  1  0  0  0  0
 11 10  1  0  0  0  0
 13 12  1  1  0  0  0
 13 18  1  0  0  0  0
 14 15  1  0  0  0  0
 15 16  1  1  0  0  0
 17 13  1  0  0  0  0
 17 14  1  0  0  0  0
 18 19  1  6  0  0  0
 18 15  1  0  0  0  0
 19 20  1  0  0  0  0
 22 23  1  0  0  0  0
 23 24  1  0  0  0  0
 23 21  2  0  0  0  0
 25 24  1  0  0  0  0
 26 25  1  1  0  0  0
 27 26  1  0  0  0  0
 27 28  2  0  0  0  0
 29 26  1  0  0  0  0
 30 27  1  0  0  0  0
 31 30  1  0  0  0  0
 31 29  1  0  0  0  0
 32 30  1  0  0  0  0
 33 32  1  0  0  0  0
 34 35  1  0  0  0  0
 36 35  1  0  0  0  0
 37 38  1  0  0  0  0
 38 36  1  0  0  0  0
 39 40  1  0  0  0  0
 40 38  2  0  0  0  0
 40 44  1  0  0  0  0
 41 37  2  0  0  0  0
 42 41  1  0  0  0  0
 42 39  2  0  0  0  0
 43 44  2  0  0  0  0
M  END
>  <MODEL>
4

>  <REMARK>
 VINA RESULT:      -5.8      2.294      3.258
  Name = 
  17 active torsions:
  status: ('A' for Active; 'I' for Inactive)
    1  A    between atoms: C_1  and  C_20
    2  A    between atoms: C_2  and  C_11
    3  A    between atoms: C_3  and  C_20
    4  A    between atoms: C_3  and  N_24
    5  A    between atoms: N_7  and  N_24
    6  A    between atoms: C_9  and  N_29
    7  A    between atoms: C_10  and  N_15
    8  A    between atoms: C_10  and  C_37
    9  A    between atoms: C_10  and  C_39
   10  A    between atoms: C_11  and  C_31
   11  A    between atoms: C_18  and  N_34
   12  A    between atoms: C_19  and  C_36
   13  A    between atoms: C_23  and  C_33
   14  A    between atoms: C_30  and  C_35
   15  A    between atoms: C_31  and  C_44
   16  A    between atoms: C_32  and  C_33
   17  A    between atoms: C_32  and  C_37
                            x       y       z     vdW  Elec       q    Type
                         _______ _______ _______ _____ _____    ______ ____

>  <TORSDO>
F 17

$$$$
=
 OpenBabel11042417063D

 44 47  0  0  1  0  0  0  0  0999 V2000
  195.0860  176.0930  144.9180 C   0  0  2  0  0  3  0  0  0  0  0  0
  193.4390  176.1920  143.0380 C   0  0  0  0  0  3  0  0  0  0  0  0
  191.0150  175.9560  143.5900 C   0  0  2  0  0  3  0  0  0  0  0  0
  191.2910  176.8640  144.7900 C   0  0  0  0  0  2  0  0  0  0  0  0
  193.7590  176.6790  144.4310 C   0  0  1  0  0  3  0  0  0  0  0  0
  192.6120  176.4510  145.4260 C   0  0  0  0  0  2  0  0  0  0  0  0
  192.1870  175.9100  142.6420 C   0  0  0  0  0  3  0  0  0  0  0  0
  189.6910  177.6160  142.5490 N   0  0  0  0  0  0  0  0  0  0  0  0
  189.8270  176.3970  142.8790 N   0  0  0  0  0  0  0  0  0  0  0  0
  188.5420  178.0330  141.8670 N   0  0  0  0  0  2  0  0  0  0  0  0
  187.5250  177.0680  141.4840 C   0  0  0  0  0  2  0  0  0  0  0  0
  186.1930  177.4040  142.1440 C   0  0  0  0  0  2  0  0  0  0  0  0
  186.3790  178.3580  143.3180 C   0  0  1  0  0  3  0  0  0  0  0  0
  185.0370  179.7060  144.5160 C   0  0  0  0  0  2  0  0  0  0  0  0
  185.0620  178.4240  145.3040 C   0  0  2  0  0  3  0  0  0  0  0  0
  185.2370  178.7060  146.7930 C   0  0  0  0  0  1  0  0  0  0  0  0
  185.4570  179.4160  143.2080 O   0  0  0  0  0  0  0  0  0  0  0  0
  186.1730  177.6340  144.6410 C   0  0  2  0  0  3  0  0  0  0  0  0
  187.4990  177.6240  145.4000 C   0  0  0  0  0  2  0  0  0  0  0  0
  187.8020  176.2740  145.8410 N   0  0  0  0  0  1  0  0  0  0  0  0
  197.1910  177.4370  143.5170 O   0  0  0  0  0  0  0  0  0  0  0  0
  195.8490  175.5440  143.8030 N   0  0  0  0  0  2  0  0  0  0  0  0
  196.8950  176.2670  143.1530 C   0  0  0  0  0  0  0  0  0  0  0  0
  197.6580  175.6200  142.0530 C   0  0  0  0  0  2  0  0  0  0  0  0
  196.7270  174.7510  141.2260 C   0  0  0  0  0  2  0  0  0  0  0  0
  197.3450  174.4690  139.8660 C   0  0  2  0  0  3  0  0  0  0  0  0
  196.2910  174.3360  138.8720 C   0  0  0  0  0  0  0  0  0  0  0  0
  195.6380  175.2910  138.3720 O   0  0  0  0  0  0  0  0  0  0  0  0
  197.8970  173.0390  139.8210 C   0  0  0  0  0  2  0  0  0  0  0  0
  196.1460  172.9930  138.4840 N   0  0  0  0  0  0  0  0  0  0  0  0
  196.9370  172.1740  139.2270 O   0  0  0  0  0  0  0  0  0  0  0  0
  195.7900  172.6480  137.1160 C   0  0  0  0  0  2  0  0  0  0  0  0
  195.0170  171.0050  137.0700 S   0  0  0  0  0  1  0  0  0  0  0  0
  194.8580  175.0200  145.9810 C   0  0  0  0  0  2  0  0  0  0  0  0
  195.0010  173.6300  145.3860 C   0  0  0  0  0  2  0  0  0  0  0  0
  193.6550  172.9230  145.3700 C   0  0  0  0  0  2  0  0  0  0  0  0
  194.2260  172.5670  142.9730 C   0  0  0  0  0  3  0  0  0  0  0  0
  193.2380  172.6450  143.9610 C   0  0  0  0  0  0  0  0  0  0  0  0
  191.5530  172.1420  142.2860 C   0  0  0  0  0  3  0  0  0  0  0  0
  191.8860  172.4280  143.6180 C   0  0  0  0  0  0  0  0  0  0  0  0
  193.8820  172.2840  141.6500 C   0  0  0  0  0  3  0  0  0  0  0  0
  192.5450  172.0720  141.3050 C   0  0  0  0  0  3  0  0  0  0  0  0
  189.7180  171.9280  144.4760 O   0  0  0  0  0  0  0  0  0  0  0  0
  190.8290  172.5000  144.6390 C   0  0  0  0  0  3  0  0  0  0  0  0
  1 34  1  1  0  0  0
  2  5  1  0  0  0  0
  3  9  1  6  0  0  0
  3  4  1  0  0  0  0
  4  6  1  0  0  0  0
  5  1  1  1  0  0  0
  5  6  1  0  0  0  0
  7  2  2  0  0  0  0
  7  3  1  0  0  0  0
  8  9  2  0  0  0  0
 10  8  1  0  0  0  0
 11 10  1  0  0  0  0
 11 12  1  0  0  0  0
 13 12  1  6  0  0  0
 13 18  1  0  0  0  0
 14 15  1  0  0  0  0
 15 16  1  1  0  0  0
 17 13  1  0  0  0  0
 17 14  1  0  0  0  0
 18 15  1  0  0  0  0
 18 19  1  1  0  0  0
 19 20  1  0  0  0  0
 22  1  1  0  0  0  0
 23 21  2  0  0  0  0
 23 22  1  0  0  0  0
 24 23  1  0  0  0  0
 25 24  1  0  0  0  0
 26 25  1  1  0  0  0
 27 26  1  0  0  0  0
 28 27  2  0  0  0  0
 29 26  1  0  0  0  0
 30 27  1  0  0  0  0
 30 31  1  0  0  0  0
 31 29  1  0  0  0  0
 32 30  1  0  0  0  0
 33 32  1  0  0  0  0
 35 34  1  0  0  0  0
 36 35  1  0  0  0  0
 37 38  1  0  0  0  0
 38 36  1  0  0  0  0
 39 40  1  0  0  0  0
 40 38  2  0  0  0  0
 40 44  1  0  0  0  0
 41 37  2  0  0  0  0
 42 41  1  0  0  0  0
 42 39  2  0  0  0  0
 43 44  2  0  0  0  0
M  END
>  <MODEL>
5

>  <REMARK>
 VINA RESULT:      -5.7      2.804      9.247
  Name = 
  17 active torsions:
  status: ('A' for Active; 'I' for Inactive)
    1  A    between atoms: C_1  and  C_20
    2  A    between atoms: C_2  and  C_11
    3  A    between atoms: C_3  and  C_20
    4  A    between atoms: C_3  and  N_24
    5  A    between atoms: N_7  and  N_24
    6  A    between atoms: C_9  and  N_29
    7  A    between atoms: C_10  and  N_15
    8  A    between atoms: C_10  and  C_37
    9  A    between atoms: C_10  and  C_39
   10  A    between atoms: C_11  and  C_31
   11  A    between atoms: C_18  and  N_34
   12  A    between atoms: C_19  and  C_36
   13  A    between atoms: C_23  and  C_33
   14  A    between atoms: C_30  and  C_35
   15  A    between atoms: C_31  and  C_44
   16  A    between atoms: C_32  and  C_33
   17  A    between atoms: C_32  and  C_37
                            x       y       z     vdW  Elec       q    Type
                         _______ _______ _______ _____ _____    ______ ____

>  <TORSDO>
F 17

$$$$
=
 OpenBabel11042417063D

 44 47  0  0  1  0  0  0  0  0999 V2000
  190.0260  175.7780  143.8510 C   0  0  2  0  0  3  0  0  0  0  0  0
  192.4870  175.4010  143.6110 C   0  0  0  0  0  3  0  0  0  0  0  0
  193.8980  175.5300  145.6670 C   0  0  2  0  0  3  0  0  0  0  0  0
  192.7840  174.7560  146.3730 C   0  0  0  0  0  2  0  0  0  0  0  0
  191.2550  175.0660  144.4180 C   0  0  1  0  0  3  0  0  0  0  0  0
  191.4380  175.3100  145.9230 C   0  0  0  0  0  2  0  0  0  0  0  0
  193.6950  175.5650  144.1720 C   0  0  0  0  0  3  0  0  0  0  0  0
  196.0140  174.6790  145.0400 N   0  0  0  0  0  0  0  0  0  0  0  0
  195.1950  174.9500  145.9720 N   0  0  0  0  0  0  0  0  0  0  0  0
  197.2600  174.1180  145.3430 N   0  0  0  0  0  2  0  0  0  0  0  0
  197.5400  172.7310  145.0110 C   0  0  0  0  0  2  0  0  0  0  0  0
  196.7960  171.7940  145.9560 C   0  0  0  0  0  2  0  0  0  0  0  0
  195.6390  171.0980  145.2510 C   0  0  1  0  0  3  0  0  0  0  0  0
  193.5270  171.6500  144.7100 C   0  0  0  0  0  2  0  0  0  0  0  0
  194.3210  171.9970  143.4790 C   0  0  2  0  0  3  0  0  0  0  0  0
  193.6050  171.5190  142.2190 C   0  0  0  0  0  1  0  0  0  0  0  0
  194.4220  171.5600  145.7880 O   0  0  0  0  0  0  0  0  0  0  0  0
  195.6740  171.3700  143.7540 C   0  0  2  0  0  3  0  0  0  0  0  0
  195.9350  170.0520  143.0270 C   0  0  0  0  0  2  0  0  0  0  0  0
  195.8500  168.9480  143.9670 N   0  0  0  0  0  1  0  0  0  0  0  0
  187.4460  175.0660  142.8310 O   0  0  0  0  0  0  0  0  0  0  0  0
  189.7460  175.3260  142.4940 N   0  0  0  0  0  2  0  0  0  0  0  0
  188.4300  174.9940  142.0460 C   0  0  0  0  0  0  0  0  0  0  0  0
  188.2200  174.5840  140.6330 C   0  0  0  0  0  2  0  0  0  0  0  0
  188.4750  173.0940  140.4870 C   0  0  0  0  0  2  0  0  0  0  0  0
  188.2910  172.6710  139.0390 C   0  0  2  0  0  3  0  0  0  0  0  0
  189.4830  171.9740  138.5810 C   0  0  0  0  0  0  0  0  0  0  0  0
  189.7950  170.7910  138.8810 O   0  0  0  0  0  0  0  0  0  0  0  0
  188.3610  173.8950  138.1160 C   0  0  0  0  0  2  0  0  0  0  0  0
  190.2130  172.7800  137.6890 N   0  0  0  0  0  0  0  0  0  0  0  0
  189.6770  174.0260  137.5940 O   0  0  0  0  0  0  0  0  0  0  0  0
  190.9310  172.1880  136.5700 C   0  0  0  0  0  2  0  0  0  0  0  0
  189.7580  171.6520  135.2920 S   0  0  0  0  0  1  0  0  0  0  0  0
  190.2070  177.2940  143.8750 C   0  0  0  0  0  2  0  0  0  0  0  0
  189.4290  177.9150  145.0230 C   0  0  0  0  0  2  0  0  0  0  0  0
  188.1730  177.1060  145.3060 C   0  0  0  0  0  2  0  0  0  0  0  0
  186.7020  178.2830  143.6770 C   0  0  0  0  0  3  0  0  0  0  0  0
  186.9570  177.9230  145.0060 C   0  0  0  0  0  0  0  0  0  0  0  0
  184.9130  179.0480  145.6810 C   0  0  0  0  0  3  0  0  0  0  0  0
  186.0530  178.3060  146.0210 C   0  0  0  0  0  0  0  0  0  0  0  0
  185.5640  179.0240  143.3520 C   0  0  0  0  0  3  0  0  0  0  0  0
  184.6690  179.4070  144.3530 C   0  0  0  0  0  3  0  0  0  0  0  0
  185.9920  176.7960  147.8660 O   0  0  0  0  0  0  0  0  0  0  0  0
  186.2960  177.9360  147.4240 C   0  0  0  0  0  3  0  0  0  0  0  0
  1 34  1  6  0  0  0
  2  7  2  0  0  0  0
  2  5  1  0  0  0  0
  3  9  1  6  0  0  0
  3  4  1  0  0  0  0
  5  1  1  6  0  0  0
  5  6  1  0  0  0  0
  6  4  1  0  0  0  0
  7  3  1  0  0  0  0
  8 10  1  0  0  0  0
  8  9  2  0  0  0  0
 11 10  1  0  0  0  0
 11 12  1  0  0  0  0
 13 17  1  0  0  0  0
 13 12  1  1  0  0  0
 14 17  1  0  0  0  0
 15 16  1  6  0  0  0
 15 18  1  0  0  0  0
 15 14  1  0  0  0  0
 18 19  1  6  0  0  0
 18 13  1  0  0  0  0
 19 20  1  0  0  0  0
 22  1  1  0  0  0  0
 23 22  1  0  0  0  0
 23 21  2  0  0  0  0
 24 23  1  0  0  0  0
 25 24  1  0  0  0  0
 26 25  1  1  0  0  0
 27 28  2  0  0  0  0
 27 26  1  0  0  0  0
 29 26  1  0  0  0  0
 30 27  1  0  0  0  0
 31 30  1  0  0  0  0
 31 29  1  0  0  0  0
 32 30  1  0  0  0  0
 33 32  1  0  0  0  0
 34 35  1  0  0  0  0
 35 36  1  0  0  0  0
 37 38  1  0  0  0  0
 38 36  1  0  0  0  0
 38 40  2  0  0  0  0
 39 40  1  0  0  0  0
 40 44  1  0  0  0  0
 41 37  2  0  0  0  0
 41 42  1  0  0  0  0
 42 39  2  0  0  0  0
 44 43  2  0  0  0  0
M  END
>  <MODEL>
6

>  <REMARK>
 VINA RESULT:      -5.6      3.600      7.488
  Name = 
  17 active torsions:
  status: ('A' for Active; 'I' for Inactive)
    1  A    between atoms: C_1  and  C_20
    2  A    between atoms: C_2  and  C_11
    3  A    between atoms: C_3  and  C_20
    4  A    between atoms: C_3  and  N_24
    5  A    between atoms: N_7  and  N_24
    6  A    between atoms: C_9  and  N_29
    7  A    between atoms: C_10  and  N_15
    8  A    between atoms: C_10  and  C_37
    9  A    between atoms: C_10  and  C_39
   10  A    between atoms: C_11  and  C_31
   11  A    between atoms: C_18  and  N_34
   12  A    between atoms: C_19  and  C_36
   13  A    between atoms: C_23  and  C_33
   14  A    between atoms: C_30  and  C_35
   15  A    between atoms: C_31  and  C_44
   16  A    between atoms: C_32  and  C_33
   17  A    between atoms: C_32  and  C_37
                            x       y       z     vdW  Elec       q    Type
                         _______ _______ _______ _____ _____    ______ ____

>  <TORSDO>
F 17

$$$$
=
 OpenBabel11042417063D

 44 47  0  0  1  0  0  0  0  0999 V2000
  190.0970  175.5500  145.6530 C   0  0  2  0  0  3  0  0  0  0  0  0
  189.7490  175.3680  143.1820 C   0  0  0  0  0  3  0  0  0  0  0  0
  190.0280  173.1240  142.1220 C   0  0  2  0  0  3  0  0  0  0  0  0
  189.2790  172.5580  143.3300 C   0  0  0  0  0  2  0  0  0  0  0  0
  189.4420  174.7490  144.5250 C   0  0  1  0  0  3  0  0  0  0  0  0
  189.7810  173.2530  144.5900 C   0  0  0  0  0  2  0  0  0  0  0  0
  189.9670  174.6310  142.0810 C   0  0  0  0  0  3  0  0  0  0  0  0
  188.7020  173.2680  140.1680 N   0  0  0  0  0  0  0  0  0  0  0  0
  189.4900  172.5780  140.8870 N   0  0  0  0  0  0  0  0  0  0  0  0
  188.1870  172.7340  138.9820 N   0  0  0  0  0  2  0  0  0  0  0  0
  188.8060  173.0520  137.7050 C   0  0  0  0  0  2  0  0  0  0  0  0
  189.7170  171.9160  137.2550 C   0  0  0  0  0  2  0  0  0  0  0  0
  191.1590  172.3850  137.1080 C   0  0  1  0  0  3  0  0  0  0  0  0
  192.3370  173.4780  135.5360 C   0  0  0  0  0  2  0  0  0  0  0  0
  191.8740  174.5670  136.4660 C   0  0  2  0  0  3  0  0  0  0  0  0
  193.0090  175.5420  136.7670 C   0  0  0  0  0  1  0  0  0  0  0  0
  191.5220  172.3550  135.7490 O   0  0  0  0  0  0  0  0  0  0  0  0
  191.3270  173.7970  137.6520 C   0  0  2  0  0  3  0  0  0  0  0  0
  192.2500  173.7410  138.8680 C   0  0  0  0  0  2  0  0  0  0  0  0
  192.7840  172.3990  139.0190 N   0  0  0  0  0  1  0  0  0  0  0  0
  192.6350  176.5530  144.7860 O   0  0  0  0  0  0  0  0  0  0  0  0
  191.3950  174.9860  146.0010 N   0  0  0  0  0  2  0  0  0  0  0  0
  192.6270  175.5430  145.5390 C   0  0  0  0  0  0  0  0  0  0  0  0
  193.9130  174.9370  145.9760 C   0  0  0  0  0  2  0  0  0  0  0  0
  195.0580  175.8840  145.6660 C   0  0  0  0  0  2  0  0  0  0  0  0
  196.0160  175.2420  144.6780 C   0  0  2  0  0  3  0  0  0  0  0  0
  196.1880  176.1160  143.5280 C   0  0  0  0  0  0  0  0  0  0  0  0
  196.8830  177.1670  143.5100 O   0  0  0  0  0  0  0  0  0  0  0  0
  195.3390  174.0570  143.9770 C   0  0  0  0  0  2  0  0  0  0  0  0
  195.5260  175.5900  142.4040 N   0  0  0  0  0  0  0  0  0  0  0  0
  194.8100  174.4800  142.7270 O   0  0  0  0  0  0  0  0  0  0  0  0
  196.0770  175.7620  141.0690 C   0  0  0  0  0  2  0  0  0  0  0  0
  197.3340  174.4910  140.7460 S   0  0  0  0  0  1  0  0  0  0  0  0
  189.1970  175.6030  146.8860 C   0  0  0  0  0  2  0  0  0  0  0  0
  187.7910  176.0410  146.5120 C   0  0  0  0  0  2  0  0  0  0  0  0
  187.6390  177.5420  146.7030 C   0  0  0  0  0  2  0  0  0  0  0  0
  185.2350  178.1880  146.7580 C   0  0  0  0  0  3  0  0  0  0  0  0
  186.4060  178.0250  146.0090 C   0  0  0  0  0  0  0  0  0  0  0  0
  185.2320  178.8270  144.0400 C   0  0  0  0  0  3  0  0  0  0  0  0
  186.4090  178.3500  144.6350 C   0  0  0  0  0  0  0  0  0  0  0  0
  184.0690  178.6620  146.1530 C   0  0  0  0  0  3  0  0  0  0  0  0
  184.0660  178.9810  144.7940 C   0  0  0  0  0  3  0  0  0  0  0  0
  187.5780  178.1190  142.5690 O   0  0  0  0  0  0  0  0  0  0  0  0
  187.6280  178.1920  143.8260 C   0  0  0  0  0  3  0  0  0  0  0  0
  1 22  1  0  0  0  0
  1 34  1  1  0  0  0
  2  5  1  0  0  0  0
  3  9  1  6  0  0  0
  3  4  1  0  0  0  0
  4  6  1  0  0  0  0
  5  6  1  0  0  0  0
  5  1  1  1  0  0  0
  7  3  1  0  0  0  0
  7  2  2  0  0  0  0
  8  9  2  0  0  0  0
 10  8  1  0  0  0  0
 11 10  1  0  0  0  0
 12 11  1  0  0  0  0
 13 12  1  6  0  0  0
 13 18  1  0  0  0  0
 14 17  1  0  0  0  0
 14 15  1  0  0  0  0
 15 16  1  1  0  0  0
 15 18  1  0  0  0  0
 17 13  1  0  0  0  0
 18 19  1  1  0  0  0
 19 20  1  0  0  0  0
 21 23  2  0  0  0  0
 23 24  1  0  0  0  0
 23 22  1  0  0  0  0
 25 24  1  0  0  0  0
 26 25  1  1  0  0  0
 27 26  1  0  0  0  0
 28 27  2  0  0  0  0
 29 26  1  0  0  0  0
 30 31  1  0  0  0  0
 30 27  1  0  0  0  0
 31 29  1  0  0  0  0
 32 30  1  0  0  0  0
 33 32  1  0  0  0  0
 35 36  1  0  0  0  0
 35 34  1  0  0  0  0
 38 36  1  0  0  0  0
 38 37  2  0  0  0  0
 39 40  2  0  0  0  0
 39 42  1  0  0  0  0
 40 38  1  0  0  0  0
 41 37  1  0  0  0  0
 42 41  2  0  0  0  0
 43 44  2  0  0  0  0
 44 40  1  0  0  0  0
M  END
>  <MODEL>
7

>  <REMARK>
 VINA RESULT:      -5.6      3.024      7.494
  Name = 
  17 active torsions:
  status: ('A' for Active; 'I' for Inactive)
    1  A    between atoms: C_1  and  C_20
    2  A    between atoms: C_2  and  C_11
    3  A    between atoms: C_3  and  C_20
    4  A    between atoms: C_3  and  N_24
    5  A    between atoms: N_7  and  N_24
    6  A    between atoms: C_9  and  N_29
    7  A    between atoms: C_10  and  N_15
    8  A    between atoms: C_10  and  C_37
    9  A    between atoms: C_10  and  C_39
   10  A    between atoms: C_11  and  C_31
   11  A    between atoms: C_18  and  N_34
   12  A    between atoms: C_19  and  C_36
   13  A    between atoms: C_23  and  C_33
   14  A    between atoms: C_30  and  C_35
   15  A    between atoms: C_31  and  C_44
   16  A    between atoms: C_32  and  C_33
   17  A    between atoms: C_32  and  C_37
                            x       y       z     vdW  Elec       q    Type
                         _______ _______ _______ _____ _____    ______ ____

>  <TORSDO>
F 17

$$$$
=
 OpenBabel11042417063D

 44 47  0  0  1  0  0  0  0  0999 V2000
  191.3220  173.7870  143.3440 C   0  0  2  0  0  3  0  0  0  0  0  0
  189.6940  174.1310  145.2120 C   0  0  0  0  0  3  0  0  0  0  0  0
  189.5280  176.4120  146.2150 C   0  0  2  0  0  3  0  0  0  0  0  0
  189.6110  176.9500  144.7850 C   0  0  0  0  0  2  0  0  0  0  0  0
  190.2240  174.6880  143.9120 C   0  0  1  0  0  3  0  0  0  0  0  0
  190.6620  176.1560  144.0210 C   0  0  0  0  0  2  0  0  0  0  0  0
  189.3330  174.9170  146.2400 C   0  0  0  0  0  3  0  0  0  0  0  0
  187.3180  177.2380  146.3890 N   0  0  0  0  0  0  0  0  0  0  0  0
  188.4480  177.0590  146.9420 N   0  0  0  0  0  0  0  0  0  0  0  0
  186.2840  177.8630  147.0950 N   0  0  0  0  0  2  0  0  0  0  0  0
  185.3070  178.6800  146.3940 C   0  0  0  0  0  2  0  0  0  0  0  0
  185.8300  179.0790  145.0200 C   0  0  0  0  0  2  0  0  0  0  0  0
  185.3190  178.1390  143.9350 C   0  0  1  0  0  3  0  0  0  0  0  0
  183.8310  178.2870  142.2560 C   0  0  0  0  0  2  0  0  0  0  0  0
  185.1460  178.6300  141.6090 C   0  0  2  0  0  3  0  0  0  0  0  0
  185.2930  177.9180  140.2670 C   0  0  0  0  0  1  0  0  0  0  0  0
  183.9780  178.4510  143.6420 O   0  0  0  0  0  0  0  0  0  0  0  0
  186.1600  178.2600  142.6730 C   0  0  2  0  0  3  0  0  0  0  0  0
  186.8830  176.9340  142.4430 C   0  0  0  0  0  2  0  0  0  0  0  0
  188.0640  177.1530  141.6270 N   0  0  0  0  0  1  0  0  0  0  0  0
  192.2570  174.3480  140.6960 O   0  0  0  0  0  0  0  0  0  0  0  0
  190.8690  173.1250  142.1260 N   0  0  0  0  0  2  0  0  0  0  0  0
  191.3850  173.4490  140.8340 C   0  0  0  0  0  0  0  0  0  0  0  0
  190.9050  172.6960  139.6450 C   0  0  0  0  0  2  0  0  0  0  0  0
  191.0440  173.5560  138.4030 C   0  0  0  0  0  2  0  0  0  0  0  0
  190.0080  173.1510  137.3670 C   0  0  2  0  0  3  0  0  0  0  0  0
  189.9830  174.1330  136.2940 C   0  0  0  0  0  0  0  0  0  0  0  0
  190.8470  174.2370  135.3820 O   0  0  0  0  0  0  0  0  0  0  0  0
  188.5940  173.3660  137.9190 C   0  0  0  0  0  2  0  0  0  0  0  0
  188.8170  174.9150  136.3670 N   0  0  0  0  0  0  0  0  0  0  0  0
  188.0960  174.6250  137.4830 O   0  0  0  0  0  0  0  0  0  0  0  0
  188.1630  175.3900  135.1570 C   0  0  0  0  0  2  0  0  0  0  0  0
  187.8190  177.1680  135.2930 S   0  0  0  0  0  1  0  0  0  0  0  0
  191.7710  172.7500  144.3720 C   0  0  0  0  0  2  0  0  0  0  0  0
  193.2520  172.4470  144.2240 C   0  0  0  0  0  2  0  0  0  0  0  0
  193.9940  172.8120  145.4990 C   0  0  0  0  0  2  0  0  0  0  0  0
  193.0780  174.8880  146.5250 C   0  0  0  0  0  3  0  0  0  0  0  0
  194.0190  174.2970  145.6720 C   0  0  0  0  0  0  0  0  0  0  0  0
  194.9770  176.4880  145.2470 C   0  0  0  0  0  3  0  0  0  0  0  0
  194.9820  175.1020  145.0270 C   0  0  0  0  0  0  0  0  0  0  0  0
  193.0830  176.2690  146.7340 C   0  0  0  0  0  3  0  0  0  0  0  0
  194.0320  177.0690  146.0950 C   0  0  0  0  0  3  0  0  0  0  0  0
  197.1000  175.0560  143.9330 O   0  0  0  0  0  0  0  0  0  0  0  0
  195.9840  174.5060  144.1300 C   0  0  0  0  0  3  0  0  0  0  0  0
  1 34  1  1  0  0  0
  2  7  2  0  0  0  0
  3  7  1  0  0  0  0
  3  9  1  6  0  0  0
  4  3  1  0  0  0  0
  5  1  1  1  0  0  0
  5  6  1  0  0  0  0
  5  2  1  0  0  0  0
  6  4  1  0  0  0  0
  8  9  2  0  0  0  0
  8 10  1  0  0  0  0
 11 10  1  0  0  0  0
 12 11  1  0  0  0  0
 13 12  1  1  0  0  0
 14 17  1  0  0  0  0
 15 16  1  6  0  0  0
 15 14  1  0  0  0  0
 15 18  1  0  0  0  0
 17 13  1  0  0  0  0
 18 19  1  6  0  0  0
 18 13  1  0  0  0  0
 20 19  1  0  0  0  0
 21 23  2  0  0  0  0
 22  1  1  0  0  0  0
 23 22  1  0  0  0  0
 24 23  1  0  0  0  0
 25 24  1  0  0  0  0
 26 29  1  0  0  0  0
 26 25  1  1  0  0  0
 27 30  1  0  0  0  0
 27 26  1  0  0  0  0
 28 27  2  0  0  0  0
 30 31  1  0  0  0  0
 31 29  1  0  0  0  0
 32 33  1  0  0  0  0
 32 30  1  0  0  0  0
 35 34  1  0  0  0  0
 35 36  1  0  0  0  0
 36 38  1  0  0  0  0
 37 41  1  0  0  0  0
 38 37  2  0  0  0  0
 39 42  1  0  0  0  0
 40 39  2  0  0  0  0
 40 38  1  0  0  0  0
 42 41  2  0  0  0  0
 43 44  2  0  0  0  0
 44 40  1  0  0  0  0
M  END
>  <MODEL>
8

>  <REMARK>
 VINA RESULT:      -5.6      2.905      8.205
  Name = 
  17 active torsions:
  status: ('A' for Active; 'I' for Inactive)
    1  A    between atoms: C_1  and  C_20
    2  A    between atoms: C_2  and  C_11
    3  A    between atoms: C_3  and  C_20
    4  A    between atoms: C_3  and  N_24
    5  A    between atoms: N_7  and  N_24
    6  A    between atoms: C_9  and  N_29
    7  A    between atoms: C_10  and  N_15
    8  A    between atoms: C_10  and  C_37
    9  A    between atoms: C_10  and  C_39
   10  A    between atoms: C_11  and  C_31
   11  A    between atoms: C_18  and  N_34
   12  A    between atoms: C_19  and  C_36
   13  A    between atoms: C_23  and  C_33
   14  A    between atoms: C_30  and  C_35
   15  A    between atoms: C_31  and  C_44
   16  A    between atoms: C_32  and  C_33
   17  A    between atoms: C_32  and  C_37
                            x       y       z     vdW  Elec       q    Type
                         _______ _______ _______ _____ _____    ______ ____

>  <TORSDO>
F 17

$$$$
=
 OpenBabel11042417063D

 44 47  0  0  1  0  0  0  0  0999 V2000
  190.1650  175.3690  145.4510 C   0  0  2  0  0  3  0  0  0  0  0  0
  190.4770  174.5530  143.1060 C   0  0  0  0  0  3  0  0  0  0  0  0
  190.7450  172.0970  142.7470 C   0  0  2  0  0  3  0  0  0  0  0  0
  189.6320  171.9140  143.7810 C   0  0  0  0  0  2  0  0  0  0  0  0
  189.7430  174.3320  144.4070 C   0  0  1  0  0  3  0  0  0  0  0  0
  189.8590  172.8920  144.9270 C   0  0  0  0  0  2  0  0  0  0  0  0
  190.8900  173.5390  142.3300 C   0  0  0  0  0  3  0  0  0  0  0  0
  191.0080  171.5730  140.4560 N   0  0  0  0  0  0  0  0  0  0  0  0
  190.4960  171.2700  141.5780 N   0  0  0  0  0  0  0  0  0  0  0  0
  190.7610  170.7730  139.3340 N   0  0  0  0  0  2  0  0  0  0  0  0
  191.1910  171.2070  138.0150 C   0  0  0  0  0  2  0  0  0  0  0  0
  190.0050  171.7290  137.2110 C   0  0  0  0  0  2  0  0  0  0  0  0
  189.8150  173.2270  137.4100 C   0  0  1  0  0  3  0  0  0  0  0  0
  189.0190  174.9210  136.1650 C   0  0  0  0  0  2  0  0  0  0  0  0
  187.8290  174.4680  136.9670 C   0  0  2  0  0  3  0  0  0  0  0  0
  187.0680  175.6640  137.5310 C   0  0  0  0  0  1  0  0  0  0  0  0
  189.9640  173.8830  136.1730 O   0  0  0  0  0  0  0  0  0  0  0  0
  188.4390  173.5270  137.9860 C   0  0  2  0  0  3  0  0  0  0  0  0
  188.6160  174.1160  139.3850 C   0  0  0  0  0  2  0  0  0  0  0  0
  187.9530  173.2700  140.3620 N   0  0  0  0  0  1  0  0  0  0  0  0
  191.8850  177.5060  144.6260 O   0  0  0  0  0  0  0  0  0  0  0  0
  191.6160  175.3950  145.5960 N   0  0  0  0  0  2  0  0  0  0  0  0
  192.4150  176.5000  145.1700 C   0  0  0  0  0  0  0  0  0  0  0  0
  193.8840  176.4700  145.3950 C   0  0  0  0  0  2  0  0  0  0  0  0
  194.2820  175.1400  146.0120 C   0  0  0  0  0  2  0  0  0  0  0  0
  195.0520  174.3050  145.0030 C   0  0  2  0  0  3  0  0  0  0  0  0
  194.6510  172.9120  145.1170 C   0  0  0  0  0  0  0  0  0  0  0  0
  193.5710  172.4280  144.6850 O   0  0  0  0  0  0  0  0  0  0  0  0
  196.5170  174.1680  145.4380 C   0  0  0  0  0  2  0  0  0  0  0  0
  195.6710  172.1520  145.7170 N   0  0  0  0  0  0  0  0  0  0  0  0
  196.6960  172.9420  146.1360 O   0  0  0  0  0  0  0  0  0  0  0  0
  195.9060  170.7730  145.3150 C   0  0  0  0  0  2  0  0  0  0  0  0
  195.1530  169.6380  146.5170 S   0  0  0  0  0  1  0  0  0  0  0  0
  189.5040  175.0950  146.7990 C   0  0  0  0  0  2  0  0  0  0  0  0
  188.1660  175.8070  146.9020 C   0  0  0  0  0  2  0  0  0  0  0  0
  188.2010  177.1090  146.1170 C   0  0  0  0  0  2  0  0  0  0  0  0
  185.9920  177.7640  147.0610 C   0  0  0  0  0  3  0  0  0  0  0  0
  186.8130  177.6360  145.9350 C   0  0  0  0  0  0  0  0  0  0  0  0
  185.0330  178.5490  144.5580 C   0  0  0  0  0  3  0  0  0  0  0  0
  186.3330  178.0340  144.6690 C   0  0  0  0  0  0  0  0  0  0  0  0
  184.6980  178.2750  146.9370 C   0  0  0  0  0  3  0  0  0  0  0  0
  184.2180  178.6680  145.6860 C   0  0  0  0  0  3  0  0  0  0  0  0
  186.9970  178.6480  142.4620 O   0  0  0  0  0  0  0  0  0  0  0  0
  187.1780  177.9150  143.4700 C   0  0  0  0  0  3  0  0  0  0  0  0
  1 22  1  0  0  0  0
  1 34  1  1  0  0  0
  2  5  1  0  0  0  0
  3  9  1  6  0  0  0
  3  4  1  0  0  0  0
  4  6  1  0  0  0  0
  5  6  1  0  0  0  0
  5  1  1  1  0  0  0
  7  3  1  0  0  0  0
  7  2  2  0  0  0  0
  8  9  2  0  0  0  0
 10  8  1  0  0  0  0
 11 10  1  0  0  0  0
 12 11  1  0  0  0  0
 13 12  1  6  0  0  0
 13 18  1  0  0  0  0
 14 17  1  0  0  0  0
 14 15  1  0  0  0  0
 15 16  1  1  0  0  0
 15 18  1  0  0  0  0
 17 13  1  0  0  0  0
 18 19  1  1  0  0  0
 19 20  1  0  0  0  0
 21 23  2  0  0  0  0
 23 24  1  0  0  0  0
 23 22  1  0  0  0  0
 24 25  1  0  0  0  0
 26 27  1  0  0  0  0
 26 29  1  0  0  0  0
 26 25  1  1  0  0  0
 27 30  1  0  0  0  0
 28 27  2  0  0  0  0
 29 31  1  0  0  0  0
 30 31  1  0  0  0  0
 32 30  1  0  0  0  0
 32 33  1  0  0  0  0
 34 35  1  0  0  0  0
 36 35  1  0  0  0  0
 38 36  1  0  0  0  0
 38 37  2  0  0  0  0
 39 40  2  0  0  0  0
 39 42  1  0  0  0  0
 40 38  1  0  0  0  0
 41 37  1  0  0  0  0
 42 41  2  0  0  0  0
 43 44  2  0  0  0  0
 44 40  1  0  0  0  0
M  END
>  <MODEL>
9

>  <REMARK>
 VINA RESULT:      -5.6      3.859      8.075
  Name = 
  17 active torsions:
  status: ('A' for Active; 'I' for Inactive)
    1  A    between atoms: C_1  and  C_20
    2  A    between atoms: C_2  and  C_11
    3  A    between atoms: C_3  and  C_20
    4  A    between atoms: C_3  and  N_24
    5  A    between atoms: N_7  and  N_24
    6  A    between atoms: C_9  and  N_29
    7  A    between atoms: C_10  and  N_15
    8  A    between atoms: C_10  and  C_37
    9  A    between atoms: C_10  and  C_39
   10  A    between atoms: C_11  and  C_31
   11  A    between atoms: C_18  and  N_34
   12  A    between atoms: C_19  and  C_36
   13  A    between atoms: C_23  and  C_33
   14  A    between atoms: C_30  and  C_35
   15  A    between atoms: C_31  and  C_44
   16  A    between atoms: C_32  and  C_33
   17  A    between atoms: C_32  and  C_37
                            x       y       z     vdW  Elec       q    Type
                         _______ _______ _______ _____ _____    ______ ____

>  <TORSDO>
F 17

$$$$
