=
 OpenBabel11042417173D

 63 69  0  0  1  0  0  0  0  0999 V2000
  191.3140  176.0300  143.9060 C   0  0  1  0  0  3  0  0  0  0  0  0
  192.8060  174.1200  145.0180 S   0  0  0  0  0  0  0  0  0  0  0  0
  193.3040  175.8440  145.2850 C   0  0  2  0  0  3  0  0  0  0  0  0
  191.3250  174.5400  143.9800 C   0  0  1  0  0  3  0  0  0  0  0  0
  192.6380  176.6570  144.1870 C   0  0  0  0  0  2  0  0  0  0  0  0
  190.5010  177.9500  143.0000 C   0  0  0  0  0  1  0  0  0  0  0  0
  190.6260  176.5190  142.8280 O   0  0  0  0  0  0  0  0  0  0  0  0
  189.9240  173.8240  144.1790 C   0  0  2  0  0  3  0  0  0  0  0  0
  189.7140  173.6160  145.6140 N   0  0  0  0  0  2  0  0  0  0  0  0
  189.8960  174.7210  146.4830 C   0  0  2  0  0  3  0  0  0  0  0  0
  188.8980  174.6330  147.5970 C   0  0  0  0  0  2  0  0  0  0  0  0
  188.7200  175.6010  146.4360 N   0  0  0  0  0  0  0  0  0  0  0  0
  188.8600  177.0370  146.9110 C   0  0  0  0  0  2  0  0  0  0  0  0
  186.9880  177.6840  145.2070 C   0  0  0  0  0  0  0  0  0  0  0  0
  187.5750  177.8130  146.6090 C   0  0  1  0  0  3  0  0  0  0  0  0
  184.7600  177.6410  146.1250 C   0  0  0  0  0  2  0  0  0  0  0  0
  186.6430  177.2980  147.5590 O   0  0  0  0  0  0  0  0  0  0  0  0
  185.6560  178.0180  145.0260 N   0  0  0  0  0  0  0  0  0  0  0  0
  187.6670  177.2720  144.1950 O   0  0  0  0  0  0  0  0  0  0  0  0
  185.4430  178.0060  147.4430 C   0  0  0  0  0  2  0  0  0  0  0  0
  185.2410  178.9800  143.9930 C   0  0  0  0  0  2  0  0  0  0  0  0
  183.3500  178.5440  142.6580 F   0  0  0  0  0  0  0  0  0  0  0  0
  184.6880  178.2680  142.7500 C   0  0  0  0  0  0  0  0  0  0  0  0
  184.8790  176.9100  142.8330 F   0  0  0  0  0  0  0  0  0  0  0  0
  185.3110  178.7360  141.6230 F   0  0  0  0  0  0  0  0  0  0  0  0
  189.9030  172.5070  143.4990 C   0  0  0  0  0  2  0  0  0  0  0  0
  189.3340  172.5700  142.0570 C   0  0  2  0  0  3  0  0  0  0  0  0
  188.4080  174.2460  140.5970 N   0  0  0  0  0  0  0  0  0  0  0  0
  189.0930  173.8100  139.5940 C   0  0  0  0  0  0  0  0  0  0  0  0
  189.9100  172.1270  138.3780 N   0  0  0  0  0  0  0  0  0  0  0  0
  189.7760  172.5780  139.6850 N   0  0  0  0  0  0  0  0  0  0  0  0
  189.5040  172.7380  136.0490 C   0  0  0  0  0  1  0  0  0  0  0  0
  189.6030  171.6970  140.8250 C   0  0  1  0  0  3  0  0  0  0  0  0
  189.4130  172.9880  137.5580 C   0  0  0  0  0  0  0  0  0  0  0  0
  190.7840  170.7410  140.9340 C   0  0  0  0  0  1  0  0  0  0  0  0
  188.8500  174.1780  138.1970 N   0  0  0  0  0  2  0  0  0  0  0  0
  188.5840  173.6760  141.9030 C   0  0  0  0  0  2  0  0  0  0  0  0
  194.8090  176.2340  145.2380 C   0  0  0  0  0  2  0  0  0  0  0  0
  195.1710  175.3270  143.1140 F   0  0  0  0  0  0  0  0  0  0  0  0
  196.8200  176.6660  143.8910 F   0  0  0  0  0  0  0  0  0  0  0  0
  195.8340  175.7190  144.2340 C   0  0  0  0  0  0  0  0  0  0  0  0
  196.4150  174.5590  145.0110 C   0  0  0  0  0  2  0  0  0  0  0  0
  197.8960  173.2700  143.5940 O   0  0  0  0  0  0  0  0  0  0  0  0
  196.9120  173.2900  144.3300 C   0  0  0  0  0  0  0  0  0  0  0  0
  196.3530  171.9730  144.7570 C   0  0  0  0  0  2  0  0  0  0  0  0
  194.5100  171.5170  141.3780 C   0  0  2  0  0  3  0  0  0  0  0  0
  195.2570  171.5290  140.0250 C   0  0  1  0  0  3  0  0  0  0  0  0
  193.8300  172.8630  141.6860 C   0  0  0  0  0  2  0  0  0  0  0  0
  193.3280  173.5080  140.4370 C   0  0  2  0  0  3  0  0  0  0  0  0
  194.5410  170.4840  144.2810 O   0  0  0  0  0  0  0  0  0  0  0  0
  194.6240  174.0690  139.7600 C   0  0  1  0  0  3  0  0  0  0  0  0
  195.5470  171.2430  142.3340 N   0  0  0  0  0  0  0  0  0  0  0  0
  192.3560  174.4560  140.7900 O   0  0  0  0  0  1  0  0  0  0  0  0
  195.4340  171.2360  143.7910 C   0  0  0  0  0  0  0  0  0  0  0  0
  195.4910  172.8850  139.2870 C   0  0  0  0  0  2  0  0  0  0  0  0
  197.1770  170.0740  139.4510 O   0  0  0  0  0  0  0  0  0  0  0  0
  196.7330  170.7580  141.7090 N   0  0  0  0  0  2  0  0  0  0  0  0
  196.4880  170.7530  140.3150 C   0  0  0  0  0  0  0  0  0  0  0  0
  194.3130  174.9130  138.6650 O   0  0  0  0  0  0  0  0  0  0  0  0
  194.7020  174.3730  137.3840 C   0  0  1  0  0  3  0  0  0  0  0  0
  193.5340  173.8480  136.5620 C   0  0  0  0  0  1  0  0  0  0  0  0
  195.5660  175.2380  136.5590 N   0  0  0  0  0  2  0  0  0  0  0  0
  196.6480  175.6610  137.2610 O   0  0  0  0  0  1  0  0  0  0  0  0
  1  7  1  6  0  0  0
  1  4  1  0  0  0  0
  1  5  1  0  0  0  0
  2  3  1  0  0  0  0
  3 38  1  6  0  0  0
  4  8  1  1  0  0  0
  4  2  1  0  0  0  0
  5  3  1  0  0  0  0
  7  6  1  0  0  0  0
  8 26  1  6  0  0  0
  8  9  1  0  0  0  0
 10  9  1  6  0  0  0
 10 11  1  0  0  0  0
 12 10  1  0  0  0  0
 12 13  1  0  0  0  0
 12 11  1  0  0  0  0
 14 15  1  0  0  0  0
 15 13  1  6  0  0  0
 15 17  1  0  0  0  0
 16 20  1  0  0  0  0
 18 14  1  0  0  0  0
 18 16  1  0  0  0  0
 19 14  2  0  0  0  0
 20 17  1  0  0  0  0
 21 18  1  0  0  0  0
 22 23  1  0  0  0  0
 23 24  1  0  0  0  0
 23 21  1  0  0  0  0
 25 23  1  0  0  0  0
 27 26  1  6  0  0  0
 28 37  1  0  0  0  0
 29 31  1  0  0  0  0
 29 28  2  0  0  0  0
 30 31  1  0  0  0  0
 31 33  1  0  0  0  0
 32 34  1  0  0  0  0
 33 35  1  1  0  0  0
 33 27  1  0  0  0  0
 34 36  1  0  0  0  0
 34 30  2  0  0  0  0
 36 29  1  0  0  0  0
 37 27  1  0  0  0  0
 39 41  1  0  0  0  0
 40 41  1  0  0  0  0
 41 42  1  0  0  0  0
 41 38  1  0  0  0  0
 43 44  2  0  0  0  0
 44 45  1  0  0  0  0
 44 42  1  0  0  0  0
 46 48  1  1  0  0  0
 46 52  1  0  0  0  0
 47 55  1  1  0  0  0
 47 58  1  0  0  0  0
 47 46  1  0  0  0  0
 49 53  1  1  0  0  0
 49 48  1  0  0  0  0
 51 59  1  6  0  0  0
 51 49  1  0  0  0  0
 52 54  1  0  0  0  0
 54 50  2  0  0  0  0
 54 45  1  0  0  0  0
 55 51  1  0  0  0  0
 56 58  2  0  0  0  0
 57 52  1  0  0  0  0
 58 57  1  0  0  0  0
 60 61  1  6  0  0  0
 60 59  1  0  0  0  0
 62 63  1  0  0  0  0
 62 60  1  0  0  0  0
M  END
>  <MODEL>
1

>  <REMARK>
 VINA RESULT:      -6.8      0.000      0.000
  Name = 
  19 active torsions:
  status: ('A' for Active; 'I' for Inactive)
    1  A    between atoms: N_1  and  C_2
    2  A    between atoms: C_2  and  O_29
    3  A    between atoms: C_3  and  O_36
    4  A    between atoms: C_4  and  C_55
    5  A    between atoms: C_7  and  C_35
    6  A    between atoms: C_7  and  N_44
    7  A    between atoms: N_9  and  C_23
    8  A    between atoms: N_9  and  C_37
    9  A    between atoms: C_22  and  O_29
   10  A    between atoms: C_24  and  C_39
   11  A    between atoms: C_30  and  C_48
   12  A    between atoms: C_32  and  C_62
   13  A    between atoms: C_37  and  C_54
   14  A    between atoms: C_37  and  C_55
   15  A    between atoms: C_39  and  N_45
   16  A    between atoms: C_48  and  C_63
   17  A    between atoms: C_52  and  C_53
   18  A    between atoms: C_52  and  C_62
   19  A    between atoms: C_53  and  C_63
                            x       y       z     vdW  Elec       q    Type
                         _______ _______ _______ _____ _____    ______ ____

>  <TORSDO>
F 19

$$$$
=
 OpenBabel11042417173D

 63 69  0  0  1  0  0  0  0  0999 V2000
  194.7150  173.3830  140.6900 C   0  0  1  0  0  3  0  0  0  0  0  0
  196.9090  171.9250  141.0970 S   0  0  0  0  0  0  0  0  0  0  0  0
  196.1800  172.7710  142.5270 C   0  0  2  0  0  3  0  0  0  0  0  0
  195.6450  172.5390  139.8840 C   0  0  1  0  0  3  0  0  0  0  0  0
  195.3050  173.8800  141.9670 C   0  0  0  0  0  2  0  0  0  0  0  0
  194.9220  175.3920  139.6440 C   0  0  0  0  0  1  0  0  0  0  0  0
  194.0220  174.2990  139.9430 O   0  0  0  0  0  0  0  0  0  0  0  0
  194.9870  171.5910  138.7970 C   0  0  2  0  0  3  0  0  0  0  0  0
  195.2230  170.2010  139.1950 N   0  0  0  0  0  2  0  0  0  0  0  0
  194.1610  169.4950  139.8150 C   0  0  2  0  0  3  0  0  0  0  0  0
  193.3480  168.8130  138.7580 C   0  0  0  0  0  2  0  0  0  0  0  0
  192.8710  170.0890  139.4380 N   0  0  0  0  0  0  0  0  0  0  0  0
  191.6550  169.8090  140.3040 C   0  0  0  0  0  2  0  0  0  0  0  0
  190.9830  172.2660  140.8830 C   0  0  0  0  0  0  0  0  0  0  0  0
  190.6490  170.9560  140.1760 C   0  0  1  0  0  3  0  0  0  0  0  0
  190.1070  173.5150  139.0170 C   0  0  0  0  0  2  0  0  0  0  0  0
  190.5800  171.1840  138.7690 O   0  0  0  0  0  0  0  0  0  0  0  0
  190.3330  173.4150  140.4630 N   0  0  0  0  0  0  0  0  0  0  0  0
  191.8410  172.3520  141.8370 O   0  0  0  0  0  0  0  0  0  0  0  0
  189.6100  172.1590  138.5170 C   0  0  0  0  0  2  0  0  0  0  0  0
  189.6170  174.2810  141.4130 C   0  0  0  0  0  2  0  0  0  0  0  0
  188.7630  172.8010  143.0340 F   0  0  0  0  0  0  0  0  0  0  0  0
  188.3720  173.5850  141.9830 C   0  0  0  0  0  0  0  0  0  0  0  0
  187.7580  172.8120  141.0270 F   0  0  0  0  0  0  0  0  0  0  0  0
  187.4790  174.5190  142.4400 F   0  0  0  0  0  0  0  0  0  0  0  0
  195.5980  171.8140  137.4640 C   0  0  0  0  0  2  0  0  0  0  0  0
  194.8580  172.8850  136.6210 C   0  0  2  0  0  3  0  0  0  0  0  0
  192.6300  173.7880  136.4780 N   0  0  0  0  0  0  0  0  0  0  0  0
  193.0800  174.9950  136.3960 C   0  0  0  0  0  0  0  0  0  0  0  0
  194.5420  176.4770  135.5930 N   0  0  0  0  0  0  0  0  0  0  0  0
  194.4570  175.2250  136.1870 N   0  0  0  0  0  0  0  0  0  0  0  0
  193.2130  178.4100  134.9130 C   0  0  0  0  0  1  0  0  0  0  0  0
  195.3730  174.1360  135.8980 C   0  0  1  0  0  3  0  0  0  0  0  0
  193.3670  176.9970  135.4820 C   0  0  0  0  0  0  0  0  0  0  0  0
  196.8010  174.5510  136.2250 C   0  0  0  0  0  1  0  0  0  0  0  0
  192.2830  176.1550  135.9890 N   0  0  0  0  0  2  0  0  0  0  0  0
  193.5290  172.6880  136.6860 C   0  0  0  0  0  2  0  0  0  0  0  0
  197.1010  173.4570  143.5770 C   0  0  0  0  0  2  0  0  0  0  0  0
  195.7680  173.1310  145.4690 F   0  0  0  0  0  0  0  0  0  0  0  0
  197.7220  174.2110  145.8320 F   0  0  0  0  0  0  0  0  0  0  0  0
  196.6600  174.0030  144.9300 C   0  0  0  0  0  0  0  0  0  0  0  0
  196.0240  175.3060  144.5010 C   0  0  0  0  0  2  0  0  0  0  0  0
  195.0980  177.3370  145.4400 O   0  0  0  0  0  0  0  0  0  0  0  0
  195.1110  176.1080  145.4200 C   0  0  0  0  0  0  0  0  0  0  0  0
  194.0120  175.4030  146.1430 C   0  0  0  0  0  2  0  0  0  0  0  0
  190.3170  175.2600  144.9820 C   0  0  2  0  0  3  0  0  0  0  0  0
  189.5840  176.4980  144.4160 C   0  0  1  0  0  3  0  0  0  0  0  0
  189.9710  174.9980  146.4590 C   0  0  0  0  0  2  0  0  0  0  0  0
  188.5530  175.3600  146.7500 C   0  0  2  0  0  3  0  0  0  0  0  0
  192.9310  173.6300  144.9520 O   0  0  0  0  0  0  0  0  0  0  0  0
  188.5710  176.9250  146.8060 C   0  0  1  0  0  3  0  0  0  0  0  0
  191.7060  175.5960  144.8380 N   0  0  0  0  0  0  0  0  0  0  0  0
  188.1630  174.7050  147.9270 O   0  0  0  0  0  1  0  0  0  0  0  0
  192.8580  174.8390  145.3230 C   0  0  0  0  0  0  0  0  0  0  0  0
  188.8490  177.4710  145.3910 C   0  0  0  0  0  2  0  0  0  0  0  0
  190.3810  177.8730  142.5160 O   0  0  0  0  0  0  0  0  0  0  0  0
  191.8990  176.7040  143.9620 N   0  0  0  0  0  2  0  0  0  0  0  0
  190.6130  177.1330  143.5560 C   0  0  0  0  0  0  0  0  0  0  0  0
  187.3450  177.4410  147.2950 O   0  0  0  0  0  0  0  0  0  0  0  0
  186.4540  177.9050  146.2600 C   0  0  1  0  0  3  0  0  0  0  0  0
  185.5550  176.8140  145.6950 C   0  0  0  0  0  1  0  0  0  0  0  0
  185.6640  179.1080  146.5830 N   0  0  0  0  0  2  0  0  0  0  0  0
  186.0490  179.6390  147.7720 O   0  0  0  0  0  1  0  0  0  0  0  0
  1  7  1  6  0  0  0
  1  5  1  0  0  0  0
  2  3  1  0  0  0  0
  3 38  1  1  0  0  0
  4  8  1  1  0  0  0
  4  1  1  0  0  0  0
  4  2  1  0  0  0  0
  5  3  1  0  0  0  0
  6  7  1  0  0  0  0
  8 26  1  6  0  0  0
  8  9  1  0  0  0  0
 10  9  1  6  0  0  0
 11 12  1  0  0  0  0
 11 10  1  0  0  0  0
 12 10  1  0  0  0  0
 12 13  1  0  0  0  0
 14 19  2  0  0  0  0
 15 13  1  6  0  0  0
 15 14  1  0  0  0  0
 16 18  1  0  0  0  0
 17 15  1  0  0  0  0
 18 14  1  0  0  0  0
 18 21  1  0  0  0  0
 20 17  1  0  0  0  0
 20 16  1  0  0  0  0
 21 23  1  0  0  0  0
 23 25  1  0  0  0  0
 23 22  1  0  0  0  0
 24 23  1  0  0  0  0
 27 37  1  0  0  0  0
 27 26  1  1  0  0  0
 28 37  1  0  0  0  0
 29 28  2  0  0  0  0
 30 31  1  0  0  0  0
 31 29  1  0  0  0  0
 32 34  1  0  0  0  0
 33 31  1  0  0  0  0
 33 35  1  1  0  0  0
 33 27  1  0  0  0  0
 34 30  2  0  0  0  0
 34 36  1  0  0  0  0
 36 29  1  0  0  0  0
 38 41  1  0  0  0  0
 41 39  1  0  0  0  0
 41 40  1  0  0  0  0
 42 41  1  0  0  0  0
 42 44  1  0  0  0  0
 44 43  2  0  0  0  0
 44 45  1  0  0  0  0
 46 48  1  1  0  0  0
 47 46  1  0  0  0  0
 47 55  1  1  0  0  0
 48 49  1  0  0  0  0
 49 51  1  0  0  0  0
 49 53  1  1  0  0  0
 50 54  2  0  0  0  0
 51 59  1  6  0  0  0
 52 46  1  0  0  0  0
 52 54  1  0  0  0  0
 54 45  1  0  0  0  0
 55 51  1  0  0  0  0
 56 58  2  0  0  0  0
 57 52  1  0  0  0  0
 58 57  1  0  0  0  0
 58 47  1  0  0  0  0
 60 61  1  1  0  0  0
 60 62  1  0  0  0  0
 60 59  1  0  0  0  0
 62 63  1  0  0  0  0
M  END
>  <MODEL>
2

>  <REMARK>
 VINA RESULT:      -6.6      2.545      7.982
  Name = 
  19 active torsions:
  status: ('A' for Active; 'I' for Inactive)
    1  A    between atoms: N_1  and  C_2
    2  A    between atoms: C_2  and  O_29
    3  A    between atoms: C_3  and  O_36
    4  A    between atoms: C_4  and  C_55
    5  A    between atoms: C_7  and  C_35
    6  A    between atoms: C_7  and  N_44
    7  A    between atoms: N_9  and  C_23
    8  A    between atoms: N_9  and  C_37
    9  A    between atoms: C_22  and  O_29
   10  A    between atoms: C_24  and  C_39
   11  A    between atoms: C_30  and  C_48
   12  A    between atoms: C_32  and  C_62
   13  A    between atoms: C_37  and  C_54
   14  A    between atoms: C_37  and  C_55
   15  A    between atoms: C_39  and  N_45
   16  A    between atoms: C_48  and  C_63
   17  A    between atoms: C_52  and  C_53
   18  A    between atoms: C_52  and  C_62
   19  A    between atoms: C_53  and  C_63
                            x       y       z     vdW  Elec       q    Type
                         _______ _______ _______ _____ _____    ______ ____

>  <TORSDO>
F 19

$$$$
=
 OpenBabel11042417173D

 63 69  0  0  1  0  0  0  0  0999 V2000
  191.1090  175.7580  146.5210 C   0  0  1  0  0  3  0  0  0  0  0  0
  192.1560  175.9990  144.0820 S   0  0  0  0  0  0  0  0  0  0  0  0
  193.1670  175.2020  145.3600 C   0  0  2  0  0  3  0  0  0  0  0  0
  190.7030  176.3090  145.1960 C   0  0  1  0  0  3  0  0  0  0  0  0
  192.5850  175.6320  146.6960 C   0  0  0  0  0  2  0  0  0  0  0  0
  191.3500  177.0690  148.3640 C   0  0  0  0  0  1  0  0  0  0  0  0
  190.4160  176.2980  147.5730 O   0  0  0  0  0  0  0  0  0  0  0  0
  189.2110  176.0330  144.7340 C   0  0  2  0  0  3  0  0  0  0  0  0
  189.1620  174.7130  144.1000 N   0  0  0  0  0  2  0  0  0  0  0  0
  189.3850  174.6350  142.7020 C   0  0  2  0  0  3  0  0  0  0  0  0
  188.4250  173.6480  142.1110 C   0  0  0  0  0  2  0  0  0  0  0  0
  189.8890  173.3020  142.3450 N   0  0  0  0  0  0  0  0  0  0  0  0
  190.6130  173.1230  141.0220 C   0  0  0  0  0  2  0  0  0  0  0  0
  192.5150  171.6690  142.0680 C   0  0  0  0  0  0  0  0  0  0  0  0
  191.4030  171.8120  141.0330 C   0  0  1  0  0  3  0  0  0  0  0  0
  191.9130  169.3630  142.4230 C   0  0  0  0  0  2  0  0  0  0  0  0
  190.4040  170.8220  141.2750 O   0  0  0  0  0  0  0  0  0  0  0  0
  192.9560  170.3930  142.3770 N   0  0  0  0  0  0  0  0  0  0  0  0
  193.0490  172.6730  142.6690 O   0  0  0  0  0  0  0  0  0  0  0  0
  190.9980  169.5570  141.2140 C   0  0  0  0  0  2  0  0  0  0  0  0
  194.3820  170.0380  142.3110 C   0  0  0  0  0  2  0  0  0  0  0  0
  194.0990  170.4100  144.6190 F   0  0  0  0  0  0  0  0  0  0  0  0
  194.9990  169.9190  143.7130 C   0  0  0  0  0  0  0  0  0  0  0  0
  196.1760  170.6240  143.7950 F   0  0  0  0  0  0  0  0  0  0  0  0
  195.2470  168.6040  144.0070 F   0  0  0  0  0  0  0  0  0  0  0  0
  188.7670  177.0500  143.7510 C   0  0  0  0  0  2  0  0  0  0  0  0
  187.2490  176.9780  143.4380 C   0  0  2  0  0  3  0  0  0  0  0  0
  185.1970  177.6940  144.4760 N   0  0  0  0  0  0  0  0  0  0  0  0
  184.7310  178.1250  143.3520 C   0  0  0  0  0  0  0  0  0  0  0  0
  184.4160  177.8900  141.1560 N   0  0  0  0  0  0  0  0  0  0  0  0
  185.3880  177.8080  142.1450 N   0  0  0  0  0  0  0  0  0  0  0  0
  182.0800  178.4790  140.7590 C   0  0  0  0  0  1  0  0  0  0  0  0
  186.4960  176.8700  142.1060 C   0  0  1  0  0  3  0  0  0  0  0  0
  183.2920  178.2570  141.6680 C   0  0  0  0  0  0  0  0  0  0  0  0
  187.3290  177.0930  140.8520 C   0  0  0  0  0  1  0  0  0  0  0  0
  183.3300  178.4800  143.1140 N   0  0  0  0  0  2  0  0  0  0  0  0
  186.5350  177.1780  144.5590 C   0  0  0  0  0  2  0  0  0  0  0  0
  194.6890  175.5090  145.4500 C   0  0  0  0  0  2  0  0  0  0  0  0
  196.3780  174.2870  146.5080 F   0  0  0  0  0  0  0  0  0  0  0  0
  195.3960  173.2620  144.7460 F   0  0  0  0  0  0  0  0  0  0  0  0
  195.8150  174.4940  145.2890 C   0  0  0  0  0  0  0  0  0  0  0  0
  196.7230  175.2450  144.3410 C   0  0  0  0  0  2  0  0  0  0  0  0
  196.6470  176.7680  142.4610 O   0  0  0  0  0  0  0  0  0  0  0  0
  196.2550  175.7220  142.9710 C   0  0  0  0  0  0  0  0  0  0  0  0
  195.4930  174.7810  142.0980 C   0  0  0  0  0  2  0  0  0  0  0  0
  195.8660  172.9490  138.7030 C   0  0  2  0  0  3  0  0  0  0  0  0
  195.5400  173.6360  137.3580 C   0  0  1  0  0  3  0  0  0  0  0  0
  194.7250  172.0370  139.1880 C   0  0  0  0  0  2  0  0  0  0  0  0
  194.0360  171.3820  138.0370 C   0  0  2  0  0  3  0  0  0  0  0  0
  197.2310  173.2690  141.4460 O   0  0  0  0  0  0  0  0  0  0  0  0
  193.1560  172.5250  137.4290 C   0  0  1  0  0  3  0  0  0  0  0  0
  196.0540  174.0500  139.6070 N   0  0  0  0  0  0  0  0  0  0  0  0
  193.3450  170.2600  138.5180 O   0  0  0  0  0  1  0  0  0  0  0  0
  196.2660  173.9870  141.0510 C   0  0  0  0  0  0  0  0  0  0  0  0
  194.0830  173.5850  136.8000 C   0  0  0  0  0  2  0  0  0  0  0  0
  196.5160  175.7780  136.5850 O   0  0  0  0  0  0  0  0  0  0  0  0
  196.2190  175.2850  138.9150 N   0  0  0  0  0  2  0  0  0  0  0  0
  196.0950  175.0010  137.5350 C   0  0  0  0  0  0  0  0  0  0  0  0
  192.2570  172.0250  136.4550 O   0  0  0  0  0  0  0  0  0  0  0  0
  190.8730  172.3290  136.7290 C   0  0  1  0  0  3  0  0  0  0  0  0
  190.1490  171.2360  137.5020 C   0  0  0  0  0  1  0  0  0  0  0  0
  190.6120  173.6470  137.3360 N   0  0  0  0  0  2  0  0  0  0  0  0
  190.5310  174.6140  136.3850 O   0  0  0  0  0  1  0  0  0  0  0  0
  1  5  1  0  0  0  0
  1  7  1  1  0  0  0
  2  4  1  0  0  0  0
  2  3  1  0  0  0  0
  3 38  1  1  0  0  0
  3  5  1  0  0  0  0
  4  8  1  6  0  0  0
  4  1  1  0  0  0  0
  7  6  1  0  0  0  0
  8 26  1  6  0  0  0
  9  8  1  0  0  0  0
 10  9  1  1  0  0  0
 11 12  1  0  0  0  0
 11 10  1  0  0  0  0
 12 10  1  0  0  0  0
 13 12  1  0  0  0  0
 14 18  1  0  0  0  0
 14 19  2  0  0  0  0
 15 13  1  1  0  0  0
 15 17  1  0  0  0  0
 15 14  1  0  0  0  0
 18 16  1  0  0  0  0
 20 17  1  0  0  0  0
 20 16  1  0  0  0  0
 21 18  1  0  0  0  0
 21 23  1  0  0  0  0
 23 24  1  0  0  0  0
 23 25  1  0  0  0  0
 23 22  1  0  0  0  0
 27 26  1  6  0  0  0
 27 37  1  0  0  0  0
 28 37  1  0  0  0  0
 29 28  2  0  0  0  0
 30 34  2  0  0  0  0
 30 31  1  0  0  0  0
 31 29  1  0  0  0  0
 32 34  1  0  0  0  0
 33 35  1  6  0  0  0
 33 31  1  0  0  0  0
 33 27  1  0  0  0  0
 34 36  1  0  0  0  0
 36 29  1  0  0  0  0
 40 41  1  0  0  0  0
 41 38  1  0  0  0  0
 41 39  1  0  0  0  0
 42 41  1  0  0  0  0
 43 44  2  0  0  0  0
 44 42  1  0  0  0  0
 45 44  1  0  0  0  0
 46 48  1  1  0  0  0
 46 52  1  0  0  0  0
 47 55  1  1  0  0  0
 47 58  1  0  0  0  0
 47 46  1  0  0  0  0
 49 53  1  1  0  0  0
 49 48  1  0  0  0  0
 51 59  1  6  0  0  0
 51 49  1  0  0  0  0
 52 54  1  0  0  0  0
 54 50  2  0  0  0  0
 54 45  1  0  0  0  0
 55 51  1  0  0  0  0
 56 58  2  0  0  0  0
 57 52  1  0  0  0  0
 58 57  1  0  0  0  0
 59 60  1  0  0  0  0
 60 62  1  0  0  0  0
 60 61  1  1  0  0  0
 63 62  1  0  0  0  0
M  END
>  <MODEL>
3

>  <REMARK>
 VINA RESULT:      -6.5      3.462      6.762
  Name = 
  19 active torsions:
  status: ('A' for Active; 'I' for Inactive)
    1  A    between atoms: N_1  and  C_2
    2  A    between atoms: C_2  and  O_29
    3  A    between atoms: C_3  and  O_36
    4  A    between atoms: C_4  and  C_55
    5  A    between atoms: C_7  and  C_35
    6  A    between atoms: C_7  and  N_44
    7  A    between atoms: N_9  and  C_23
    8  A    between atoms: N_9  and  C_37
    9  A    between atoms: C_22  and  O_29
   10  A    between atoms: C_24  and  C_39
   11  A    between atoms: C_30  and  C_48
   12  A    between atoms: C_32  and  C_62
   13  A    between atoms: C_37  and  C_54
   14  A    between atoms: C_37  and  C_55
   15  A    between atoms: C_39  and  N_45
   16  A    between atoms: C_48  and  C_63
   17  A    between atoms: C_52  and  C_53
   18  A    between atoms: C_52  and  C_62
   19  A    between atoms: C_53  and  C_63
                            x       y       z     vdW  Elec       q    Type
                         _______ _______ _______ _____ _____    ______ ____

>  <TORSDO>
F 19

$$$$
=
 OpenBabel11042417173D

 63 69  0  0  1  0  0  0  0  0999 V2000
  189.2990  174.0680  140.9140 C   0  0  1  0  0  3  0  0  0  0  0  0
  191.7190  173.0370  140.4800 S   0  0  0  0  0  0  0  0  0  0  0  0
  190.7510  173.5550  139.0360 C   0  0  2  0  0  3  0  0  0  0  0  0
  190.4270  173.5210  141.7230 C   0  0  1  0  0  3  0  0  0  0  0  0
  189.3020  173.6160  139.4920 C   0  0  0  0  0  2  0  0  0  0  0  0
  187.7120  172.6400  141.6980 C   0  0  0  0  0  1  0  0  0  0  0  0
  188.0930  174.0300  141.5620 O   0  0  0  0  0  0  0  0  0  0  0  0
  190.7890  174.2960  143.0580 C   0  0  2  0  0  3  0  0  0  0  0  0
  191.8060  175.3030  142.7460 N   0  0  0  0  0  2  0  0  0  0  0  0
  191.3740  176.6240  142.4670 C   0  0  2  0  0  3  0  0  0  0  0  0
  191.2990  177.3930  143.7510 C   0  0  0  0  0  2  0  0  0  0  0  0
  190.0510  176.8590  143.0620 N   0  0  0  0  0  0  0  0  0  0  0  0
  189.2030  178.0040  142.5340 C   0  0  0  0  0  2  0  0  0  0  0  0
  187.3540  178.0560  144.3790 C   0  0  0  0  0  0  0  0  0  0  0  0
  187.7390  177.7910  142.9260 C   0  0  1  0  0  3  0  0  0  0  0  0
  185.2760  179.0460  143.6650 C   0  0  0  0  0  2  0  0  0  0  0  0
  187.0310  178.6940  142.0790 O   0  0  0  0  0  0  0  0  0  0  0  0
  186.0170  178.2730  144.6670 N   0  0  0  0  0  0  0  0  0  0  0  0
  188.2100  178.0970  145.3370 O   0  0  0  0  0  0  0  0  0  0  0  0
  185.6580  178.5220  142.2810 C   0  0  0  0  0  2  0  0  0  0  0  0
  185.3210  177.4950  145.7050 C   0  0  0  0  0  2  0  0  0  0  0  0
  185.9400  177.5700  147.9760 F   0  0  0  0  0  0  0  0  0  0  0  0
  185.2410  178.2680  147.0300 C   0  0  0  0  0  0  0  0  0  0  0  0
  183.9360  178.4220  147.4330 F   0  0  0  0  0  0  0  0  0  0  0  0
  185.8110  179.5060  146.8870 F   0  0  0  0  0  0  0  0  0  0  0  0
  191.3370  173.3660  144.0750 C   0  0  0  0  0  2  0  0  0  0  0  0
  191.6420  174.0510  145.4320 C   0  0  2  0  0  3  0  0  0  0  0  0
  193.4490  175.3090  146.4090 N   0  0  0  0  0  0  0  0  0  0  0  0
  192.6310  176.1690  146.9150 C   0  0  0  0  0  0  0  0  0  0  0  0
  190.7250  176.6600  147.9660 N   0  0  0  0  0  0  0  0  0  0  0  0
  191.2440  175.9120  146.9170 N   0  0  0  0  0  0  0  0  0  0  0  0
  191.3190  178.2970  149.6780 C   0  0  0  0  0  1  0  0  0  0  0  0
  190.7100  174.6260  146.5070 C   0  0  1  0  0  3  0  0  0  0  0  0
  191.6620  177.3420  148.5310 C   0  0  0  0  0  0  0  0  0  0  0  0
  189.2470  174.7680  146.1100 C   0  0  0  0  0  1  0  0  0  0  0  0
  192.9880  177.1520  147.9410 N   0  0  0  0  0  2  0  0  0  0  0  0
  192.9650  174.2550  145.5620 C   0  0  0  0  0  2  0  0  0  0  0  0
  190.7460  172.6810  137.7490 C   0  0  0  0  0  2  0  0  0  0  0  0
  188.5460  171.9100  137.5740 F   0  0  0  0  0  0  0  0  0  0  0  0
  190.0470  170.8790  136.2310 F   0  0  0  0  0  0  0  0  0  0  0  0
  189.8340  171.4880  137.4840 C   0  0  0  0  0  0  0  0  0  0  0  0
  190.2380  170.5800  138.6240 C   0  0  0  0  0  2  0  0  0  0  0  0
  190.8350  168.2690  138.2210 O   0  0  0  0  0  0  0  0  0  0  0  0
  191.2070  169.4200  138.4380 C   0  0  0  0  0  0  0  0  0  0  0  0
  192.6600  169.7110  138.2590 C   0  0  0  0  0  2  0  0  0  0  0  0
  195.0140  170.1490  141.3070 C   0  0  2  0  0  3  0  0  0  0  0  0
  194.5380  170.7970  142.6270 C   0  0  1  0  0  3  0  0  0  0  0  0
  195.8050  171.1300  140.4230 C   0  0  0  0  0  2  0  0  0  0  0  0
  196.6140  172.0680  141.2560 C   0  0  2  0  0  3  0  0  0  0  0  0
  194.3050  168.1660  139.0580 O   0  0  0  0  0  0  0  0  0  0  0  0
  195.5560  173.0810  141.8100 C   0  0  1  0  0  3  0  0  0  0  0  0
  193.7900  169.7600  140.6620 N   0  0  0  0  0  0  0  0  0  0  0  0
  197.6260  172.6110  140.4510 O   0  0  0  0  0  1  0  0  0  0  0  0
  193.6310  169.2060  139.3200 C   0  0  0  0  0  0  0  0  0  0  0  0
  194.6350  172.3450  142.8040 C   0  0  0  0  0  2  0  0  0  0  0  0
  192.5740  170.0580  143.9430 O   0  0  0  0  0  0  0  0  0  0  0  0
  192.6840  169.7800  141.5620 N   0  0  0  0  0  2  0  0  0  0  0  0
  193.1790  170.2290  142.8080 C   0  0  0  0  0  0  0  0  0  0  0  0
  196.1780  174.1840  142.4480 O   0  0  0  0  0  0  0  0  0  0  0  0
  195.4470  175.4210  142.3170 C   0  0  1  0  0  3  0  0  0  0  0  0
  195.4290  176.2570  143.5870 C   0  0  0  0  0  1  0  0  0  0  0  0
  195.8010  176.2560  141.1540 N   0  0  0  0  0  2  0  0  0  0  0  0
  197.0600  175.9840  140.7230 O   0  0  0  0  0  1  0  0  0  0  0  0
  1  7  1  1  0  0  0
  1  4  1  0  0  0  0
  2  4  1  0  0  0  0
  3 38  1  6  0  0  0
  3  5  1  0  0  0  0
  3  2  1  0  0  0  0
  4  8  1  1  0  0  0
  5  1  1  0  0  0  0
  7  6  1  0  0  0  0
  8 26  1  1  0  0  0
  9  8  1  0  0  0  0
 10  9  1  1  0  0  0
 10 12  1  0  0  0  0
 10 11  1  0  0  0  0
 12 11  1  0  0  0  0
 13 12  1  0  0  0  0
 14 18  1  0  0  0  0
 14 19  2  0  0  0  0
 15 13  1  1  0  0  0
 15 14  1  0  0  0  0
 16 18  1  0  0  0  0
 17 20  1  0  0  0  0
 17 15  1  0  0  0  0
 18 21  1  0  0  0  0
 20 16  1  0  0  0  0
 21 23  1  0  0  0  0
 23 24  1  0  0  0  0
 23 22  1  0  0  0  0
 25 23  1  0  0  0  0
 27 26  1  6  0  0  0
 27 37  1  0  0  0  0
 27 33  1  0  0  0  0
 28 29  2  0  0  0  0
 29 31  1  0  0  0  0
 29 36  1  0  0  0  0
 30 34  2  0  0  0  0
 31 30  1  0  0  0  0
 33 35  1  6  0  0  0
 33 31  1  0  0  0  0
 34 32  1  0  0  0  0
 36 34  1  0  0  0  0
 37 28  1  0  0  0  0
 40 41  1  0  0  0  0
 41 39  1  0  0  0  0
 41 38  1  0  0  0  0
 41 42  1  0  0  0  0
 43 44  2  0  0  0  0
 44 42  1  0  0  0  0
 45 44  1  0  0  0  0
 45 54  1  0  0  0  0
 46 48  1  6  0  0  0
 46 47  1  0  0  0  0
 47 55  1  6  0  0  0
 47 58  1  0  0  0  0
 48 49  1  0  0  0  0
 49 53  1  6  0  0  0
 49 51  1  0  0  0  0
 50 54  2  0  0  0  0
 51 59  1  1  0  0  0
 51 55  1  0  0  0  0
 52 46  1  0  0  0  0
 52 57  1  0  0  0  0
 54 52  1  0  0  0  0
 57 58  1  0  0  0  0
 58 56  2  0  0  0  0
 60 59  1  0  0  0  0
 60 61  1  1  0  0  0
 62 60  1  0  0  0  0
 63 62  1  0  0  0  0
M  END
>  <MODEL>
4

>  <REMARK>
 VINA RESULT:      -6.4      3.282      6.356
  Name = 
  19 active torsions:
  status: ('A' for Active; 'I' for Inactive)
    1  A    between atoms: N_1  and  C_2
    2  A    between atoms: C_2  and  O_29
    3  A    between atoms: C_3  and  O_36
    4  A    between atoms: C_4  and  C_55
    5  A    between atoms: C_7  and  C_35
    6  A    between atoms: C_7  and  N_44
    7  A    between atoms: N_9  and  C_23
    8  A    between atoms: N_9  and  C_37
    9  A    between atoms: C_22  and  O_29
   10  A    between atoms: C_24  and  C_39
   11  A    between atoms: C_30  and  C_48
   12  A    between atoms: C_32  and  C_62
   13  A    between atoms: C_37  and  C_54
   14  A    between atoms: C_37  and  C_55
   15  A    between atoms: C_39  and  N_45
   16  A    between atoms: C_48  and  C_63
   17  A    between atoms: C_52  and  C_53
   18  A    between atoms: C_52  and  C_62
   19  A    between atoms: C_53  and  C_63
                            x       y       z     vdW  Elec       q    Type
                         _______ _______ _______ _____ _____    ______ ____

>  <TORSDO>
F 19

$$$$
=
 OpenBabel11042417173D

 63 69  0  0  1  0  0  0  0  0999 V2000
  190.0570  172.2820  141.0170 C   0  0  1  0  0  3  0  0  0  0  0  0
  189.2740  173.8420  139.0020 S   0  0  0  0  0  0  0  0  0  0  0  0
  189.0340  172.0520  138.8270 C   0  0  2  0  0  3  0  0  0  0  0  0
  190.0380  173.7380  140.6910 C   0  0  1  0  0  3  0  0  0  0  0  0
  189.9780  171.3950  139.8210 C   0  0  0  0  0  2  0  0  0  0  0  0
  190.9930  170.5040  142.0820 C   0  0  0  0  0  1  0  0  0  0  0  0
  190.9890  171.9460  141.9640 O   0  0  0  0  0  0  0  0  0  0  0  0
  189.6340  174.7270  141.8630 C   0  0  2  0  0  3  0  0  0  0  0  0
  189.0290  175.9220  141.2690 N   0  0  0  0  0  2  0  0  0  0  0  0
  187.6520  176.1610  141.5040 C   0  0  2  0  0  3  0  0  0  0  0  0
  187.0630  176.8350  140.3030 C   0  0  0  0  0  2  0  0  0  0  0  0
  187.3950  177.6060  141.5730 N   0  0  0  0  0  0  0  0  0  0  0  0
  186.1240  178.0930  142.2490 C   0  0  0  0  0  2  0  0  0  0  0  0
  185.6900  179.0230  144.6510 C   0  0  0  0  0  0  0  0  0  0  0  0
  186.2370  177.9080  143.7650 C   0  0  1  0  0  3  0  0  0  0  0  0
  184.8300  177.3900  146.2010 C   0  0  0  0  0  2  0  0  0  0  0  0
  185.5060  176.7080  144.0100 O   0  0  0  0  0  0  0  0  0  0  0  0
  185.4040  178.7200  145.9720 N   0  0  0  0  0  0  0  0  0  0  0  0
  185.4750  180.2180  144.2270 O   0  0  0  0  0  0  0  0  0  0  0  0
  185.6180  176.3810  145.3660 C   0  0  0  0  0  2  0  0  0  0  0  0
  185.9550  179.5190  147.0780 C   0  0  0  0  0  2  0  0  0  0  0  0
  187.3690  179.4830  148.9620 F   0  0  0  0  0  0  0  0  0  0  0  0
  186.8160  178.6610  148.0180 C   0  0  0  0  0  0  0  0  0  0  0  0
  187.8100  178.0140  147.3230 F   0  0  0  0  0  0  0  0  0  0  0  0
  186.0350  177.7280  148.6490 F   0  0  0  0  0  0  0  0  0  0  0  0
  190.8270  175.1350  142.6440 C   0  0  0  0  0  2  0  0  0  0  0  0
  190.5130  175.4350  144.1320 C   0  0  2  0  0  3  0  0  0  0  0  0
  190.7410  174.3050  146.2470 N   0  0  0  0  0  0  0  0  0  0  0  0
  191.1880  175.3730  146.8170 C   0  0  0  0  0  0  0  0  0  0  0  0
  191.1130  177.5780  147.1510 N   0  0  0  0  0  0  0  0  0  0  0  0
  191.1140  176.6150  146.1500 N   0  0  0  0  0  0  0  0  0  0  0  0
  191.3060  177.8850  149.5660 C   0  0  0  0  0  1  0  0  0  0  0  0
  190.4000  176.7610  144.8950 C   0  0  1  0  0  3  0  0  0  0  0  0
  191.2190  177.0180  148.3070 C   0  0  0  0  0  0  0  0  0  0  0  0
  190.8900  177.9970  144.1530 C   0  0  0  0  0  1  0  0  0  0  0  0
  191.3050  175.5570  148.2650 N   0  0  0  0  0  2  0  0  0  0  0  0
  190.4710  174.2900  144.8370 C   0  0  0  0  0  2  0  0  0  0  0  0
  189.3170  171.3600  137.4630 C   0  0  0  0  0  2  0  0  0  0  0  0
  189.4830  171.2370  135.1350 F   0  0  0  0  0  0  0  0  0  0  0  0
  189.1350  173.3080  135.9750 F   0  0  0  0  0  0  0  0  0  0  0  0
  189.7560  172.0590  136.1820 C   0  0  0  0  0  0  0  0  0  0  0  0
  191.2370  172.2050  136.4470 C   0  0  0  0  0  2  0  0  0  0  0  0
  191.9810  174.0420  135.0560 O   0  0  0  0  0  0  0  0  0  0  0  0
  191.9930  173.4960  136.1570 C   0  0  0  0  0  0  0  0  0  0  0  0
  192.5650  174.2720  137.2960 C   0  0  0  0  0  2  0  0  0  0  0  0
  196.1040  174.5410  138.8530 C   0  0  2  0  0  3  0  0  0  0  0  0
  196.8050  173.3350  139.5160 C   0  0  1  0  0  3  0  0  0  0  0  0
  195.4650  175.4890  139.8840 C   0  0  0  0  0  2  0  0  0  0  0  0
  196.2820  175.5530  141.1320 C   0  0  2  0  0  3  0  0  0  0  0  0
  194.4380  175.4940  136.4420 O   0  0  0  0  0  0  0  0  0  0  0  0
  195.9660  174.2010  141.8550 C   0  0  1  0  0  3  0  0  0  0  0  0
  195.0950  173.9350  138.0290 N   0  0  0  0  0  0  0  0  0  0  0  0
  195.9350  176.7210  141.8260 O   0  0  0  0  0  1  0  0  0  0  0  0
  194.0500  174.6100  137.2620 C   0  0  0  0  0  0  0  0  0  0  0  0
  196.5680  173.0440  141.0320 C   0  0  0  0  0  2  0  0  0  0  0  0
  197.1850  171.1410  138.4290 O   0  0  0  0  0  0  0  0  0  0  0  0
  195.3210  172.5390  137.8510 N   0  0  0  0  0  2  0  0  0  0  0  0
  196.4730  172.2110  138.6040 C   0  0  0  0  0  0  0  0  0  0  0  0
  196.4870  174.1830  143.1730 O   0  0  0  0  0  0  0  0  0  0  0  0
  195.5000  173.8950  144.1850 C   0  0  1  0  0  3  0  0  0  0  0  0
  194.0810  173.7970  143.6440 C   0  0  0  0  0  1  0  0  0  0  0  0
  195.7970  172.7490  145.0640 N   0  0  0  0  0  2  0  0  0  0  0  0
  196.3670  171.7330  144.3650 O   0  0  0  0  0  1  0  0  0  0  0  0
  1  7  1  6  0  0  0
  2  4  1  0  0  0  0
  3 38  1  6  0  0  0
  3  2  1  0  0  0  0
  3  5  1  0  0  0  0
  4  1  1  0  0  0  0
  4  8  1  1  0  0  0
  5  1  1  0  0  0  0
  7  6  1  0  0  0  0
  8 26  1  6  0  0  0
  9  8  1  0  0  0  0
 10  9  1  6  0  0  0
 10 12  1  0  0  0  0
 11 10  1  0  0  0  0
 11 12  1  0  0  0  0
 12 13  1  0  0  0  0
 14 18  1  0  0  0  0
 15 13  1  6  0  0  0
 15 17  1  0  0  0  0
 15 14  1  0  0  0  0
 17 20  1  0  0  0  0
 18 16  1  0  0  0  0
 18 21  1  0  0  0  0
 19 14  2  0  0  0  0
 20 16  1  0  0  0  0
 21 23  1  0  0  0  0
 23 25  1  0  0  0  0
 23 22  1  0  0  0  0
 24 23  1  0  0  0  0
 27 26  1  1  0  0  0
 27 37  1  0  0  0  0
 27 33  1  0  0  0  0
 28 29  2  0  0  0  0
 29 36  1  0  0  0  0
 30 34  2  0  0  0  0
 31 29  1  0  0  0  0
 31 30  1  0  0  0  0
 33 35  1  6  0  0  0
 33 31  1  0  0  0  0
 34 32  1  0  0  0  0
 36 34  1  0  0  0  0
 37 28  1  0  0  0  0
 39 41  1  0  0  0  0
 40 41  1  0  0  0  0
 41 42  1  0  0  0  0
 41 38  1  0  0  0  0
 43 44  2  0  0  0  0
 44 42  1  0  0  0  0
 44 45  1  0  0  0  0
 46 47  1  0  0  0  0
 46 48  1  1  0  0  0
 47 55  1  1  0  0  0
 48 49  1  0  0  0  0
 49 53  1  1  0  0  0
 49 51  1  0  0  0  0
 50 54  2  0  0  0  0
 51 59  1  1  0  0  0
 52 46  1  0  0  0  0
 54 45  1  0  0  0  0
 54 52  1  0  0  0  0
 55 51  1  0  0  0  0
 56 58  2  0  0  0  0
 57 52  1  0  0  0  0
 57 58  1  0  0  0  0
 58 47  1  0  0  0  0
 59 60  1  0  0  0  0
 60 61  1  6  0  0  0
 60 62  1  0  0  0  0
 63 62  1  0  0  0  0
M  END
>  <MODEL>
5

>  <REMARK>
 VINA RESULT:      -6.3      3.147      6.863
  Name = 
  19 active torsions:
  status: ('A' for Active; 'I' for Inactive)
    1  A    between atoms: N_1  and  C_2
    2  A    between atoms: C_2  and  O_29
    3  A    between atoms: C_3  and  O_36
    4  A    between atoms: C_4  and  C_55
    5  A    between atoms: C_7  and  C_35
    6  A    between atoms: C_7  and  N_44
    7  A    between atoms: N_9  and  C_23
    8  A    between atoms: N_9  and  C_37
    9  A    between atoms: C_22  and  O_29
   10  A    between atoms: C_24  and  C_39
   11  A    between atoms: C_30  and  C_48
   12  A    between atoms: C_32  and  C_62
   13  A    between atoms: C_37  and  C_54
   14  A    between atoms: C_37  and  C_55
   15  A    between atoms: C_39  and  N_45
   16  A    between atoms: C_48  and  C_63
   17  A    between atoms: C_52  and  C_53
   18  A    between atoms: C_52  and  C_62
   19  A    between atoms: C_53  and  C_63
                            x       y       z     vdW  Elec       q    Type
                         _______ _______ _______ _____ _____    ______ ____

>  <TORSDO>
F 19

$$$$
=
 OpenBabel11042417173D

 63 69  0  0  1  0  0  0  0  0999 V2000
  192.5390  173.4280  141.8350 C   0  0  1  0  0  3  0  0  0  0  0  0
  191.1040  171.6590  143.2200 S   0  0  0  0  0  0  0  0  0  0  0  0
  192.8230  171.2310  142.8290 C   0  0  2  0  0  3  0  0  0  0  0  0
  191.1540  173.3130  142.3780 C   0  0  1  0  0  3  0  0  0  0  0  0
  193.2300  172.1170  141.6630 C   0  0  0  0  0  2  0  0  0  0  0  0
  193.8860  175.0390  140.9620 C   0  0  0  0  0  1  0  0  0  0  0  0
  192.6460  174.3130  140.7940 O   0  0  0  0  0  0  0  0  0  0  0  0
  190.5360  174.6160  143.0390 C   0  0  2  0  0  3  0  0  0  0  0  0
  189.5670  174.2000  144.0560 N   0  0  0  0  0  2  0  0  0  0  0  0
  190.0310  174.0060  145.3810 C   0  0  2  0  0  3  0  0  0  0  0  0
  189.3530  174.9900  146.2840 C   0  0  0  0  0  2  0  0  0  0  0  0
  190.7930  175.1800  145.8270 N   0  0  0  0  0  0  0  0  0  0  0  0
  191.7480  175.0320  146.9990 C   0  0  0  0  0  2  0  0  0  0  0  0
  193.9740  174.4480  145.7620 C   0  0  0  0  0  0  0  0  0  0  0  0
  193.1590  175.4490  146.5760 C   0  0  1  0  0  3  0  0  0  0  0  0
  194.8480  176.2380  144.4050 C   0  0  0  0  0  2  0  0  0  0  0  0
  192.9410  176.6240  145.7970 O   0  0  0  0  0  0  0  0  0  0  0  0
  195.0490  174.9270  145.0320 N   0  0  0  0  0  0  0  0  0  0  0  0
  193.7030  173.1920  145.7160 O   0  0  0  0  0  0  0  0  0  0  0  0
  194.1810  177.1570  145.4280 C   0  0  0  0  0  2  0  0  0  0  0  0
  196.3910  174.3400  145.1700 C   0  0  0  0  0  2  0  0  0  0  0  0
  197.5300  172.5140  144.2110 F   0  0  0  0  0  0  0  0  0  0  0  0
  196.8390  173.6470  143.8740 C   0  0  0  0  0  0  0  0  0  0  0  0
  197.6380  174.4740  143.1220 F   0  0  0  0  0  0  0  0  0  0  0  0
  195.7450  173.2890  143.1300 F   0  0  0  0  0  0  0  0  0  0  0  0
  189.8360  175.4400  142.0240 C   0  0  0  0  0  2  0  0  0  0  0  0
  188.6590  176.2630  142.6070 C   0  0  2  0  0  3  0  0  0  0  0  0
  186.3580  175.8750  143.2020 N   0  0  0  0  0  0  0  0  0  0  0  0
  186.4890  176.5290  144.3060 C   0  0  0  0  0  0  0  0  0  0  0  0
  187.2740  178.2740  145.4540 N   0  0  0  0  0  0  0  0  0  0  0  0
  187.6490  177.2980  144.5400 N   0  0  0  0  0  0  0  0  0  0  0  0
  185.4170  179.0380  146.8440 C   0  0  0  0  0  1  0  0  0  0  0  0
  188.6420  177.5100  143.5010 C   0  0  1  0  0  3  0  0  0  0  0  0
  186.0400  178.1160  145.7920 C   0  0  0  0  0  0  0  0  0  0  0  0
  189.9760  177.9000  144.1220 C   0  0  0  0  0  1  0  0  0  0  0  0
  185.3750  176.9860  145.1410 N   0  0  0  0  0  2  0  0  0  0  0  0
  187.4910  175.6480  142.3500 C   0  0  0  0  0  2  0  0  0  0  0  0
  193.1840  169.7810  142.3960 C   0  0  0  0  0  2  0  0  0  0  0  0
  195.4690  170.0320  142.8230 F   0  0  0  0  0  0  0  0  0  0  0  0
  194.5010  168.2130  143.7560 F   0  0  0  0  0  0  0  0  0  0  0  0
  194.5150  169.0810  142.6450 C   0  0  0  0  0  0  0  0  0  0  0  0
  194.6710  168.3260  141.3450 C   0  0  0  0  0  2  0  0  0  0  0  0
  193.4480  168.8610  139.3250 O   0  0  0  0  0  0  0  0  0  0  0  0
  194.4750  168.9910  139.9880 C   0  0  0  0  0  0  0  0  0  0  0  0
  195.4430  170.0370  139.5470 C   0  0  0  0  0  2  0  0  0  0  0  0
  193.8490  172.0700  136.6570 C   0  0  2  0  0  3  0  0  0  0  0  0
  193.5800  173.5870  136.7690 C   0  0  1  0  0  3  0  0  0  0  0  0
  192.5830  171.2290  136.9030 C   0  0  0  0  0  2  0  0  0  0  0  0
  191.3690  171.9240  136.3830 C   0  0  2  0  0  3  0  0  0  0  0  0
  195.8680  169.8060  137.2020 O   0  0  0  0  0  0  0  0  0  0  0  0
  191.0960  173.0430  137.4430 C   0  0  1  0  0  3  0  0  0  0  0  0
  194.8270  171.8230  137.6800 N   0  0  0  0  0  0  0  0  0  0  0  0
  190.3540  170.9710  136.2150 O   0  0  0  0  0  1  0  0  0  0  0  0
  195.3600  170.5320  138.1080 C   0  0  0  0  0  0  0  0  0  0  0  0
  192.2280  174.0880  137.3680 C   0  0  0  0  0  2  0  0  0  0  0  0
  195.2820  175.2900  137.3520 O   0  0  0  0  0  0  0  0  0  0  0  0
  195.4220  173.0310  138.1500 N   0  0  0  0  0  2  0  0  0  0  0  0
  194.7950  174.0930  137.4570 C   0  0  0  0  0  0  0  0  0  0  0  0
  189.8420  173.6670  137.2280 O   0  0  0  0  0  0  0  0  0  0  0  0
  188.8620  173.3720  138.2460 C   0  0  1  0  0  3  0  0  0  0  0  0
  189.4120  172.5500  139.4030 C   0  0  0  0  0  1  0  0  0  0  0  0
  188.0940  174.5250  138.7520 N   0  0  0  0  0  2  0  0  0  0  0  0
  187.4410  175.1570  137.7430 O   0  0  0  0  0  1  0  0  0  0  0  0
  1  7  1  6  0  0  0
  1  4  1  0  0  0  0
  3 38  1  6  0  0  0
  3  2  1  0  0  0  0
  4  8  1  1  0  0  0
  4  2  1  0  0  0  0
  5  1  1  0  0  0  0
  5  3  1  0  0  0  0
  7  6  1  0  0  0  0
  8 26  1  6  0  0  0
  8  9  1  0  0  0  0
 10  9  1  6  0  0  0
 10 12  1  0  0  0  0
 10 11  1  0  0  0  0
 12 11  1  0  0  0  0
 12 13  1  0  0  0  0
 14 15  1  0  0  0  0
 15 13  1  6  0  0  0
 16 18  1  0  0  0  0
 16 20  1  0  0  0  0
 17 15  1  0  0  0  0
 18 21  1  0  0  0  0
 18 14  1  0  0  0  0
 19 14  2  0  0  0  0
 20 17  1  0  0  0  0
 23 22  1  0  0  0  0
 23 21  1  0  0  0  0
 24 23  1  0  0  0  0
 25 23  1  0  0  0  0
 27 26  1  1  0  0  0
 27 33  1  0  0  0  0
 28 29  2  0  0  0  0
 29 31  1  0  0  0  0
 29 36  1  0  0  0  0
 30 34  2  0  0  0  0
 31 30  1  0  0  0  0
 33 35  1  1  0  0  0
 33 31  1  0  0  0  0
 34 32  1  0  0  0  0
 36 34  1  0  0  0  0
 37 27  1  0  0  0  0
 37 28  1  0  0  0  0
 38 41  1  0  0  0  0
 41 39  1  0  0  0  0
 41 40  1  0  0  0  0
 42 41  1  0  0  0  0
 43 44  2  0  0  0  0
 44 42  1  0  0  0  0
 45 44  1  0  0  0  0
 46 47  1  0  0  0  0
 46 48  1  1  0  0  0
 46 52  1  0  0  0  0
 47 55  1  1  0  0  0
 47 58  1  0  0  0  0
 49 53  1  1  0  0  0
 49 48  1  0  0  0  0
 49 51  1  0  0  0  0
 50 54  2  0  0  0  0
 51 59  1  6  0  0  0
 52 54  1  0  0  0  0
 52 57  1  0  0  0  0
 54 45  1  0  0  0  0
 55 51  1  0  0  0  0
 56 58  2  0  0  0  0
 58 57  1  0  0  0  0
 59 60  1  0  0  0  0
 60 62  1  0  0  0  0
 60 61  1  1  0  0  0
 63 62  1  0  0  0  0
M  END
>  <MODEL>
6

>  <REMARK>
 VINA RESULT:      -6.1      3.538      7.064
  Name = 
  19 active torsions:
  status: ('A' for Active; 'I' for Inactive)
    1  A    between atoms: N_1  and  C_2
    2  A    between atoms: C_2  and  O_29
    3  A    between atoms: C_3  and  O_36
    4  A    between atoms: C_4  and  C_55
    5  A    between atoms: C_7  and  C_35
    6  A    between atoms: C_7  and  N_44
    7  A    between atoms: N_9  and  C_23
    8  A    between atoms: N_9  and  C_37
    9  A    between atoms: C_22  and  O_29
   10  A    between atoms: C_24  and  C_39
   11  A    between atoms: C_30  and  C_48
   12  A    between atoms: C_32  and  C_62
   13  A    between atoms: C_37  and  C_54
   14  A    between atoms: C_37  and  C_55
   15  A    between atoms: C_39  and  N_45
   16  A    between atoms: C_48  and  C_63
   17  A    between atoms: C_52  and  C_53
   18  A    between atoms: C_52  and  C_62
   19  A    between atoms: C_53  and  C_63
                            x       y       z     vdW  Elec       q    Type
                         _______ _______ _______ _____ _____    ______ ____

>  <TORSDO>
F 19

$$$$
=
 OpenBabel11042417173D

 63 69  0  0  1  0  0  0  0  0999 V2000
  188.6520  173.2010  140.0100 C   0  0  1  0  0  3  0  0  0  0  0  0
  189.9560  174.7240  141.7670 S   0  0  0  0  0  0  0  0  0  0  0  0
  188.2740  174.1930  142.1940 C   0  0  2  0  0  3  0  0  0  0  0  0
  189.9840  173.8620  140.1230 C   0  0  1  0  0  3  0  0  0  0  0  0
  187.6050  173.8010  140.8870 C   0  0  0  0  0  2  0  0  0  0  0  0
  188.1670  174.1950  138.0230 C   0  0  0  0  0  1  0  0  0  0  0  0
  188.2820  172.9320  138.7190 O   0  0  0  0  0  0  0  0  0  0  0  0
  191.2390  173.0270  139.6290 C   0  0  2  0  0  3  0  0  0  0  0  0
  191.3260  171.8060  140.4330 N   0  0  0  0  0  2  0  0  0  0  0  0
  192.3080  170.8450  140.0850 C   0  0  2  0  0  3  0  0  0  0  0  0
  191.7430  169.4730  140.2930 C   0  0  0  0  0  2  0  0  0  0  0  0
  192.7250  170.0940  141.2780 N   0  0  0  0  0  0  0  0  0  0  0  0
  194.0490  169.3510  141.2500 C   0  0  0  0  0  2  0  0  0  0  0  0
  195.2560  170.7680  143.0840 C   0  0  0  0  0  0  0  0  0  0  0  0
  195.1870  170.3010  141.6330 C   0  0  1  0  0  3  0  0  0  0  0  0
  197.6590  170.5930  143.0440 C   0  0  0  0  0  2  0  0  0  0  0  0
  196.3630  169.5570  141.3210 O   0  0  0  0  0  0  0  0  0  0  0  0
  196.4600  171.2700  143.5480 N   0  0  0  0  0  0  0  0  0  0  0  0
  194.2560  170.7060  143.8910 O   0  0  0  0  0  0  0  0  0  0  0  0
  197.4820  170.3660  141.5420 C   0  0  0  0  0  2  0  0  0  0  0  0
  196.5400  172.5860  144.2020 C   0  0  0  0  0  2  0  0  0  0  0  0
  195.1500  172.3600  146.0900 F   0  0  0  0  0  0  0  0  0  0  0  0
  196.4670  172.4610  145.7310 C   0  0  0  0  0  0  0  0  0  0  0  0
  197.0350  173.5520  146.3440 F   0  0  0  0  0  0  0  0  0  0  0  0
  197.1210  171.3290  146.1420 F   0  0  0  0  0  0  0  0  0  0  0  0
  192.4910  173.8030  139.8050 C   0  0  0  0  0  2  0  0  0  0  0  0
  193.3240  173.9280  138.5030 C   0  0  2  0  0  3  0  0  0  0  0  0
  193.2600  175.2430  136.4860 N   0  0  0  0  0  0  0  0  0  0  0  0
  194.5340  175.4480  136.5300 C   0  0  0  0  0  0  0  0  0  0  0  0
  196.6120  174.7170  136.8820 N   0  0  0  0  0  0  0  0  0  0  0  0
  195.3370  174.7190  137.4330 N   0  0  0  0  0  0  0  0  0  0  0  0
  197.9410  175.5950  135.0310 C   0  0  0  0  0  1  0  0  0  0  0  0
  194.7980  173.6190  138.2120 C   0  0  1  0  0  3  0  0  0  0  0  0
  196.6250  175.3990  135.7890 C   0  0  0  0  0  0  0  0  0  0  0  0
  195.6740  173.3580  139.4290 C   0  0  0  0  0  1  0  0  0  0  0  0
  195.3310  175.9760  135.4210 N   0  0  0  0  0  2  0  0  0  0  0  0
  192.5990  174.5340  137.5460 C   0  0  0  0  0  2  0  0  0  0  0  0
  187.2960  175.1880  142.8810 C   0  0  0  0  0  2  0  0  0  0  0  0
  188.2130  177.3090  142.5260 F   0  0  0  0  0  0  0  0  0  0  0  0
  186.5070  176.7460  141.1510 F   0  0  0  0  0  0  0  0  0  0  0  0
  187.0400  176.6280  142.4510 C   0  0  0  0  0  0  0  0  0  0  0  0
  186.0430  177.0520  143.5060 C   0  0  0  0  0  2  0  0  0  0  0  0
  185.5740  178.6070  145.3010 O   0  0  0  0  0  0  0  0  0  0  0  0
  186.4120  177.9960  144.6430 C   0  0  0  0  0  0  0  0  0  0  0  0
  187.8150  178.0000  145.1550 C   0  0  0  0  0  2  0  0  0  0  0  0
  190.3980  175.6580  146.8490 C   0  0  2  0  0  3  0  0  0  0  0  0
  191.6550  176.2010  147.5640 C   0  0  1  0  0  3  0  0  0  0  0  0
  190.7050  175.1430  145.4310 C   0  0  0  0  0  2  0  0  0  0  0  0
  192.0600  174.5210  145.3680 C   0  0  2  0  0  3  0  0  0  0  0  0
  187.3670  176.0210  146.4260 O   0  0  0  0  0  0  0  0  0  0  0  0
  193.0340  175.7480  145.3690 C   0  0  1  0  0  3  0  0  0  0  0  0
  189.5220  176.7960  146.7950 N   0  0  0  0  0  0  0  0  0  0  0  0
  192.1130  173.6920  144.2390 O   0  0  0  0  0  1  0  0  0  0  0  0
  188.2320  176.8940  146.1160 C   0  0  0  0  0  0  0  0  0  0  0  0
  192.9640  176.4380  146.7460 C   0  0  0  0  0  2  0  0  0  0  0  0
  191.6390  177.8920  149.3730 O   0  0  0  0  0  0  0  0  0  0  0  0
  189.9460  177.8360  147.6740 N   0  0  0  0  0  2  0  0  0  0  0  0
  191.1430  177.3940  148.2840 C   0  0  0  0  0  0  0  0  0  0  0  0
  194.3650  175.3530  145.0880 O   0  0  0  0  0  0  0  0  0  0  0  0
  194.9070  175.9420  143.8880 C   0  0  1  0  0  3  0  0  0  0  0  0
  196.4180  176.1240  143.9240 C   0  0  0  0  0  1  0  0  0  0  0  0
  194.4940  175.3120  142.6200 N   0  0  0  0  0  2  0  0  0  0  0  0
  194.4750  176.2180  141.6080 O   0  0  0  0  0  1  0  0  0  0  0  0
  1  7  1  6  0  0  0
  1  4  1  0  0  0  0
  1  5  1  0  0  0  0
  2  3  1  0  0  0  0
  3 38  1  6  0  0  0
  4  8  1  1  0  0  0
  4  2  1  0  0  0  0
  5  3  1  0  0  0  0
  6  7  1  0  0  0  0
  8 26  1  1  0  0  0
  8  9  1  0  0  0  0
 10 11  1  0  0  0  0
 10  9  1  1  0  0  0
 10 12  1  0  0  0  0
 11 12  1  0  0  0  0
 13 12  1  0  0  0  0
 14 18  1  0  0  0  0
 14 19  2  0  0  0  0
 15 13  1  1  0  0  0
 15 14  1  0  0  0  0
 16 18  1  0  0  0  0
 17 20  1  0  0  0  0
 17 15  1  0  0  0  0
 18 21  1  0  0  0  0
 20 16  1  0  0  0  0
 21 23  1  0  0  0  0
 23 22  1  0  0  0  0
 23 25  1  0  0  0  0
 23 24  1  0  0  0  0
 27 26  1  1  0  0  0
 28 29  2  0  0  0  0
 28 37  1  0  0  0  0
 29 31  1  0  0  0  0
 30 31  1  0  0  0  0
 31 33  1  0  0  0  0
 32 34  1  0  0  0  0
 33 27  1  0  0  0  0
 33 35  1  1  0  0  0
 34 30  2  0  0  0  0
 36 34  1  0  0  0  0
 36 29  1  0  0  0  0
 37 27  1  0  0  0  0
 40 41  1  0  0  0  0
 41 39  1  0  0  0  0
 41 38  1  0  0  0  0
 41 42  1  0  0  0  0
 42 44  1  0  0  0  0
 44 45  1  0  0  0  0
 44 43  2  0  0  0  0
 45 54  1  0  0  0  0
 46 48  1  6  0  0  0
 46 47  1  0  0  0  0
 47 55  1  6  0  0  0
 47 58  1  0  0  0  0
 49 53  1  6  0  0  0
 49 51  1  0  0  0  0
 49 48  1  0  0  0  0
 51 59  1  1  0  0  0
 51 55  1  0  0  0  0
 52 46  1  0  0  0  0
 52 57  1  0  0  0  0
 54 50  2  0  0  0  0
 54 52  1  0  0  0  0
 57 58  1  0  0  0  0
 58 56  2  0  0  0  0
 60 61  1  1  0  0  0
 60 59  1  0  0  0  0
 62 60  1  0  0  0  0
 63 62  1  0  0  0  0
M  END
>  <MODEL>
7

>  <REMARK>
 VINA RESULT:      -6.1      2.437      9.235
  Name = 
  19 active torsions:
  status: ('A' for Active; 'I' for Inactive)
    1  A    between atoms: N_1  and  C_2
    2  A    between atoms: C_2  and  O_29
    3  A    between atoms: C_3  and  O_36
    4  A    between atoms: C_4  and  C_55
    5  A    between atoms: C_7  and  C_35
    6  A    between atoms: C_7  and  N_44
    7  A    between atoms: N_9  and  C_23
    8  A    between atoms: N_9  and  C_37
    9  A    between atoms: C_22  and  O_29
   10  A    between atoms: C_24  and  C_39
   11  A    between atoms: C_30  and  C_48
   12  A    between atoms: C_32  and  C_62
   13  A    between atoms: C_37  and  C_54
   14  A    between atoms: C_37  and  C_55
   15  A    between atoms: C_39  and  N_45
   16  A    between atoms: C_48  and  C_63
   17  A    between atoms: C_52  and  C_53
   18  A    between atoms: C_52  and  C_62
   19  A    between atoms: C_53  and  C_63
                            x       y       z     vdW  Elec       q    Type
                         _______ _______ _______ _____ _____    ______ ____

>  <TORSDO>
F 19

$$$$
=
 OpenBabel11042417173D

 63 69  0  0  1  0  0  0  0  0999 V2000
  193.5180  170.9890  141.0950 C   0  0  1  0  0  3  0  0  0  0  0  0
  191.5090  170.7680  142.8330 S   0  0  0  0  0  0  0  0  0  0  0  0
  193.1980  170.8060  143.4940 C   0  0  2  0  0  3  0  0  0  0  0  0
  192.0280  170.9180  141.0570 C   0  0  1  0  0  3  0  0  0  0  0  0
  194.1170  170.4340  142.3430 C   0  0  0  0  0  2  0  0  0  0  0  0
  193.9440  169.1900  139.7700 C   0  0  0  0  0  1  0  0  0  0  0  0
  194.1130  170.6190  139.9170 O   0  0  0  0  0  0  0  0  0  0  0  0
  191.2920  171.8880  140.0410 C   0  0  2  0  0  3  0  0  0  0  0  0
  190.1940  172.5490  140.7490 N   0  0  0  0  0  2  0  0  0  0  0  0
  190.1820  173.9660  140.7900 C   0  0  2  0  0  3  0  0  0  0  0  0
  190.6730  174.4180  142.1320 C   0  0  0  0  0  2  0  0  0  0  0  0
  189.1930  174.4340  141.7720 N   0  0  0  0  0  0  0  0  0  0  0  0
  188.6840  175.8620  141.6740 C   0  0  0  0  0  2  0  0  0  0  0  0
  187.8620  176.6660  144.0200 C   0  0  0  0  0  0  0  0  0  0  0  0
  187.5280  176.0700  142.6560 C   0  0  1  0  0  3  0  0  0  0  0  0
  185.8400  177.9770  143.9600 C   0  0  0  0  0  2  0  0  0  0  0  0
  186.6520  176.9530  141.9570 O   0  0  0  0  0  0  0  0  0  0  0  0
  186.8320  177.2380  144.7490 N   0  0  0  0  0  0  0  0  0  0  0  0
  189.0490  176.6710  144.5140 O   0  0  0  0  0  0  0  0  0  0  0  0
  185.4980  177.1460  142.7250 C   0  0  0  0  0  2  0  0  0  0  0  0
  186.5640  176.8380  146.1390 C   0  0  0  0  0  2  0  0  0  0  0  0
  184.3330  177.5550  146.3730 F   0  0  0  0  0  0  0  0  0  0  0  0
  185.5970  177.8120  146.8290 C   0  0  0  0  0  0  0  0  0  0  0  0
  185.9350  179.1170  146.5590 F   0  0  0  0  0  0  0  0  0  0  0  0
  185.6230  177.6180  148.1850 F   0  0  0  0  0  0  0  0  0  0  0  0
  190.7330  171.1280  138.8970 C   0  0  0  0  0  2  0  0  0  0  0  0
  190.0860  172.0330  137.8170 C   0  0  2  0  0  3  0  0  0  0  0  0
  188.0810  173.3470  137.5830 N   0  0  0  0  0  0  0  0  0  0  0  0
  188.7360  174.3290  137.0630 C   0  0  0  0  0  0  0  0  0  0  0  0
  190.3060  175.1090  135.6820 N   0  0  0  0  0  0  0  0  0  0  0  0
  190.0790  174.1540  136.6650 N   0  0  0  0  0  0  0  0  0  0  0  0
  189.2830  176.9970  134.5190 C   0  0  0  0  0  1  0  0  0  0  0  0
  190.7080  172.8450  136.6740 C   0  0  1  0  0  3  0  0  0  0  0  0
  189.2520  175.8300  135.5110 C   0  0  0  0  0  0  0  0  0  0  0  0
  192.2230  172.9920  136.7120 C   0  0  0  0  0  1  0  0  0  0  0  0
  188.1230  175.4630  136.3660 N   0  0  0  0  0  2  0  0  0  0  0  0
  188.7730  172.1840  138.0640 C   0  0  0  0  0  2  0  0  0  0  0  0
  193.5950  169.8630  144.6660 C   0  0  0  0  0  2  0  0  0  0  0  0
  194.3890  169.5740  146.8460 F   0  0  0  0  0  0  0  0  0  0  0  0
  195.9630  169.5040  145.2220 F   0  0  0  0  0  0  0  0  0  0  0  0
  194.7480  170.0850  145.6390 C   0  0  0  0  0  0  0  0  0  0  0  0
  194.8180  171.5950  145.6350 C   0  0  0  0  0  2  0  0  0  0  0  0
  197.0620  172.3750  146.1050 O   0  0  0  0  0  0  0  0  0  0  0  0
  196.1060  172.3500  145.3320 C   0  0  0  0  0  0  0  0  0  0  0  0
  196.3320  172.8730  143.9520 C   0  0  0  0  0  2  0  0  0  0  0  0
  193.5040  175.5000  144.3050 C   0  0  2  0  0  3  0  0  0  0  0  0
  193.5970  176.6800  145.2980 C   0  0  1  0  0  3  0  0  0  0  0  0
  192.6410  174.3450  144.8450 C   0  0  0  0  0  2  0  0  0  0  0  0
  191.5090  174.8620  145.6680 C   0  0  2  0  0  3  0  0  0  0  0  0
  195.0160  173.8340  142.1990 O   0  0  0  0  0  0  0  0  0  0  0  0
  192.1870  175.2750  147.0180 C   0  0  1  0  0  3  0  0  0  0  0  0
  194.8700  175.0810  144.1500 N   0  0  0  0  0  0  0  0  0  0  0  0
  190.5300  173.8610  145.7500 O   0  0  0  0  0  1  0  0  0  0  0  0
  195.3650  173.9200  143.4140 C   0  0  0  0  0  0  0  0  0  0  0  0
  193.0970  176.4940  146.7650 C   0  0  0  0  0  2  0  0  0  0  0  0
  195.4570  178.3130  145.3900 O   0  0  0  0  0  0  0  0  0  0  0  0
  195.7860  176.0570  144.6420 N   0  0  0  0  0  2  0  0  0  0  0  0
  195.0100  177.1160  145.1690 C   0  0  0  0  0  0  0  0  0  0  0  0
  191.2230  175.5840  148.0100 O   0  0  0  0  0  0  0  0  0  0  0  0
  191.1240  176.9930  148.3070 C   0  0  1  0  0  3  0  0  0  0  0  0
  189.8820  177.6540  147.7270 C   0  0  0  0  0  1  0  0  0  0  0  0
  191.2910  177.3630  149.7250 N   0  0  0  0  0  2  0  0  0  0  0  0
  191.8880  178.5770  149.8460 O   0  0  0  0  0  1  0  0  0  0  0  0
  1  7  1  6  0  0  0
  1  5  1  0  0  0  0
  2  3  1  0  0  0  0
  3 38  1  1  0  0  0
  4  8  1  1  0  0  0
  4  1  1  0  0  0  0
  4  2  1  0  0  0  0
  5  3  1  0  0  0  0
  6  7  1  0  0  0  0
  8 26  1  6  0  0  0
  8  9  1  0  0  0  0
 10  9  1  1  0  0  0
 10 12  1  0  0  0  0
 10 11  1  0  0  0  0
 12 11  1  0  0  0  0
 13 12  1  0  0  0  0
 14 19  2  0  0  0  0
 14 18  1  0  0  0  0
 15 13  1  6  0  0  0
 15 14  1  0  0  0  0
 16 18  1  0  0  0  0
 17 15  1  0  0  0  0
 17 20  1  0  0  0  0
 18 21  1  0  0  0  0
 20 16  1  0  0  0  0
 21 23  1  0  0  0  0
 22 23  1  0  0  0  0
 23 25  1  0  0  0  0
 24 23  1  0  0  0  0
 27 37  1  0  0  0  0
 27 26  1  1  0  0  0
 28 37  1  0  0  0  0
 29 28  2  0  0  0  0
 30 31  1  0  0  0  0
 31 33  1  0  0  0  0
 31 29  1  0  0  0  0
 32 34  1  0  0  0  0
 33 35  1  1  0  0  0
 33 27  1  0  0  0  0
 34 30  2  0  0  0  0
 34 36  1  0  0  0  0
 36 29  1  0  0  0  0
 38 41  1  0  0  0  0
 40 41  1  0  0  0  0
 41 39  1  0  0  0  0
 42 41  1  0  0  0  0
 44 42  1  0  0  0  0
 44 43  2  0  0  0  0
 45 44  1  0  0  0  0
 46 48  1  1  0  0  0
 46 47  1  0  0  0  0
 47 55  1  1  0  0  0
 48 49  1  0  0  0  0
 49 53  1  1  0  0  0
 49 51  1  0  0  0  0
 50 54  2  0  0  0  0
 51 59  1  1  0  0  0
 52 46  1  0  0  0  0
 52 57  1  0  0  0  0
 54 45  1  0  0  0  0
 54 52  1  0  0  0  0
 55 51  1  0  0  0  0
 57 58  1  0  0  0  0
 58 47  1  0  0  0  0
 58 56  2  0  0  0  0
 59 60  1  0  0  0  0
 60 61  1  1  0  0  0
 60 62  1  0  0  0  0
 62 63  1  0  0  0  0
M  END
>  <MODEL>
8

>  <REMARK>
 VINA RESULT:      -6.1      2.925      6.139
  Name = 
  19 active torsions:
  status: ('A' for Active; 'I' for Inactive)
    1  A    between atoms: N_1  and  C_2
    2  A    between atoms: C_2  and  O_29
    3  A    between atoms: C_3  and  O_36
    4  A    between atoms: C_4  and  C_55
    5  A    between atoms: C_7  and  C_35
    6  A    between atoms: C_7  and  N_44
    7  A    between atoms: N_9  and  C_23
    8  A    between atoms: N_9  and  C_37
    9  A    between atoms: C_22  and  O_29
   10  A    between atoms: C_24  and  C_39
   11  A    between atoms: C_30  and  C_48
   12  A    between atoms: C_32  and  C_62
   13  A    between atoms: C_37  and  C_54
   14  A    between atoms: C_37  and  C_55
   15  A    between atoms: C_39  and  N_45
   16  A    between atoms: C_48  and  C_63
   17  A    between atoms: C_52  and  C_53
   18  A    between atoms: C_52  and  C_62
   19  A    between atoms: C_53  and  C_63
                            x       y       z     vdW  Elec       q    Type
                         _______ _______ _______ _____ _____    ______ ____

>  <TORSDO>
F 19

$$$$
=
 OpenBabel11042417173D

 63 69  0  0  1  0  0  0  0  0999 V2000
  194.0070  175.2810  144.1060 C   0  0  1  0  0  3  0  0  0  0  0  0
  193.8810  173.3250  142.2990 S   0  0  0  0  0  0  0  0  0  0  0  0
  192.3950  173.6620  143.2840 C   0  0  2  0  0  3  0  0  0  0  0  0
  194.9090  174.6480  143.1000 C   0  0  1  0  0  3  0  0  0  0  0  0
  192.8620  174.4180  144.5170 C   0  0  0  0  0  2  0  0  0  0  0  0
  193.9930  177.1710  145.3700 C   0  0  0  0  0  1  0  0  0  0  0  0
  194.6780  175.9230  145.1140 O   0  0  0  0  0  0  0  0  0  0  0  0
  195.8360  175.6220  142.2590 C   0  0  2  0  0  3  0  0  0  0  0  0
  195.2890  175.7220  140.9040 N   0  0  0  0  0  2  0  0  0  0  0  0
  195.6420  174.7190  139.9660 C   0  0  2  0  0  3  0  0  0  0  0  0
  195.5620  175.2960  138.5850 C   0  0  0  0  0  2  0  0  0  0  0  0
  194.4810  174.3750  139.1330 N   0  0  0  0  0  0  0  0  0  0  0  0
  194.4790  173.0510  138.3890 C   0  0  0  0  0  2  0  0  0  0  0  0
  192.7420  173.0740  136.4390 C   0  0  0  0  0  0  0  0  0  0  0  0
  193.0670  172.7350  137.8910 C   0  0  1  0  0  3  0  0  0  0  0  0
  191.4610  171.0430  136.2350 C   0  0  0  0  0  2  0  0  0  0  0  0
  192.9520  171.3260  138.0840 O   0  0  0  0  0  0  0  0  0  0  0  0
  191.6550  172.4450  135.8530 N   0  0  0  0  0  0  0  0  0  0  0  0
  193.4320  173.9020  135.7380 O   0  0  0  0  0  0  0  0  0  0  0  0
  191.6530  170.9290  137.7470 C   0  0  0  0  0  2  0  0  0  0  0  0
  190.5900  173.2150  135.1910 C   0  0  0  0  0  2  0  0  0  0  0  0
  190.7090  175.2590  136.3560 F   0  0  0  0  0  0  0  0  0  0  0  0
  189.8960  174.1740  136.1690 C   0  0  0  0  0  0  0  0  0  0  0  0
  189.6540  173.5590  137.3750 F   0  0  0  0  0  0  0  0  0  0  0  0
  188.7060  174.6030  135.6430 F   0  0  0  0  0  0  0  0  0  0  0  0
  197.2190  175.0930  142.1760 C   0  0  0  0  0  2  0  0  0  0  0  0
  197.5120  173.9800  143.2160 C   0  0  2  0  0  3  0  0  0  0  0  0
  197.2830  173.6810  145.5940 N   0  0  0  0  0  0  0  0  0  0  0  0
  196.8130  172.4890  145.4410 C   0  0  0  0  0  0  0  0  0  0  0  0
  196.8440  170.4970  144.4360 N   0  0  0  0  0  0  0  0  0  0  0  0
  196.8710  171.8620  144.1780 N   0  0  0  0  0  0  0  0  0  0  0  0
  196.6220  168.8520  146.2270 C   0  0  0  0  0  1  0  0  0  0  0  0
  197.5950  172.4550  143.0680 C   0  0  1  0  0  3  0  0  0  0  0  0
  196.7370  170.2870  145.7030 C   0  0  0  0  0  0  0  0  0  0  0  0
  197.0900  171.8880  141.7490 C   0  0  0  0  0  1  0  0  0  0  0  0
  196.6780  171.5030  146.5160 N   0  0  0  0  0  2  0  0  0  0  0  0
  197.5680  174.5040  144.4530 C   0  0  0  0  0  2  0  0  0  0  0  0
  191.5350  172.4820  143.8200 C   0  0  0  0  0  2  0  0  0  0  0  0
  191.0740  170.4070  142.8470 F   0  0  0  0  0  0  0  0  0  0  0  0
  189.2700  171.5560  143.5820 F   0  0  0  0  0  0  0  0  0  0  0  0
  190.5520  171.6510  143.0030 C   0  0  0  0  0  0  0  0  0  0  0  0
  190.5280  172.4470  141.7170 C   0  0  0  0  0  2  0  0  0  0  0  0
  189.0000  171.8610  139.9330 O   0  0  0  0  0  0  0  0  0  0  0  0
  189.2670  172.6010  140.8770 C   0  0  0  0  0  0  0  0  0  0  0  0
  188.1860  173.5130  141.3550 C   0  0  0  0  0  2  0  0  0  0  0  0
  187.6400  177.3280  141.7610 C   0  0  2  0  0  3  0  0  0  0  0  0
  188.3090  178.1390  142.8940 C   0  0  1  0  0  3  0  0  0  0  0  0
  186.1740  176.9800  142.0760 C   0  0  0  0  0  2  0  0  0  0  0  0
  185.5170  178.0750  142.8480 C   0  0  2  0  0  3  0  0  0  0  0  0
  188.0510  175.1540  139.6170 O   0  0  0  0  0  0  0  0  0  0  0  0
  186.0940  177.9100  144.2950 C   0  0  1  0  0  3  0  0  0  0  0  0
  188.4380  176.1360  141.6830 N   0  0  0  0  0  0  0  0  0  0  0  0
  184.1280  177.9340  142.7180 O   0  0  0  0  0  1  0  0  0  0  0  0
  188.1910  174.9540  140.8600 C   0  0  0  0  0  0  0  0  0  0  0  0
  187.5940  178.2670  144.2760 C   0  0  0  0  0  2  0  0  0  0  0  0
  190.7430  178.1920  143.3530 O   0  0  0  0  0  0  0  0  0  0  0  0
  189.6780  176.2790  142.3710 N   0  0  0  0  0  2  0  0  0  0  0  0
  189.6790  177.5700  142.9490 C   0  0  0  0  0  0  0  0  0  0  0  0
  185.4090  178.7320  145.2240 O   0  0  0  0  0  0  0  0  0  0  0  0
  184.8620  178.0110  146.3480 C   0  0  1  0  0  3  0  0  0  0  0  0
  185.1900  176.5250  146.3380 C   0  0  0  0  0  1  0  0  0  0  0  0
  185.1350  178.5900  147.6760 N   0  0  0  0  0  2  0  0  0  0  0  0
  185.9370  179.6820  147.5780 O   0  0  0  0  0  1  0  0  0  0  0  0
  1  5  1  0  0  0  0
  1  7  1  1  0  0  0
  2  4  1  0  0  0  0
  2  3  1  0  0  0  0
  3 38  1  1  0  0  0
  3  5  1  0  0  0  0
  4  8  1  6  0  0  0
  4  1  1  0  0  0  0
  7  6  1  0  0  0  0
  8 26  1  6  0  0  0
  9  8  1  0  0  0  0
 10  9  1  1  0  0  0
 11 12  1  0  0  0  0
 11 10  1  0  0  0  0
 12 10  1  0  0  0  0
 13 12  1  0  0  0  0
 14 15  1  0  0  0  0
 15 17  1  0  0  0  0
 15 13  1  6  0  0  0
 16 20  1  0  0  0  0
 18 16  1  0  0  0  0
 18 14  1  0  0  0  0
 19 14  2  0  0  0  0
 20 17  1  0  0  0  0
 21 18  1  0  0  0  0
 21 23  1  0  0  0  0
 23 22  1  0  0  0  0
 23 24  1  0  0  0  0
 25 23  1  0  0  0  0
 27 26  1  1  0  0  0
 27 37  1  0  0  0  0
 29 28  2  0  0  0  0
 29 36  1  0  0  0  0
 30 34  2  0  0  0  0
 31 30  1  0  0  0  0
 31 29  1  0  0  0  0
 33 35  1  6  0  0  0
 33 27  1  0  0  0  0
 33 31  1  0  0  0  0
 34 32  1  0  0  0  0
 34 36  1  0  0  0  0
 37 28  1  0  0  0  0
 39 41  1  0  0  0  0
 41 40  1  0  0  0  0
 41 38  1  0  0  0  0
 42 41  1  0  0  0  0
 43 44  2  0  0  0  0
 44 45  1  0  0  0  0
 44 42  1  0  0  0  0
 46 48  1  1  0  0  0
 46 47  1  0  0  0  0
 47 58  1  0  0  0  0
 47 55  1  1  0  0  0
 48 49  1  0  0  0  0
 49 53  1  1  0  0  0
 49 51  1  0  0  0  0
 50 54  2  0  0  0  0
 51 59  1  1  0  0  0
 52 46  1  0  0  0  0
 52 57  1  0  0  0  0
 54 45  1  0  0  0  0
 54 52  1  0  0  0  0
 55 51  1  0  0  0  0
 57 58  1  0  0  0  0
 58 56  2  0  0  0  0
 59 60  1  0  0  0  0
 60 61  1  1  0  0  0
 60 62  1  0  0  0  0
 63 62  1  0  0  0  0
M  END
>  <MODEL>
9

>  <REMARK>
 VINA RESULT:      -6.0      3.345      9.683
  Name = 
  19 active torsions:
  status: ('A' for Active; 'I' for Inactive)
    1  A    between atoms: N_1  and  C_2
    2  A    between atoms: C_2  and  O_29
    3  A    between atoms: C_3  and  O_36
    4  A    between atoms: C_4  and  C_55
    5  A    between atoms: C_7  and  C_35
    6  A    between atoms: C_7  and  N_44
    7  A    between atoms: N_9  and  C_23
    8  A    between atoms: N_9  and  C_37
    9  A    between atoms: C_22  and  O_29
   10  A    between atoms: C_24  and  C_39
   11  A    between atoms: C_30  and  C_48
   12  A    between atoms: C_32  and  C_62
   13  A    between atoms: C_37  and  C_54
   14  A    between atoms: C_37  and  C_55
   15  A    between atoms: C_39  and  N_45
   16  A    between atoms: C_48  and  C_63
   17  A    between atoms: C_52  and  C_53
   18  A    between atoms: C_52  and  C_62
   19  A    between atoms: C_53  and  C_63
                            x       y       z     vdW  Elec       q    Type
                         _______ _______ _______ _____ _____    ______ ____

>  <TORSDO>
F 19

$$$$
