=
 OpenBabel11042416193D

 66 72  0  0  1  0  0  0  0  0999 V2000
  191.5540  175.0610  145.1750 C   0  0  0  0  0  3  0  0  0  0  0  0
  194.6980  172.5140  137.6730 O   0  0  0  0  0  0  0  0  0  0  0  0
  196.4730  175.5260  144.0370 C   0  0  0  0  0  0  0  0  0  0  0  0
  194.7770  169.6370  141.3370 C   0  0  0  0  0  0  0  0  0  0  0  0
  197.1590  174.7690  144.7890 O   0  0  0  0  0  0  0  0  0  0  0  0
  195.4970  176.3780  144.6050 O   0  0  0  0  0  0  0  0  0  0  0  0
  194.5230  173.8440  139.5490 N   0  0  0  0  0  0  0  0  0  0  0  0
  192.0140  173.2620  143.4620 C   0  0  0  0  0  0  0  0  0  0  0  0
  196.1860  176.3930  141.6800 C   0  0  0  0  0  2  0  0  0  0  0  0
  195.8440  175.7280  140.3380 C   0  0  0  0  0  2  0  0  0  0  0  0
  196.5640  175.3540  142.6120 N   0  0  0  0  0  2  0  0  0  0  0  0
  194.6910  173.7770  138.2640 C   0  0  0  0  0  0  0  0  0  0  0  0
  194.4880  175.0440  140.3790 C   0  0  0  0  0  2  0  0  0  0  0  0
  192.5990  173.0980  142.1960 C   0  0  0  0  0  3  0  0  0  0  0  0
  194.4410  169.0860  139.9750 C   0  0  0  0  0  2  0  0  0  0  0  0
  192.9900  170.7640  142.6440 C   0  0  0  0  0  0  0  0  0  0  0  0
  194.3030  170.1830  137.7170 C   0  0  0  0  0  2  0  0  0  0  0  0
  194.1840  175.9320  144.8330 C   0  0  0  0  0  0  0  0  0  0  0  0
  193.1180  171.8720  141.8050 C   0  0  0  0  0  3  0  0  0  0  0  0
  195.2450  169.7940  138.8620 C   0  0  2  0  0  3  0  0  0  0  0  0
  196.3140  169.0010  138.4190 O   0  0  0  0  0  1  0  0  0  0  0  0
  195.9130  170.1910  141.5540 O   0  0  0  0  0  0  0  0  0  0  0  0
  192.0530  176.1140  145.9680 C   0  0  0  0  0  0  0  0  0  0  0  0
  193.6620  174.9490  144.0620 N   0  0  0  0  0  0  0  0  0  0  0  0
  192.1810  170.8540  143.7940 C   0  0  0  0  0  3  0  0  0  0  0  0
  191.7040  172.1050  144.2180 C   0  0  0  0  0  3  0  0  0  0  0  0
  193.3910  176.5230  145.8180 C   0  0  0  0  0  3  0  0  0  0  0  0
  193.7960  169.5930  142.4000 N   0  0  0  0  0  0  0  0  0  0  0  0
  192.3800  174.4750  144.2100 C   0  0  0  0  0  0  0  0  0  0  0  0
  193.7290  171.5350  138.0000 C   0  0  0  0  0  2  0  0  0  0  0  0
  194.9580  174.9860  137.4020 C   0  0  1  0  0  3  0  0  0  0  0  0
  195.6420  174.5450  136.2690 O   0  0  0  0  0  1  0  0  0  0  0  0
  193.6100  175.5770  136.9830 C   0  0  0  0  0  2  0  0  0  0  0  0
  193.2740  175.5700  135.4710 C   0  0  1  0  0  3  0  0  0  0  0  0
  192.0850  174.8010  134.8140 C   0  0  2  0  0  3  0  0  0  0  0  0
  191.8400  176.1140  135.5140 C   0  0  0  0  0  2  0  0  0  0  0  0
  190.4450  173.9580  136.4830 C   0  0  0  0  0  2  0  0  0  0  0  0
  191.2950  171.3890  135.6390 C   0  0  0  0  0  2  0  0  0  0  0  0
  191.3730  172.4880  134.7780 O   0  0  0  0  0  0  0  0  0  0  0  0
  189.9080  171.3900  136.2320 C   0  0  1  0  0  3  0  0  0  0  0  0
  191.6530  173.5780  135.6350 C   0  0  1  0  0  3  0  0  0  0  0  0
  189.6950  170.1690  137.1480 C   0  0  0  0  0  1  0  0  0  0  0  0
  189.5490  172.7490  136.8740 C   0  0  1  0  0  3  0  0  0  0  0  0
  188.0550  172.5700  138.8080 O   0  0  0  0  0  0  0  0  0  0  0  0
  189.3200  172.6750  138.3200 N   0  0  0  0  0  0  0  0  0  0  0  0
  188.2040  173.0030  140.0960 N   0  0  0  0  0  2  0  0  0  0  0  0
  190.2400  173.1780  139.3010 C   0  0  0  0  0  3  0  0  0  0  0  0
  189.5540  173.3790  140.3910 C   0  0  0  0  0  3  0  0  0  0  0  0
  192.9750  168.3180  144.2430 F   0  0  0  0  0  0  0  0  0  0  0  0
  194.0880  168.6650  143.5070 C   0  0  2  0  0  3  0  0  0  0  0  0
  195.2660  169.1550  144.3950 C   0  0  0  0  0  2  0  0  0  0  0  0
  194.6130  170.7110  146.0780 O   0  0  0  0  0  0  0  0  0  0  0  0
  194.7660  168.5160  146.7660 O   0  0  0  0  0  1  0  0  0  0  0  0
  194.8830  169.5080  145.7960 C   0  0  0  0  0  0  0  0  0  0  0  0
  191.2020  176.7760  146.8620 O   0  0  0  0  0  0  0  0  0  0  0  0
  189.9190  176.2320  147.1410 C   0  0  0  0  0  2  0  0  0  0  0  0
  188.8950  177.2170  146.8830 N   0  0  0  0  0  2  0  0  0  0  0  0
  187.6500  176.4470  146.8510 C   0  0  0  0  0  2  0  0  0  0  0  0
  186.5010  178.6660  144.2340 C   0  0  0  0  0  0  0  0  0  0  0  0
  184.2350  179.2860  144.7030 C   0  0  0  0  0  3  0  0  0  0  0  0
  185.4530  179.3550  143.8650 C   0  0  0  0  0  3  0  0  0  0  0  0
  187.3750  177.8630  144.7410 C   0  0  0  0  0  3  0  0  0  0  0  0
  186.8870  176.6600  145.5380 C   0  0  2  0  0  3  0  0  0  0  0  0
  184.0710  178.6020  145.8610 C   0  0  0  0  0  3  0  0  0  0  0  0
  185.1390  177.7890  146.5520 C   0  0  0  0  0  2  0  0  0  0  0  0
  185.4890  176.6570  145.7740 O   0  0  0  0  0  0  0  0  0  0  0  0
  1 23  1  0  0  0  0
  2 30  1  0  0  0  0
  2 12  1  0  0  0  0
  3  6  1  0  0  0  0
  3  5  2  0  0  0  0
  4 22  2  0  0  0  0
  4 28  1  0  0  0  0
  6 18  1  0  0  0  0
  7 13  1  0  0  0  0
  8 29  1  0  0  0  0
  8 26  1  0  0  0  0
  9 11  1  0  0  0  0
 10 13  1  0  0  0  0
 10  9  1  0  0  0  0
 11  3  1  0  0  0  0
 12  7  2  0  0  0  0
 14  8  2  0  0  0  0
 15  4  1  0  0  0  0
 16 25  1  0  0  0  0
 17 30  1  0  0  0  0
 17 20  1  0  0  0  0
 18 27  1  0  0  0  0
 19 14  1  0  0  0  0
 19 16  2  0  0  0  0
 20 21  1  6  0  0  0
 20 15  1  0  0  0  0
 23 55  1  0  0  0  0
 24 29  1  0  0  0  0
 24 18  2  0  0  0  0
 25 26  2  0  0  0  0
 27 23  2  0  0  0  0
 28 16  1  0  0  0  0
 28 50  1  0  0  0  0
 29  1  2  0  0  0  0
 31 32  1  6  0  0  0
 31 12  1  0  0  0  0
 33 31  1  0  0  0  0
 34 36  1  0  0  0  0
 34 33  1  1  0  0  0
 35 34  1  0  0  0  0
 35 36  1  1  0  0  0
 35 41  1  0  0  0  0
 38 40  1  0  0  0  0
 39 41  1  0  0  0  0
 39 38  1  0  0  0  0
 40 43  1  0  0  0  0
 40 42  1  1  0  0  0
 41 37  1  6  0  0  0
 43 37  1  1  0  0  0
 43 45  1  0  0  0  0
 44 46  1  0  0  0  0
 45 44  1  0  0  0  0
 45 47  1  0  0  0  0
 46 48  1  0  0  0  0
 47 48  2  0  0  0  0
 50 49  1  1  0  0  0
 50 51  1  0  0  0  0
 51 54  1  0  0  0  0
 54 52  2  0  0  0  0
 54 53  1  0  0  0  0
 55 56  1  0  0  0  0
 57 56  1  0  0  0  0
 58 57  1  0  0  0  0
 59 62  2  0  0  0  0
 60 64  2  0  0  0  0
 61 59  2  0  0  0  0
 61 60  1  0  0  0  0
 62 63  1  0  0  0  0
 63 66  1  0  0  0  0
 63 58  1  1  0  0  0
 64 65  1  0  0  0  0
 66 65  1  0  0  0  0
M  END
>  <MODEL>
1

>  <REMARK>
 VINA RESULT:      -7.8      0.000      0.000
  Name = 
  13 active torsions:
  status: ('A' for Active; 'I' for Inactive)
    1  A    between atoms: C_6  and  C_19
    2  A    between atoms: C_6  and  C_37
    3  A    between atoms: C_11  and  C_38
    4  A    between atoms: C_11  and  C_57
    5  A    between atoms: C_19  and  C_30
    6  A    between atoms: N_20  and  C_45
    7  A    between atoms: C_22  and  C_43
    8  A    between atoms: N_29  and  C_34
    9  A    between atoms: N_29  and  C_35
   10  A    between atoms: C_34  and  O_52
   11  A    between atoms: C_35  and  C_53
   12  A    between atoms: C_38  and  N_63
   13  A    between atoms: C_50  and  O_52
                            x       y       z     vdW  Elec       q    Type
                         _______ _______ _______ _____ _____    ______ ____

>  <TORSDO>
F 13

$$$$
=
 OpenBabel11042416193D

 66 72  0  0  1  0  0  0  0  0999 V2000
  193.6220  175.0300  144.6160 C   0  0  0  0  0  3  0  0  0  0  0  0
  186.9520  176.1940  139.4390 O   0  0  0  0  0  0  0  0  0  0  0  0
  189.8680  171.6380  144.2830 C   0  0  0  0  0  0  0  0  0  0  0  0
  186.7110  177.5320  143.8950 C   0  0  0  0  0  0  0  0  0  0  0  0
  189.2380  171.5880  145.3840 O   0  0  0  0  0  0  0  0  0  0  0  0
  191.2810  171.5640  144.2810 O   0  0  0  0  0  0  0  0  0  0  0  0
  188.5670  174.9960  140.5660 N   0  0  0  0  0  0  0  0  0  0  0  0
  191.5990  176.3470  143.8730 C   0  0  0  0  0  0  0  0  0  0  0  0
  189.6380  171.6450  141.7660 C   0  0  0  0  0  2  0  0  0  0  0  0
  188.9830  172.6060  140.7620 C   0  0  0  0  0  2  0  0  0  0  0  0
  189.1440  171.9710  143.0850 N   0  0  0  0  0  2  0  0  0  0  0  0
  187.9030  175.1740  139.4670 C   0  0  0  0  0  0  0  0  0  0  0  0
  189.5970  173.9950  140.8300 C   0  0  0  0  0  2  0  0  0  0  0  0
  190.5830  176.3150  142.9020 C   0  0  0  0  0  3  0  0  0  0  0  0
  186.1080  178.4100  142.8290 C   0  0  0  0  0  2  0  0  0  0  0  0
  189.1580  177.6590  144.3050 C   0  0  0  0  0  0  0  0  0  0  0  0
  185.9400  178.1330  140.3350 C   0  0  0  0  0  2  0  0  0  0  0  0
  192.0710  172.7160  144.4300 C   0  0  0  0  0  0  0  0  0  0  0  0
  189.3610  176.9300  143.1320 C   0  0  0  0  0  3  0  0  0  0  0  0
  185.4870  177.5730  141.6890 C   0  0  2  0  0  3  0  0  0  0  0  0
  184.0890  177.5190  141.7960 O   0  0  0  0  0  1  0  0  0  0  0  0
  186.2850  176.3350  144.0730 O   0  0  0  0  0  0  0  0  0  0  0  0
  194.1660  173.7880  144.9990 C   0  0  0  0  0  0  0  0  0  0  0  0
  191.5910  173.9200  144.0340 N   0  0  0  0  0  0  0  0  0  0  0  0
  190.2480  177.9140  145.1590 C   0  0  0  0  0  3  0  0  0  0  0  0
  191.4670  177.2480  144.9580 C   0  0  0  0  0  3  0  0  0  0  0  0
  193.3680  172.6300  144.9400 C   0  0  0  0  0  3  0  0  0  0  0  0
  187.8160  178.0160  144.6940 N   0  0  0  0  0  0  0  0  0  0  0  0
  192.3120  175.0860  144.1290 C   0  0  0  0  0  0  0  0  0  0  0  0
  187.2310  177.4840  139.9500 C   0  0  0  0  0  2  0  0  0  0  0  0
  188.0530  174.2850  138.2570 C   0  0  1  0  0  3  0  0  0  0  0  0
  187.4000  174.9140  137.1960 O   0  0  0  0  0  1  0  0  0  0  0  0
  189.5440  174.1660  137.9380 C   0  0  0  0  0  2  0  0  0  0  0  0
  189.9310  173.8630  136.4690 C   0  0  1  0  0  3  0  0  0  0  0  0
  190.9340  172.7580  136.0090 C   0  0  2  0  0  3  0  0  0  0  0  0
  189.5210  172.3870  136.3840 C   0  0  0  0  0  2  0  0  0  0  0  0
  191.7860  170.9590  137.5010 C   0  0  0  0  0  2  0  0  0  0  0  0
  194.0700  172.6160  137.7690 C   0  0  0  0  0  2  0  0  0  0  0  0
  193.2750  172.6720  136.6200 O   0  0  0  0  0  0  0  0  0  0  0  0
  194.3580  171.1600  138.0360 C   0  0  1  0  0  3  0  0  0  0  0  0
  191.9660  172.4170  137.0930 C   0  0  1  0  0  3  0  0  0  0  0  0
  195.2930  170.9930  139.2490 C   0  0  0  0  0  1  0  0  0  0  0  0
  193.0690  170.3100  138.0920 C   0  0  1  0  0  3  0  0  0  0  0  0
  192.5480  170.4720  140.4810 O   0  0  0  0  0  0  0  0  0  0  0  0
  192.8260  169.6950  139.4000 N   0  0  0  0  0  0  0  0  0  0  0  0
  192.8610  169.6440  141.5210 N   0  0  0  0  0  2  0  0  0  0  0  0
  193.3180  168.3990  139.7760 C   0  0  0  0  0  3  0  0  0  0  0  0
  193.3380  168.3690  141.0790 C   0  0  0  0  0  3  0  0  0  0  0  0
  187.4190  177.1430  146.8800 F   0  0  0  0  0  0  0  0  0  0  0  0
  187.5160  178.2840  146.1120 C   0  0  2  0  0  3  0  0  0  0  0  0
  186.2960  179.2320  146.2890 C   0  0  0  0  0  2  0  0  0  0  0  0
  184.9800  178.2910  148.0400 O   0  0  0  0  0  1  0  0  0  0  0  0
  183.9910  178.3070  145.9580 O   0  0  0  0  0  0  0  0  0  0  0  0
  185.0630  178.5670  146.8080 C   0  0  0  0  0  0  0  0  0  0  0  0
  195.5090  173.7060  145.3890 O   0  0  0  0  0  0  0  0  0  0  0  0
  196.2910  172.5930  144.9800 C   0  0  0  0  0  2  0  0  0  0  0  0
  197.5950  173.0340  144.5440 N   0  0  0  0  0  2  0  0  0  0  0  0
  197.6780  172.6000  143.1480 C   0  0  0  0  0  2  0  0  0  0  0  0
  196.9040  176.0540  142.3970 C   0  0  0  0  0  0  0  0  0  0  0  0
  194.9470  176.1120  141.0160 C   0  0  0  0  0  3  0  0  0  0  0  0
  196.0360  176.7910  141.7530 C   0  0  0  0  0  3  0  0  0  0  0  0
  197.6730  175.1430  142.8910 C   0  0  0  0  0  3  0  0  0  0  0  0
  197.7530  173.7940  142.1880 C   0  0  2  0  0  3  0  0  0  0  0  0
  194.7050  174.7810  140.9470 C   0  0  0  0  0  3  0  0  0  0  0  0
  195.5020  173.7120  141.6560 C   0  0  0  0  0  2  0  0  0  0  0  0
  196.8180  173.6390  141.1340 O   0  0  0  0  0  0  0  0  0  0  0  0
  1 23  1  0  0  0  0
  2 12  1  0  0  0  0
  2 30  1  0  0  0  0
  3  5  2  0  0  0  0
  4 22  2  0  0  0  0
  4 28  1  0  0  0  0
  6  3  1  0  0  0  0
  6 18  1  0  0  0  0
  7 13  1  0  0  0  0
  8 29  1  0  0  0  0
  8 26  1  0  0  0  0
  9 11  1  0  0  0  0
 10 13  1  0  0  0  0
 10  9  1  0  0  0  0
 11  3  1  0  0  0  0
 12  7  2  0  0  0  0
 14 19  1  0  0  0  0
 14  8  2  0  0  0  0
 15  4  1  0  0  0  0
 16 28  1  0  0  0  0
 16 25  1  0  0  0  0
 17 20  1  0  0  0  0
 18 27  1  0  0  0  0
 19 16  2  0  0  0  0
 20 21  1  6  0  0  0
 20 15  1  0  0  0  0
 23 55  1  0  0  0  0
 24 29  1  0  0  0  0
 24 18  2  0  0  0  0
 26 25  2  0  0  0  0
 27 23  2  0  0  0  0
 28 50  1  0  0  0  0
 29  1  2  0  0  0  0
 30 17  1  0  0  0  0
 31 32  1  6  0  0  0
 31 12  1  0  0  0  0
 33 31  1  0  0  0  0
 34 33  1  1  0  0  0
 35 36  1  1  0  0  0
 35 34  1  0  0  0  0
 35 41  1  0  0  0  0
 36 34  1  0  0  0  0
 38 40  1  0  0  0  0
 39 41  1  0  0  0  0
 39 38  1  0  0  0  0
 40 43  1  0  0  0  0
 40 42  1  1  0  0  0
 41 37  1  6  0  0  0
 43 37  1  1  0  0  0
 43 45  1  0  0  0  0
 44 46  1  0  0  0  0
 45 47  1  0  0  0  0
 45 44  1  0  0  0  0
 47 48  2  0  0  0  0
 48 46  1  0  0  0  0
 50 51  1  0  0  0  0
 50 49  1  1  0  0  0
 51 54  1  0  0  0  0
 53 54  2  0  0  0  0
 54 52  1  0  0  0  0
 56 55  1  0  0  0  0
 57 56  1  0  0  0  0
 58 57  1  0  0  0  0
 59 62  2  0  0  0  0
 60 61  1  0  0  0  0
 61 59  2  0  0  0  0
 63 62  1  0  0  0  0
 63 58  1  1  0  0  0
 64 60  2  0  0  0  0
 64 65  1  0  0  0  0
 66 65  1  0  0  0  0
 66 63  1  0  0  0  0
M  END
>  <MODEL>
2

>  <REMARK>
 VINA RESULT:      -6.9      2.732      8.559
  Name = 
  13 active torsions:
  status: ('A' for Active; 'I' for Inactive)
    1  A    between atoms: C_6  and  C_19
    2  A    between atoms: C_6  and  C_37
    3  A    between atoms: C_11  and  C_38
    4  A    between atoms: C_11  and  C_57
    5  A    between atoms: C_19  and  C_30
    6  A    between atoms: N_20  and  C_45
    7  A    between atoms: C_22  and  C_43
    8  A    between atoms: N_29  and  C_34
    9  A    between atoms: N_29  and  C_35
   10  A    between atoms: C_34  and  O_52
   11  A    between atoms: C_35  and  C_53
   12  A    between atoms: C_38  and  N_63
   13  A    between atoms: C_50  and  O_52
                            x       y       z     vdW  Elec       q    Type
                         _______ _______ _______ _____ _____    ______ ____

>  <TORSDO>
F 13

$$$$
=
 OpenBabel11042416193D

 66 72  0  0  1  0  0  0  0  0999 V2000
  193.6160  175.0700  144.5700 C   0  0  0  0  0  3  0  0  0  0  0  0
  186.8740  176.2360  139.4860 O   0  0  0  0  0  0  0  0  0  0  0  0
  189.8700  171.6660  144.2670 C   0  0  0  0  0  0  0  0  0  0  0  0
  186.6870  177.5490  143.9520 C   0  0  0  0  0  0  0  0  0  0  0  0
  189.2550  171.6080  145.3760 O   0  0  0  0  0  0  0  0  0  0  0  0
  191.2830  171.5980  144.2470 O   0  0  0  0  0  0  0  0  0  0  0  0
  188.5090  175.0380  140.5850 N   0  0  0  0  0  0  0  0  0  0  0  0
  191.5780  176.3840  143.8600 C   0  0  0  0  0  0  0  0  0  0  0  0
  189.6080  171.6850  141.7530 C   0  0  0  0  0  2  0  0  0  0  0  0
  188.9360  172.6490  140.7630 C   0  0  0  0  0  2  0  0  0  0  0  0
  189.1290  172.0020  143.0810 N   0  0  0  0  0  2  0  0  0  0  0  0
  187.8290  175.2200  139.4960 C   0  0  0  0  0  0  0  0  0  0  0  0
  189.5460  174.0390  140.8300 C   0  0  0  0  0  2  0  0  0  0  0  0
  190.5500  176.3520  142.9020 C   0  0  0  0  0  3  0  0  0  0  0  0
  186.0670  178.4310  142.8980 C   0  0  0  0  0  2  0  0  0  0  0  0
  189.1380  177.6840  144.3300 C   0  0  0  0  0  0  0  0  0  0  0  0
  185.8670  178.1660  140.4050 C   0  0  0  0  0  2  0  0  0  0  0  0
  192.0710  172.7520  144.3920 C   0  0  0  0  0  0  0  0  0  0  0  0
  189.3280  176.9620  143.1500 C   0  0  0  0  0  3  0  0  0  0  0  0
  185.4330  177.5970  141.7620 C   0  0  2  0  0  3  0  0  0  0  0  0
  184.0380  177.5380  141.8860 O   0  0  0  0  0  1  0  0  0  0  0  0
  186.2680  176.3500  144.1280 O   0  0  0  0  0  0  0  0  0  0  0  0
  194.1690  173.8280  144.9390 C   0  0  0  0  0  0  0  0  0  0  0  0
  191.5820  173.9550  144.0090 N   0  0  0  0  0  0  0  0  0  0  0  0
  190.2380  177.9390  145.1720 C   0  0  0  0  0  3  0  0  0  0  0  0
  191.4570  177.2780  144.9510 C   0  0  0  0  0  3  0  0  0  0  0  0
  193.3750  172.6680  144.8850 C   0  0  0  0  0  3  0  0  0  0  0  0
  187.8000  178.0330  144.7390 N   0  0  0  0  0  0  0  0  0  0  0  0
  192.2990  175.1230  144.0990 C   0  0  0  0  0  0  0  0  0  0  0  0
  187.1550  177.5240  140.0000 C   0  0  0  0  0  2  0  0  0  0  0  0
  187.9670  174.3370  138.2800 C   0  0  1  0  0  3  0  0  0  0  0  0
  187.2560  174.9440  137.2430 O   0  0  0  0  0  1  0  0  0  0  0  0
  189.4490  174.2700  137.9070 C   0  0  0  0  0  2  0  0  0  0  0  0
  189.7940  173.9500  136.4320 C   0  0  1  0  0  3  0  0  0  0  0  0
  191.0190  173.1090  135.9520 C   0  0  2  0  0  3  0  0  0  0  0  0
  189.7890  172.4170  136.4820 C   0  0  0  0  0  2  0  0  0  0  0  0
  192.4350  171.7310  137.4640 C   0  0  0  0  0  2  0  0  0  0  0  0
  194.1960  173.9520  137.4180 C   0  0  0  0  0  2  0  0  0  0  0  0
  193.3330  173.7000  136.3470 O   0  0  0  0  0  0  0  0  0  0  0  0
  194.8870  172.6520  137.7450 C   0  0  1  0  0  3  0  0  0  0  0  0
  192.1820  173.1460  136.9540 C   0  0  1  0  0  3  0  0  0  0  0  0
  195.9190  172.8410  138.8730 C   0  0  0  0  0  1  0  0  0  0  0  0
  193.8860  171.4980  137.9710 C   0  0  1  0  0  3  0  0  0  0  0  0
  194.4540  169.7240  139.5630 O   0  0  0  0  0  0  0  0  0  0  0  0
  193.9160  170.9510  139.3310 N   0  0  0  0  0  0  0  0  0  0  0  0
  193.8870  169.3800  140.7580 N   0  0  0  0  0  2  0  0  0  0  0  0
  193.0150  171.3550  140.3740 C   0  0  0  0  0  3  0  0  0  0  0  0
  192.9990  170.3900  141.2500 C   0  0  0  0  0  3  0  0  0  0  0  0
  187.6280  177.1730  146.9590 F   0  0  0  0  0  0  0  0  0  0  0  0
  187.5170  178.2930  146.1620 C   0  0  2  0  0  3  0  0  0  0  0  0
  186.1730  179.0480  146.3700 C   0  0  0  0  0  2  0  0  0  0  0  0
  184.0690  177.9490  146.5820 O   0  0  0  0  0  0  0  0  0  0  0  0
  185.4020  177.9060  148.4620 O   0  0  0  0  0  1  0  0  0  0  0  0
  185.1490  178.2890  147.1480 C   0  0  0  0  0  0  0  0  0  0  0  0
  195.5170  173.7500  145.3110 O   0  0  0  0  0  0  0  0  0  0  0  0
  196.5230  174.1340  144.3840 C   0  0  0  0  0  2  0  0  0  0  0  0
  196.9490  172.9910  143.6100 N   0  0  0  0  0  2  0  0  0  0  0  0
  197.7190  172.1800  144.5540 C   0  0  0  0  0  2  0  0  0  0  0  0
  195.3450  169.4970  144.0440 C   0  0  0  0  0  0  0  0  0  0  0  0
  194.8420  168.5110  146.1690 C   0  0  0  0  0  3  0  0  0  0  0  0
  194.6670  168.5930  144.7020 C   0  0  0  0  0  3  0  0  0  0  0  0
  196.1540  170.3990  143.5990 C   0  0  0  0  0  3  0  0  0  0  0  0
  197.4320  170.6830  144.3780 C   0  0  2  0  0  3  0  0  0  0  0  0
  195.6190  169.3000  146.9500 C   0  0  0  0  0  3  0  0  0  0  0  0
  196.4460  170.4660  146.4620 C   0  0  0  0  0  2  0  0  0  0  0  0
  197.5010  170.0180  145.6290 O   0  0  0  0  0  0  0  0  0  0  0  0
  1 23  1  0  0  0  0
  2 12  1  0  0  0  0
  2 30  1  0  0  0  0
  3  5  2  0  0  0  0
  4 22  2  0  0  0  0
  4 28  1  0  0  0  0
  6  3  1  0  0  0  0
  6 18  1  0  0  0  0
  7 13  1  0  0  0  0
  8 29  1  0  0  0  0
  8 26  1  0  0  0  0
  9 11  1  0  0  0  0
 10 13  1  0  0  0  0
 10  9  1  0  0  0  0
 11  3  1  0  0  0  0
 12  7  2  0  0  0  0
 14 19  1  0  0  0  0
 14  8  2  0  0  0  0
 15  4  1  0  0  0  0
 16 28  1  0  0  0  0
 16 25  1  0  0  0  0
 17 20  1  0  0  0  0
 18 27  1  0  0  0  0
 19 16  2  0  0  0  0
 20 21  1  6  0  0  0
 20 15  1  0  0  0  0
 23 55  1  0  0  0  0
 24 29  1  0  0  0  0
 24 18  2  0  0  0  0
 26 25  2  0  0  0  0
 27 23  2  0  0  0  0
 28 50  1  0  0  0  0
 29  1  2  0  0  0  0
 30 17  1  0  0  0  0
 31 32  1  6  0  0  0
 31 12  1  0  0  0  0
 33 31  1  0  0  0  0
 34 36  1  0  0  0  0
 34 33  1  1  0  0  0
 35 34  1  0  0  0  0
 35 36  1  1  0  0  0
 35 41  1  0  0  0  0
 38 40  1  0  0  0  0
 39 41  1  0  0  0  0
 39 38  1  0  0  0  0
 40 43  1  0  0  0  0
 40 42  1  1  0  0  0
 41 37  1  6  0  0  0
 43 37  1  1  0  0  0
 43 45  1  0  0  0  0
 44 46  1  0  0  0  0
 45 44  1  0  0  0  0
 45 47  1  0  0  0  0
 46 48  1  0  0  0  0
 47 48  2  0  0  0  0
 50 51  1  0  0  0  0
 50 49  1  1  0  0  0
 51 54  1  0  0  0  0
 52 54  2  0  0  0  0
 54 53  1  0  0  0  0
 56 55  1  0  0  0  0
 57 56  1  0  0  0  0
 57 58  1  0  0  0  0
 59 61  2  0  0  0  0
 60 64  2  0  0  0  0
 61 60  1  0  0  0  0
 62 59  2  0  0  0  0
 62 63  1  0  0  0  0
 63 58  1  1  0  0  0
 63 66  1  0  0  0  0
 65 64  1  0  0  0  0
 66 65  1  0  0  0  0
M  END
>  <MODEL>
3

>  <REMARK>
 VINA RESULT:      -6.9      2.620      8.879
  Name = 
  13 active torsions:
  status: ('A' for Active; 'I' for Inactive)
    1  A    between atoms: C_6  and  C_19
    2  A    between atoms: C_6  and  C_37
    3  A    between atoms: C_11  and  C_38
    4  A    between atoms: C_11  and  C_57
    5  A    between atoms: C_19  and  C_30
    6  A    between atoms: N_20  and  C_45
    7  A    between atoms: C_22  and  C_43
    8  A    between atoms: N_29  and  C_34
    9  A    between atoms: N_29  and  C_35
   10  A    between atoms: C_34  and  O_52
   11  A    between atoms: C_35  and  C_53
   12  A    between atoms: C_38  and  N_63
   13  A    between atoms: C_50  and  O_52
                            x       y       z     vdW  Elec       q    Type
                         _______ _______ _______ _____ _____    ______ ____

>  <TORSDO>
F 13

$$$$
=
 OpenBabel11042416193D

 66 72  0  0  1  0  0  0  0  0999 V2000
  191.4360  173.7420  137.6470 C   0  0  0  0  0  3  0  0  0  0  0  0
  192.7240  175.0370  145.9720 O   0  0  0  0  0  0  0  0  0  0  0  0
  191.3460  169.9340  140.9940 C   0  0  0  0  0  0  0  0  0  0  0  0
  196.2900  173.8700  143.2110 C   0  0  0  0  0  0  0  0  0  0  0  0
  192.3220  169.1520  140.7780 O   0  0  0  0  0  0  0  0  0  0  0  0
  190.5200  170.3350  139.9180 O   0  0  0  0  0  0  0  0  0  0  0  0
  191.8040  174.0430  144.1070 N   0  0  0  0  0  0  0  0  0  0  0  0
  192.8800  174.5130  139.5710 C   0  0  0  0  0  0  0  0  0  0  0  0
  189.9780  171.0930  142.7750 C   0  0  0  0  0  2  0  0  0  0  0  0
  190.3010  172.1470  143.8450 C   0  0  0  0  0  2  0  0  0  0  0  0
  191.2270  170.5520  142.2870 N   0  0  0  0  0  2  0  0  0  0  0  0
  191.6210  174.5070  145.3040 C   0  0  0  0  0  0  0  0  0  0  0  0
  190.8080  173.4390  143.2260 C   0  0  0  0  0  2  0  0  0  0  0  0
  192.8450  174.6290  140.9710 C   0  0  0  0  0  3  0  0  0  0  0  0
  196.4990  174.9060  144.2870 C   0  0  0  0  0  2  0  0  0  0  0  0
  195.2520  174.5710  141.0650 C   0  0  0  0  0  0  0  0  0  0  0  0
  194.9460  175.8420  146.0280 C   0  0  0  0  0  2  0  0  0  0  0  0
  190.8400  171.4530  139.1300 C   0  0  0  0  0  0  0  0  0  0  0  0
  194.0170  174.6180  141.7140 C   0  0  0  0  0  3  0  0  0  0  0  0
  195.6780  174.5810  145.5540 C   0  0  2  0  0  3  0  0  0  0  0  0
  196.4850  174.0300  146.5610 O   0  0  0  0  0  1  0  0  0  0  0  0
  195.9360  172.6760  143.5150 O   0  0  0  0  0  0  0  0  0  0  0  0
  190.6410  172.7260  137.0800 C   0  0  0  0  0  0  0  0  0  0  0  0
  191.5690  172.4650  139.6580 N   0  0  0  0  0  0  0  0  0  0  0  0
  195.3060  174.7160  139.6660 C   0  0  0  0  0  3  0  0  0  0  0  0
  194.1230  174.6710  138.9110 C   0  0  0  0  0  3  0  0  0  0  0  0
  190.3750  171.5570  137.8170 C   0  0  0  0  0  3  0  0  0  0  0  0
  196.4350  174.2330  141.8180 N   0  0  0  0  0  0  0  0  0  0  0  0
  191.9040  173.5990  138.9570 C   0  0  0  0  0  0  0  0  0  0  0  0
  193.6240  175.9240  145.3340 C   0  0  0  0  0  2  0  0  0  0  0  0
  190.3000  174.4250  146.0290 C   0  0  1  0  0  3  0  0  0  0  0  0
  190.5040  174.9130  147.3200 O   0  0  0  0  0  1  0  0  0  0  0  0
  189.3010  175.3250  145.2980 C   0  0  0  0  0  2  0  0  0  0  0  0
  189.3480  176.8390  145.6180 C   0  0  1  0  0  3  0  0  0  0  0  0
  188.3740  177.9150  145.0420 C   0  0  2  0  0  3  0  0  0  0  0  0
  187.9370  177.0360  146.1880 C   0  0  0  0  0  2  0  0  0  0  0  0
  186.5540  178.3650  143.4070 C   0  0  0  0  0  2  0  0  0  0  0  0
  188.1880  176.9370  141.5840 C   0  0  0  0  0  2  0  0  0  0  0  0
  188.7500  177.6150  142.6700 O   0  0  0  0  0  0  0  0  0  0  0  0
  187.2400  177.8950  140.9070 C   0  0  1  0  0  3  0  0  0  0  0  0
  187.7770  177.5000  143.6900 C   0  0  1  0  0  3  0  0  0  0  0  0
  186.6190  177.2620  139.6470 C   0  0  0  0  0  1  0  0  0  0  0  0
  186.2200  178.5030  141.8950 C   0  0  1  0  0  3  0  0  0  0  0  0
  184.3620  178.2120  140.3240 O   0  0  0  0  0  0  0  0  0  0  0  0
  184.8300  178.1450  141.5990 N   0  0  0  0  0  0  0  0  0  0  0  0
  183.0110  178.2870  140.5140 N   0  0  0  0  0  2  0  0  0  0  0  0
  183.7710  178.1890  142.5690 C   0  0  0  0  0  3  0  0  0  0  0  0
  182.6550  178.2760  141.9010 C   0  0  0  0  0  3  0  0  0  0  0  0
  197.8070  174.1880  139.8650 F   0  0  0  0  0  0  0  0  0  0  0  0
  197.6030  173.6610  141.1230 C   0  0  2  0  0  3  0  0  0  0  0  0
  197.5920  172.1060  141.1280 C   0  0  0  0  0  2  0  0  0  0  0  0
  195.5890  171.2680  140.1460 O   0  0  0  0  0  1  0  0  0  0  0  0
  197.4550  171.2070  138.7930 O   0  0  0  0  0  0  0  0  0  0  0  0
  196.8270  171.4860  140.0040 C   0  0  0  0  0  0  0  0  0  0  0  0
  190.0820  172.9080  135.8090 O   0  0  0  0  0  0  0  0  0  0  0  0
  190.7180  173.7750  134.8810 C   0  0  0  0  0  2  0  0  0  0  0  0
  190.6230  175.1430  135.3320 N   0  0  0  0  0  2  0  0  0  0  0  0
  191.5980  175.8650  134.5130 C   0  0  0  0  0  2  0  0  0  0  0  0
  193.7890  178.7400  134.6840 C   0  0  0  0  0  0  0  0  0  0  0  0
  196.0470  177.9640  134.8850 C   0  0  0  0  0  3  0  0  0  0  0  0
  195.0540  179.0560  134.7830 C   0  0  0  0  0  3  0  0  0  0  0  0
  192.6150  178.2050  134.6690 C   0  0  0  0  0  3  0  0  0  0  0  0
  192.4160  176.8570  135.3490 C   0  0  2  0  0  3  0  0  0  0  0  0
  195.8090  176.6310  134.8560 C   0  0  0  0  0  3  0  0  0  0  0  0
  194.4530  175.9910  134.6730 C   0  0  0  0  0  2  0  0  0  0  0  0
  193.6210  176.2530  135.7900 O   0  0  0  0  0  0  0  0  0  0  0  0
  1 29  2  0  0  0  0
  3 11  1  0  0  0  0
  4 22  2  0  0  0  0
  4 15  1  0  0  0  0
  5  3  2  0  0  0  0
  6  3  1  0  0  0  0
  7 12  2  0  0  0  0
  8 14  1  0  0  0  0
  9 10  1  0  0  0  0
 11  9  1  0  0  0  0
 12  2  1  0  0  0  0
 12 31  1  0  0  0  0
 13 10  1  0  0  0  0
 13  7  1  0  0  0  0
 14 19  2  0  0  0  0
 15 20  1  0  0  0  0
 16 19  1  0  0  0  0
 16 28  1  0  0  0  0
 18 24  2  0  0  0  0
 18  6  1  0  0  0  0
 20 17  1  0  0  0  0
 20 21  1  1  0  0  0
 23  1  1  0  0  0  0
 23 27  2  0  0  0  0
 25 16  2  0  0  0  0
 26  8  2  0  0  0  0
 26 25  1  0  0  0  0
 27 18  1  0  0  0  0
 28  4  1  0  0  0  0
 29  8  1  0  0  0  0
 29 24  1  0  0  0  0
 30  2  1  0  0  0  0
 30 17  1  0  0  0  0
 31 32  1  1  0  0  0
 33 31  1  0  0  0  0
 34 33  1  6  0  0  0
 34 36  1  0  0  0  0
 35 34  1  0  0  0  0
 35 36  1  1  0  0  0
 38 39  1  0  0  0  0
 39 41  1  0  0  0  0
 40 42  1  6  0  0  0
 40 38  1  0  0  0  0
 40 43  1  0  0  0  0
 41 37  1  6  0  0  0
 41 35  1  0  0  0  0
 43 45  1  1  0  0  0
 43 37  1  0  0  0  0
 44 46  1  0  0  0  0
 44 45  1  0  0  0  0
 45 47  1  0  0  0  0
 46 48  1  0  0  0  0
 48 47  2  0  0  0  0
 50 49  1  6  0  0  0
 50 51  1  0  0  0  0
 50 28  1  0  0  0  0
 53 54  2  0  0  0  0
 54 52  1  0  0  0  0
 54 51  1  0  0  0  0
 55 23  1  0  0  0  0
 56 57  1  0  0  0  0
 56 55  1  0  0  0  0
 58 57  1  0  0  0  0
 59 61  2  0  0  0  0
 61 60  1  0  0  0  0
 62 59  2  0  0  0  0
 62 63  1  0  0  0  0
 63 58  1  6  0  0  0
 63 66  1  0  0  0  0
 64 60  2  0  0  0  0
 65 64  1  0  0  0  0
 65 66  1  0  0  0  0
M  END
>  <MODEL>
4

>  <REMARK>
 VINA RESULT:      -6.7      2.905      9.139
  Name = 
  13 active torsions:
  status: ('A' for Active; 'I' for Inactive)
    1  A    between atoms: C_6  and  C_19
    2  A    between atoms: C_6  and  C_37
    3  A    between atoms: C_11  and  C_38
    4  A    between atoms: C_11  and  C_57
    5  A    between atoms: C_19  and  C_30
    6  A    between atoms: N_20  and  C_45
    7  A    between atoms: C_22  and  C_43
    8  A    between atoms: N_29  and  C_34
    9  A    between atoms: N_29  and  C_35
   10  A    between atoms: C_34  and  O_52
   11  A    between atoms: C_35  and  C_53
   12  A    between atoms: C_38  and  N_63
   13  A    between atoms: C_50  and  O_52
                            x       y       z     vdW  Elec       q    Type
                         _______ _______ _______ _____ _____    ______ ____

>  <TORSDO>
F 13

$$$$
=
 OpenBabel11042416193D

 66 72  0  0  1  0  0  0  0  0999 V2000
  193.7000  175.0150  144.5710 C   0  0  0  0  0  3  0  0  0  0  0  0
  187.0390  176.0960  139.3640 O   0  0  0  0  0  0  0  0  0  0  0  0
  189.9470  171.6170  144.2830 C   0  0  0  0  0  0  0  0  0  0  0  0
  186.7900  177.5030  143.7980 C   0  0  0  0  0  0  0  0  0  0  0  0
  189.3160  171.5840  145.3840 O   0  0  0  0  0  0  0  0  0  0  0  0
  191.3600  171.5440  144.2860 O   0  0  0  0  0  0  0  0  0  0  0  0
  188.6530  174.9160  140.5120 N   0  0  0  0  0  0  0  0  0  0  0  0
  191.6780  176.3200  143.8030 C   0  0  0  0  0  0  0  0  0  0  0  0
  189.7230  171.5850  141.7660 C   0  0  0  0  0  2  0  0  0  0  0  0
  189.0690  172.5300  140.7460 C   0  0  0  0  0  2  0  0  0  0  0  0
  189.2260  171.9300  143.0790 N   0  0  0  0  0  2  0  0  0  0  0  0
  187.9900  175.0770  139.4090 C   0  0  0  0  0  0  0  0  0  0  0  0
  189.6830  173.9190  140.7930 C   0  0  0  0  0  2  0  0  0  0  0  0
  190.6640  176.2720  142.8320 C   0  0  0  0  0  3  0  0  0  0  0  0
  186.1890  178.3640  142.7170 C   0  0  0  0  0  2  0  0  0  0  0  0
  189.2360  177.6370  144.2100 C   0  0  0  0  0  0  0  0  0  0  0  0
  186.0250  178.0480  140.2280 C   0  0  0  0  0  2  0  0  0  0  0  0
  192.1500  172.6980  144.4180 C   0  0  0  0  0  0  0  0  0  0  0  0
  189.4410  176.8900  143.0490 C   0  0  0  0  0  3  0  0  0  0  0  0
  185.5690  177.5090  141.5890 C   0  0  2  0  0  3  0  0  0  0  0  0
  184.1720  177.4570  141.6940 O   0  0  0  0  0  1  0  0  0  0  0  0
  186.3640  176.3090  143.9930 O   0  0  0  0  0  0  0  0  0  0  0  0
  194.2440  173.7790  144.9740 C   0  0  0  0  0  0  0  0  0  0  0  0
  191.6710  173.8950  144.0030 N   0  0  0  0  0  0  0  0  0  0  0  0
  190.3240  177.9060  145.0630 C   0  0  0  0  0  3  0  0  0  0  0  0
  191.5440  177.2370  144.8740 C   0  0  0  0  0  3  0  0  0  0  0  0
  193.4460  172.6200  144.9320 C   0  0  0  0  0  3  0  0  0  0  0  0
  187.8930  177.9990  144.5920 N   0  0  0  0  0  0  0  0  0  0  0  0
  192.3910  175.0620  144.0800 C   0  0  0  0  0  0  0  0  0  0  0  0
  187.3170  177.3940  139.8560 C   0  0  0  0  0  2  0  0  0  0  0  0
  188.1430  174.1690  138.2140 C   0  0  1  0  0  3  0  0  0  0  0  0
  187.1530  174.5220  137.2950 O   0  0  0  0  0  1  0  0  0  0  0  0
  189.5200  174.4230  137.5980 C   0  0  0  0  0  2  0  0  0  0  0  0
  189.5710  174.7290  136.0810 C   0  0  1  0  0  3  0  0  0  0  0  0
  190.7950  174.4690  135.1480 C   0  0  2  0  0  3  0  0  0  0  0  0
  189.8870  173.3300  135.5360 C   0  0  0  0  0  2  0  0  0  0  0  0
  193.1780  173.7560  135.0780 C   0  0  0  0  0  2  0  0  0  0  0  0
  193.5430  175.6670  137.1390 C   0  0  0  0  0  2  0  0  0  0  0  0
  192.5120  175.8090  136.2060 O   0  0  0  0  0  0  0  0  0  0  0  0
  194.8050  175.3810  136.3640 C   0  0  1  0  0  3  0  0  0  0  0  0
  192.1270  174.4800  135.9120 C   0  0  1  0  0  3  0  0  0  0  0  0
  196.0220  175.2780  137.3030 C   0  0  0  0  0  1  0  0  0  0  0  0
  194.6370  174.1920  135.3910 C   0  0  1  0  0  3  0  0  0  0  0  0
  196.6700  172.8730  135.0310 O   0  0  0  0  0  0  0  0  0  0  0  0
  195.5010  173.0510  135.7030 N   0  0  0  0  0  0  0  0  0  0  0  0
  196.9200  171.5450  135.2290 N   0  0  0  0  0  2  0  0  0  0  0  0
  195.0310  171.8340  136.3040 C   0  0  0  0  0  3  0  0  0  0  0  0
  195.9030  170.9100  136.0120 C   0  0  0  0  0  3  0  0  0  0  0  0
  187.7250  177.1960  146.8330 F   0  0  0  0  0  0  0  0  0  0  0  0
  187.5900  178.2900  146.0050 C   0  0  2  0  0  3  0  0  0  0  0  0
  186.2240  179.0110  146.1810 C   0  0  0  0  0  2  0  0  0  0  0  0
  185.3510  178.3720  148.3050 O   0  0  0  0  0  1  0  0  0  0  0  0
  184.1930  177.5740  146.4780 O   0  0  0  0  0  0  0  0  0  0  0  0
  185.2460  178.2860  147.0470 C   0  0  0  0  0  0  0  0  0  0  0  0
  195.5860  173.7040  145.3680 O   0  0  0  0  0  0  0  0  0  0  0  0
  196.5260  173.0470  144.5290 C   0  0  0  0  0  2  0  0  0  0  0  0
  196.7730  173.8370  143.3450 N   0  0  0  0  0  2  0  0  0  0  0  0
  196.7460  172.8680  142.2490 C   0  0  0  0  0  2  0  0  0  0  0  0
  194.5250  170.5980  140.5150 C   0  0  0  0  0  0  0  0  0  0  0  0
  193.0150  171.8870  139.1740 C   0  0  0  0  0  3  0  0  0  0  0  0
  193.5290  170.5900  139.6680 C   0  0  0  0  0  3  0  0  0  0  0  0
  195.4480  170.8440  141.3830 C   0  0  0  0  0  3  0  0  0  0  0  0
  195.3920  172.1540  142.1580 C   0  0  2  0  0  3  0  0  0  0  0  0
  193.4810  173.1240  139.4720 C   0  0  0  0  0  3  0  0  0  0  0  0
  194.6670  173.4180  140.3600 C   0  0  0  0  0  2  0  0  0  0  0  0
  194.3920  173.0500  141.7000 O   0  0  0  0  0  0  0  0  0  0  0  0
  1 23  1  0  0  0  0
  2 12  1  0  0  0  0
  2 30  1  0  0  0  0
  3  6  1  0  0  0  0
  3  5  2  0  0  0  0
  4 22  2  0  0  0  0
  4 28  1  0  0  0  0
  6 18  1  0  0  0  0
  7 13  1  0  0  0  0
  8 29  1  0  0  0  0
  8 26  1  0  0  0  0
  9 11  1  0  0  0  0
 10 13  1  0  0  0  0
 10  9  1  0  0  0  0
 11  3  1  0  0  0  0
 12  7  2  0  0  0  0
 14 19  1  0  0  0  0
 14  8  2  0  0  0  0
 15  4  1  0  0  0  0
 16 28  1  0  0  0  0
 16 25  1  0  0  0  0
 17 20  1  0  0  0  0
 18 27  1  0  0  0  0
 19 16  2  0  0  0  0
 20 21  1  6  0  0  0
 20 15  1  0  0  0  0
 23 55  1  0  0  0  0
 24 29  1  0  0  0  0
 24 18  2  0  0  0  0
 26 25  2  0  0  0  0
 27 23  2  0  0  0  0
 28 50  1  0  0  0  0
 29  1  2  0  0  0  0
 30 17  1  0  0  0  0
 31 32  1  6  0  0  0
 31 12  1  0  0  0  0
 33 31  1  0  0  0  0
 34 33  1  1  0  0  0
 35 36  1  1  0  0  0
 35 41  1  0  0  0  0
 35 34  1  0  0  0  0
 36 34  1  0  0  0  0
 39 38  1  0  0  0  0
 40 38  1  0  0  0  0
 40 42  1  1  0  0  0
 41 37  1  6  0  0  0
 41 39  1  0  0  0  0
 43 37  1  1  0  0  0
 43 45  1  0  0  0  0
 43 40  1  0  0  0  0
 44 46  1  0  0  0  0
 44 45  1  0  0  0  0
 45 47  1  0  0  0  0
 46 48  1  0  0  0  0
 48 47  2  0  0  0  0
 50 51  1  0  0  0  0
 50 49  1  1  0  0  0
 51 54  1  0  0  0  0
 53 54  2  0  0  0  0
 54 52  1  0  0  0  0
 56 55  1  0  0  0  0
 57 56  1  0  0  0  0
 58 57  1  0  0  0  0
 59 62  2  0  0  0  0
 60 64  2  0  0  0  0
 60 61  1  0  0  0  0
 61 59  2  0  0  0  0
 62 63  1  0  0  0  0
 63 58  1  6  0  0  0
 64 65  1  0  0  0  0
 65 66  1  0  0  0  0
 66 63  1  0  0  0  0
M  END
>  <MODEL>
5

>  <REMARK>
 VINA RESULT:      -6.1      2.825      8.698
  Name = 
  13 active torsions:
  status: ('A' for Active; 'I' for Inactive)
    1  A    between atoms: C_6  and  C_19
    2  A    between atoms: C_6  and  C_37
    3  A    between atoms: C_11  and  C_38
    4  A    between atoms: C_11  and  C_57
    5  A    between atoms: C_19  and  C_30
    6  A    between atoms: N_20  and  C_45
    7  A    between atoms: C_22  and  C_43
    8  A    between atoms: N_29  and  C_34
    9  A    between atoms: N_29  and  C_35
   10  A    between atoms: C_34  and  O_52
   11  A    between atoms: C_35  and  C_53
   12  A    between atoms: C_38  and  N_63
   13  A    between atoms: C_50  and  O_52
                            x       y       z     vdW  Elec       q    Type
                         _______ _______ _______ _____ _____    ______ ____

>  <TORSDO>
F 13

$$$$
=
 OpenBabel11042416193D

 66 72  0  0  1  0  0  0  0  0999 V2000
  188.8800  173.9350  140.4380 C   0  0  0  0  0  3  0  0  0  0  0  0
  197.0910  173.4120  138.2110 O   0  0  0  0  0  0  0  0  0  0  0  0
  192.0260  170.5810  142.5750 C   0  0  0  0  0  0  0  0  0  0  0  0
  193.9350  170.6700  136.1570 C   0  0  0  0  0  0  0  0  0  0  0  0
  191.6750  169.4040  142.2570 O   0  0  0  0  0  0  0  0  0  0  0  0
  191.0590  171.4920  143.0620 O   0  0  0  0  0  0  0  0  0  0  0  0
  195.2790  173.3280  139.6340 N   0  0  0  0  0  0  0  0  0  0  0  0
  190.6880  173.5290  138.7200 C   0  0  0  0  0  0  0  0  0  0  0  0
  193.9900  172.1360  142.9090 C   0  0  0  0  0  2  0  0  0  0  0  0
  195.0730  172.6950  141.9740 C   0  0  0  0  0  2  0  0  0  0  0  0
  193.3540  171.0220  142.2430 N   0  0  0  0  0  2  0  0  0  0  0  0
  196.5100  173.6910  139.4470 C   0  0  0  0  0  0  0  0  0  0  0  0
  194.4720  173.5050  140.8370 C   0  0  0  0  0  2  0  0  0  0  0  0
  192.0880  173.5050  138.6080 C   0  0  0  0  0  3  0  0  0  0  0  0
  195.0350  171.2790  135.3250 C   0  0  0  0  0  2  0  0  0  0  0  0
  191.9400  172.0500  136.6940 C   0  0  0  0  0  0  0  0  0  0  0  0
  196.9660  172.7650  135.9410 C   0  0  0  0  0  2  0  0  0  0  0  0
  190.3000  172.2860  142.1870 C   0  0  0  0  0  0  0  0  0  0  0  0
  192.7100  172.7420  137.6300 C   0  0  0  0  0  3  0  0  0  0  0  0
  196.3590  171.3680  136.1140 C   0  0  2  0  0  3  0  0  0  0  0  0
  197.2520  170.3550  135.7340 O   0  0  0  0  0  1  0  0  0  0  0  0
  194.2120  169.8800  137.1290 O   0  0  0  0  0  0  0  0  0  0  0  0
  188.3450  173.6330  141.7060 C   0  0  0  0  0  0  0  0  0  0  0  0
  190.8030  172.6280  140.9770 N   0  0  0  0  0  0  0  0  0  0  0  0
  190.5510  172.2740  136.6370 C   0  0  0  0  0  3  0  0  0  0  0  0
  189.9160  173.0000  137.6570 C   0  0  0  0  0  3  0  0  0  0  0  0
  189.0460  172.7700  142.5690 C   0  0  0  0  0  3  0  0  0  0  0  0
  192.5540  171.0160  135.8980 N   0  0  0  0  0  0  0  0  0  0  0  0
  190.1290  173.4180  140.0770 C   0  0  0  0  0  0  0  0  0  0  0  0
  196.4120  173.6690  136.9960 C   0  0  0  0  0  2  0  0  0  0  0  0
  197.3570  174.3210  140.5250 C   0  0  1  0  0  3  0  0  0  0  0  0
  197.9360  175.4690  139.9820 O   0  0  0  0  0  1  0  0  0  0  0  0
  196.4370  174.7150  141.6820 C   0  0  0  0  0  2  0  0  0  0  0  0
  196.8630  175.9310  142.5420 C   0  0  1  0  0  3  0  0  0  0  0  0
  196.0860  176.4780  143.7800 C   0  0  2  0  0  3  0  0  0  0  0  0
  196.9680  175.2620  143.9180 C   0  0  0  0  0  2  0  0  0  0  0  0
  193.9050  176.7500  144.9470 C   0  0  0  0  0  2  0  0  0  0  0  0
  192.7720  176.0040  142.4590 C   0  0  0  0  0  2  0  0  0  0  0  0
  194.0250  176.6220  142.5190 O   0  0  0  0  0  0  0  0  0  0  0  0
  191.8360  176.8170  143.3180 C   0  0  1  0  0  3  0  0  0  0  0  0
  194.5880  176.1450  143.7250 C   0  0  1  0  0  3  0  0  0  0  0  0
  190.4030  176.2550  143.2620 C   0  0  0  0  0  1  0  0  0  0  0  0
  192.3900  177.0330  144.7440 C   0  0  1  0  0  3  0  0  0  0  0  0
  190.6200  177.1590  146.4330 O   0  0  0  0  0  0  0  0  0  0  0  0
  191.5680  176.4230  145.7930 N   0  0  0  0  0  0  0  0  0  0  0  0
  190.4330  176.4510  147.5860 N   0  0  0  0  0  2  0  0  0  0  0  0
  191.9680  175.2730  146.5540 C   0  0  0  0  0  3  0  0  0  0  0  0
  191.2700  175.2910  147.6550 C   0  0  0  0  0  3  0  0  0  0  0  0
  190.5100  170.3910  134.8350 F   0  0  0  0  0  0  0  0  0  0  0  0
  191.7180  169.9440  135.3260 C   0  0  2  0  0  3  0  0  0  0  0  0
  191.5640  168.7350  136.2910 C   0  0  0  0  0  2  0  0  0  0  0  0
  189.6260  169.1510  137.6150 O   0  0  0  0  0  0  0  0  0  0  0  0
  191.6290  169.1850  138.7550 O   0  0  0  0  0  1  0  0  0  0  0  0
  190.8870  169.0550  137.5840 C   0  0  0  0  0  0  0  0  0  0  0  0
  187.1470  174.2290  142.1160 O   0  0  0  0  0  0  0  0  0  0  0  0
  186.9780  175.6330  141.9720 C   0  0  0  0  0  2  0  0  0  0  0  0
  186.2180  176.1590  143.0820 N   0  0  0  0  0  2  0  0  0  0  0  0
  186.2820  177.6110  142.9110 C   0  0  0  0  0  2  0  0  0  0  0  0
  187.0040  177.4870  146.4550 C   0  0  0  0  0  0  0  0  0  0  0  0
  185.1320  178.3930  147.6450 C   0  0  0  0  0  3  0  0  0  0  0  0
  186.4780  177.7780  147.6160 C   0  0  0  0  0  3  0  0  0  0  0  0
  187.3500  177.3520  145.2190 C   0  0  0  0  0  3  0  0  0  0  0  0
  186.7660  178.3100  144.1880 C   0  0  2  0  0  3  0  0  0  0  0  0
  184.3330  178.6740  146.5870 C   0  0  0  0  0  3  0  0  0  0  0  0
  184.6590  178.3710  145.1440 C   0  0  0  0  0  2  0  0  0  0  0  0
  185.7520  179.1570  144.7010 O   0  0  0  0  0  0  0  0  0  0  0  0
  1 23  1  0  0  0  0
  2 12  1  0  0  0  0
  3  6  1  0  0  0  0
  4 22  2  0  0  0  0
  5  3  2  0  0  0  0
  7 13  1  0  0  0  0
  8 29  1  0  0  0  0
 10  9  1  0  0  0  0
 11  3  1  0  0  0  0
 11  9  1  0  0  0  0
 12  7  2  0  0  0  0
 12 31  1  0  0  0  0
 13 10  1  0  0  0  0
 14  8  1  0  0  0  0
 15 20  1  0  0  0  0
 15  4  1  0  0  0  0
 16 19  1  0  0  0  0
 17 20  1  0  0  0  0
 17 30  1  0  0  0  0
 18 27  1  0  0  0  0
 18  6  1  0  0  0  0
 19 14  2  0  0  0  0
 20 21  1  6  0  0  0
 23 55  1  0  0  0  0
 23 27  2  0  0  0  0
 24 18  2  0  0  0  0
 25 16  2  0  0  0  0
 25 26  1  0  0  0  0
 26  8  2  0  0  0  0
 28  4  1  0  0  0  0
 28 16  1  0  0  0  0
 29  1  2  0  0  0  0
 29 24  1  0  0  0  0
 30  2  1  0  0  0  0
 31 32  1  6  0  0  0
 31 33  1  0  0  0  0
 34 33  1  6  0  0  0
 34 35  1  0  0  0  0
 34 36  1  0  0  0  0
 35 36  1  1  0  0  0
 38 39  1  0  0  0  0
 38 40  1  0  0  0  0
 39 41  1  0  0  0  0
 40 42  1  1  0  0  0
 40 43  1  0  0  0  0
 41 35  1  0  0  0  0
 41 37  1  1  0  0  0
 43 37  1  6  0  0  0
 43 45  1  0  0  0  0
 44 46  1  0  0  0  0
 45 44  1  0  0  0  0
 45 47  1  0  0  0  0
 46 48  1  0  0  0  0
 47 48  2  0  0  0  0
 50 49  1  1  0  0  0
 50 28  1  0  0  0  0
 50 51  1  0  0  0  0
 51 54  1  0  0  0  0
 54 52  2  0  0  0  0
 54 53  1  0  0  0  0
 56 55  1  0  0  0  0
 56 57  1  0  0  0  0
 58 57  1  0  0  0  0
 59 61  2  0  0  0  0
 61 60  1  0  0  0  0
 62 59  2  0  0  0  0
 63 58  1  6  0  0  0
 63 66  1  0  0  0  0
 63 62  1  0  0  0  0
 64 60  2  0  0  0  0
 65 64  1  0  0  0  0
 66 65  1  0  0  0  0
M  END
>  <MODEL>
6

>  <REMARK>
 VINA RESULT:      -6.1      2.769      6.442
  Name = 
  13 active torsions:
  status: ('A' for Active; 'I' for Inactive)
    1  A    between atoms: C_6  and  C_19
    2  A    between atoms: C_6  and  C_37
    3  A    between atoms: C_11  and  C_38
    4  A    between atoms: C_11  and  C_57
    5  A    between atoms: C_19  and  C_30
    6  A    between atoms: N_20  and  C_45
    7  A    between atoms: C_22  and  C_43
    8  A    between atoms: N_29  and  C_34
    9  A    between atoms: N_29  and  C_35
   10  A    between atoms: C_34  and  O_52
   11  A    between atoms: C_35  and  C_53
   12  A    between atoms: C_38  and  N_63
   13  A    between atoms: C_50  and  O_52
                            x       y       z     vdW  Elec       q    Type
                         _______ _______ _______ _____ _____    ______ ____

>  <TORSDO>
F 13

$$$$
=
 OpenBabel11042416193D

 66 72  0  0  1  0  0  0  0  0999 V2000
  191.5620  172.9640  137.7550 C   0  0  0  0  0  3  0  0  0  0  0  0
  192.9830  175.4470  145.7850 O   0  0  0  0  0  0  0  0  0  0  0  0
  191.0590  169.7820  141.6710 C   0  0  0  0  0  0  0  0  0  0  0  0
  196.4010  173.4710  143.3110 C   0  0  0  0  0  0  0  0  0  0  0  0
  191.9440  168.8750  141.6010 O   0  0  0  0  0  0  0  0  0  0  0  0
  190.2810  170.0890  140.5300 O   0  0  0  0  0  0  0  0  0  0  0  0
  191.9600  174.2680  144.0880 N   0  0  0  0  0  0  0  0  0  0  0  0
  193.0810  173.8770  139.5560 C   0  0  0  0  0  0  0  0  0  0  0  0
  189.8240  171.3540  143.2180 C   0  0  0  0  0  2  0  0  0  0  0  0
  190.2600  172.5270  144.1090 C   0  0  0  0  0  2  0  0  0  0  0  0
  191.0070  170.6100  142.8460 N   0  0  0  0  0  2  0  0  0  0  0  0
  191.8290  174.9370  145.1910 C   0  0  0  0  0  0  0  0  0  0  0  0
  190.9050  173.6390  143.2990 C   0  0  0  0  0  2  0  0  0  0  0  0
  193.0600  174.2220  140.9170 C   0  0  0  0  0  3  0  0  0  0  0  0
  196.7220  174.6390  144.2100 C   0  0  0  0  0  2  0  0  0  0  0  0
  195.4460  173.9220  141.0630 C   0  0  0  0  0  0  0  0  0  0  0  0
  195.2790  176.0060  145.7500 C   0  0  0  0  0  2  0  0  0  0  0  0
  190.7210  171.0240  139.5780 C   0  0  0  0  0  0  0  0  0  0  0  0
  194.2230  174.2060  141.6740 C   0  0  0  0  0  3  0  0  0  0  0  0
  195.8700  174.6140  145.4980 C   0  0  2  0  0  3  0  0  0  0  0  0
  196.6120  174.1500  146.5940 O   0  0  0  0  0  1  0  0  0  0  0  0
  195.9190  172.3870  143.7980 O   0  0  0  0  0  0  0  0  0  0  0  0
  190.6620  171.9610  137.3460 C   0  0  0  0  0  0  0  0  0  0  0  0
  191.5560  172.0230  139.9490 N   0  0  0  0  0  0  0  0  0  0  0  0
  195.5150  173.8310  139.6590 C   0  0  0  0  0  3  0  0  0  0  0  0
  194.3340  173.7920  138.9000 C   0  0  0  0  0  3  0  0  0  0  0  0
  190.2700  170.9630  138.2570 C   0  0  0  0  0  3  0  0  0  0  0  0
  196.5850  173.5850  141.8810 N   0  0  0  0  0  0  0  0  0  0  0  0
  192.0120  172.9860  139.0800 C   0  0  0  0  0  0  0  0  0  0  0  0
  193.9740  176.1170  145.0280 C   0  0  0  0  0  2  0  0  0  0  0  0
  190.5070  175.1160  145.8960 C   0  0  1  0  0  3  0  0  0  0  0  0
  190.7830  175.3570  147.2430 O   0  0  0  0  0  1  0  0  0  0  0  0
  189.8100  176.3370  145.2940 C   0  0  0  0  0  2  0  0  0  0  0  0
  190.4720  176.9910  144.0560 C   0  0  1  0  0  3  0  0  0  0  0  0
  189.7500  177.9210  143.0310 C   0  0  2  0  0  3  0  0  0  0  0  0
  190.2050  178.4710  144.3590 C   0  0  0  0  0  2  0  0  0  0  0  0
  187.5570  178.3990  144.1030 C   0  0  0  0  0  2  0  0  0  0  0  0
  186.4520  177.4830  141.6590 C   0  0  0  0  0  2  0  0  0  0  0  0
  187.7310  178.0450  141.7010 O   0  0  0  0  0  0  0  0  0  0  0  0
  185.5360  178.4130  142.4130 C   0  0  1  0  0  3  0  0  0  0  0  0
  188.2400  177.6550  142.9610 C   0  0  1  0  0  3  0  0  0  0  0  0
  184.0780  177.9160  142.3650 C   0  0  0  0  0  1  0  0  0  0  0  0
  186.0630  178.7320  143.8300 C   0  0  1  0  0  3  0  0  0  0  0  0
  184.3930  179.1360  145.5770 O   0  0  0  0  0  0  0  0  0  0  0  0
  185.1850  178.2590  144.9050 N   0  0  0  0  0  0  0  0  0  0  0  0
  184.1290  178.4610  146.7340 N   0  0  0  0  0  2  0  0  0  0  0  0
  185.4150  177.0540  145.6510 C   0  0  0  0  0  3  0  0  0  0  0  0
  184.7650  177.1790  146.7740 C   0  0  0  0  0  3  0  0  0  0  0  0
  197.7300  172.8220  139.9300 F   0  0  0  0  0  0  0  0  0  0  0  0
  197.6840  172.7860  141.3080 C   0  0  2  0  0  3  0  0  0  0  0  0
  197.7190  171.3380  141.8720 C   0  0  0  0  0  2  0  0  0  0  0  0
  195.6100  170.4370  141.2230 O   0  0  0  0  0  1  0  0  0  0  0  0
  197.4530  169.4130  140.2910 O   0  0  0  0  0  0  0  0  0  0  0  0
  196.8700  170.3600  141.1280 C   0  0  0  0  0  0  0  0  0  0  0  0
  190.1260  171.9930  136.0530 O   0  0  0  0  0  0  0  0  0  0  0  0
  190.3280  170.8870  135.1830 C   0  0  0  0  0  2  0  0  0  0  0  0
  191.6030  171.0070  134.5150 N   0  0  0  0  0  2  0  0  0  0  0  0
  192.2850  169.7450  134.8050 C   0  0  0  0  0  2  0  0  0  0  0  0
  195.3100  170.9880  136.3550 C   0  0  0  0  0  0  0  0  0  0  0  0
  196.9510  169.2420  136.3280 C   0  0  0  0  0  3  0  0  0  0  0  0
  196.5280  170.6210  136.6580 C   0  0  0  0  0  3  0  0  0  0  0  0
  194.0650  171.1050  136.0350 C   0  0  0  0  0  3  0  0  0  0  0  0
  193.1880  169.8600  136.0400 C   0  0  2  0  0  3  0  0  0  0  0  0
  196.2240  168.2860  135.7010 C   0  0  0  0  0  3  0  0  0  0  0  0
  194.8190  168.4650  135.1740 C   0  0  0  0  0  2  0  0  0  0  0  0
  193.9050  168.6530  136.2400 O   0  0  0  0  0  0  0  0  0  0  0  0
  1 29  2  0  0  0  0
  3 11  1  0  0  0  0
  4 22  2  0  0  0  0
  4 15  1  0  0  0  0
  5  3  2  0  0  0  0
  6  3  1  0  0  0  0
  7 12  2  0  0  0  0
  8 14  1  0  0  0  0
  9 10  1  0  0  0  0
 11  9  1  0  0  0  0
 12  2  1  0  0  0  0
 12 31  1  0  0  0  0
 13  7  1  0  0  0  0
 13 10  1  0  0  0  0
 14 19  2  0  0  0  0
 15 20  1  0  0  0  0
 16 19  1  0  0  0  0
 16 28  1  0  0  0  0
 18 24  2  0  0  0  0
 18  6  1  0  0  0  0
 20 17  1  0  0  0  0
 20 21  1  1  0  0  0
 23  1  1  0  0  0  0
 23 27  2  0  0  0  0
 25 16  2  0  0  0  0
 26  8  2  0  0  0  0
 26 25  1  0  0  0  0
 27 18  1  0  0  0  0
 28  4  1  0  0  0  0
 29  8  1  0  0  0  0
 29 24  1  0  0  0  0
 30 17  1  0  0  0  0
 30  2  1  0  0  0  0
 31 32  1  1  0  0  0
 33 31  1  0  0  0  0
 34 36  1  0  0  0  0
 34 33  1  1  0  0  0
 35 34  1  0  0  0  0
 35 36  1  1  0  0  0
 38 39  1  0  0  0  0
 38 40  1  0  0  0  0
 39 41  1  0  0  0  0
 40 42  1  1  0  0  0
 40 43  1  0  0  0  0
 41 35  1  0  0  0  0
 41 37  1  1  0  0  0
 43 37  1  1  0  0  0
 43 45  1  0  0  0  0
 44 46  1  0  0  0  0
 45 44  1  0  0  0  0
 45 47  1  0  0  0  0
 46 48  1  0  0  0  0
 47 48  2  0  0  0  0
 50 49  1  6  0  0  0
 50 51  1  0  0  0  0
 50 28  1  0  0  0  0
 53 54  2  0  0  0  0
 54 52  1  0  0  0  0
 54 51  1  0  0  0  0
 55 23  1  0  0  0  0
 56 55  1  0  0  0  0
 57 58  1  0  0  0  0
 57 56  1  0  0  0  0
 59 61  2  0  0  0  0
 60 61  1  0  0  0  0
 62 63  1  0  0  0  0
 62 59  2  0  0  0  0
 63 58  1  6  0  0  0
 63 66  1  0  0  0  0
 64 60  2  0  0  0  0
 65 64  1  0  0  0  0
 65 66  1  0  0  0  0
M  END
>  <MODEL>
7

>  <REMARK>
 VINA RESULT:      -6.1      2.718      9.667
  Name = 
  13 active torsions:
  status: ('A' for Active; 'I' for Inactive)
    1  A    between atoms: C_6  and  C_19
    2  A    between atoms: C_6  and  C_37
    3  A    between atoms: C_11  and  C_38
    4  A    between atoms: C_11  and  C_57
    5  A    between atoms: C_19  and  C_30
    6  A    between atoms: N_20  and  C_45
    7  A    between atoms: C_22  and  C_43
    8  A    between atoms: N_29  and  C_34
    9  A    between atoms: N_29  and  C_35
   10  A    between atoms: C_34  and  O_52
   11  A    between atoms: C_35  and  C_53
   12  A    between atoms: C_38  and  N_63
   13  A    between atoms: C_50  and  O_52
                            x       y       z     vdW  Elec       q    Type
                         _______ _______ _______ _____ _____    ______ ____

>  <TORSDO>
F 13

$$$$
=
 OpenBabel11042416193D

 66 72  0  0  1  0  0  0  0  0999 V2000
  191.0300  173.4950  138.0330 C   0  0  0  0  0  3  0  0  0  0  0  0
  193.1430  175.6300  146.0100 O   0  0  0  0  0  0  0  0  0  0  0  0
  190.6090  170.2200  141.8820 C   0  0  0  0  0  0  0  0  0  0  0  0
  196.2600  173.5450  143.2470 C   0  0  0  0  0  0  0  0  0  0  0  0
  191.4320  169.2670  141.7240 O   0  0  0  0  0  0  0  0  0  0  0  0
  189.7740  170.6090  140.8080 O   0  0  0  0  0  0  0  0  0  0  0  0
  191.9380  174.5670  144.3570 N   0  0  0  0  0  0  0  0  0  0  0  0
  192.7200  174.2610  139.7470 C   0  0  0  0  0  0  0  0  0  0  0  0
  189.5790  171.8090  143.5560 C   0  0  0  0  0  2  0  0  0  0  0  0
  190.1430  172.9260  144.4480 C   0  0  0  0  0  2  0  0  0  0  0  0
  190.6880  171.0120  143.0810 N   0  0  0  0  0  2  0  0  0  0  0  0
  191.9220  175.2060  145.4850 C   0  0  0  0  0  0  0  0  0  0  0  0
  190.7960  174.0250  143.6260 C   0  0  0  0  0  2  0  0  0  0  0  0
  192.8130  174.5620  141.1160 C   0  0  0  0  0  3  0  0  0  0  0  0
  196.7100  174.6630  144.1530 C   0  0  0  0  0  2  0  0  0  0  0  0
  195.1810  174.1220  141.0850 C   0  0  0  0  0  0  0  0  0  0  0  0
  195.4600  176.0590  145.8290 C   0  0  0  0  0  2  0  0  0  0  0  0
  190.2030  171.5470  139.8550 C   0  0  0  0  0  0  0  0  0  0  0  0
  194.0220  174.4550  141.7880 C   0  0  0  0  0  3  0  0  0  0  0  0
  195.9490  174.6440  145.4970 C   0  0  2  0  0  3  0  0  0  0  0  0
  196.7360  174.1040  146.5250 O   0  0  0  0  0  1  0  0  0  0  0  0
  195.7500  172.4740  143.7350 O   0  0  0  0  0  0  0  0  0  0  0  0
  190.0450  172.5580  137.6600 C   0  0  0  0  0  0  0  0  0  0  0  0
  191.1190  172.4850  140.1940 N   0  0  0  0  0  0  0  0  0  0  0  0
  195.1480  174.0730  139.6780 C   0  0  0  0  0  3  0  0  0  0  0  0
  193.9180  174.1250  139.0030 C   0  0  0  0  0  3  0  0  0  0  0  0
  189.6600  171.5550  138.5680 C   0  0  0  0  0  3  0  0  0  0  0  0
  196.3520  173.6940  141.8100 N   0  0  0  0  0  0  0  0  0  0  0  0
  191.5690  173.4470  139.3230 C   0  0  0  0  0  0  0  0  0  0  0  0
  194.1170  176.2670  145.2050 C   0  0  0  0  0  2  0  0  0  0  0  0
  190.6650  175.4370  146.2860 C   0  0  1  0  0  3  0  0  0  0  0  0
  191.0140  175.3730  147.6360 O   0  0  0  0  0  1  0  0  0  0  0  0
  190.1470  176.8400  145.9620 C   0  0  0  0  0  2  0  0  0  0  0  0
  189.0640  177.4280  146.9000 C   0  0  1  0  0  3  0  0  0  0  0  0
  187.5530  177.5900  146.5450 C   0  0  2  0  0  3  0  0  0  0  0  0
  188.0900  176.2440  146.9600 C   0  0  0  0  0  2  0  0  0  0  0  0
  187.1030  176.3240  144.4510 C   0  0  0  0  0  2  0  0  0  0  0  0
  186.2990  178.8350  143.4090 C   0  0  0  0  0  2  0  0  0  0  0  0
  186.2160  178.5680  144.7790 O   0  0  0  0  0  0  0  0  0  0  0  0
  185.6720  177.6660  142.6920 C   0  0  1  0  0  3  0  0  0  0  0  0
  187.3170  177.7170  145.0330 C   0  0  1  0  0  3  0  0  0  0  0  0
  185.6500  177.8970  141.1690 C   0  0  0  0  0  1  0  0  0  0  0  0
  186.2800  176.3160  143.1320 C   0  0  1  0  0  3  0  0  0  0  0  0
  187.0680  174.2460  142.0840 O   0  0  0  0  0  0  0  0  0  0  0  0
  186.9690  175.6020  142.0540 N   0  0  0  0  0  0  0  0  0  0  0  0
  188.1240  174.0130  141.2490 N   0  0  0  0  0  2  0  0  0  0  0  0
  187.9670  176.2000  141.2110 C   0  0  0  0  0  3  0  0  0  0  0  0
  188.6750  175.2230  140.7180 C   0  0  0  0  0  3  0  0  0  0  0  0
  197.5540  173.1800  139.8140 F   0  0  0  0  0  0  0  0  0  0  0  0
  197.3590  172.8540  141.1390 C   0  0  2  0  0  3  0  0  0  0  0  0
  197.1000  171.3350  141.3520 C   0  0  0  0  0  2  0  0  0  0  0  0
  197.3120  169.7900  139.5500 O   0  0  0  0  0  0  0  0  0  0  0  0
  195.2580  170.8220  139.7330 O   0  0  0  0  0  1  0  0  0  0  0  0
  196.5710  170.6210  140.1510 C   0  0  0  0  0  0  0  0  0  0  0  0
  189.4250  172.6620  136.4090 O   0  0  0  0  0  0  0  0  0  0  0  0
  190.2020  172.5250  135.2280 C   0  0  0  0  0  2  0  0  0  0  0  0
  191.3380  171.6680  135.4760 N   0  0  0  0  0  2  0  0  0  0  0  0
  191.1850  170.5750  134.5140 C   0  0  0  0  0  2  0  0  0  0  0  0
  192.4440  168.6690  137.3210 C   0  0  0  0  0  0  0  0  0  0  0  0
  194.8000  168.3510  137.0290 C   0  0  0  0  0  3  0  0  0  0  0  0
  193.5520  168.1680  137.8020 C   0  0  0  0  0  3  0  0  0  0  0  0
  191.4760  169.1760  136.6330 C   0  0  0  0  0  3  0  0  0  0  0  0
  191.6070  169.2290  135.1160 C   0  0  2  0  0  3  0  0  0  0  0  0
  194.9550  169.0220  135.8620 C   0  0  0  0  0  3  0  0  0  0  0  0
  193.8600  169.7600  135.1290 C   0  0  0  0  0  2  0  0  0  0  0  0
  192.8880  168.8540  134.6370 O   0  0  0  0  0  0  0  0  0  0  0  0
  1 29  2  0  0  0  0
  3 11  1  0  0  0  0
  4 22  2  0  0  0  0
  4 15  1  0  0  0  0
  5  3  2  0  0  0  0
  6  3  1  0  0  0  0
  7 12  2  0  0  0  0
  8 14  1  0  0  0  0
  9 10  1  0  0  0  0
 11  9  1  0  0  0  0
 12  2  1  0  0  0  0
 12 31  1  0  0  0  0
 13  7  1  0  0  0  0
 13 10  1  0  0  0  0
 14 19  2  0  0  0  0
 15 20  1  0  0  0  0
 16 19  1  0  0  0  0
 16 28  1  0  0  0  0
 18 24  2  0  0  0  0
 18  6  1  0  0  0  0
 20 17  1  0  0  0  0
 20 21  1  1  0  0  0
 23  1  1  0  0  0  0
 23 27  2  0  0  0  0
 25 16  2  0  0  0  0
 26 25  1  0  0  0  0
 26  8  2  0  0  0  0
 27 18  1  0  0  0  0
 28  4  1  0  0  0  0
 29  8  1  0  0  0  0
 29 24  1  0  0  0  0
 30 17  1  0  0  0  0
 30  2  1  0  0  0  0
 31 32  1  1  0  0  0
 33 31  1  0  0  0  0
 34 33  1  6  0  0  0
 34 36  1  0  0  0  0
 35 34  1  0  0  0  0
 35 36  1  6  0  0  0
 38 39  1  0  0  0  0
 39 41  1  0  0  0  0
 40 42  1  6  0  0  0
 40 43  1  0  0  0  0
 40 38  1  0  0  0  0
 41 37  1  1  0  0  0
 41 35  1  0  0  0  0
 43 45  1  6  0  0  0
 43 37  1  0  0  0  0
 45 44  1  0  0  0  0
 46 44  1  0  0  0  0
 47 45  1  0  0  0  0
 48 47  2  0  0  0  0
 48 46  1  0  0  0  0
 50 49  1  6  0  0  0
 50 51  1  0  0  0  0
 50 28  1  0  0  0  0
 52 54  2  0  0  0  0
 53 54  1  0  0  0  0
 54 51  1  0  0  0  0
 55 23  1  0  0  0  0
 56 57  1  0  0  0  0
 56 55  1  0  0  0  0
 58 57  1  0  0  0  0
 59 61  2  0  0  0  0
 60 61  1  0  0  0  0
 62 59  2  0  0  0  0
 63 58  1  1  0  0  0
 63 62  1  0  0  0  0
 64 60  2  0  0  0  0
 65 64  1  0  0  0  0
 66 63  1  0  0  0  0
 66 65  1  0  0  0  0
M  END
>  <MODEL>
8

>  <REMARK>
 VINA RESULT:      -6.0      2.659      9.465
  Name = 
  13 active torsions:
  status: ('A' for Active; 'I' for Inactive)
    1  A    between atoms: C_6  and  C_19
    2  A    between atoms: C_6  and  C_37
    3  A    between atoms: C_11  and  C_38
    4  A    between atoms: C_11  and  C_57
    5  A    between atoms: C_19  and  C_30
    6  A    between atoms: N_20  and  C_45
    7  A    between atoms: C_22  and  C_43
    8  A    between atoms: N_29  and  C_34
    9  A    between atoms: N_29  and  C_35
   10  A    between atoms: C_34  and  O_52
   11  A    between atoms: C_35  and  C_53
   12  A    between atoms: C_38  and  N_63
   13  A    between atoms: C_50  and  O_52
                            x       y       z     vdW  Elec       q    Type
                         _______ _______ _______ _____ _____    ______ ____

>  <TORSDO>
F 13

$$$$
=
 OpenBabel11042416193D

 66 72  0  0  1  0  0  0  0  0999 V2000
  190.6470  173.7560  144.6310 C   0  0  0  0  0  3  0  0  0  0  0  0
  195.3120  172.2290  137.6630 O   0  0  0  0  0  0  0  0  0  0  0  0
  195.2120  175.8560  143.9520 C   0  0  0  0  0  0  0  0  0  0  0  0
  195.9400  169.6660  141.5020 C   0  0  0  0  0  0  0  0  0  0  0  0
  196.0230  175.4040  144.8180 O   0  0  0  0  0  0  0  0  0  0  0  0
  193.9460  176.3340  144.3630 O   0  0  0  0  0  0  0  0  0  0  0  0
  194.4810  173.4720  139.4180 N   0  0  0  0  0  0  0  0  0  0  0  0
  191.8850  172.1760  143.0960 C   0  0  0  0  0  0  0  0  0  0  0  0
  194.9220  176.5000  141.5260 C   0  0  0  0  0  2  0  0  0  0  0  0
  194.9830  175.7190  140.2040 C   0  0  0  0  0  2  0  0  0  0  0  0
  195.5200  175.6830  142.5580 N   0  0  0  0  0  2  0  0  0  0  0  0
  194.8080  173.4290  138.1630 C   0  0  0  0  0  0  0  0  0  0  0  0
  193.9450  174.6100  140.1580 C   0  0  0  0  0  2  0  0  0  0  0  0
  192.6330  172.1870  141.9070 C   0  0  0  0  0  3  0  0  0  0  0  0
  195.9710  168.9920  140.1530 C   0  0  0  0  0  2  0  0  0  0  0  0
  193.7390  170.1450  142.5480 C   0  0  0  0  0  0  0  0  0  0  0  0
  195.7300  169.9080  137.8240 C   0  0  0  0  0  2  0  0  0  0  0  0
  192.8460  175.4700  144.4900 C   0  0  0  0  0  0  0  0  0  0  0  0
  193.5790  171.2040  141.6530 C   0  0  0  0  0  3  0  0  0  0  0  0
  196.6100  169.9010  139.0800 C   0  0  2  0  0  3  0  0  0  0  0  0
  197.9280  169.5130  138.7980 O   0  0  0  0  0  1  0  0  0  0  0  0
  196.7870  170.5840  141.7920 O   0  0  0  0  0  0  0  0  0  0  0  0
  190.6640  174.9390  145.3950 C   0  0  0  0  0  0  0  0  0  0  0  0
  192.7810  174.3440  143.7400 N   0  0  0  0  0  0  0  0  0  0  0  0
  192.8210  169.9850  143.6040 C   0  0  0  0  0  3  0  0  0  0  0  0
  191.9010  171.0060  143.8940 C   0  0  0  0  0  3  0  0  0  0  0  0
  191.7910  175.7800  145.3510 C   0  0  0  0  0  3  0  0  0  0  0  0
  194.9170  169.3170  142.4640 N   0  0  0  0  0  0  0  0  0  0  0  0
  191.7290  173.4630  143.7930 C   0  0  0  0  0  0  0  0  0  0  0  0
  194.7020  170.9860  137.9580 C   0  0  0  0  0  2  0  0  0  0  0  0
  194.7460  174.6300  137.2520 C   0  0  1  0  0  3  0  0  0  0  0  0
  195.5730  174.3650  136.1590 O   0  0  0  0  0  1  0  0  0  0  0  0
  193.3030  174.7860  136.7710 C   0  0  0  0  0  2  0  0  0  0  0  0
  192.9420  174.1620  135.4000 C   0  0  1  0  0  3  0  0  0  0  0  0
  191.5370  173.6140  134.9990 C   0  0  2  0  0  3  0  0  0  0  0  0
  191.8040  175.0980  134.9720 C   0  0  0  0  0  2  0  0  0  0  0  0
  191.4430  172.0050  136.8940 C   0  0  0  0  0  2  0  0  0  0  0  0
  189.5240  173.7880  137.9770 C   0  0  0  0  0  2  0  0  0  0  0  0
  190.5120  174.2450  137.0990 O   0  0  0  0  0  0  0  0  0  0  0  0
  190.2170  172.9530  139.0250 C   0  0  1  0  0  3  0  0  0  0  0  0
  190.7160  173.1600  136.2150 C   0  0  1  0  0  3  0  0  0  0  0  0
  189.2180  172.4570  140.0880 C   0  0  0  0  0  1  0  0  0  0  0  0
  191.0990  171.8470  138.4020 C   0  0  1  0  0  3  0  0  0  0  0  0
  191.3180  169.7660  139.6760 O   0  0  0  0  0  0  0  0  0  0  0  0
  190.6590  170.4890  138.7310 N   0  0  0  0  0  0  0  0  0  0  0  0
  190.9600  168.4850  139.3630 N   0  0  0  0  0  2  0  0  0  0  0  0
  189.9080  169.6540  137.8360 C   0  0  0  0  0  3  0  0  0  0  0  0
  190.0930  168.4240  138.2260 C   0  0  0  0  0  3  0  0  0  0  0  0
  194.3510  168.1690  144.4780 F   0  0  0  0  0  0  0  0  0  0  0  0
  195.3770  168.5800  143.6540 C   0  0  2  0  0  3  0  0  0  0  0  0
  196.4980  169.3360  144.4220 C   0  0  0  0  0  2  0  0  0  0  0  0
  195.6000  171.2760  145.4780 O   0  0  0  0  0  0  0  0  0  0  0  0
  196.0010  169.4850  146.8740 O   0  0  0  0  0  1  0  0  0  0  0  0
  196.0270  170.0930  145.6210 C   0  0  0  0  0  0  0  0  0  0  0  0
  189.5420  175.2930  146.1550 O   0  0  0  0  0  0  0  0  0  0  0  0
  189.6750  176.2480  147.1990 C   0  0  0  0  0  2  0  0  0  0  0  0
  189.1670  177.5290  146.7690 N   0  0  0  0  0  2  0  0  0  0  0  0
  187.7310  177.3110  146.5940 C   0  0  0  0  0  2  0  0  0  0  0  0
  184.9110  178.4250  144.6180 C   0  0  0  0  0  0  0  0  0  0  0  0
  185.1790  177.6080  142.3820 C   0  0  0  0  0  3  0  0  0  0  0  0
  184.4190  178.3550  143.4080 C   0  0  0  0  0  3  0  0  0  0  0  0
  185.6090  178.4240  145.7040 C   0  0  0  0  0  3  0  0  0  0  0  0
  187.1240  178.3090  145.5990 C   0  0  2  0  0  3  0  0  0  0  0  0
  186.3440  176.9360  142.5470 C   0  0  0  0  0  3  0  0  0  0  0  0
  187.0880  176.7900  143.8530 C   0  0  0  0  0  2  0  0  0  0  0  0
  187.5900  178.0420  144.2870 O   0  0  0  0  0  0  0  0  0  0  0  0
  1 23  1  0  0  0  0
  2 30  1  0  0  0  0
  2 12  1  0  0  0  0
  3  6  1  0  0  0  0
  3  5  2  0  0  0  0
  4 22  2  0  0  0  0
  4 28  1  0  0  0  0
  6 18  1  0  0  0  0
  7 13  1  0  0  0  0
  8 29  1  0  0  0  0
  8 26  1  0  0  0  0
  9 11  1  0  0  0  0
 10  9  1  0  0  0  0
 11  3  1  0  0  0  0
 12  7  2  0  0  0  0
 13 10  1  0  0  0  0
 14  8  2  0  0  0  0
 15  4  1  0  0  0  0
 16 25  1  0  0  0  0
 17 30  1  0  0  0  0
 17 20  1  0  0  0  0
 18 27  1  0  0  0  0
 19 14  1  0  0  0  0
 19 16  2  0  0  0  0
 20 21  1  6  0  0  0
 20 15  1  0  0  0  0
 23 55  1  0  0  0  0
 24 29  1  0  0  0  0
 24 18  2  0  0  0  0
 25 26  2  0  0  0  0
 27 23  2  0  0  0  0
 28 16  1  0  0  0  0
 28 50  1  0  0  0  0
 29  1  2  0  0  0  0
 31 32  1  6  0  0  0
 31 12  1  0  0  0  0
 33 31  1  0  0  0  0
 34 33  1  1  0  0  0
 35 36  1  1  0  0  0
 35 34  1  0  0  0  0
 35 41  1  0  0  0  0
 36 34  1  0  0  0  0
 38 40  1  0  0  0  0
 39 38  1  0  0  0  0
 40 42  1  1  0  0  0
 41 37  1  1  0  0  0
 41 39  1  0  0  0  0
 43 37  1  6  0  0  0
 43 45  1  0  0  0  0
 43 40  1  0  0  0  0
 45 44  1  0  0  0  0
 46 44  1  0  0  0  0
 47 48  2  0  0  0  0
 47 45  1  0  0  0  0
 48 46  1  0  0  0  0
 50 51  1  0  0  0  0
 50 49  1  1  0  0  0
 51 54  1  0  0  0  0
 52 54  2  0  0  0  0
 54 53  1  0  0  0  0
 55 56  1  0  0  0  0
 57 56  1  0  0  0  0
 58 57  1  0  0  0  0
 59 62  2  0  0  0  0
 60 64  2  0  0  0  0
 60 61  1  0  0  0  0
 61 59  2  0  0  0  0
 63 62  1  0  0  0  0
 63 58  1  1  0  0  0
 64 65  1  0  0  0  0
 65 66  1  0  0  0  0
 66 63  1  0  0  0  0
M  END
>  <MODEL>
9

>  <REMARK>
 VINA RESULT:      -5.9      1.512      2.095
  Name = 
  13 active torsions:
  status: ('A' for Active; 'I' for Inactive)
    1  A    between atoms: C_6  and  C_19
    2  A    between atoms: C_6  and  C_37
    3  A    between atoms: C_11  and  C_38
    4  A    between atoms: C_11  and  C_57
    5  A    between atoms: C_19  and  C_30
    6  A    between atoms: N_20  and  C_45
    7  A    between atoms: C_22  and  C_43
    8  A    between atoms: N_29  and  C_34
    9  A    between atoms: N_29  and  C_35
   10  A    between atoms: C_34  and  O_52
   11  A    between atoms: C_35  and  C_53
   12  A    between atoms: C_38  and  N_63
   13  A    between atoms: C_50  and  O_52
                            x       y       z     vdW  Elec       q    Type
                         _______ _______ _______ _____ _____    ______ ____

>  <TORSDO>
F 13

$$$$
