=
 OpenBabel11042414263D

 41 46  0  0  1  0  0  0  0  0999 V2000
  190.8960  172.4280  140.5840 O   0  0  0  0  0  0  0  0  0  0  0  0
  191.6580  171.0080  138.7490 N   0  0  0  0  0  1  0  0  0  0  0  0
  190.2310  173.5620  141.0830 C   0  0  0  0  0  0  0  0  0  0  0  0
  191.3810  177.3650  143.9380 C   0  0  0  0  0  3  0  0  0  0  0  0
  191.4210  176.0030  143.6140 C   0  0  0  0  0  0  0  0  0  0  0  0
  190.0590  172.7390  138.3940 C   0  0  0  0  0  3  0  0  0  0  0  0
  190.3740  178.1860  143.4570 C   0  0  0  0  0  3  0  0  0  0  0  0
  190.4150  175.4440  142.7610 C   0  0  0  0  0  0  0  0  0  0  0  0
  189.1860  173.8130  138.8940 C   0  0  0  0  0  0  0  0  0  0  0  0
  188.0850  174.9280  140.7260 C   0  0  0  0  0  3  0  0  0  0  0  0
  188.0760  175.7750  141.7480 C   0  0  0  0  0  0  0  0  0  0  0  0
  191.5440  173.2110  143.0820 C   0  0  0  0  0  0  0  0  0  0  0  0
  190.8510  172.0760  139.2310 C   0  0  0  0  0  0  0  0  0  0  0  0
  190.5880  174.0220  142.3070 C   0  0  0  0  0  0  0  0  0  0  0  0
  189.3490  177.6380  142.7020 C   0  0  0  0  0  3  0  0  0  0  0  0
  192.7820  173.8570  143.5780 C   0  0  0  0  0  2  0  0  0  0  0  0
  187.9990  174.4660  137.7670 Cl  0  0  0  0  0  0  0  0  0  0  0  0
  189.2340  174.2030  140.1860 C   0  0  0  0  0  0  0  0  0  0  0  0
  191.3550  171.9790  143.2760 O   0  0  0  0  0  0  0  0  0  0  0  0
  189.3210  176.2720  142.3830 C   0  0  0  0  0  0  0  0  0  0  0  0
  192.4380  175.1260  144.3360 C   0  0  1  0  0  3  0  0  0  0  0  0
  186.0300  177.1920  141.3090 N   0  0  0  0  0  2  0  0  0  0  0  0
  186.7570  176.3080  142.1750 C   0  0  0  0  0  0  0  0  0  0  0  0
  186.2970  176.0120  143.3130 O   0  0  0  0  0  0  0  0  0  0  0  0
  183.0510  178.7510  142.9840 C   0  0  0  0  0  3  0  0  0  0  0  0
  182.5340  178.3110  140.6620 C   0  0  0  0  0  3  0  0  0  0  0  0
  183.8170  177.7870  140.4750 C   0  0  0  0  0  3  0  0  0  0  0  0
  182.1530  178.8000  141.9140 C   0  0  0  0  0  0  0  0  0  0  0  0
  184.7260  177.7450  141.5380 C   0  0  0  0  0  0  0  0  0  0  0  0
  184.3340  178.2280  142.7960 C   0  0  0  0  0  3  0  0  0  0  0  0
  180.7790  179.3350  142.1200 C   0  0  0  0  0  2  0  0  0  0  0  0
  179.8410  178.3340  141.8670 O   0  0  0  0  0  0  0  0  0  0  0  0
  178.7760  178.6310  142.7180 C   0  0  0  0  0  1  0  0  0  0  0  0
  193.7360  175.8490  144.6720 C   0  0  0  0  0  2  0  0  0  0  0  0
  194.0240  175.7350  146.1600 C   0  0  0  0  0  2  0  0  0  0  0  0
  192.7350  175.5170  146.9290 C   0  0  0  0  0  2  0  0  0  0  0  0
  190.6390  176.7540  147.3800 C   0  0  2  0  0  3  0  0  0  0  0  0
  192.1240  176.8030  147.2590 N   0  0  0  0  0  0  0  0  0  0  0  0
  191.4750  176.6280  148.5670 C   0  0  0  0  0  2  0  0  0  0  0  0
  188.7930  175.6300  146.1480 C   0  0  0  0  0  1  0  0  0  0  0  0
  189.9970  175.4080  147.0410 C   0  0  0  0  0  2  0  0  0  0  0  0
  1  3  1  0  0  0  0
  2 13  1  0  0  0  0
  3 14  2  0  0  0  0
  5  4  1  0  0  0  0
  5 21  1  0  0  0  0
  6  9  1  0  0  0  0
  6 13  2  0  0  0  0
  7  4  2  0  0  0  0
  8  5  2  0  0  0  0
  9 18  2  0  0  0  0
 10 11  2  0  0  0  0
 11 23  1  0  0  0  0
 11 20  1  0  0  0  0
 12 19  2  0  0  0  0
 12 16  1  0  0  0  0
 13  1  1  0  0  0  0
 14  8  1  0  0  0  0
 14 12  1  0  0  0  0
 15  7  1  0  0  0  0
 16 21  1  0  0  0  0
 17  9  1  0  0  0  0
 18 10  1  0  0  0  0
 18  3  1  0  0  0  0
 20 15  2  0  0  0  0
 20  8  1  0  0  0  0
 21 34  1  6  0  0  0
 22 29  1  0  0  0  0
 22 23  1  0  0  0  0
 23 24  2  0  0  0  0
 26 28  1  0  0  0  0
 27 26  2  0  0  0  0
 27 29  1  0  0  0  0
 28 31  1  0  0  0  0
 28 25  2  0  0  0  0
 29 30  2  0  0  0  0
 30 25  1  0  0  0  0
 32 31  1  0  0  0  0
 32 33  1  0  0  0  0
 34 35  1  0  0  0  0
 35 36  1  0  0  0  0
 36 38  1  0  0  0  0
 37 41  1  6  0  0  0
 37 39  1  0  0  0  0
 38 37  1  0  0  0  0
 38 39  1  0  0  0  0
 40 41  1  0  0  0  0
M  END
>  <MODEL>
1

>  <REMARK>
 VINA RESULT:      -7.2      0.000      0.000
  Name = 
  9 active torsions:
  status: ('A' for Active; 'I' for Inactive)
    1  A    between atoms: C_5  and  C_23
    2  A    between atoms: C_5  and  C_37
    3  A    between atoms: N_7  and  C_30
    4  A    between atoms: C_11  and  C_38
    5  A    between atoms: C_17  and  C_34
    6  A    between atoms: O_18  and  C_39
    7  A    between atoms: N_21  and  C_23
    8  A    between atoms: C_28  and  C_39
    9  A    between atoms: C_37  and  C_40
                            x       y       z     vdW  Elec       q    Type
                         _______ _______ _______ _____ _____    ______ ____

>  <TORSDO>
F 9

$$$$
=
 OpenBabel11042414263D

 41 46  0  0  1  0  0  0  0  0999 V2000
  190.7250  172.2930  141.8790 O   0  0  0  0  0  0  0  0  0  0  0  0
  191.7310  170.8370  140.1970 N   0  0  0  0  0  1  0  0  0  0  0  0
  190.0260  173.4520  142.2600 C   0  0  0  0  0  0  0  0  0  0  0  0
  190.8150  177.2280  145.2680 C   0  0  0  0  0  3  0  0  0  0  0  0
  190.8600  175.8640  144.9550 C   0  0  0  0  0  0  0  0  0  0  0  0
  190.2760  172.6200  139.5800 C   0  0  0  0  0  3  0  0  0  0  0  0
  189.9320  178.0810  144.6260 C   0  0  0  0  0  3  0  0  0  0  0  0
  189.9920  175.3350  143.9460 C   0  0  0  0  0  0  0  0  0  0  0  0
  189.3690  173.7270  139.9280 C   0  0  0  0  0  0  0  0  0  0  0  0
  188.0180  174.8890  141.5510 C   0  0  0  0  0  3  0  0  0  0  0  0
  187.8690  175.7410  142.5570 C   0  0  0  0  0  0  0  0  0  0  0  0
  190.9740  173.0660  144.4500 C   0  0  0  0  0  0  0  0  0  0  0  0
  190.8930  171.9350  140.5380 C   0  0  0  0  0  0  0  0  0  0  0  0
  190.1890  173.9060  143.5260 C   0  0  0  0  0  0  0  0  0  0  0  0
  189.0290  177.5640  143.7110 C   0  0  0  0  0  3  0  0  0  0  0  0
  192.1330  173.6720  145.1470 C   0  0  0  0  0  2  0  0  0  0  0  0
  188.4110  174.4140  138.6180 Cl  0  0  0  0  0  0  0  0  0  0  0  0
  189.2150  174.1210  141.2090 C   0  0  0  0  0  0  0  0  0  0  0  0
  190.7120  171.8430  144.6090 O   0  0  0  0  0  0  0  0  0  0  0  0
  189.0060  176.1980  143.3910 C   0  0  0  0  0  0  0  0  0  0  0  0
  191.7110  174.9560  145.8370 C   0  0  1  0  0  3  0  0  0  0  0  0
  185.9360  177.1520  141.7400 N   0  0  0  0  0  2  0  0  0  0  0  0
  186.5160  176.3210  142.7570 C   0  0  0  0  0  0  0  0  0  0  0  0
  185.8960  176.1140  143.8380 O   0  0  0  0  0  0  0  0  0  0  0  0
  182.7670  178.8100  142.8860 C   0  0  0  0  0  3  0  0  0  0  0  0
  182.6190  178.3320  140.5180 C   0  0  0  0  0  3  0  0  0  0  0  0
  183.9030  177.7770  140.5490 C   0  0  0  0  0  3  0  0  0  0  0  0
  182.0540  178.8560  141.6840 C   0  0  0  0  0  0  0  0  0  0  0  0
  184.6270  177.7380  141.7460 C   0  0  0  0  0  0  0  0  0  0  0  0
  184.0500  178.2550  142.9160 C   0  0  0  0  0  3  0  0  0  0  0  0
  180.6800  179.4250  141.6560 C   0  0  0  0  0  2  0  0  0  0  0  0
  179.7910  178.5410  142.2670 O   0  0  0  0  0  0  0  0  0  0  0  0
  179.0090  178.0520  141.2200 C   0  0  0  0  0  1  0  0  0  0  0  0
  192.9600  175.6350  146.3850 C   0  0  0  0  0  2  0  0  0  0  0  0
  194.1990  175.0570  145.7230 C   0  0  0  0  0  2  0  0  0  0  0  0
  194.8390  176.0890  144.8130 C   0  0  0  0  0  2  0  0  0  0  0  0
  195.3810  175.5320  142.4630 C   0  0  2  0  0  3  0  0  0  0  0  0
  195.7750  175.4390  143.8980 N   0  0  0  0  0  0  0  0  0  0  0  0
  196.3090  176.5010  143.0320 C   0  0  0  0  0  2  0  0  0  0  0  0
  193.0510  175.1560  141.6780 C   0  0  0  0  0  1  0  0  0  0  0  0
  194.0270  176.1920  142.1960 C   0  0  0  0  0  2  0  0  0  0  0  0
  1  3  1  0  0  0  0
  2 13  1  0  0  0  0
  3 14  2  0  0  0  0
  5  4  1  0  0  0  0
  5 21  1  0  0  0  0
  6  9  1  0  0  0  0
  6 13  2  0  0  0  0
  7  4  2  0  0  0  0
  8  5  2  0  0  0  0
  9 18  2  0  0  0  0
 10 11  2  0  0  0  0
 11 23  1  0  0  0  0
 11 20  1  0  0  0  0
 12 19  2  0  0  0  0
 12 16  1  0  0  0  0
 13  1  1  0  0  0  0
 14  8  1  0  0  0  0
 14 12  1  0  0  0  0
 15  7  1  0  0  0  0
 16 21  1  0  0  0  0
 17  9  1  0  0  0  0
 18 10  1  0  0  0  0
 18  3  1  0  0  0  0
 20 15  2  0  0  0  0
 20  8  1  0  0  0  0
 21 34  1  6  0  0  0
 22 29  1  0  0  0  0
 22 23  1  0  0  0  0
 23 24  2  0  0  0  0
 25 30  1  0  0  0  0
 26 27  2  0  0  0  0
 26 28  1  0  0  0  0
 27 29  1  0  0  0  0
 28 25  2  0  0  0  0
 29 30  2  0  0  0  0
 31 28  1  0  0  0  0
 31 32  1  0  0  0  0
 33 32  1  0  0  0  0
 35 34  1  0  0  0  0
 36 35  1  0  0  0  0
 37 41  1  1  0  0  0
 37 39  1  0  0  0  0
 37 38  1  0  0  0  0
 38 36  1  0  0  0  0
 39 38  1  0  0  0  0
 40 41  1  0  0  0  0
M  END
>  <MODEL>
2

>  <REMARK>
 VINA RESULT:      -7.1      1.516      2.517
  Name = 
  9 active torsions:
  status: ('A' for Active; 'I' for Inactive)
    1  A    between atoms: C_5  and  C_23
    2  A    between atoms: C_5  and  C_37
    3  A    between atoms: N_7  and  C_30
    4  A    between atoms: C_11  and  C_38
    5  A    between atoms: C_17  and  C_34
    6  A    between atoms: O_18  and  C_39
    7  A    between atoms: N_21  and  C_23
    8  A    between atoms: C_28  and  C_39
    9  A    between atoms: C_37  and  C_40
                            x       y       z     vdW  Elec       q    Type
                         _______ _______ _______ _____ _____    ______ ____

>  <TORSDO>
F 9

$$$$
=
 OpenBabel11042414263D

 41 46  0  0  1  0  0  0  0  0999 V2000
  189.9710  176.4600  147.2170 O   0  0  0  0  0  0  0  0  0  0  0  0
  191.5670  177.2910  148.8660 N   0  0  0  0  0  1  0  0  0  0  0  0
  189.6500  175.9500  145.9460 C   0  0  0  0  0  0  0  0  0  0  0  0
  186.6700  177.2120  142.2770 C   0  0  0  0  0  3  0  0  0  0  0  0
  186.9560  177.0410  143.6370 C   0  0  0  0  0  0  0  0  0  0  0  0
  192.2970  176.1950  146.8800 C   0  0  0  0  0  3  0  0  0  0  0  0
  187.3760  176.5220  141.3050 C   0  0  0  0  0  3  0  0  0  0  0  0
  188.0030  176.1490  144.0390 C   0  0  0  0  0  0  0  0  0  0  0  0
  192.0200  175.4730  145.6270 C   0  0  0  0  0  0  0  0  0  0  0  0
  190.4970  174.2570  144.2100 C   0  0  0  0  0  3  0  0  0  0  0  0
  189.5160  174.2020  143.3180 C   0  0  0  0  0  0  0  0  0  0  0  0
  187.4040  176.7020  146.4270 C   0  0  0  0  0  0  0  0  0  0  0  0
  191.2940  176.6350  147.6340 C   0  0  0  0  0  0  0  0  0  0  0  0
  188.3850  176.1210  145.4920 C   0  0  0  0  0  0  0  0  0  0  0  0
  188.3320  175.5930  141.6860 C   0  0  0  0  0  3  0  0  0  0  0  0
  186.6540  177.9100  146.0070 C   0  0  0  0  0  2  0  0  0  0  0  0
  193.3940  174.7160  144.8240 Cl  0  0  0  0  0  0  0  0  0  0  0  0
  190.7570  175.3220  145.1780 C   0  0  0  0  0  0  0  0  0  0  0  0
  187.2380  176.2280  147.5830 O   0  0  0  0  0  0  0  0  0  0  0  0
  188.6280  175.3550  143.0370 C   0  0  0  0  0  0  0  0  0  0  0  0
  186.0120  177.6780  144.6510 C   0  0  1  0  0  3  0  0  0  0  0  0
  190.2790  172.7490  141.3940 N   0  0  0  0  0  2  0  0  0  0  0  0
  189.4020  172.9590  142.5120 C   0  0  0  0  0  0  0  0  0  0  0  0
  188.5100  172.1090  142.7890 O   0  0  0  0  0  0  0  0  0  0  0  0
  191.0050  169.2890  140.1270 C   0  0  0  0  0  3  0  0  0  0  0  0
  189.8410  170.5470  138.4190 C   0  0  0  0  0  3  0  0  0  0  0  0
  189.7900  171.6560  139.2700 C   0  0  0  0  0  3  0  0  0  0  0  0
  190.4420  169.3610  138.8500 C   0  0  0  0  0  0  0  0  0  0  0  0
  190.3430  171.5880  140.5540 C   0  0  0  0  0  0  0  0  0  0  0  0
  190.9540  170.3970  140.9770 C   0  0  0  0  0  3  0  0  0  0  0  0
  190.5170  168.1890  137.9360 C   0  0  0  0  0  2  0  0  0  0  0  0
  191.1160  168.5660  136.7340 O   0  0  0  0  0  0  0  0  0  0  0  0
  192.4680  168.2710  136.9090 C   0  0  0  0  0  1  0  0  0  0  0  0
  185.4060  178.9930  144.1790 C   0  0  0  0  0  2  0  0  0  0  0  0
  183.8950  178.8680  144.0910 C   0  0  0  0  0  2  0  0  0  0  0  0
  183.4230  179.1790  142.6820 C   0  0  0  0  0  2  0  0  0  0  0  0
  182.1740  177.9450  140.9380 C   0  0  2  0  0  3  0  0  0  0  0  0
  183.3040  177.9440  141.9090 N   0  0  0  0  0  0  0  0  0  0  0  0
  183.5130  178.3170  140.5020 C   0  0  0  0  0  2  0  0  0  0  0  0
  179.8990  178.8250  140.4480 C   0  0  0  0  0  1  0  0  0  0  0  0
  181.2710  179.1790  140.9830 C   0  0  0  0  0  2  0  0  0  0  0  0
  1 13  1  0  0  0  0
  3  1  1  0  0  0  0
  4  5  1  0  0  0  0
  5  8  2  0  0  0  0
  5 21  1  0  0  0  0
  6 13  2  0  0  0  0
  7 15  1  0  0  0  0
  7  4  2  0  0  0  0
  8 14  1  0  0  0  0
  9  6  1  0  0  0  0
 10 18  1  0  0  0  0
 11 10  2  0  0  0  0
 12 19  2  0  0  0  0
 13  2  1  0  0  0  0
 14  3  2  0  0  0  0
 14 12  1  0  0  0  0
 15 20  2  0  0  0  0
 16 12  1  0  0  0  0
 17  9  1  0  0  0  0
 18  9  2  0  0  0  0
 18  3  1  0  0  0  0
 20 11  1  0  0  0  0
 20  8  1  0  0  0  0
 21 34  1  6  0  0  0
 21 16  1  0  0  0  0
 22 23  1  0  0  0  0
 23 24  2  0  0  0  0
 23 11  1  0  0  0  0
 25 30  1  0  0  0  0
 26 28  1  0  0  0  0
 26 27  2  0  0  0  0
 27 29  1  0  0  0  0
 28 25  2  0  0  0  0
 29 30  2  0  0  0  0
 29 22  1  0  0  0  0
 31 28  1  0  0  0  0
 32 33  1  0  0  0  0
 32 31  1  0  0  0  0
 35 34  1  0  0  0  0
 36 35  1  0  0  0  0
 37 41  1  1  0  0  0
 37 38  1  0  0  0  0
 38 36  1  0  0  0  0
 39 37  1  0  0  0  0
 39 38  1  0  0  0  0
 40 41  1  0  0  0  0
M  END
>  <MODEL>
3

>  <REMARK>
 VINA RESULT:      -7.0      2.803      9.119
  Name = 
  9 active torsions:
  status: ('A' for Active; 'I' for Inactive)
    1  A    between atoms: C_5  and  C_23
    2  A    between atoms: C_5  and  C_37
    3  A    between atoms: N_7  and  C_30
    4  A    between atoms: C_11  and  C_38
    5  A    between atoms: C_17  and  C_34
    6  A    between atoms: O_18  and  C_39
    7  A    between atoms: N_21  and  C_23
    8  A    between atoms: C_28  and  C_39
    9  A    between atoms: C_37  and  C_40
                            x       y       z     vdW  Elec       q    Type
                         _______ _______ _______ _____ _____    ______ ____

>  <TORSDO>
F 9

$$$$
=
 OpenBabel11042414263D

 41 46  0  0  1  0  0  0  0  0999 V2000
  193.0030  170.1940  141.3990 O   0  0  0  0  0  0  0  0  0  0  0  0
  193.4320  168.9550  139.3400 N   0  0  0  0  0  1  0  0  0  0  0  0
  192.6100  171.3530  142.0930 C   0  0  0  0  0  0  0  0  0  0  0  0
  194.5780  174.2870  145.4770 C   0  0  0  0  0  3  0  0  0  0  0  0
  194.3090  173.0220  144.9400 C   0  0  0  0  0  0  0  0  0  0  0  0
  192.2690  171.0350  139.3140 C   0  0  0  0  0  3  0  0  0  0  0  0
  193.7860  175.3800  145.1650 C   0  0  0  0  0  3  0  0  0  0  0  0
  193.2070  172.8480  144.0420 C   0  0  0  0  0  0  0  0  0  0  0  0
  191.6600  172.1830  140.0060 C   0  0  0  0  0  0  0  0  0  0  0  0
  190.8320  173.2060  142.0250 C   0  0  0  0  0  3  0  0  0  0  0  0
  191.0100  173.8560  143.1680 C   0  0  0  0  0  0  0  0  0  0  0  0
  193.7980  170.3970  143.9680 C   0  0  0  0  0  0  0  0  0  0  0  0
  192.8860  170.0850  140.0100 C   0  0  0  0  0  0  0  0  0  0  0  0
  193.0550  171.5170  143.3620 C   0  0  0  0  0  0  0  0  0  0  0  0
  192.6680  175.2050  144.3650 C   0  0  0  0  0  3  0  0  0  0  0  0
  195.1480  170.6590  144.5210 C   0  0  0  0  0  2  0  0  0  0  0  0
  190.6590  173.2590  139.0340 Cl  0  0  0  0  0  0  0  0  0  0  0  0
  191.7890  172.3370  141.3400 C   0  0  0  0  0  0  0  0  0  0  0  0
  193.3330  169.2250  143.9700 O   0  0  0  0  0  0  0  0  0  0  0  0
  192.3310  173.9510  143.8340 C   0  0  0  0  0  0  0  0  0  0  0  0
  195.0960  171.8330  145.4820 C   0  0  1  0  0  3  0  0  0  0  0  0
  189.2440  175.6520  142.9500 N   0  0  0  0  0  2  0  0  0  0  0  0
  189.8440  174.5960  143.7150 C   0  0  0  0  0  0  0  0  0  0  0  0
  189.4080  174.3190  144.8680 O   0  0  0  0  0  0  0  0  0  0  0  0
  185.6970  176.8610  143.1980 C   0  0  0  0  0  3  0  0  0  0  0  0
  187.1420  178.3290  144.4690 C   0  0  0  0  0  3  0  0  0  0  0  0
  188.2480  177.5490  144.1120 C   0  0  0  0  0  3  0  0  0  0  0  0
  185.8660  177.9810  144.0180 C   0  0  0  0  0  0  0  0  0  0  0  0
  188.0850  176.4210  143.3010 C   0  0  0  0  0  0  0  0  0  0  0  0
  186.8020  176.0830  142.8430 C   0  0  0  0  0  3  0  0  0  0  0  0
  184.6930  178.8240  144.3770 C   0  0  0  0  0  2  0  0  0  0  0  0
  184.8170  179.2680  145.6930 O   0  0  0  0  0  0  0  0  0  0  0  0
  183.7900  178.6200  146.3800 C   0  0  0  0  0  1  0  0  0  0  0  0
  196.5230  172.1810  145.8870 C   0  0  0  0  0  2  0  0  0  0  0  0
  197.4860  171.8060  144.7730 C   0  0  0  0  0  2  0  0  0  0  0  0
  197.8830  173.0400  143.9840 C   0  0  0  0  0  2  0  0  0  0  0  0
  196.9280  174.5500  142.2710 C   0  0  2  0  0  3  0  0  0  0  0  0
  197.0550  173.1570  142.7850 N   0  0  0  0  0  0  0  0  0  0  0  0
  197.9390  173.6560  141.7210 C   0  0  0  0  0  2  0  0  0  0  0  0
  196.5820  176.7160  143.4440 C   0  0  0  0  0  1  0  0  0  0  0  0
  197.5890  175.6290  143.1300 C   0  0  0  0  0  2  0  0  0  0  0  0
  1  3  1  0  0  0  0
  2 13  1  0  0  0  0
  3 14  2  0  0  0  0
  5  4  2  0  0  0  0
  5 21  1  0  0  0  0
  6  9  1  0  0  0  0
  6 13  2  0  0  0  0
  7  4  1  0  0  0  0
  8  5  1  0  0  0  0
  9 18  2  0  0  0  0
 10 11  2  0  0  0  0
 11 23  1  0  0  0  0
 11 20  1  0  0  0  0
 12 19  2  0  0  0  0
 12 16  1  0  0  0  0
 13  1  1  0  0  0  0
 14 12  1  0  0  0  0
 14  8  1  0  0  0  0
 15  7  2  0  0  0  0
 16 21  1  0  0  0  0
 17  9  1  0  0  0  0
 18 10  1  0  0  0  0
 18  3  1  0  0  0  0
 20  8  2  0  0  0  0
 20 15  1  0  0  0  0
 21 34  1  6  0  0  0
 22 29  1  0  0  0  0
 22 23  1  0  0  0  0
 23 24  2  0  0  0  0
 25 28  1  0  0  0  0
 27 26  1  0  0  0  0
 28 31  1  0  0  0  0
 28 26  2  0  0  0  0
 29 27  2  0  0  0  0
 30 25  2  0  0  0  0
 30 29  1  0  0  0  0
 31 32  1  0  0  0  0
 32 33  1  0  0  0  0
 35 34  1  0  0  0  0
 36 35  1  0  0  0  0
 37 38  1  0  0  0  0
 37 41  1  1  0  0  0
 38 36  1  0  0  0  0
 39 37  1  0  0  0  0
 39 38  1  0  0  0  0
 41 40  1  0  0  0  0
M  END
>  <MODEL>
4

>  <REMARK>
 VINA RESULT:      -6.6      3.134      5.004
  Name = 
  9 active torsions:
  status: ('A' for Active; 'I' for Inactive)
    1  A    between atoms: C_5  and  C_23
    2  A    between atoms: C_5  and  C_37
    3  A    between atoms: N_7  and  C_30
    4  A    between atoms: C_11  and  C_38
    5  A    between atoms: C_17  and  C_34
    6  A    between atoms: O_18  and  C_39
    7  A    between atoms: N_21  and  C_23
    8  A    between atoms: C_28  and  C_39
    9  A    between atoms: C_37  and  C_40
                            x       y       z     vdW  Elec       q    Type
                         _______ _______ _______ _____ _____    ______ ____

>  <TORSDO>
F 9

$$$$
=
 OpenBabel11042414263D

 41 46  0  0  1  0  0  0  0  0999 V2000
  192.9750  176.3890  146.1960 O   0  0  0  0  0  0  0  0  0  0  0  0
  194.9400  177.6780  146.8590 N   0  0  0  0  0  1  0  0  0  0  0  0
  192.1680  175.7650  145.2290 C   0  0  0  0  0  0  0  0  0  0  0  0
  187.4930  176.0440  143.8120 C   0  0  0  0  0  3  0  0  0  0  0  0
  188.4880  176.0050  144.7970 C   0  0  0  0  0  0  0  0  0  0  0  0
  194.7490  176.7480  144.6730 C   0  0  0  0  0  3  0  0  0  0  0  0
  187.7200  175.5350  142.5440 C   0  0  0  0  0  3  0  0  0  0  0  0
  189.7710  175.4440  144.4920 C   0  0  0  0  0  0  0  0  0  0  0  0
  194.0380  175.9340  143.6740 C   0  0  0  0  0  0  0  0  0  0  0  0
  192.3520  174.3010  143.1260 C   0  0  0  0  0  3  0  0  0  0  0  0
  191.0970  173.9520  142.8730 C   0  0  0  0  0  0  0  0  0  0  0  0
  190.4150  175.9010  146.8880 C   0  0  0  0  0  0  0  0  0  0  0  0
  194.2260  176.9290  145.8820 C   0  0  0  0  0  0  0  0  0  0  0  0
  190.8580  175.5730  145.5210 C   0  0  0  0  0  0  0  0  0  0  0  0
  188.9270  174.9120  142.2650 C   0  0  0  0  0  3  0  0  0  0  0  0
  189.2860  176.8460  147.0590 C   0  0  0  0  0  2  0  0  0  0  0  0
  194.9130  175.5460  142.1940 Cl  0  0  0  0  0  0  0  0  0  0  0  0
  192.8130  175.4310  143.9320 C   0  0  0  0  0  0  0  0  0  0  0  0
  191.0110  175.4420  147.9000 O   0  0  0  0  0  0  0  0  0  0  0  0
  189.9430  174.8120  143.2280 C   0  0  0  0  0  0  0  0  0  0  0  0
  188.1040  176.4000  146.2190 C   0  0  1  0  0  3  0  0  0  0  0  0
  191.2150  172.6450  140.7130 N   0  0  0  0  0  2  0  0  0  0  0  0
  190.8840  172.6960  142.1090 C   0  0  0  0  0  0  0  0  0  0  0  0
  190.3770  171.6900  142.6800 O   0  0  0  0  0  0  0  0  0  0  0  0
  191.8120  169.2690  139.1760 C   0  0  0  0  0  3  0  0  0  0  0  0
  190.1380  170.4570  137.8940 C   0  0  0  0  0  3  0  0  0  0  0  0
  190.2430  171.5470  138.7650 C   0  0  0  0  0  3  0  0  0  0  0  0
  190.9160  169.3150  138.1040 C   0  0  0  0  0  0  0  0  0  0  0  0
  191.1290  171.5040  139.8470 C   0  0  0  0  0  0  0  0  0  0  0  0
  191.9160  170.3590  140.0470 C   0  0  0  0  0  3  0  0  0  0  0  0
  190.8220  168.1660  137.1640 C   0  0  0  0  0  2  0  0  0  0  0  0
  191.2380  168.5610  135.8920 O   0  0  0  0  0  0  0  0  0  0  0  0
  192.6150  168.3390  135.8910 C   0  0  0  0  0  1  0  0  0  0  0  0
  187.0370  177.4860  146.2820 C   0  0  0  0  0  2  0  0  0  0  0  0
  185.6550  176.8640  146.1660 C   0  0  0  0  0  2  0  0  0  0  0  0
  184.7460  177.7560  145.3410 C   0  0  0  0  0  2  0  0  0  0  0  0
  185.4170  179.1170  143.3850 C   0  0  2  0  0  3  0  0  0  0  0  0
  185.4870  178.9210  144.8610 N   0  0  0  0  0  0  0  0  0  0  0  0
  184.4930  179.8250  144.2620 C   0  0  0  0  0  2  0  0  0  0  0  0
  185.2400  177.9250  141.2090 C   0  0  0  0  0  1  0  0  0  0  0  0
  184.6780  178.0240  142.6120 C   0  0  0  0  0  2  0  0  0  0  0  0
  3 14  2  0  0  0  0
  3  1  1  0  0  0  0
  4  5  1  0  0  0  0
  5 21  1  0  0  0  0
  6 13  2  0  0  0  0
  7  4  2  0  0  0  0
  8  5  2  0  0  0  0
  8 14  1  0  0  0  0
  9 18  2  0  0  0  0
  9  6  1  0  0  0  0
 10 18  1  0  0  0  0
 11 10  2  0  0  0  0
 11 20  1  0  0  0  0
 12 16  1  0  0  0  0
 12 19  2  0  0  0  0
 13  1  1  0  0  0  0
 13  2  1  0  0  0  0
 14 12  1  0  0  0  0
 15  7  1  0  0  0  0
 15 20  2  0  0  0  0
 17  9  1  0  0  0  0
 18  3  1  0  0  0  0
 20  8  1  0  0  0  0
 21 34  1  6  0  0  0
 21 16  1  0  0  0  0
 22 23  1  0  0  0  0
 23 24  2  0  0  0  0
 23 11  1  0  0  0  0
 25 30  1  0  0  0  0
 26 28  1  0  0  0  0
 26 27  2  0  0  0  0
 27 29  1  0  0  0  0
 28 25  2  0  0  0  0
 29 30  2  0  0  0  0
 29 22  1  0  0  0  0
 31 28  1  0  0  0  0
 32 31  1  0  0  0  0
 33 32  1  0  0  0  0
 35 34  1  0  0  0  0
 36 35  1  0  0  0  0
 37 41  1  6  0  0  0
 37 39  1  0  0  0  0
 37 38  1  0  0  0  0
 38 36  1  0  0  0  0
 39 38  1  0  0  0  0
 40 41  1  0  0  0  0
M  END
>  <MODEL>
5

>  <REMARK>
 VINA RESULT:      -6.4      3.258      8.476
  Name = 
  9 active torsions:
  status: ('A' for Active; 'I' for Inactive)
    1  A    between atoms: C_5  and  C_23
    2  A    between atoms: C_5  and  C_37
    3  A    between atoms: N_7  and  C_30
    4  A    between atoms: C_11  and  C_38
    5  A    between atoms: C_17  and  C_34
    6  A    between atoms: O_18  and  C_39
    7  A    between atoms: N_21  and  C_23
    8  A    between atoms: C_28  and  C_39
    9  A    between atoms: C_37  and  C_40
                            x       y       z     vdW  Elec       q    Type
                         _______ _______ _______ _____ _____    ______ ____

>  <TORSDO>
F 9

$$$$
=
 OpenBabel11042414263D

 41 46  0  0  1  0  0  0  0  0999 V2000
  194.8670  175.5880  142.8410 O   0  0  0  0  0  0  0  0  0  0  0  0
  197.1390  176.1880  143.5040 N   0  0  0  0  0  1  0  0  0  0  0  0
  193.5220  175.3030  143.1350 C   0  0  0  0  0  0  0  0  0  0  0  0
  190.4370  171.5890  142.3410 C   0  0  0  0  0  3  0  0  0  0  0  0
  191.4510  172.4660  141.9340 C   0  0  0  0  0  0  0  0  0  0  0  0
  195.3150  176.3720  145.0270 C   0  0  0  0  0  3  0  0  0  0  0  0
  189.5850  171.9150  143.3830 C   0  0  0  0  0  3  0  0  0  0  0  0
  191.6240  173.7180  142.6090 C   0  0  0  0  0  0  0  0  0  0  0  0
  193.8790  176.2840  145.3390 C   0  0  0  0  0  0  0  0  0  0  0  0
  191.5880  176.1340  144.6080 C   0  0  0  0  0  3  0  0  0  0  0  0
  190.5390  175.4480  144.1690 C   0  0  0  0  0  0  0  0  0  0  0  0
  193.4850  174.2120  140.9790 C   0  0  0  0  0  0  0  0  0  0  0  0
  195.7560  176.0560  143.8130 C   0  0  0  0  0  0  0  0  0  0  0  0
  192.8220  174.5510  142.2520 C   0  0  0  0  0  0  0  0  0  0  0  0
  189.6890  173.1580  143.9860 C   0  0  0  0  0  3  0  0  0  0  0  0
  193.5850  172.7850  140.5900 C   0  0  0  0  0  2  0  0  0  0  0  0
  193.3570  176.9530  146.8830 Cl  0  0  0  0  0  0  0  0  0  0  0  0
  193.0010  175.8000  144.4360 C   0  0  0  0  0  0  0  0  0  0  0  0
  194.0110  175.1000  140.2550 O   0  0  0  0  0  0  0  0  0  0  0  0
  190.6610  174.0890  143.5900 C   0  0  0  0  0  0  0  0  0  0  0  0
  192.2170  172.1310  140.6590 C   0  0  1  0  0  3  0  0  0  0  0  0
  188.5660  176.7800  143.3170 N   0  0  0  0  0  2  0  0  0  0  0  0
  189.1990  176.0510  144.3810 C   0  0  0  0  0  0  0  0  0  0  0  0
  188.6360  175.9540  145.5080 O   0  0  0  0  0  0  0  0  0  0  0  0
  185.5840  178.8390  144.3060 C   0  0  0  0  0  3  0  0  0  0  0  0
  185.0530  177.5410  142.3330 C   0  0  0  0  0  3  0  0  0  0  0  0
  186.3410  176.9950  142.3450 C   0  0  0  0  0  3  0  0  0  0  0  0
  184.6770  178.4690  143.3090 C   0  0  0  0  0  0  0  0  0  0  0  0
  187.2580  177.3690  143.3340 C   0  0  0  0  0  0  0  0  0  0  0  0
  186.8710  178.2920  144.3170 C   0  0  0  0  0  3  0  0  0  0  0  0
  183.3000  179.0320  143.3110 C   0  0  0  0  0  2  0  0  0  0  0  0
  182.5360  178.4130  142.3210 O   0  0  0  0  0  0  0  0  0  0  0  0
  181.2930  179.0430  142.3930 C   0  0  0  0  0  1  0  0  0  0  0  0
  192.3920  170.6350  140.4290 C   0  0  0  0  0  2  0  0  0  0  0  0
  193.7290  170.1760  140.9870 C   0  0  0  0  0  2  0  0  0  0  0  0
  193.5360  169.5300  142.3460 C   0  0  0  0  0  2  0  0  0  0  0  0
  194.7740  170.2720  144.3560 C   0  0  2  0  0  3  0  0  0  0  0  0
  194.8020  169.5100  143.0760 N   0  0  0  0  0  0  0  0  0  0  0  0
  194.5310  168.8350  144.3540 C   0  0  0  0  0  2  0  0  0  0  0  0
  193.7920  172.3490  145.3120 C   0  0  0  0  0  1  0  0  0  0  0  0
  193.4750  171.0270  144.6420 C   0  0  0  0  0  2  0  0  0  0  0  0
  1  3  1  0  0  0  0
  1 13  1  0  0  0  0
  2 13  1  0  0  0  0
  3 18  1  0  0  0  0
  4  7  1  0  0  0  0
  5  4  2  0  0  0  0
  5  8  1  0  0  0  0
  6  9  1  0  0  0  0
  7 15  2  0  0  0  0
  8 20  2  0  0  0  0
  9 17  1  0  0  0  0
 11 23  1  0  0  0  0
 11 10  2  0  0  0  0
 12 14  1  0  0  0  0
 13  6  2  0  0  0  0
 14  8  1  0  0  0  0
 14  3  2  0  0  0  0
 16 21  1  0  0  0  0
 16 12  1  0  0  0  0
 18 10  1  0  0  0  0
 18  9  2  0  0  0  0
 19 12  2  0  0  0  0
 20 15  1  0  0  0  0
 20 11  1  0  0  0  0
 21 34  1  1  0  0  0
 21  5  1  0  0  0  0
 22 29  1  0  0  0  0
 22 23  1  0  0  0  0
 23 24  2  0  0  0  0
 25 30  1  0  0  0  0
 26 27  2  0  0  0  0
 26 28  1  0  0  0  0
 27 29  1  0  0  0  0
 28 31  1  0  0  0  0
 28 25  2  0  0  0  0
 29 30  2  0  0  0  0
 32 33  1  0  0  0  0
 32 31  1  0  0  0  0
 34 35  1  0  0  0  0
 35 36  1  0  0  0  0
 36 38  1  0  0  0  0
 37 41  1  6  0  0  0
 38 39  1  0  0  0  0
 38 37  1  0  0  0  0
 39 37  1  0  0  0  0
 41 40  1  0  0  0  0
M  END
>  <MODEL>
6

>  <REMARK>
 VINA RESULT:      -6.4      3.268      5.666
  Name = 
  9 active torsions:
  status: ('A' for Active; 'I' for Inactive)
    1  A    between atoms: C_5  and  C_23
    2  A    between atoms: C_5  and  C_37
    3  A    between atoms: N_7  and  C_30
    4  A    between atoms: C_11  and  C_38
    5  A    between atoms: C_17  and  C_34
    6  A    between atoms: O_18  and  C_39
    7  A    between atoms: N_21  and  C_23
    8  A    between atoms: C_28  and  C_39
    9  A    between atoms: C_37  and  C_40
                            x       y       z     vdW  Elec       q    Type
                         _______ _______ _______ _____ _____    ______ ____

>  <TORSDO>
F 9

$$$$
=
 OpenBabel11042414263D

 41 46  0  0  1  0  0  0  0  0999 V2000
  195.3970  174.3250  143.4790 O   0  0  0  0  0  0  0  0  0  0  0  0
  197.5660  174.5420  144.5770 N   0  0  0  0  0  1  0  0  0  0  0  0
  193.9910  174.3620  143.4870 C   0  0  0  0  0  0  0  0  0  0  0  0
  190.3640  171.2730  142.3760 C   0  0  0  0  0  3  0  0  0  0  0  0
  191.6100  171.8600  142.1260 C   0  0  0  0  0  0  0  0  0  0  0  0
  195.5670  175.3060  145.6240 C   0  0  0  0  0  3  0  0  0  0  0  0
  189.4170  171.9090  143.1630 C   0  0  0  0  0  3  0  0  0  0  0  0
  191.9260  173.1340  142.7000 C   0  0  0  0  0  0  0  0  0  0  0  0
  194.1160  175.5540  145.6110 C   0  0  0  0  0  0  0  0  0  0  0  0
  192.0430  175.7680  144.3980 C   0  0  0  0  0  3  0  0  0  0  0  0
  190.9760  175.2520  143.8020 C   0  0  0  0  0  0  0  0  0  0  0  0
  194.1370  173.0040  141.4920 C   0  0  0  0  0  0  0  0  0  0  0  0
  196.1570  174.7370  144.5770 C   0  0  0  0  0  0  0  0  0  0  0  0
  193.3290  173.6490  142.5440 C   0  0  0  0  0  0  0  0  0  0  0  0
  189.6800  173.1790  143.6520 C   0  0  0  0  0  3  0  0  0  0  0  0
  193.9850  171.5460  141.2750 C   0  0  0  0  0  2  0  0  0  0  0  0
  193.4620  176.5280  146.9260 Cl  0  0  0  0  0  0  0  0  0  0  0  0
  193.3480  175.1340  144.5830 C   0  0  0  0  0  0  0  0  0  0  0  0
  194.9860  173.6560  140.8250 O   0  0  0  0  0  0  0  0  0  0  0  0
  190.8980  173.8280  143.3980 C   0  0  0  0  0  0  0  0  0  0  0  0
  192.5190  171.1980  141.0950 C   0  0  1  0  0  3  0  0  0  0  0  0
  188.7660  175.8000  142.7020 N   0  0  0  0  0  2  0  0  0  0  0  0
  189.7930  176.1370  143.6470 C   0  0  0  0  0  0  0  0  0  0  0  0
  189.7120  177.2040  144.3200 O   0  0  0  0  0  0  0  0  0  0  0  0
  185.2950  177.1690  143.1270 C   0  0  0  0  0  3  0  0  0  0  0  0
  186.2110  177.9290  141.0200 C   0  0  0  0  0  3  0  0  0  0  0  0
  187.3960  177.2340  141.2850 C   0  0  0  0  0  3  0  0  0  0  0  0
  185.1630  177.9030  141.9450 C   0  0  0  0  0  0  0  0  0  0  0  0
  187.5390  176.5060  142.4710 C   0  0  0  0  0  0  0  0  0  0  0  0
  186.4800  176.4750  143.3910 C   0  0  0  0  0  3  0  0  0  0  0  0
  183.8940  178.6220  141.6530 C   0  0  0  0  0  2  0  0  0  0  0  0
  183.4420  178.2830  140.3780 O   0  0  0  0  0  0  0  0  0  0  0  0
  182.0660  178.1060  140.5300 C   0  0  0  0  0  1  0  0  0  0  0  0
  192.3900  169.6810  141.0550 C   0  0  0  0  0  2  0  0  0  0  0  0
  191.9870  169.2310  139.6610 C   0  0  0  0  0  2  0  0  0  0  0  0
  191.4710  170.4100  138.8570 C   0  0  0  0  0  2  0  0  0  0  0  0
  189.3000  171.5720  138.6090 C   0  0  2  0  0  3  0  0  0  0  0  0
  190.0320  170.2750  138.6370 N   0  0  0  0  0  0  0  0  0  0  0  0
  189.7440  170.9560  137.3660 C   0  0  0  0  0  2  0  0  0  0  0  0
  189.3510  173.7660  139.7830 C   0  0  0  0  0  1  0  0  0  0  0  0
  190.1450  172.8090  138.9170 C   0  0  0  0  0  2  0  0  0  0  0  0
  1  3  1  0  0  0  0
  1 13  1  0  0  0  0
  3 18  1  0  0  0  0
  4  7  1  0  0  0  0
  5  4  2  0  0  0  0
  5  8  1  0  0  0  0
  7 15  2  0  0  0  0
  8 20  2  0  0  0  0
  9  6  1  0  0  0  0
  9 17  1  0  0  0  0
 10 18  1  0  0  0  0
 11 10  2  0  0  0  0
 12 14  1  0  0  0  0
 13  2  1  0  0  0  0
 13  6  2  0  0  0  0
 14  8  1  0  0  0  0
 14  3  2  0  0  0  0
 16 12  1  0  0  0  0
 18  9  2  0  0  0  0
 19 12  2  0  0  0  0
 20 15  1  0  0  0  0
 20 11  1  0  0  0  0
 21 34  1  1  0  0  0
 21 16  1  0  0  0  0
 21  5  1  0  0  0  0
 22 23  1  0  0  0  0
 23 11  1  0  0  0  0
 23 24  2  0  0  0  0
 25 30  1  0  0  0  0
 26 27  2  0  0  0  0
 26 28  1  0  0  0  0
 27 29  1  0  0  0  0
 28 25  2  0  0  0  0
 29 22  1  0  0  0  0
 29 30  2  0  0  0  0
 31 28  1  0  0  0  0
 32 33  1  0  0  0  0
 32 31  1  0  0  0  0
 35 34  1  0  0  0  0
 36 35  1  0  0  0  0
 37 38  1  0  0  0  0
 37 41  1  1  0  0  0
 38 36  1  0  0  0  0
 39 37  1  0  0  0  0
 39 38  1  0  0  0  0
 41 40  1  0  0  0  0
M  END
>  <MODEL>
7

>  <REMARK>
 VINA RESULT:      -6.4      2.916      6.351
  Name = 
  9 active torsions:
  status: ('A' for Active; 'I' for Inactive)
    1  A    between atoms: C_5  and  C_23
    2  A    between atoms: C_5  and  C_37
    3  A    between atoms: N_7  and  C_30
    4  A    between atoms: C_11  and  C_38
    5  A    between atoms: C_17  and  C_34
    6  A    between atoms: O_18  and  C_39
    7  A    between atoms: N_21  and  C_23
    8  A    between atoms: C_28  and  C_39
    9  A    between atoms: C_37  and  C_40
                            x       y       z     vdW  Elec       q    Type
                         _______ _______ _______ _____ _____    ______ ____

>  <TORSDO>
F 9

$$$$
=
 OpenBabel11042414263D

 41 46  0  0  1  0  0  0  0  0999 V2000
  193.4900  176.0450  144.3150 O   0  0  0  0  0  0  0  0  0  0  0  0
  195.0520  176.0830  146.1910 N   0  0  0  0  0  1  0  0  0  0  0  0
  192.1920  175.9590  143.7810 C   0  0  0  0  0  0  0  0  0  0  0  0
  189.8750  173.0920  140.5640 C   0  0  0  0  0  3  0  0  0  0  0  0
  190.9860  173.8320  140.9880 C   0  0  0  0  0  0  0  0  0  0  0  0
  192.7040  176.2990  146.5310 C   0  0  0  0  0  3  0  0  0  0  0  0
  188.6070  173.3600  141.0540 C   0  0  0  0  0  3  0  0  0  0  0  0
  190.8210  174.8770  141.9540 C   0  0  0  0  0  0  0  0  0  0  0  0
  191.3290  176.4140  146.0160 C   0  0  0  0  0  0  0  0  0  0  0  0
  189.8100  176.8280  144.1910 C   0  0  0  0  0  3  0  0  0  0  0  0
  189.1430  176.4420  143.1110 C   0  0  0  0  0  0  0  0  0  0  0  0
  193.2920  175.3290  141.7230 C   0  0  0  0  0  0  0  0  0  0  0  0
  193.7220  176.1470  145.6900 C   0  0  0  0  0  0  0  0  0  0  0  0
  192.0570  175.5310  142.5030 C   0  0  0  0  0  0  0  0  0  0  0  0
  188.4230  174.4240  141.9240 C   0  0  0  0  0  3  0  0  0  0  0  0
  193.5200  174.0100  141.0870 C   0  0  0  0  0  2  0  0  0  0  0  0
  190.0780  176.8560  147.1760 Cl  0  0  0  0  0  0  0  0  0  0  0  0
  191.0680  176.2810  144.6990 C   0  0  0  0  0  0  0  0  0  0  0  0
  194.1700  176.2290  141.6390 O   0  0  0  0  0  0  0  0  0  0  0  0
  189.4970  175.2210  142.3490 C   0  0  0  0  0  0  0  0  0  0  0  0
  192.3090  173.6140  140.2610 C   0  0  1  0  0  3  0  0  0  0  0  0
  186.6360  176.7710  143.1520 N   0  0  0  0  0  2  0  0  0  0  0  0
  187.9360  177.2260  142.7440 C   0  0  0  0  0  0  0  0  0  0  0  0
  188.0530  178.2700  142.0430 O   0  0  0  0  0  0  0  0  0  0  0  0
  183.5880  178.2010  141.4870 C   0  0  0  0  0  3  0  0  0  0  0  0
  183.5070  178.6670  143.8600 C   0  0  0  0  0  3  0  0  0  0  0  0
  184.7270  178.0040  144.0330 C   0  0  0  0  0  3  0  0  0  0  0  0
  182.9330  178.7590  142.5890 C   0  0  0  0  0  0  0  0  0  0  0  0
  185.3830  177.4340  142.9360 C   0  0  0  0  0  0  0  0  0  0  0  0
  184.8070  177.5390  141.6600 C   0  0  0  0  0  3  0  0  0  0  0  0
  181.6480  179.4840  142.4010 C   0  0  0  0  0  2  0  0  0  0  0  0
  180.8160  178.7570  141.5510 O   0  0  0  0  0  0  0  0  0  0  0  0
  180.2300  179.7190  140.7280 C   0  0  0  0  0  1  0  0  0  0  0  0
  192.5100  172.1850  139.7750 C   0  0  0  0  0  2  0  0  0  0  0  0
  193.4400  171.4410  140.7180 C   0  0  0  0  0  2  0  0  0  0  0  0
  192.6430  170.7740  141.8240 C   0  0  0  0  0  2  0  0  0  0  0  0
  192.3200  171.4640  144.1790 C   0  0  2  0  0  3  0  0  0  0  0  0
  193.2720  171.0290  143.1180 N   0  0  0  0  0  0  0  0  0  0  0  0
  192.6900  170.0600  144.0590 C   0  0  0  0  0  2  0  0  0  0  0  0
  190.1450  172.5450  144.7170 C   0  0  0  0  0  1  0  0  0  0  0  0
  190.8760  171.6710  143.7190 C   0  0  0  0  0  2  0  0  0  0  0  0
  1 13  1  0  0  0  0
  3  1  1  0  0  0  0
  3 18  1  0  0  0  0
  4  5  2  0  0  0  0
  4  7  1  0  0  0  0
  5  8  1  0  0  0  0
  7 15  2  0  0  0  0
  8 20  2  0  0  0  0
  8 14  1  0  0  0  0
  9  6  1  0  0  0  0
  9 17  1  0  0  0  0
 10 18  1  0  0  0  0
 11 10  2  0  0  0  0
 12 14  1  0  0  0  0
 13  2  1  0  0  0  0
 13  6  2  0  0  0  0
 14  3  2  0  0  0  0
 15 20  1  0  0  0  0
 16 12  1  0  0  0  0
 18  9  2  0  0  0  0
 19 12  2  0  0  0  0
 20 11  1  0  0  0  0
 21 34  1  1  0  0  0
 21  5  1  0  0  0  0
 21 16  1  0  0  0  0
 23 11  1  0  0  0  0
 23 22  1  0  0  0  0
 24 23  2  0  0  0  0
 25 30  2  0  0  0  0
 25 28  1  0  0  0  0
 26 27  1  0  0  0  0
 28 26  2  0  0  0  0
 29 22  1  0  0  0  0
 29 27  2  0  0  0  0
 30 29  1  0  0  0  0
 31 28  1  0  0  0  0
 32 31  1  0  0  0  0
 33 32  1  0  0  0  0
 34 35  1  0  0  0  0
 35 36  1  0  0  0  0
 36 38  1  0  0  0  0
 37 41  1  6  0  0  0
 38 39  1  0  0  0  0
 38 37  1  0  0  0  0
 39 37  1  0  0  0  0
 41 40  1  0  0  0  0
M  END
>  <MODEL>
8

>  <REMARK>
 VINA RESULT:      -6.4      2.646      5.076
  Name = 
  9 active torsions:
  status: ('A' for Active; 'I' for Inactive)
    1  A    between atoms: C_5  and  C_23
    2  A    between atoms: C_5  and  C_37
    3  A    between atoms: N_7  and  C_30
    4  A    between atoms: C_11  and  C_38
    5  A    between atoms: C_17  and  C_34
    6  A    between atoms: O_18  and  C_39
    7  A    between atoms: N_21  and  C_23
    8  A    between atoms: C_28  and  C_39
    9  A    between atoms: C_37  and  C_40
                            x       y       z     vdW  Elec       q    Type
                         _______ _______ _______ _____ _____    ______ ____

>  <TORSDO>
F 9

$$$$
=
 OpenBabel11042414263D

 41 46  0  0  1  0  0  0  0  0999 V2000
  195.5100  175.1200  141.9110 O   0  0  0  0  0  0  0  0  0  0  0  0
  197.8810  175.4570  142.3890 N   0  0  0  0  0  1  0  0  0  0  0  0
  194.1880  174.8530  142.3110 C   0  0  0  0  0  0  0  0  0  0  0  0
  190.7630  171.5360  141.2140 C   0  0  0  0  0  3  0  0  0  0  0  0
  191.7880  172.4220  140.8590 C   0  0  0  0  0  0  0  0  0  0  0  0
  196.2580  175.4320  144.1330 C   0  0  0  0  0  3  0  0  0  0  0  0
  190.0590  171.6940  142.3970 C   0  0  0  0  0  3  0  0  0  0  0  0
  192.1300  173.5050  141.7330 C   0  0  0  0  0  0  0  0  0  0  0  0
  194.8630  175.3580  144.5990 C   0  0  0  0  0  0  0  0  0  0  0  0
  192.4990  175.4770  144.1430 C   0  0  0  0  0  3  0  0  0  0  0  0
  191.3600  174.9470  143.7160 C   0  0  0  0  0  0  0  0  0  0  0  0
  193.8290  174.2130  140.0070 C   0  0  0  0  0  0  0  0  0  0  0  0
  196.5360  175.3390  142.8360 C   0  0  0  0  0  0  0  0  0  0  0  0
  193.3400  174.3280  141.3940 C   0  0  0  0  0  0  0  0  0  0  0  0
  190.3240  172.7860  143.2080 C   0  0  0  0  0  3  0  0  0  0  0  0
  193.7770  172.8880  139.3460 C   0  0  0  0  0  2  0  0  0  0  0  0
  194.5680  175.7360  146.2950 Cl  0  0  0  0  0  0  0  0  0  0  0  0
  193.8550  175.1100  143.7360 C   0  0  0  0  0  0  0  0  0  0  0  0
  194.3370  175.1980  139.4060 O   0  0  0  0  0  0  0  0  0  0  0  0
  191.3130  173.7250  142.8780 C   0  0  0  0  0  0  0  0  0  0  0  0
  192.3800  172.3060  139.4580 C   0  0  1  0  0  3  0  0  0  0  0  0
  189.2150  176.2110  143.2750 N   0  0  0  0  0  2  0  0  0  0  0  0
  190.1010  175.5660  144.2030 C   0  0  0  0  0  0  0  0  0  0  0  0
  189.8310  175.5560  145.4370 O   0  0  0  0  0  0  0  0  0  0  0  0
  185.5210  176.8890  143.3460 C   0  0  0  0  0  3  0  0  0  0  0  0
  186.6740  178.5460  144.6820 C   0  0  0  0  0  3  0  0  0  0  0  0
  187.8970  177.9370  144.3820 C   0  0  0  0  0  3  0  0  0  0  0  0
  185.4850  178.0180  144.1700 C   0  0  0  0  0  0  0  0  0  0  0  0
  187.9400  176.8010  143.5660 C   0  0  0  0  0  0  0  0  0  0  0  0
  186.7450  176.2810  143.0470 C   0  0  0  0  0  3  0  0  0  0  0  0
  184.1860  178.6780  144.4690 C   0  0  0  0  0  2  0  0  0  0  0  0
  184.1660  179.1000  145.7990 O   0  0  0  0  0  0  0  0  0  0  0  0
  184.0690  177.9210  146.5380 C   0  0  0  0  0  1  0  0  0  0  0  0
  192.4140  170.8780  138.9280 C   0  0  0  0  0  2  0  0  0  0  0  0
  191.6800  170.7990  137.6000 C   0  0  0  0  0  2  0  0  0  0  0  0
  190.2000  171.0690  137.8020 C   0  0  0  0  0  2  0  0  0  0  0  0
  188.8360  173.1030  137.4410 C   0  0  2  0  0  3  0  0  0  0  0  0
  189.7400  172.0770  136.8490 N   0  0  0  0  0  0  0  0  0  0  0  0
  190.2640  173.3660  137.3260 C   0  0  0  0  0  2  0  0  0  0  0  0
  188.6370  174.1640  139.6830 C   0  0  0  0  0  1  0  0  0  0  0  0
  188.4570  172.8760  138.9050 C   0  0  0  0  0  2  0  0  0  0  0  0
  1  3  1  0  0  0  0
  1 13  1  0  0  0  0
  2 13  1  0  0  0  0
  3 18  1  0  0  0  0
  4  7  1  0  0  0  0
  5  4  2  0  0  0  0
  5  8  1  0  0  0  0
  6  9  1  0  0  0  0
  7 15  2  0  0  0  0
  8 20  2  0  0  0  0
  9 17  1  0  0  0  0
 11 10  2  0  0  0  0
 11 23  1  0  0  0  0
 12 14  1  0  0  0  0
 13  6  2  0  0  0  0
 14  8  1  0  0  0  0
 14  3  2  0  0  0  0
 16 21  1  0  0  0  0
 16 12  1  0  0  0  0
 18 10  1  0  0  0  0
 18  9  2  0  0  0  0
 19 12  2  0  0  0  0
 20 15  1  0  0  0  0
 20 11  1  0  0  0  0
 21 34  1  1  0  0  0
 21  5  1  0  0  0  0
 22 29  1  0  0  0  0
 22 23  1  0  0  0  0
 23 24  2  0  0  0  0
 25 28  1  0  0  0  0
 27 26  1  0  0  0  0
 28 31  1  0  0  0  0
 28 26  2  0  0  0  0
 29 27  2  0  0  0  0
 30 25  2  0  0  0  0
 30 29  1  0  0  0  0
 31 32  1  0  0  0  0
 32 33  1  0  0  0  0
 35 36  1  0  0  0  0
 35 34  1  0  0  0  0
 37 41  1  1  0  0  0
 38 39  1  0  0  0  0
 38 37  1  0  0  0  0
 38 36  1  0  0  0  0
 39 37  1  0  0  0  0
 41 40  1  0  0  0  0
M  END
>  <MODEL>
9

>  <REMARK>
 VINA RESULT:      -6.3      3.354      6.666
  Name = 
  9 active torsions:
  status: ('A' for Active; 'I' for Inactive)
    1  A    between atoms: C_5  and  C_23
    2  A    between atoms: C_5  and  C_37
    3  A    between atoms: N_7  and  C_30
    4  A    between atoms: C_11  and  C_38
    5  A    between atoms: C_17  and  C_34
    6  A    between atoms: O_18  and  C_39
    7  A    between atoms: N_21  and  C_23
    8  A    between atoms: C_28  and  C_39
    9  A    between atoms: C_37  and  C_40
                            x       y       z     vdW  Elec       q    Type
                         _______ _______ _______ _____ _____    ______ ____

>  <TORSDO>
F 9

$$$$
