=
 OpenBabel11042416253D

 38 40  0  0  1  0  0  0  0  0999 V2000
  189.7420  175.7240  142.8980 C   0  0  0  0  0  0  0  0  0  0  0  0
  188.4750  175.6100  143.1930 N   0  0  0  0  0  0  0  0  0  0  0  0
  189.8680  178.1870  143.7220 C   0  0  0  0  0  2  0  0  0  0  0  0
  190.4680  177.0630  142.8670 C   0  0  0  0  0  2  0  0  0  0  0  0
  187.5880  176.7140  143.5500 C   0  0  2  0  0  3  0  0  0  0  0  0
  187.9700  177.3210  144.9280 C   0  0  2  0  0  3  0  0  0  0  0  0
  189.4060  177.6570  144.9990 N   0  0  0  0  0  2  0  0  0  0  0  0
  190.8030  172.5840  141.1550 N   0  0  0  0  0  0  0  0  0  0  0  0
  191.8890  172.2350  141.8430 N   0  0  0  0  0  0  0  0  0  0  0  0
  191.6350  174.1250  143.2510 C   0  0  0  0  0  3  0  0  0  0  0  0
  190.4950  174.5020  142.5360 C   0  0  0  0  0  0  0  0  0  0  0  0
  192.3370  172.9680  142.9020 C   0  0  0  0  0  0  0  0  0  0  0  0
  190.0850  173.6930  141.4710 C   0  0  0  0  0  3  0  0  0  0  0  0
  195.6890  171.6220  145.2530 C   0  0  0  0  0  0  0  0  0  0  0  0
  194.8540  172.9970  143.4360 C   0  0  0  0  0  0  0  0  0  0  0  0
  193.3430  171.5690  144.6860 C   0  0  0  0  0  3  0  0  0  0  0  0
  194.4050  171.1290  145.4780 C   0  0  0  0  0  3  0  0  0  0  0  0
  195.1420  173.9520  142.4170 N   0  0  0  0  0  1  0  0  0  0  0  0
  195.9120  172.5460  144.2340 C   0  0  0  0  0  3  0  0  0  0  0  0
  193.5390  172.5080  143.6600 C   0  0  0  0  0  0  0  0  0  0  0  0
  196.7680  171.1960  146.0740 N   0  0  0  0  0  1  0  0  0  0  0  0
  187.5740  176.3850  146.1000 C   0  0  2  0  0  3  0  0  0  0  0  0
  186.6390  178.1020  147.2910 C   0  0  0  0  0  1  0  0  0  0  0  0
  186.4150  176.8150  146.7800 O   0  0  0  0  0  0  0  0  0  0  0  0
  188.7200  176.0220  147.0520 C   0  0  0  0  0  2  0  0  0  0  0  0
  189.0490  174.6170  146.9160 N   0  0  0  0  0  2  0  0  0  0  0  0
  190.2700  174.5580  146.3390 O   0  0  0  0  0  0  0  0  0  0  0  0
  191.0700  175.3810  147.1320 C   0  0  0  0  0  2  0  0  0  0  0  0
  192.3730  175.6180  146.4540 C   0  0  0  0  0  0  0  0  0  0  0  0
  192.6180  176.7350  145.9250 O   0  0  0  0  0  0  0  0  0  0  0  0
  193.3340  174.6150  146.4410 O   0  0  0  0  0  1  0  0  0  0  0  0
  186.1290  176.2870  143.4390 C   0  0  0  0  0  2  0  0  0  0  0  0
  185.2850  177.3930  142.8230 C   0  0  1  0  0  3  0  0  0  0  0  0
  184.1540  178.8160  144.7170 N   0  0  0  0  0  0  0  0  0  0  0  0
  184.6530  178.1900  143.8810 C   0  0  0  0  0  0  0  0  0  0  0  0
  186.1360  178.2550  142.0180 N   0  0  0  0  0  2  0  0  0  0  0  0
  185.7920  178.0350  140.6230 C   0  0  0  0  0  2  0  0  0  0  0  0
  184.4170  178.4340  140.3850 N   0  0  0  0  0  1  0  0  0  0  0  0
  1  2  2  0  0  0  0
  2  5  1  0  0  0  0
  3  7  1  0  0  0  0
  4  1  1  0  0  0  0
  4  3  1  0  0  0  0
  5 32  1  1  0  0  0
  5  6  1  0  0  0  0
  6  7  1  0  0  0  0
  6 22  1  1  0  0  0
  8 13  2  0  0  0  0
  8  9  1  0  0  0  0
  9 12  2  0  0  0  0
 11  1  1  0  0  0  0
 11 10  2  0  0  0  0
 12 10  1  0  0  0  0
 12 20  1  0  0  0  0
 13 11  1  0  0  0  0
 14 17  1  0  0  0  0
 14 21  1  0  0  0  0
 15 20  2  0  0  0  0
 15 19  1  0  0  0  0
 16 17  2  0  0  0  0
 18 15  1  0  0  0  0
 19 14  2  0  0  0  0
 20 16  1  0  0  0  0
 22 24  1  0  0  0  0
 22 25  1  1  0  0  0
 24 23  1  0  0  0  0
 26 25  1  0  0  0  0
 27 26  1  0  0  0  0
 27 28  1  0  0  0  0
 29 28  1  0  0  0  0
 30 29  2  0  0  0  0
 31 29  1  0  0  0  0
 33 32  1  1  0  0  0
 33 35  1  0  0  0  0
 35 34  3  0  0  0  0
 36 33  1  0  0  0  0
 37 36  1  0  0  0  0
 38 37  1  0  0  0  0
M  END
>  <MODEL>
1

>  <REMARK>
 VINA RESULT:      -5.9      0.000      0.000
  Name = 
  14 active torsions:
  status: ('A' for Active; 'I' for Inactive)
    1  A    between atoms: N_3  and  C_7
    2  A    between atoms: N_3  and  C_36
    3  A    between atoms: C_5  and  C_6
    4  A    between atoms: C_5  and  O_27
    5  A    between atoms: C_8  and  C_9
    6  A    between atoms: C_8  and  N_37
    7  A    between atoms: C_9  and  O_19
    8  A    between atoms: C_9  and  C_29
    9  A    between atoms: C_12  and  C_36
   10  A    between atoms: C_16  and  C_30
   11  A    between atoms: C_22  and  C_28
   12  A    between atoms: C_22  and  C_36
   13  A    between atoms: O_27  and  N_37
   14  A    between atoms: C_33  and  C_34
                            x       y       z     vdW  Elec       q    Type
                         _______ _______ _______ _____ _____    ______ ____

>  <TORSDO>
F 14

$$$$
=
 OpenBabel11042416253D

 38 40  0  0  1  0  0  0  0  0999 V2000
  191.7520  175.4770  146.1380 C   0  0  0  0  0  0  0  0  0  0  0  0
  192.2430  174.4680  145.4690 N   0  0  0  0  0  0  0  0  0  0  0  0
  194.0840  176.5680  146.5030 C   0  0  0  0  0  2  0  0  0  0  0  0
  192.6180  176.4410  146.9390 C   0  0  0  0  0  2  0  0  0  0  0  0
  193.6620  174.1320  145.3700 C   0  0  2  0  0  3  0  0  0  0  0  0
  194.4390  175.1990  144.5510 C   0  0  2  0  0  3  0  0  0  0  0  0
  194.1800  176.5650  145.0490 N   0  0  0  0  0  2  0  0  0  0  0  0
  188.1820  175.5220  147.2670 N   0  0  0  0  0  0  0  0  0  0  0  0
  187.5570  176.0190  146.2010 N   0  0  0  0  0  0  0  0  0  0  0  0
  189.6170  176.1840  145.0390 C   0  0  0  0  0  3  0  0  0  0  0  0
  190.2830  175.6650  146.1520 C   0  0  0  0  0  0  0  0  0  0  0  0
  188.2300  176.3560  145.0630 C   0  0  0  0  0  0  0  0  0  0  0  0
  189.5260  175.3270  147.2790 C   0  0  0  0  0  3  0  0  0  0  0  0
  186.1930  177.7870  141.5460 C   0  0  0  0  0  0  0  0  0  0  0  0
  186.6560  178.0360  143.9150 C   0  0  0  0  0  0  0  0  0  0  0  0
  187.6150  176.1900  142.6660 C   0  0  0  0  0  3  0  0  0  0  0  0
  186.9850  176.6410  141.5060 C   0  0  0  0  0  3  0  0  0  0  0  0
  186.4560  178.7900  145.1090 N   0  0  0  0  0  1  0  0  0  0  0  0
  186.0250  178.4770  142.7450 C   0  0  0  0  0  3  0  0  0  0  0  0
  187.4720  176.8730  143.8860 C   0  0  0  0  0  0  0  0  0  0  0  0
  185.5700  178.2640  140.3600 N   0  0  0  0  0  1  0  0  0  0  0  0
  194.1240  175.1050  143.0360 C   0  0  2  0  0  3  0  0  0  0  0  0
  195.5120  176.0440  141.4750 C   0  0  0  0  0  1  0  0  0  0  0  0
  195.2770  174.8970  142.2470 O   0  0  0  0  0  0  0  0  0  0  0  0
  193.2270  176.2230  142.4910 C   0  0  0  0  0  2  0  0  0  0  0  0
  191.8650  175.7450  142.3630 N   0  0  0  0  0  2  0  0  0  0  0  0
  191.9410  174.4390  142.0240 O   0  0  0  0  0  0  0  0  0  0  0  0
  190.6240  174.0730  141.7510 C   0  0  0  0  0  2  0  0  0  0  0  0
  190.2540  172.8850  142.5670 C   0  0  0  0  0  0  0  0  0  0  0  0
  190.6320  171.7340  142.2190 O   0  0  0  0  0  0  0  0  0  0  0  0
  189.5240  173.0530  143.7370 O   0  0  0  0  0  1  0  0  0  0  0  0
  193.8390  172.7060  144.8620 C   0  0  0  0  0  2  0  0  0  0  0  0
  195.0970  172.0760  145.4430 C   0  0  1  0  0  3  0  0  0  0  0  0
  194.6130  169.5940  146.1470 N   0  0  0  0  0  0  0  0  0  0  0  0
  194.8280  170.6890  145.8380 C   0  0  0  0  0  0  0  0  0  0  0  0
  196.1490  172.0920  144.4390 N   0  0  0  0  0  2  0  0  0  0  0  0
  197.3660  172.5620  145.0830 C   0  0  0  0  0  2  0  0  0  0  0  0
  197.0320  173.3170  146.2760 N   0  0  0  0  0  1  0  0  0  0  0  0
  1 11  1  0  0  0  0
  1  4  1  0  0  0  0
  2  1  2  0  0  0  0
  3  4  1  0  0  0  0
  5 32  1  6  0  0  0
  5  2  1  0  0  0  0
  6 22  1  6  0  0  0
  6  7  1  0  0  0  0
  6  5  1  0  0  0  0
  7  3  1  0  0  0  0
  8 13  1  0  0  0  0
  9  8  2  0  0  0  0
 10 12  2  0  0  0  0
 10 11  1  0  0  0  0
 11 13  2  0  0  0  0
 12  9  1  0  0  0  0
 14 19  1  0  0  0  0
 15 18  1  0  0  0  0
 16 20  2  0  0  0  0
 17 14  2  0  0  0  0
 17 16  1  0  0  0  0
 19 15  2  0  0  0  0
 20 15  1  0  0  0  0
 20 12  1  0  0  0  0
 21 14  1  0  0  0  0
 22 25  1  6  0  0  0
 23 24  1  0  0  0  0
 24 22  1  0  0  0  0
 26 25  1  0  0  0  0
 27 26  1  0  0  0  0
 28 27  1  0  0  0  0
 28 29  1  0  0  0  0
 29 31  1  0  0  0  0
 30 29  2  0  0  0  0
 33 32  1  6  0  0  0
 33 35  1  0  0  0  0
 35 34  3  0  0  0  0
 36 37  1  0  0  0  0
 36 33  1  0  0  0  0
 37 38  1  0  0  0  0
M  END
>  <MODEL>
2

>  <REMARK>
 VINA RESULT:      -5.8      2.377      8.746
  Name = 
  14 active torsions:
  status: ('A' for Active; 'I' for Inactive)
    1  A    between atoms: N_3  and  C_7
    2  A    between atoms: N_3  and  C_36
    3  A    between atoms: C_5  and  C_6
    4  A    between atoms: C_5  and  O_27
    5  A    between atoms: C_8  and  C_9
    6  A    between atoms: C_8  and  N_37
    7  A    between atoms: C_9  and  O_19
    8  A    between atoms: C_9  and  C_29
    9  A    between atoms: C_12  and  C_36
   10  A    between atoms: C_16  and  C_30
   11  A    between atoms: C_22  and  C_28
   12  A    between atoms: C_22  and  C_36
   13  A    between atoms: O_27  and  N_37
   14  A    between atoms: C_33  and  C_34
                            x       y       z     vdW  Elec       q    Type
                         _______ _______ _______ _____ _____    ______ ____

>  <TORSDO>
F 14

$$$$
=
 OpenBabel11042416253D

 38 40  0  0  1  0  0  0  0  0999 V2000
  192.1200  175.2510  145.2930 C   0  0  0  0  0  0  0  0  0  0  0  0
  193.0260  174.3550  145.0050 N   0  0  0  0  0  0  0  0  0  0  0  0
  193.7600  176.6680  146.7310 C   0  0  0  0  0  2  0  0  0  0  0  0
  192.3110  176.3040  146.3770 C   0  0  0  0  0  2  0  0  0  0  0  0
  194.3340  174.2410  145.6450 C   0  0  2  0  0  3  0  0  0  0  0  0
  195.2470  175.4440  145.2820 C   0  0  2  0  0  3  0  0  0  0  0  0
  194.5710  176.7350  145.5220 N   0  0  0  0  0  2  0  0  0  0  0  0
  189.4710  174.3740  142.7950 N   0  0  0  0  0  0  0  0  0  0  0  0
  188.4480  175.1260  143.1950 N   0  0  0  0  0  0  0  0  0  0  0  0
  189.7540  176.0010  144.9710 C   0  0  0  0  0  3  0  0  0  0  0  0
  190.8340  175.2150  144.5600 C   0  0  0  0  0  0  0  0  0  0  0  0
  188.5440  175.9600  144.2700 C   0  0  0  0  0  0  0  0  0  0  0  0
  190.6670  174.3950  143.4390 C   0  0  0  0  0  3  0  0  0  0  0  0
  185.0880  178.2460  145.4520 C   0  0  0  0  0  0  0  0  0  0  0  0
  186.8840  177.8820  143.8610 C   0  0  0  0  0  0  0  0  0  0  0  0
  186.6990  176.4910  145.8400 C   0  0  0  0  0  3  0  0  0  0  0  0
  185.5650  177.2000  146.2390 C   0  0  0  0  0  3  0  0  0  0  0  0
  187.5090  178.2710  142.6400 N   0  0  0  0  0  1  0  0  0  0  0  0
  185.7470  178.5880  144.2730 C   0  0  0  0  0  3  0  0  0  0  0  0
  187.3760  176.8080  144.6510 C   0  0  0  0  0  0  0  0  0  0  0  0
  183.9180  178.9530  145.8410 N   0  0  0  0  0  1  0  0  0  0  0  0
  195.7540  175.3620  143.8190 C   0  0  2  0  0  3  0  0  0  0  0  0
  197.3000  176.8880  143.0950 C   0  0  0  0  0  1  0  0  0  0  0  0
  197.1340  175.6330  143.6990 O   0  0  0  0  0  0  0  0  0  0  0  0
  194.9080  176.1320  142.7970 C   0  0  0  0  0  2  0  0  0  0  0  0
  194.4660  175.2360  141.7470 N   0  0  0  0  0  2  0  0  0  0  0  0
  194.8910  175.7670  140.5780 O   0  0  0  0  0  0  0  0  0  0  0  0
  195.5070  174.7060  139.9170 C   0  0  0  0  0  2  0  0  0  0  0  0
  196.9850  174.8290  140.0380 C   0  0  0  0  0  0  0  0  0  0  0  0
  197.5970  175.7430  139.4230 O   0  0  0  0  0  0  0  0  0  0  0  0
  197.6830  173.9570  140.8640 O   0  0  0  0  0  1  0  0  0  0  0  0
  194.9530  172.8790  145.3570 C   0  0  0  0  0  2  0  0  0  0  0  0
  194.0940  172.0880  144.3810 C   0  0  1  0  0  3  0  0  0  0  0  0
  195.3890  171.7450  142.1240 N   0  0  0  0  0  0  0  0  0  0  0  0
  194.8160  171.8960  143.1190 C   0  0  0  0  0  0  0  0  0  0  0  0
  193.7840  170.7890  144.9570 N   0  0  0  0  0  2  0  0  0  0  0  0
  195.0290  170.2070  145.4300 C   0  0  0  0  0  2  0  0  0  0  0  0
  194.8000  169.4990  146.6760 N   0  0  0  0  0  1  0  0  0  0  0  0
  1  4  1  0  0  0  0
  2  1  2  0  0  0  0
  2  5  1  0  0  0  0
  4  3  1  0  0  0  0
  5 32  1  6  0  0  0
  6 22  1  6  0  0  0
  6  7  1  0  0  0  0
  6  5  1  0  0  0  0
  7  3  1  0  0  0  0
  8  9  2  0  0  0  0
  8 13  1  0  0  0  0
  9 12  1  0  0  0  0
 11 10  1  0  0  0  0
 11  1  1  0  0  0  0
 12 20  1  0  0  0  0
 12 10  2  0  0  0  0
 13 11  2  0  0  0  0
 14 21  1  0  0  0  0
 14 17  1  0  0  0  0
 15 19  1  0  0  0  0
 15 20  2  0  0  0  0
 16 17  2  0  0  0  0
 18 15  1  0  0  0  0
 19 14  2  0  0  0  0
 20 16  1  0  0  0  0
 22 25  1  6  0  0  0
 23 24  1  0  0  0  0
 24 22  1  0  0  0  0
 26 25  1  0  0  0  0
 27 26  1  0  0  0  0
 28 29  1  0  0  0  0
 28 27  1  0  0  0  0
 29 31  1  0  0  0  0
 30 29  2  0  0  0  0
 33 35  1  6  0  0  0
 33 36  1  0  0  0  0
 33 32  1  0  0  0  0
 34 35  3  0  0  0  0
 36 37  1  0  0  0  0
 37 38  1  0  0  0  0
M  END
>  <MODEL>
3

>  <REMARK>
 VINA RESULT:      -5.7      3.071      8.923
  Name = 
  14 active torsions:
  status: ('A' for Active; 'I' for Inactive)
    1  A    between atoms: N_3  and  C_7
    2  A    between atoms: N_3  and  C_36
    3  A    between atoms: C_5  and  C_6
    4  A    between atoms: C_5  and  O_27
    5  A    between atoms: C_8  and  C_9
    6  A    between atoms: C_8  and  N_37
    7  A    between atoms: C_9  and  O_19
    8  A    between atoms: C_9  and  C_29
    9  A    between atoms: C_12  and  C_36
   10  A    between atoms: C_16  and  C_30
   11  A    between atoms: C_22  and  C_28
   12  A    between atoms: C_22  and  C_36
   13  A    between atoms: O_27  and  N_37
   14  A    between atoms: C_33  and  C_34
                            x       y       z     vdW  Elec       q    Type
                         _______ _______ _______ _____ _____    ______ ____

>  <TORSDO>
F 14

$$$$
=
 OpenBabel11042416253D

 38 40  0  0  1  0  0  0  0  0999 V2000
  190.6840  174.5840  141.9690 C   0  0  0  0  0  0  0  0  0  0  0  0
  191.8870  174.0960  141.8300 N   0  0  0  0  0  0  0  0  0  0  0  0
  189.5630  172.5830  140.7450 C   0  0  0  0  0  2  0  0  0  0  0  0
  189.4750  174.0410  141.2180 C   0  0  0  0  0  2  0  0  0  0  0  0
  192.2450  172.9680  140.9730 C   0  0  2  0  0  3  0  0  0  0  0  0
  191.6450  171.6390  141.5080 C   0  0  2  0  0  3  0  0  0  0  0  0
  190.1960  171.7590  141.7670 N   0  0  0  0  0  2  0  0  0  0  0  0
  191.3320  177.7130  143.9240 N   0  0  0  0  0  0  0  0  0  0  0  0
  190.1580  177.9190  144.5200 N   0  0  0  0  0  0  0  0  0  0  0  0
  189.2690  175.9730  143.4980 C   0  0  0  0  0  3  0  0  0  0  0  0
  190.4950  175.7480  142.8660 C   0  0  0  0  0  0  0  0  0  0  0  0
  189.1030  177.0740  144.3440 C   0  0  0  0  0  0  0  0  0  0  0  0
  191.5380  176.6490  143.1060 C   0  0  0  0  0  3  0  0  0  0  0  0
  185.4180  178.0170  146.3710 C   0  0  0  0  0  0  0  0  0  0  0  0
  187.4580  176.7060  146.2890 C   0  0  0  0  0  0  0  0  0  0  0  0
  186.9510  178.2940  144.5260 C   0  0  0  0  0  3  0  0  0  0  0  0
  185.7610  178.6350  145.1700 C   0  0  0  0  0  3  0  0  0  0  0  0
  188.2840  175.7220  146.9080 N   0  0  0  0  0  1  0  0  0  0  0  0
  186.2600  177.0540  146.9240 C   0  0  0  0  0  3  0  0  0  0  0  0
  187.8230  177.3340  145.0670 C   0  0  0  0  0  0  0  0  0  0  0  0
  184.2200  178.3810  147.0430 N   0  0  0  0  0  1  0  0  0  0  0  0
  192.3830  171.1430  142.7780 C   0  0  2  0  0  3  0  0  0  0  0  0
  193.8960  169.4720  142.3760 C   0  0  0  0  0  1  0  0  0  0  0  0
  192.5830  169.7450  142.7870 O   0  0  0  0  0  0  0  0  0  0  0  0
  191.8170  171.6690  144.1020 C   0  0  0  0  0  2  0  0  0  0  0  0
  192.8280  172.4380  144.8010 N   0  0  0  0  0  2  0  0  0  0  0  0
  192.2530  173.6110  145.1480 O   0  0  0  0  0  0  0  0  0  0  0  0
  193.2960  174.3640  145.6850 C   0  0  0  0  0  2  0  0  0  0  0  0
  192.7450  175.4240  146.5720 C   0  0  0  0  0  0  0  0  0  0  0  0
  193.2290  176.5870  146.5450 O   0  0  0  0  0  0  0  0  0  0  0  0
  191.6680  175.1370  147.4010 O   0  0  0  0  0  1  0  0  0  0  0  0
  193.7520  172.9260  140.7470 C   0  0  0  0  0  2  0  0  0  0  0  0
  194.4530  173.9990  141.5660 C   0  0  1  0  0  3  0  0  0  0  0  0
  196.2650  172.9010  143.1150 N   0  0  0  0  0  0  0  0  0  0  0  0
  195.4660  173.3870  142.4320 C   0  0  0  0  0  0  0  0  0  0  0  0
  195.0980  174.9440  140.6690 N   0  0  0  0  0  2  0  0  0  0  0  0
  194.9100  176.2760  141.2200 C   0  0  0  0  0  2  0  0  0  0  0  0
  196.1990  176.9030  141.4450 N   0  0  0  0  0  1  0  0  0  0  0  0
  1 11  1  0  0  0  0
  2  1  2  0  0  0  0
  3  4  1  0  0  0  0
  3  7  1  0  0  0  0
  4  1  1  0  0  0  0
  5 32  1  1  0  0  0
  5  6  1  0  0  0  0
  5  2  1  0  0  0  0
  6  7  1  0  0  0  0
  6 22  1  1  0  0  0
  8  9  1  0  0  0  0
 10 12  1  0  0  0  0
 11 13  1  0  0  0  0
 11 10  2  0  0  0  0
 12  9  2  0  0  0  0
 12 20  1  0  0  0  0
 13  8  2  0  0  0  0
 14 19  1  0  0  0  0
 14 21  1  0  0  0  0
 15 18  1  0  0  0  0
 15 19  2  0  0  0  0
 16 20  2  0  0  0  0
 16 17  1  0  0  0  0
 17 14  2  0  0  0  0
 20 15  1  0  0  0  0
 22 24  1  0  0  0  0
 22 25  1  1  0  0  0
 23 24  1  0  0  0  0
 25 26  1  0  0  0  0
 26 27  1  0  0  0  0
 27 28  1  0  0  0  0
 28 29  1  0  0  0  0
 29 31  1  0  0  0  0
 30 29  2  0  0  0  0
 33 32  1  6  0  0  0
 33 35  1  0  0  0  0
 35 34  3  0  0  0  0
 36 37  1  0  0  0  0
 36 33  1  0  0  0  0
 37 38  1  0  0  0  0
M  END
>  <MODEL>
4

>  <REMARK>
 VINA RESULT:      -5.6      2.455      8.058
  Name = 
  14 active torsions:
  status: ('A' for Active; 'I' for Inactive)
    1  A    between atoms: N_3  and  C_7
    2  A    between atoms: N_3  and  C_36
    3  A    between atoms: C_5  and  C_6
    4  A    between atoms: C_5  and  O_27
    5  A    between atoms: C_8  and  C_9
    6  A    between atoms: C_8  and  N_37
    7  A    between atoms: C_9  and  O_19
    8  A    between atoms: C_9  and  C_29
    9  A    between atoms: C_12  and  C_36
   10  A    between atoms: C_16  and  C_30
   11  A    between atoms: C_22  and  C_28
   12  A    between atoms: C_22  and  C_36
   13  A    between atoms: O_27  and  N_37
   14  A    between atoms: C_33  and  C_34
                            x       y       z     vdW  Elec       q    Type
                         _______ _______ _______ _____ _____    ______ ____

>  <TORSDO>
F 14

$$$$
=
 OpenBabel11042416253D

 38 40  0  0  1  0  0  0  0  0999 V2000
  192.9440  175.2340  145.8340 C   0  0  0  0  0  0  0  0  0  0  0  0
  193.8810  174.4100  145.4520 N   0  0  0  0  0  0  0  0  0  0  0  0
  194.6340  177.1100  146.4560 C   0  0  0  0  0  2  0  0  0  0  0  0
  193.2290  176.5110  146.6140 C   0  0  0  0  0  2  0  0  0  0  0  0
  195.3120  174.5900  145.6880 C   0  0  2  0  0  3  0  0  0  0  0  0
  195.8720  175.7850  144.8690 C   0  0  2  0  0  3  0  0  0  0  0  0
  195.0710  177.0090  145.0700 N   0  0  0  0  0  2  0  0  0  0  0  0
  189.8840  173.3200  144.8320 N   0  0  0  0  0  0  0  0  0  0  0  0
  188.9240  174.2310  144.9760 N   0  0  0  0  0  0  0  0  0  0  0  0
  190.5190  175.8390  145.6780 C   0  0  0  0  0  3  0  0  0  0  0  0
  191.5350  174.8900  145.5320 C   0  0  0  0  0  0  0  0  0  0  0  0
  189.1930  175.5030  145.3880 C   0  0  0  0  0  0  0  0  0  0  0  0
  191.1860  173.6090  145.0900 C   0  0  0  0  0  3  0  0  0  0  0  0
  185.8770  178.2230  145.8020 C   0  0  0  0  0  0  0  0  0  0  0  0
  187.7550  177.4350  144.4830 C   0  0  0  0  0  0  0  0  0  0  0  0
  187.2830  176.4550  146.6520 C   0  0  0  0  0  3  0  0  0  0  0  0
  186.1900  177.3090  146.8050 C   0  0  0  0  0  3  0  0  0  0  0  0
  188.5100  177.5410  143.2780 N   0  0  0  0  0  1  0  0  0  0  0  0
  186.6580  178.2890  144.6490 C   0  0  0  0  0  3  0  0  0  0  0  0
  188.0810  176.4930  145.4960 C   0  0  0  0  0  0  0  0  0  0  0  0
  184.7490  179.0770  145.9430 N   0  0  0  0  0  1  0  0  0  0  0  0
  195.9780  175.4490  143.3580 C   0  0  2  0  0  3  0  0  0  0  0  0
  197.9410  174.5960  142.5450 C   0  0  0  0  0  1  0  0  0  0  0  0
  197.2360  175.7790  142.8090 O   0  0  0  0  0  0  0  0  0  0  0  0
  194.8080  175.9470  142.5010 C   0  0  0  0  0  2  0  0  0  0  0  0
  194.4130  174.9190  141.5590 N   0  0  0  0  0  2  0  0  0  0  0  0
  193.3690  174.2640  142.1140 O   0  0  0  0  0  0  0  0  0  0  0  0
  192.2840  175.1200  141.9300 C   0  0  0  0  0  2  0  0  0  0  0  0
  191.0720  174.3280  141.5860 C   0  0  0  0  0  0  0  0  0  0  0  0
  189.9260  174.8320  141.7230 O   0  0  0  0  0  1  0  0  0  0  0  0
  191.2120  173.0440  141.0750 O   0  0  0  0  0  0  0  0  0  0  0  0
  196.0590  173.2800  145.4710 C   0  0  0  0  0  2  0  0  0  0  0  0
  195.1290  172.2100  144.9180 C   0  0  1  0  0  3  0  0  0  0  0  0
  195.8900  171.5200  142.5020 N   0  0  0  0  0  0  0  0  0  0  0  0
  195.5550  171.8240  143.5690 C   0  0  0  0  0  0  0  0  0  0  0  0
  195.1680  171.0440  145.7850 N   0  0  0  0  0  2  0  0  0  0  0  0
  196.5650  170.7050  146.0060 C   0  0  0  0  0  2  0  0  0  0  0  0
  196.6650  169.6500  146.9980 N   0  0  0  0  0  1  0  0  0  0  0  0
  1  4  1  0  0  0  0
  2  5  1  0  0  0  0
  2  1  2  0  0  0  0
  3  4  1  0  0  0  0
  5 32  1  6  0  0  0
  6 22  1  6  0  0  0
  6  7  1  0  0  0  0
  6  5  1  0  0  0  0
  7  3  1  0  0  0  0
  8  9  2  0  0  0  0
  8 13  1  0  0  0  0
  9 12  1  0  0  0  0
 11 10  1  0  0  0  0
 11  1  1  0  0  0  0
 12 20  1  0  0  0  0
 12 10  2  0  0  0  0
 13 11  2  0  0  0  0
 14 21  1  0  0  0  0
 14 17  1  0  0  0  0
 15 19  1  0  0  0  0
 15 20  2  0  0  0  0
 16 17  2  0  0  0  0
 18 15  1  0  0  0  0
 19 14  2  0  0  0  0
 20 16  1  0  0  0  0
 22 25  1  6  0  0  0
 23 24  1  0  0  0  0
 24 22  1  0  0  0  0
 26 27  1  0  0  0  0
 26 25  1  0  0  0  0
 28 27  1  0  0  0  0
 29 30  1  0  0  0  0
 29 28  1  0  0  0  0
 31 29  2  0  0  0  0
 33 35  1  6  0  0  0
 33 32  1  0  0  0  0
 33 36  1  0  0  0  0
 34 35  3  0  0  0  0
 36 37  1  0  0  0  0
 37 38  1  0  0  0  0
M  END
>  <MODEL>
5

>  <REMARK>
 VINA RESULT:      -5.6      2.661      8.937
  Name = 
  14 active torsions:
  status: ('A' for Active; 'I' for Inactive)
    1  A    between atoms: N_3  and  C_7
    2  A    between atoms: N_3  and  C_36
    3  A    between atoms: C_5  and  C_6
    4  A    between atoms: C_5  and  O_27
    5  A    between atoms: C_8  and  C_9
    6  A    between atoms: C_8  and  N_37
    7  A    between atoms: C_9  and  O_19
    8  A    between atoms: C_9  and  C_29
    9  A    between atoms: C_12  and  C_36
   10  A    between atoms: C_16  and  C_30
   11  A    between atoms: C_22  and  C_28
   12  A    between atoms: C_22  and  C_36
   13  A    between atoms: O_27  and  N_37
   14  A    between atoms: C_33  and  C_34
                            x       y       z     vdW  Elec       q    Type
                         _______ _______ _______ _____ _____    ______ ____

>  <TORSDO>
F 14

$$$$
=
 OpenBabel11042416253D

 38 40  0  0  1  0  0  0  0  0999 V2000
  191.3400  173.6670  142.6310 C   0  0  0  0  0  0  0  0  0  0  0  0
  192.1030  174.7250  142.6890 N   0  0  0  0  0  0  0  0  0  0  0  0
  193.2420  172.0650  143.3890 C   0  0  0  0  0  2  0  0  0  0  0  0
  191.8850  172.2460  142.6940 C   0  0  0  0  0  2  0  0  0  0  0  0
  193.5560  174.7100  142.8430 C   0  0  2  0  0  3  0  0  0  0  0  0
  193.9700  174.1950  144.2480 C   0  0  2  0  0  3  0  0  0  0  0  0
  193.3190  172.9100  144.5730 N   0  0  0  0  0  2  0  0  0  0  0  0
  187.7470  173.0410  141.7770 N   0  0  0  0  0  0  0  0  0  0  0  0
  187.1720  174.1910  142.1240 N   0  0  0  0  0  0  0  0  0  0  0  0
  189.2680  175.0610  142.8120 C   0  0  0  0  0  3  0  0  0  0  0  0
  189.8820  173.8580  142.4530 C   0  0  0  0  0  0  0  0  0  0  0  0
  187.8910  175.2300  142.6370 C   0  0  0  0  0  0  0  0  0  0  0  0
  189.0830  172.8410  141.9180 C   0  0  0  0  0  3  0  0  0  0  0  0
  185.7770  178.8200  143.7380 C   0  0  0  0  0  0  0  0  0  0  0  0
  186.9420  177.5450  142.0350 C   0  0  0  0  0  0  0  0  0  0  0  0
  186.7330  176.6730  144.2890 C   0  0  0  0  0  3  0  0  0  0  0  0
  186.0280  177.8150  144.6700 C   0  0  0  0  0  3  0  0  0  0  0  0
  187.3770  177.4600  140.6790 N   0  0  0  0  0  1  0  0  0  0  0  0
  186.2370  178.6870  142.4290 C   0  0  0  0  0  3  0  0  0  0  0  0
  187.1990  176.5090  142.9730 C   0  0  0  0  0  0  0  0  0  0  0  0
  185.0360  179.9730  144.1160 N   0  0  0  0  0  1  0  0  0  0  0  0
  193.6820  175.2430  145.3540 C   0  0  2  0  0  3  0  0  0  0  0  0
  194.4980  177.1030  146.4120 C   0  0  0  0  0  1  0  0  0  0  0  0
  194.8510  175.8780  145.8280 O   0  0  0  0  0  0  0  0  0  0  0  0
  192.7720  174.7540  146.4880 C   0  0  0  0  0  2  0  0  0  0  0  0
  191.3900  175.0600  146.1780 N   0  0  0  0  0  2  0  0  0  0  0  0
  190.7940  175.3890  147.3460 O   0  0  0  0  0  0  0  0  0  0  0  0
  190.8440  176.7820  147.3820 C   0  0  0  0  0  2  0  0  0  0  0  0
  189.7080  177.3460  146.6030 C   0  0  0  0  0  0  0  0  0  0  0  0
  188.5620  177.4240  147.1210 O   0  0  0  0  0  1  0  0  0  0  0  0
  189.9250  177.8220  145.3160 O   0  0  0  0  0  0  0  0  0  0  0  0
  194.1460  176.0670  142.4760 C   0  0  0  0  0  2  0  0  0  0  0  0
  195.4510  175.9010  141.7100 C   0  0  1  0  0  3  0  0  0  0  0  0
  197.4610  176.7600  143.1620 N   0  0  0  0  0  0  0  0  0  0  0  0
  196.5740  176.3830  142.5210 C   0  0  0  0  0  0  0  0  0  0  0  0
  195.6520  174.4950  141.4010 N   0  0  0  0  0  2  0  0  0  0  0  0
  196.2050  174.4120  140.0590 C   0  0  0  0  0  2  0  0  0  0  0  0
  195.4200  175.2290  139.1510 N   0  0  0  0  0  1  0  0  0  0  0  0
  1  2  2  0  0  0  0
  1  4  1  0  0  0  0
  2  5  1  0  0  0  0
  3  7  1  0  0  0  0
  4  3  1  0  0  0  0
  5 32  1  1  0  0  0
  5  6  1  0  0  0  0
  6  7  1  0  0  0  0
  6 22  1  1  0  0  0
  8 13  2  0  0  0  0
  8  9  1  0  0  0  0
  9 12  2  0  0  0  0
 11  1  1  0  0  0  0
 11 10  2  0  0  0  0
 12 10  1  0  0  0  0
 12 20  1  0  0  0  0
 13 11  1  0  0  0  0
 14 21  1  0  0  0  0
 14 17  1  0  0  0  0
 15 19  1  0  0  0  0
 15 20  2  0  0  0  0
 16 17  2  0  0  0  0
 18 15  1  0  0  0  0
 19 14  2  0  0  0  0
 20 16  1  0  0  0  0
 22 24  1  0  0  0  0
 22 25  1  1  0  0  0
 24 23  1  0  0  0  0
 26 25  1  0  0  0  0
 26 27  1  0  0  0  0
 27 28  1  0  0  0  0
 29 30  1  0  0  0  0
 29 28  1  0  0  0  0
 31 29  2  0  0  0  0
 33 32  1  1  0  0  0
 33 35  1  0  0  0  0
 35 34  3  0  0  0  0
 36 33  1  0  0  0  0
 37 36  1  0  0  0  0
 38 37  1  0  0  0  0
M  END
>  <MODEL>
6

>  <REMARK>
 VINA RESULT:      -5.5      2.218      7.809
  Name = 
  14 active torsions:
  status: ('A' for Active; 'I' for Inactive)
    1  A    between atoms: N_3  and  C_7
    2  A    between atoms: N_3  and  C_36
    3  A    between atoms: C_5  and  C_6
    4  A    between atoms: C_5  and  O_27
    5  A    between atoms: C_8  and  C_9
    6  A    between atoms: C_8  and  N_37
    7  A    between atoms: C_9  and  O_19
    8  A    between atoms: C_9  and  C_29
    9  A    between atoms: C_12  and  C_36
   10  A    between atoms: C_16  and  C_30
   11  A    between atoms: C_22  and  C_28
   12  A    between atoms: C_22  and  C_36
   13  A    between atoms: O_27  and  N_37
   14  A    between atoms: C_33  and  C_34
                            x       y       z     vdW  Elec       q    Type
                         _______ _______ _______ _____ _____    ______ ____

>  <TORSDO>
F 14

$$$$
=
 OpenBabel11042416253D

 38 40  0  0  1  0  0  0  0  0999 V2000
  188.7510  176.1490  144.7060 C   0  0  0  0  0  0  0  0  0  0  0  0
  189.5350  175.1390  144.4410 N   0  0  0  0  0  0  0  0  0  0  0  0
  189.2610  176.0730  147.2550 C   0  0  0  0  0  2  0  0  0  0  0  0
  188.3270  176.5210  146.1210 C   0  0  0  0  0  2  0  0  0  0  0  0
  190.1300  174.2490  145.4350 C   0  0  2  0  0  3  0  0  0  0  0  0
  191.1890  174.9910  146.2950 C   0  0  2  0  0  3  0  0  0  0  0  0
  190.6530  176.2460  146.8580 N   0  0  0  0  0  2  0  0  0  0  0  0
  188.5510  178.2690  141.6250 N   0  0  0  0  0  0  0  0  0  0  0  0
  187.2360  178.4090  141.4650 N   0  0  0  0  0  0  0  0  0  0  0  0
  186.8370  177.0960  143.3990 C   0  0  0  0  0  3  0  0  0  0  0  0
  188.2140  176.9420  143.5760 C   0  0  0  0  0  0  0  0  0  0  0  0
  186.3420  177.8490  142.3300 C   0  0  0  0  0  0  0  0  0  0  0  0
  189.0730  177.5580  142.6580 C   0  0  0  0  0  3  0  0  0  0  0  0
  182.1650  178.5630  141.5490 C   0  0  0  0  0  0  0  0  0  0  0  0
  183.9770  178.4330  143.1570 C   0  0  0  0  0  0  0  0  0  0  0  0
  184.3820  177.9550  140.8140 C   0  0  0  0  0  3  0  0  0  0  0  0
  183.0380  178.2000  140.5270 C   0  0  0  0  0  3  0  0  0  0  0  0
  184.3980  178.5730  144.5130 N   0  0  0  0  0  1  0  0  0  0  0  0
  182.6310  178.6730  142.8580 C   0  0  0  0  0  3  0  0  0  0  0  0
  184.8800  178.0700  142.1230 C   0  0  0  0  0  0  0  0  0  0  0  0
  180.8010  178.8390  141.2570 N   0  0  0  0  0  1  0  0  0  0  0  0
  192.4900  175.2660  145.4980 C   0  0  2  0  0  3  0  0  0  0  0  0
  194.4710  175.9670  146.4060 C   0  0  0  0  0  1  0  0  0  0  0  0
  193.6530  174.8510  146.1820 O   0  0  0  0  0  0  0  0  0  0  0  0
  192.6110  176.6850  144.9290 C   0  0  0  0  0  2  0  0  0  0  0  0
  192.5000  176.6510  143.4850 N   0  0  0  0  0  2  0  0  0  0  0  0
  193.3610  175.7020  143.0510 O   0  0  0  0  0  0  0  0  0  0  0  0
  194.3840  176.4180  142.4310 C   0  0  0  0  0  2  0  0  0  0  0  0
  195.7030  175.9400  142.9280 C   0  0  0  0  0  0  0  0  0  0  0  0
  196.6690  176.7420  143.0310 O   0  0  0  0  0  0  0  0  0  0  0  0
  195.8530  174.6140  143.3140 O   0  0  0  0  0  1  0  0  0  0  0  0
  190.6450  172.9760  144.7720 C   0  0  0  0  0  2  0  0  0  0  0  0
  190.3970  173.0080  143.2710 C   0  0  1  0  0  3  0  0  0  0  0  0
  192.6230  172.4810  141.9840 N   0  0  0  0  0  0  0  0  0  0  0  0
  191.6410  172.7150  142.5510 C   0  0  0  0  0  0  0  0  0  0  0  0
  189.3990  172.0080  142.9270 N   0  0  0  0  0  2  0  0  0  0  0  0
  188.8510  172.3600  141.6280 C   0  0  0  0  0  2  0  0  0  0  0  0
  188.2880  173.6980  141.6760 N   0  0  0  0  0  1  0  0  0  0  0  0
  1  4  1  0  0  0  0
  2  1  2  0  0  0  0
  2  5  1  0  0  0  0
  4  3  1  0  0  0  0
  5 32  1  6  0  0  0
  5  6  1  0  0  0  0
  6 22  1  6  0  0  0
  6  7  1  0  0  0  0
  7  3  1  0  0  0  0
  8 13  1  0  0  0  0
  9  8  2  0  0  0  0
  9 12  1  0  0  0  0
 10 11  1  0  0  0  0
 11  1  1  0  0  0  0
 12 10  2  0  0  0  0
 13 11  2  0  0  0  0
 14 19  1  0  0  0  0
 15 18  1  0  0  0  0
 16 20  2  0  0  0  0
 17 16  1  0  0  0  0
 17 14  2  0  0  0  0
 19 15  2  0  0  0  0
 20 12  1  0  0  0  0
 20 15  1  0  0  0  0
 21 14  1  0  0  0  0
 22 25  1  1  0  0  0
 22 24  1  0  0  0  0
 24 23  1  0  0  0  0
 26 25  1  0  0  0  0
 27 26  1  0  0  0  0
 28 29  1  0  0  0  0
 28 27  1  0  0  0  0
 29 30  2  0  0  0  0
 29 31  1  0  0  0  0
 33 35  1  6  0  0  0
 33 32  1  0  0  0  0
 34 35  3  0  0  0  0
 36 33  1  0  0  0  0
 37 38  1  0  0  0  0
 37 36  1  0  0  0  0
M  END
>  <MODEL>
7

>  <REMARK>
 VINA RESULT:      -5.5      2.609      8.212
  Name = 
  14 active torsions:
  status: ('A' for Active; 'I' for Inactive)
    1  A    between atoms: N_3  and  C_7
    2  A    between atoms: N_3  and  C_36
    3  A    between atoms: C_5  and  C_6
    4  A    between atoms: C_5  and  O_27
    5  A    between atoms: C_8  and  C_9
    6  A    between atoms: C_8  and  N_37
    7  A    between atoms: C_9  and  O_19
    8  A    between atoms: C_9  and  C_29
    9  A    between atoms: C_12  and  C_36
   10  A    between atoms: C_16  and  C_30
   11  A    between atoms: C_22  and  C_28
   12  A    between atoms: C_22  and  C_36
   13  A    between atoms: O_27  and  N_37
   14  A    between atoms: C_33  and  C_34
                            x       y       z     vdW  Elec       q    Type
                         _______ _______ _______ _____ _____    ______ ____

>  <TORSDO>
F 14

$$$$
=
 OpenBabel11042416253D

 38 40  0  0  1  0  0  0  0  0999 V2000
  189.1910  175.4100  142.8940 C   0  0  0  0  0  0  0  0  0  0  0  0
  187.9860  175.6670  143.3280 N   0  0  0  0  0  0  0  0  0  0  0  0
  189.9710  177.8790  143.1410 C   0  0  0  0  0  2  0  0  0  0  0  0
  190.1810  176.5000  142.5000 C   0  0  0  0  0  2  0  0  0  0  0  0
  187.4240  177.0020  143.5170 C   0  0  2  0  0  3  0  0  0  0  0  0
  188.1250  177.7480  144.6850 C   0  0  2  0  0  3  0  0  0  0  0  0
  189.5940  177.7310  144.5410 N   0  0  0  0  0  2  0  0  0  0  0  0
  190.1620  171.8800  143.6830 N   0  0  0  0  0  0  0  0  0  0  0  0
  190.3450  171.3620  142.4690 N   0  0  0  0  0  0  0  0  0  0  0  0
  189.7960  173.4410  141.4710 C   0  0  0  0  0  3  0  0  0  0  0  0
  189.5990  173.9950  142.7390 C   0  0  0  0  0  0  0  0  0  0  0  0
  190.1830  172.1050  141.3370 C   0  0  0  0  0  0  0  0  0  0  0  0
  189.7990  173.1780  143.8570 C   0  0  0  0  0  3  0  0  0  0  0  0
  191.1180  170.3420  137.5170 C   0  0  0  0  0  0  0  0  0  0  0  0
  189.5520  171.5780  138.8990 C   0  0  0  0  0  0  0  0  0  0  0  0
  191.6530  170.7970  139.8270 C   0  0  0  0  0  3  0  0  0  0  0  0
  191.9930  170.2340  138.5960 C   0  0  0  0  0  3  0  0  0  0  0  0
  188.3000  172.2540  138.9910 N   0  0  0  0  0  1  0  0  0  0  0  0
  189.9020  171.0060  137.6700 C   0  0  0  0  0  3  0  0  0  0  0  0
  190.4380  171.4810  140.0050 C   0  0  0  0  0  0  0  0  0  0  0  0
  191.4720  169.7920  136.2550 N   0  0  0  0  0  1  0  0  0  0  0  0
  187.7090  177.1790  146.0660 C   0  0  2  0  0  3  0  0  0  0  0  0
  185.7570  177.2430  147.2620 C   0  0  0  0  0  1  0  0  0  0  0  0
  186.8120  178.0200  146.7600 O   0  0  0  0  0  0  0  0  0  0  0  0
  188.8700  176.6980  146.9440 C   0  0  0  0  0  2  0  0  0  0  0  0
  188.9130  175.2490  146.9570 N   0  0  0  0  0  2  0  0  0  0  0  0
  190.0890  174.9000  147.5240 O   0  0  0  0  0  0  0  0  0  0  0  0
  190.9160  176.0040  147.3190 C   0  0  0  0  0  2  0  0  0  0  0  0
  192.2120  175.5600  146.7410 C   0  0  0  0  0  0  0  0  0  0  0  0
  192.2870  174.4690  146.1160 O   0  0  0  0  0  0  0  0  0  0  0  0
  193.3330  176.3730  146.8580 O   0  0  0  0  0  1  0  0  0  0  0  0
  185.9070  176.9300  143.6440 C   0  0  0  0  0  2  0  0  0  0  0  0
  185.2450  178.0730  142.8880 C   0  0  1  0  0  3  0  0  0  0  0  0
  185.0210  180.1710  144.4500 N   0  0  0  0  0  0  0  0  0  0  0  0
  185.1180  179.2450  143.7610 C   0  0  0  0  0  0  0  0  0  0  0  0
  186.0590  178.4210  141.7340 N   0  0  0  0  0  2  0  0  0  0  0  0
  185.3860  177.9140  140.5500 C   0  0  0  0  0  2  0  0  0  0  0  0
  184.0160  178.3930  140.5180 N   0  0  0  0  0  1  0  0  0  0  0  0
  1  2  2  0  0  0  0
  2  5  1  0  0  0  0
  3  7  1  0  0  0  0
  4  1  1  0  0  0  0
  4  3  1  0  0  0  0
  5 32  1  1  0  0  0
  5  6  1  0  0  0  0
  6 22  1  1  0  0  0
  7  6  1  0  0  0  0
  8 13  1  0  0  0  0
  9  8  2  0  0  0  0
 10 11  1  0  0  0  0
 11  1  1  0  0  0  0
 11 13  2  0  0  0  0
 12 10  2  0  0  0  0
 12  9  1  0  0  0  0
 14 19  2  0  0  0  0
 14 17  1  0  0  0  0
 15 18  1  0  0  0  0
 15 20  2  0  0  0  0
 16 20  1  0  0  0  0
 17 16  2  0  0  0  0
 19 15  1  0  0  0  0
 20 12  1  0  0  0  0
 21 14  1  0  0  0  0
 22 24  1  0  0  0  0
 22 25  1  1  0  0  0
 24 23  1  0  0  0  0
 25 26  1  0  0  0  0
 26 27  1  0  0  0  0
 28 27  1  0  0  0  0
 29 31  1  0  0  0  0
 29 28  1  0  0  0  0
 30 29  2  0  0  0  0
 33 32  1  1  0  0  0
 33 35  1  0  0  0  0
 35 34  3  0  0  0  0
 36 33  1  0  0  0  0
 37 36  1  0  0  0  0
 38 37  1  0  0  0  0
M  END
>  <MODEL>
8

>  <REMARK>
 VINA RESULT:      -5.5      2.598      3.851
  Name = 
  14 active torsions:
  status: ('A' for Active; 'I' for Inactive)
    1  A    between atoms: N_3  and  C_7
    2  A    between atoms: N_3  and  C_36
    3  A    between atoms: C_5  and  C_6
    4  A    between atoms: C_5  and  O_27
    5  A    between atoms: C_8  and  C_9
    6  A    between atoms: C_8  and  N_37
    7  A    between atoms: C_9  and  O_19
    8  A    between atoms: C_9  and  C_29
    9  A    between atoms: C_12  and  C_36
   10  A    between atoms: C_16  and  C_30
   11  A    between atoms: C_22  and  C_28
   12  A    between atoms: C_22  and  C_36
   13  A    between atoms: O_27  and  N_37
   14  A    between atoms: C_33  and  C_34
                            x       y       z     vdW  Elec       q    Type
                         _______ _______ _______ _____ _____    ______ ____

>  <TORSDO>
F 14

$$$$
=
 OpenBabel11042416253D

 38 40  0  0  1  0  0  0  0  0999 V2000
  191.2090  174.7240  142.2360 C   0  0  0  0  0  0  0  0  0  0  0  0
  192.4700  174.4700  142.0080 N   0  0  0  0  0  0  0  0  0  0  0  0
  190.4390  172.3520  141.4990 C   0  0  0  0  0  2  0  0  0  0  0  0
  190.0800  173.8230  141.7510 C   0  0  0  0  0  2  0  0  0  0  0  0
  192.9790  173.3020  141.2920 C   0  0  2  0  0  3  0  0  0  0  0  0
  192.7460  171.9980  142.1020 C   0  0  2  0  0  3  0  0  0  0  0  0
  191.3410  171.8690  142.5370 N   0  0  0  0  0  2  0  0  0  0  0  0
  191.4630  178.1020  143.8340 N   0  0  0  0  0  0  0  0  0  0  0  0
  190.2280  178.2850  144.2980 N   0  0  0  0  0  0  0  0  0  0  0  0
  189.5690  176.1700  143.4540 C   0  0  0  0  0  3  0  0  0  0  0  0
  190.8610  175.9670  142.9620 C   0  0  0  0  0  0  0  0  0  0  0  0
  189.2510  177.3460  144.1390 C   0  0  0  0  0  0  0  0  0  0  0  0
  191.8150  176.9670  143.1750 C   0  0  0  0  0  3  0  0  0  0  0  0
  185.3590  177.8870  145.9080 C   0  0  0  0  0  0  0  0  0  0  0  0
  186.8080  178.1380  143.9790 C   0  0  0  0  0  0  0  0  0  0  0  0
  187.6730  177.2120  146.0480 C   0  0  0  0  0  3  0  0  0  0  0  0
  186.4180  177.3560  146.6420 C   0  0  0  0  0  3  0  0  0  0  0  0
  186.9450  178.5480  142.6200 N   0  0  0  0  0  1  0  0  0  0  0  0
  185.5550  178.2810  144.5860 C   0  0  0  0  0  3  0  0  0  0  0  0
  187.8950  177.5910  144.7130 C   0  0  0  0  0  0  0  0  0  0  0  0
  184.0730  178.0110  146.5020 N   0  0  0  0  0  1  0  0  0  0  0  0
  193.7020  171.8950  143.3180 C   0  0  2  0  0  3  0  0  0  0  0  0
  195.7490  170.8810  143.1590 C   0  0  0  0  0  1  0  0  0  0  0  0
  194.3820  170.6590  143.3810 O   0  0  0  0  0  0  0  0  0  0  0  0
  193.0840  172.3000  144.6620 C   0  0  0  0  0  2  0  0  0  0  0  0
  194.0150  173.1270  145.4040 N   0  0  0  0  0  2  0  0  0  0  0  0
  193.8130  174.4010  144.9970 O   0  0  0  0  0  0  0  0  0  0  0  0
  194.6940  175.1570  145.7700 C   0  0  0  0  0  2  0  0  0  0  0  0
  194.0450  176.4370  146.1610 C   0  0  0  0  0  0  0  0  0  0  0  0
  194.5660  177.5370  145.8360 O   0  0  0  0  0  0  0  0  0  0  0  0
  192.8410  176.4150  146.8540 O   0  0  0  0  0  1  0  0  0  0  0  0
  194.4260  173.5240  140.8690 C   0  0  0  0  0  2  0  0  0  0  0  0
  194.9570  174.8390  141.4210 C   0  0  1  0  0  3  0  0  0  0  0  0
  196.9820  174.3820  143.0270 N   0  0  0  0  0  0  0  0  0  0  0  0
  196.0890  174.5850  142.3190 C   0  0  0  0  0  0  0  0  0  0  0  0
  195.3990  175.6790  140.3190 N   0  0  0  0  0  2  0  0  0  0  0  0
  196.0130  174.8150  139.3240 C   0  0  0  0  0  2  0  0  0  0  0  0
  197.3320  175.3170  138.9840 N   0  0  0  0  0  1  0  0  0  0  0  0
  1 11  1  0  0  0  0
  2  1  2  0  0  0  0
  3  4  1  0  0  0  0
  3  7  1  0  0  0  0
  4  1  1  0  0  0  0
  5 32  1  1  0  0  0
  5  2  1  0  0  0  0
  5  6  1  0  0  0  0
  6  7  1  0  0  0  0
  6 22  1  1  0  0  0
  8  9  1  0  0  0  0
 10 12  1  0  0  0  0
 11 13  1  0  0  0  0
 11 10  2  0  0  0  0
 12  9  2  0  0  0  0
 12 20  1  0  0  0  0
 13  8  2  0  0  0  0
 14 21  1  0  0  0  0
 14 17  1  0  0  0  0
 15 19  1  0  0  0  0
 15 20  2  0  0  0  0
 16 17  2  0  0  0  0
 18 15  1  0  0  0  0
 19 14  2  0  0  0  0
 20 16  1  0  0  0  0
 22 24  1  0  0  0  0
 22 25  1  1  0  0  0
 23 24  1  0  0  0  0
 25 26  1  0  0  0  0
 27 26  1  0  0  0  0
 27 28  1  0  0  0  0
 28 29  1  0  0  0  0
 29 31  1  0  0  0  0
 30 29  2  0  0  0  0
 33 32  1  6  0  0  0
 33 35  1  0  0  0  0
 35 34  3  0  0  0  0
 36 33  1  0  0  0  0
 37 36  1  0  0  0  0
 38 37  1  0  0  0  0
M  END
>  <MODEL>
9

>  <REMARK>
 VINA RESULT:      -5.5      2.252      8.294
  Name = 
  14 active torsions:
  status: ('A' for Active; 'I' for Inactive)
    1  A    between atoms: N_3  and  C_7
    2  A    between atoms: N_3  and  C_36
    3  A    between atoms: C_5  and  C_6
    4  A    between atoms: C_5  and  O_27
    5  A    between atoms: C_8  and  C_9
    6  A    between atoms: C_8  and  N_37
    7  A    between atoms: C_9  and  O_19
    8  A    between atoms: C_9  and  C_29
    9  A    between atoms: C_12  and  C_36
   10  A    between atoms: C_16  and  C_30
   11  A    between atoms: C_22  and  C_28
   12  A    between atoms: C_22  and  C_36
   13  A    between atoms: O_27  and  N_37
   14  A    between atoms: C_33  and  C_34
                            x       y       z     vdW  Elec       q    Type
                         _______ _______ _______ _____ _____    ______ ____

>  <TORSDO>
F 14

$$$$
