=
 OpenBabel11042418513D

 26 30  0  0  1  0  0  0  0  0999 V2000
  189.2380  175.8630  142.6400 C   0  0  1  0  0  3  0  0  0  0  0  0
  191.4560  177.2730  142.8510 C   0  0  0  0  0  1  0  0  0  0  0  0
  187.8800  176.1880  143.2430 C   0  0  1  0  0  3  0  0  0  0  0  0
  189.5480  177.4710  144.4730 C   0  0  1  0  0  3  0  0  0  0  0  0
  188.1440  177.1090  144.3430 N   0  0  0  0  0  0  0  0  0  0  0  0
  190.3570  176.2880  144.9890 C   0  0  0  0  0  2  0  0  0  0  0  0
  190.2820  176.5720  143.5010 C   0  0  1  0  0  0  0  0  0  0  0  0
  185.2200  178.2400  147.2120 C   0  0  0  0  0  0  0  0  0  0  0  0
  186.8180  176.6290  146.3680 C   0  0  0  0  0  3  0  0  0  0  0  0
  184.2880  178.6000  148.1270 F   0  0  0  0  0  0  0  0  0  0  0  0
  185.5450  179.1080  146.1660 C   0  0  0  0  0  3  0  0  0  0  0  0
  185.8560  177.0000  147.3120 C   0  0  0  0  0  3  0  0  0  0  0  0
  187.1530  177.4930  145.3140 C   0  0  0  0  0  0  0  0  0  0  0  0
  186.5060  178.7370  145.2220 C   0  0  0  0  0  3  0  0  0  0  0  0
  187.5040  177.0990  140.9440 C   0  0  0  0  0  3  0  0  0  0  0  0
  186.9910  176.8140  142.2110 C   0  0  0  0  0  0  0  0  0  0  0  0
  186.7140  177.6760  139.9980 N   0  0  0  0  0  0  0  0  0  0  0  0
  184.8630  177.7300  141.5080 C   0  0  0  0  0  3  0  0  0  0  0  0
  185.6570  177.1400  142.4910 C   0  0  0  0  0  3  0  0  0  0  0  0
  185.4150  177.9930  140.2530 C   0  0  0  0  0  3  0  0  0  0  0  0
  190.0990  173.7290  141.5580 C   0  0  0  0  0  3  0  0  0  0  0  0
  189.4680  174.3880  142.5950 C   0  0  0  0  0  0  0  0  0  0  0  0
  189.4560  172.3340  143.2090 C   0  0  0  0  0  3  0  0  0  0  0  0
  190.6050  171.3160  141.2570 N   0  0  0  0  0  1  0  0  0  0  0  0
  190.0730  172.4180  141.9810 C   0  0  0  0  0  0  0  0  0  0  0  0
  189.1050  173.5530  143.5440 O   0  0  0  0  0  0  0  0  0  0  0  0
  1 22  1  1  0  0  0
  1  3  1  0  0  0  0
  1  7  1  0  0  0  0
  3 16  1  6  0  0  0
  3  5  1  0  0  0  0
  4  6  1  1  0  0  0
  5  4  1  0  0  0  0
  5 13  1  0  0  0  0
  7  2  1  6  0  0  0
  7  4  1  0  0  0  0
  7  6  1  0  0  0  0
  8 12  1  0  0  0  0
  8 10  1  0  0  0  0
  9 12  2  0  0  0  0
 11  8  2  0  0  0  0
 13  9  1  0  0  0  0
 14 13  2  0  0  0  0
 14 11  1  0  0  0  0
 15 16  1  0  0  0  0
 16 19  2  0  0  0  0
 17 20  1  0  0  0  0
 17 15  2  0  0  0  0
 18 19  1  0  0  0  0
 20 18  2  0  0  0  0
 21 25  1  0  0  0  0
 21 22  2  0  0  0  0
 22 26  1  0  0  0  0
 23 26  1  0  0  0  0
 24 25  1  0  0  0  0
 25 23  2  0  0  0  0
M  END
>  <MODEL>
1

>  <REMARK>
 VINA RESULT:      -7.5      0.000      0.000
  Name = 
  3 active torsions:
  status: ('A' for Active; 'I' for Inactive)
    1  A    between atoms: C_2  and  C_5
    2  A    between atoms: C_4  and  C_13
    3  A    between atoms: C_15  and  N_23
                            x       y       z     vdW  Elec       q    Type
                         _______ _______ _______ _____ _____    ______ ____

>  <TORSDO>
F 3

$$$$
=
 OpenBabel11042418513D

 26 30  0  0  1  0  0  0  0  0999 V2000
  190.3940  175.4390  144.3430 C   0  0  1  0  0  3  0  0  0  0  0  0
  192.4910  176.7270  145.2880 C   0  0  0  0  0  1  0  0  0  0  0  0
  188.9320  175.8420  144.4710 C   0  0  1  0  0  3  0  0  0  0  0  0
  190.1700  177.0380  146.1970 C   0  0  1  0  0  3  0  0  0  0  0  0
  188.8690  176.7530  145.6080 N   0  0  0  0  0  0  0  0  0  0  0  0
  190.6990  175.8150  146.9340 C   0  0  0  0  0  2  0  0  0  0  0  0
  191.1330  176.0950  145.5080 C   0  0  1  0  0  0  0  0  0  0  0  0
  185.2320  178.0640  147.3710 C   0  0  0  0  0  0  0  0  0  0  0  0
  187.6490  178.1210  147.2600 C   0  0  0  0  0  3  0  0  0  0  0  0
  184.0720  178.4830  147.9320 F   0  0  0  0  0  0  0  0  0  0  0  0
  185.2060  177.1430  146.3200 C   0  0  0  0  0  3  0  0  0  0  0  0
  186.4530  178.5530  147.8400 C   0  0  0  0  0  3  0  0  0  0  0  0
  187.6360  177.1960  146.2040 C   0  0  0  0  0  0  0  0  0  0  0  0
  186.4030  176.7110  145.7400 C   0  0  0  0  0  3  0  0  0  0  0  0
  187.5300  175.8680  142.3990 C   0  0  0  0  0  3  0  0  0  0  0  0
  188.4660  176.5100  143.2120 C   0  0  0  0  0  0  0  0  0  0  0  0
  187.1040  176.4560  141.2480 N   0  0  0  0  0  0  0  0  0  0  0  0
  188.5120  178.3470  141.6350 C   0  0  0  0  0  3  0  0  0  0  0  0
  188.9620  177.7600  142.8180 C   0  0  0  0  0  3  0  0  0  0  0  0
  187.5710  177.6720  140.8550 C   0  0  0  0  0  3  0  0  0  0  0  0
  191.7260  173.2890  144.0800 C   0  0  0  0  0  3  0  0  0  0  0  0
  190.5460  173.9540  144.3570 C   0  0  0  0  0  0  0  0  0  0  0  0
  190.0330  171.8840  144.5780 C   0  0  0  0  0  3  0  0  0  0  0  0
  192.2310  170.8580  144.0470 N   0  0  0  0  0  1  0  0  0  0  0  0
  191.3620  171.9690  144.2280 C   0  0  0  0  0  0  0  0  0  0  0  0
  189.5770  173.1130  144.6450 O   0  0  0  0  0  0  0  0  0  0  0  0
  1 22  1  1  0  0  0
  1  3  1  0  0  0  0
  1  7  1  0  0  0  0
  3 16  1  6  0  0  0
  3  5  1  0  0  0  0
  4  6  1  1  0  0  0
  5  4  1  0  0  0  0
  5 13  1  0  0  0  0
  7  2  1  6  0  0  0
  7  4  1  0  0  0  0
  7  6  1  0  0  0  0
  8 12  1  0  0  0  0
  8 10  1  0  0  0  0
  9 12  2  0  0  0  0
 11  8  2  0  0  0  0
 13  9  1  0  0  0  0
 14 13  2  0  0  0  0
 14 11  1  0  0  0  0
 15 16  1  0  0  0  0
 17 15  2  0  0  0  0
 18 19  1  0  0  0  0
 19 16  2  0  0  0  0
 20 17  1  0  0  0  0
 20 18  2  0  0  0  0
 21 25  1  0  0  0  0
 21 22  2  0  0  0  0
 22 26  1  0  0  0  0
 23 26  1  0  0  0  0
 24 25  1  0  0  0  0
 25 23  2  0  0  0  0
M  END
>  <MODEL>
2

>  <REMARK>
 VINA RESULT:      -7.4      1.794      2.161
  Name = 
  3 active torsions:
  status: ('A' for Active; 'I' for Inactive)
    1  A    between atoms: C_2  and  C_5
    2  A    between atoms: C_4  and  C_13
    3  A    between atoms: C_15  and  N_23
                            x       y       z     vdW  Elec       q    Type
                         _______ _______ _______ _____ _____    ______ ____

>  <TORSDO>
F 3

$$$$
=
 OpenBabel11042418513D

 26 30  0  0  1  0  0  0  0  0999 V2000
  187.4730  176.0520  143.8160 C   0  0  1  0  0  3  0  0  0  0  0  0
  185.9700  176.5070  145.9340 C   0  0  0  0  0  1  0  0  0  0  0  0
  188.9700  175.7850  143.7910 C   0  0  1  0  0  3  0  0  0  0  0  0
  188.4580  176.8520  145.9210 C   0  0  1  0  0  3  0  0  0  0  0  0
  189.4900  176.3180  145.0450 N   0  0  0  0  0  0  0  0  0  0  0  0
  187.8970  178.1500  145.3550 C   0  0  0  0  0  2  0  0  0  0  0  0
  187.1880  176.8340  145.0970 C   0  0  1  0  0  0  0  0  0  0  0  0
  193.6350  176.7510  145.8750 C   0  0  0  0  0  0  0  0  0  0  0  0
  191.3880  176.2460  146.6210 C   0  0  0  0  0  3  0  0  0  0  0  0
  194.9560  176.8880  146.1400 F   0  0  0  0  0  0  0  0  0  0  0  0
  193.1550  176.9720  144.5810 C   0  0  0  0  0  3  0  0  0  0  0  0
  192.7520  176.3880  146.8940 C   0  0  0  0  0  3  0  0  0  0  0  0
  190.8950  176.4660  145.3250 C   0  0  0  0  0  0  0  0  0  0  0  0
  191.7920  176.8300  144.3080 C   0  0  0  0  0  3  0  0  0  0  0  0
  189.0440  173.6760  142.4470 C   0  0  0  0  0  3  0  0  0  0  0  0
  189.2320  174.3130  143.6760 C   0  0  0  0  0  0  0  0  0  0  0  0
  189.2680  172.3390  142.3280 N   0  0  0  0  0  0  0  0  0  0  0  0
  189.8700  172.1840  144.6350 C   0  0  0  0  0  3  0  0  0  0  0  0
  189.6450  173.5530  144.7780 C   0  0  0  0  0  3  0  0  0  0  0  0
  189.6750  171.5880  143.3880 C   0  0  0  0  0  3  0  0  0  0  0  0
  185.7440  177.2230  142.3640 C   0  0  0  0  0  3  0  0  0  0  0  0
  187.0400  176.8050  142.6010 C   0  0  0  0  0  0  0  0  0  0  0  0
  187.1620  177.8140  140.7130 C   0  0  0  0  0  3  0  0  0  0  0  0
  184.7850  178.4820  140.4500 N   0  0  0  0  0  1  0  0  0  0  0  0
  185.8580  177.8630  141.1500 C   0  0  0  0  0  0  0  0  0  0  0  0
  187.8450  177.1620  141.6260 O   0  0  0  0  0  0  0  0  0  0  0  0
  1 22  1  6  0  0  0
  1  7  1  0  0  0  0
  3 16  1  1  0  0  0
  3  1  1  0  0  0  0
  3  5  1  0  0  0  0
  4  6  1  6  0  0  0
  5 13  1  0  0  0  0
  5  4  1  0  0  0  0
  7  6  1  0  0  0  0
  7  4  1  0  0  0  0
  7  2  1  1  0  0  0
  8 10  1  0  0  0  0
  8 12  1  0  0  0  0
  9 12  2  0  0  0  0
 11  8  2  0  0  0  0
 13  9  1  0  0  0  0
 14 11  1  0  0  0  0
 14 13  2  0  0  0  0
 15 16  1  0  0  0  0
 16 19  2  0  0  0  0
 17 15  2  0  0  0  0
 17 20  1  0  0  0  0
 18 19  1  0  0  0  0
 20 18  2  0  0  0  0
 21 22  2  0  0  0  0
 23 25  2  0  0  0  0
 23 26  1  0  0  0  0
 24 25  1  0  0  0  0
 25 21  1  0  0  0  0
 26 22  1  0  0  0  0
M  END
>  <MODEL>
3

>  <REMARK>
 VINA RESULT:      -7.3      2.785      5.975
  Name = 
  3 active torsions:
  status: ('A' for Active; 'I' for Inactive)
    1  A    between atoms: C_2  and  C_5
    2  A    between atoms: C_4  and  C_13
    3  A    between atoms: C_15  and  N_23
                            x       y       z     vdW  Elec       q    Type
                         _______ _______ _______ _____ _____    ______ ____

>  <TORSDO>
F 3

$$$$
=
 OpenBabel11042418513D

 26 30  0  0  1  0  0  0  0  0999 V2000
  187.7060  176.1470  144.7950 C   0  0  1  0  0  3  0  0  0  0  0  0
  186.7580  176.3580  147.2460 C   0  0  0  0  0  1  0  0  0  0  0  0
  189.1480  175.8840  144.3850 C   0  0  1  0  0  3  0  0  0  0  0  0
  189.1810  176.7020  146.6810 C   0  0  1  0  0  3  0  0  0  0  0  0
  189.9630  176.2710  145.5310 N   0  0  0  0  0  0  0  0  0  0  0  0
  188.5380  178.0560  146.4110 C   0  0  0  0  0  2  0  0  0  0  0  0
  187.7530  176.7780  146.1850 C   0  0  1  0  0  0  0  0  0  0  0  0
  194.1960  176.6110  145.3880 C   0  0  0  0  0  0  0  0  0  0  0  0
  192.0520  176.6220  144.2650 C   0  0  0  0  0  3  0  0  0  0  0  0
  195.5450  176.7200  145.3420 F   0  0  0  0  0  0  0  0  0  0  0  0
  193.5560  176.3760  146.6080 C   0  0  0  0  0  3  0  0  0  0  0  0
  193.4440  176.7340  144.2170 C   0  0  0  0  0  3  0  0  0  0  0  0
  191.3970  176.3860  145.4840 C   0  0  0  0  0  0  0  0  0  0  0  0
  192.1630  176.2630  146.6550 C   0  0  0  0  0  3  0  0  0  0  0  0
  189.1030  173.9960  142.7450 C   0  0  0  0  0  3  0  0  0  0  0  0
  189.3350  174.4350  144.0500 C   0  0  0  0  0  0  0  0  0  0  0  0
  189.2590  172.6830  142.4250 N   0  0  0  0  0  0  0  0  0  0  0  0
  189.8780  172.1590  144.6730 C   0  0  0  0  0  3  0  0  0  0  0  0
  189.7220  173.5010  145.0200 C   0  0  0  0  0  3  0  0  0  0  0  0
  189.6390  171.7640  143.3550 C   0  0  0  0  0  3  0  0  0  0  0  0
  185.6610  177.0110  143.5560 C   0  0  0  0  0  3  0  0  0  0  0  0
  187.0190  177.0330  143.8080 C   0  0  0  0  0  0  0  0  0  0  0  0
  186.7490  178.5520  142.3200 C   0  0  0  0  0  3  0  0  0  0  0  0
  184.2950  178.3730  141.9910 N   0  0  0  0  0  1  0  0  0  0  0  0
  185.5230  177.9930  142.6000 C   0  0  0  0  0  0  0  0  0  0  0  0
  187.6290  177.9390  143.0770 O   0  0  0  0  0  0  0  0  0  0  0  0
  1 22  1  6  0  0  0
  1  7  1  0  0  0  0
  3 16  1  1  0  0  0
  3  1  1  0  0  0  0
  3  5  1  0  0  0  0
  4  6  1  6  0  0  0
  5  4  1  0  0  0  0
  7  6  1  0  0  0  0
  7  4  1  0  0  0  0
  7  2  1  1  0  0  0
  8 11  1  0  0  0  0
  9 13  2  0  0  0  0
 10  8  1  0  0  0  0
 11 14  2  0  0  0  0
 12  9  1  0  0  0  0
 12  8  2  0  0  0  0
 13  5  1  0  0  0  0
 13 14  1  0  0  0  0
 15 16  1  0  0  0  0
 16 19  2  0  0  0  0
 17 15  2  0  0  0  0
 17 20  1  0  0  0  0
 18 19  1  0  0  0  0
 20 18  2  0  0  0  0
 21 22  2  0  0  0  0
 23 25  2  0  0  0  0
 23 26  1  0  0  0  0
 24 25  1  0  0  0  0
 25 21  1  0  0  0  0
 26 22  1  0  0  0  0
M  END
>  <MODEL>
4

>  <REMARK>
 VINA RESULT:      -7.2      3.129      6.312
  Name = 
  3 active torsions:
  status: ('A' for Active; 'I' for Inactive)
    1  A    between atoms: C_2  and  C_5
    2  A    between atoms: C_4  and  C_13
    3  A    between atoms: C_15  and  N_23
                            x       y       z     vdW  Elec       q    Type
                         _______ _______ _______ _____ _____    ______ ____

>  <TORSDO>
F 3

$$$$
=
 OpenBabel11042418513D

 26 30  0  0  1  0  0  0  0  0999 V2000
  188.2950  177.1990  144.3380 C   0  0  1  0  0  3  0  0  0  0  0  0
  187.5500  178.4550  142.1430 C   0  0  0  0  0  1  0  0  0  0  0  0
  189.0960  175.9090  144.4330 C   0  0  1  0  0  3  0  0  0  0  0  0
  188.1570  176.0180  142.1870 C   0  0  1  0  0  3  0  0  0  0  0  0
  188.9370  175.2460  143.1440 N   0  0  0  0  0  0  0  0  0  0  0  0
  186.6900  176.0450  142.5950 C   0  0  0  0  0  2  0  0  0  0  0  0
  187.6100  177.1900  142.9730 C   0  0  1  0  0  0  0  0  0  0  0  0
  190.1720  171.2520  142.3860 C   0  0  0  0  0  0  0  0  0  0  0  0
  189.4340  173.4090  141.5730 C   0  0  0  0  0  3  0  0  0  0  0  0
  190.5660  169.9790  142.1430 F   0  0  0  0  0  0  0  0  0  0  0  0
  190.0970  171.7220  143.7000 C   0  0  0  0  0  3  0  0  0  0  0  0
  189.8400  172.0950  141.3230 C   0  0  0  0  0  3  0  0  0  0  0  0
  189.3550  173.8930  142.8890 C   0  0  0  0  0  0  0  0  0  0  0  0
  189.6910  173.0360  143.9490 C   0  0  0  0  0  3  0  0  0  0  0  0
  191.3000  176.8750  143.7480 C   0  0  0  0  0  3  0  0  0  0  0  0
  190.5370  176.2130  144.7130 C   0  0  0  0  0  0  0  0  0  0  0  0
  192.6120  177.1500  143.9810 N   0  0  0  0  0  0  0  0  0  0  0  0
  192.4940  176.1260  146.1370 C   0  0  0  0  0  3  0  0  0  0  0  0
  191.1480  175.8340  145.9160 C   0  0  0  0  0  3  0  0  0  0  0  0
  193.2180  176.7930  145.1470 C   0  0  0  0  0  3  0  0  0  0  0  0
  186.3330  178.2780  145.5430 C   0  0  0  0  0  3  0  0  0  0  0  0
  187.3070  177.3020  145.4530 C   0  0  0  0  0  0  0  0  0  0  0  0
  186.2680  176.8250  147.2670 C   0  0  0  0  0  3  0  0  0  0  0  0
  184.5870  178.6530  147.2690 N   0  0  0  0  0  1  0  0  0  0  0  0
  185.6880  177.9450  146.7140 C   0  0  0  0  0  0  0  0  0  0  0  0
  187.2460  176.4680  146.4680 O   0  0  0  0  0  0  0  0  0  0  0  0
  1  3  1  0  0  0  0
  1 22  1  1  0  0  0
  3 16  1  6  0  0  0
  4  6  1  1  0  0  0
  4  7  1  0  0  0  0
  4  5  1  0  0  0  0
  5  3  1  0  0  0  0
  6  7  1  0  0  0  0
  7  2  1  6  0  0  0
  7  1  1  0  0  0  0
  8 11  1  0  0  0  0
  9 13  2  0  0  0  0
 10  8  1  0  0  0  0
 11 14  2  0  0  0  0
 12  9  1  0  0  0  0
 12  8  2  0  0  0  0
 13  5  1  0  0  0  0
 13 14  1  0  0  0  0
 15 17  2  0  0  0  0
 15 16  1  0  0  0  0
 16 19  2  0  0  0  0
 17 20  1  0  0  0  0
 19 18  1  0  0  0  0
 20 18  2  0  0  0  0
 21 25  1  0  0  0  0
 22 21  2  0  0  0  0
 22 26  1  0  0  0  0
 25 23  2  0  0  0  0
 25 24  1  0  0  0  0
 26 23  1  0  0  0  0
M  END
>  <MODEL>
5

>  <REMARK>
 VINA RESULT:      -7.2      3.120      6.854
  Name = 
  3 active torsions:
  status: ('A' for Active; 'I' for Inactive)
    1  A    between atoms: C_2  and  C_5
    2  A    between atoms: C_4  and  C_13
    3  A    between atoms: C_15  and  N_23
                            x       y       z     vdW  Elec       q    Type
                         _______ _______ _______ _____ _____    ______ ____

>  <TORSDO>
F 3

$$$$
=
 OpenBabel11042418513D

 26 30  0  0  1  0  0  0  0  0999 V2000
  188.0030  177.3750  144.3950 C   0  0  1  0  0  3  0  0  0  0  0  0
  187.0630  178.6530  142.2890 C   0  0  0  0  0  1  0  0  0  0  0  0
  188.8500  176.1110  144.4010 C   0  0  1  0  0  3  0  0  0  0  0  0
  187.7510  176.2380  142.2300 C   0  0  1  0  0  3  0  0  0  0  0  0
  188.6210  175.4720  143.1100 N   0  0  0  0  0  0  0  0  0  0  0  0
  186.3160  176.2060  142.7400 C   0  0  0  0  0  2  0  0  0  0  0  0
  187.2230  177.3730  143.0810 C   0  0  1  0  0  0  0  0  0  0  0  0
  189.9290  171.5410  142.1690 C   0  0  0  0  0  0  0  0  0  0  0  0
  189.2500  173.7520  141.4560 C   0  0  0  0  0  3  0  0  0  0  0  0
  190.3470  170.2880  141.8690 F   0  0  0  0  0  0  0  0  0  0  0  0
  189.7470  171.9150  143.5030 C   0  0  0  0  0  3  0  0  0  0  0  0
  189.6810  172.4590  141.1460 C   0  0  0  0  0  3  0  0  0  0  0  0
  189.0640  174.1400  142.7930 C   0  0  0  0  0  0  0  0  0  0  0  0
  189.3170  173.2080  143.8130 C   0  0  0  0  0  3  0  0  0  0  0  0
  190.9690  176.0150  145.7280 C   0  0  0  0  0  3  0  0  0  0  0  0
  190.2970  176.4580  144.5870 C   0  0  0  0  0  0  0  0  0  0  0  0
  192.2800  176.3290  145.9170 N   0  0  0  0  0  0  0  0  0  0  0  0
  192.3350  177.5460  143.8610 C   0  0  0  0  0  3  0  0  0  0  0  0
  190.9910  177.2350  143.6500 C   0  0  0  0  0  3  0  0  0  0  0  0
  192.9700  177.0780  145.0130 C   0  0  0  0  0  3  0  0  0  0  0  0
  186.1240  178.3830  145.7800 C   0  0  0  0  0  3  0  0  0  0  0  0
  187.0930  177.4190  145.5780 C   0  0  0  0  0  0  0  0  0  0  0  0
  186.1840  176.8520  147.4350 C   0  0  0  0  0  3  0  0  0  0  0  0
  184.4990  178.6650  147.6380 N   0  0  0  0  0  1  0  0  0  0  0  0
  185.5630  177.9910  146.9760 C   0  0  0  0  0  0  0  0  0  0  0  0
  187.1070  176.5400  146.5550 O   0  0  0  0  0  0  0  0  0  0  0  0
  1  3  1  0  0  0  0
  1 22  1  1  0  0  0
  3 16  1  6  0  0  0
  4  6  1  1  0  0  0
  4  7  1  0  0  0  0
  4  5  1  0  0  0  0
  5  3  1  0  0  0  0
  6  7  1  0  0  0  0
  7  2  1  6  0  0  0
  7  1  1  0  0  0  0
  8 11  1  0  0  0  0
  9 13  2  0  0  0  0
 10  8  1  0  0  0  0
 11 14  2  0  0  0  0
 12  9  1  0  0  0  0
 12  8  2  0  0  0  0
 13  5  1  0  0  0  0
 13 14  1  0  0  0  0
 15 17  1  0  0  0  0
 16 15  2  0  0  0  0
 18 20  1  0  0  0  0
 19 18  2  0  0  0  0
 19 16  1  0  0  0  0
 20 17  2  0  0  0  0
 21 25  1  0  0  0  0
 22 21  2  0  0  0  0
 22 26  1  0  0  0  0
 25 23  2  0  0  0  0
 25 24  1  0  0  0  0
 26 23  1  0  0  0  0
M  END
>  <MODEL>
6

>  <REMARK>
 VINA RESULT:      -7.1      3.069      6.834
  Name = 
  3 active torsions:
  status: ('A' for Active; 'I' for Inactive)
    1  A    between atoms: C_2  and  C_5
    2  A    between atoms: C_4  and  C_13
    3  A    between atoms: C_15  and  N_23
                            x       y       z     vdW  Elec       q    Type
                         _______ _______ _______ _____ _____    ______ ____

>  <TORSDO>
F 3

$$$$
=
 OpenBabel11042418513D

 26 30  0  0  1  0  0  0  0  0999 V2000
  190.4580  174.3400  142.9480 C   0  0  1  0  0  3  0  0  0  0  0  0
  189.0570  172.2160  142.2560 C   0  0  0  0  0  1  0  0  0  0  0  0
  189.9300  175.6370  143.5420 C   0  0  1  0  0  3  0  0  0  0  0  0
  188.0520  174.5080  142.4750 C   0  0  1  0  0  3  0  0  0  0  0  0
  188.5150  175.6880  143.1900 N   0  0  0  0  0  0  0  0  0  0  0  0
  188.6210  174.4830  141.0630 C   0  0  0  0  0  2  0  0  0  0  0  0
  189.3020  173.7080  142.1750 C   0  0  1  0  0  0  0  0  0  0  0  0
  186.0860  179.1330  143.7310 C   0  0  0  0  0  0  0  0  0  0  0  0
  187.1070  177.1250  144.6190 C   0  0  0  0  0  3  0  0  0  0  0  0
  185.3130  180.2310  143.9040 F   0  0  0  0  0  0  0  0  0  0  0  0
  186.6640  178.8750  142.4850 C   0  0  0  0  0  3  0  0  0  0  0  0
  186.3080  178.2590  144.7970 C   0  0  0  0  0  3  0  0  0  0  0  0
  187.6920  176.8560  143.3720 C   0  0  0  0  0  0  0  0  0  0  0  0
  187.4630  177.7410  142.3060 C   0  0  0  0  0  3  0  0  0  0  0  0
  190.9740  176.5830  145.6090 C   0  0  0  0  0  3  0  0  0  0  0  0
  190.1200  175.6420  145.0290 C   0  0  0  0  0  0  0  0  0  0  0  0
  191.1660  176.5950  146.9570 N   0  0  0  0  0  0  0  0  0  0  0  0
  189.6840  174.7410  147.2330 C   0  0  0  0  0  3  0  0  0  0  0  0
  189.4760  174.7110  145.8540 C   0  0  0  0  0  3  0  0  0  0  0  0
  190.5420  175.7020  147.7720 C   0  0  0  0  0  3  0  0  0  0  0  0
  192.5930  175.5620  142.3060 C   0  0  0  0  0  3  0  0  0  0  0  0
  191.6380  174.5920  142.0690 C   0  0  0  0  0  0  0  0  0  0  0  0
  193.0120  174.3690  140.4380 C   0  0  0  0  0  3  0  0  0  0  0  0
  194.6290  176.1630  141.0150 N   0  0  0  0  0  1  0  0  0  0  0  0
  193.4550  175.3930  141.2440 C   0  0  0  0  0  0  0  0  0  0  0  0
  191.9070  173.9100  140.9770 O   0  0  0  0  0  0  0  0  0  0  0  0
  1 22  1  6  0  0  0
  1  3  1  0  0  0  0
  3 16  1  1  0  0  0
  4  6  1  6  0  0  0
  4  5  1  0  0  0  0
  5 13  1  0  0  0  0
  5  3  1  0  0  0  0
  6  7  1  0  0  0  0
  7  2  1  6  0  0  0
  7  4  1  0  0  0  0
  7  1  1  0  0  0  0
  8 10  1  0  0  0  0
  8 12  1  0  0  0  0
  9 12  2  0  0  0  0
 11  8  2  0  0  0  0
 13  9  1  0  0  0  0
 14 11  1  0  0  0  0
 14 13  2  0  0  0  0
 15 17  1  0  0  0  0
 16 15  2  0  0  0  0
 16 19  1  0  0  0  0
 17 20  2  0  0  0  0
 18 20  1  0  0  0  0
 19 18  2  0  0  0  0
 22 21  2  0  0  0  0
 23 26  1  0  0  0  0
 23 25  2  0  0  0  0
 24 25  1  0  0  0  0
 25 21  1  0  0  0  0
 26 22  1  0  0  0  0
M  END
>  <MODEL>
7

>  <REMARK>
 VINA RESULT:      -7.0      2.505      4.763
  Name = 
  3 active torsions:
  status: ('A' for Active; 'I' for Inactive)
    1  A    between atoms: C_2  and  C_5
    2  A    between atoms: C_4  and  C_13
    3  A    between atoms: C_15  and  N_23
                            x       y       z     vdW  Elec       q    Type
                         _______ _______ _______ _____ _____    ______ ____

>  <TORSDO>
F 3

$$$$
=
 OpenBabel11042418513D

 26 30  0  0  1  0  0  0  0  0999 V2000
  189.2380  175.2370  145.1100 C   0  0  1  0  0  3  0  0  0  0  0  0
  188.9390  174.5410  147.6360 C   0  0  0  0  0  1  0  0  0  0  0  0
  190.5230  175.2140  144.2950 C   0  0  1  0  0  3  0  0  0  0  0  0
  191.1540  175.1980  146.6490 C   0  0  1  0  0  3  0  0  0  0  0  0
  191.6100  175.2320  145.2670 N   0  0  0  0  0  0  0  0  0  0  0  0
  190.5070  176.5220  147.0300 C   0  0  0  0  0  2  0  0  0  0  0  0
  189.6510  175.3560  146.5760 C   0  0  1  0  0  0  0  0  0  0  0  0
  195.6820  175.8450  144.2180 C   0  0  0  0  0  0  0  0  0  0  0  0
  193.3280  176.0230  143.6810 C   0  0  0  0  0  3  0  0  0  0  0  0
  196.9800  176.0420  143.8830 F   0  0  0  0  0  0  0  0  0  0  0  0
  195.3580  175.2630  145.4460 C   0  0  0  0  0  3  0  0  0  0  0  0
  194.6670  176.2250  143.3360 C   0  0  0  0  0  3  0  0  0  0  0  0
  192.9900  175.4390  144.9130 C   0  0  0  0  0  0  0  0  0  0  0  0
  194.0180  175.0610  145.7920 C   0  0  0  0  0  3  0  0  0  0  0  0
  190.6030  174.1060  142.0540 C   0  0  0  0  0  3  0  0  0  0  0  0
  190.5750  173.9810  143.4450 C   0  0  0  0  0  0  0  0  0  0  0  0
  190.6410  172.9970  141.2660 N   0  0  0  0  0  0  0  0  0  0  0  0
  190.6190  171.5740  143.1860 C   0  0  0  0  0  3  0  0  0  0  0  0
  190.5790  172.6990  144.0100 C   0  0  0  0  0  3  0  0  0  0  0  0
  190.6510  171.7450  141.8000 C   0  0  0  0  0  3  0  0  0  0  0  0
  188.2510  176.8340  143.3950 C   0  0  0  0  0  3  0  0  0  0  0  0
  188.3550  176.3650  144.6910 C   0  0  0  0  0  0  0  0  0  0  0  0
  186.9190  177.9510  144.8320 C   0  0  0  0  0  3  0  0  0  0  0  0
  186.8630  178.6660  142.4540 N   0  0  0  0  0  1  0  0  0  0  0  0
  187.3270  177.8480  143.5210 C   0  0  0  0  0  0  0  0  0  0  0  0
  187.5680  177.0320  145.5070 O   0  0  0  0  0  0  0  0  0  0  0  0
  1 22  1  6  0  0  0
  1  7  1  0  0  0  0
  3 16  1  1  0  0  0
  3  1  1  0  0  0  0
  3  5  1  0  0  0  0
  4  6  1  1  0  0  0
  5  4  1  0  0  0  0
  7  4  1  0  0  0  0
  7  6  1  0  0  0  0
  7  2  1  1  0  0  0
  8 11  1  0  0  0  0
  9 13  2  0  0  0  0
 10  8  1  0  0  0  0
 11 14  2  0  0  0  0
 12  9  1  0  0  0  0
 12  8  2  0  0  0  0
 13  5  1  0  0  0  0
 13 14  1  0  0  0  0
 15 16  1  0  0  0  0
 16 19  2  0  0  0  0
 17 20  1  0  0  0  0
 17 15  2  0  0  0  0
 18 19  1  0  0  0  0
 20 18  2  0  0  0  0
 21 25  1  0  0  0  0
 21 22  2  0  0  0  0
 22 26  1  0  0  0  0
 23 26  1  0  0  0  0
 24 25  1  0  0  0  0
 25 23  2  0  0  0  0
M  END
>  <MODEL>
8

>  <REMARK>
 VINA RESULT:      -6.9      3.719      6.891
  Name = 
  3 active torsions:
  status: ('A' for Active; 'I' for Inactive)
    1  A    between atoms: C_2  and  C_5
    2  A    between atoms: C_4  and  C_13
    3  A    between atoms: C_15  and  N_23
                            x       y       z     vdW  Elec       q    Type
                         _______ _______ _______ _____ _____    ______ ____

>  <TORSDO>
F 3

$$$$
=
 OpenBabel11042418513D

 26 30  0  0  1  0  0  0  0  0999 V2000
  193.9020  174.2120  144.3340 C   0  0  1  0  0  3  0  0  0  0  0  0
  195.3870  176.3880  144.2390 C   0  0  0  0  0  1  0  0  0  0  0  0
  192.3950  174.1340  144.5300 C   0  0  1  0  0  3  0  0  0  0  0  0
  193.1180  176.3240  145.3160 C   0  0  1  0  0  3  0  0  0  0  0  0
  192.0090  175.3970  145.1490 N   0  0  0  0  0  0  0  0  0  0  0  0
  194.0630  175.8340  146.4050 C   0  0  0  0  0  2  0  0  0  0  0  0
  194.3560  175.5350  144.9470 C   0  0  1  0  0  0  0  0  0  0  0  0
  188.1530  176.1330  146.7760 C   0  0  0  0  0  0  0  0  0  0  0  0
  189.9850  176.7960  145.3380 C   0  0  0  0  0  3  0  0  0  0  0  0
  186.9230  176.3670  147.2930 F   0  0  0  0  0  0  0  0  0  0  0  0
  188.8580  174.9840  147.1440 C   0  0  0  0  0  3  0  0  0  0  0  0
  188.7160  177.0380  145.8730 C   0  0  0  0  0  3  0  0  0  0  0  0
  190.7030  175.6450  145.7010 C   0  0  0  0  0  0  0  0  0  0  0  0
  190.1270  174.7420  146.6090 C   0  0  0  0  0  3  0  0  0  0  0  0
  192.3350  174.3860  142.0410 C   0  0  0  0  0  3  0  0  0  0  0  0
  191.7100  173.9440  143.2100 C   0  0  0  0  0  0  0  0  0  0  0  0
  191.7220  174.2310  140.8360 N   0  0  0  0  0  0  0  0  0  0  0  0
  189.8340  173.1980  141.8730 C   0  0  0  0  0  3  0  0  0  0  0  0
  190.4440  173.3500  143.1180 C   0  0  0  0  0  3  0  0  0  0  0  0
  190.4960  173.6500  140.7300 C   0  0  0  0  0  3  0  0  0  0  0  0
  193.9570  171.8660  145.3130 C   0  0  0  0  0  3  0  0  0  0  0  0
  194.5880  173.0450  144.9640 C   0  0  0  0  0  0  0  0  0  0  0  0
  196.1630  171.8440  145.7850 C   0  0  0  0  0  3  0  0  0  0  0  0
  194.8690  169.8020  146.3520 N   0  0  0  0  0  1  0  0  0  0  0  0
  194.9920  171.1220  145.8360 C   0  0  0  0  0  0  0  0  0  0  0  0
  195.8710  173.0060  145.2480 O   0  0  0  0  0  0  0  0  0  0  0  0
  1  3  1  0  0  0  0
  1  7  1  0  0  0  0
  1 22  1  1  0  0  0
  3 16  1  6  0  0  0
  3  5  1  0  0  0  0
  4  6  1  1  0  0  0
  5  4  1  0  0  0  0
  5 13  1  0  0  0  0
  7  2  1  6  0  0  0
  7  4  1  0  0  0  0
  7  6  1  0  0  0  0
  8 11  1  0  0  0  0
  8 10  1  0  0  0  0
  9 13  2  0  0  0  0
  9 12  1  0  0  0  0
 12  8  2  0  0  0  0
 13 14  1  0  0  0  0
 14 11  2  0  0  0  0
 15 16  1  0  0  0  0
 17 15  2  0  0  0  0
 18 19  1  0  0  0  0
 19 16  2  0  0  0  0
 20 17  1  0  0  0  0
 20 18  2  0  0  0  0
 21 25  1  0  0  0  0
 22 26  1  0  0  0  0
 22 21  2  0  0  0  0
 23 25  2  0  0  0  0
 25 24  1  0  0  0  0
 26 23  1  0  0  0  0
M  END
>  <MODEL>
9

>  <REMARK>
 VINA RESULT:      -6.8      3.913      5.361
  Name = 
  3 active torsions:
  status: ('A' for Active; 'I' for Inactive)
    1  A    between atoms: C_2  and  C_5
    2  A    between atoms: C_4  and  C_13
    3  A    between atoms: C_15  and  N_23
                            x       y       z     vdW  Elec       q    Type
                         _______ _______ _______ _____ _____    ______ ____

>  <TORSDO>
F 3

$$$$
