=
 OpenBabel11042418083D

 40 42  0  0  1  0  0  0  0  0999 V2000
  192.2160  174.4140  146.3650 C   0  0  0  0  0  2  0  0  0  0  0  0
  191.9540  175.4380  147.4640 C   0  0  0  0  0  2  0  0  0  0  0  0
  190.6330  176.1090  147.2740 C   0  0  0  0  0  0  0  0  0  0  0  0
  190.4710  177.2510  147.6730 O   0  0  0  0  0  0  0  0  0  0  0  0
  189.5110  175.3470  146.6290 C   0  0  1  0  0  3  0  0  0  0  0  0
  188.8050  174.4260  147.6110 C   0  0  0  0  0  1  0  0  0  0  0  0
  185.0850  177.6040  146.4460 C   0  0  0  0  0  1  0  0  0  0  0  0
  186.6800  177.8310  144.5400 C   0  0  0  0  0  3  0  0  0  0  0  0
  188.5630  176.2290  145.8630 C   0  0  0  0  0  0  0  0  0  0  0  0
  187.9040  177.5450  143.9310 C   0  0  0  0  0  3  0  0  0  0  0  0
  186.3920  177.3150  145.8040 C   0  0  0  0  0  0  0  0  0  0  0  0
  188.8500  176.7360  144.5730 C   0  0  0  0  0  0  0  0  0  0  0  0
  187.3290  176.5150  146.4580 C   0  0  0  0  0  3  0  0  0  0  0  0
  190.1320  176.4840  143.9750 N   0  0  0  0  0  2  0  0  0  0  0  0
  190.4600  175.5870  142.9070 C   0  0  0  0  0  0  0  0  0  0  0  0
  191.6010  175.7310  142.3160 N   0  0  0  0  0  2  0  0  0  0  0  0
  190.0700  173.3710  141.1690 O   0  0  0  0  0  0  0  0  0  0  0  0
  189.5240  174.0850  142.6040 P   0  0  1  0  0  0  0  0  0  0  0  0
  189.7610  172.9090  143.9690 C   0  0  0  0  0  1  0  0  0  0  0  0
  188.0560  174.4070  142.4610 O   0  0  0  0  0  1  0  0  0  0  0  0
  193.4060  174.8110  145.4980 C   0  0  2  0  0  3  0  0  0  0  0  0
  195.3790  173.1940  145.2820 C   0  0  1  0  0  3  0  0  0  0  0  0
  194.4590  173.8910  143.3660 C   0  0  2  0  0  3  0  0  0  0  0  0
  196.2030  173.4510  143.6700 S   0  0  0  0  0  0  0  0  0  0  0  0
  193.9980  173.5830  144.7800 C   0  0  2  0  0  3  0  0  0  0  0  0
  193.9110  173.0410  140.7410 S   0  0  0  0  0  0  0  0  0  0  0  0
  191.7520  169.8410  141.7410 S   0  0  0  0  0  0  0  0  0  0  0  0
  193.1030  171.8550  142.7220 N   0  0  0  0  0  0  0  0  0  0  0  0
  193.8350  172.9410  142.3940 C   0  0  0  0  0  0  0  0  0  0  0  0
  192.6630  171.1880  141.6110 C   0  0  0  0  0  0  0  0  0  0  0  0
  193.0080  171.6900  140.3930 N   0  0  0  0  0  2  0  0  0  0  0  0
  195.3730  171.7550  145.7110 C   0  0  0  0  0  0  0  0  0  0  0  0
  196.5950  171.0420  145.9200 N   0  0  0  0  0  2  0  0  0  0  0  0
  194.2690  171.1630  145.8360 O   0  0  0  0  0  0  0  0  0  0  0  0
  196.6800  169.4150  147.5920 O   0  0  0  0  0  1  0  0  0  0  0  0
  196.6390  169.6170  146.2100 C   0  0  2  0  0  3  0  0  0  0  0  0
  197.8860  169.0230  145.5840 C   0  0  0  0  0  1  0  0  0  0  0  0
  194.4190  175.5740  146.3500 C   0  0  0  0  0  2  0  0  0  0  0  0
  193.5700  177.3230  144.7990 C   0  0  0  0  0  1  0  0  0  0  0  0
  194.6670  176.9640  145.7810 C   0  0  0  0  0  2  0  0  0  0  0  0
  1  2  1  0  0  0  0
  3  2  1  0  0  0  0
  3  4  2  0  0  0  0
  5  3  1  0  0  0  0
  5  6  1  1  0  0  0
  8 11  1  0  0  0  0
  9 13  1  0  0  0  0
  9  5  1  0  0  0  0
 10  8  2  0  0  0  0
 10 12  1  0  0  0  0
 11  7  1  0  0  0  0
 11 13  2  0  0  0  0
 12  9  2  0  0  0  0
 14 12  1  0  0  0  0
 15 14  1  0  0  0  0
 16 15  2  0  0  0  0
 17 18  2  0  0  0  0
 18 15  1  0  0  0  0
 18 19  1  1  0  0  0
 20 18  1  0  0  0  0
 21 38  1  1  0  0  0
 21  1  1  0  0  0  0
 22 32  1  6  0  0  0
 23 29  1  6  0  0  0
 23 24  1  0  0  0  0
 23 25  1  0  0  0  0
 24 22  1  0  0  0  0
 25 22  1  0  0  0  0
 25 21  1  1  0  0  0
 26 29  1  0  0  0  0
 29 28  2  0  0  0  0
 30 27  2  0  0  0  0
 30 28  1  0  0  0  0
 31 26  1  0  0  0  0
 31 30  1  0  0  0  0
 32 34  2  0  0  0  0
 32 33  1  0  0  0  0
 33 36  1  0  0  0  0
 36 37  1  6  0  0  0
 36 35  1  0  0  0  0
 39 40  1  0  0  0  0
 40 38  1  0  0  0  0
M  END
>  <MODEL>
1

>  <REMARK>
 VINA RESULT:      -6.4      0.000      0.000
  Name = 
  13 active torsions:
  status: ('A' for Active; 'I' for Inactive)
    1  A    between atoms: C_2  and  C_12
    2  A    between atoms: C_2  and  C_23
    3  A    between atoms: C_3  and  C_8
    4  A    between atoms: C_6  and  C_30
    5  A    between atoms: C_7  and  C_11
    6  A    between atoms: C_11  and  C_12
    7  A    between atoms: N_18  and  C_25
    8  A    between atoms: C_19  and  P_20
    9  A    between atoms: C_22  and  N_27
   10  A    between atoms: C_23  and  C_29
   11  A    between atoms: C_28  and  C_29
   12  A    between atoms: C_29  and  C_36
   13  A    between atoms: C_33  and  C_36
                            x       y       z     vdW  Elec       q    Type
                         _______ _______ _______ _____ _____    ______ ____

>  <TORSDO>
F 13

$$$$
=
 OpenBabel11042418083D

 40 42  0  0  1  0  0  0  0  0999 V2000
  191.4190  176.3420  145.0290 C   0  0  0  0  0  2  0  0  0  0  0  0
  191.3500  176.6590  146.5180 C   0  0  0  0  0  2  0  0  0  0  0  0
  189.9710  177.0690  146.9200 C   0  0  0  0  0  0  0  0  0  0  0  0
  189.8180  177.9870  147.7090 O   0  0  0  0  0  0  0  0  0  0  0  0
  188.7940  176.3120  146.3730 C   0  0  1  0  0  3  0  0  0  0  0  0
  188.4260  175.1200  147.2420 C   0  0  0  0  0  1  0  0  0  0  0  0
  184.3790  178.1020  147.7950 C   0  0  0  0  0  1  0  0  0  0  0  0
  185.3490  178.7770  145.5970 C   0  0  0  0  0  3  0  0  0  0  0  0
  187.6190  177.1970  146.0590 C   0  0  0  0  0  0  0  0  0  0  0  0
  186.3620  178.7140  144.6380 C   0  0  0  0  0  3  0  0  0  0  0  0
  185.4630  178.0500  146.7820 C   0  0  0  0  0  0  0  0  0  0  0  0
  187.4970  177.9190  144.8480 C   0  0  0  0  0  0  0  0  0  0  0  0
  186.5920  177.2610  147.0070 C   0  0  0  0  0  3  0  0  0  0  0  0
  188.5670  177.8940  143.8890 N   0  0  0  0  0  2  0  0  0  0  0  0
  188.4940  177.7040  142.4710 C   0  0  0  0  0  0  0  0  0  0  0  0
  189.5250  178.0180  141.7580 N   0  0  0  0  0  2  0  0  0  0  0  0
  186.6010  175.6120  142.8280 O   0  0  0  0  0  1  0  0  0  0  0  0
  187.1870  176.7380  141.7070 P   0  0  1  0  0  0  0  0  0  0  0  0
  185.8190  177.8220  141.1980 C   0  0  0  0  0  1  0  0  0  0  0  0
  187.7210  175.9980  140.5050 O   0  0  0  0  0  0  0  0  0  0  0  0
  192.5570  175.3760  144.7120 C   0  0  2  0  0  3  0  0  0  0  0  0
  190.5770  174.2580  143.5350 C   0  0  1  0  0  3  0  0  0  0  0  0
  191.8300  172.9360  144.8330 C   0  0  2  0  0  3  0  0  0  0  0  0
  190.0410  172.7990  144.4980 S   0  0  0  0  0  0  0  0  0  0  0  0
  192.0380  174.1470  143.9420 C   0  0  2  0  0  3  0  0  0  0  0  0
  193.9290  171.0670  144.9250 S   0  0  0  0  0  0  0  0  0  0  0  0
  192.8930  169.0590  141.6390 S   0  0  0  0  0  0  0  0  0  0  0  0
  192.2190  171.0660  143.1750 N   0  0  0  0  0  0  0  0  0  0  0  0
  192.5610  171.7520  144.2860 C   0  0  0  0  0  0  0  0  0  0  0  0
  193.0880  170.0370  142.9290 C   0  0  0  0  0  0  0  0  0  0  0  0
  194.1240  169.8620  143.7960 N   0  0  0  0  0  2  0  0  0  0  0  0
  190.4490  174.0580  142.0530 C   0  0  0  0  0  0  0  0  0  0  0  0
  189.4310  173.2150  141.5070 N   0  0  0  0  0  2  0  0  0  0  0  0
  191.2890  174.6040  141.2910 O   0  0  0  0  0  0  0  0  0  0  0  0
  188.0190  172.6450  139.7370 O   0  0  0  0  0  1  0  0  0  0  0  0
  189.3480  172.8900  140.0910 C   0  0  2  0  0  3  0  0  0  0  0  0
  190.1720  171.6460  139.8210 C   0  0  0  0  0  1  0  0  0  0  0  0
  193.2980  175.0280  146.0010 C   0  0  0  0  0  2  0  0  0  0  0  0
  195.0510  176.5840  145.1690 C   0  0  0  0  0  1  0  0  0  0  0  0
  194.7960  175.2500  145.8410 C   0  0  0  0  0  2  0  0  0  0  0  0
  1  2  1  0  0  0  0
  2  3  1  0  0  0  0
  3  4  2  0  0  0  0
  5  3  1  0  0  0  0
  5  6  1  1  0  0  0
  8 11  1  0  0  0  0
  9  5  1  0  0  0  0
  9 13  1  0  0  0  0
 10 12  1  0  0  0  0
 10  8  2  0  0  0  0
 11 13  2  0  0  0  0
 11  7  1  0  0  0  0
 12  9  2  0  0  0  0
 14 12  1  0  0  0  0
 15 14  1  0  0  0  0
 16 15  2  0  0  0  0
 18 19  1  6  0  0  0
 18 15  1  0  0  0  0
 18 17  1  0  0  0  0
 20 18  2  0  0  0  0
 21  1  1  1  0  0  0
 21 38  1  0  0  0  0
 22 32  1  6  0  0  0
 22 25  1  0  0  0  0
 22 24  1  0  0  0  0
 23 29  1  6  0  0  0
 24 23  1  0  0  0  0
 25 21  1  1  0  0  0
 25 23  1  0  0  0  0
 27 30  2  0  0  0  0
 28 29  2  0  0  0  0
 29 26  1  0  0  0  0
 30 28  1  0  0  0  0
 30 31  1  0  0  0  0
 31 26  1  0  0  0  0
 33 32  1  0  0  0  0
 34 32  2  0  0  0  0
 35 36  1  0  0  0  0
 36 37  1  1  0  0  0
 36 33  1  0  0  0  0
 39 40  1  0  0  0  0
 40 38  1  0  0  0  0
M  END
>  <MODEL>
2

>  <REMARK>
 VINA RESULT:      -6.3      2.924      4.450
  Name = 
  13 active torsions:
  status: ('A' for Active; 'I' for Inactive)
    1  A    between atoms: C_2  and  C_12
    2  A    between atoms: C_2  and  C_23
    3  A    between atoms: C_3  and  C_8
    4  A    between atoms: C_6  and  C_30
    5  A    between atoms: C_7  and  C_11
    6  A    between atoms: C_11  and  C_12
    7  A    between atoms: N_18  and  C_25
    8  A    between atoms: C_19  and  P_20
    9  A    between atoms: C_22  and  N_27
   10  A    between atoms: C_23  and  C_29
   11  A    between atoms: C_28  and  C_29
   12  A    between atoms: C_29  and  C_36
   13  A    between atoms: C_33  and  C_36
                            x       y       z     vdW  Elec       q    Type
                         _______ _______ _______ _____ _____    ______ ____

>  <TORSDO>
F 13

$$$$
=
 OpenBabel11042418083D

 40 42  0  0  1  0  0  0  0  0999 V2000
  192.7360  175.6480  143.6290 C   0  0  0  0  0  2  0  0  0  0  0  0
  192.2500  177.0310  143.2100 C   0  0  0  0  0  2  0  0  0  0  0  0
  191.0460  177.4410  143.9930 C   0  0  0  0  0  0  0  0  0  0  0  0
  190.7710  178.6240  144.1040 O   0  0  0  0  0  0  0  0  0  0  0  0
  190.2160  176.3850  144.6660 C   0  0  1  0  0  3  0  0  0  0  0  0
  190.2920  176.4760  146.1810 C   0  0  0  0  0  1  0  0  0  0  0  0
  185.4030  177.3400  145.4690 C   0  0  0  0  0  1  0  0  0  0  0  0
  186.1210  176.2590  143.3380 C   0  0  0  0  0  3  0  0  0  0  0  0
  188.8040  176.3280  144.1500 C   0  0  0  0  0  0  0  0  0  0  0  0
  187.1150  175.7410  142.5050 C   0  0  0  0  0  3  0  0  0  0  0  0
  186.4610  176.8050  144.5750 C   0  0  0  0  0  0  0  0  0  0  0  0
  188.4600  175.7570  142.9020 C   0  0  0  0  0  0  0  0  0  0  0  0
  187.7960  176.8350  144.9790 C   0  0  0  0  0  3  0  0  0  0  0  0
  189.4920  175.2760  142.0260 N   0  0  0  0  0  2  0  0  0  0  0  0
  189.7320  173.9380  141.5760 C   0  0  0  0  0  0  0  0  0  0  0  0
  190.5140  173.7640  140.5620 N   0  0  0  0  0  2  0  0  0  0  0  0
  190.0730  171.1400  141.9520 O   0  0  0  0  0  0  0  0  0  0  0  0
  189.2830  172.5070  142.5640 P   0  0  1  0  0  0  0  0  0  0  0  0
  189.7910  172.7510  144.2920 C   0  0  0  0  0  1  0  0  0  0  0  0
  187.7920  172.2780  142.5010 O   0  0  0  0  0  1  0  0  0  0  0  0
  194.0970  175.7120  144.3140 C   0  0  2  0  0  3  0  0  0  0  0  0
  196.4670  174.7490  144.2210 C   0  0  1  0  0  3  0  0  0  0  0  0
  195.8130  175.9360  142.4420 C   0  0  2  0  0  3  0  0  0  0  0  0
  197.5000  175.7780  143.1180 S   0  0  0  0  0  0  0  0  0  0  0  0
  195.1750  175.0120  143.4640 C   0  0  2  0  0  3  0  0  0  0  0  0
  196.7900  174.2350  140.4260 S   0  0  0  0  0  0  0  0  0  0  0  0
  193.9800  175.0730  137.7230 S   0  0  0  0  0  0  0  0  0  0  0  0
  194.7870  175.6130  140.1530 N   0  0  0  0  0  0  0  0  0  0  0  0
  195.7340  175.3360  141.0750 C   0  0  0  0  0  0  0  0  0  0  0  0
  194.9890  174.9100  138.9950 C   0  0  0  0  0  0  0  0  0  0  0  0
  196.0630  174.0750  138.9400 N   0  0  0  0  0  2  0  0  0  0  0  0
  196.8080  173.2880  144.1440 C   0  0  0  0  0  0  0  0  0  0  0  0
  195.8930  172.2920  144.6080 N   0  0  0  0  0  2  0  0  0  0  0  0
  197.9400  172.9500  143.7110 O   0  0  0  0  0  0  0  0  0  0  0  0
  195.0840  170.1070  144.4610 O   0  0  0  0  0  1  0  0  0  0  0  0
  196.2300  170.8780  144.6730 C   0  0  2  0  0  3  0  0  0  0  0  0
  196.7910  170.5660  146.0460 C   0  0  0  0  0  1  0  0  0  0  0  0
  193.9760  175.1590  145.7320 C   0  0  0  0  0  2  0  0  0  0  0  0
  194.5790  177.5350  146.1520 C   0  0  0  0  0  1  0  0  0  0  0  0
  193.9670  176.2870  146.7550 C   0  0  0  0  0  2  0  0  0  0  0  0
  2  1  1  0  0  0  0
  2  3  1  0  0  0  0
  3  4  2  0  0  0  0
  3  5  1  0  0  0  0
  5  6  1  1  0  0  0
  8 11  1  0  0  0  0
  9  5  1  0  0  0  0
  9 13  1  0  0  0  0
 10 12  1  0  0  0  0
 10  8  2  0  0  0  0
 11 13  2  0  0  0  0
 11  7  1  0  0  0  0
 12  9  2  0  0  0  0
 14 12  1  0  0  0  0
 15 14  1  0  0  0  0
 15 18  1  0  0  0  0
 16 15  2  0  0  0  0
 17 18  2  0  0  0  0
 18 19  1  1  0  0  0
 20 18  1  0  0  0  0
 21  1  1  6  0  0  0
 21 38  1  0  0  0  0
 22 32  1  6  0  0  0
 23 29  1  6  0  0  0
 23 24  1  0  0  0  0
 23 25  1  0  0  0  0
 24 22  1  0  0  0  0
 25 22  1  0  0  0  0
 25 21  1  1  0  0  0
 26 29  1  0  0  0  0
 27 30  2  0  0  0  0
 28 29  2  0  0  0  0
 30 28  1  0  0  0  0
 31 30  1  0  0  0  0
 31 26  1  0  0  0  0
 32 33  1  0  0  0  0
 33 36  1  0  0  0  0
 34 32  2  0  0  0  0
 35 36  1  0  0  0  0
 36 37  1  1  0  0  0
 38 40  1  0  0  0  0
 39 40  1  0  0  0  0
M  END
>  <MODEL>
3

>  <REMARK>
 VINA RESULT:      -6.1      2.358      2.944
  Name = 
  13 active torsions:
  status: ('A' for Active; 'I' for Inactive)
    1  A    between atoms: C_2  and  C_12
    2  A    between atoms: C_2  and  C_23
    3  A    between atoms: C_3  and  C_8
    4  A    between atoms: C_6  and  C_30
    5  A    between atoms: C_7  and  C_11
    6  A    between atoms: C_11  and  C_12
    7  A    between atoms: N_18  and  C_25
    8  A    between atoms: C_19  and  P_20
    9  A    between atoms: C_22  and  N_27
   10  A    between atoms: C_23  and  C_29
   11  A    between atoms: C_28  and  C_29
   12  A    between atoms: C_29  and  C_36
   13  A    between atoms: C_33  and  C_36
                            x       y       z     vdW  Elec       q    Type
                         _______ _______ _______ _____ _____    ______ ____

>  <TORSDO>
F 13

$$$$
=
 OpenBabel11042418083D

 40 42  0  0  1  0  0  0  0  0999 V2000
  193.0580  175.3030  146.5950 C   0  0  0  0  0  2  0  0  0  0  0  0
  194.3980  175.1390  145.8860 C   0  0  0  0  0  2  0  0  0  0  0  0
  194.6270  173.7180  145.4860 C   0  0  0  0  0  0  0  0  0  0  0  0
  193.6840  172.9450  145.4340 O   0  0  0  0  0  0  0  0  0  0  0  0
  196.0260  173.2570  145.1920 C   0  0  1  0  0  3  0  0  0  0  0  0
  197.0380  173.8410  146.1640 C   0  0  0  0  0  1  0  0  0  0  0  0
  196.6530  168.8620  147.4310 C   0  0  0  0  0  1  0  0  0  0  0  0
  196.3950  168.9730  144.9510 C   0  0  0  0  0  3  0  0  0  0  0  0
  196.1370  171.7630  145.0540 C   0  0  0  0  0  0  0  0  0  0  0  0
  196.2190  169.7010  143.7720 C   0  0  0  0  0  3  0  0  0  0  0  0
  196.4480  169.6340  146.1780 C   0  0  0  0  0  0  0  0  0  0  0  0
  196.1010  171.0980  143.8060 C   0  0  0  0  0  0  0  0  0  0  0  0
  196.3230  171.0220  146.2270 C   0  0  0  0  0  3  0  0  0  0  0  0
  195.8640  171.8460  142.6020 N   0  0  0  0  0  2  0  0  0  0  0  0
  194.6320  172.0450  141.9000 C   0  0  0  0  0  0  0  0  0  0  0  0
  194.5740  172.9910  141.0210 N   0  0  0  0  0  2  0  0  0  0  0  0
  192.8530  170.5580  143.5460 O   0  0  0  0  0  1  0  0  0  0  0  0
  193.3080  170.8310  141.9380 P   0  0  1  0  0  0  0  0  0  0  0  0
  191.8660  171.4440  141.0180 C   0  0  0  0  0  1  0  0  0  0  0  0
  193.7780  169.5290  141.3350 O   0  0  0  0  0  0  0  0  0  0  0  0
  192.2450  176.4490  146.0020 C   0  0  2  0  0  3  0  0  0  0  0  0
  189.8070  176.4750  146.7830 C   0  0  1  0  0  3  0  0  0  0  0  0
  190.5660  174.5310  145.9800 C   0  0  2  0  0  3  0  0  0  0  0  0
  189.3070  174.7870  147.2760 S   0  0  0  0  0  0  0  0  0  0  0  0
  190.7940  176.0100  145.7250 C   0  0  2  0  0  3  0  0  0  0  0  0
  189.7930  172.2500  144.5270 S   0  0  0  0  0  0  0  0  0  0  0  0
  188.3390  174.1980  141.3650 S   0  0  0  0  0  0  0  0  0  0  0  0
  189.4660  174.5300  143.7020 N   0  0  0  0  0  0  0  0  0  0  0  0
  189.9610  173.8810  144.7770 C   0  0  0  0  0  0  0  0  0  0  0  0
  188.9870  173.6590  142.7610 C   0  0  0  0  0  0  0  0  0  0  0  0
  189.0750  172.3260  143.0290 N   0  0  0  0  0  2  0  0  0  0  0  0
  188.6950  177.2470  146.1320 C   0  0  0  0  0  0  0  0  0  0  0  0
  187.4400  177.4310  146.7920 N   0  0  0  0  0  2  0  0  0  0  0  0
  188.8650  177.6890  144.9660 O   0  0  0  0  0  0  0  0  0  0  0  0
  185.8830  179.1680  146.8940 O   0  0  0  0  0  1  0  0  0  0  0  0
  186.2950  178.0580  146.1510 C   0  0  2  0  0  3  0  0  0  0  0  0
  185.1570  177.0570  146.0810 C   0  0  0  0  0  1  0  0  0  0  0  0
  192.9670  176.9990  144.7740 C   0  0  0  0  0  2  0  0  0  0  0  0
  192.6970  175.8810  142.5690 C   0  0  0  0  0  1  0  0  0  0  0  0
  192.0930  176.8810  143.5330 C   0  0  0  0  0  2  0  0  0  0  0  0
  2  1  1  0  0  0  0
  3  2  1  0  0  0  0
  4  3  2  0  0  0  0
  5  3  1  0  0  0  0
  5  6  1  1  0  0  0
  8 11  1  0  0  0  0
  9  5  1  0  0  0  0
  9 13  1  0  0  0  0
 10 12  1  0  0  0  0
 10  8  2  0  0  0  0
 11 13  2  0  0  0  0
 11  7  1  0  0  0  0
 12  9  2  0  0  0  0
 14 12  1  0  0  0  0
 15 18  1  0  0  0  0
 15 14  1  0  0  0  0
 16 15  2  0  0  0  0
 18 19  1  6  0  0  0
 18 17  1  0  0  0  0
 20 18  2  0  0  0  0
 21 38  1  6  0  0  0
 21  1  1  0  0  0  0
 22 32  1  6  0  0  0
 22 24  1  0  0  0  0
 23 29  1  6  0  0  0
 23 24  1  0  0  0  0
 25 23  1  0  0  0  0
 25 21  1  1  0  0  0
 25 22  1  0  0  0  0
 26 29  1  0  0  0  0
 27 30  2  0  0  0  0
 28 29  2  0  0  0  0
 30 31  1  0  0  0  0
 30 28  1  0  0  0  0
 31 26  1  0  0  0  0
 32 33  1  0  0  0  0
 34 32  2  0  0  0  0
 36 37  1  1  0  0  0
 36 33  1  0  0  0  0
 36 35  1  0  0  0  0
 39 40  1  0  0  0  0
 40 38  1  0  0  0  0
M  END
>  <MODEL>
4

>  <REMARK>
 VINA RESULT:      -6.1      2.767      8.028
  Name = 
  13 active torsions:
  status: ('A' for Active; 'I' for Inactive)
    1  A    between atoms: C_2  and  C_12
    2  A    between atoms: C_2  and  C_23
    3  A    between atoms: C_3  and  C_8
    4  A    between atoms: C_6  and  C_30
    5  A    between atoms: C_7  and  C_11
    6  A    between atoms: C_11  and  C_12
    7  A    between atoms: N_18  and  C_25
    8  A    between atoms: C_19  and  P_20
    9  A    between atoms: C_22  and  N_27
   10  A    between atoms: C_23  and  C_29
   11  A    between atoms: C_28  and  C_29
   12  A    between atoms: C_29  and  C_36
   13  A    between atoms: C_33  and  C_36
                            x       y       z     vdW  Elec       q    Type
                         _______ _______ _______ _____ _____    ______ ____

>  <TORSDO>
F 13

$$$$
=
 OpenBabel11042418083D

 40 42  0  0  1  0  0  0  0  0999 V2000
  191.2580  177.5420  144.7220 C   0  0  0  0  0  2  0  0  0  0  0  0
  192.5110  176.8870  144.1520 C   0  0  0  0  0  2  0  0  0  0  0  0
  193.3310  176.2590  145.2310 C   0  0  0  0  0  0  0  0  0  0  0  0
  193.2780  176.7020  146.3660 O   0  0  0  0  0  0  0  0  0  0  0  0
  194.2400  175.1140  144.8870 C   0  0  1  0  0  3  0  0  0  0  0  0
  195.1930  174.7780  146.0220 C   0  0  0  0  0  1  0  0  0  0  0  0
  189.9990  172.5250  144.7260 C   0  0  0  0  0  1  0  0  0  0  0  0
  192.0070  171.7050  143.4920 C   0  0  0  0  0  3  0  0  0  0  0  0
  193.5020  173.9120  144.3620 C   0  0  0  0  0  0  0  0  0  0  0  0
  193.3450  171.8350  143.1130 C   0  0  0  0  0  3  0  0  0  0  0  0
  191.4160  172.6700  144.3080 C   0  0  0  0  0  0  0  0  0  0  0  0
  194.1090  172.9260  143.5500 C   0  0  0  0  0  0  0  0  0  0  0  0
  192.1630  173.7650  144.7430 C   0  0  0  0  0  3  0  0  0  0  0  0
  195.4700  173.0930  143.1180 N   0  0  0  0  0  2  0  0  0  0  0  0
  195.9840  173.9500  142.0920 C   0  0  0  0  0  0  0  0  0  0  0  0
  197.2560  174.1790  142.0660 N   0  0  0  0  0  2  0  0  0  0  0  0
  193.7950  175.5030  141.1540 O   0  0  0  0  0  1  0  0  0  0  0  0
  195.0010  174.4200  140.6640 P   0  0  1  0  0  0  0  0  0  0  0  0
  196.0480  175.2340  139.4210 C   0  0  0  0  0  1  0  0  0  0  0  0
  194.3470  173.2020  140.0580 O   0  0  0  0  0  0  0  0  0  0  0  0
  190.1870  176.5100  145.0580 C   0  0  2  0  0  3  0  0  0  0  0  0
  189.5380  176.2770  142.5920 C   0  0  1  0  0  3  0  0  0  0  0  0
  188.5390  177.9270  143.7250 C   0  0  2  0  0  3  0  0  0  0  0  0
  188.9790  177.8970  141.9540 S   0  0  0  0  0  0  0  0  0  0  0  0
  189.0560  176.5280  144.0120 C   0  0  2  0  0  3  0  0  0  0  0  0
  185.9210  177.7620  142.7110 S   0  0  0  0  0  0  0  0  0  0  0  0
  184.0530  178.5060  146.1550 S   0  0  0  0  0  0  0  0  0  0  0  0
  186.4140  178.2340  145.0600 N   0  0  0  0  0  0  0  0  0  0  0  0
  187.0560  177.9830  143.9000 C   0  0  0  0  0  0  0  0  0  0  0  0
  185.0550  178.2250  144.8980 C   0  0  0  0  0  0  0  0  0  0  0  0
  184.5670  177.9780  143.6510 N   0  0  0  0  0  2  0  0  0  0  0  0
  188.7820  175.1240  141.9990 C   0  0  0  0  0  0  0  0  0  0  0  0
  189.2190  174.4990  140.7890 N   0  0  0  0  0  2  0  0  0  0  0  0
  187.7190  174.7430  142.5560 O   0  0  0  0  0  0  0  0  0  0  0  0
  189.1170  172.2420  140.2020 O   0  0  0  0  0  1  0  0  0  0  0  0
  188.4510  173.4670  140.1100 C   0  0  2  0  0  3  0  0  0  0  0  0
  188.3010  173.8420  138.6490 C   0  0  0  0  0  1  0  0  0  0  0  0
  189.7050  176.7300  146.4900 C   0  0  0  0  0  2  0  0  0  0  0  0
  189.0350  174.5560  147.4940 C   0  0  0  0  0  1  0  0  0  0  0  0
  188.5330  175.8130  146.8150 C   0  0  0  0  0  2  0  0  0  0  0  0
  2  1  1  0  0  0  0
  2  3  1  0  0  0  0
  3  4  2  0  0  0  0
  5  3  1  0  0  0  0
  5  6  1  1  0  0  0
  8 11  1  0  0  0  0
  9 13  1  0  0  0  0
  9  5  1  0  0  0  0
 10  8  2  0  0  0  0
 10 12  1  0  0  0  0
 11  7  1  0  0  0  0
 11 13  2  0  0  0  0
 12  9  2  0  0  0  0
 14 12  1  0  0  0  0
 15 14  1  0  0  0  0
 16 15  2  0  0  0  0
 18 19  1  6  0  0  0
 18 17  1  0  0  0  0
 18 15  1  0  0  0  0
 20 18  2  0  0  0  0
 21  1  1  6  0  0  0
 21 38  1  0  0  0  0
 22 32  1  6  0  0  0
 22 25  1  0  0  0  0
 23 29  1  6  0  0  0
 23 25  1  0  0  0  0
 24 22  1  0  0  0  0
 24 23  1  0  0  0  0
 25 21  1  1  0  0  0
 26 31  1  0  0  0  0
 26 29  1  0  0  0  0
 29 28  2  0  0  0  0
 30 28  1  0  0  0  0
 30 27  2  0  0  0  0
 31 30  1  0  0  0  0
 32 34  2  0  0  0  0
 33 32  1  0  0  0  0
 36 37  1  6  0  0  0
 36 35  1  0  0  0  0
 36 33  1  0  0  0  0
 38 40  1  0  0  0  0
 40 39  1  0  0  0  0
M  END
>  <MODEL>
5

>  <REMARK>
 VINA RESULT:      -6.0      3.792      7.637
  Name = 
  13 active torsions:
  status: ('A' for Active; 'I' for Inactive)
    1  A    between atoms: C_2  and  C_12
    2  A    between atoms: C_2  and  C_23
    3  A    between atoms: C_3  and  C_8
    4  A    between atoms: C_6  and  C_30
    5  A    between atoms: C_7  and  C_11
    6  A    between atoms: C_11  and  C_12
    7  A    between atoms: N_18  and  C_25
    8  A    between atoms: C_19  and  P_20
    9  A    between atoms: C_22  and  N_27
   10  A    between atoms: C_23  and  C_29
   11  A    between atoms: C_28  and  C_29
   12  A    between atoms: C_29  and  C_36
   13  A    between atoms: C_33  and  C_36
                            x       y       z     vdW  Elec       q    Type
                         _______ _______ _______ _____ _____    ______ ____

>  <TORSDO>
F 13

$$$$
=
 OpenBabel11042418083D

 40 42  0  0  1  0  0  0  0  0999 V2000
  188.8050  172.6780  142.3680 C   0  0  0  0  0  2  0  0  0  0  0  0
  189.7670  172.0250  143.3540 C   0  0  0  0  0  2  0  0  0  0  0  0
  190.7930  171.2030  142.6450 C   0  0  0  0  0  0  0  0  0  0  0  0
  190.4420  170.2490  141.9700 O   0  0  0  0  0  0  0  0  0  0  0  0
  192.2460  171.5440  142.8100 C   0  0  1  0  0  3  0  0  0  0  0  0
  193.1460  170.3420  142.5780 C   0  0  0  0  0  1  0  0  0  0  0  0
  192.9990  173.5820  138.3380 C   0  0  0  0  0  1  0  0  0  0  0  0
  193.4410  174.9100  140.4040 C   0  0  0  0  0  3  0  0  0  0  0  0
  192.6610  172.7530  142.0160 C   0  0  0  0  0  0  0  0  0  0  0  0
  193.4770  175.0300  141.7950 C   0  0  0  0  0  3  0  0  0  0  0  0
  193.0220  173.7160  139.8160 C   0  0  0  0  0  0  0  0  0  0  0  0
  193.1020  173.9560  142.6140 C   0  0  0  0  0  0  0  0  0  0  0  0
  192.6380  172.6430  140.6210 C   0  0  0  0  0  3  0  0  0  0  0  0
  193.0860  174.0920  144.0450 N   0  0  0  0  0  2  0  0  0  0  0  0
  194.1890  174.2770  144.9390 C   0  0  0  0  0  0  0  0  0  0  0  0
  193.9410  174.6800  146.1420 N   0  0  0  0  0  2  0  0  0  0  0  0
  196.5470  174.6250  143.3880 O   0  0  0  0  0  0  0  0  0  0  0  0
  195.8300  173.6470  144.5700 P   0  0  1  0  0  0  0  0  0  0  0  0
  196.8660  173.6780  146.0620 C   0  0  0  0  0  1  0  0  0  0  0  0
  195.7390  172.2340  144.0450 O   0  0  0  0  0  1  0  0  0  0  0  0
  189.3470  174.0060  141.8500 C   0  0  2  0  0  3  0  0  0  0  0  0
  188.3990  176.3760  142.0430 C   0  0  1  0  0  3  0  0  0  0  0  0
  190.1440  175.9010  143.3580 C   0  0  2  0  0  3  0  0  0  0  0  0
  189.7100  177.5120  142.6200 S   0  0  0  0  0  0  0  0  0  0  0  0
  188.9470  175.1660  142.7820 C   0  0  2  0  0  3  0  0  0  0  0  0
  188.7920  175.4090  145.7750 S   0  0  0  0  0  0  0  0  0  0  0  0
  191.5670  176.9750  148.1740 S   0  0  0  0  0  0  0  0  0  0  0  0
  190.9850  176.4890  145.6700 N   0  0  0  0  0  0  0  0  0  0  0  0
  190.0520  175.9620  144.8490 C   0  0  0  0  0  0  0  0  0  0  0  0
  190.6090  176.4030  146.9830 C   0  0  0  0  0  0  0  0  0  0  0  0
  189.4070  175.8270  147.2620 N   0  0  0  0  0  2  0  0  0  0  0  0
  187.0430  176.7270  142.5840 C   0  0  0  0  0  0  0  0  0  0  0  0
  186.5990  178.0850  142.6390 N   0  0  0  0  0  2  0  0  0  0  0  0
  186.3150  175.8070  143.0430 O   0  0  0  0  0  0  0  0  0  0  0  0
  184.3630  178.6670  142.2990 O   0  0  0  0  0  1  0  0  0  0  0  0
  185.3510  178.4840  143.2710 C   0  0  2  0  0  3  0  0  0  0  0  0
  185.5660  179.7890  144.0130 C   0  0  0  0  0  1  0  0  0  0  0  0
  188.9070  174.2000  140.4000 C   0  0  0  0  0  2  0  0  0  0  0  0
  189.4740  172.4480  138.7290 C   0  0  0  0  0  1  0  0  0  0  0  0
  188.4750  172.8770  139.7840 C   0  0  0  0  0  2  0  0  0  0  0  0
  1  2  1  0  0  0  0
  3  5  1  0  0  0  0
  3  2  1  0  0  0  0
  4  3  2  0  0  0  0
  5  6  1  6  0  0  0
  7 11  1  0  0  0  0
  8 10  1  0  0  0  0
  9 12  1  0  0  0  0
  9  5  1  0  0  0  0
 10 12  2  0  0  0  0
 11  8  2  0  0  0  0
 11 13  1  0  0  0  0
 12 14  1  0  0  0  0
 13  9  2  0  0  0  0
 14 15  1  0  0  0  0
 15 16  2  0  0  0  0
 17 18  2  0  0  0  0
 18 15  1  0  0  0  0
 18 19  1  1  0  0  0
 20 18  1  0  0  0  0
 21 38  1  6  0  0  0
 21  1  1  0  0  0  0
 22 32  1  1  0  0  0
 22 24  1  0  0  0  0
 22 25  1  0  0  0  0
 23 29  1  1  0  0  0
 24 23  1  0  0  0  0
 25 21  1  6  0  0  0
 25 23  1  0  0  0  0
 26 31  1  0  0  0  0
 28 30  1  0  0  0  0
 29 28  2  0  0  0  0
 29 26  1  0  0  0  0
 30 31  1  0  0  0  0
 30 27  2  0  0  0  0
 32 33  1  0  0  0  0
 32 34  2  0  0  0  0
 33 36  1  0  0  0  0
 35 36  1  0  0  0  0
 36 37  1  6  0  0  0
 39 40  1  0  0  0  0
 40 38  1  0  0  0  0
M  END
>  <MODEL>
6

>  <REMARK>
 VINA RESULT:      -5.9      3.457      8.613
  Name = 
  13 active torsions:
  status: ('A' for Active; 'I' for Inactive)
    1  A    between atoms: C_2  and  C_12
    2  A    between atoms: C_2  and  C_23
    3  A    between atoms: C_3  and  C_8
    4  A    between atoms: C_6  and  C_30
    5  A    between atoms: C_7  and  C_11
    6  A    between atoms: C_11  and  C_12
    7  A    between atoms: N_18  and  C_25
    8  A    between atoms: C_19  and  P_20
    9  A    between atoms: C_22  and  N_27
   10  A    between atoms: C_23  and  C_29
   11  A    between atoms: C_28  and  C_29
   12  A    between atoms: C_29  and  C_36
   13  A    between atoms: C_33  and  C_36
                            x       y       z     vdW  Elec       q    Type
                         _______ _______ _______ _____ _____    ______ ____

>  <TORSDO>
F 13

$$$$
=
 OpenBabel11042418083D

 40 42  0  0  1  0  0  0  0  0999 V2000
  192.8970  175.5210  142.1750 C   0  0  0  0  0  2  0  0  0  0  0  0
  192.2130  174.2600  142.6930 C   0  0  0  0  0  2  0  0  0  0  0  0
  190.7850  174.2040  142.2620 C   0  0  0  0  0  0  0  0  0  0  0  0
  190.5110  174.2230  141.0720 O   0  0  0  0  0  0  0  0  0  0  0  0
  189.7050  174.1670  143.3060 C   0  0  1  0  0  3  0  0  0  0  0  0
  189.5240  172.7760  143.8920 C   0  0  0  0  0  1  0  0  0  0  0  0
  190.8010  175.2930  148.0220 C   0  0  0  0  0  1  0  0  0  0  0  0
  190.1660  177.1010  146.4240 C   0  0  0  0  0  3  0  0  0  0  0  0
  189.8640  175.2330  144.3550 C   0  0  0  0  0  0  0  0  0  0  0  0
  189.7740  177.5260  145.1520 C   0  0  0  0  0  3  0  0  0  0  0  0
  190.4010  175.7480  146.6660 C   0  0  0  0  0  0  0  0  0  0  0  0
  189.6070  176.6020  144.1110 C   0  0  0  0  0  0  0  0  0  0  0  0
  190.2470  174.8200  145.6370 C   0  0  0  0  0  3  0  0  0  0  0  0
  189.2580  177.0400  142.7870 N   0  0  0  0  0  2  0  0  0  0  0  0
  188.0060  177.5510  142.3150 C   0  0  0  0  0  0  0  0  0  0  0  0
  187.9870  178.1690  141.1800 N   0  0  0  0  0  2  0  0  0  0  0  0
  186.3930  175.3820  143.1940 O   0  0  0  0  0  1  0  0  0  0  0  0
  186.4410  177.0690  143.0530 P   0  0  1  0  0  0  0  0  0  0  0  0
  186.2750  177.7990  144.7080 C   0  0  0  0  0  1  0  0  0  0  0  0
  185.2940  177.5190  142.1810 O   0  0  0  0  0  0  0  0  0  0  0  0
  193.9940  175.9960  143.1220 C   0  0  2  0  0  3  0  0  0  0  0  0
  196.3680  175.4560  143.9130 C   0  0  1  0  0  3  0  0  0  0  0  0
  196.1490  176.0230  141.7600 C   0  0  2  0  0  3  0  0  0  0  0  0
  197.5760  176.3310  142.8550 S   0  0  0  0  0  0  0  0  0  0  0  0
  195.3310  175.2960  142.8130 C   0  0  2  0  0  3  0  0  0  0  0  0
  197.4160  175.4750  139.3100 S   0  0  0  0  0  0  0  0  0  0  0  0
  196.3810  171.6280  139.1140 S   0  0  0  0  0  0  0  0  0  0  0  0
  196.1780  173.7880  140.5770 N   0  0  0  0  0  0  0  0  0  0  0  0
  196.5230  175.0900  140.6530 C   0  0  0  0  0  0  0  0  0  0  0  0
  196.6660  173.2010  139.4410 C   0  0  0  0  0  0  0  0  0  0  0  0
  197.3920  173.9770  138.5890 N   0  0  0  0  0  2  0  0  0  0  0  0
  196.8500  174.1040  144.3530 C   0  0  0  0  0  0  0  0  0  0  0  0
  196.0820  172.9260  144.0910 N   0  0  0  0  0  2  0  0  0  0  0  0
  197.9220  174.0240  145.0090 O   0  0  0  0  0  0  0  0  0  0  0  0
  196.3540  170.6610  143.5910 O   0  0  0  0  0  1  0  0  0  0  0  0
  196.4440  171.6150  144.6090 C   0  0  2  0  0  3  0  0  0  0  0  0
  195.4870  171.2430  145.7240 C   0  0  0  0  0  1  0  0  0  0  0  0
  193.5260  175.8200  144.5660 C   0  0  0  0  0  2  0  0  0  0  0  0
  194.1520  176.8880  146.7230 C   0  0  0  0  0  1  0  0  0  0  0  0
  193.6140  177.1350  145.3280 C   0  0  0  0  0  2  0  0  0  0  0  0
  1  2  1  0  0  0  0
  3  2  1  0  0  0  0
  3  5  1  0  0  0  0
  4  3  2  0  0  0  0
  5  6  1  1  0  0  0
  5  9  1  0  0  0  0
  8 11  1  0  0  0  0
  9 13  1  0  0  0  0
 10  8  2  0  0  0  0
 11  7  1  0  0  0  0
 12  9  2  0  0  0  0
 12 10  1  0  0  0  0
 13 11  2  0  0  0  0
 14 12  1  0  0  0  0
 15 14  1  0  0  0  0
 15 18  1  0  0  0  0
 16 15  2  0  0  0  0
 18 17  1  0  0  0  0
 18 19  1  1  0  0  0
 20 18  2  0  0  0  0
 21  1  1  6  0  0  0
 21 38  1  0  0  0  0
 22 32  1  6  0  0  0
 23 29  1  6  0  0  0
 23 25  1  0  0  0  0
 23 24  1  0  0  0  0
 24 22  1  0  0  0  0
 25 21  1  1  0  0  0
 25 22  1  0  0  0  0
 26 29  1  0  0  0  0
 27 30  2  0  0  0  0
 28 29  2  0  0  0  0
 30 28  1  0  0  0  0
 31 26  1  0  0  0  0
 31 30  1  0  0  0  0
 32 34  2  0  0  0  0
 33 32  1  0  0  0  0
 33 36  1  0  0  0  0
 35 36  1  0  0  0  0
 36 37  1  1  0  0  0
 38 40  1  0  0  0  0
 40 39  1  0  0  0  0
M  END
>  <MODEL>
7

>  <REMARK>
 VINA RESULT:      -5.9      2.621      4.018
  Name = 
  13 active torsions:
  status: ('A' for Active; 'I' for Inactive)
    1  A    between atoms: C_2  and  C_12
    2  A    between atoms: C_2  and  C_23
    3  A    between atoms: C_3  and  C_8
    4  A    between atoms: C_6  and  C_30
    5  A    between atoms: C_7  and  C_11
    6  A    between atoms: C_11  and  C_12
    7  A    between atoms: N_18  and  C_25
    8  A    between atoms: C_19  and  P_20
    9  A    between atoms: C_22  and  N_27
   10  A    between atoms: C_23  and  C_29
   11  A    between atoms: C_28  and  C_29
   12  A    between atoms: C_29  and  C_36
   13  A    between atoms: C_33  and  C_36
                            x       y       z     vdW  Elec       q    Type
                         _______ _______ _______ _____ _____    ______ ____

>  <TORSDO>
F 13

$$$$
=
 OpenBabel11042418083D

 40 42  0  0  1  0  0  0  0  0999 V2000
  190.8030  176.6580  143.3070 C   0  0  0  0  0  2  0  0  0  0  0  0
  190.2560  177.5930  144.3800 C   0  0  0  0  0  2  0  0  0  0  0  0
  190.0120  176.8620  145.6600 C   0  0  0  0  0  0  0  0  0  0  0  0
  190.8300  176.9340  146.5630 O   0  0  0  0  0  0  0  0  0  0  0  0
  188.7780  176.0170  145.7960 C   0  0  1  0  0  3  0  0  0  0  0  0
  188.9030  174.9980  146.9170 C   0  0  0  0  0  1  0  0  0  0  0  0
  186.1900  179.5480  148.1530 C   0  0  0  0  0  1  0  0  0  0  0  0
  185.2050  178.3910  146.1730 C   0  0  0  0  0  3  0  0  0  0  0  0
  187.5140  176.8290  145.8760 C   0  0  0  0  0  0  0  0  0  0  0  0
  185.2800  177.4450  145.1480 C   0  0  0  0  0  3  0  0  0  0  0  0
  186.2760  178.5550  147.0520 C   0  0  0  0  0  0  0  0  0  0  0  0
  186.4220  176.6480  144.9940 C   0  0  0  0  0  0  0  0  0  0  0  0
  187.4220  177.7730  146.9050 C   0  0  0  0  0  3  0  0  0  0  0  0
  186.5270  175.7120  143.9090 N   0  0  0  0  0  2  0  0  0  0  0  0
  186.8520  175.9660  142.5370 C   0  0  0  0  0  0  0  0  0  0  0  0
  187.1920  174.9650  141.7930 N   0  0  0  0  0  2  0  0  0  0  0  0
  187.4270  178.7490  142.4280 O   0  0  0  0  0  1  0  0  0  0  0  0
  186.4710  177.5310  141.7420 P   0  0  1  0  0  0  0  0  0  0  0  0
  186.8300  177.4370  139.9640 C   0  0  0  0  0  1  0  0  0  0  0  0
  185.0160  177.8790  141.9480 O   0  0  0  0  0  0  0  0  0  0  0  0
  191.1040  175.2720  143.8680 C   0  0  2  0  0  3  0  0  0  0  0  0
  193.1450  174.7640  145.3280 C   0  0  1  0  0  3  0  0  0  0  0  0
  193.4410  176.2790  143.7090 C   0  0  2  0  0  3  0  0  0  0  0  0
  194.2630  176.2110  145.3370 S   0  0  0  0  0  0  0  0  0  0  0  0
  192.6230  175.0180  143.9230 C   0  0  2  0  0  3  0  0  0  0  0  0
  196.0630  176.3690  142.6950 S   0  0  0  0  0  0  0  0  0  0  0  0
  195.1770  175.0630  139.0320 S   0  0  0  0  0  0  0  0  0  0  0  0
  194.1440  175.6380  141.3660 N   0  0  0  0  0  0  0  0  0  0  0  0
  194.4330  176.0790  142.6090 C   0  0  0  0  0  0  0  0  0  0  0  0
  195.2630  175.5660  140.5820 C   0  0  0  0  0  0  0  0  0  0  0  0
  196.4510  175.9330  141.1380 N   0  0  0  0  0  2  0  0  0  0  0  0
  193.8830  173.4570  145.3640 C   0  0  0  0  0  0  0  0  0  0  0  0
  195.3110  173.4140  145.3190 N   0  0  0  0  0  2  0  0  0  0  0  0
  193.2210  172.3860  145.3810 O   0  0  0  0  0  0  0  0  0  0  0  0
  197.2750  172.2950  145.9040 O   0  0  0  0  0  1  0  0  0  0  0  0
  196.0620  172.1720  145.2210 C   0  0  2  0  0  3  0  0  0  0  0  0
  196.3430  171.8770  143.7610 C   0  0  0  0  0  1  0  0  0  0  0  0
  190.3330  174.2250  143.0670 C   0  0  0  0  0  2  0  0  0  0  0  0
  188.9800  172.1590  143.3560 C   0  0  0  0  0  1  0  0  0  0  0  0
  190.1710  172.9410  143.8700 C   0  0  0  0  0  2  0  0  0  0  0  0
  1 21  1  0  0  0  0
  1  2  1  0  0  0  0
  2  3  1  0  0  0  0
  3  5  1  0  0  0  0
  3  4  2  0  0  0  0
  5  9  1  0  0  0  0
  5  6  1  1  0  0  0
  8 11  1  0  0  0  0
  9 13  1  0  0  0  0
 10  8  2  0  0  0  0
 11  7  1  0  0  0  0
 12 10  1  0  0  0  0
 12  9  2  0  0  0  0
 13 11  2  0  0  0  0
 14 12  1  0  0  0  0
 15 14  1  0  0  0  0
 16 15  2  0  0  0  0
 18 19  1  6  0  0  0
 18 20  2  0  0  0  0
 18 17  1  0  0  0  0
 18 15  1  0  0  0  0
 21 38  1  6  0  0  0
 22 24  1  0  0  0  0
 22 32  1  6  0  0  0
 23 29  1  6  0  0  0
 23 25  1  0  0  0  0
 23 24  1  0  0  0  0
 25 21  1  1  0  0  0
 25 22  1  0  0  0  0
 27 30  2  0  0  0  0
 28 29  2  0  0  0  0
 29 26  1  0  0  0  0
 30 31  1  0  0  0  0
 30 28  1  0  0  0  0
 31 26  1  0  0  0  0
 32 34  2  0  0  0  0
 33 32  1  0  0  0  0
 36 37  1  6  0  0  0
 36 33  1  0  0  0  0
 36 35  1  0  0  0  0
 38 40  1  0  0  0  0
 39 40  1  0  0  0  0
M  END
>  <MODEL>
8

>  <REMARK>
 VINA RESULT:      -5.9      2.733      3.899
  Name = 
  13 active torsions:
  status: ('A' for Active; 'I' for Inactive)
    1  A    between atoms: C_2  and  C_12
    2  A    between atoms: C_2  and  C_23
    3  A    between atoms: C_3  and  C_8
    4  A    between atoms: C_6  and  C_30
    5  A    between atoms: C_7  and  C_11
    6  A    between atoms: C_11  and  C_12
    7  A    between atoms: N_18  and  C_25
    8  A    between atoms: C_19  and  P_20
    9  A    between atoms: C_22  and  N_27
   10  A    between atoms: C_23  and  C_29
   11  A    between atoms: C_28  and  C_29
   12  A    between atoms: C_29  and  C_36
   13  A    between atoms: C_33  and  C_36
                            x       y       z     vdW  Elec       q    Type
                         _______ _______ _______ _____ _____    ______ ____

>  <TORSDO>
F 13

$$$$
=
 OpenBabel11042418083D

 40 42  0  0  1  0  0  0  0  0999 V2000
  191.1540  174.8230  144.5690 C   0  0  0  0  0  2  0  0  0  0  0  0
  190.2570  175.9010  143.9710 C   0  0  0  0  0  2  0  0  0  0  0  0
  189.5520  176.6710  145.0390 C   0  0  0  0  0  0  0  0  0  0  0  0
  189.9450  177.7860  145.3400 O   0  0  0  0  0  0  0  0  0  0  0  0
  188.3920  176.0380  145.7540 C   0  0  1  0  0  3  0  0  0  0  0  0
  188.7810  175.5180  147.1280 C   0  0  0  0  0  1  0  0  0  0  0  0
  185.8690  179.6770  148.0140 C   0  0  0  0  0  1  0  0  0  0  0  0
  184.9270  178.5860  145.9770 C   0  0  0  0  0  3  0  0  0  0  0  0
  187.1680  176.9110  145.7790 C   0  0  0  0  0  0  0  0  0  0  0  0
  185.0070  177.6450  144.9480 C   0  0  0  0  0  3  0  0  0  0  0  0
  185.9600  178.6890  146.9090 C   0  0  0  0  0  0  0  0  0  0  0  0
  186.1140  176.7920  144.8420 C   0  0  0  0  0  0  0  0  0  0  0  0
  187.0710  177.8520  146.8110 C   0  0  0  0  0  3  0  0  0  0  0  0
  186.2260  175.8600  143.7540 N   0  0  0  0  0  2  0  0  0  0  0  0
  186.7880  176.0680  142.4530 C   0  0  0  0  0  0  0  0  0  0  0  0
  187.0680  175.0310  141.7350 N   0  0  0  0  0  2  0  0  0  0  0  0
  187.4430  177.5350  140.1070 O   0  0  0  0  0  0  0  0  0  0  0  0
  186.7870  177.6800  141.6620 P   0  0  1  0  0  0  0  0  0  0  0  0
  185.0880  178.3120  141.5230 C   0  0  0  0  0  1  0  0  0  0  0  0
  187.6250  178.6510  142.4580 O   0  0  0  0  0  1  0  0  0  0  0  0
  192.4260  175.4170  145.1660 C   0  0  2  0  0  3  0  0  0  0  0  0
  194.4310  173.8570  145.4880 C   0  0  1  0  0  3  0  0  0  0  0  0
  194.8270  175.7590  144.3790 C   0  0  2  0  0  3  0  0  0  0  0  0
  195.9750  174.8360  145.4560 S   0  0  0  0  0  0  0  0  0  0  0  0
  193.6800  174.7770  144.5390 C   0  0  2  0  0  3  0  0  0  0  0  0
  196.7650  176.3770  142.4360 S   0  0  0  0  0  0  0  0  0  0  0  0
  194.7520  174.9300  139.3120 S   0  0  0  0  0  0  0  0  0  0  0  0
  194.6450  175.2780  141.9030 N   0  0  0  0  0  0  0  0  0  0  0  0
  195.3180  175.7650  142.9670 C   0  0  0  0  0  0  0  0  0  0  0  0
  195.3530  175.4350  140.7420 C   0  0  0  0  0  0  0  0  0  0  0  0
  196.5750  176.0310  140.8210 N   0  0  0  0  0  2  0  0  0  0  0  0
  194.5850  172.5020  144.8610 C   0  0  0  0  0  0  0  0  0  0  0  0
  194.8530  171.3460  145.6580 N   0  0  0  0  0  2  0  0  0  0  0  0
  194.5270  172.4030  143.6070 O   0  0  0  0  0  0  0  0  0  0  0  0
  194.2740  169.0840  145.6300 O   0  0  0  0  0  1  0  0  0  0  0  0
  195.1370  170.0390  145.0860 C   0  0  2  0  0  3  0  0  0  0  0  0
  196.5680  169.6570  145.4110 C   0  0  0  0  0  1  0  0  0  0  0  0
  192.3720  175.3030  146.6870 C   0  0  0  0  0  2  0  0  0  0  0  0
  191.5700  176.9270  148.3920 C   0  0  0  0  0  1  0  0  0  0  0  0
  192.6280  176.6530  147.3420 C   0  0  0  0  0  2  0  0  0  0  0  0
  2  1  1  0  0  0  0
  2  3  1  0  0  0  0
  3  4  2  0  0  0  0
  3  5  1  0  0  0  0
  5  9  1  0  0  0  0
  5  6  1  1  0  0  0
  8 11  1  0  0  0  0
  9 13  1  0  0  0  0
 10  8  2  0  0  0  0
 11  7  1  0  0  0  0
 12 10  1  0  0  0  0
 12  9  2  0  0  0  0
 13 11  2  0  0  0  0
 14 12  1  0  0  0  0
 15 14  1  0  0  0  0
 16 15  2  0  0  0  0
 17 18  2  0  0  0  0
 18 19  1  6  0  0  0
 18 15  1  0  0  0  0
 18 20  1  0  0  0  0
 21  1  1  6  0  0  0
 21 38  1  0  0  0  0
 22 32  1  6  0  0  0
 23 29  1  6  0  0  0
 23 25  1  0  0  0  0
 23 24  1  0  0  0  0
 24 22  1  0  0  0  0
 25 21  1  1  0  0  0
 25 22  1  0  0  0  0
 26 29  1  0  0  0  0
 27 30  2  0  0  0  0
 28 29  2  0  0  0  0
 30 31  1  0  0  0  0
 30 28  1  0  0  0  0
 31 26  1  0  0  0  0
 32 33  1  0  0  0  0
 34 32  2  0  0  0  0
 36 37  1  1  0  0  0
 36 35  1  0  0  0  0
 36 33  1  0  0  0  0
 38 40  1  0  0  0  0
 40 39  1  0  0  0  0
M  END
>  <MODEL>
9

>  <REMARK>
 VINA RESULT:      -5.9      2.554      3.400
  Name = 
  13 active torsions:
  status: ('A' for Active; 'I' for Inactive)
    1  A    between atoms: C_2  and  C_12
    2  A    between atoms: C_2  and  C_23
    3  A    between atoms: C_3  and  C_8
    4  A    between atoms: C_6  and  C_30
    5  A    between atoms: C_7  and  C_11
    6  A    between atoms: C_11  and  C_12
    7  A    between atoms: N_18  and  C_25
    8  A    between atoms: C_19  and  P_20
    9  A    between atoms: C_22  and  N_27
   10  A    between atoms: C_23  and  C_29
   11  A    between atoms: C_28  and  C_29
   12  A    between atoms: C_29  and  C_36
   13  A    between atoms: C_33  and  C_36
                            x       y       z     vdW  Elec       q    Type
                         _______ _______ _______ _____ _____    ______ ____

>  <TORSDO>
F 13

$$$$
