=
 OpenBabel11042415233D

 47 55  0  0  1  0  0  0  0  0999 V2000
  191.1780  176.4090  143.1870 C   0  0  0  0  0  2  0  0  0  0  0  0
  185.5190  178.1830  145.2820 C   0  0  0  0  0  0  0  0  0  0  0  0
  188.3400  176.5440  142.2630 N   0  0  0  0  0  2  0  0  0  0  0  0
  188.9290  175.9160  141.1580 N   0  0  0  0  0  2  0  0  0  0  0  0
  188.0610  177.8700  145.1940 C   0  0  1  0  0  3  0  0  0  0  0  0
  193.9660  174.2170  140.4330 C   0  0  1  0  0  3  0  0  0  0  0  0
  184.9480  177.6200  141.7500 C   0  0  0  0  0  3  0  0  0  0  0  0
  186.1360  177.0960  141.2240 C   0  0  0  0  0  3  0  0  0  0  0  0
  185.2970  178.3080  146.5130 O   0  0  0  0  0  0  0  0  0  0  0  0
  189.7900  172.4200  141.2570 N   0  0  0  0  0  0  0  0  0  0  0  0
  191.1650  175.3150  142.1000 C   0  0  1  0  0  3  0  0  0  0  0  0
  187.1060  177.2610  142.2060 C   0  0  0  0  0  0  0  0  0  0  0  0
  195.1870  174.0650  141.2080 N   0  0  0  0  0  1  0  0  0  0  0  0
  192.6490  172.6620  140.2460 C   0  0  0  0  0  0  0  0  0  0  0  0
  193.8480  173.1400  139.4930 C   0  0  0  0  0  2  0  0  0  0  0  0
  192.8330  173.7670  141.2120 N   0  0  0  0  0  0  0  0  0  0  0  0
  189.2150  177.8930  144.3810 N   0  0  0  0  0  2  0  0  0  0  0  0
  186.5750  177.9130  143.2570 N   0  0  0  0  0  0  0  0  0  0  0  0
  186.8310  177.9610  144.6530 C   0  0  2  0  0  3  0  0  0  0  0  0
  184.4520  178.3100  144.2220 C   0  0  0  0  0  2  0  0  0  0  0  0
  191.7980  171.6480  140.1140 C   0  0  0  0  0  3  0  0  0  0  0  0
  190.4420  170.1950  141.6100 N   0  0  0  0  0  1  0  0  0  0  0  0
  192.1650  174.2110  142.4240 C   0  0  0  0  0  2  0  0  0  0  0  0
  189.8230  173.7340  140.6240 C   0  0  0  0  0  2  0  0  0  0  0  0
  190.7730  176.0650  144.5730 N   0  0  1  0  0  0  0  0  0  0  0  0
  188.4780  177.5920  146.5670 C   0  0  0  0  0  0  0  0  0  0  0  0
  187.6560  177.7060  147.8060 C   0  0  0  0  0  1  0  0  0  0  0  0
  189.7810  177.2860  146.5480 C   0  0  0  0  0  0  0  0  0  0  0  0
  189.7520  174.8240  141.6790 C   0  0  2  0  0  3  0  0  0  0  0  0
  190.3300  177.3600  145.1430 C   0  0  2  0  0  3  0  0  0  0  0  0
  185.2900  178.0960  143.0010 C   0  0  0  0  0  0  0  0  0  0  0  0
  190.6440  171.4700  141.0160 C   0  0  0  0  0  0  0  0  0  0  0  0
  189.4100  172.8010  145.5180 C   0  0  0  0  0  2  0  0  0  0  0  0
  190.2430  173.6620  144.5900 C   0  0  1  0  0  3  0  0  0  0  0  0
  189.6800  175.0770  144.6040 C   0  0  1  0  0  3  0  0  0  0  0  0
  189.7330  174.2390  145.8740 C   0  0  1  0  0  3  0  0  0  0  0  0
  190.6500  177.1520  147.7620 C   0  0  0  0  0  2  0  0  0  0  0  0
  191.6530  176.0160  147.6140 C   0  0  0  0  0  2  0  0  0  0  0  0
  193.0210  176.5660  147.2420 C   0  0  0  0  0  2  0  0  0  0  0  0
  195.0940  173.3320  144.7810 C   0  0  0  0  0  3  0  0  0  0  0  0
  194.4880  176.3010  145.1870 C   0  0  0  0  0  3  0  0  0  0  0  0
  193.7170  175.6660  146.2730 C   0  0  0  0  0  0  0  0  0  0  0  0
  195.5260  175.7490  144.5600 C   0  0  0  0  0  3  0  0  0  0  0  0
  193.9310  173.2920  145.4300 C   0  0  0  0  0  0  0  0  0  0  0  0
  193.4520  174.3530  146.3420 C   0  0  0  0  0  3  0  0  0  0  0  0
  196.0930  174.4260  144.9460 C   0  0  0  0  0  2  0  0  0  0  0  0
  193.1550  172.1940  145.2780 F   0  0  0  0  0  0  0  0  0  0  0  0
  2  9  2  0  0  0  0
  4 29  1  0  0  0  0
  4  3  1  0  0  0  0
  5 17  1  6  0  0  0
  5 26  1  0  0  0  0
  6 13  1  1  0  0  0
  6 16  1  0  0  0  0
  7 31  2  0  0  0  0
  8  7  1  0  0  0  0
  8 12  2  0  0  0  0
 11 23  1  1  0  0  0
 11  1  1  0  0  0  0
 12  3  1  0  0  0  0
 12 18  1  0  0  0  0
 14 16  1  0  0  0  0
 15 14  1  0  0  0  0
 15  6  1  0  0  0  0
 16 23  1  0  0  0  0
 18 19  1  0  0  0  0
 19  5  1  0  0  0  0
 19  2  1  6  0  0  0
 20  2  1  0  0  0  0
 21 14  2  0  0  0  0
 21 32  1  0  0  0  0
 24 10  1  0  0  0  0
 25  1  1  6  0  0  0
 25 30  1  0  0  0  0
 26 27  1  0  0  0  0
 28 26  2  0  0  0  0
 28 37  1  0  0  0  0
 29 24  1  6  0  0  0
 29 11  1  0  0  0  0
 30 17  1  6  0  0  0
 30 28  1  0  0  0  0
 31 18  1  0  0  0  0
 31 20  1  0  0  0  0
 32 10  2  0  0  0  0
 32 22  1  0  0  0  0
 34 35  1  0  0  0  0
 34 33  1  6  0  0  0
 34 36  1  0  0  0  0
 35 25  1  1  0  0  0
 35 36  1  0  0  0  0
 36 33  1  6  0  0  0
 38 37  1  0  0  0  0
 39 38  1  0  0  0  0
 40 46  1  0  0  0  0
 40 44  2  0  0  0  0
 41 42  1  0  0  0  0
 42 45  2  0  0  0  0
 42 39  1  0  0  0  0
 43 46  1  0  0  0  0
 43 41  2  0  0  0  0
 44 45  1  0  0  0  0
 47 44  1  0  0  0  0
M  END
>  <MODEL>
1

>  <REMARK>
 VINA RESULT:      -8.8      0.000      0.000
  Name = 
  5 active torsions:
  status: ('A' for Active; 'I' for Inactive)
    1  A    between atoms: C_5  and  C_30
    2  A    between atoms: C_19  and  C_31
    3  A    between atoms: C_19  and  C_42
    4  A    between atoms: C_30  and  C_31
    5  A    between atoms: C_37  and  N_38
                            x       y       z     vdW  Elec       q    Type
                         _______ _______ _______ _____ _____    ______ ____

>  <TORSDO>
F 5

$$$$
=
 OpenBabel11042415233D

 47 55  0  0  1  0  0  0  0  0999 V2000
  192.5320  174.9160  141.6160 C   0  0  0  0  0  2  0  0  0  0  0  0
  188.4400  176.6450  146.0690 C   0  0  0  0  0  0  0  0  0  0  0  0
  189.5830  175.1220  142.0530 N   0  0  0  0  0  2  0  0  0  0  0  0
  189.6040  174.5410  140.7790 N   0  0  0  0  0  2  0  0  0  0  0  0
  190.6700  176.3110  144.8510 C   0  0  1  0  0  3  0  0  0  0  0  0
  193.7470  172.8280  137.8310 C   0  0  1  0  0  3  0  0  0  0  0  0
  186.3480  176.2540  143.1380 C   0  0  0  0  0  3  0  0  0  0  0  0
  187.1650  175.7430  142.1200 C   0  0  0  0  0  3  0  0  0  0  0  0
  188.7890  176.7150  147.2750 O   0  0  0  0  0  0  0  0  0  0  0  0
  190.3160  171.0360  140.3530 N   0  0  0  0  0  0  0  0  0  0  0  0
  192.0060  173.8740  140.6080 C   0  0  1  0  0  3  0  0  0  0  0  0
  188.4730  175.8530  142.5760 C   0  0  0  0  0  0  0  0  0  0  0  0
  195.1800  172.6270  137.9780 N   0  0  0  0  0  1  0  0  0  0  0  0
  192.4380  171.2970  138.1890 C   0  0  0  0  0  0  0  0  0  0  0  0
  193.1940  171.7980  137.0010 C   0  0  0  0  0  2  0  0  0  0  0  0
  193.0620  172.3530  139.0140 N   0  0  0  0  0  0  0  0  0  0  0  0
  191.3450  176.3610  143.6120 N   0  0  0  0  0  2  0  0  0  0  0  0
  188.4820  176.4600  143.7770 N   0  0  0  0  0  0  0  0  0  0  0  0
  189.3310  176.4400  144.9150 C   0  0  2  0  0  3  0  0  0  0  0  0
  187.0190  176.8330  145.5970 C   0  0  0  0  0  2  0  0  0  0  0  0
  191.5870  170.2990  138.4100 C   0  0  0  0  0  3  0  0  0  0  0  0
  190.9900  168.7900  140.2970 N   0  0  0  0  0  1  0  0  0  0  0  0
  193.0140  172.7460  140.4130 C   0  0  0  0  0  2  0  0  0  0  0  0
  190.1040  172.3780  139.8210 C   0  0  0  0  0  2  0  0  0  0  0  0
  192.7720  174.5110  143.0240 N   0  0  1  0  0  0  0  0  0  0  0  0
  191.6430  175.9650  145.8850 C   0  0  0  0  0  0  0  0  0  0  0  0
  191.4580  176.0290  147.3630 C   0  0  0  0  0  1  0  0  0  0  0  0
  192.7930  175.6470  145.2790 C   0  0  0  0  0  0  0  0  0  0  0  0
  190.5400  173.4180  140.8380 C   0  0  2  0  0  3  0  0  0  0  0  0
  192.6650  175.7820  143.7800 C   0  0  2  0  0  3  0  0  0  0  0  0
  187.2230  176.6670  144.1250 C   0  0  0  0  0  0  0  0  0  0  0  0
  190.9460  170.0890  139.7220 C   0  0  0  0  0  0  0  0  0  0  0  0
  191.8810  171.2570  144.4460 C   0  0  0  0  0  2  0  0  0  0  0  0
  192.2710  172.1130  143.2580 C   0  0  1  0  0  3  0  0  0  0  0  0
  191.7770  173.5330  143.4990 C   0  0  1  0  0  3  0  0  0  0  0  0
  192.3350  172.6900  144.6380 C   0  0  1  0  0  3  0  0  0  0  0  0
  194.1050  175.4480  145.9750 C   0  0  0  0  0  2  0  0  0  0  0  0
  195.2770  175.5360  145.0060 C   0  0  0  0  0  2  0  0  0  0  0  0
  196.3590  174.5410  145.3970 C   0  0  0  0  0  2  0  0  0  0  0  0
  195.7120  170.1420  144.3750 C   0  0  0  0  0  3  0  0  0  0  0  0
  195.8130  173.0440  143.4200 C   0  0  0  0  0  3  0  0  0  0  0  0
  196.0490  173.1770  144.8700 C   0  0  0  0  0  0  0  0  0  0  0  0
  196.0100  171.9340  142.7100 C   0  0  0  0  0  3  0  0  0  0  0  0
  195.4050  170.8100  145.4870 C   0  0  0  0  0  0  0  0  0  0  0  0
  195.8300  172.2000  145.7630 C   0  0  0  0  0  3  0  0  0  0  0  0
  196.5820  170.6900  143.2970 C   0  0  0  0  0  2  0  0  0  0  0  0
  194.6930  170.1660  146.4410 F   0  0  0  0  0  0  0  0  0  0  0  0
  2  9  2  0  0  0  0
  3 12  1  0  0  0  0
  4 29  1  0  0  0  0
  4  3  1  0  0  0  0
  5 17  1  6  0  0  0
  5 19  1  0  0  0  0
  5 26  1  0  0  0  0
  6 13  1  1  0  0  0
  6 16  1  0  0  0  0
  7 31  2  0  0  0  0
  8 12  2  0  0  0  0
  8  7  1  0  0  0  0
 11 23  1  1  0  0  0
 11 29  1  0  0  0  0
 11  1  1  0  0  0  0
 12 18  1  0  0  0  0
 14 21  2  0  0  0  0
 14 16  1  0  0  0  0
 15  6  1  0  0  0  0
 15 14  1  0  0  0  0
 16 23  1  0  0  0  0
 18 31  1  0  0  0  0
 18 19  1  0  0  0  0
 19  2  1  6  0  0  0
 20  2  1  0  0  0  0
 21 32  1  0  0  0  0
 24 10  1  0  0  0  0
 25  1  1  6  0  0  0
 25 30  1  0  0  0  0
 26 27  1  0  0  0  0
 28 26  2  0  0  0  0
 28 37  1  0  0  0  0
 29 24  1  6  0  0  0
 30 17  1  1  0  0  0
 30 28  1  0  0  0  0
 31 20  1  0  0  0  0
 32 22  1  0  0  0  0
 32 10  2  0  0  0  0
 34 35  1  0  0  0  0
 34 33  1  1  0  0  0
 34 36  1  0  0  0  0
 35 25  1  6  0  0  0
 35 36  1  0  0  0  0
 36 33  1  1  0  0  0
 38 39  1  0  0  0  0
 38 37  1  0  0  0  0
 40 44  2  0  0  0  0
 41 42  1  0  0  0  0
 42 39  1  0  0  0  0
 42 45  2  0  0  0  0
 43 46  1  0  0  0  0
 43 41  2  0  0  0  0
 44 45  1  0  0  0  0
 44 47  1  0  0  0  0
 46 40  1  0  0  0  0
M  END
>  <MODEL>
2

>  <REMARK>
 VINA RESULT:      -8.4      1.946      3.045
  Name = 
  5 active torsions:
  status: ('A' for Active; 'I' for Inactive)
    1  A    between atoms: C_5  and  C_30
    2  A    between atoms: C_19  and  C_31
    3  A    between atoms: C_19  and  C_42
    4  A    between atoms: C_30  and  C_31
    5  A    between atoms: C_37  and  N_38
                            x       y       z     vdW  Elec       q    Type
                         _______ _______ _______ _____ _____    ______ ____

>  <TORSDO>
F 5

$$$$
=
 OpenBabel11042415233D

 47 55  0  0  1  0  0  0  0  0999 V2000
  191.8670  175.5570  142.6550 C   0  0  0  0  0  2  0  0  0  0  0  0
  186.4810  178.1190  144.6540 C   0  0  0  0  0  0  0  0  0  0  0  0
  189.0580  175.9830  141.7290 N   0  0  0  0  0  2  0  0  0  0  0  0
  189.5580  175.2270  140.6610 N   0  0  0  0  0  2  0  0  0  0  0  0
  188.9660  177.4950  144.5800 C   0  0  1  0  0  3  0  0  0  0  0  0
  194.3450  172.8920  140.0250 C   0  0  1  0  0  3  0  0  0  0  0  0
  185.8170  177.4320  141.1600 C   0  0  0  0  0  3  0  0  0  0  0  0
  186.9290  176.7390  140.6640 C   0  0  0  0  0  3  0  0  0  0  0  0
  186.2860  178.3390  145.8760 O   0  0  0  0  0  0  0  0  0  0  0  0
  189.9900  171.6640  140.9560 N   0  0  0  0  0  0  0  0  0  0  0  0
  191.7120  174.4130  141.6310 C   0  0  1  0  0  3  0  0  0  0  0  0
  187.9190  176.8410  141.6330 C   0  0  0  0  0  0  0  0  0  0  0  0
  195.5460  172.6360  140.8050 N   0  0  0  0  0  1  0  0  0  0  0  0
  192.8490  171.5010  139.9290 C   0  0  0  0  0  0  0  0  0  0  0  0
  194.0910  171.7870  139.1480 C   0  0  0  0  0  2  0  0  0  0  0  0
  193.1730  172.6270  140.8300 N   0  0  0  0  0  0  0  0  0  0  0  0
  190.1070  177.3320  143.7650 N   0  0  0  0  0  2  0  0  0  0  0  0
  187.4800  177.6090  142.6460 N   0  0  0  0  0  0  0  0  0  0  0  0
  187.7510  177.7050  144.0370 C   0  0  2  0  0  3  0  0  0  0  0  0
  185.4290  178.3150  143.5900 C   0  0  0  0  0  2  0  0  0  0  0  0
  191.8810  170.5920  139.8560 C   0  0  0  0  0  3  0  0  0  0  0  0
  190.3710  169.4000  141.4340 N   0  0  0  0  0  1  0  0  0  0  0  0
  192.5740  173.2160  142.0160 C   0  0  0  0  0  2  0  0  0  0  0  0
  190.1760  172.9270  140.2490 C   0  0  0  0  0  2  0  0  0  0  0  0
  191.4350  175.3430  144.0580 N   0  0  1  0  0  0  0  0  0  0  0  0
  189.3580  177.2470  145.9660 C   0  0  0  0  0  0  0  0  0  0  0  0
  188.5670  177.5280  147.1980 C   0  0  0  0  0  1  0  0  0  0  0  0
  190.6140  176.7840  145.9630 C   0  0  0  0  0  0  0  0  0  0  0  0
  190.2470  174.0750  141.2410 C   0  0  2  0  0  3  0  0  0  0  0  0
  191.1560  176.7120  144.5550 C   0  0  2  0  0  3  0  0  0  0  0  0
  186.2250  177.9320  142.3830 C   0  0  0  0  0  0  0  0  0  0  0  0
  190.7210  170.6050  140.7680 C   0  0  0  0  0  0  0  0  0  0  0  0
  189.6530  172.3990  145.3090 C   0  0  0  0  0  2  0  0  0  0  0  0
  190.6190  173.0380  144.3310 C   0  0  1  0  0  3  0  0  0  0  0  0
  190.2310  174.4980  144.1470 C   0  0  1  0  0  3  0  0  0  0  0  0
  190.1320  173.8230  145.5090 C   0  0  1  0  0  3  0  0  0  0  0  0
  191.4710  176.6140  147.1810 C   0  0  0  0  0  2  0  0  0  0  0  0
  192.6740  175.7220  146.9040 C   0  0  0  0  0  2  0  0  0  0  0  0
  193.9300  176.5660  146.7480 C   0  0  0  0  0  2  0  0  0  0  0  0
  196.4910  174.9730  143.3250 C   0  0  0  0  0  3  0  0  0  0  0  0
  195.6040  174.7260  146.2410 C   0  0  0  0  0  3  0  0  0  0  0  0
  194.8850  175.9330  145.7890 C   0  0  0  0  0  0  0  0  0  0  0  0
  196.0820  173.7740  145.4400 C   0  0  0  0  0  3  0  0  0  0  0  0
  196.1480  176.2270  143.6180 C   0  0  0  0  0  0  0  0  0  0  0  0
  195.1630  176.5970  144.6570 C   0  0  0  0  0  3  0  0  0  0  0  0
  195.8710  173.7780  143.9650 C   0  0  0  0  0  2  0  0  0  0  0  0
  196.7070  177.2250  142.8940 F   0  0  0  0  0  0  0  0  0  0  0  0
  2  9  2  0  0  0  0
  4 29  1  0  0  0  0
  4  3  1  0  0  0  0
  5 17  1  6  0  0  0
  5 26  1  0  0  0  0
  6 13  1  1  0  0  0
  6 16  1  0  0  0  0
  7 31  2  0  0  0  0
  8  7  1  0  0  0  0
  8 12  2  0  0  0  0
 11 23  1  1  0  0  0
 11  1  1  0  0  0  0
 12  3  1  0  0  0  0
 12 18  1  0  0  0  0
 14 16  1  0  0  0  0
 15 14  1  0  0  0  0
 15  6  1  0  0  0  0
 16 23  1  0  0  0  0
 18 19  1  0  0  0  0
 19  5  1  0  0  0  0
 19  2  1  6  0  0  0
 20  2  1  0  0  0  0
 21 14  2  0  0  0  0
 21 32  1  0  0  0  0
 24 10  1  0  0  0  0
 25  1  1  6  0  0  0
 25 30  1  0  0  0  0
 26 27  1  0  0  0  0
 28 26  2  0  0  0  0
 28 37  1  0  0  0  0
 29 24  1  6  0  0  0
 29 11  1  0  0  0  0
 30 17  1  6  0  0  0
 30 28  1  0  0  0  0
 31 18  1  0  0  0  0
 31 20  1  0  0  0  0
 32 10  2  0  0  0  0
 32 22  1  0  0  0  0
 34 33  1  6  0  0  0
 34 36  1  0  0  0  0
 35 25  1  1  0  0  0
 35 34  1  0  0  0  0
 35 36  1  0  0  0  0
 36 33  1  6  0  0  0
 38 37  1  0  0  0  0
 39 38  1  0  0  0  0
 40 44  2  0  0  0  0
 40 46  1  0  0  0  0
 42 41  1  0  0  0  0
 42 39  1  0  0  0  0
 43 41  2  0  0  0  0
 44 45  1  0  0  0  0
 45 42  2  0  0  0  0
 46 43  1  0  0  0  0
 47 44  1  0  0  0  0
M  END
>  <MODEL>
3

>  <REMARK>
 VINA RESULT:      -8.4      1.418      1.718
  Name = 
  5 active torsions:
  status: ('A' for Active; 'I' for Inactive)
    1  A    between atoms: C_5  and  C_30
    2  A    between atoms: C_19  and  C_31
    3  A    between atoms: C_19  and  C_42
    4  A    between atoms: C_30  and  C_31
    5  A    between atoms: C_37  and  N_38
                            x       y       z     vdW  Elec       q    Type
                         _______ _______ _______ _____ _____    ______ ____

>  <TORSDO>
F 5

$$$$
=
 OpenBabel11042415233D

 47 55  0  0  1  0  0  0  0  0999 V2000
  189.2820  174.3970  143.7500 C   0  0  0  0  0  2  0  0  0  0  0  0
  184.5600  178.4440  144.6920 C   0  0  0  0  0  0  0  0  0  0  0  0
  188.0090  175.9460  145.9650 N   0  0  0  0  0  2  0  0  0  0  0  0
  189.0810  175.3650  146.6550 N   0  0  0  0  0  2  0  0  0  0  0  0
  186.0750  176.7490  143.5080 C   0  0  1  0  0  3  0  0  0  0  0  0
  193.1200  172.3380  144.8390 C   0  0  1  0  0  3  0  0  0  0  0  0
  185.5790  177.5730  148.0570 C   0  0  0  0  0  3  0  0  0  0  0  0
  186.7190  176.7660  147.9410 C   0  0  0  0  0  3  0  0  0  0  0  0
  184.0600  179.0870  143.7340 O   0  0  0  0  0  0  0  0  0  0  0  0
  192.4240  176.6600  146.3130 N   0  0  0  0  0  0  0  0  0  0  0  0
  190.4510  174.5050  144.7500 C   0  0  1  0  0  3  0  0  0  0  0  0
  186.8200  176.4220  146.5980 C   0  0  0  0  0  0  0  0  0  0  0  0
  193.6600  171.8900  143.5640 N   0  0  0  0  0  1  0  0  0  0  0  0
  193.8380  174.0290  145.7390 C   0  0  0  0  0  0  0  0  0  0  0  0
  194.1900  172.5760  145.7630 C   0  0  0  0  0  2  0  0  0  0  0  0
  192.7710  173.7390  144.7580 N   0  0  0  0  0  0  0  0  0  0  0  0
  186.8030  175.5460  143.6300 N   0  0  0  0  0  2  0  0  0  0  0  0
  185.7690  176.9240  145.9240 N   0  0  0  0  0  0  0  0  0  0  0  0
  185.5280  177.3400  144.5880 C   0  0  2  0  0  3  0  0  0  0  0  0
  184.1820  178.6660  146.1360 C   0  0  0  0  0  2  0  0  0  0  0  0
  194.3120  175.1220  146.3300 C   0  0  0  0  0  3  0  0  0  0  0  0
  194.5350  177.5410  145.7920 N   0  0  0  0  0  1  0  0  0  0  0  0
  191.7910  174.5230  144.0230 C   0  0  0  0  0  2  0  0  0  0  0  0
  191.4780  175.6510  146.7770 C   0  0  0  0  0  2  0  0  0  0  0  0
  189.0540  175.4920  142.7740 N   0  0  1  0  0  0  0  0  0  0  0  0
  186.1920  177.2130  142.1270 C   0  0  0  0  0  0  0  0  0  0  0  0
  185.4110  178.2960  141.4640 C   0  0  0  0  0  1  0  0  0  0  0  0
  187.0850  176.4350  141.5050 C   0  0  0  0  0  0  0  0  0  0  0  0
  190.2790  175.5910  145.8470 C   0  0  2  0  0  3  0  0  0  0  0  0
  187.6150  175.3730  142.4390 C   0  0  2  0  0  3  0  0  0  0  0  0
  185.0530  177.6330  146.7800 C   0  0  0  0  0  0  0  0  0  0  0  0
  193.6960  176.4480  146.1400 C   0  0  0  0  0  0  0  0  0  0  0  0
  190.8790  178.6660  142.7630 C   0  0  0  0  0  2  0  0  0  0  0  0
  190.8070  177.1890  143.0950 C   0  0  1  0  0  3  0  0  0  0  0  0
  189.3520  176.8170  143.3450 C   0  0  1  0  0  3  0  0  0  0  0  0
  189.7340  177.8110  142.2570 C   0  0  1  0  0  3  0  0  0  0  0  0
  187.3370  176.4270  140.0270 C   0  0  0  0  0  2  0  0  0  0  0  0
  187.8160  175.0640  139.5450 C   0  0  0  0  0  2  0  0  0  0  0  0
  187.7590  174.9940  138.0270 C   0  0  0  0  0  2  0  0  0  0  0  0
  190.8270  171.7520  137.0820 C   0  0  0  0  0  3  0  0  0  0  0  0
  189.3170  174.2480  136.1660 C   0  0  0  0  0  3  0  0  0  0  0  0
  188.7370  173.9940  137.4990 C   0  0  0  0  0  0  0  0  0  0  0  0
  190.4990  173.7980  135.7470 C   0  0  0  0  0  3  0  0  0  0  0  0
  189.7080  171.6790  137.8030 C   0  0  0  0  0  0  0  0  0  0  0  0
  188.8890  172.8510  138.1830 C   0  0  0  0  0  3  0  0  0  0  0  0
  191.4310  173.0350  136.6240 C   0  0  0  0  0  2  0  0  0  0  0  0
  189.3160  170.4630  138.2490 F   0  0  0  0  0  0  0  0  0  0  0  0
  2 20  1  0  0  0  0
  3 12  1  0  0  0  0
  3  4  1  0  0  0  0
  5 26  1  1  0  0  0
  5 17  1  0  0  0  0
  5 19  1  0  0  0  0
  6 13  1  6  0  0  0
  6 15  1  0  0  0  0
  8  7  1  0  0  0  0
  9  2  2  0  0  0  0
 10 24  1  0  0  0  0
 11  1  1  6  0  0  0
 11 29  1  0  0  0  0
 12  8  2  0  0  0  0
 14 15  1  0  0  0  0
 14 21  2  0  0  0  0
 16  6  1  0  0  0  0
 16 14  1  0  0  0  0
 18 12  1  0  0  0  0
 18 31  1  0  0  0  0
 19  2  1  6  0  0  0
 19 18  1  0  0  0  0
 20 31  1  0  0  0  0
 22 32  1  0  0  0  0
 23 11  1  0  0  0  0
 23 16  1  0  0  0  0
 25  1  1  1  0  0  0
 27 26  1  0  0  0  0
 28 26  2  0  0  0  0
 29  4  1  0  0  0  0
 29 24  1  1  0  0  0
 30 28  1  6  0  0  0
 30 25  1  0  0  0  0
 30 17  1  0  0  0  0
 31  7  2  0  0  0  0
 32 10  2  0  0  0  0
 32 21  1  0  0  0  0
 34 33  1  1  0  0  0
 34 35  1  0  0  0  0
 35 25  1  6  0  0  0
 36 33  1  1  0  0  0
 36 34  1  0  0  0  0
 36 35  1  0  0  0  0
 37 28  1  0  0  0  0
 38 37  1  0  0  0  0
 39 38  1  0  0  0  0
 40 44  2  0  0  0  0
 41 42  1  0  0  0  0
 42 39  1  0  0  0  0
 42 45  2  0  0  0  0
 43 41  2  0  0  0  0
 43 46  1  0  0  0  0
 44 45  1  0  0  0  0
 44 47  1  0  0  0  0
 46 40  1  0  0  0  0
M  END
>  <MODEL>
4

>  <REMARK>
 VINA RESULT:      -8.2      2.628      6.339
  Name = 
  5 active torsions:
  status: ('A' for Active; 'I' for Inactive)
    1  A    between atoms: C_5  and  C_30
    2  A    between atoms: C_19  and  C_31
    3  A    between atoms: C_19  and  C_42
    4  A    between atoms: C_30  and  C_31
    5  A    between atoms: C_37  and  N_38
                            x       y       z     vdW  Elec       q    Type
                         _______ _______ _______ _____ _____    ______ ____

>  <TORSDO>
F 5

$$$$
=
 OpenBabel11042415233D

 47 55  0  0  1  0  0  0  0  0999 V2000
  190.4580  172.5020  143.3170 C   0  0  0  0  0  2  0  0  0  0  0  0
  192.0060  170.9020  137.4340 C   0  0  0  0  0  0  0  0  0  0  0  0
  189.6670  173.1110  140.5000 N   0  0  0  0  0  2  0  0  0  0  0  0
  188.8390  174.0080  141.1880 N   0  0  0  0  0  2  0  0  0  0  0  0
  191.9310  170.8650  139.9960 C   0  0  0  0  0  0  0  0  0  0  0  0
  188.5660  175.1300  146.4270 C   0  0  1  0  0  3  0  0  0  0  0  0
  188.9410  172.7810  136.9940 C   0  0  0  0  0  3  0  0  0  0  0  0
  188.5910  173.2890  138.2530 C   0  0  0  0  0  3  0  0  0  0  0  0
  193.1170  170.3700  137.1810 O   0  0  0  0  0  0  0  0  0  0  0  0
  190.1560  177.0720  142.5480 N   0  0  0  0  0  0  0  0  0  0  0  0
  189.8400  173.9060  143.4760 C   0  0  1  0  0  3  0  0  0  0  0  0
  189.4070  172.6440  139.1760 C   0  0  0  0  0  0  0  0  0  0  0  0
  189.2920  174.8180  147.6480 N   0  0  0  0  0  1  0  0  0  0  0  0
  189.0070  176.8140  145.3540 C   0  0  0  0  0  0  0  0  0  0  0  0
  188.0840  176.4790  146.4800 C   0  0  0  0  0  2  0  0  0  0  0  0
  189.5010  175.4210  145.3620 N   0  0  0  0  0  0  0  0  0  0  0  0
  191.1170  170.9780  141.1440 N   0  0  0  0  0  0  0  0  0  0  0  0
  190.1730  171.7370  138.5430 N   0  0  0  0  0  0  0  0  0  0  0  0
  191.4450  171.1500  138.7720 C   0  0  2  0  0  3  0  0  0  0  0  0
  191.0170  171.3180  136.3730 C   0  0  0  0  0  2  0  0  0  0  0  0
  189.2860  177.9160  144.6610 C   0  0  0  0  0  3  0  0  0  0  0  0
  191.2600  178.9020  143.5130 N   0  0  0  0  0  1  0  0  0  0  0  0
  190.4990  174.6660  144.6230 C   0  0  0  0  0  2  0  0  0  0  0  0
  189.0900  176.0860  142.3970 C   0  0  0  0  0  2  0  0  0  0  0  0
  191.8900  172.3730  142.9490 N   0  0  1  0  0  0  0  0  0  0  0  0
  193.2930  170.5650  140.4320 C   0  0  0  0  0  0  0  0  0  0  0  0
  194.4410  170.1260  139.5870 C   0  0  0  0  0  1  0  0  0  0  0  0
  193.3320  170.6720  141.7660 C   0  0  0  0  0  0  0  0  0  0  0  0
  189.6830  174.7090  142.1560 C   0  0  2  0  0  3  0  0  0  0  0  0
  191.9730  171.0360  142.3150 C   0  0  2  0  0  3  0  0  0  0  0  0
  189.9220  171.8410  137.2490 C   0  0  0  0  0  0  0  0  0  0  0  0
  190.2380  177.9150  143.5350 C   0  0  0  0  0  0  0  0  0  0  0  0
  194.1020  175.1340  142.0040 C   0  0  0  0  0  2  0  0  0  0  0  0
  192.9060  174.6070  142.7720 C   0  0  1  0  0  3  0  0  0  0  0  0
  192.3210  173.4250  142.0120 C   0  0  1  0  0  3  0  0  0  0  0  0
  193.8260  173.6460  142.0860 C   0  0  1  0  0  3  0  0  0  0  0  0
  194.4750  170.2330  142.6300 C   0  0  0  0  0  2  0  0  0  0  0  0
  194.0570  170.0900  144.0880 C   0  0  0  0  0  2  0  0  0  0  0  0
  195.2550  170.3000  145.0020 C   0  0  0  0  0  2  0  0  0  0  0  0
  195.1260  174.7970  145.7530 C   0  0  0  0  0  3  0  0  0  0  0  0
  196.7470  172.2050  145.7670 C   0  0  0  0  0  3  0  0  0  0  0  0
  195.4050  171.7410  145.3670 C   0  0  0  0  0  0  0  0  0  0  0  0
  197.1910  173.4560  145.6500 C   0  0  0  0  0  3  0  0  0  0  0  0
  194.1780  173.8780  145.9330 C   0  0  0  0  0  0  0  0  0  0  0  0
  194.2880  172.4740  145.4820 C   0  0  0  0  0  3  0  0  0  0  0  0
  196.3940  174.5410  145.0130 C   0  0  0  0  0  2  0  0  0  0  0  0
  193.0250  174.2610  146.5310 F   0  0  0  0  0  0  0  0  0  0  0  0
  3  4  1  0  0  0  0
  4 29  1  0  0  0  0
  5 26  1  0  0  0  0
  5 17  2  0  0  0  0
  6 15  1  0  0  0  0
  6 13  1  1  0  0  0
  7 31  2  0  0  0  0
  7  8  1  0  0  0  0
  8 12  2  0  0  0  0
  9  2  2  0  0  0  0
 10 32  2  0  0  0  0
 11  1  1  6  0  0  0
 11 23  1  0  0  0  0
 12  3  1  0  0  0  0
 14 16  1  0  0  0  0
 14 15  1  0  0  0  0
 16  6  1  0  0  0  0
 18 19  1  0  0  0  0
 18 12  1  0  0  0  0
 19  2  1  6  0  0  0
 19  5  1  0  0  0  0
 20 31  1  0  0  0  0
 20  2  1  0  0  0  0
 21 14  2  0  0  0  0
 22 32  1  0  0  0  0
 23 16  1  0  0  0  0
 24 10  1  0  0  0  0
 25  1  1  6  0  0  0
 26 28  2  0  0  0  0
 27 26  1  0  0  0  0
 28 30  1  0  0  0  0
 28 37  1  0  0  0  0
 29 24  1  1  0  0  0
 29 11  1  0  0  0  0
 30 17  1  6  0  0  0
 30 25  1  0  0  0  0
 31 18  1  0  0  0  0
 32 21  1  0  0  0  0
 34 33  1  6  0  0  0
 35 36  1  0  0  0  0
 35 34  1  0  0  0  0
 35 25  1  1  0  0  0
 36 33  1  6  0  0  0
 36 34  1  0  0  0  0
 37 38  1  0  0  0  0
 38 39  1  0  0  0  0
 39 42  1  0  0  0  0
 40 44  2  0  0  0  0
 42 45  2  0  0  0  0
 42 41  1  0  0  0  0
 43 41  2  0  0  0  0
 44 47  1  0  0  0  0
 45 44  1  0  0  0  0
 46 43  1  0  0  0  0
 46 40  1  0  0  0  0
M  END
>  <MODEL>
5

>  <REMARK>
 VINA RESULT:      -8.0      3.111      7.228
  Name = 
  5 active torsions:
  status: ('A' for Active; 'I' for Inactive)
    1  A    between atoms: C_5  and  C_30
    2  A    between atoms: C_19  and  C_31
    3  A    between atoms: C_19  and  C_42
    4  A    between atoms: C_30  and  C_31
    5  A    between atoms: C_37  and  N_38
                            x       y       z     vdW  Elec       q    Type
                         _______ _______ _______ _____ _____    ______ ____

>  <TORSDO>
F 5

$$$$
=
 OpenBabel11042415233D

 47 55  0  0  1  0  0  0  0  0999 V2000
  191.8810  172.2290  144.1060 C   0  0  0  0  0  2  0  0  0  0  0  0
  187.8430  177.0290  143.6340 C   0  0  0  0  0  0  0  0  0  0  0  0
  191.1890  174.7780  145.5030 N   0  0  0  0  0  2  0  0  0  0  0  0
  192.3010  174.3790  146.2560 N   0  0  0  0  0  2  0  0  0  0  0  0
  188.9400  174.7570  143.1860 C   0  0  1  0  0  3  0  0  0  0  0  0
  195.6190  170.2200  145.5700 C   0  0  1  0  0  3  0  0  0  0  0  0
  189.3500  177.5410  146.8880 C   0  0  0  0  0  3  0  0  0  0  0  0
  190.3620  176.5810  147.0230 C   0  0  0  0  0  3  0  0  0  0  0  0
  187.2490  177.2690  142.5520 O   0  0  0  0  0  0  0  0  0  0  0  0
  195.6440  174.8030  144.9870 N   0  0  0  0  0  0  0  0  0  0  0  0
  193.2140  172.5570  144.8090 C   0  0  1  0  0  3  0  0  0  0  0  0
  190.1860  175.6770  145.9810 C   0  0  0  0  0  0  0  0  0  0  0  0
  195.8750  169.1790  144.5860 N   0  0  0  0  0  1  0  0  0  0  0  0
  196.6560  171.9830  145.5150 C   0  0  0  0  0  0  0  0  0  0  0  0
  196.8550  170.6480  146.1570 C   0  0  0  0  0  2  0  0  0  0  0  0
  195.4070  171.4850  144.9010 N   0  0  0  0  0  0  0  0  0  0  0  0
  189.5510  173.6200  143.7590 N   0  0  0  0  0  2  0  0  0  0  0  0
  189.0900  176.0100  145.2760 N   0  0  0  0  0  0  0  0  0  0  0  0
  188.6590  175.8410  143.9340 C   0  0  2  0  0  3  0  0  0  0  0  0
  187.7530  177.9160  144.8520 C   0  0  0  0  0  2  0  0  0  0  0  0
  197.3380  173.1250  145.4880 C   0  0  0  0  0  3  0  0  0  0  0  0
  197.7080  174.9940  143.8880 N   0  0  0  0  0  1  0  0  0  0  0  0
  194.3980  172.0280  144.0070 C   0  0  0  0  0  2  0  0  0  0  0  0
  194.6980  174.2730  145.9630 C   0  0  0  0  0  2  0  0  0  0  0  0
  191.5960  172.8150  142.7720 N   0  0  1  0  0  0  0  0  0  0  0  0
  188.8570  174.5490  141.7420 C   0  0  0  0  0  0  0  0  0  0  0  0
  188.0850  175.3540  140.7530 C   0  0  0  0  0  1  0  0  0  0  0  0
  189.5400  173.4380  141.4450 C   0  0  0  0  0  0  0  0  0  0  0  0
  193.3530  174.0230  145.3040 C   0  0  2  0  0  3  0  0  0  0  0  0
  190.1160  172.8120  142.6930 C   0  0  2  0  0  3  0  0  0  0  0  0
  188.6140  177.1320  145.7920 C   0  0  0  0  0  0  0  0  0  0  0  0
  196.8360  174.3220  144.7870 C   0  0  0  0  0  0  0  0  0  0  0  0
  193.6670  175.3170  141.0830 C   0  0  0  0  0  2  0  0  0  0  0  0
  193.5270  174.1560  142.0480 C   0  0  1  0  0  3  0  0  0  0  0  0
  192.1250  174.1840  142.6400 C   0  0  1  0  0  3  0  0  0  0  0  0
  192.3690  174.5410  141.1810 C   0  0  1  0  0  3  0  0  0  0  0  0
  189.5230  172.7470  140.1150 C   0  0  0  0  0  2  0  0  0  0  0  0
  190.0660  171.3280  140.2090 C   0  0  0  0  0  2  0  0  0  0  0  0
  190.8790  170.9920  138.9680 C   0  0  0  0  0  2  0  0  0  0  0  0
  195.2150  172.3990  138.7690 C   0  0  0  0  0  3  0  0  0  0  0  0
  193.0210  170.9500  140.3310 C   0  0  0  0  0  3  0  0  0  0  0  0
  192.3030  171.4160  139.1290 C   0  0  0  0  0  0  0  0  0  0  0  0
  194.3410  170.7920  140.4210 C   0  0  0  0  0  3  0  0  0  0  0  0
  194.1100  172.9790  138.2990 C   0  0  0  0  0  0  0  0  0  0  0  0
  192.7810  172.3310  138.2720 C   0  0  0  0  0  3  0  0  0  0  0  0
  195.2610  170.9950  139.2670 C   0  0  0  0  0  2  0  0  0  0  0  0
  194.2170  174.2230  137.7770 F   0  0  0  0  0  0  0  0  0  0  0  0
  1 11  1  0  0  0  0
  2 20  1  0  0  0  0
  3 12  1  0  0  0  0
  3  4  1  0  0  0  0
  5 26  1  6  0  0  0
  5 17  1  0  0  0  0
  5 19  1  0  0  0  0
  6 13  1  6  0  0  0
  6 15  1  0  0  0  0
  7  8  1  0  0  0  0
  9  2  2  0  0  0  0
 10 24  1  0  0  0  0
 11 23  1  6  0  0  0
 11 29  1  0  0  0  0
 12  8  2  0  0  0  0
 14 15  1  0  0  0  0
 16 14  1  0  0  0  0
 16  6  1  0  0  0  0
 18 31  1  0  0  0  0
 18 12  1  0  0  0  0
 19  2  1  1  0  0  0
 19 18  1  0  0  0  0
 20 31  1  0  0  0  0
 21 14  2  0  0  0  0
 22 32  1  0  0  0  0
 23 16  1  0  0  0  0
 25  1  1  1  0  0  0
 27 26  1  0  0  0  0
 28 26  2  0  0  0  0
 29 24  1  1  0  0  0
 29  4  1  0  0  0  0
 30 28  1  6  0  0  0
 30 25  1  0  0  0  0
 30 17  1  0  0  0  0
 31  7  2  0  0  0  0
 32 10  2  0  0  0  0
 32 21  1  0  0  0  0
 34 33  1  1  0  0  0
 34 35  1  0  0  0  0
 35 25  1  6  0  0  0
 36 33  1  1  0  0  0
 36 34  1  0  0  0  0
 36 35  1  0  0  0  0
 37 38  1  0  0  0  0
 37 28  1  0  0  0  0
 39 42  1  0  0  0  0
 39 38  1  0  0  0  0
 40 46  1  0  0  0  0
 41 43  2  0  0  0  0
 42 41  1  0  0  0  0
 44 40  2  0  0  0  0
 45 44  1  0  0  0  0
 45 42  2  0  0  0  0
 46 43  1  0  0  0  0
 47 44  1  0  0  0  0
M  END
>  <MODEL>
6

>  <REMARK>
 VINA RESULT:      -7.9      2.502      6.301
  Name = 
  5 active torsions:
  status: ('A' for Active; 'I' for Inactive)
    1  A    between atoms: C_5  and  C_30
    2  A    between atoms: C_19  and  C_31
    3  A    between atoms: C_19  and  C_42
    4  A    between atoms: C_30  and  C_31
    5  A    between atoms: C_37  and  N_38
                            x       y       z     vdW  Elec       q    Type
                         _______ _______ _______ _____ _____    ______ ____

>  <TORSDO>
F 5

$$$$
=
 OpenBabel11042415233D

 47 55  0  0  1  0  0  0  0  0999 V2000
  190.5550  174.8840  141.4410 C   0  0  0  0  0  2  0  0  0  0  0  0
  195.9870  172.3340  143.3290 C   0  0  0  0  0  0  0  0  0  0  0  0
  192.9360  175.5590  143.1160 N   0  0  0  0  0  2  0  0  0  0  0  0
  192.1530  176.7010  143.3290 N   0  0  0  0  0  2  0  0  0  0  0  0
  193.7910  172.6370  142.0410 C   0  0  1  0  0  3  0  0  0  0  0  0
  187.1780  177.8340  141.6690 C   0  0  1  0  0  3  0  0  0  0  0  0
  196.3040  175.7930  144.3530 C   0  0  0  0  0  3  0  0  0  0  0  0
  195.0750  176.4120  144.0830 C   0  0  0  0  0  3  0  0  0  0  0  0
  196.1660  171.0900  143.2830 O   0  0  0  0  0  0  0  0  0  0  0  0
  189.3350  176.6210  145.5710 N   0  0  0  0  0  0  0  0  0  0  0  0
  189.9630  175.9480  142.3880 C   0  0  1  0  0  3  0  0  0  0  0  0
  194.3520  175.5200  143.2990 C   0  0  0  0  0  0  0  0  0  0  0  0
  186.0740  177.1660  140.9990 N   0  0  0  0  0  1  0  0  0  0  0  0
  187.2820  177.8800  143.7120 C   0  0  0  0  0  0  0  0  0  0  0  0
  186.6700  178.7420  142.6550 C   0  0  0  0  0  2  0  0  0  0  0  0
  187.7540  176.9520  142.6620 N   0  0  0  0  0  0  0  0  0  0  0  0
  192.9410  173.5480  141.3770 N   0  0  0  0  0  2  0  0  0  0  0  0
  195.1060  174.4380  143.0350 N   0  0  0  0  0  0  0  0  0  0  0  0
  194.8510  173.0710  142.7500 C   0  0  2  0  0  3  0  0  0  0  0  0
  196.9700  173.2990  143.9440 C   0  0  0  0  0  2  0  0  0  0  0  0
  187.3450  177.9210  145.0400 C   0  0  0  0  0  3  0  0  0  0  0  0
  187.4420  176.2900  146.9160 N   0  0  0  0  0  1  0  0  0  0  0  0
  188.4800  175.6940  142.6350 C   0  0  0  0  0  2  0  0  0  0  0  0
  190.1480  177.2760  144.5510 C   0  0  0  0  0  2  0  0  0  0  0  0
  190.5840  173.4630  141.8680 N   0  0  1  0  0  0  0  0  0  0  0  0
  193.2110  171.3010  141.9180 C   0  0  0  0  0  0  0  0  0  0  0  0
  193.8570  169.9980  142.2450 C   0  0  0  0  0  1  0  0  0  0  0  0
  191.9960  171.4280  141.3730 C   0  0  0  0  0  0  0  0  0  0  0  0
  190.8050  176.2370  143.6610 C   0  0  2  0  0  3  0  0  0  0  0  0
  191.6900  172.8770  141.0730 C   0  0  2  0  0  3  0  0  0  0  0  0
  196.2490  174.5840  143.6860 C   0  0  0  0  0  0  0  0  0  0  0  0
  188.0940  176.9200  145.8220 C   0  0  0  0  0  0  0  0  0  0  0  0
  189.6910  172.2130  145.1920 C   0  0  0  0  0  2  0  0  0  0  0  0
  189.5330  173.2320  144.0810 C   0  0  1  0  0  3  0  0  0  0  0  0
  190.8440  173.3200  143.3120 C   0  0  1  0  0  3  0  0  0  0  0  0
  190.3270  171.9870  143.8350 C   0  0  1  0  0  3  0  0  0  0  0  0
  191.1550  170.2930  140.8720 C   0  0  0  0  0  2  0  0  0  0  0  0
  191.3770  170.0390  139.3870 C   0  0  0  0  0  2  0  0  0  0  0  0
  190.0660  170.1750  138.6280 C   0  0  0  0  0  2  0  0  0  0  0  0
  188.7960  174.3500  137.2990 C   0  0  0  0  0  3  0  0  0  0  0  0
  190.8990  172.1310  137.2420 C   0  0  0  0  0  3  0  0  0  0  0  0
  189.8710  171.5740  138.1410 C   0  0  0  0  0  0  0  0  0  0  0  0
  190.6930  173.0960  136.3460 C   0  0  0  0  0  3  0  0  0  0  0  0
  188.5610  173.7150  138.4470 C   0  0  0  0  0  0  0  0  0  0  0  0
  188.8770  172.2910  138.6870 C   0  0  0  0  0  3  0  0  0  0  0  0
  189.3480  173.6830  136.0850 C   0  0  0  0  0  2  0  0  0  0  0  0
  187.9600  174.4050  139.4440 F   0  0  0  0  0  0  0  0  0  0  0  0
  2 20  1  0  0  0  0
  3 12  1  0  0  0  0
  3  4  1  0  0  0  0
  4 29  1  0  0  0  0
  5 17  1  1  0  0  0
  5 19  1  0  0  0  0
  6 13  1  1  0  0  0
  6 15  1  0  0  0  0
  6 16  1  0  0  0  0
  8  7  1  0  0  0  0
  9  2  2  0  0  0  0
 10 32  2  0  0  0  0
 11  1  1  1  0  0  0
 11 23  1  0  0  0  0
 11 29  1  0  0  0  0
 12  8  2  0  0  0  0
 14 21  2  0  0  0  0
 15 14  1  0  0  0  0
 16 14  1  0  0  0  0
 18 12  1  0  0  0  0
 18 31  1  0  0  0  0
 19 18  1  0  0  0  0
 19  2  1  6  0  0  0
 21 32  1  0  0  0  0
 23 16  1  0  0  0  0
 24 10  1  0  0  0  0
 25  1  1  1  0  0  0
 26  5  1  0  0  0  0
 26 27  1  0  0  0  0
 28 26  2  0  0  0  0
 29 24  1  1  0  0  0
 30 28  1  1  0  0  0
 30 17  1  0  0  0  0
 30 25  1  0  0  0  0
 31 20  1  0  0  0  0
 31  7  2  0  0  0  0
 32 22  1  0  0  0  0
 34 33  1  1  0  0  0
 35 25  1  6  0  0  0
 35 36  1  0  0  0  0
 35 34  1  0  0  0  0
 36 34  1  0  0  0  0
 36 33  1  1  0  0  0
 37 28  1  0  0  0  0
 38 37  1  0  0  0  0
 39 38  1  0  0  0  0
 40 44  2  0  0  0  0
 41 42  1  0  0  0  0
 42 39  1  0  0  0  0
 42 45  2  0  0  0  0
 43 41  2  0  0  0  0
 44 45  1  0  0  0  0
 44 47  1  0  0  0  0
 46 43  1  0  0  0  0
 46 40  1  0  0  0  0
M  END
>  <MODEL>
7

>  <REMARK>
 VINA RESULT:      -7.8      3.056      8.414
  Name = 
  5 active torsions:
  status: ('A' for Active; 'I' for Inactive)
    1  A    between atoms: C_5  and  C_30
    2  A    between atoms: C_19  and  C_31
    3  A    between atoms: C_19  and  C_42
    4  A    between atoms: C_30  and  C_31
    5  A    between atoms: C_37  and  N_38
                            x       y       z     vdW  Elec       q    Type
                         _______ _______ _______ _____ _____    ______ ____

>  <TORSDO>
F 5

$$$$
=
 OpenBabel11042415233D

 47 55  0  0  1  0  0  0  0  0999 V2000
  193.5400  173.4820  142.6370 C   0  0  0  0  0  2  0  0  0  0  0  0
  189.0310  172.6520  138.3310 C   0  0  0  0  0  0  0  0  0  0  0  0
  192.7300  171.5300  140.5240 N   0  0  0  0  0  2  0  0  0  0  0  0
  193.8310  170.8590  141.0700 N   0  0  0  0  0  2  0  0  0  0  0  0
  190.4590  173.7910  140.1290 C   0  0  1  0  0  3  0  0  0  0  0  0
  196.9010  172.1220  145.2850 C   0  0  1  0  0  3  0  0  0  0  0  0
  191.4590  170.1040  137.4780 C   0  0  0  0  0  3  0  0  0  0  0  0
  192.4470  170.1340  138.4720 C   0  0  0  0  0  3  0  0  0  0  0  0
  187.9360  173.2640  138.4160 O   0  0  0  0  0  0  0  0  0  0  0  0
  193.5650  169.1130  144.2090 N   0  0  0  0  0  0  0  0  0  0  0  0
  194.2020  172.1890  143.1540 C   0  0  1  0  0  3  0  0  0  0  0  0
  192.2250  171.2920  139.2090 C   0  0  0  0  0  0  0  0  0  0  0  0
  196.9270  173.1010  146.3610 N   0  0  0  0  0  1  0  0  0  0  0  0
  196.0220  170.2960  145.5580 C   0  0  0  0  0  0  0  0  0  0  0  0
  197.3900  170.8620  145.7620 C   0  0  0  0  0  2  0  0  0  0  0  0
  195.5540  171.6240  145.1080 N   0  0  0  0  0  0  0  0  0  0  0  0
  191.7630  174.0050  140.6240 N   0  0  0  0  0  2  0  0  0  0  0  0
  191.2040  171.9810  138.6690 N   0  0  0  0  0  0  0  0  0  0  0  0
  190.2280  172.8910  139.1520 C   0  0  2  0  0  3  0  0  0  0  0  0
  189.3170  171.5910  137.2970 C   0  0  0  0  0  2  0  0  0  0  0  0
  195.4610  169.1030  145.7390 C   0  0  0  0  0  3  0  0  0  0  0  0
  193.2190  168.2110  146.3470 N   0  0  0  0  0  1  0  0  0  0  0  0
  194.2870  172.1900  144.6760 C   0  0  0  0  0  2  0  0  0  0  0  0
  194.3460  169.6480  143.0990 C   0  0  0  0  0  2  0  0  0  0  0  0
  192.1280  173.7710  142.9940 N   0  0  1  0  0  0  0  0  0  0  0  0
  189.5290  174.5660  140.9480 C   0  0  0  0  0  0  0  0  0  0  0  0
  188.0910  174.8470  140.6690 C   0  0  0  0  0  1  0  0  0  0  0  0
  190.2120  175.0680  141.9830 C   0  0  0  0  0  0  0  0  0  0  0  0
  193.6620  170.8760  142.5240 C   0  0  2  0  0  3  0  0  0  0  0  0
  191.6670  174.6710  141.9100 C   0  0  2  0  0  3  0  0  0  0  0  0
  190.7290  171.2630  137.6640 C   0  0  0  0  0  0  0  0  0  0  0  0
  194.0550  168.8340  145.3810 C   0  0  0  0  0  0  0  0  0  0  0  0
  189.6680  171.6150  144.6380 C   0  0  0  0  0  2  0  0  0  0  0  0
  191.0910  172.1160  144.4900 C   0  0  1  0  0  3  0  0  0  0  0  0
  191.3060  172.5500  143.0460 C   0  0  1  0  0  3  0  0  0  0  0  0
  189.9840  172.8070  143.7570 C   0  0  1  0  0  3  0  0  0  0  0  0
  189.6900  176.0980  142.9390 C   0  0  0  0  0  2  0  0  0  0  0  0
  190.3930  177.4370  142.7630 C   0  0  0  0  0  2  0  0  0  0  0  0
  191.1970  177.7770  144.0080 C   0  0  0  0  0  2  0  0  0  0  0  0
  190.0280  174.9630  147.4030 C   0  0  0  0  0  3  0  0  0  0  0  0
  189.4410  177.5140  145.8230 C   0  0  0  0  0  3  0  0  0  0  0  0
  190.6860  177.0290  145.1970 C   0  0  0  0  0  0  0  0  0  0  0  0
  188.5920  176.7610  146.5210 C   0  0  0  0  0  3  0  0  0  0  0  0
  191.2380  175.2950  146.9530 C   0  0  0  0  0  0  0  0  0  0  0  0
  191.4780  176.0840  145.7250 C   0  0  0  0  0  3  0  0  0  0  0  0
  188.7630  175.2910  146.6870 C   0  0  0  0  0  2  0  0  0  0  0  0
  192.3160  174.8490  147.6380 F   0  0  0  0  0  0  0  0  0  0  0  0
  2  9  2  0  0  0  0
  3  4  1  0  0  0  0
  4 29  1  0  0  0  0
  5 17  1  1  0  0  0
  5 26  1  0  0  0  0
  6 15  1  0  0  0  0
  6 13  1  1  0  0  0
  7 31  2  0  0  0  0
  7  8  1  0  0  0  0
  8 12  2  0  0  0  0
 10 32  2  0  0  0  0
 11  1  1  1  0  0  0
 11 23  1  0  0  0  0
 12  3  1  0  0  0  0
 14 21  2  0  0  0  0
 14 15  1  0  0  0  0
 16  6  1  0  0  0  0
 16 14  1  0  0  0  0
 18 19  1  0  0  0  0
 18 12  1  0  0  0  0
 19  2  1  6  0  0  0
 19  5  1  0  0  0  0
 20 31  1  0  0  0  0
 20  2  1  0  0  0  0
 23 16  1  0  0  0  0
 24 10  1  0  0  0  0
 25  1  1  6  0  0  0
 26 28  2  0  0  0  0
 27 26  1  0  0  0  0
 28 37  1  0  0  0  0
 29 24  1  1  0  0  0
 29 11  1  0  0  0  0
 30 17  1  6  0  0  0
 30 28  1  0  0  0  0
 30 25  1  0  0  0  0
 31 18  1  0  0  0  0
 32 21  1  0  0  0  0
 32 22  1  0  0  0  0
 34 33  1  6  0  0  0
 35 25  1  1  0  0  0
 35 36  1  0  0  0  0
 35 34  1  0  0  0  0
 36 34  1  0  0  0  0
 36 33  1  6  0  0  0
 38 37  1  0  0  0  0
 38 39  1  0  0  0  0
 39 42  1  0  0  0  0
 41 43  2  0  0  0  0
 42 45  2  0  0  0  0
 42 41  1  0  0  0  0
 43 46  1  0  0  0  0
 44 40  2  0  0  0  0
 44 47  1  0  0  0  0
 45 44  1  0  0  0  0
 46 40  1  0  0  0  0
M  END
>  <MODEL>
8

>  <REMARK>
 VINA RESULT:      -7.7      3.133      6.464
  Name = 
  5 active torsions:
  status: ('A' for Active; 'I' for Inactive)
    1  A    between atoms: C_5  and  C_30
    2  A    between atoms: C_19  and  C_31
    3  A    between atoms: C_19  and  C_42
    4  A    between atoms: C_30  and  C_31
    5  A    between atoms: C_37  and  N_38
                            x       y       z     vdW  Elec       q    Type
                         _______ _______ _______ _____ _____    ______ ____

>  <TORSDO>
F 5

$$$$
=
 OpenBabel11042415233D

 47 55  0  0  1  0  0  0  0  0999 V2000
  192.2270  171.9730  142.6530 C   0  0  0  0  0  2  0  0  0  0  0  0
  194.8150  177.0700  145.2780 C   0  0  0  0  0  0  0  0  0  0  0  0
  194.3260  174.0220  142.0800 N   0  0  0  0  0  2  0  0  0  0  0  0
  194.3540  173.2980  140.8810 N   0  0  0  0  0  2  0  0  0  0  0  0
  193.4000  174.9470  145.0310 C   0  0  1  0  0  3  0  0  0  0  0  0
  191.2620  169.2380  139.2250 C   0  0  1  0  0  3  0  0  0  0  0  0
  197.0000  176.3940  142.4690 C   0  0  0  0  0  3  0  0  0  0  0  0
  196.4210  175.3410  141.7470 C   0  0  0  0  0  3  0  0  0  0  0  0
  194.2260  177.6920  146.1980 O   0  0  0  0  0  0  0  0  0  0  0  0
  191.7990  173.7490  138.3840 N   0  0  0  0  0  0  0  0  0  0  0  0
  192.2750  171.9300  141.1120 C   0  0  1  0  0  3  0  0  0  0  0  0
  195.4080  174.8270  142.5490 C   0  0  0  0  0  0  0  0  0  0  0  0
  190.0660  168.5320  139.6560 N   0  0  0  0  0  1  0  0  0  0  0  0
  191.1310  170.8160  137.9300 C   0  0  0  0  0  0  0  0  0  0  0  0
  191.2800  169.3350  137.7950 C   0  0  0  0  0  2  0  0  0  0  0  0
  191.0800  170.6630  139.3990 N   0  0  0  0  0  0  0  0  0  0  0  0
  193.3420  173.6330  144.5190 N   0  0  0  0  0  2  0  0  0  0  0  0
  195.3980  175.4710  143.7300 N   0  0  0  0  0  0  0  0  0  0  0  0
  194.4170  175.7710  144.7120 C   0  0  2  0  0  3  0  0  0  0  0  0
  196.0980  177.5410  144.6380 C   0  0  0  0  0  2  0  0  0  0  0  0
  191.0480  171.8350  137.0780 C   0  0  0  0  0  3  0  0  0  0  0  0
  189.9360  174.0590  136.9920 N   0  0  0  0  0  1  0  0  0  0  0  0
  190.9150  171.5560  140.5340 C   0  0  0  0  0  2  0  0  0  0  0  0
  192.9550  173.0440  138.9260 C   0  0  0  0  0  2  0  0  0  0  0  0
  191.3570  172.9670  143.3270 N   0  0  1  0  0  0  0  0  0  0  0  0
  192.1600  175.2060  145.7610 C   0  0  0  0  0  0  0  0  0  0  0  0
  191.8620  176.3520  146.6660 C   0  0  0  0  0  1  0  0  0  0  0  0
  191.3320  174.1770  145.5440 C   0  0  0  0  0  0  0  0  0  0  0  0
  192.9670  173.1480  140.4410 C   0  0  2  0  0  3  0  0  0  0  0  0
  191.9840  173.1400  144.6600 C   0  0  2  0  0  3  0  0  0  0  0  0
  196.3170  176.4210  143.6700 C   0  0  0  0  0  0  0  0  0  0  0  0
  190.9590  173.2340  137.5340 C   0  0  0  0  0  0  0  0  0  0  0  0
  189.5100  175.7580  141.8410 C   0  0  0  0  0  2  0  0  0  0  0  0
  190.0370  174.3390  141.7670 C   0  0  1  0  0  3  0  0  0  0  0  0
  191.3080  174.2490  142.6010 C   0  0  1  0  0  3  0  0  0  0  0  0
  190.1270  175.0950  143.0560 C   0  0  1  0  0  3  0  0  0  0  0  0
  190.0480  173.9370  146.2790 C   0  0  0  0  0  2  0  0  0  0  0  0
  188.9250  174.8230  145.7560 C   0  0  0  0  0  2  0  0  0  0  0  0
  188.3490  175.6630  146.8850 C   0  0  0  0  0  2  0  0  0  0  0  0
  185.5300  179.0440  145.6860 C   0  0  0  0  0  3  0  0  0  0  0  0
  188.0040  177.3690  145.0360 C   0  0  0  0  0  3  0  0  0  0  0  0
  187.5920  176.8350  146.3490 C   0  0  0  0  0  0  0  0  0  0  0  0
  187.2110  178.0300  144.1950 C   0  0  0  0  0  3  0  0  0  0  0  0
  185.9330  178.6630  146.8980 C   0  0  0  0  0  0  0  0  0  0  0  0
  186.7120  177.4340  147.1650 C   0  0  0  0  0  3  0  0  0  0  0  0
  185.7580  178.2420  144.4500 C   0  0  0  0  0  2  0  0  0  0  0  0
  185.5750  179.4260  147.9570 F   0  0  0  0  0  0  0  0  0  0  0  0
  2  9  2  0  0  0  0
  3 12  1  0  0  0  0
  4  3  1  0  0  0  0
  5 17  1  6  0  0  0
  5 26  1  0  0  0  0
  6 16  1  0  0  0  0
  6 13  1  6  0  0  0
  7 31  2  0  0  0  0
  8  7  1  0  0  0  0
  8 12  2  0  0  0  0
 10 24  1  0  0  0  0
 11 23  1  6  0  0  0
 11  1  1  0  0  0  0
 12 18  1  0  0  0  0
 14 16  1  0  0  0  0
 15 14  1  0  0  0  0
 15  6  1  0  0  0  0
 16 23  1  0  0  0  0
 18 19  1  0  0  0  0
 19  5  1  0  0  0  0
 19  2  1  1  0  0  0
 20  2  1  0  0  0  0
 21 32  1  0  0  0  0
 21 14  2  0  0  0  0
 22 32  1  0  0  0  0
 25  1  1  6  0  0  0
 25 30  1  0  0  0  0
 26 27  1  0  0  0  0
 28 26  2  0  0  0  0
 28 37  1  0  0  0  0
 29 24  1  6  0  0  0
 29  4  1  0  0  0  0
 29 11  1  0  0  0  0
 30 17  1  6  0  0  0
 30 28  1  0  0  0  0
 31 18  1  0  0  0  0
 31 20  1  0  0  0  0
 32 10  2  0  0  0  0
 34 33  1  6  0  0  0
 34 35  1  0  0  0  0
 34 36  1  0  0  0  0
 35 36  1  0  0  0  0
 35 25  1  1  0  0  0
 36 33  1  6  0  0  0
 38 37  1  0  0  0  0
 38 39  1  0  0  0  0
 40 44  2  0  0  0  0
 41 42  1  0  0  0  0
 42 39  1  0  0  0  0
 42 45  2  0  0  0  0
 43 46  1  0  0  0  0
 43 41  2  0  0  0  0
 44 45  1  0  0  0  0
 44 47  1  0  0  0  0
 46 40  1  0  0  0  0
M  END
>  <MODEL>
9

>  <REMARK>
 VINA RESULT:      -7.6      3.030      6.847
  Name = 
  5 active torsions:
  status: ('A' for Active; 'I' for Inactive)
    1  A    between atoms: C_5  and  C_30
    2  A    between atoms: C_19  and  C_31
    3  A    between atoms: C_19  and  C_42
    4  A    between atoms: C_30  and  C_31
    5  A    between atoms: C_37  and  N_38
                            x       y       z     vdW  Elec       q    Type
                         _______ _______ _______ _____ _____    ______ ____

>  <TORSDO>
F 5

$$$$
