=
 OpenBabel11042418453D

 44 48  0  0  1  0  0  0  0  0999 V2000
  190.8690  174.2130  145.3000 C   0  0  0  0  0  2  0  0  0  0  0  0
  195.7710  171.6340  145.8660 C   0  0  0  0  0  3  0  0  0  0  0  0
  190.1260  173.9210  143.9920 C   0  0  2  0  0  3  0  0  0  0  0  0
  190.5730  171.9920  142.4490 C   0  0  0  0  0  2  0  0  0  0  0  0
  191.5660  171.3420  141.4850 C   0  0  1  0  0  3  0  0  0  0  0  0
  194.6860  171.9380  145.0360 C   0  0  0  0  0  0  0  0  0  0  0  0
  191.0660  173.3610  142.9160 C   0  0  1  0  0  3  0  0  0  0  0  0
  190.9510  174.3050  141.8580 O   0  0  0  0  0  0  0  0  0  0  0  0
  195.2430  170.0560  143.6120 C   0  0  0  0  0  3  0  0  0  0  0  0
  193.3220  171.4920  143.1230 O   0  0  0  0  0  0  0  0  0  0  0  0
  190.1080  175.3460  142.1590 N   0  0  0  0  0  0  0  0  0  0  0  0
  196.6040  170.5550  145.5540 C   0  0  0  0  0  3  0  0  0  0  0  0
  188.6940  176.0600  143.9460 N   0  0  0  0  0  2  0  0  0  0  0  0
  189.6330  175.1690  143.3410 C   0  0  0  0  0  0  0  0  0  0  0  0
  194.4150  171.1440  143.9170 C   0  0  0  0  0  0  0  0  0  0  0  0
  193.7390  172.9500  145.3760 N   0  0  0  0  0  2  0  0  0  0  0  0
  196.3390  169.7660  144.4300 C   0  0  0  0  0  3  0  0  0  0  0  0
  193.9440  174.2740  145.8780 C   0  0  0  0  0  0  0  0  0  0  0  0
  192.8030  175.1530  146.2570 C   0  0  1  0  0  3  0  0  0  0  0  0
  193.5290  176.4500  146.4380 C   0  0  0  0  0  3  0  0  0  0  0  0
  194.7940  176.3450  146.1870 N   0  0  0  0  0  0  0  0  0  0  0  0
  195.0540  175.0020  145.8170 C   0  0  0  0  0  0  0  0  0  0  0  0
  191.8770  175.2590  145.1380 N   0  0  0  0  0  2  0  0  0  0  0  0
  192.6650  170.6000  142.2400 C   0  0  0  0  0  2  0  0  0  0  0  0
  196.3250  174.5910  145.2840 C   0  0  0  0  0  0  0  0  0  0  0  0
  197.3500  174.2640  144.8590 N   0  0  0  0  0  0  0  0  0  0  0  0
  188.5010  177.4200  143.4660 C   0  0  0  0  0  2  0  0  0  0  0  0
  187.0820  177.6970  143.2860 N   0  0  0  0  0  2  0  0  0  0  0  0
  186.3580  176.5880  143.7560 N   0  0  0  0  0  2  0  0  0  0  0  0
  185.3560  177.0360  144.7250 C   0  0  2  0  0  3  0  0  0  0  0  0
  185.0390  178.5350  144.6110 C   0  0  0  0  0  2  0  0  0  0  0  0
  184.3460  179.0230  145.8770 C   0  0  0  0  0  2  0  0  0  0  0  0
  187.4770  178.0670  146.6640 F   0  0  0  0  0  0  0  0  0  0  0  0
  186.2070  177.6820  147.0540 C   0  0  2  0  0  3  0  0  0  0  0  0
  185.6900  176.5590  146.1490 C   0  0  0  0  0  2  0  0  0  0  0  0
  185.2750  178.9040  147.0900 C   0  0  0  0  0  2  0  0  0  0  0  0
  190.8260  170.3600  140.5920 C   0  0  0  0  0  2  0  0  0  0  0  0
  192.1320  170.8920  138.5490 C   0  0  0  0  0  3  0  0  0  0  0  0
  192.2320  171.3690  137.3890 O   0  0  0  0  0  0  0  0  0  0  0  0
  190.8620  170.7930  139.2020 N   0  0  0  0  0  0  0  0  0  0  0  0
  189.6440  171.3430  138.6120 C   0  0  0  0  0  2  0  0  0  0  0  0
  188.2870  173.0730  139.7510 C   0  0  0  0  0  1  0  0  0  0  0  0
  189.5100  172.8350  138.8900 C   0  0  2  0  0  3  0  0  0  0  0  0
  189.3710  173.5710  137.6470 N   0  0  0  0  0  1  0  0  0  0  0  0
  3  1  1  1  0  0  0
  5 37  1  6  0  0  0
  5 24  1  0  0  0  0
  5  4  1  0  0  0  0
  6 16  1  0  0  0  0
  6  2  2  0  0  0  0
  7  4  1  6  0  0  0
  7  3  1  0  0  0  0
  8 11  1  0  0  0  0
  8  7  1  0  0  0  0
  9 15  2  0  0  0  0
  9 17  1  0  0  0  0
 10 15  1  0  0  0  0
 11 14  2  0  0  0  0
 12  2  1  0  0  0  0
 14 13  1  0  0  0  0
 14  3  1  0  0  0  0
 15  6  1  0  0  0  0
 16 18  1  0  0  0  0
 17 12  2  0  0  0  0
 18 19  1  0  0  0  0
 19 20  1  6  0  0  0
 21 20  2  0  0  0  0
 22 18  2  0  0  0  0
 22 21  1  0  0  0  0
 23  1  1  0  0  0  0
 23 19  1  0  0  0  0
 24 10  1  0  0  0  0
 25 22  1  0  0  0  0
 26 25  3  0  0  0  0
 27 13  1  0  0  0  0
 28 27  1  0  0  0  0
 28 29  1  0  0  0  0
 30 29  1  6  0  0  0
 30 35  1  0  0  0  0
 31 30  1  0  0  0  0
 31 32  1  0  0  0  0
 32 36  1  0  0  0  0
 34 33  1  6  0  0  0
 34 36  1  0  0  0  0
 35 34  1  0  0  0  0
 38 40  1  0  0  0  0
 39 38  2  0  0  0  0
 40 37  1  0  0  0  0
 41 43  1  0  0  0  0
 41 40  1  0  0  0  0
 43 42  1  1  0  0  0
 44 43  1  0  0  0  0
M  END
>  <MODEL>
1

>  <REMARK>
 VINA RESULT:      -7.5      0.000      0.000
  Name = 
  9 active torsions:
  status: ('A' for Active; 'I' for Inactive)
    1  A    between atoms: C_2  and  N_44
    2  A    between atoms: C_8  and  C_38
    3  A    between atoms: C_13  and  C_41
    4  A    between atoms: C_15  and  C_23
    5  A    between atoms: N_18  and  C_34
    6  A    between atoms: N_18  and  N_44
    7  A    between atoms: C_23  and  N_25
    8  A    between atoms: N_25  and  C_38
    9  A    between atoms: N_26  and  C_34
                            x       y       z     vdW  Elec       q    Type
                         _______ _______ _______ _____ _____    ______ ____

>  <TORSDO>
F 9

$$$$
=
 OpenBabel11042418453D

 44 48  0  0  1  0  0  0  0  0999 V2000
  191.7010  174.2020  145.7720 C   0  0  0  0  0  2  0  0  0  0  0  0
  196.4390  173.6140  142.9070 C   0  0  0  0  0  3  0  0  0  0  0  0
  190.4180  174.0430  144.9500 C   0  0  2  0  0  3  0  0  0  0  0  0
  190.2470  172.9590  142.6920 C   0  0  0  0  0  2  0  0  0  0  0  0
  190.6300  173.0400  141.2130 C   0  0  1  0  0  3  0  0  0  0  0  0
  195.0440  173.7130  142.8730 C   0  0  0  0  0  0  0  0  0  0  0  0
  190.6800  174.2140  143.4480 C   0  0  1  0  0  3  0  0  0  0  0  0
  189.8420  175.3080  143.0930 O   0  0  0  0  0  0  0  0  0  0  0  0
  195.0200  172.6780  140.6800 C   0  0  0  0  0  3  0  0  0  0  0  0
  192.9450  173.3590  141.7840 O   0  0  0  0  0  0  0  0  0  0  0  0
  189.1500  175.8200  144.1610 N   0  0  0  0  0  0  0  0  0  0  0  0
  197.1250  173.0690  141.8170 C   0  0  0  0  0  3  0  0  0  0  0  0
  188.8710  175.3990  146.4950 N   0  0  0  0  0  2  0  0  0  0  0  0
  189.4480  175.1440  145.2140 C   0  0  0  0  0  0  0  0  0  0  0  0
  194.3340  173.2350  141.7670 C   0  0  0  0  0  0  0  0  0  0  0  0
  194.2930  174.1490  144.0050 N   0  0  0  0  0  2  0  0  0  0  0  0
  196.4160  172.5990  140.7060 C   0  0  0  0  0  3  0  0  0  0  0  0
  194.5190  175.2470  144.8950 C   0  0  0  0  0  0  0  0  0  0  0  0
  193.6530  175.4810  146.0840 C   0  0  1  0  0  3  0  0  0  0  0  0
  194.1290  176.8430  146.4830 C   0  0  0  0  0  3  0  0  0  0  0  0
  195.0380  177.3000  145.6820 N   0  0  0  0  0  0  0  0  0  0  0  0
  195.2680  176.3220  144.6830 C   0  0  0  0  0  0  0  0  0  0  0  0
  192.2600  175.5480  145.6670 N   0  0  0  0  0  2  0  0  0  0  0  0
  192.0680  172.5830  140.9880 C   0  0  0  0  0  2  0  0  0  0  0  0
  196.0760  176.5940  143.5240 C   0  0  0  0  0  0  0  0  0  0  0  0
  196.7270  176.8170  142.5940 N   0  0  0  0  0  0  0  0  0  0  0  0
  188.2200  176.6620  146.8110 C   0  0  0  0  0  2  0  0  0  0  0  0
  186.7870  176.4650  146.9860 N   0  0  0  0  0  2  0  0  0  0  0  0
  186.1420  177.6800  146.6980 N   0  0  0  0  0  2  0  0  0  0  0  0
  185.2410  177.4950  145.5600 C   0  0  2  0  0  3  0  0  0  0  0  0
  185.9760  177.0940  144.2710 C   0  0  0  0  0  2  0  0  0  0  0  0
  185.0820  177.3340  143.0610 C   0  0  0  0  0  2  0  0  0  0  0  0
  185.7810  180.3030  144.4880 F   0  0  0  0  0  0  0  0  0  0  0  0
  184.6250  179.5910  144.2200 C   0  0  2  0  0  3  0  0  0  0  0  0
  184.2740  178.6820  145.4020 C   0  0  0  0  0  2  0  0  0  0  0  0
  184.7740  178.8260  142.8950 C   0  0  0  0  0  2  0  0  0  0  0  0
  189.6940  172.1550  140.4060 C   0  0  0  0  0  2  0  0  0  0  0  0
  188.4620  173.9410  139.2000 C   0  0  0  0  0  3  0  0  0  0  0  0
  188.0170  174.4640  138.1450 O   0  0  0  0  0  0  0  0  0  0  0  0
  189.3230  172.7980  139.1540 N   0  0  0  0  0  0  0  0  0  0  0  0
  189.6330  172.1130  137.9010 C   0  0  0  0  0  2  0  0  0  0  0  0
  191.7480  170.9060  137.4560 C   0  0  0  0  0  1  0  0  0  0  0  0
  190.4020  170.8210  138.1440 C   0  0  2  0  0  3  0  0  0  0  0  0
  189.6650  169.6870  137.6150 N   0  0  0  0  0  1  0  0  0  0  0  0
  3 14  1  0  0  0  0
  3  1  1  1  0  0  0
  5 37  1  6  0  0  0
  5  4  1  0  0  0  0
  6  2  1  0  0  0  0
  6 16  1  0  0  0  0
  7  4  1  6  0  0  0
  7  3  1  0  0  0  0
  8  7  1  0  0  0  0
  8 11  1  0  0  0  0
  9 17  2  0  0  0  0
  9 15  1  0  0  0  0
 11 14  2  0  0  0  0
 12  2  2  0  0  0  0
 13 27  1  0  0  0  0
 14 13  1  0  0  0  0
 15 10  1  0  0  0  0
 15  6  2  0  0  0  0
 16 18  1  0  0  0  0
 17 12  1  0  0  0  0
 18 19  1  0  0  0  0
 19 20  1  6  0  0  0
 21 20  2  0  0  0  0
 22 18  2  0  0  0  0
 22 21  1  0  0  0  0
 23  1  1  0  0  0  0
 23 19  1  0  0  0  0
 24  5  1  0  0  0  0
 24 10  1  0  0  0  0
 25 22  1  0  0  0  0
 26 25  3  0  0  0  0
 27 28  1  0  0  0  0
 29 28  1  0  0  0  0
 30 29  1  1  0  0  0
 31 30  1  0  0  0  0
 32 31  1  0  0  0  0
 34 33  1  1  0  0  0
 34 35  1  0  0  0  0
 35 30  1  0  0  0  0
 36 32  1  0  0  0  0
 36 34  1  0  0  0  0
 39 38  2  0  0  0  0
 40 38  1  0  0  0  0
 40 37  1  0  0  0  0
 41 43  1  0  0  0  0
 41 40  1  0  0  0  0
 43 42  1  6  0  0  0
 44 43  1  0  0  0  0
M  END
>  <MODEL>
2

>  <REMARK>
 VINA RESULT:      -7.4      2.219      2.891
  Name = 
  9 active torsions:
  status: ('A' for Active; 'I' for Inactive)
    1  A    between atoms: C_2  and  N_44
    2  A    between atoms: C_8  and  C_38
    3  A    between atoms: C_13  and  C_41
    4  A    between atoms: C_15  and  C_23
    5  A    between atoms: N_18  and  C_34
    6  A    between atoms: N_18  and  N_44
    7  A    between atoms: C_23  and  N_25
    8  A    between atoms: N_25  and  C_38
    9  A    between atoms: N_26  and  C_34
                            x       y       z     vdW  Elec       q    Type
                         _______ _______ _______ _____ _____    ______ ____

>  <TORSDO>
F 9

$$$$
=
 OpenBabel11042418453D

 44 48  0  0  1  0  0  0  0  0999 V2000
  189.7620  173.8150  144.5030 C   0  0  0  0  0  2  0  0  0  0  0  0
  194.8630  171.9670  145.7570 C   0  0  0  0  0  3  0  0  0  0  0  0
  189.2720  173.4690  143.0930 C   0  0  2  0  0  3  0  0  0  0  0  0
  190.2290  171.6900  141.6020 C   0  0  0  0  0  2  0  0  0  0  0  0
  191.4400  171.2340  140.7870 C   0  0  1  0  0  3  0  0  0  0  0  0
  193.8780  172.1410  144.7780 C   0  0  0  0  0  0  0  0  0  0  0  0
  190.4340  173.0970  142.1620 C   0  0  1  0  0  3  0  0  0  0  0  0
  190.3330  174.0560  141.1160 O   0  0  0  0  0  0  0  0  0  0  0  0
  194.9180  170.4200  143.4220 C   0  0  0  0  0  3  0  0  0  0  0  0
  192.8930  171.5750  142.6740 O   0  0  0  0  0  0  0  0  0  0  0  0
  189.3070  174.9480  141.3040 N   0  0  0  0  0  0  0  0  0  0  0  0
  195.8870  171.0370  145.5550 C   0  0  0  0  0  3  0  0  0  0  0  0
  187.5540  175.3730  142.8690 N   0  0  0  0  0  2  0  0  0  0  0  0
  188.6960  174.6560  142.3980 C   0  0  0  0  0  0  0  0  0  0  0  0
  193.8980  171.3610  143.6180 C   0  0  0  0  0  0  0  0  0  0  0  0
  192.7490  172.9880  144.9890 N   0  0  0  0  0  2  0  0  0  0  0  0
  195.9130  170.2630  144.3910 C   0  0  0  0  0  3  0  0  0  0  0  0
  192.6750  174.3060  145.5400 C   0  0  0  0  0  0  0  0  0  0  0  0
  191.3700  174.9910  145.7580 C   0  0  1  0  0  3  0  0  0  0  0  0
  191.8550  176.3730  146.0690 C   0  0  0  0  0  3  0  0  0  0  0  0
  193.1450  176.4660  146.0100 N   0  0  0  0  0  0  0  0  0  0  0  0
  193.6570  175.1910  145.6600 C   0  0  0  0  0  0  0  0  0  0  0  0
  190.6130  175.0030  144.5140 N   0  0  0  0  0  2  0  0  0  0  0  0
  192.5160  170.6330  141.6870 C   0  0  0  0  0  2  0  0  0  0  0  0
  195.0400  174.9950  145.3180 C   0  0  0  0  0  0  0  0  0  0  0  0
  196.1540  174.8370  145.0480 N   0  0  0  0  0  0  0  0  0  0  0  0
  187.2290  176.7070  142.3900 C   0  0  0  0  0  2  0  0  0  0  0  0
  187.6290  177.7100  143.3690 N   0  0  0  0  0  2  0  0  0  0  0  0
  187.5150  177.1380  144.6480 N   0  0  0  0  0  2  0  0  0  0  0  0
  186.7410  178.0300  145.5120 C   0  0  2  0  0  3  0  0  0  0  0  0
  185.8090  177.2760  146.4740 C   0  0  0  0  0  2  0  0  0  0  0  0
  184.7450  178.2190  147.0230 C   0  0  0  0  0  2  0  0  0  0  0  0
  184.2850  177.8940  143.7030 F   0  0  0  0  0  0  0  0  0  0  0  0
  184.5470  178.9490  144.5580 C   0  0  2  0  0  3  0  0  0  0  0  0
  186.0580  179.1500  144.7070 C   0  0  0  0  0  2  0  0  0  0  0  0
  183.8330  178.7280  145.9010 C   0  0  0  0  0  2  0  0  0  0  0  0
  190.9970  170.1910  139.7750 C   0  0  0  0  0  2  0  0  0  0  0  0
  192.3650  171.0550  137.8930 C   0  0  0  0  0  3  0  0  0  0  0  0
  192.4820  171.6180  136.7730 O   0  0  0  0  0  0  0  0  0  0  0  0
  191.0780  170.7140  138.4190 N   0  0  0  0  0  0  0  0  0  0  0  0
  189.8400  171.1030  137.7480 C   0  0  0  0  0  2  0  0  0  0  0  0
  188.2210  172.7000  138.7270 C   0  0  0  0  0  1  0  0  0  0  0  0
  189.5230  172.5770  137.9640 C   0  0  2  0  0  3  0  0  0  0  0  0
  189.3980  173.2610  136.6890 N   0  0  0  0  0  1  0  0  0  0  0  0
  1 23  1  0  0  0  0
  3  1  1  1  0  0  0
  5 37  1  6  0  0  0
  5  4  1  0  0  0  0
  5 24  1  0  0  0  0
  6 16  1  0  0  0  0
  6  2  2  0  0  0  0
  7  4  1  6  0  0  0
  7  3  1  0  0  0  0
  8 11  1  0  0  0  0
  8  7  1  0  0  0  0
  9 15  2  0  0  0  0
  9 17  1  0  0  0  0
 10 15  1  0  0  0  0
 11 14  2  0  0  0  0
 12  2  1  0  0  0  0
 14 13  1  0  0  0  0
 14  3  1  0  0  0  0
 15  6  1  0  0  0  0
 16 18  1  0  0  0  0
 17 12  2  0  0  0  0
 18 22  2  0  0  0  0
 18 19  1  0  0  0  0
 19 20  1  6  0  0  0
 21 20  2  0  0  0  0
 22 21  1  0  0  0  0
 23 19  1  0  0  0  0
 24 10  1  0  0  0  0
 25 22  1  0  0  0  0
 26 25  3  0  0  0  0
 27 13  1  0  0  0  0
 27 28  1  0  0  0  0
 28 29  1  0  0  0  0
 30 29  1  6  0  0  0
 30 31  1  0  0  0  0
 31 32  1  0  0  0  0
 34 33  1  6  0  0  0
 34 35  1  0  0  0  0
 34 36  1  0  0  0  0
 35 30  1  0  0  0  0
 36 32  1  0  0  0  0
 38 40  1  0  0  0  0
 39 38  2  0  0  0  0
 40 37  1  0  0  0  0
 41 43  1  0  0  0  0
 41 40  1  0  0  0  0
 43 42  1  6  0  0  0
 44 43  1  0  0  0  0
M  END
>  <MODEL>
3

>  <REMARK>
 VINA RESULT:      -7.4      1.235      1.525
  Name = 
  9 active torsions:
  status: ('A' for Active; 'I' for Inactive)
    1  A    between atoms: C_2  and  N_44
    2  A    between atoms: C_8  and  C_38
    3  A    between atoms: C_13  and  C_41
    4  A    between atoms: C_15  and  C_23
    5  A    between atoms: N_18  and  C_34
    6  A    between atoms: N_18  and  N_44
    7  A    between atoms: C_23  and  N_25
    8  A    between atoms: N_25  and  C_38
    9  A    between atoms: N_26  and  C_34
                            x       y       z     vdW  Elec       q    Type
                         _______ _______ _______ _____ _____    ______ ____

>  <TORSDO>
F 9

$$$$
=
 OpenBabel11042418453D

 44 48  0  0  1  0  0  0  0  0999 V2000
  190.9060  174.1690  145.2420 C   0  0  0  0  0  2  0  0  0  0  0  0
  195.8250  171.6360  145.8660 C   0  0  0  0  0  3  0  0  0  0  0  0
  190.1630  173.8380  143.9430 C   0  0  2  0  0  3  0  0  0  0  0  0
  190.6200  171.8720  142.4500 C   0  0  0  0  0  2  0  0  0  0  0  0
  191.6160  171.2040  141.5020 C   0  0  1  0  0  3  0  0  0  0  0  0
  194.7370  171.9120  145.0300 C   0  0  0  0  0  0  0  0  0  0  0  0
  191.1050  173.2560  142.8810 C   0  0  1  0  0  3  0  0  0  0  0  0
  190.9820  174.1720  141.7990 O   0  0  0  0  0  0  0  0  0  0  0  0
  195.3040  169.9970  143.6550 C   0  0  0  0  0  3  0  0  0  0  0  0
  193.3730  171.4070  143.1320 O   0  0  0  0  0  0  0  0  0  0  0  0
  190.1340  175.2150  142.0740 N   0  0  0  0  0  0  0  0  0  0  0  0
  196.6650  170.5550  145.5810 C   0  0  0  0  0  3  0  0  0  0  0  0
  188.7170  175.9650  143.8440 N   0  0  0  0  0  2  0  0  0  0  0  0
  189.6610  175.0660  143.2610 C   0  0  0  0  0  0  0  0  0  0  0  0
  194.4700  171.0870  143.9330 C   0  0  0  0  0  0  0  0  0  0  0  0
  193.7850  172.9270  145.3460 N   0  0  0  0  0  2  0  0  0  0  0  0
  196.4040  169.7360  144.4780 C   0  0  0  0  0  3  0  0  0  0  0  0
  193.9820  174.2640  145.8130 C   0  0  0  0  0  0  0  0  0  0  0  0
  192.8360  175.1450  146.1710 C   0  0  1  0  0  3  0  0  0  0  0  0
  193.5530  176.4510  146.3170 C   0  0  0  0  0  3  0  0  0  0  0  0
  194.8190  176.3480  146.0670 N   0  0  0  0  0  0  0  0  0  0  0  0
  195.0860  174.9970  145.7310 C   0  0  0  0  0  0  0  0  0  0  0  0
  191.9070  175.2160  145.0510 N   0  0  0  0  0  2  0  0  0  0  0  0
  192.7210  170.4890  142.2740 C   0  0  0  0  0  2  0  0  0  0  0  0
  196.3600  174.5810  145.2070 C   0  0  0  0  0  0  0  0  0  0  0  0
  197.3810  174.2420  144.7840 N   0  0  0  0  0  0  0  0  0  0  0  0
  188.5150  177.3110  143.3290 C   0  0  0  0  0  2  0  0  0  0  0  0
  187.1020  177.5440  143.0600 N   0  0  0  0  0  2  0  0  0  0  0  0
  186.3650  176.5220  143.6850 N   0  0  0  0  0  2  0  0  0  0  0  0
  185.4500  177.1110  144.6630 C   0  0  2  0  0  3  0  0  0  0  0  0
  185.3220  178.6360  144.5240 C   0  0  0  0  0  2  0  0  0  0  0  0
  184.7250  179.2310  145.7930 C   0  0  0  0  0  2  0  0  0  0  0  0
  187.7260  177.9000  146.5390 F   0  0  0  0  0  0  0  0  0  0  0  0
  186.4270  177.6860  146.9610 C   0  0  2  0  0  3  0  0  0  0  0  0
  185.7520  176.6220  146.0900 C   0  0  0  0  0  2  0  0  0  0  0  0
  185.6570  179.0170  146.9900 C   0  0  0  0  0  2  0  0  0  0  0  0
  190.8810  170.1950  140.6350 C   0  0  0  0  0  2  0  0  0  0  0  0
  189.8290  170.0230  138.3940 C   0  0  0  0  0  3  0  0  0  0  0  0
  189.7620  170.3240  137.1730 O   0  0  0  0  0  0  0  0  0  0  0  0
  190.7540  170.6780  139.2680 N   0  0  0  0  0  0  0  0  0  0  0  0
  191.7400  171.6370  138.7740 C   0  0  0  0  0  2  0  0  0  0  0  0
  194.1720  171.1780  138.8540 C   0  0  0  0  0  1  0  0  0  0  0  0
  192.8980  170.9380  138.0720 C   0  0  2  0  0  3  0  0  0  0  0  0
  193.0590  171.4540  136.7250 N   0  0  0  0  0  1  0  0  0  0  0  0
  3  1  1  1  0  0  0
  5 37  1  1  0  0  0
  5 24  1  0  0  0  0
  5  4  1  0  0  0  0
  6 16  1  0  0  0  0
  6  2  2  0  0  0  0
  7  4  1  6  0  0  0
  7  3  1  0  0  0  0
  8 11  1  0  0  0  0
  8  7  1  0  0  0  0
  9 15  2  0  0  0  0
  9 17  1  0  0  0  0
 10 15  1  0  0  0  0
 11 14  2  0  0  0  0
 12  2  1  0  0  0  0
 14 13  1  0  0  0  0
 14  3  1  0  0  0  0
 15  6  1  0  0  0  0
 16 18  1  0  0  0  0
 17 12  2  0  0  0  0
 18 19  1  0  0  0  0
 19 20  1  6  0  0  0
 21 20  2  0  0  0  0
 22 18  2  0  0  0  0
 22 21  1  0  0  0  0
 23  1  1  0  0  0  0
 23 19  1  0  0  0  0
 24 10  1  0  0  0  0
 25 22  1  0  0  0  0
 26 25  3  0  0  0  0
 27 13  1  0  0  0  0
 28 27  1  0  0  0  0
 28 29  1  0  0  0  0
 30 29  1  6  0  0  0
 30 35  1  0  0  0  0
 31 30  1  0  0  0  0
 31 32  1  0  0  0  0
 32 36  1  0  0  0  0
 34 33  1  6  0  0  0
 34 36  1  0  0  0  0
 35 34  1  0  0  0  0
 38 40  1  0  0  0  0
 39 38  2  0  0  0  0
 40 37  1  0  0  0  0
 41 40  1  0  0  0  0
 43 41  1  0  0  0  0
 43 42  1  1  0  0  0
 44 43  1  0  0  0  0
M  END
>  <MODEL>
4

>  <REMARK>
 VINA RESULT:      -7.0      0.998      1.451
  Name = 
  9 active torsions:
  status: ('A' for Active; 'I' for Inactive)
    1  A    between atoms: C_2  and  N_44
    2  A    between atoms: C_8  and  C_38
    3  A    between atoms: C_13  and  C_41
    4  A    between atoms: C_15  and  C_23
    5  A    between atoms: N_18  and  C_34
    6  A    between atoms: N_18  and  N_44
    7  A    between atoms: C_23  and  N_25
    8  A    between atoms: N_25  and  C_38
    9  A    between atoms: N_26  and  C_34
                            x       y       z     vdW  Elec       q    Type
                         _______ _______ _______ _____ _____    ______ ____

>  <TORSDO>
F 9

$$$$
=
 OpenBabel11042418453D

 44 48  0  0  1  0  0  0  0  0999 V2000
  189.2280  174.0960  142.0870 C   0  0  0  0  0  2  0  0  0  0  0  0
  185.7540  177.1290  145.2060 C   0  0  0  0  0  3  0  0  0  0  0  0
  190.6860  174.0830  142.5600 C   0  0  2  0  0  3  0  0  0  0  0  0
  191.4920  174.7290  144.8480 C   0  0  0  0  0  2  0  0  0  0  0  0
  191.6630  175.8640  145.8590 C   0  0  1  0  0  3  0  0  0  0  0  0
  187.0740  176.7490  144.9400 C   0  0  0  0  0  0  0  0  0  0  0  0
  190.9880  175.2540  143.5040 C   0  0  1  0  0  3  0  0  0  0  0  0
  192.0310  175.9520  142.8330 O   0  0  0  0  0  0  0  0  0  0  0  0
  187.7270  177.4370  147.1710 C   0  0  0  0  0  3  0  0  0  0  0  0
  189.3560  176.4980  145.6050 O   0  0  0  0  0  0  0  0  0  0  0  0
  192.3680  175.3850  141.6300 N   0  0  0  0  0  0  0  0  0  0  0  0
  185.4270  177.6840  146.4470 C   0  0  0  0  0  3  0  0  0  0  0  0
  191.7580  173.5010  140.2940 N   0  0  0  0  0  2  0  0  0  0  0  0
  191.6360  174.3430  141.4410 C   0  0  0  0  0  0  0  0  0  0  0  0
  188.0560  176.8910  145.9240 C   0  0  0  0  0  0  0  0  0  0  0  0
  187.4320  176.0680  143.7370 N   0  0  0  0  0  2  0  0  0  0  0  0
  186.4120  177.8370  147.4290 C   0  0  0  0  0  3  0  0  0  0  0  0
  187.0540  176.3280  142.3820 C   0  0  0  0  0  0  0  0  0  0  0  0
  187.4730  175.4330  141.2680 C   0  0  1  0  0  3  0  0  0  0  0  0
  187.0680  176.2750  140.0980 C   0  0  0  0  0  3  0  0  0  0  0  0
  186.5620  177.4100  140.4610 N   0  0  0  0  0  0  0  0  0  0  0  0
  186.5710  177.4570  141.8770 C   0  0  0  0  0  0  0  0  0  0  0  0
  188.9200  175.2780  141.2850 N   0  0  0  0  0  2  0  0  0  0  0  0
  190.3480  176.1780  146.5650 C   0  0  0  0  0  2  0  0  0  0  0  0
  186.2600  178.6610  142.6010 C   0  0  0  0  0  0  0  0  0  0  0  0
  186.0140  179.6300  143.1830 N   0  0  0  0  0  0  0  0  0  0  0  0
  192.4150  173.9490  139.0750 C   0  0  0  0  0  2  0  0  0  0  0  0
  193.7630  173.4020  138.9950 N   0  0  0  0  0  2  0  0  0  0  0  0
  194.6540  174.4670  138.7760 N   0  0  0  0  0  2  0  0  0  0  0  0
  195.9770  174.1090  139.2870 C   0  0  2  0  0  3  0  0  0  0  0  0
  195.9280  173.4620  140.6800 C   0  0  0  0  0  2  0  0  0  0  0  0
  197.3050  173.5080  141.3300 C   0  0  0  0  0  2  0  0  0  0  0  0
  196.1900  176.6620  140.9480 F   0  0  0  0  0  0  0  0  0  0  0  0
  197.2860  175.9480  140.4990 C   0  0  2  0  0  3  0  0  0  0  0  0
  196.9710  175.2760  139.1590 C   0  0  0  0  0  2  0  0  0  0  0  0
  197.7460  174.9550  141.5780 C   0  0  0  0  0  2  0  0  0  0  0  0
  192.6990  175.4580  146.8940 C   0  0  0  0  0  2  0  0  0  0  0  0
  194.1490  177.2950  146.0650 C   0  0  0  0  0  3  0  0  0  0  0  0
  195.2450  177.7310  145.6250 O   0  0  0  0  0  0  0  0  0  0  0  0
  194.0210  175.9450  146.5250 N   0  0  0  0  0  0  0  0  0  0  0  0
  195.1090  174.9790  146.4000 C   0  0  0  0  0  2  0  0  0  0  0  0
  195.8490  172.8510  145.3710 C   0  0  0  0  0  1  0  0  0  0  0  0
  194.8540  173.9890  145.2710 C   0  0  2  0  0  3  0  0  0  0  0  0
  195.0010  174.6420  143.9820 N   0  0  0  0  0  1  0  0  0  0  0  0
  2 12  1  0  0  0  0
  3  1  1  6  0  0  0
  3  7  1  0  0  0  0
  4  5  1  0  0  0  0
  5 24  1  0  0  0  0
  5 37  1  1  0  0  0
  6  2  2  0  0  0  0
  6 15  1  0  0  0  0
  7  4  1  1  0  0  0
  8  7  1  0  0  0  0
  9 17  1  0  0  0  0
 10 15  1  0  0  0  0
 10 24  1  0  0  0  0
 11  8  1  0  0  0  0
 12 17  2  0  0  0  0
 13 14  1  0  0  0  0
 14 11  2  0  0  0  0
 14  3  1  0  0  0  0
 15  9  2  0  0  0  0
 16  6  1  0  0  0  0
 18 16  1  0  0  0  0
 19 20  1  6  0  0  0
 19 23  1  0  0  0  0
 19 18  1  0  0  0  0
 20 21  2  0  0  0  0
 21 22  1  0  0  0  0
 22 18  2  0  0  0  0
 22 25  1  0  0  0  0
 23  1  1  0  0  0  0
 25 26  3  0  0  0  0
 27 13  1  0  0  0  0
 28 27  1  0  0  0  0
 29 28  1  0  0  0  0
 30 29  1  1  0  0  0
 30 31  1  0  0  0  0
 31 32  1  0  0  0  0
 32 36  1  0  0  0  0
 34 33  1  1  0  0  0
 34 36  1  0  0  0  0
 35 30  1  0  0  0  0
 35 34  1  0  0  0  0
 38 40  1  0  0  0  0
 39 38  2  0  0  0  0
 40 37  1  0  0  0  0
 41 40  1  0  0  0  0
 43 42  1  6  0  0  0
 43 41  1  0  0  0  0
 44 43  1  0  0  0  0
M  END
>  <MODEL>
5

>  <REMARK>
 VINA RESULT:      -7.0      3.324      9.378
  Name = 
  9 active torsions:
  status: ('A' for Active; 'I' for Inactive)
    1  A    between atoms: C_2  and  N_44
    2  A    between atoms: C_8  and  C_38
    3  A    between atoms: C_13  and  C_41
    4  A    between atoms: C_15  and  C_23
    5  A    between atoms: N_18  and  C_34
    6  A    between atoms: N_18  and  N_44
    7  A    between atoms: C_23  and  N_25
    8  A    between atoms: N_25  and  C_38
    9  A    between atoms: N_26  and  C_34
                            x       y       z     vdW  Elec       q    Type
                         _______ _______ _______ _____ _____    ______ ____

>  <TORSDO>
F 9

$$$$
=
 OpenBabel11042418453D

 44 48  0  0  1  0  0  0  0  0999 V2000
  189.9400  173.4640  141.8190 C   0  0  0  0  0  2  0  0  0  0  0  0
  186.6150  176.7240  144.8720 C   0  0  0  0  0  3  0  0  0  0  0  0
  191.4260  173.5200  142.1890 C   0  0  2  0  0  3  0  0  0  0  0  0
  192.3700  174.3950  144.3440 C   0  0  0  0  0  2  0  0  0  0  0  0
  192.5830  175.6240  145.2290 C   0  0  1  0  0  3  0  0  0  0  0  0
  187.9230  176.3420  144.5510 C   0  0  0  0  0  0  0  0  0  0  0  0
  191.7650  174.7810  142.9940 C   0  0  1  0  0  3  0  0  0  0  0  0
  192.7430  175.4280  142.1900 O   0  0  0  0  0  0  0  0  0  0  0  0
  188.7090  177.2510  146.6570 C   0  0  0  0  0  3  0  0  0  0  0  0
  190.2500  176.1930  145.0780 O   0  0  0  0  0  0  0  0  0  0  0  0
  193.0110  174.7540  141.0250 N   0  0  0  0  0  0  0  0  0  0  0  0
  186.3610  177.3900  146.0740 C   0  0  0  0  0  3  0  0  0  0  0  0
  192.3560  172.7420  139.9180 N   0  0  0  0  0  2  0  0  0  0  0  0
  192.2920  173.6880  140.9870 C   0  0  0  0  0  0  0  0  0  0  0  0
  188.9660  176.5940  145.4470 C   0  0  0  0  0  0  0  0  0  0  0  0
  188.2140  175.5550  143.3970 N   0  0  0  0  0  2  0  0  0  0  0  0
  187.4050  177.6520  146.9670 C   0  0  0  0  0  3  0  0  0  0  0  0
  187.7400  175.6780  142.0520 C   0  0  0  0  0  0  0  0  0  0  0  0
  188.1030  174.6880  141.0010 C   0  0  1  0  0  3  0  0  0  0  0  0
  187.6000  175.4080  139.7880 C   0  0  0  0  0  3  0  0  0  0  0  0
  187.0940  176.5640  140.0760 N   0  0  0  0  0  0  0  0  0  0  0  0
  187.1980  176.7460  141.4780 C   0  0  0  0  0  0  0  0  0  0  0  0
  189.5510  174.5590  140.9330 N   0  0  0  0  0  2  0  0  0  0  0  0
  191.3110  175.9830  145.9920 C   0  0  0  0  0  2  0  0  0  0  0  0
  186.9090  178.0080  142.1050 C   0  0  0  0  0  0  0  0  0  0  0  0
  186.6770  179.0200  142.6140 N   0  0  0  0  0  0  0  0  0  0  0  0
  192.9180  173.0820  138.6200 C   0  0  0  0  0  2  0  0  0  0  0  0
  192.3160  172.2620  137.5760 N   0  0  0  0  0  2  0  0  0  0  0  0
  191.1260  171.7130  138.0860 N   0  0  0  0  0  2  0  0  0  0  0  0
  190.0730  171.8110  137.0750 C   0  0  2  0  0  3  0  0  0  0  0  0
  190.6020  171.6610  135.6400 C   0  0  0  0  0  2  0  0  0  0  0  0
  189.5770  172.1890  134.6440 C   0  0  0  0  0  2  0  0  0  0  0  0
  190.6640  174.7570  136.5310 F   0  0  0  0  0  0  0  0  0  0  0  0
  189.4360  174.1670  136.2920 C   0  0  2  0  0  3  0  0  0  0  0  0
  189.1800  173.0440  137.3020 C   0  0  0  0  0  2  0  0  0  0  0  0
  189.3550  173.6940  134.8310 C   0  0  0  0  0  2  0  0  0  0  0  0
  193.6960  175.3360  146.2230 C   0  0  0  0  0  2  0  0  0  0  0  0
  195.1470  176.5360  144.6070 C   0  0  0  0  0  3  0  0  0  0  0  0
  196.2220  176.6650  143.9630 O   0  0  0  0  0  0  0  0  0  0  0  0
  195.0020  175.5260  145.6100 N   0  0  0  0  0  0  0  0  0  0  0  0
  196.0390  174.5260  145.8570 C   0  0  0  0  0  2  0  0  0  0  0  0
  196.5700  172.1070  145.9060 C   0  0  0  0  0  1  0  0  0  0  0  0
  195.6220  173.1500  145.3510 C   0  0  2  0  0  3  0  0  0  0  0  0
  195.6630  173.1100  143.9000 N   0  0  0  0  0  1  0  0  0  0  0  0
  2 12  1  0  0  0  0
  3  1  1  6  0  0  0
  3  7  1  0  0  0  0
  4  5  1  0  0  0  0
  5 24  1  0  0  0  0
  5 37  1  1  0  0  0
  6  2  2  0  0  0  0
  6 15  1  0  0  0  0
  7  4  1  1  0  0  0
  8  7  1  0  0  0  0
  9 17  1  0  0  0  0
 10 15  1  0  0  0  0
 10 24  1  0  0  0  0
 11  8  1  0  0  0  0
 12 17  2  0  0  0  0
 13 14  1  0  0  0  0
 14 11  2  0  0  0  0
 14  3  1  0  0  0  0
 15  9  2  0  0  0  0
 16  6  1  0  0  0  0
 18 16  1  0  0  0  0
 19 20  1  6  0  0  0
 19 18  1  0  0  0  0
 20 21  2  0  0  0  0
 21 22  1  0  0  0  0
 22 18  2  0  0  0  0
 22 25  1  0  0  0  0
 23 19  1  0  0  0  0
 23  1  1  0  0  0  0
 25 26  3  0  0  0  0
 27 13  1  0  0  0  0
 28 29  1  0  0  0  0
 28 27  1  0  0  0  0
 30 35  1  0  0  0  0
 30 29  1  1  0  0  0
 31 30  1  0  0  0  0
 32 36  1  0  0  0  0
 32 31  1  0  0  0  0
 34 33  1  1  0  0  0
 34 35  1  0  0  0  0
 36 34  1  0  0  0  0
 38 40  1  0  0  0  0
 39 38  2  0  0  0  0
 40 41  1  0  0  0  0
 40 37  1  0  0  0  0
 43 41  1  0  0  0  0
 43 42  1  1  0  0  0
 44 43  1  0  0  0  0
M  END
>  <MODEL>
6

>  <REMARK>
 VINA RESULT:      -6.9      2.870      8.890
  Name = 
  9 active torsions:
  status: ('A' for Active; 'I' for Inactive)
    1  A    between atoms: C_2  and  N_44
    2  A    between atoms: C_8  and  C_38
    3  A    between atoms: C_13  and  C_41
    4  A    between atoms: C_15  and  C_23
    5  A    between atoms: N_18  and  C_34
    6  A    between atoms: N_18  and  N_44
    7  A    between atoms: C_23  and  N_25
    8  A    between atoms: N_25  and  C_38
    9  A    between atoms: N_26  and  C_34
                            x       y       z     vdW  Elec       q    Type
                         _______ _______ _______ _____ _____    ______ ____

>  <TORSDO>
F 9

$$$$
=
 OpenBabel11042418453D

 44 48  0  0  1  0  0  0  0  0999 V2000
  189.6240  173.8650  141.9530 C   0  0  0  0  0  2  0  0  0  0  0  0
  185.9370  176.8220  144.8960 C   0  0  0  0  0  3  0  0  0  0  0  0
  191.0690  173.9400  142.4560 C   0  0  2  0  0  3  0  0  0  0  0  0
  191.7920  174.7010  144.7360 C   0  0  0  0  0  2  0  0  0  0  0  0
  191.8850  175.8750  145.7110 C   0  0  1  0  0  3  0  0  0  0  0  0
  187.2790  176.5000  144.6700 C   0  0  0  0  0  0  0  0  0  0  0  0
  191.2930  175.1550  143.3650 C   0  0  1  0  0  3  0  0  0  0  0  0
  192.3150  175.8820  142.6930 O   0  0  0  0  0  0  0  0  0  0  0  0
  187.8480  177.2930  146.8890 C   0  0  0  0  0  3  0  0  0  0  0  0
  189.5560  176.3850  145.3900 O   0  0  0  0  0  0  0  0  0  0  0  0
  192.7060  175.2930  141.5170 N   0  0  0  0  0  0  0  0  0  0  0  0
  185.5560  177.4010  146.1100 C   0  0  0  0  0  3  0  0  0  0  0  0
  192.2190  173.3390  140.2330 N   0  0  0  0  0  2  0  0  0  0  0  0
  192.0310  174.2110  141.3480 C   0  0  0  0  0  0  0  0  0  0  0  0
  188.2320  176.7230  145.6680 C   0  0  0  0  0  0  0  0  0  0  0  0
  187.6970  175.7990  143.4980 N   0  0  0  0  0  2  0  0  0  0  0  0
  186.5100  177.6340  147.1060 C   0  0  0  0  0  3  0  0  0  0  0  0
  187.3370  175.9950  142.1280 C   0  0  0  0  0  0  0  0  0  0  0  0
  187.8240  175.0860  141.0530 C   0  0  1  0  0  3  0  0  0  0  0  0
  187.4030  175.8680  139.8470 C   0  0  0  0  0  3  0  0  0  0  0  0
  186.8340  176.9870  140.1610 N   0  0  0  0  0  0  0  0  0  0  0  0
  186.8100  177.0810  141.5750 C   0  0  0  0  0  0  0  0  0  0  0  0
  189.2760  175.0040  141.1060 N   0  0  0  0  0  2  0  0  0  0  0  0
  190.5410  176.1470  146.3800 C   0  0  0  0  0  2  0  0  0  0  0  0
  186.4240  178.2910  142.2510 C   0  0  0  0  0  0  0  0  0  0  0  0
  186.1120  179.2610  142.7990 N   0  0  0  0  0  0  0  0  0  0  0  0
  192.8800  173.7780  139.0130 C   0  0  0  0  0  2  0  0  0  0  0  0
  193.0960  172.6490  138.1190 N   0  0  0  0  0  2  0  0  0  0  0  0
  193.2360  171.4910  138.9040 N   0  0  0  0  0  2  0  0  0  0  0  0
  192.4650  170.4010  138.3060 C   0  0  2  0  0  3  0  0  0  0  0  0
  192.1080  170.6550  136.8330 C   0  0  0  0  0  2  0  0  0  0  0  0
  190.9750  169.7330  136.3990 C   0  0  0  0  0  2  0  0  0  0  0  0
  189.8080  171.8390  138.7540 F   0  0  0  0  0  0  0  0  0  0  0  0
  189.9240  170.4650  138.6370 C   0  0  2  0  0  3  0  0  0  0  0  0
  191.2730  169.9960  139.1910 C   0  0  0  0  0  2  0  0  0  0  0  0
  189.6910  170.0400  137.1780 C   0  0  0  0  0  2  0  0  0  0  0  0
  192.9170  175.5560  146.7810 C   0  0  0  0  0  2  0  0  0  0  0  0
  194.2950  177.5290  146.1740 C   0  0  0  0  0  3  0  0  0  0  0  0
  195.3640  178.0520  145.7630 O   0  0  0  0  0  0  0  0  0  0  0  0
  194.2130  176.1250  146.4390 N   0  0  0  0  0  0  0  0  0  0  0  0
  195.3150  175.2150  146.1380 C   0  0  0  0  0  2  0  0  0  0  0  0
  195.1910  173.4300  144.4260 C   0  0  0  0  0  1  0  0  0  0  0  0
  195.4020  174.9130  144.6470 C   0  0  2  0  0  3  0  0  0  0  0  0
  196.7030  175.2940  144.1280 N   0  0  0  0  0  1  0  0  0  0  0  0
  2 12  1  0  0  0  0
  3  1  1  6  0  0  0
  3  7  1  0  0  0  0
  4  5  1  0  0  0  0
  5 24  1  0  0  0  0
  5 37  1  1  0  0  0
  6  2  2  0  0  0  0
  6 15  1  0  0  0  0
  7  4  1  1  0  0  0
  8  7  1  0  0  0  0
  9 17  1  0  0  0  0
 10 15  1  0  0  0  0
 10 24  1  0  0  0  0
 11  8  1  0  0  0  0
 12 17  2  0  0  0  0
 13 14  1  0  0  0  0
 14 11  2  0  0  0  0
 14  3  1  0  0  0  0
 15  9  2  0  0  0  0
 16  6  1  0  0  0  0
 18 16  1  0  0  0  0
 19 20  1  6  0  0  0
 19 23  1  0  0  0  0
 19 18  1  0  0  0  0
 20 21  2  0  0  0  0
 21 22  1  0  0  0  0
 22 18  2  0  0  0  0
 22 25  1  0  0  0  0
 23  1  1  0  0  0  0
 25 26  3  0  0  0  0
 27 13  1  0  0  0  0
 28 29  1  0  0  0  0
 28 27  1  0  0  0  0
 30 29  1  1  0  0  0
 30 35  1  0  0  0  0
 31 30  1  0  0  0  0
 32 31  1  0  0  0  0
 32 36  1  0  0  0  0
 34 33  1  6  0  0  0
 34 35  1  0  0  0  0
 36 34  1  0  0  0  0
 38 40  1  0  0  0  0
 39 38  2  0  0  0  0
 40 37  1  0  0  0  0
 41 40  1  0  0  0  0
 43 42  1  1  0  0  0
 43 41  1  0  0  0  0
 44 43  1  0  0  0  0
M  END
>  <MODEL>
7

>  <REMARK>
 VINA RESULT:      -6.9      2.834      9.229
  Name = 
  9 active torsions:
  status: ('A' for Active; 'I' for Inactive)
    1  A    between atoms: C_2  and  N_44
    2  A    between atoms: C_8  and  C_38
    3  A    between atoms: C_13  and  C_41
    4  A    between atoms: C_15  and  C_23
    5  A    between atoms: N_18  and  C_34
    6  A    between atoms: N_18  and  N_44
    7  A    between atoms: C_23  and  N_25
    8  A    between atoms: N_25  and  C_38
    9  A    between atoms: N_26  and  C_34
                            x       y       z     vdW  Elec       q    Type
                         _______ _______ _______ _____ _____    ______ ____

>  <TORSDO>
F 9

$$$$
=
 OpenBabel11042418453D

 44 48  0  0  1  0  0  0  0  0999 V2000
  193.4070  175.9940  143.3290 C   0  0  0  0  0  2  0  0  0  0  0  0
  188.1060  177.3350  144.3810 C   0  0  0  0  0  3  0  0  0  0  0  0
  193.6030  174.8270  142.3550 C   0  0  2  0  0  3  0  0  0  0  0  0
  191.8740  173.9320  140.7700 C   0  0  0  0  0  2  0  0  0  0  0  0
  190.5320  173.2110  140.6310 C   0  0  1  0  0  3  0  0  0  0  0  0
  189.0010  176.4450  143.7760 C   0  0  0  0  0  0  0  0  0  0  0  0
  192.3340  173.9730  142.2260 C   0  0  1  0  0  3  0  0  0  0  0  0
  192.7680  172.6820  142.6360 O   0  0  0  0  0  0  0  0  0  0  0  0
  187.2320  175.6490  142.3210 C   0  0  0  0  0  3  0  0  0  0  0  0
  189.5000  174.7420  142.1730 O   0  0  0  0  0  0  0  0  0  0  0  0
  194.0880  172.6530  143.0090 N   0  0  0  0  0  0  0  0  0  0  0  0
  186.7700  177.3640  143.9700 C   0  0  0  0  0  3  0  0  0  0  0  0
  195.9540  174.1370  143.1420 N   0  0  0  0  0  2  0  0  0  0  0  0
  194.5860  173.8310  142.8700 C   0  0  0  0  0  0  0  0  0  0  0  0
  188.5680  175.6110  142.7400 C   0  0  0  0  0  0  0  0  0  0  0  0
  190.3960  176.4620  144.0750 N   0  0  0  0  0  2  0  0  0  0  0  0
  186.3330  176.5240  142.9410 C   0  0  0  0  0  3  0  0  0  0  0  0
  191.0690  176.5480  145.3350 C   0  0  0  0  0  0  0  0  0  0  0  0
  192.5530  176.6410  145.4250 C   0  0  1  0  0  3  0  0  0  0  0  0
  192.7330  176.4320  146.8960 C   0  0  0  0  0  3  0  0  0  0  0  0
  191.6090  176.2320  147.5060 N   0  0  0  0  0  0  0  0  0  0  0  0
  190.5750  176.2810  146.5380 C   0  0  0  0  0  0  0  0  0  0  0  0
  193.1550  175.5350  144.6930 N   0  0  0  0  0  2  0  0  0  0  0  0
  189.3660  174.1610  140.8890 C   0  0  0  0  0  2  0  0  0  0  0  0
  189.2220  175.9030  146.8500 C   0  0  0  0  0  0  0  0  0  0  0  0
  188.1350  175.5950  147.0970 N   0  0  0  0  0  0  0  0  0  0  0  0
  196.7900  173.2720  143.9620 C   0  0  0  0  0  2  0  0  0  0  0  0
  196.4620  173.4390  145.3720 N   0  0  0  0  0  2  0  0  0  0  0  0
  196.9120  172.2990  146.0610 N   0  0  0  0  0  2  0  0  0  0  0  0
  196.3210  171.1030  145.4620 C   0  0  2  0  0  3  0  0  0  0  0  0
  194.8620  170.8750  145.8900 C   0  0  0  0  0  2  0  0  0  0  0  0
  194.4480  169.4370  145.6010 C   0  0  0  0  0  2  0  0  0  0  0  0
  196.8650  169.4110  147.9450 F   0  0  0  0  0  0  0  0  0  0  0  0
  196.7250  168.8810  146.6750 C   0  0  2  0  0  3  0  0  0  0  0  0
  197.2340  169.8740  145.6250 C   0  0  0  0  0  2  0  0  0  0  0  0
  195.2680  168.4520  146.4410 C   0  0  0  0  0  2  0  0  0  0  0  0
  190.4120  172.6460  139.2250 C   0  0  0  0  0  2  0  0  0  0  0  0
  189.9240  170.4790  138.1180 C   0  0  0  0  0  3  0  0  0  0  0  0
  189.8190  169.2240  138.1310 O   0  0  0  0  0  0  0  0  0  0  0  0
  190.4420  171.1900  139.2470 N   0  0  0  0  0  0  0  0  0  0  0  0
  190.7640  170.5190  140.5030 C   0  0  0  0  0  2  0  0  0  0  0  0
  192.4700  169.2690  141.7920 C   0  0  0  0  0  1  0  0  0  0  0  0
  192.0860  169.7660  140.4150 C   0  0  2  0  0  3  0  0  0  0  0  0
  193.1320  170.6370  139.9110 N   0  0  0  0  0  1  0  0  0  0  0  0
  1 23  1  0  0  0  0
  3 14  1  0  0  0  0
  3  1  1  1  0  0  0
  5 37  1  6  0  0  0
  5  4  1  0  0  0  0
  5 24  1  0  0  0  0
  6 16  1  0  0  0  0
  6  2  2  0  0  0  0
  7  4  1  6  0  0  0
  7  3  1  0  0  0  0
  7  8  1  0  0  0  0
  8 11  1  0  0  0  0
  9 15  2  0  0  0  0
  9 17  1  0  0  0  0
 10 15  1  0  0  0  0
 12  2  1  0  0  0  0
 13 27  1  0  0  0  0
 14 11  2  0  0  0  0
 14 13  1  0  0  0  0
 15  6  1  0  0  0  0
 16 18  1  0  0  0  0
 17 12  2  0  0  0  0
 18 19  1  0  0  0  0
 18 22  2  0  0  0  0
 19 20  1  1  0  0  0
 20 21  2  0  0  0  0
 22 25  1  0  0  0  0
 22 21  1  0  0  0  0
 23 19  1  0  0  0  0
 24 10  1  0  0  0  0
 25 26  3  0  0  0  0
 27 28  1  0  0  0  0
 28 29  1  0  0  0  0
 30 35  1  0  0  0  0
 30 31  1  0  0  0  0
 30 29  1  1  0  0  0
 32 31  1  0  0  0  0
 32 36  1  0  0  0  0
 34 33  1  1  0  0  0
 35 34  1  0  0  0  0
 36 34  1  0  0  0  0
 37 40  1  0  0  0  0
 38 39  2  0  0  0  0
 38 40  1  0  0  0  0
 40 41  1  0  0  0  0
 43 41  1  0  0  0  0
 43 42  1  1  0  0  0
 44 43  1  0  0  0  0
M  END
>  <MODEL>
8

>  <REMARK>
 VINA RESULT:      -6.9      2.883      7.863
  Name = 
  9 active torsions:
  status: ('A' for Active; 'I' for Inactive)
    1  A    between atoms: C_2  and  N_44
    2  A    between atoms: C_8  and  C_38
    3  A    between atoms: C_13  and  C_41
    4  A    between atoms: C_15  and  C_23
    5  A    between atoms: N_18  and  C_34
    6  A    between atoms: N_18  and  N_44
    7  A    between atoms: C_23  and  N_25
    8  A    between atoms: N_25  and  C_38
    9  A    between atoms: N_26  and  C_34
                            x       y       z     vdW  Elec       q    Type
                         _______ _______ _______ _____ _____    ______ ____

>  <TORSDO>
F 9

$$$$
=
 OpenBabel11042418453D

 44 48  0  0  1  0  0  0  0  0999 V2000
  191.3780  175.6770  143.5200 C   0  0  0  0  0  2  0  0  0  0  0  0
  186.7140  178.6680  144.0710 C   0  0  0  0  0  3  0  0  0  0  0  0
  191.3440  174.6150  142.4160 C   0  0  2  0  0  3  0  0  0  0  0  0
  189.7160  174.5330  140.5070 C   0  0  0  0  0  2  0  0  0  0  0  0
  188.2570  174.3400  140.0920 C   0  0  1  0  0  3  0  0  0  0  0  0
  187.3570  177.5860  143.4610 C   0  0  0  0  0  0  0  0  0  0  0  0
  189.9080  174.2720  142.0010 C   0  0  1  0  0  3  0  0  0  0  0  0
  189.8160  172.8770  142.2660 O   0  0  0  0  0  0  0  0  0  0  0  0
  185.7020  177.5980  141.6880 C   0  0  0  0  0  3  0  0  0  0  0  0
  187.5370  175.9780  141.6990 O   0  0  0  0  0  0  0  0  0  0  0  0
  190.9690  172.3550  142.7970 N   0  0  0  0  0  0  0  0  0  0  0  0
  185.5530  179.1990  143.5020 C   0  0  0  0  0  3  0  0  0  0  0  0
  193.1670  173.0790  143.3880 N   0  0  0  0  0  2  0  0  0  0  0  0
  191.8420  173.2950  142.9000 C   0  0  0  0  0  0  0  0  0  0  0  0
  186.8590  177.0580  142.2650 C   0  0  0  0  0  0  0  0  0  0  0  0
  188.6070  177.0880  143.9350 N   0  0  0  0  0  2  0  0  0  0  0  0
  185.0480  178.6660  142.3110 C   0  0  0  0  0  3  0  0  0  0  0  0
  189.0450  176.8140  145.2700 C   0  0  0  0  0  0  0  0  0  0  0  0
  190.4380  176.3760  145.5620 C   0  0  1  0  0  3  0  0  0  0  0  0
  190.2850  175.9780  146.9970 C   0  0  0  0  0  3  0  0  0  0  0  0
  189.0710  176.1230  147.4210 N   0  0  0  0  0  0  0  0  0  0  0  0
  188.2920  176.6210  146.3460 C   0  0  0  0  0  0  0  0  0  0  0  0
  190.7600  175.2060  144.7570 N   0  0  0  0  0  2  0  0  0  0  0  0
  187.4410  175.6060  140.3370 C   0  0  0  0  0  2  0  0  0  0  0  0
  186.8580  176.7080  146.4220 C   0  0  0  0  0  0  0  0  0  0  0  0
  185.7060  176.7830  146.4830 N   0  0  0  0  0  0  0  0  0  0  0  0
  193.5190  171.9030  144.1700 C   0  0  0  0  0  2  0  0  0  0  0  0
  194.2250  172.2940  145.3830 N   0  0  0  0  0  2  0  0  0  0  0  0
  195.3940  172.9780  145.0050 N   0  0  0  0  0  2  0  0  0  0  0  0
  195.4580  174.2580  145.7110 C   0  0  2  0  0  3  0  0  0  0  0  0
  194.0820  174.7510  146.1870 C   0  0  0  0  0  2  0  0  0  0  0  0
  194.1410  176.2380  146.5150 C   0  0  0  0  0  2  0  0  0  0  0  0
  194.6880  175.8410  143.2160 F   0  0  0  0  0  0  0  0  0  0  0  0
  195.4040  176.3780  144.2710 C   0  0  2  0  0  3  0  0  0  0  0  0
  196.2740  175.3010  144.9260 C   0  0  0  0  0  2  0  0  0  0  0  0
  194.4480  177.0640  145.2600 C   0  0  0  0  0  2  0  0  0  0  0  0
  188.2010  173.9890  138.6140 C   0  0  0  0  0  2  0  0  0  0  0  0
  189.1210  171.7360  139.1010 C   0  0  0  0  0  3  0  0  0  0  0  0
  189.9830  170.8320  138.9450 O   0  0  0  0  0  0  0  0  0  0  0  0
  189.1370  172.9210  138.2980 N   0  0  0  0  0  0  0  0  0  0  0  0
  190.2110  173.1950  137.3460 C   0  0  0  0  0  2  0  0  0  0  0  0
  189.6280  171.7670  135.4090 C   0  0  0  0  0  1  0  0  0  0  0  0
  189.7030  173.1940  135.9100 C   0  0  2  0  0  3  0  0  0  0  0  0
  190.5960  173.9550  135.0550 N   0  0  0  0  0  1  0  0  0  0  0  0
  1 23  1  0  0  0  0
  3 14  1  0  0  0  0
  3  1  1  1  0  0  0
  5 37  1  6  0  0  0
  5 24  1  0  0  0  0
  5  4  1  0  0  0  0
  6 16  1  0  0  0  0
  6  2  2  0  0  0  0
  7  4  1  6  0  0  0
  7  8  1  0  0  0  0
  7  3  1  0  0  0  0
  8 11  1  0  0  0  0
  9 15  2  0  0  0  0
  9 17  1  0  0  0  0
 10 15  1  0  0  0  0
 11 14  2  0  0  0  0
 12  2  1  0  0  0  0
 13 27  1  0  0  0  0
 14 13  1  0  0  0  0
 15  6  1  0  0  0  0
 16 18  1  0  0  0  0
 17 12  2  0  0  0  0
 18 19  1  0  0  0  0
 18 22  2  0  0  0  0
 19 20  1  1  0  0  0
 20 21  2  0  0  0  0
 22 25  1  0  0  0  0
 22 21  1  0  0  0  0
 23 19  1  0  0  0  0
 24 10  1  0  0  0  0
 25 26  3  0  0  0  0
 27 28  1  0  0  0  0
 29 28  1  0  0  0  0
 30 29  1  6  0  0  0
 30 31  1  0  0  0  0
 31 32  1  0  0  0  0
 34 33  1  6  0  0  0
 34 35  1  0  0  0  0
 34 36  1  0  0  0  0
 35 30  1  0  0  0  0
 36 32  1  0  0  0  0
 39 38  2  0  0  0  0
 40 37  1  0  0  0  0
 40 38  1  0  0  0  0
 41 40  1  0  0  0  0
 43 42  1  6  0  0  0
 43 41  1  0  0  0  0
 44 43  1  0  0  0  0
M  END
>  <MODEL>
9

>  <REMARK>
 VINA RESULT:      -6.9      2.449      7.574
  Name = 
  9 active torsions:
  status: ('A' for Active; 'I' for Inactive)
    1  A    between atoms: C_2  and  N_44
    2  A    between atoms: C_8  and  C_38
    3  A    between atoms: C_13  and  C_41
    4  A    between atoms: C_15  and  C_23
    5  A    between atoms: N_18  and  C_34
    6  A    between atoms: N_18  and  N_44
    7  A    between atoms: C_23  and  N_25
    8  A    between atoms: N_25  and  C_38
    9  A    between atoms: N_26  and  C_34
                            x       y       z     vdW  Elec       q    Type
                         _______ _______ _______ _____ _____    ______ ____

>  <TORSDO>
F 9

$$$$
