=
 OpenBabel11042414313D

 64 72  0  0  1  0  0  0  0  0999 V2000
  190.8510  175.7190  143.3910 C   0  0  0  0  0  0  0  0  0  0  0  0
  192.3250  174.1780  144.6480 S   0  0  0  0  0  0  0  0  0  0  0  0
  190.8020  174.4910  144.0060 C   0  0  0  0  0  0  0  0  0  0  0  0
  189.8860  175.5430  142.4080 N   0  0  0  0  0  0  0  0  0  0  0  0
  188.4520  175.2660  142.2510 N   0  0  0  0  0  0  0  0  0  0  0  0
  193.0120  175.6420  144.1180 C   0  0  0  0  0  0  0  0  0  0  0  0
  192.0880  176.3590  143.3400 C   0  0  0  0  0  3  0  0  0  0  0  0
  189.3140  174.2840  142.0560 C   0  0  2  0  0  3  0  0  0  0  0  0
  189.7410  173.5530  143.3640 C   0  0  1  0  0  3  0  0  0  0  0  0
  194.4010  176.0980  144.4700 C   0  0  2  0  0  3  0  0  0  0  0  0
  196.6890  173.4830  146.0560 C   0  0  0  0  0  3  0  0  0  0  0  0
  195.8710  174.6000  145.8780 C   0  0  0  0  0  3  0  0  0  0  0  0
  195.8050  174.1760  143.4930 C   0  0  0  0  0  3  0  0  0  0  0  0
  197.0470  172.6870  144.9580 C   0  0  0  0  0  0  0  0  0  0  0  0
  196.6240  173.0570  143.6730 C   0  0  0  0  0  3  0  0  0  0  0  0
  195.3850  174.9380  144.6060 C   0  0  0  0  0  0  0  0  0  0  0  0
  197.7150  168.9070  144.9280 C   0  0  0  0  0  1  0  0  0  0  0  0
  197.0400  170.1880  145.3220 C   0  0  0  0  0  0  0  0  0  0  0  0
  197.7200  171.4350  145.1370 N   0  0  0  0  0  2  0  0  0  0  0  0
  195.8940  170.1460  145.9170 N   0  0  0  0  0  2  0  0  0  0  0  0
  194.3650  176.9750  145.7070 C   0  0  0  0  0  0  0  0  0  0  0  0
  195.1000  178.0010  145.7820 O   0  0  0  0  0  0  0  0  0  0  0  0
  193.5030  176.6740  146.8070 N   0  0  0  0  0  1  0  0  0  0  0  0
  190.2740  172.1700  143.0220 C   0  0  0  0  0  2  0  0  0  0  0  0
  191.0780  172.2260  141.7410 C   0  0  0  0  0  2  0  0  0  0  0  0
  190.6840  171.1830  140.8890 O   0  0  0  0  0  0  0  0  0  0  0  0
  190.8370  171.6790  139.6020 C   0  0  2  0  0  3  0  0  0  0  0  0
  189.4460  171.9670  139.0180 C   0  0  0  0  0  1  0  0  0  0  0  0
  191.0380  170.1730  137.5120 C   0  0  0  0  0  1  0  0  0  0  0  0
  191.7180  170.7400  138.7570 C   0  0  1  0  0  3  0  0  0  0  0  0
  192.9850  173.2360  135.2430 C   0  0  2  0  0  3  0  0  0  0  0  0
  195.5580  173.1790  138.0300 C   0  0  2  0  0  3  0  0  0  0  0  0
  193.4320  172.4390  139.2250 N   0  0  0  0  0  2  0  0  0  0  0  0
  194.3160  175.0330  139.2330 O   0  0  0  0  0  1  0  0  0  0  0  0
  193.5090  174.6620  135.1370 C   0  0  0  0  0  2  0  0  0  0  0  0
  193.1360  171.2280  138.4500 C   0  0  2  0  0  3  0  0  0  0  0  0
  191.4870  173.2940  135.5070 C   0  0  0  0  0  1  0  0  0  0  0  0
  195.6680  171.6950  140.2130 C   0  0  0  0  0  1  0  0  0  0  0  0
  194.6060  174.8180  136.1850 C   0  0  1  0  0  3  0  0  0  0  0  0
  195.3310  174.0640  139.2690 C   0  0  0  0  0  0  0  0  0  0  0  0
  193.3440  171.4350  137.0180 N   0  0  0  0  0  2  0  0  0  0  0  0
  194.6000  173.5180  136.9230 C   0  0  0  0  0  0  0  0  0  0  0  0
  193.6960  172.6900  136.4260 C   0  0  0  0  0  0  0  0  0  0  0  0
  194.8820  172.6150  139.2960 C   0  0  1  0  0  0  0  0  0  0  0  0
  196.4850  174.3770  139.9860 O   0  0  0  0  0  1  0  0  0  0  0  0
  195.9350  175.0660  135.4880 C   0  0  0  0  0  2  0  0  0  0  0  0
  196.7730  175.9430  136.2750 N   0  0  0  0  0  1  0  0  0  0  0  0
  188.0220  175.7430  140.9420 C   0  0  0  0  0  2  0  0  0  0  0  0
  186.8150  176.6570  141.1180 C   0  0  0  0  0  2  0  0  0  0  0  0
  186.4620  176.7260  142.4710 O   0  0  0  0  0  0  0  0  0  0  0  0
  182.8490  178.7570  142.6640 C   0  0  0  0  0  2  0  0  0  0  0  0
  185.8360  177.9630  142.6130 C   0  0  1  0  0  3  0  0  0  0  0  0
  183.3700  177.8570  141.6210 N   0  0  0  0  0  0  0  0  0  0  0  0
  183.8900  179.0840  143.7440 C   0  0  0  0  0  2  0  0  0  0  0  0
  184.9600  178.4350  141.0690 S   0  0  0  0  0  0  0  0  0  0  0  0
  184.9130  177.9480  143.8440 C   0  0  2  0  0  3  0  0  0  0  0  0
  185.7010  177.9970  145.1470 C   0  0  0  0  0  3  0  0  0  0  0  0
  185.5720  179.3420  145.8960 C   0  0  0  0  0  2  0  0  0  0  0  0
  185.7370  179.1860  147.4060 C   0  0  0  0  0  2  0  0  0  0  0  0
  186.3060  176.7490  147.2540 C   0  0  0  0  0  2  0  0  0  0  0  0
  186.7820  178.1320  147.7180 C   0  0  0  0  0  2  0  0  0  0  0  0
  185.3650  176.7990  146.0420 C   0  0  0  0  0  2  0  0  0  0  0  0
  182.4600  178.0120  140.4940 C   0  0  0  0  0  2  0  0  0  0  0  0
  181.3340  178.7410  140.8940 O   0  0  0  0  0  1  0  0  0  0  0  0
  1  3  2  0  0  0  0
  3  2  1  0  0  0  0
  4  1  1  0  0  0  0
  5  4  1  0  0  0  0
  6 10  1  0  0  0  0
  6  2  1  0  0  0  0
  7  1  1  0  0  0  0
  7  6  2  0  0  0  0
  8  5  1  1  0  0  0
  8  4  1  0  0  0  0
  8  9  1  0  0  0  0
  9 24  1  6  0  0  0
  9  3  1  0  0  0  0
 10 16  1  0  0  0  0
 10 21  1  1  0  0  0
 12 11  1  0  0  0  0
 13 15  2  0  0  0  0
 13 16  1  0  0  0  0
 14 19  1  0  0  0  0
 14 11  2  0  0  0  0
 15 14  1  0  0  0  0
 16 12  2  0  0  0  0
 17 18  1  0  0  0  0
 18 20  2  0  0  0  0
 19 18  1  0  0  0  0
 21 22  2  0  0  0  0
 21 23  1  0  0  0  0
 25 24  1  0  0  0  0
 26 25  1  0  0  0  0
 27 28  1  6  0  0  0
 27 26  1  0  0  0  0
 30 29  1  6  0  0  0
 30 27  1  0  0  0  0
 31 37  1  1  0  0  0
 31 43  1  0  0  0  0
 32 42  1  6  0  0  0
 32 40  1  0  0  0  0
 32 44  1  0  0  0  0
 33 44  1  0  0  0  0
 34 40  1  0  0  0  0
 35 31  1  0  0  0  0
 35 39  1  0  0  0  0
 36 30  1  6  0  0  0
 36 33  1  0  0  0  0
 39 46  1  6  0  0  0
 39 42  1  0  0  0  0
 40 44  1  0  0  0  0
 40 45  1  0  0  0  0
 41 36  1  0  0  0  0
 43 42  2  0  0  0  0
 43 41  1  0  0  0  0
 44 38  1  1  0  0  0
 46 47  1  0  0  0  0
 48 49  1  0  0  0  0
 48  5  1  0  0  0  0
 49 50  1  0  0  0  0
 51 54  1  0  0  0  0
 52 50  1  6  0  0  0
 52 56  1  0  0  0  0
 53 51  1  0  0  0  0
 54 56  1  0  0  0  0
 55 53  1  0  0  0  0
 55 52  1  0  0  0  0
 56 57  1  1  0  0  0
 57 58  1  0  0  0  0
 57 62  1  0  0  0  0
 58 59  1  0  0  0  0
 59 61  1  0  0  0  0
 60 61  1  0  0  0  0
 62 60  1  0  0  0  0
 63 64  1  0  0  0  0
 63 53  1  0  0  0  0
M  END
>  <MODEL>
1

>  <REMARK>
 VINA RESULT:      -7.8      0.000      0.000
  Name = 
  17 active torsions:
  status: ('A' for Active; 'I' for Inactive)
    1  A    between atoms: C_3  and  O_38
    2  A    between atoms: C_3  and  C_58
    3  A    between atoms: C_9  and  C_54
    4  A    between atoms: C_12  and  O_38
    5  A    between atoms: C_14  and  C_35
    6  A    between atoms: C_14  and  O_48
    7  A    between atoms: C_15  and  C_51
    8  A    between atoms: C_15  and  C_52
    9  A    between atoms: N_20  and  C_58
   10  A    between atoms: C_21  and  C_23
   11  A    between atoms: C_21  and  C_28
   12  A    between atoms: C_21  and  C_60
   13  A    between atoms: N_22  and  C_44
   14  A    between atoms: C_29  and  C_35
   15  A    between atoms: C_32  and  C_36
   16  A    between atoms: C_37  and  N_50
   17  A    between atoms: O_48  and  C_51
                            x       y       z     vdW  Elec       q    Type
                         _______ _______ _______ _____ _____    ______ ____

>  <TORSDO>
F 17

$$$$
=
 OpenBabel11042414313D

 64 72  0  0  1  0  0  0  0  0999 V2000
  190.7080  177.1170  146.2400 C   0  0  0  0  0  0  0  0  0  0  0  0
  189.0230  177.8710  144.5890 S   0  0  0  0  0  0  0  0  0  0  0  0
  190.6460  177.7230  145.0070 C   0  0  0  0  0  0  0  0  0  0  0  0
  191.9360  176.4760  146.1400 N   0  0  0  0  0  0  0  0  0  0  0  0
  193.3640  176.7660  145.9560 N   0  0  0  0  0  0  0  0  0  0  0  0
  188.4380  177.1500  146.0160 C   0  0  0  0  0  0  0  0  0  0  0  0
  189.5070  176.6880  146.8010 C   0  0  0  0  0  3  0  0  0  0  0  0
  192.6690  176.3210  144.9240 C   0  0  2  0  0  3  0  0  0  0  0  0
  191.9100  177.4400  144.1480 C   0  0  1  0  0  3  0  0  0  0  0  0
  186.9810  177.0590  146.3780 C   0  0  2  0  0  3  0  0  0  0  0  0
  185.0750  177.1100  143.0700 C   0  0  0  0  0  3  0  0  0  0  0  0
  185.9790  176.7700  144.0760 C   0  0  0  0  0  3  0  0  0  0  0  0
  185.2770  178.6980  145.3660 C   0  0  0  0  0  3  0  0  0  0  0  0
  184.2440  178.2310  143.2160 C   0  0  0  0  0  0  0  0  0  0  0  0
  184.3710  179.0380  144.3560 C   0  0  0  0  0  3  0  0  0  0  0  0
  186.0640  177.5310  145.2530 C   0  0  0  0  0  0  0  0  0  0  0  0
  181.9890  177.9350  140.1220 C   0  0  0  0  0  1  0  0  0  0  0  0
  183.2510  178.1930  140.8940 C   0  0  0  0  0  0  0  0  0  0  0  0
  183.1790  178.4910  142.2930 N   0  0  0  0  0  2  0  0  0  0  0  0
  184.3800  178.2420  140.2680 N   0  0  0  0  0  2  0  0  0  0  0  0
  186.7210  177.7880  147.6830 C   0  0  0  0  0  0  0  0  0  0  0  0
  187.4210  178.7910  148.0030 O   0  0  0  0  0  0  0  0  0  0  0  0
  185.6840  177.3710  148.5720 N   0  0  0  0  0  1  0  0  0  0  0  0
  191.5980  176.9580  142.7400 C   0  0  0  0  0  2  0  0  0  0  0  0
  191.1780  175.5040  142.7710 C   0  0  0  0  0  2  0  0  0  0  0  0
  189.9870  175.3400  142.0460 O   0  0  0  0  0  0  0  0  0  0  0  0
  189.2620  174.3810  142.7390 C   0  0  2  0  0  3  0  0  0  0  0  0
  189.9370  174.1420  144.0970 C   0  0  0  0  0  1  0  0  0  0  0  0
  187.6110  172.6760  141.7160 C   0  0  0  0  0  1  0  0  0  0  0  0
  189.0650  173.1190  141.8780 C   0  0  1  0  0  3  0  0  0  0  0  0
  192.8260  170.8230  141.0000 C   0  0  2  0  0  3  0  0  0  0  0  0
  191.0150  171.9630  137.8670 C   0  0  2  0  0  3  0  0  0  0  0  0
  189.1910  172.1050  139.6420 N   0  0  0  0  0  2  0  0  0  0  0  0
  189.4950  169.9380  137.9920 O   0  0  0  0  0  1  0  0  0  0  0  0
  193.1100  169.6330  140.0920 C   0  0  0  0  0  2  0  0  0  0  0  0
  189.8170  173.0780  140.5450 C   0  0  2  0  0  3  0  0  0  0  0  0
  192.0940  170.3190  142.2360 C   0  0  0  0  0  1  0  0  0  0  0  0
  188.9690  173.6110  137.5910 C   0  0  0  0  0  1  0  0  0  0  0  0
  192.4720  169.9360  138.7410 C   0  0  1  0  0  3  0  0  0  0  0  0
  189.7790  171.1770  137.3960 C   0  0  0  0  0  0  0  0  0  0  0  0
  191.2420  172.8080  140.7310 N   0  0  0  0  0  2  0  0  0  0  0  0
  191.7580  171.2320  138.9490 C   0  0  0  0  0  0  0  0  0  0  0  0
  191.9290  171.6790  140.1830 C   0  0  0  0  0  0  0  0  0  0  0  0
  189.5930  172.4050  138.2690 C   0  0  1  0  0  0  0  0  0  0  0  0
  189.4740  171.3180  136.0430 O   0  0  0  0  0  1  0  0  0  0  0  0
  193.5630  170.0550  137.6870 C   0  0  0  0  0  2  0  0  0  0  0  0
  194.4850  171.1190  138.0180 N   0  0  0  0  0  1  0  0  0  0  0  0
  194.1410  175.6490  146.4790 C   0  0  0  0  0  2  0  0  0  0  0  0
  195.2090  175.2660  145.4600 C   0  0  0  0  0  2  0  0  0  0  0  0
  194.9320  173.9990  144.9320 O   0  0  0  0  0  0  0  0  0  0  0  0
  197.1210  170.5510  144.1990 C   0  0  0  0  0  2  0  0  0  0  0  0
  196.1800  173.4660  144.6150 C   0  0  1  0  0  3  0  0  0  0  0  0
  196.3030  170.9170  145.3670 N   0  0  0  0  0  0  0  0  0  0  0  0
  197.2850  171.7050  143.2000 C   0  0  0  0  0  2  0  0  0  0  0  0
  196.8480  172.4820  146.0150 S   0  0  0  0  0  0  0  0  0  0  0  0
  196.0930  172.6610  143.3070 C   0  0  2  0  0  3  0  0  0  0  0  0
  195.9710  173.5670  142.0870 C   0  0  0  0  0  3  0  0  0  0  0  0
  194.5240  174.0240  141.7990 C   0  0  0  0  0  2  0  0  0  0  0  0
  194.4700  175.3790  141.0970 C   0  0  0  0  0  2  0  0  0  0  0  0
  196.9610  175.5360  140.8600 C   0  0  0  0  0  2  0  0  0  0  0  0
  195.6190  175.5130  140.1160 C   0  0  0  0  0  2  0  0  0  0  0  0
  196.9470  174.7470  142.1760 C   0  0  0  0  0  2  0  0  0  0  0  0
  196.6150  169.9190  146.3810 C   0  0  0  0  0  2  0  0  0  0  0  0
  195.8180  168.7840  146.1860 O   0  0  0  0  0  1  0  0  0  0  0  0
  1  7  1  0  0  0  0
  2  3  1  0  0  0  0
  2  6  1  0  0  0  0
  3  1  2  0  0  0  0
  4  1  1  0  0  0  0
  5  4  1  0  0  0  0
  5 48  1  0  0  0  0
  6 10  1  0  0  0  0
  6  7  2  0  0  0  0
  8  5  1  1  0  0  0
  8  4  1  0  0  0  0
  9 24  1  6  0  0  0
  9  8  1  0  0  0  0
  9  3  1  0  0  0  0
 10 21  1  1  0  0  0
 11 14  2  0  0  0  0
 11 12  1  0  0  0  0
 12 16  2  0  0  0  0
 14 15  1  0  0  0  0
 15 13  2  0  0  0  0
 16 13  1  0  0  0  0
 16 10  1  0  0  0  0
 17 18  1  0  0  0  0
 18 19  1  0  0  0  0
 19 14  1  0  0  0  0
 20 18  2  0  0  0  0
 21 22  2  0  0  0  0
 21 23  1  0  0  0  0
 24 25  1  0  0  0  0
 26 27  1  0  0  0  0
 26 25  1  0  0  0  0
 27 28  1  1  0  0  0
 30 29  1  6  0  0  0
 30 27  1  0  0  0  0
 31 37  1  1  0  0  0
 32 44  1  0  0  0  0
 32 42  1  1  0  0  0
 33 36  1  0  0  0  0
 35 31  1  0  0  0  0
 36 41  1  0  0  0  0
 36 30  1  1  0  0  0
 39 46  1  6  0  0  0
 39 42  1  0  0  0  0
 39 35  1  0  0  0  0
 40 32  1  0  0  0  0
 40 34  1  0  0  0  0
 40 44  1  0  0  0  0
 42 43  2  0  0  0  0
 43 41  1  0  0  0  0
 43 31  1  0  0  0  0
 44 38  1  6  0  0  0
 44 33  1  0  0  0  0
 45 40  1  0  0  0  0
 46 47  1  0  0  0  0
 49 48  1  0  0  0  0
 50 49  1  0  0  0  0
 51 53  1  0  0  0  0
 52 50  1  1  0  0  0
 52 55  1  0  0  0  0
 53 55  1  0  0  0  0
 53 63  1  0  0  0  0
 54 56  1  0  0  0  0
 54 51  1  0  0  0  0
 56 57  1  6  0  0  0
 56 52  1  0  0  0  0
 57 62  1  0  0  0  0
 58 57  1  0  0  0  0
 59 58  1  0  0  0  0
 60 62  1  0  0  0  0
 61 60  1  0  0  0  0
 61 59  1  0  0  0  0
 64 63  1  0  0  0  0
M  END
>  <MODEL>
2

>  <REMARK>
 VINA RESULT:      -7.3      2.805      9.819
  Name = 
  17 active torsions:
  status: ('A' for Active; 'I' for Inactive)
    1  A    between atoms: C_3  and  O_38
    2  A    between atoms: C_3  and  C_58
    3  A    between atoms: C_9  and  C_54
    4  A    between atoms: C_12  and  O_38
    5  A    between atoms: C_14  and  C_35
    6  A    between atoms: C_14  and  O_48
    7  A    between atoms: C_15  and  C_51
    8  A    between atoms: C_15  and  C_52
    9  A    between atoms: N_20  and  C_58
   10  A    between atoms: C_21  and  C_23
   11  A    between atoms: C_21  and  C_28
   12  A    between atoms: C_21  and  C_60
   13  A    between atoms: N_22  and  C_44
   14  A    between atoms: C_29  and  C_35
   15  A    between atoms: C_32  and  C_36
   16  A    between atoms: C_37  and  N_50
   17  A    between atoms: O_48  and  C_51
                            x       y       z     vdW  Elec       q    Type
                         _______ _______ _______ _____ _____    ______ ____

>  <TORSDO>
F 17

$$$$
=
 OpenBabel11042414313D

 64 72  0  0  1  0  0  0  0  0999 V2000
  191.0560  175.4380  145.8560 C   0  0  0  0  0  0  0  0  0  0  0  0
  189.7880  177.0970  144.5250 S   0  0  0  0  0  0  0  0  0  0  0  0
  191.2080  176.2210  144.7370 C   0  0  0  0  0  0  0  0  0  0  0  0
  191.8890  174.3760  145.5320 N   0  0  0  0  0  0  0  0  0  0  0  0
  193.2960  174.0770  145.2350 N   0  0  0  0  0  0  0  0  0  0  0  0
  189.0080  176.4440  145.8910 C   0  0  0  0  0  0  0  0  0  0  0  0
  189.8090  175.4520  146.4790 C   0  0  0  0  0  3  0  0  0  0  0  0
  192.4380  174.1480  144.2340 C   0  0  2  0  0  3  0  0  0  0  0  0
  192.1970  175.5970  143.7130 C   0  0  1  0  0  3  0  0  0  0  0  0
  187.6670  176.9010  146.3940 C   0  0  2  0  0  3  0  0  0  0  0  0
  185.3760  176.7790  143.3410 C   0  0  0  0  0  3  0  0  0  0  0  0
  186.3040  176.4230  144.3200 C   0  0  0  0  0  3  0  0  0  0  0  0
  186.2870  178.6930  145.1680 C   0  0  0  0  0  3  0  0  0  0  0  0
  184.8740  178.0880  143.2860 C   0  0  0  0  0  0  0  0  0  0  0  0
  185.3560  179.0480  144.1870 C   0  0  0  0  0  3  0  0  0  0  0  0
  186.7410  177.3590  145.2700 C   0  0  0  0  0  0  0  0  0  0  0  0
  182.5040  178.0360  140.2660 C   0  0  0  0  0  1  0  0  0  0  0  0
  183.7980  178.2160  141.0040 C   0  0  0  0  0  0  0  0  0  0  0  0
  183.7840  178.4290  142.4210 N   0  0  0  0  0  2  0  0  0  0  0  0
  184.9050  178.2780  140.3420 N   0  0  0  0  0  2  0  0  0  0  0  0
  187.8440  177.9590  147.4670 C   0  0  0  0  0  0  0  0  0  0  0  0
  188.9970  178.3950  147.7460 O   0  0  0  0  0  0  0  0  0  0  0  0
  186.7250  178.4900  148.1780 N   0  0  0  0  0  1  0  0  0  0  0  0
  191.6540  175.5430  142.2930 C   0  0  0  0  0  2  0  0  0  0  0  0
  190.7510  174.3390  142.1290 C   0  0  0  0  0  2  0  0  0  0  0  0
  189.7370  174.6310  141.2020 O   0  0  0  0  0  0  0  0  0  0  0  0
  189.0060  173.4590  141.0740 C   0  0  2  0  0  3  0  0  0  0  0  0
  189.3050  172.5580  142.2820 C   0  0  0  0  0  1  0  0  0  0  0  0
  189.3010  173.7900  138.5280 C   0  0  0  0  0  1  0  0  0  0  0  0
  189.2550  172.8090  139.6990 C   0  0  1  0  0  3  0  0  0  0  0  0
  190.2920  170.2220  136.1760 C   0  0  2  0  0  3  0  0  0  0  0  0
  193.0790  170.4250  138.7420 C   0  0  2  0  0  3  0  0  0  0  0  0
  191.6570  172.4640  139.3080 N   0  0  0  0  0  2  0  0  0  0  0  0
  193.8840  172.6000  137.7160 O   0  0  0  0  0  1  0  0  0  0  0  0
  191.4990  170.1940  135.2470 C   0  0  0  0  0  2  0  0  0  0  0  0
  190.3920  171.7880  139.6230 C   0  0  2  0  0  3  0  0  0  0  0  0
  189.4280  171.4180  135.8030 C   0  0  0  0  0  1  0  0  0  0  0  0
  193.0770  171.4540  141.1760 C   0  0  0  0  0  1  0  0  0  0  0  0
  192.7450  170.2340  136.1250 C   0  0  1  0  0  3  0  0  0  0  0  0
  193.9700  171.6800  138.7730 C   0  0  0  0  0  0  0  0  0  0  0  0
  190.0990  170.7150  138.6740 N   0  0  0  0  0  2  0  0  0  0  0  0
  192.2140  170.3900  137.5140 C   0  0  0  0  0  0  0  0  0  0  0  0
  190.8910  170.4170  137.5200 C   0  0  0  0  0  0  0  0  0  0  0  0
  192.7680  171.5970  139.6960 C   0  0  1  0  0  0  0  0  0  0  0  0
  195.2230  171.4970  139.3570 O   0  0  0  0  0  1  0  0  0  0  0  0
  193.5180  168.9350  135.9580 C   0  0  0  0  0  2  0  0  0  0  0  0
  194.8740  169.1950  135.5250 N   0  0  0  0  0  1  0  0  0  0  0  0
  193.5440  172.6660  145.5050 C   0  0  0  0  0  2  0  0  0  0  0  0
  195.0480  172.4360  145.6110 C   0  0  0  0  0  2  0  0  0  0  0  0
  195.7250  173.3230  144.7650 O   0  0  0  0  0  0  0  0  0  0  0  0
  196.7000  169.8840  142.6560 C   0  0  0  0  0  2  0  0  0  0  0  0
  196.7470  172.5620  144.1990 C   0  0  1  0  0  3  0  0  0  0  0  0
  195.9610  170.0370  143.9200 N   0  0  0  0  0  0  0  0  0  0  0  0
  197.3140  171.2020  142.1620 C   0  0  0  0  0  2  0  0  0  0  0  0
  196.9410  170.9630  145.0810 S   0  0  0  0  0  0  0  0  0  0  0  0
  196.5010  172.3880  142.6900 C   0  0  2  0  0  3  0  0  0  0  0  0
  196.7810  173.6690  141.9150 C   0  0  0  0  0  3  0  0  0  0  0  0
  197.7580  173.4740  140.7340 C   0  0  0  0  0  2  0  0  0  0  0  0
  197.5170  174.4770  139.6070 C   0  0  0  0  0  2  0  0  0  0  0  0
  195.7660  175.7360  140.8850 C   0  0  0  0  0  2  0  0  0  0  0  0
  197.1230  175.8260  140.1750 C   0  0  0  0  0  2  0  0  0  0  0  0
  195.4780  174.3520  141.4850 C   0  0  0  0  0  2  0  0  0  0  0  0
  195.8450  168.6890  144.4610 C   0  0  0  0  0  2  0  0  0  0  0  0
  195.6330  168.7520  145.8430 O   0  0  0  0  0  1  0  0  0  0  0  0
  1  7  1  0  0  0  0
  2  3  1  0  0  0  0
  2  6  1  0  0  0  0
  3  1  2  0  0  0  0
  4  1  1  0  0  0  0
  5 48  1  0  0  0  0
  5  4  1  0  0  0  0
  6 10  1  0  0  0  0
  6  7  2  0  0  0  0
  8  5  1  1  0  0  0
  8  4  1  0  0  0  0
  9 24  1  6  0  0  0
  9  8  1  0  0  0  0
  9  3  1  0  0  0  0
 10 21  1  1  0  0  0
 11 12  1  0  0  0  0
 12 16  2  0  0  0  0
 13 16  1  0  0  0  0
 14 11  2  0  0  0  0
 14 15  1  0  0  0  0
 15 13  2  0  0  0  0
 16 10  1  0  0  0  0
 17 18  1  0  0  0  0
 18 19  1  0  0  0  0
 19 14  1  0  0  0  0
 20 18  2  0  0  0  0
 21 22  2  0  0  0  0
 21 23  1  0  0  0  0
 25 24  1  0  0  0  0
 26 25  1  0  0  0  0
 27 26  1  0  0  0  0
 27 28  1  1  0  0  0
 30 29  1  6  0  0  0
 30 27  1  0  0  0  0
 31 37  1  6  0  0  0
 31 43  1  0  0  0  0
 32 42  1  6  0  0  0
 32 40  1  0  0  0  0
 32 44  1  0  0  0  0
 33 36  1  0  0  0  0
 33 44  1  0  0  0  0
 34 40  1  0  0  0  0
 35 39  1  0  0  0  0
 35 31  1  0  0  0  0
 36 30  1  6  0  0  0
 39 46  1  1  0  0  0
 39 42  1  0  0  0  0
 40 45  1  0  0  0  0
 40 44  1  0  0  0  0
 41 36  1  0  0  0  0
 42 43  2  0  0  0  0
 43 41  1  0  0  0  0
 44 38  1  1  0  0  0
 47 46  1  0  0  0  0
 48 49  1  0  0  0  0
 50 49  1  0  0  0  0
 51 53  1  0  0  0  0
 52 50  1  1  0  0  0
 52 55  1  0  0  0  0
 53 63  1  0  0  0  0
 53 55  1  0  0  0  0
 54 51  1  0  0  0  0
 54 56  1  0  0  0  0
 56 57  1  6  0  0  0
 56 52  1  0  0  0  0
 58 57  1  0  0  0  0
 59 61  1  0  0  0  0
 59 58  1  0  0  0  0
 60 62  1  0  0  0  0
 61 60  1  0  0  0  0
 62 57  1  0  0  0  0
 63 64  1  0  0  0  0
M  END
>  <MODEL>
3

>  <REMARK>
 VINA RESULT:      -7.0      2.901      9.429
  Name = 
  17 active torsions:
  status: ('A' for Active; 'I' for Inactive)
    1  A    between atoms: C_3  and  O_38
    2  A    between atoms: C_3  and  C_58
    3  A    between atoms: C_9  and  C_54
    4  A    between atoms: C_12  and  O_38
    5  A    between atoms: C_14  and  C_35
    6  A    between atoms: C_14  and  O_48
    7  A    between atoms: C_15  and  C_51
    8  A    between atoms: C_15  and  C_52
    9  A    between atoms: N_20  and  C_58
   10  A    between atoms: C_21  and  C_23
   11  A    between atoms: C_21  and  C_28
   12  A    between atoms: C_21  and  C_60
   13  A    between atoms: N_22  and  C_44
   14  A    between atoms: C_29  and  C_35
   15  A    between atoms: C_32  and  C_36
   16  A    between atoms: C_37  and  N_50
   17  A    between atoms: O_48  and  C_51
                            x       y       z     vdW  Elec       q    Type
                         _______ _______ _______ _____ _____    ______ ____

>  <TORSDO>
F 17

$$$$
=
 OpenBabel11042414313D

 64 72  0  0  1  0  0  0  0  0999 V2000
  189.4260  174.7640  141.7330 C   0  0  0  0  0  0  0  0  0  0  0  0
  188.1560  175.2870  139.6730 S   0  0  0  0  0  0  0  0  0  0  0  0
  189.2840  174.3070  140.4450 C   0  0  0  0  0  0  0  0  0  0  0  0
  189.7720  173.5850  142.3790 N   0  0  0  0  0  0  0  0  0  0  0  0
  190.8160  172.5510  142.3880 N   0  0  0  0  0  0  0  0  0  0  0  0
  187.8790  176.2840  141.0250 C   0  0  0  0  0  0  0  0  0  0  0  0
  188.5910  175.8050  142.1360 C   0  0  0  0  0  3  0  0  0  0  0  0
  189.6640  172.2850  141.7980 C   0  0  2  0  0  3  0  0  0  0  0  0
  189.5820  172.7860  140.3250 C   0  0  1  0  0  3  0  0  0  0  0  0
  187.0170  177.5160  141.0010 C   0  0  2  0  0  3  0  0  0  0  0  0
  185.4030  177.0260  144.4280 C   0  0  0  0  0  3  0  0  0  0  0  0
  185.8740  176.7900  143.1360 C   0  0  0  0  0  3  0  0  0  0  0  0
  186.3830  179.1460  142.8870 C   0  0  0  0  0  3  0  0  0  0  0  0
  185.4450  178.3190  144.9700 C   0  0  0  0  0  0  0  0  0  0  0  0
  185.9110  179.3810  144.1820 C   0  0  0  0  0  3  0  0  0  0  0  0
  186.4060  177.8350  142.3640 C   0  0  0  0  0  0  0  0  0  0  0  0
  185.9410  178.6830  148.7600 C   0  0  0  0  0  1  0  0  0  0  0  0
  185.9010  177.9850  147.4320 C   0  0  0  0  0  0  0  0  0  0  0  0
  185.1510  178.5530  146.3530 N   0  0  0  0  0  2  0  0  0  0  0  0
  186.4620  176.8280  147.3050 N   0  0  0  0  0  2  0  0  0  0  0  0
  185.9690  177.3990  139.9100 C   0  0  0  0  0  0  0  0  0  0  0  0
  186.2770  176.9220  138.7810 O   0  0  0  0  0  0  0  0  0  0  0  0
  184.6190  177.8120  140.1290 N   0  0  0  0  0  1  0  0  0  0  0  0
  188.5050  172.0080  139.5830 C   0  0  0  0  0  2  0  0  0  0  0  0
  188.8370  171.9430  138.1080 C   0  0  0  0  0  2  0  0  0  0  0  0
  189.7000  170.8620  137.8650 O   0  0  0  0  0  0  0  0  0  0  0  0
  190.6260  171.3290  136.9430 C   0  0  2  0  0  3  0  0  0  0  0  0
  189.8990  171.6220  135.6220 C   0  0  0  0  0  1  0  0  0  0  0  0
  192.1030  169.8590  135.4150 C   0  0  0  0  0  1  0  0  0  0  0  0
  191.8190  170.3610  136.8300 C   0  0  1  0  0  3  0  0  0  0  0  0
  194.3450  173.9620  135.9190 C   0  0  2  0  0  3  0  0  0  0  0  0
  195.0880  172.4480  139.3170 C   0  0  2  0  0  3  0  0  0  0  0  0
  192.7820  171.5030  138.7820 N   0  0  0  0  0  2  0  0  0  0  0  0
  193.1530  173.7360  140.3290 O   0  0  0  0  0  1  0  0  0  0  0  0
  194.6390  175.2320  136.7070 C   0  0  0  0  0  2  0  0  0  0  0  0
  193.1050  170.7770  137.5480 C   0  0  2  0  0  3  0  0  0  0  0  0
  192.9350  174.0640  135.3540 C   0  0  0  0  0  1  0  0  0  0  0  0
  194.2660  170.1730  140.3800 C   0  0  0  0  0  1  0  0  0  0  0  0
  195.0010  174.8080  138.1260 C   0  0  1  0  0  3  0  0  0  0  0  0
  194.1310  172.7400  140.4860 C   0  0  0  0  0  0  0  0  0  0  0  0
  193.9890  171.5510  136.6790 N   0  0  0  0  0  2  0  0  0  0  0  0
  194.8020  173.3260  138.1320 C   0  0  0  0  0  0  0  0  0  0  0  0
  194.4130  172.8910  136.9440 C   0  0  0  0  0  0  0  0  0  0  0  0
  193.9440  171.4750  139.6680 C   0  0  1  0  0  0  0  0  0  0  0  0
  194.6890  172.5910  141.7540 O   0  0  0  0  0  1  0  0  0  0  0  0
  196.4480  175.1840  138.4070 C   0  0  0  0  0  2  0  0  0  0  0  0
  196.6000  175.6670  139.7620 N   0  0  0  0  0  1  0  0  0  0  0  0
  190.8100  171.8880  143.6870 C   0  0  0  0  0  2  0  0  0  0  0  0
  191.7290  172.6490  144.6360 C   0  0  0  0  0  2  0  0  0  0  0  0
  192.5670  173.5010  143.9070 O   0  0  0  0  0  0  0  0  0  0  0  0
  195.4480  176.3860  144.6780 C   0  0  0  0  0  2  0  0  0  0  0  0
  193.1420  174.3370  144.8640 C   0  0  1  0  0  3  0  0  0  0  0  0
  195.5950  175.0350  144.1110 N   0  0  0  0  0  0  0  0  0  0  0  0
  194.0270  176.6680  145.1870 C   0  0  0  0  0  2  0  0  0  0  0  0
  194.8750  173.8390  145.2140 S   0  0  0  0  0  0  0  0  0  0  0  0
  193.0180  175.8050  144.4210 C   0  0  2  0  0  3  0  0  0  0  0  0
  191.5930  176.3250  144.5630 C   0  0  0  0  0  3  0  0  0  0  0  0
  190.9960  176.1150  145.9720 C   0  0  0  0  0  2  0  0  0  0  0  0
  189.9490  177.1690  146.3250 C   0  0  0  0  0  2  0  0  0  0  0  0
  190.0200  178.2310  144.0550 C   0  0  0  0  0  2  0  0  0  0  0  0
  189.1360  177.5380  145.0990 C   0  0  0  0  0  2  0  0  0  0  0  0
  191.4880  177.7820  144.0990 C   0  0  0  0  0  2  0  0  0  0  0  0
  197.0300  174.7780  144.1040 C   0  0  0  0  0  2  0  0  0  0  0  0
  197.3820  174.0390  145.2400 O   0  0  0  0  0  1  0  0  0  0  0  0
  1  7  1  0  0  0  0
  1  4  1  0  0  0  0
  2  3  1  0  0  0  0
  2  6  1  0  0  0  0
  3  1  2  0  0  0  0
  4  5  1  0  0  0  0
  5 48  1  0  0  0  0
  6  7  2  0  0  0  0
  8  4  1  1  0  0  0
  8  5  1  0  0  0  0
  9 24  1  6  0  0  0
  9  3  1  0  0  0  0
  9  8  1  0  0  0  0
 10 21  1  6  0  0  0
 10  6  1  0  0  0  0
 10 16  1  0  0  0  0
 11 14  1  0  0  0  0
 12 11  2  0  0  0  0
 13 15  1  0  0  0  0
 14 19  1  0  0  0  0
 15 14  2  0  0  0  0
 16 13  2  0  0  0  0
 16 12  1  0  0  0  0
 18 17  1  0  0  0  0
 19 18  1  0  0  0  0
 20 18  2  0  0  0  0
 21 23  1  0  0  0  0
 22 21  2  0  0  0  0
 25 24  1  0  0  0  0
 26 25  1  0  0  0  0
 27 28  1  6  0  0  0
 27 26  1  0  0  0  0
 30 29  1  6  0  0  0
 30 27  1  0  0  0  0
 31 37  1  1  0  0  0
 31 35  1  0  0  0  0
 31 43  1  0  0  0  0
 32 42  1  6  0  0  0
 32 44  1  0  0  0  0
 32 40  1  0  0  0  0
 33 44  1  0  0  0  0
 34 40  1  0  0  0  0
 35 39  1  0  0  0  0
 36 30  1  6  0  0  0
 36 33  1  0  0  0  0
 39 42  1  0  0  0  0
 39 46  1  6  0  0  0
 40 45  1  0  0  0  0
 41 43  1  0  0  0  0
 41 36  1  0  0  0  0
 43 42  2  0  0  0  0
 44 38  1  1  0  0  0
 44 40  1  0  0  0  0
 46 47  1  0  0  0  0
 48 49  1  0  0  0  0
 50 49  1  0  0  0  0
 51 54  1  0  0  0  0
 52 50  1  6  0  0  0
 52 55  1  0  0  0  0
 53 51  1  0  0  0  0
 53 55  1  0  0  0  0
 56 57  1  1  0  0  0
 56 52  1  0  0  0  0
 56 54  1  0  0  0  0
 57 58  1  0  0  0  0
 58 59  1  0  0  0  0
 60 62  1  0  0  0  0
 60 61  1  0  0  0  0
 61 59  1  0  0  0  0
 62 57  1  0  0  0  0
 63 53  1  0  0  0  0
 63 64  1  0  0  0  0
M  END
>  <MODEL>
4

>  <REMARK>
 VINA RESULT:      -6.5      2.398      7.755
  Name = 
  17 active torsions:
  status: ('A' for Active; 'I' for Inactive)
    1  A    between atoms: C_3  and  O_38
    2  A    between atoms: C_3  and  C_58
    3  A    between atoms: C_9  and  C_54
    4  A    between atoms: C_12  and  O_38
    5  A    between atoms: C_14  and  C_35
    6  A    between atoms: C_14  and  O_48
    7  A    between atoms: C_15  and  C_51
    8  A    between atoms: C_15  and  C_52
    9  A    between atoms: N_20  and  C_58
   10  A    between atoms: C_21  and  C_23
   11  A    between atoms: C_21  and  C_28
   12  A    between atoms: C_21  and  C_60
   13  A    between atoms: N_22  and  C_44
   14  A    between atoms: C_29  and  C_35
   15  A    between atoms: C_32  and  C_36
   16  A    between atoms: C_37  and  N_50
   17  A    between atoms: O_48  and  C_51
                            x       y       z     vdW  Elec       q    Type
                         _______ _______ _______ _____ _____    ______ ____

>  <TORSDO>
F 17

$$$$
=
 OpenBabel11042414313D

 64 72  0  0  1  0  0  0  0  0999 V2000
  187.4970  176.1950  142.5650 C   0  0  0  0  0  0  0  0  0  0  0  0
  185.9290  177.6700  141.3410 S   0  0  0  0  0  0  0  0  0  0  0  0
  187.3350  176.7460  141.3160 C   0  0  0  0  0  0  0  0  0  0  0  0
  188.1820  175.0330  142.2380 N   0  0  0  0  0  0  0  0  0  0  0  0
  189.4390  174.5820  141.6240 N   0  0  0  0  0  0  0  0  0  0  0  0
  185.5650  177.3390  142.9710 C   0  0  0  0  0  0  0  0  0  0  0  0
  186.4840  176.4160  143.4960 C   0  0  0  0  0  3  0  0  0  0  0  0
  188.3290  174.5300  140.9090 C   0  0  2  0  0  3  0  0  0  0  0  0
  187.9750  175.8720  140.2010 C   0  0  1  0  0  3  0  0  0  0  0  0
  184.4340  177.9780  143.7280 C   0  0  2  0  0  3  0  0  0  0  0  0
  182.1570  178.1530  140.6680 C   0  0  0  0  0  3  0  0  0  0  0  0
  183.2590  177.9230  141.4910 C   0  0  0  0  0  3  0  0  0  0  0  0
  182.1540  179.0890  143.3050 C   0  0  0  0  0  3  0  0  0  0  0  0
  181.0320  178.8270  141.1650 C   0  0  0  0  0  0  0  0  0  0  0  0
  181.0490  179.3190  142.4790 C   0  0  0  0  0  3  0  0  0  0  0  0
  183.2580  178.3500  142.8280 C   0  0  0  0  0  0  0  0  0  0  0  0
  178.4510  180.0290  138.5890 C   0  0  0  0  0  1  0  0  0  0  0  0
  179.3410  180.1090  139.7940 C   0  0  0  0  0  0  0  0  0  0  0  0
  179.8180  178.9060  140.4070 N   0  0  0  0  0  2  0  0  0  0  0  0
  179.5880  181.2600  140.3280 N   0  0  0  0  0  2  0  0  0  0  0  0
  184.9460  179.1590  144.5320 C   0  0  0  0  0  0  0  0  0  0  0  0
  184.5110  179.3710  145.6990 O   0  0  0  0  0  0  0  0  0  0  0  0
  185.9280  180.0500  144.0000 N   0  0  0  0  0  1  0  0  0  0  0  0
  187.0450  175.5980  139.0290 C   0  0  0  0  0  2  0  0  0  0  0  0
  187.8390  175.0970  137.8430 C   0  0  0  0  0  2  0  0  0  0  0  0
  188.0660  173.7170  137.9740 O   0  0  0  0  0  0  0  0  0  0  0  0
  189.3200  173.4950  137.4210 C   0  0  2  0  0  3  0  0  0  0  0  0
  189.5240  174.4770  136.2580 C   0  0  0  0  0  1  0  0  0  0  0  0
  189.4290  171.7010  135.5640 C   0  0  0  0  0  1  0  0  0  0  0  0
  189.5000  172.0080  137.0590 C   0  0  1  0  0  3  0  0  0  0  0  0
  193.8190  172.1990  135.8380 C   0  0  2  0  0  3  0  0  0  0  0  0
  193.3230  170.8170  139.3370 C   0  0  2  0  0  3  0  0  0  0  0  0
  191.1240  172.0310  138.9040 N   0  0  0  0  0  2  0  0  0  0  0  0
  193.2100  173.1740  140.2660 O   0  0  0  0  0  1  0  0  0  0  0  0
  195.0510  172.7800  136.5210 C   0  0  0  0  0  2  0  0  0  0  0  0
  190.6680  171.2800  137.7280 C   0  0  2  0  0  3  0  0  0  0  0  0
  192.9910  173.3490  135.2830 C   0  0  0  0  0  1  0  0  0  0  0  0
  191.1060  170.1070  140.5850 C   0  0  0  0  0  1  0  0  0  0  0  0
  195.0390  172.2900  137.9640 C   0  0  1  0  0  3  0  0  0  0  0  0
  193.0430  171.7980  140.4900 C   0  0  0  0  0  0  0  0  0  0  0  0
  191.7600  171.0250  136.7900 N   0  0  0  0  0  2  0  0  0  0  0  0
  193.7540  171.5360  138.0900 C   0  0  0  0  0  0  0  0  0  0  0  0
  193.0920  171.5270  136.9450 C   0  0  0  0  0  0  0  0  0  0  0  0
  191.8800  171.1340  139.7770 C   0  0  1  0  0  0  0  0  0  0  0  0
  193.3580  171.3170  141.7590 O   0  0  0  0  0  1  0  0  0  0  0  0
  196.2450  171.3940  138.2000 C   0  0  0  0  0  2  0  0  0  0  0  0
  196.4990  170.5590  137.0460 N   0  0  0  0  0  1  0  0  0  0  0  0
  189.7280  173.2300  142.0880 C   0  0  0  0  0  2  0  0  0  0  0  0
  190.8820  173.2820  143.0840 C   0  0  0  0  0  2  0  0  0  0  0  0
  191.4750  174.5510  143.0590 O   0  0  0  0  0  0  0  0  0  0  0  0
  194.0990  176.7660  145.3880 C   0  0  0  0  0  2  0  0  0  0  0  0
  192.1050  174.6720  144.2970 C   0  0  1  0  0  3  0  0  0  0  0  0
  194.3000  176.1550  144.0640 N   0  0  0  0  0  0  0  0  0  0  0  0
  192.7620  176.3700  146.0300 C   0  0  0  0  0  2  0  0  0  0  0  0
  193.9170  174.4190  144.1390 S   0  0  0  0  0  0  0  0  0  0  0  0
  191.7420  176.0210  144.9410 C   0  0  2  0  0  3  0  0  0  0  0  0
  190.3120  176.0360  145.4670 C   0  0  0  0  0  3  0  0  0  0  0  0
  189.9110  174.7390  146.2030 C   0  0  0  0  0  2  0  0  0  0  0  0
  188.8430  174.9790  147.2670 C   0  0  0  0  0  2  0  0  0  0  0  0
  188.5560  177.3960  146.6630 C   0  0  0  0  0  2  0  0  0  0  0  0
  187.8600  176.0360  146.8010 C   0  0  0  0  0  2  0  0  0  0  0  0
  190.0460  177.2890  146.3100 C   0  0  0  0  0  2  0  0  0  0  0  0
  195.7320  176.2510  143.8120 C   0  0  0  0  0  2  0  0  0  0  0  0
  195.9590  176.4390  142.4430 O   0  0  0  0  0  1  0  0  0  0  0  0
  1  7  1  0  0  0  0
  2  6  1  0  0  0  0
  3  2  1  0  0  0  0
  3  1  2  0  0  0  0
  4  1  1  0  0  0  0
  5 48  1  0  0  0  0
  5  4  1  0  0  0  0
  6  7  2  0  0  0  0
  6 10  1  0  0  0  0
  8  5  1  1  0  0  0
  8  4  1  0  0  0  0
  9 24  1  6  0  0  0
  9  8  1  0  0  0  0
  9  3  1  0  0  0  0
 10 21  1  6  0  0  0
 11 14  2  0  0  0  0
 11 12  1  0  0  0  0
 12 16  2  0  0  0  0
 14 15  1  0  0  0  0
 15 13  2  0  0  0  0
 16 13  1  0  0  0  0
 16 10  1  0  0  0  0
 17 18  1  0  0  0  0
 18 20  2  0  0  0  0
 18 19  1  0  0  0  0
 19 14  1  0  0  0  0
 21 22  2  0  0  0  0
 23 21  1  0  0  0  0
 25 26  1  0  0  0  0
 25 24  1  0  0  0  0
 27 28  1  6  0  0  0
 27 26  1  0  0  0  0
 30 29  1  6  0  0  0
 30 27  1  0  0  0  0
 31 37  1  1  0  0  0
 31 35  1  0  0  0  0
 31 43  1  0  0  0  0
 32 42  1  6  0  0  0
 32 44  1  0  0  0  0
 32 40  1  0  0  0  0
 33 44  1  0  0  0  0
 34 40  1  0  0  0  0
 35 39  1  0  0  0  0
 36 30  1  6  0  0  0
 36 33  1  0  0  0  0
 39 42  1  0  0  0  0
 39 46  1  6  0  0  0
 40 45  1  0  0  0  0
 41 43  1  0  0  0  0
 41 36  1  0  0  0  0
 43 42  2  0  0  0  0
 44 40  1  0  0  0  0
 44 38  1  1  0  0  0
 47 46  1  0  0  0  0
 48 49  1  0  0  0  0
 50 49  1  0  0  0  0
 51 54  1  0  0  0  0
 52 50  1  6  0  0  0
 52 56  1  0  0  0  0
 53 55  1  0  0  0  0
 53 51  1  0  0  0  0
 55 52  1  0  0  0  0
 56 57  1  1  0  0  0
 56 54  1  0  0  0  0
 57 58  1  0  0  0  0
 57 62  1  0  0  0  0
 58 59  1  0  0  0  0
 60 61  1  0  0  0  0
 61 59  1  0  0  0  0
 62 60  1  0  0  0  0
 63 53  1  0  0  0  0
 64 63  1  0  0  0  0
M  END
>  <MODEL>
5

>  <REMARK>
 VINA RESULT:      -6.5      2.717      9.114
  Name = 
  17 active torsions:
  status: ('A' for Active; 'I' for Inactive)
    1  A    between atoms: C_3  and  O_38
    2  A    between atoms: C_3  and  C_58
    3  A    between atoms: C_9  and  C_54
    4  A    between atoms: C_12  and  O_38
    5  A    between atoms: C_14  and  C_35
    6  A    between atoms: C_14  and  O_48
    7  A    between atoms: C_15  and  C_51
    8  A    between atoms: C_15  and  C_52
    9  A    between atoms: N_20  and  C_58
   10  A    between atoms: C_21  and  C_23
   11  A    between atoms: C_21  and  C_28
   12  A    between atoms: C_21  and  C_60
   13  A    between atoms: N_22  and  C_44
   14  A    between atoms: C_29  and  C_35
   15  A    between atoms: C_32  and  C_36
   16  A    between atoms: C_37  and  N_50
   17  A    between atoms: O_48  and  C_51
                            x       y       z     vdW  Elec       q    Type
                         _______ _______ _______ _____ _____    ______ ____

>  <TORSDO>
F 17

$$$$
=
 OpenBabel11042414313D

 64 72  0  0  1  0  0  0  0  0999 V2000
  190.8670  176.8090  143.6620 C   0  0  0  0  0  0  0  0  0  0  0  0
  192.0260  174.7810  144.4830 S   0  0  0  0  0  0  0  0  0  0  0  0
  190.5810  175.5190  144.0410 C   0  0  0  0  0  0  0  0  0  0  0  0
  189.8460  177.0330  142.7480 N   0  0  0  0  0  0  0  0  0  0  0  0
  188.3800  177.0910  142.6650 N   0  0  0  0  0  0  0  0  0  0  0  0
  192.9900  176.1500  144.1760 C   0  0  0  0  0  0  0  0  0  0  0  0
  192.2100  177.1800  143.6250 C   0  0  0  0  0  3  0  0  0  0  0  0
  188.9990  176.0120  142.2190 C   0  0  2  0  0  3  0  0  0  0  0  0
  189.3140  174.9650  143.3290 C   0  0  1  0  0  3  0  0  0  0  0  0
  194.4590  176.2330  144.4870 C   0  0  2  0  0  3  0  0  0  0  0  0
  195.7650  172.6890  145.0470 C   0  0  0  0  0  3  0  0  0  0  0  0
  195.2010  173.9460  145.2650 C   0  0  0  0  0  3  0  0  0  0  0  0
  195.8300  174.6220  143.0250 C   0  0  0  0  0  3  0  0  0  0  0  0
  196.3410  172.3780  143.8060 C   0  0  0  0  0  0  0  0  0  0  0  0
  196.3950  173.3610  142.8070 C   0  0  0  0  0  3  0  0  0  0  0  0
  195.1880  174.9130  144.2480 C   0  0  0  0  0  0  0  0  0  0  0  0
  196.4650  168.9430  142.0960 C   0  0  0  0  0  1  0  0  0  0  0  0
  195.8840  170.0600  142.9130 C   0  0  0  0  0  0  0  0  0  0  0  0
  196.7510  171.0420  143.4920 N   0  0  0  0  0  2  0  0  0  0  0  0
  194.6180  170.0690  143.1700 N   0  0  0  0  0  2  0  0  0  0  0  0
  194.6650  176.7630  145.8940 C   0  0  0  0  0  0  0  0  0  0  0  0
  194.5450  175.9930  146.8880 O   0  0  0  0  0  0  0  0  0  0  0  0
  195.0050  178.1310  146.1300 N   0  0  0  0  0  1  0  0  0  0  0  0
  189.5190  173.5980  142.6940 C   0  0  0  0  0  2  0  0  0  0  0  0
  189.0900  173.6310  141.2430 C   0  0  0  0  0  2  0  0  0  0  0  0
  190.2230  173.6800  140.4150 O   0  0  0  0  0  0  0  0  0  0  0  0
  191.1920  172.9340  141.0720 C   0  0  2  0  0  3  0  0  0  0  0  0
  192.4020  173.8370  141.3500 C   0  0  0  0  0  1  0  0  0  0  0  0
  190.6820  170.4270  140.7090 C   0  0  0  0  0  1  0  0  0  0  0  0
  191.5070  171.6440  140.2920 C   0  0  1  0  0  3  0  0  0  0  0  0
  195.1590  172.6860  137.8920 C   0  0  2  0  0  3  0  0  0  0  0  0
  192.3910  171.1560  135.7970 C   0  0  2  0  0  3  0  0  0  0  0  0
  191.7530  170.4450  138.1600 N   0  0  0  0  0  2  0  0  0  0  0  0
  193.1630  168.8310  136.4510 O   0  0  0  0  0  1  0  0  0  0  0  0
  195.9980  171.8850  136.9050 C   0  0  0  0  0  2  0  0  0  0  0  0
  191.5900  171.7700  138.7690 C   0  0  2  0  0  3  0  0  0  0  0  0
  195.4870  172.2070  139.2990 C   0  0  0  0  0  1  0  0  0  0  0  0
  189.8840  170.6140  136.4280 C   0  0  0  0  0  1  0  0  0  0  0  0
  195.0320  171.2110  135.9370 C   0  0  1  0  0  3  0  0  0  0  0  0
  192.1860  169.6310  135.8360 C   0  0  0  0  0  0  0  0  0  0  0  0
  192.6480  172.6910  138.3550 N   0  0  0  0  0  2  0  0  0  0  0  0
  193.6770  171.5600  136.4610 C   0  0  0  0  0  0  0  0  0  0  0  0
  193.7630  172.3260  137.5370 C   0  0  0  0  0  0  0  0  0  0  0  0
  191.3640  170.5170  136.7530 C   0  0  1  0  0  0  0  0  0  0  0  0
  191.5330  169.0970  134.7260 O   0  0  0  0  0  1  0  0  0  0  0  0
  195.2560  171.7650  134.5380 C   0  0  0  0  0  2  0  0  0  0  0  0
  196.3950  172.6560  134.5130 N   0  0  0  0  0  1  0  0  0  0  0  0
  188.0070  177.8960  141.5080 C   0  0  0  0  0  2  0  0  0  0  0  0
  186.7660  177.2910  140.8610 C   0  0  0  0  0  2  0  0  0  0  0  0
  185.8290  176.9590  141.8460 O   0  0  0  0  0  0  0  0  0  0  0  0
  182.2340  178.8170  142.7670 C   0  0  0  0  0  2  0  0  0  0  0  0
  185.1910  178.1610  142.1480 C   0  0  1  0  0  3  0  0  0  0  0  0
  182.5920  177.9760  141.6110 N   0  0  0  0  0  0  0  0  0  0  0  0
  183.4400  179.1550  143.6540 C   0  0  0  0  0  2  0  0  0  0  0  0
  184.0320  178.6440  140.8070 S   0  0  0  0  0  0  0  0  0  0  0  0
  184.5080  178.0640  143.5230 C   0  0  2  0  0  3  0  0  0  0  0  0
  185.5160  178.1060  144.6650 C   0  0  0  0  0  3  0  0  0  0  0  0
  185.3360  179.3200  145.6030 C   0  0  0  0  0  2  0  0  0  0  0  0
  185.8110  179.0330  147.0250 C   0  0  0  0  0  2  0  0  0  0  0  0
  186.6940  176.7600  146.4430 C   0  0  0  0  0  2  0  0  0  0  0  0
  187.0400  178.1450  147.0040 C   0  0  0  0  0  2  0  0  0  0  0  0
  185.5400  176.7790  145.4310 C   0  0  0  0  0  2  0  0  0  0  0  0
  181.4880  178.1260  140.6730 C   0  0  0  0  0  2  0  0  0  0  0  0
  180.2710  178.0070  141.3550 O   0  0  0  0  0  1  0  0  0  0  0  0
  1  3  2  0  0  0  0
  3  2  1  0  0  0  0
  4  1  1  0  0  0  0
  5  4  1  0  0  0  0
  6  2  1  0  0  0  0
  6 10  1  0  0  0  0
  7  1  1  0  0  0  0
  7  6  2  0  0  0  0
  8  5  1  1  0  0  0
  8  4  1  0  0  0  0
  8  9  1  0  0  0  0
  9 24  1  6  0  0  0
  9  3  1  0  0  0  0
 10 21  1  1  0  0  0
 11 12  1  0  0  0  0
 13 16  1  0  0  0  0
 14 11  2  0  0  0  0
 15 13  2  0  0  0  0
 15 14  1  0  0  0  0
 16 10  1  0  0  0  0
 16 12  2  0  0  0  0
 17 18  1  0  0  0  0
 18 20  2  0  0  0  0
 18 19  1  0  0  0  0
 19 14  1  0  0  0  0
 21 23  1  0  0  0  0
 21 22  2  0  0  0  0
 25 24  1  0  0  0  0
 26 27  1  0  0  0  0
 26 25  1  0  0  0  0
 27 28  1  6  0  0  0
 30 29  1  6  0  0  0
 30 27  1  0  0  0  0
 31 37  1  1  0  0  0
 32 40  1  0  0  0  0
 32 42  1  1  0  0  0
 32 44  1  0  0  0  0
 33 36  1  0  0  0  0
 35 31  1  0  0  0  0
 36 30  1  1  0  0  0
 39 46  1  6  0  0  0
 39 42  1  0  0  0  0
 39 35  1  0  0  0  0
 40 34  1  0  0  0  0
 40 44  1  0  0  0  0
 41 36  1  0  0  0  0
 42 43  2  0  0  0  0
 43 31  1  0  0  0  0
 43 41  1  0  0  0  0
 44 38  1  6  0  0  0
 44 33  1  0  0  0  0
 45 40  1  0  0  0  0
 47 46  1  0  0  0  0
 48  5  1  0  0  0  0
 49 48  1  0  0  0  0
 49 50  1  0  0  0  0
 51 54  1  0  0  0  0
 52 50  1  6  0  0  0
 52 56  1  0  0  0  0
 53 51  1  0  0  0  0
 55 53  1  0  0  0  0
 55 52  1  0  0  0  0
 56 54  1  0  0  0  0
 56 57  1  1  0  0  0
 57 62  1  0  0  0  0
 57 58  1  0  0  0  0
 58 59  1  0  0  0  0
 60 61  1  0  0  0  0
 61 59  1  0  0  0  0
 62 60  1  0  0  0  0
 63 64  1  0  0  0  0
 63 53  1  0  0  0  0
M  END
>  <MODEL>
6

>  <REMARK>
 VINA RESULT:      -6.4      1.840      2.821
  Name = 
  17 active torsions:
  status: ('A' for Active; 'I' for Inactive)
    1  A    between atoms: C_3  and  O_38
    2  A    between atoms: C_3  and  C_58
    3  A    between atoms: C_9  and  C_54
    4  A    between atoms: C_12  and  O_38
    5  A    between atoms: C_14  and  C_35
    6  A    between atoms: C_14  and  O_48
    7  A    between atoms: C_15  and  C_51
    8  A    between atoms: C_15  and  C_52
    9  A    between atoms: N_20  and  C_58
   10  A    between atoms: C_21  and  C_23
   11  A    between atoms: C_21  and  C_28
   12  A    between atoms: C_21  and  C_60
   13  A    between atoms: N_22  and  C_44
   14  A    between atoms: C_29  and  C_35
   15  A    between atoms: C_32  and  C_36
   16  A    between atoms: C_37  and  N_50
   17  A    between atoms: O_48  and  C_51
                            x       y       z     vdW  Elec       q    Type
                         _______ _______ _______ _____ _____    ______ ____

>  <TORSDO>
F 17

$$$$
=
 OpenBabel11042414313D

 64 72  0  0  1  0  0  0  0  0999 V2000
  185.2060  177.6680  143.7270 C   0  0  0  0  0  0  0  0  0  0  0  0
  187.5740  176.9430  143.7200 S   0  0  0  0  0  0  0  0  0  0  0  0
  186.0920  176.9900  142.9240 C   0  0  0  0  0  0  0  0  0  0  0  0
  184.3590  178.2030  142.7650 N   0  0  0  0  0  0  0  0  0  0  0  0
  183.4330  177.7910  141.7020 N   0  0  0  0  0  0  0  0  0  0  0  0
  187.0320  177.8000  145.0880 C   0  0  0  0  0  0  0  0  0  0  0  0
  185.7080  178.2260  144.9020 C   0  0  0  0  0  3  0  0  0  0  0  0
  184.6360  178.2200  141.3650 C   0  0  2  0  0  3  0  0  0  0  0  0
  185.7350  177.1170  141.4160 C   0  0  1  0  0  3  0  0  0  0  0  0
  187.8620  178.0270  146.3210 C   0  0  2  0  0  3  0  0  0  0  0  0
  189.9980  174.9240  146.9430 C   0  0  0  0  0  3  0  0  0  0  0  0
  188.9380  175.8300  146.9550 C   0  0  0  0  0  3  0  0  0  0  0  0
  190.3390  177.4920  145.8850 C   0  0  0  0  0  3  0  0  0  0  0  0
  191.2290  175.2850  146.3750 C   0  0  0  0  0  0  0  0  0  0  0  0
  191.4020  176.5830  145.8730 C   0  0  0  0  0  3  0  0  0  0  0  0
  189.0790  177.1080  146.3920 C   0  0  0  0  0  0  0  0  0  0  0  0
  193.8350  173.0920  144.6020 C   0  0  0  0  0  1  0  0  0  0  0  0
  192.4690  173.6110  144.9460 C   0  0  0  0  0  0  0  0  0  0  0  0
  192.2670  174.3170  146.1760 N   0  0  0  0  0  2  0  0  0  0  0  0
  191.4690  173.3300  144.1780 N   0  0  0  0  0  2  0  0  0  0  0  0
  186.9910  177.9340  147.5610 C   0  0  0  0  0  0  0  0  0  0  0  0
  186.3460  176.8750  147.8070 O   0  0  0  0  0  0  0  0  0  0  0  0
  186.8850  179.0250  148.4770 N   0  0  0  0  0  1  0  0  0  0  0  0
  186.9100  177.5280  140.5420 C   0  0  0  0  0  2  0  0  0  0  0  0
  187.2820  176.3960  139.6080 C   0  0  0  0  0  2  0  0  0  0  0  0
  187.8810  175.3580  140.3390 O   0  0  0  0  0  0  0  0  0  0  0  0
  188.6080  174.6260  139.4120 C   0  0  2  0  0  3  0  0  0  0  0  0
  187.8310  174.6000  138.0880 C   0  0  0  0  0  1  0  0  0  0  0  0
  188.0020  172.1220  139.6160 C   0  0  0  0  0  1  0  0  0  0  0  0
  188.9770  173.2410  139.9790 C   0  0  1  0  0  3  0  0  0  0  0  0
  190.6680  170.9170  136.5260 C   0  0  2  0  0  3  0  0  0  0  0  0
  193.3360  172.6050  138.6300 C   0  0  2  0  0  3  0  0  0  0  0  0
  191.2330  173.9000  139.2600 N   0  0  0  0  0  2  0  0  0  0  0  0
  192.9980  174.7660  137.3490 O   0  0  0  0  0  1  0  0  0  0  0  0
  191.6620  171.2870  135.4320 C   0  0  0  0  0  2  0  0  0  0  0  0
  190.4320  172.7980  139.8040 C   0  0  2  0  0  3  0  0  0  0  0  0
  189.3340  171.5760  136.2040 C   0  0  0  0  0  1  0  0  0  0  0  0
  193.1380  173.8330  140.9610 C   0  0  0  0  0  1  0  0  0  0  0  0
  192.8480  171.9620  136.1110 C   0  0  1  0  0  3  0  0  0  0  0  0
  193.5870  174.1110  138.4430 C   0  0  0  0  0  0  0  0  0  0  0  0
  190.5400  171.5920  138.9850 N   0  0  0  0  0  2  0  0  0  0  0  0
  192.4510  172.0510  137.5490 C   0  0  0  0  0  0  0  0  0  0  0  0
  191.2580  171.5160  137.7490 C   0  0  0  0  0  0  0  0  0  0  0  0
  192.6450  173.6430  139.5370 C   0  0  1  0  0  0  0  0  0  0  0  0
  194.8470  174.5520  138.8450 O   0  0  0  0  0  1  0  0  0  0  0  0
  194.0900  171.1040  135.9200 C   0  0  0  0  0  2  0  0  0  0  0  0
  195.1100  171.8280  135.1940 N   0  0  0  0  0  1  0  0  0  0  0  0
  182.4910  178.8760  141.4520 C   0  0  0  0  0  2  0  0  0  0  0  0
  181.1650  178.2850  140.9880 C   0  0  0  0  0  2  0  0  0  0  0  0
  180.7080  178.9710  139.8550 O   0  0  0  0  0  0  0  0  0  0  0  0
  177.7680  180.0560  142.5750 C   0  0  0  0  0  2  0  0  0  0  0  0
  179.3430  179.1500  140.0750 C   0  0  1  0  0  3  0  0  0  0  0  0
  178.8120  179.0230  142.6780 N   0  0  0  0  0  0  0  0  0  0  0  0
  177.6970  180.6950  141.1800 C   0  0  0  0  0  2  0  0  0  0  0  0
  178.7070  177.9220  141.2840 S   0  0  0  0  0  0  0  0  0  0  0  0
  179.0640  180.6030  140.4940 C   0  0  2  0  0  3  0  0  0  0  0  0
  179.1830  181.5680  139.3200 C   0  0  0  0  0  3  0  0  0  0  0  0
  178.4210  181.1040  138.0590 C   0  0  0  0  0  2  0  0  0  0  0  0
  177.9610  182.2740  137.1930 C   0  0  0  0  0  2  0  0  0  0  0  0
  179.1210  183.9870  138.6090 C   0  0  0  0  0  2  0  0  0  0  0  0
  178.9980  183.3810  137.2050 C   0  0  0  0  0  2  0  0  0  0  0  0
  178.8050  182.9940  139.7360 C   0  0  0  0  0  2  0  0  0  0  0  0
  178.4570  178.2370  143.8520 C   0  0  0  0  0  2  0  0  0  0  0  0
  178.5160  179.0440  144.9950 O   0  0  0  0  0  1  0  0  0  0  0  0
  1  7  1  0  0  0  0
  2  6  1  0  0  0  0
  3  2  1  0  0  0  0
  3  1  2  0  0  0  0
  4  1  1  0  0  0  0
  5  4  1  0  0  0  0
  6 10  1  0  0  0  0
  7  6  2  0  0  0  0
  8  9  1  0  0  0  0
  8  5  1  6  0  0  0
  8  4  1  0  0  0  0
  9 24  1  6  0  0  0
  9  3  1  0  0  0  0
 10 16  1  0  0  0  0
 10 21  1  1  0  0  0
 11 12  1  0  0  0  0
 13 16  1  0  0  0  0
 14 11  2  0  0  0  0
 15 13  2  0  0  0  0
 15 14  1  0  0  0  0
 16 12  2  0  0  0  0
 17 18  1  0  0  0  0
 18 19  1  0  0  0  0
 19 14  1  0  0  0  0
 20 18  2  0  0  0  0
 21 22  2  0  0  0  0
 21 23  1  0  0  0  0
 25 26  1  0  0  0  0
 25 24  1  0  0  0  0
 27 28  1  6  0  0  0
 27 30  1  0  0  0  0
 27 26  1  0  0  0  0
 30 29  1  6  0  0  0
 31 37  1  6  0  0  0
 31 43  1  0  0  0  0
 32 42  1  6  0  0  0
 32 44  1  0  0  0  0
 33 44  1  0  0  0  0
 33 36  1  0  0  0  0
 34 40  1  0  0  0  0
 35 39  1  0  0  0  0
 35 31  1  0  0  0  0
 36 30  1  6  0  0  0
 39 46  1  1  0  0  0
 39 42  1  0  0  0  0
 40 32  1  0  0  0  0
 40 45  1  0  0  0  0
 40 44  1  0  0  0  0
 41 36  1  0  0  0  0
 42 43  2  0  0  0  0
 43 41  1  0  0  0  0
 44 38  1  1  0  0  0
 47 46  1  0  0  0  0
 48  5  1  0  0  0  0
 49 48  1  0  0  0  0
 50 49  1  0  0  0  0
 51 53  1  0  0  0  0
 52 50  1  1  0  0  0
 52 56  1  0  0  0  0
 52 55  1  0  0  0  0
 53 63  1  0  0  0  0
 54 51  1  0  0  0  0
 55 53  1  0  0  0  0
 56 57  1  6  0  0  0
 56 54  1  0  0  0  0
 57 62  1  0  0  0  0
 58 57  1  0  0  0  0
 59 61  1  0  0  0  0
 59 58  1  0  0  0  0
 60 62  1  0  0  0  0
 61 60  1  0  0  0  0
 63 64  1  0  0  0  0
M  END
>  <MODEL>
7

>  <REMARK>
 VINA RESULT:      -6.4      3.387      6.385
  Name = 
  17 active torsions:
  status: ('A' for Active; 'I' for Inactive)
    1  A    between atoms: C_3  and  O_38
    2  A    between atoms: C_3  and  C_58
    3  A    between atoms: C_9  and  C_54
    4  A    between atoms: C_12  and  O_38
    5  A    between atoms: C_14  and  C_35
    6  A    between atoms: C_14  and  O_48
    7  A    between atoms: C_15  and  C_51
    8  A    between atoms: C_15  and  C_52
    9  A    between atoms: N_20  and  C_58
   10  A    between atoms: C_21  and  C_23
   11  A    between atoms: C_21  and  C_28
   12  A    between atoms: C_21  and  C_60
   13  A    between atoms: N_22  and  C_44
   14  A    between atoms: C_29  and  C_35
   15  A    between atoms: C_32  and  C_36
   16  A    between atoms: C_37  and  N_50
   17  A    between atoms: O_48  and  C_51
                            x       y       z     vdW  Elec       q    Type
                         _______ _______ _______ _____ _____    ______ ____

>  <TORSDO>
F 17

$$$$
=
 OpenBabel11042414313D

 64 72  0  0  1  0  0  0  0  0999 V2000
  191.9380  173.4920  140.8800 C   0  0  0  0  0  0  0  0  0  0  0  0
  193.8960  172.0320  141.2910 S   0  0  0  0  0  0  0  0  0  0  0  0
  192.3160  172.1780  140.7320 C   0  0  0  0  0  0  0  0  0  0  0  0
  191.0200  173.6050  139.8450 N   0  0  0  0  0  0  0  0  0  0  0  0
  189.7390  173.0490  139.3880 N   0  0  0  0  0  0  0  0  0  0  0  0
  194.0530  173.6740  141.7150 C   0  0  0  0  0  0  0  0  0  0  0  0
  192.9060  174.3870  141.3330 C   0  0  0  0  0  3  0  0  0  0  0  0
  190.8520  172.6390  138.8060 C   0  0  2  0  0  3  0  0  0  0  0  0
  191.5660  171.4790  139.5630 C   0  0  1  0  0  3  0  0  0  0  0  0
  195.2480  174.2490  142.4250 C   0  0  2  0  0  3  0  0  0  0  0  0
  194.7310  176.8980  145.1260 C   0  0  0  0  0  3  0  0  0  0  0  0
  195.1420  176.2550  143.9580 C   0  0  0  0  0  3  0  0  0  0  0  0
  194.2790  174.1550  144.8060 C   0  0  0  0  0  3  0  0  0  0  0  0
  194.0650  176.1810  146.1310 C   0  0  0  0  0  0  0  0  0  0  0  0
  193.8670  174.8010  145.9760 C   0  0  0  0  0  3  0  0  0  0  0  0
  194.8860  174.8890  143.7630 C   0  0  0  0  0  0  0  0  0  0  0  0
  191.5660  177.0280  148.9200 C   0  0  0  0  0  1  0  0  0  0  0  0
  192.0580  176.8430  147.5140 C   0  0  0  0  0  0  0  0  0  0  0  0
  193.4650  176.8500  147.2470 N   0  0  0  0  0  2  0  0  0  0  0  0
  191.2050  176.7800  146.5450 N   0  0  0  0  0  2  0  0  0  0  0  0
  195.9910  175.2020  141.5080 C   0  0  0  0  0  0  0  0  0  0  0  0
  195.3770  176.1520  140.9430 O   0  0  0  0  0  0  0  0  0  0  0  0
  197.3920  175.0600  141.2670 N   0  0  0  0  0  1  0  0  0  0  0  0
  192.4850  170.7370  138.6050 C   0  0  0  0  0  2  0  0  0  0  0  0
  191.6720  169.8330  137.7030 C   0  0  0  0  0  2  0  0  0  0  0  0
  192.5320  169.0120  136.9560 O   0  0  0  0  0  0  0  0  0  0  0  0
  192.7590  169.6970  135.7710 C   0  0  2  0  0  3  0  0  0  0  0  0
  192.0440  168.9580  134.6310 C   0  0  0  0  0  1  0  0  0  0  0  0
  194.9150  168.9950  134.5320 C   0  0  0  0  0  1  0  0  0  0  0  0
  194.2680  169.9260  135.5550 C   0  0  1  0  0  3  0  0  0  0  0  0
  191.6150  173.4550  134.7170 C   0  0  2  0  0  3  0  0  0  0  0  0
  195.0850  174.4480  135.8880 C   0  0  2  0  0  3  0  0  0  0  0  0
  194.9130  172.0250  136.6600 N   0  0  0  0  0  2  0  0  0  0  0  0
  194.3700  174.1510  138.3020 O   0  0  0  0  0  1  0  0  0  0  0  0
  191.2650  174.6890  135.5380 C   0  0  0  0  0  2  0  0  0  0  0  0
  194.7160  171.3760  135.3580 C   0  0  2  0  0  3  0  0  0  0  0  0
  190.8610  172.2650  135.2950 C   0  0  0  0  0  1  0  0  0  0  0  0
  197.2480  172.9720  136.2380 C   0  0  0  0  0  1  0  0  0  0  0  0
  192.5740  175.2600  136.0730 C   0  0  1  0  0  3  0  0  0  0  0  0
  195.4150  174.3640  137.3890 C   0  0  0  0  0  0  0  0  0  0  0  0
  193.7860  172.1250  134.5140 N   0  0  0  0  0  2  0  0  0  0  0  0
  193.6130  174.2800  135.6330 C   0  0  0  0  0  0  0  0  0  0  0  0
  193.0750  173.2940  134.9340 C   0  0  0  0  0  0  0  0  0  0  0  0
  195.7660  173.1990  136.4820 C   0  0  1  0  0  0  0  0  0  0  0  0
  196.4690  175.1750  137.8050 O   0  0  0  0  0  1  0  0  0  0  0  0
  192.8040  176.6370  135.4700 C   0  0  0  0  0  2  0  0  0  0  0  0
  191.5810  177.1630  134.9060 N   0  0  0  0  0  1  0  0  0  0  0  0
  189.1030  174.0100  138.4940 C   0  0  0  0  0  2  0  0  0  0  0  0
  187.9940  174.7330  139.2510 C   0  0  0  0  0  2  0  0  0  0  0  0
  187.9070  174.2370  140.5580 O   0  0  0  0  0  0  0  0  0  0  0  0
  186.8450  176.8130  143.6330 C   0  0  0  0  0  2  0  0  0  0  0  0
  188.3060  175.2990  141.3680 C   0  0  1  0  0  3  0  0  0  0  0  0
  186.1740  176.5510  142.3480 N   0  0  0  0  0  0  0  0  0  0  0  0
  188.2140  176.1280  143.7400 C   0  0  0  0  0  2  0  0  0  0  0  0
  187.3180  176.8050  141.0100 S   0  0  0  0  0  0  0  0  0  0  0  0
  188.2470  174.8820  142.8480 C   0  0  2  0  0  3  0  0  0  0  0  0
  189.3830  173.9380  143.2200 C   0  0  0  0  0  3  0  0  0  0  0  0
  190.0370  174.2640  144.5810 C   0  0  0  0  0  2  0  0  0  0  0  0
  190.6280  173.0280  145.2550 C   0  0  0  0  0  2  0  0  0  0  0  0
  190.1380  171.5330  143.3030 C   0  0  0  0  0  2  0  0  0  0  0  0
  191.2310  172.0990  144.2190 C   0  0  0  0  0  2  0  0  0  0  0  0
  188.9390  172.4740  143.1250 C   0  0  0  0  0  2  0  0  0  0  0  0
  185.1590  177.5900  142.2280 C   0  0  0  0  0  2  0  0  0  0  0  0
  185.7350  178.7510  141.6980 O   0  0  0  0  0  1  0  0  0  0  0  0
  1  7  1  0  0  0  0
  2  6  1  0  0  0  0
  3  1  2  0  0  0  0
  3  2  1  0  0  0  0
  4  1  1  0  0  0  0
  5  4  1  0  0  0  0
  6 10  1  0  0  0  0
  7  6  2  0  0  0  0
  8  5  1  1  0  0  0
  8  9  1  0  0  0  0
  8  4  1  0  0  0  0
  9 24  1  6  0  0  0
  9  3  1  0  0  0  0
 10 21  1  6  0  0  0
 10 16  1  0  0  0  0
 11 14  1  0  0  0  0
 12 11  2  0  0  0  0
 13 15  1  0  0  0  0
 14 19  1  0  0  0  0
 15 14  2  0  0  0  0
 16 12  1  0  0  0  0
 16 13  2  0  0  0  0
 18 17  1  0  0  0  0
 19 18  1  0  0  0  0
 20 18  2  0  0  0  0
 22 21  2  0  0  0  0
 23 21  1  0  0  0  0
 25 24  1  0  0  0  0
 26 25  1  0  0  0  0
 27 28  1  6  0  0  0
 27 26  1  0  0  0  0
 30 29  1  6  0  0  0
 30 27  1  0  0  0  0
 31 43  1  0  0  0  0
 31 37  1  1  0  0  0
 31 35  1  0  0  0  0
 32 42  1  1  0  0  0
 32 44  1  0  0  0  0
 32 40  1  0  0  0  0
 35 39  1  0  0  0  0
 36 30  1  1  0  0  0
 36 33  1  0  0  0  0
 39 46  1  6  0  0  0
 40 45  1  0  0  0  0
 40 34  1  0  0  0  0
 41 43  1  0  0  0  0
 41 36  1  0  0  0  0
 42 39  1  0  0  0  0
 43 42  2  0  0  0  0
 44 38  1  6  0  0  0
 44 33  1  0  0  0  0
 44 40  1  0  0  0  0
 47 46  1  0  0  0  0
 48 49  1  0  0  0  0
 48  5  1  0  0  0  0
 49 50  1  0  0  0  0
 51 54  1  0  0  0  0
 52 50  1  6  0  0  0
 52 56  1  0  0  0  0
 53 51  1  0  0  0  0
 55 52  1  0  0  0  0
 55 53  1  0  0  0  0
 56 57  1  1  0  0  0
 56 54  1  0  0  0  0
 57 58  1  0  0  0  0
 58 59  1  0  0  0  0
 60 61  1  0  0  0  0
 61 59  1  0  0  0  0
 62 57  1  0  0  0  0
 62 60  1  0  0  0  0
 63 53  1  0  0  0  0
 64 63  1  0  0  0  0
M  END
>  <MODEL>
8

>  <REMARK>
 VINA RESULT:      -6.3      2.788      4.684
  Name = 
  17 active torsions:
  status: ('A' for Active; 'I' for Inactive)
    1  A    between atoms: C_3  and  O_38
    2  A    between atoms: C_3  and  C_58
    3  A    between atoms: C_9  and  C_54
    4  A    between atoms: C_12  and  O_38
    5  A    between atoms: C_14  and  C_35
    6  A    between atoms: C_14  and  O_48
    7  A    between atoms: C_15  and  C_51
    8  A    between atoms: C_15  and  C_52
    9  A    between atoms: N_20  and  C_58
   10  A    between atoms: C_21  and  C_23
   11  A    between atoms: C_21  and  C_28
   12  A    between atoms: C_21  and  C_60
   13  A    between atoms: N_22  and  C_44
   14  A    between atoms: C_29  and  C_35
   15  A    between atoms: C_32  and  C_36
   16  A    between atoms: C_37  and  N_50
   17  A    between atoms: O_48  and  C_51
                            x       y       z     vdW  Elec       q    Type
                         _______ _______ _______ _____ _____    ______ ____

>  <TORSDO>
F 17

$$$$
=
 OpenBabel11042414313D

 64 72  0  0  1  0  0  0  0  0999 V2000
  187.9480  175.5810  142.6640 C   0  0  0  0  0  0  0  0  0  0  0  0
  186.6490  177.2250  141.3450 S   0  0  0  0  0  0  0  0  0  0  0  0
  187.9000  176.1010  141.3920 C   0  0  0  0  0  0  0  0  0  0  0  0
  188.4580  174.3170  142.3960 N   0  0  0  0  0  0  0  0  0  0  0  0
  189.6470  173.6610  141.8350 N   0  0  0  0  0  0  0  0  0  0  0  0
  186.2010  177.0140  142.9740 C   0  0  0  0  0  0  0  0  0  0  0  0
  186.9580  175.9860  143.5570 C   0  0  0  0  0  3  0  0  0  0  0  0
  188.5590  173.7480  141.0900 C   0  0  2  0  0  3  0  0  0  0  0  0
  188.4280  175.1000  140.3270 C   0  0  1  0  0  3  0  0  0  0  0  0
  185.1610  177.8440  143.6760 C   0  0  2  0  0  3  0  0  0  0  0  0
  181.7000  179.0460  142.6000 C   0  0  0  0  0  3  0  0  0  0  0  0
  182.7900  178.6680  143.3850 C   0  0  0  0  0  3  0  0  0  0  0  0
  183.9600  177.9120  141.4020 C   0  0  0  0  0  3  0  0  0  0  0  0
  181.7420  178.8860  141.2070 C   0  0  0  0  0  0  0  0  0  0  0  0
  182.8660  178.2910  140.6170 C   0  0  0  0  0  3  0  0  0  0  0  0
  183.9480  178.1360  142.7960 C   0  0  0  0  0  0  0  0  0  0  0  0
  178.2960  180.0920  140.0190 C   0  0  0  0  0  1  0  0  0  0  0  0
  179.3340  179.1100  140.4790 C   0  0  0  0  0  0  0  0  0  0  0  0
  180.7240  179.4390  140.3660 N   0  0  0  0  0  2  0  0  0  0  0  0
  178.9680  177.9380  140.8800 N   0  0  0  0  0  2  0  0  0  0  0  0
  185.7900  179.1060  144.2340 C   0  0  0  0  0  0  0  0  0  0  0  0
  186.8940  179.0500  144.8480 O   0  0  0  0  0  0  0  0  0  0  0  0
  185.1640  180.3810  144.0770 N   0  0  0  0  0  1  0  0  0  0  0  0
  187.4950  174.9230  139.1390 C   0  0  0  0  0  2  0  0  0  0  0  0
  188.2770  174.4580  137.9300 C   0  0  0  0  0  2  0  0  0  0  0  0
  188.1620  173.0640  137.7990 O   0  0  0  0  0  0  0  0  0  0  0  0
  189.4230  172.6240  137.4230 C   0  0  2  0  0  3  0  0  0  0  0  0
  189.3300  172.0130  136.0170 C   0  0  0  0  0  1  0  0  0  0  0  0
  189.7040  170.2130  138.3100 C   0  0  0  0  0  1  0  0  0  0  0  0
  190.0190  171.6960  138.4980 C   0  0  1  0  0  3  0  0  0  0  0  0
  193.5640  169.8950  136.4060 C   0  0  2  0  0  3  0  0  0  0  0  0
  194.4770  172.8570  138.5940 C   0  0  2  0  0  3  0  0  0  0  0  0
  191.9700  173.1720  138.2550 N   0  0  0  0  0  2  0  0  0  0  0  0
  193.8500  174.4490  136.7230 O   0  0  0  0  0  1  0  0  0  0  0  0
  194.6720  170.5080  135.5590 C   0  0  0  0  0  2  0  0  0  0  0  0
  191.4930  171.9170  138.8480 C   0  0  2  0  0  3  0  0  0  0  0  0
  192.2920  169.8500  135.5700 C   0  0  0  0  0  1  0  0  0  0  0  0
  193.0190  174.1840  140.3530 C   0  0  0  0  0  1  0  0  0  0  0  0
  195.1980  171.7220  136.3160 C   0  0  1  0  0  3  0  0  0  0  0  0
  194.2050  174.2790  138.0710 C   0  0  0  0  0  0  0  0  0  0  0  0
  192.3240  170.7800  138.4550 N   0  0  0  0  0  2  0  0  0  0  0  0
  194.3090  171.8270  137.5130 C   0  0  0  0  0  0  0  0  0  0  0  0
  193.4110  170.8550  137.5270 C   0  0  0  0  0  0  0  0  0  0  0  0
  193.1770  173.6020  138.9590 C   0  0  1  0  0  0  0  0  0  0  0  0
  194.9790  175.2780  138.6570 O   0  0  0  0  0  1  0  0  0  0  0  0
  196.6480  171.4790  136.7090 C   0  0  0  0  0  2  0  0  0  0  0  0
  197.5130  172.4830  136.1300 N   0  0  0  0  0  1  0  0  0  0  0  0
  189.7190  172.2990  142.3530 C   0  0  0  0  0  2  0  0  0  0  0  0
  190.9250  172.1830  143.2780 C   0  0  0  0  0  2  0  0  0  0  0  0
  191.5910  173.4120  143.3490 O   0  0  0  0  0  0  0  0  0  0  0  0
  194.5900  174.9440  145.7750 C   0  0  0  0  0  2  0  0  0  0  0  0
  192.1420  173.4440  144.6300 C   0  0  1  0  0  3  0  0  0  0  0  0
  194.6900  174.1960  144.5100 N   0  0  0  0  0  0  0  0  0  0  0  0
  193.1550  175.0090  146.3160 C   0  0  0  0  0  2  0  0  0  0  0  0
  193.8030  172.6600  144.6490 S   0  0  0  0  0  0  0  0  0  0  0  0
  192.1550  174.8870  145.1620 C   0  0  2  0  0  3  0  0  0  0  0  0
  190.7620  175.3620  145.5560 C   0  0  0  0  0  3  0  0  0  0  0  0
  189.9330  174.2930  146.3010 C   0  0  0  0  0  2  0  0  0  0  0  0
  188.9120  174.9080  147.2550 C   0  0  0  0  0  2  0  0  0  0  0  0
  189.4170  177.2570  146.5370 C   0  0  0  0  0  2  0  0  0  0  0  0
  188.3320  176.1780  146.6630 C   0  0  0  0  0  2  0  0  0  0  0  0
  190.8260  176.6870  146.3240 C   0  0  0  0  0  2  0  0  0  0  0  0
  196.1000  173.8480  144.3820 C   0  0  0  0  0  2  0  0  0  0  0  0
  196.7390  174.0110  145.6180 O   0  0  0  0  0  1  0  0  0  0  0  0
  1  7  1  0  0  0  0
  2  3  1  0  0  0  0
  2  6  1  0  0  0  0
  3  1  2  0  0  0  0
  4  1  1  0  0  0  0
  5 48  1  0  0  0  0
  5  4  1  0  0  0  0
  6  7  2  0  0  0  0
  6 10  1  0  0  0  0
  8  5  1  1  0  0  0
  8  4  1  0  0  0  0
  9 24  1  6  0  0  0
  9  8  1  0  0  0  0
  9  3  1  0  0  0  0
 10 21  1  6  0  0  0
 11 12  1  0  0  0  0
 13 16  1  0  0  0  0
 14 11  2  0  0  0  0
 15 14  1  0  0  0  0
 15 13  2  0  0  0  0
 16 12  2  0  0  0  0
 16 10  1  0  0  0  0
 17 18  1  0  0  0  0
 18 20  2  0  0  0  0
 19 18  1  0  0  0  0
 19 14  1  0  0  0  0
 21 22  2  0  0  0  0
 23 21  1  0  0  0  0
 25 24  1  0  0  0  0
 26 25  1  0  0  0  0
 27 28  1  6  0  0  0
 27 26  1  0  0  0  0
 27 30  1  0  0  0  0
 30 29  1  6  0  0  0
 31 37  1  6  0  0  0
 31 43  1  0  0  0  0
 32 42  1  6  0  0  0
 32 44  1  0  0  0  0
 33 36  1  0  0  0  0
 33 44  1  0  0  0  0
 34 40  1  0  0  0  0
 35 39  1  0  0  0  0
 35 31  1  0  0  0  0
 36 30  1  6  0  0  0
 39 46  1  1  0  0  0
 39 42  1  0  0  0  0
 40 32  1  0  0  0  0
 40 45  1  0  0  0  0
 40 44  1  0  0  0  0
 41 36  1  0  0  0  0
 42 43  2  0  0  0  0
 43 41  1  0  0  0  0
 44 38  1  1  0  0  0
 47 46  1  0  0  0  0
 48 49  1  0  0  0  0
 49 50  1  0  0  0  0
 51 54  1  0  0  0  0
 52 50  1  6  0  0  0
 52 55  1  0  0  0  0
 52 56  1  0  0  0  0
 53 55  1  0  0  0  0
 53 51  1  0  0  0  0
 56 57  1  1  0  0  0
 56 54  1  0  0  0  0
 57 58  1  0  0  0  0
 57 62  1  0  0  0  0
 58 59  1  0  0  0  0
 60 61  1  0  0  0  0
 61 59  1  0  0  0  0
 62 60  1  0  0  0  0
 63 53  1  0  0  0  0
 63 64  1  0  0  0  0
M  END
>  <MODEL>
9

>  <REMARK>
 VINA RESULT:      -6.3      2.410      8.955
  Name = 
  17 active torsions:
  status: ('A' for Active; 'I' for Inactive)
    1  A    between atoms: C_3  and  O_38
    2  A    between atoms: C_3  and  C_58
    3  A    between atoms: C_9  and  C_54
    4  A    between atoms: C_12  and  O_38
    5  A    between atoms: C_14  and  C_35
    6  A    between atoms: C_14  and  O_48
    7  A    between atoms: C_15  and  C_51
    8  A    between atoms: C_15  and  C_52
    9  A    between atoms: N_20  and  C_58
   10  A    between atoms: C_21  and  C_23
   11  A    between atoms: C_21  and  C_28
   12  A    between atoms: C_21  and  C_60
   13  A    between atoms: N_22  and  C_44
   14  A    between atoms: C_29  and  C_35
   15  A    between atoms: C_32  and  C_36
   16  A    between atoms: C_37  and  N_50
   17  A    between atoms: O_48  and  C_51
                            x       y       z     vdW  Elec       q    Type
                         _______ _______ _______ _____ _____    ______ ____

>  <TORSDO>
F 17

$$$$
