=
 OpenBabel11042413423D

 58 65  0  0  1  0  0  0  0  0999 V2000
  188.2250  177.4530  146.1610 C   0  0  2  0  0  3  0  0  0  0  0  0
  186.0960  178.7600  146.0740 C   0  0  1  0  0  3  0  0  0  0  0  0
  186.3010  179.4980  148.2430 N   0  0  0  0  0  1  0  0  0  0  0  0
  185.5450  178.6500  147.4200 N   0  0  0  0  0  0  0  0  0  0  0  0
  186.7030  177.3710  146.1180 C   0  0  2  0  0  3  0  0  0  0  0  0
  186.1380  177.3210  147.5210 C   0  0  0  0  0  2  0  0  0  0  0  0
  184.9720  178.7920  145.0480 C   0  0  0  0  0  2  0  0  0  0  0  0
  186.6180  179.1140  143.1920 C   0  0  0  0  0  3  0  0  0  0  0  0
  184.8190  177.5160  142.8980 C   0  0  0  0  0  3  0  0  0  0  0  0
  187.0800  178.8300  141.9020 C   0  0  0  0  0  3  0  0  0  0  0  0
  186.4080  177.8930  141.1070 C   0  0  0  0  0  0  0  0  0  0  0  0
  185.2840  177.2310  141.6100 C   0  0  0  0  0  3  0  0  0  0  0  0
  185.4830  178.4630  143.6870 C   0  0  0  0  0  0  0  0  0  0  0  0
  186.8940  177.5980  139.7290 C   0  0  0  0  0  2  0  0  0  0  0  0
  186.6270  176.3690  137.9170 C   0  0  0  0  0  1  0  0  0  0  0  0
  185.9430  176.8430  139.0380 O   0  0  0  0  0  0  0  0  0  0  0  0
  188.8170  177.0560  144.8440 C   0  0  0  0  0  0  0  0  0  0  0  0
  189.5620  177.8560  144.2130 O   0  0  0  0  0  0  0  0  0  0  0  0
  188.5160  175.7710  144.3060 N   0  0  0  0  0  2  0  0  0  0  0  0
  191.6780  172.6990  140.4500 C   0  0  2  0  0  3  0  0  0  0  0  0
  190.5680  173.3650  142.3700 C   0  0  1  0  0  3  0  0  0  0  0  0
  189.3040  173.8020  143.1460 C   0  0  1  0  0  3  0  0  0  0  0  0
  189.0990  175.3020  143.0620 C   0  0  1  0  0  3  0  0  0  0  0  0
  189.2910  173.6370  140.2940 C   0  0  0  0  0  0  0  0  0  0  0  0
  188.2640  174.5580  140.8430 C   0  0  0  0  0  2  0  0  0  0  0  0
  188.9890  172.8190  139.4370 O   0  0  0  0  0  0  0  0  0  0  0  0
  188.1090  174.3830  142.3580 C   0  0  1  0  0  3  0  0  0  0  0  0
  190.7850  171.9790  142.5280 O   0  0  0  0  0  0  0  0  0  0  0  0
  191.3910  171.5130  141.3410 C   0  0  0  0  0  2  0  0  0  0  0  0
  190.6690  173.7290  140.8970 C   0  0  2  0  0  3  0  0  0  0  0  0
  191.8570  173.3670  138.1670 O   0  0  0  0  0  0  0  0  0  0  0  0
  191.6360  171.0640  138.4930 N   0  0  0  0  0  2  0  0  0  0  0  0
  191.7300  172.4090  138.9770 C   0  0  0  0  0  0  0  0  0  0  0  0
  190.3640  170.7300  136.4210 C   0  0  2  0  0  3  0  0  0  0  0  0
  191.0880  168.1670  136.7220 O   0  0  0  0  0  0  0  0  0  0  0  0
  191.6400  170.7410  137.0740 C   0  0  1  0  0  0  0  0  0  0  0  0
  192.7780  171.0890  136.3440 O   0  0  0  0  0  1  0  0  0  0  0  0
  191.0500  169.3840  136.7380 C   0  0  0  0  0  0  0  0  0  0  0  0
  190.4450  170.9880  134.9230 C   0  0  0  0  0  2  0  0  0  0  0  0
  189.4630  173.0850  135.3790 O   0  0  0  0  0  0  0  0  0  0  0  0
  190.1570  172.4220  134.6250 C   0  0  0  0  0  3  0  0  0  0  0  0
  188.7150  176.6230  147.1740 O   0  0  0  0  0  0  0  0  0  0  0  0
  190.0370  176.9180  147.2580 N   0  0  0  0  0  2  0  0  0  0  0  0
  190.7340  175.7070  147.1420 N   0  0  0  0  0  2  0  0  0  0  0  0
  193.0300  176.4400  147.1110 C   0  0  0  0  0  2  0  0  0  0  0  0
  192.0740  175.6400  146.6390 C   0  0  0  0  0  0  0  0  0  0  0  0
  192.3970  174.6860  145.5440 C   0  0  0  0  0  2  0  0  0  0  0  0
  193.8580  174.8270  145.1440 C   0  0  0  0  0  2  0  0  0  0  0  0
  194.0890  175.8880  144.0660 C   0  0  1  0  0  3  0  0  0  0  0  0
  194.8320  175.0310  141.7900 C   0  0  1  0  0  0  0  0  0  0  0  0
  195.9660  175.8470  142.0240 O   0  0  0  0  0  0  0  0  0  0  0  0
  195.3500  176.5230  144.1410 O   0  0  0  0  0  0  0  0  0  0  0  0
  196.2780  175.7720  143.3940 C   0  0  0  0  0  2  0  0  0  0  0  0
  195.1220  173.7060  142.0810 F   0  0  0  0  0  0  0  0  0  0  0  0
  193.6470  175.4970  142.6460 C   0  0  0  0  0  2  0  0  0  0  0  0
  195.4450  175.4900  139.4790 O   0  0  0  0  0  0  0  0  0  0  0  0
  195.0990  174.1270  139.4720 C   0  0  0  0  0  2  0  0  0  0  0  0
  194.3850  175.1060  140.3230 C   0  0  1  0  0  3  0  0  0  0  0  0
  1 17  1  6  0  0  0
  1 42  1  0  0  0  0
  2  7  1  6  0  0  0
  2  5  1  0  0  0  0
  2  4  1  0  0  0  0
  4  6  1  0  0  0  0
  4  3  1  0  0  0  0
  5  1  1  1  0  0  0
  5  6  1  0  0  0  0
  8 13  1  0  0  0  0
  9 13  2  0  0  0  0
 10  8  2  0  0  0  0
 11 12  2  0  0  0  0
 11 10  1  0  0  0  0
 12  9  1  0  0  0  0
 13  7  1  0  0  0  0
 14 11  1  0  0  0  0
 15 16  1  0  0  0  0
 16 14  1  0  0  0  0
 18 17  2  0  0  0  0
 19 17  1  0  0  0  0
 20 33  1  6  0  0  0
 20 30  1  0  0  0  0
 20 29  1  0  0  0  0
 21 28  1  6  0  0  0
 21 22  1  0  0  0  0
 23 22  1  0  0  0  0
 23 19  1  0  0  0  0
 24 25  1  0  0  0  0
 24 30  1  0  0  0  0
 25 27  1  0  0  0  0
 26 24  2  0  0  0  0
 27 23  1  0  0  0  0
 27 22  1  0  0  0  0
 29 28  1  0  0  0  0
 30 21  1  0  0  0  0
 31 33  2  0  0  0  0
 32 33  1  0  0  0  0
 34 38  1  0  0  0  0
 34 36  1  0  0  0  0
 35 38  2  0  0  0  0
 36 32  1  0  0  0  0
 37 36  1  0  0  0  0
 38 36  1  0  0  0  0
 39 34  1  0  0  0  0
 41 39  1  0  0  0  0
 41 40  2  0  0  0  0
 42 43  1  0  0  0  0
 44 43  1  0  0  0  0
 46 45  2  0  0  0  0
 46 44  1  0  0  0  0
 47 46  1  0  0  0  0
 48 47  1  0  0  0  0
 49 52  1  0  0  0  0
 49 48  1  0  0  0  0
 50 51  1  0  0  0  0
 50 54  1  0  0  0  0
 50 55  1  0  0  0  0
 51 53  1  0  0  0  0
 53 52  1  0  0  0  0
 55 49  1  0  0  0  0
 56 58  1  0  0  0  0
 57 56  1  0  0  0  0
 57 58  1  0  0  0  0
 58 50  1  0  0  0  0
M  END
>  <MODEL>
1

>  <REMARK>
 VINA RESULT:      -6.6      0.000      0.000
  Name = 
  19 active torsions:
  status: ('A' for Active; 'I' for Inactive)
    1  A    between atoms: N_1  and  N_6
    2  A    between atoms: N_1  and  C_57
    3  A    between atoms: C_2  and  C_46
    4  A    between atoms: C_3  and  C_5
    5  A    between atoms: C_3  and  C_22
    6  A    between atoms: N_6  and  O_56
    7  A    between atoms: C_7  and  C_38
    8  A    between atoms: C_9  and  C_51
    9  A    between atoms: C_14  and  C_35
   10  A    between atoms: C_17  and  N_54
   11  A    between atoms: C_22  and  C_57
   12  A    between atoms: C_27  and  C_43
   13  A    between atoms: C_28  and  C_43
   14  A    between atoms: C_30  and  N_42
   15  A    between atoms: C_32  and  C_35
   16  A    between atoms: C_37  and  C_39
   17  A    between atoms: C_37  and  O_45
   18  A    between atoms: C_38  and  C_49
   19  A    between atoms: C_43  and  O_56
                            x       y       z     vdW  Elec       q    Type
                         _______ _______ _______ _____ _____    ______ ____

>  <TORSDO>
F 19

$$$$
=
 OpenBabel11042413423D

 58 65  0  0  1  0  0  0  0  0999 V2000
  187.6860  176.9960  145.6940 C   0  0  2  0  0  3  0  0  0  0  0  0
  185.9910  178.7800  146.1300 C   0  0  1  0  0  3  0  0  0  0  0  0
  186.7080  179.1260  148.2880 N   0  0  0  0  0  1  0  0  0  0  0  0
  185.6410  178.6160  147.5360 N   0  0  0  0  0  0  0  0  0  0  0  0
  186.2080  177.2940  145.9220 C   0  0  2  0  0  3  0  0  0  0  0  0
  185.8690  177.1820  147.3930 C   0  0  0  0  0  2  0  0  0  0  0  0
  184.7750  179.2330  145.3350 C   0  0  0  0  0  2  0  0  0  0  0  0
  186.1330  179.0720  143.2400 C   0  0  0  0  0  3  0  0  0  0  0  0
  183.8200  178.3460  143.1950 C   0  0  0  0  0  3  0  0  0  0  0  0
  186.2560  178.7630  141.8810 C   0  0  0  0  0  3  0  0  0  0  0  0
  185.1580  178.2520  141.1770 C   0  0  0  0  0  0  0  0  0  0  0  0
  183.9450  178.0350  141.8370 C   0  0  0  0  0  3  0  0  0  0  0  0
  184.9130  178.8710  143.8960 C   0  0  0  0  0  0  0  0  0  0  0  0
  185.2860  177.9320  139.7260 C   0  0  0  0  0  2  0  0  0  0  0  0
  186.3770  176.7220  138.2400 C   0  0  0  0  0  1  0  0  0  0  0  0
  186.5370  177.3670  139.4680 O   0  0  0  0  0  0  0  0  0  0  0  0
  187.8650  176.0020  144.5890 C   0  0  0  0  0  0  0  0  0  0  0  0
  186.9620  175.8450  143.7200 O   0  0  0  0  0  0  0  0  0  0  0  0
  189.0600  175.2270  144.5390 N   0  0  0  0  0  2  0  0  0  0  0  0
  188.8690  172.4920  139.3630 C   0  0  2  0  0  3  0  0  0  0  0  0
  188.6400  174.0720  141.0400 C   0  0  1  0  0  3  0  0  0  0  0  0
  189.2040  175.0070  142.1350 C   0  0  1  0  0  3  0  0  0  0  0  0
  189.3220  174.2860  143.4640 C   0  0  1  0  0  3  0  0  0  0  0  0
  190.8510  173.0190  140.9090 C   0  0  0  0  0  0  0  0  0  0  0  0
  191.3190  173.4340  142.2560 C   0  0  0  0  0  2  0  0  0  0  0  0
  191.6410  172.9480  139.9790 O   0  0  0  0  0  0  0  0  0  0  0  0
  190.5940  174.6970  142.7350 C   0  0  1  0  0  3  0  0  0  0  0  0
  188.4630  174.7830  139.8330 O   0  0  0  0  0  0  0  0  0  0  0  0
  188.6740  173.8710  138.7760 C   0  0  0  0  0  2  0  0  0  0  0  0
  189.3730  172.7700  140.7580 C   0  0  2  0  0  3  0  0  0  0  0  0
  189.7800  170.3380  138.8950 O   0  0  0  0  0  0  0  0  0  0  0  0
  190.3480  171.9920  137.3460 N   0  0  0  0  0  2  0  0  0  0  0  0
  189.6840  171.5420  138.5330 C   0  0  0  0  0  0  0  0  0  0  0  0
  192.5280  170.9220  136.9890 C   0  0  2  0  0  3  0  0  0  0  0  0
  192.6670  172.5550  134.8690 O   0  0  0  0  0  0  0  0  0  0  0  0
  191.1820  171.1160  136.5360 C   0  0  1  0  0  0  0  0  0  0  0  0
  190.5410  170.0900  135.8390 O   0  0  0  0  0  1  0  0  0  0  0  0
  192.2780  171.8300  135.7660 C   0  0  0  0  0  0  0  0  0  0  0  0
  193.1460  169.6130  136.5180 C   0  0  0  0  0  2  0  0  0  0  0  0
  192.8440  168.9100  138.7510 O   0  0  0  0  0  0  0  0  0  0  0  0
  193.0710  168.5840  137.5960 C   0  0  0  0  0  3  0  0  0  0  0  0
  188.2580  176.5080  146.8730 O   0  0  0  0  0  0  0  0  0  0  0  0
  189.3300  177.3080  147.1000 N   0  0  0  0  0  2  0  0  0  0  0  0
  190.4530  176.4730  147.1860 N   0  0  0  0  0  2  0  0  0  0  0  0
  191.5800  177.5240  149.0390 C   0  0  0  0  0  2  0  0  0  0  0  0
  191.6420  176.8590  147.8860 C   0  0  0  0  0  0  0  0  0  0  0  0
  192.9720  176.5460  147.2970 C   0  0  0  0  0  2  0  0  0  0  0  0
  192.8040  176.0170  145.8810 C   0  0  0  0  0  2  0  0  0  0  0  0
  193.9770  176.3660  144.9630 C   0  0  1  0  0  3  0  0  0  0  0  0
  194.7780  174.5140  143.4150 C   0  0  1  0  0  0  0  0  0  0  0  0
  196.0070  174.6850  144.0980 O   0  0  0  0  0  0  0  0  0  0  0  0
  195.2440  176.2730  145.5860 O   0  0  0  0  0  0  0  0  0  0  0  0
  195.7180  174.9550  145.4490 C   0  0  0  0  0  2  0  0  0  0  0  0
  194.0920  173.4210  143.9220 F   0  0  0  0  0  0  0  0  0  0  0  0
  193.9090  175.7710  143.5470 C   0  0  0  0  0  2  0  0  0  0  0  0
  196.1940  173.5620  141.6780 O   0  0  0  0  0  0  0  0  0  0  0  0
  194.9940  172.8360  141.5710 C   0  0  0  0  0  2  0  0  0  0  0  0
  195.0030  174.2760  141.9150 C   0  0  1  0  0  3  0  0  0  0  0  0
  1 17  1  6  0  0  0
  1 42  1  0  0  0  0
  2  7  1  6  0  0  0
  2  4  1  0  0  0  0
  4  3  1  0  0  0  0
  5  1  1  1  0  0  0
  5  2  1  0  0  0  0
  5  6  1  0  0  0  0
  6  4  1  0  0  0  0
  8 13  1  0  0  0  0
  9 13  2  0  0  0  0
 10  8  2  0  0  0  0
 11 12  2  0  0  0  0
 11 10  1  0  0  0  0
 12  9  1  0  0  0  0
 13  7  1  0  0  0  0
 14 11  1  0  0  0  0
 15 16  1  0  0  0  0
 16 14  1  0  0  0  0
 18 17  2  0  0  0  0
 19 17  1  0  0  0  0
 20 33  1  6  0  0  0
 20 30  1  0  0  0  0
 21 28  1  6  0  0  0
 21 22  1  0  0  0  0
 22 27  1  0  0  0  0
 22 23  1  0  0  0  0
 23 19  1  0  0  0  0
 24 25  1  0  0  0  0
 25 27  1  0  0  0  0
 26 24  2  0  0  0  0
 27 23  1  0  0  0  0
 29 20  1  0  0  0  0
 29 28  1  0  0  0  0
 30 24  1  0  0  0  0
 30 21  1  0  0  0  0
 32 33  1  0  0  0  0
 33 31  2  0  0  0  0
 35 38  2  0  0  0  0
 36 34  1  0  0  0  0
 36 32  1  0  0  0  0
 37 36  1  0  0  0  0
 38 36  1  0  0  0  0
 38 34  1  0  0  0  0
 39 34  1  0  0  0  0
 39 41  1  0  0  0  0
 41 40  2  0  0  0  0
 42 43  1  0  0  0  0
 43 44  1  0  0  0  0
 44 46  1  0  0  0  0
 46 45  2  0  0  0  0
 47 46  1  0  0  0  0
 48 47  1  0  0  0  0
 49 52  1  0  0  0  0
 49 48  1  0  0  0  0
 50 55  1  0  0  0  0
 50 54  1  0  0  0  0
 50 51  1  0  0  0  0
 51 53  1  0  0  0  0
 53 52  1  0  0  0  0
 55 49  1  0  0  0  0
 56 58  1  0  0  0  0
 57 56  1  0  0  0  0
 57 58  1  0  0  0  0
 58 50  1  0  0  0  0
M  END
>  <MODEL>
2

>  <REMARK>
 VINA RESULT:      -6.3      1.528      2.398
  Name = 
  19 active torsions:
  status: ('A' for Active; 'I' for Inactive)
    1  A    between atoms: N_1  and  N_6
    2  A    between atoms: N_1  and  C_57
    3  A    between atoms: C_2  and  C_46
    4  A    between atoms: C_3  and  C_5
    5  A    between atoms: C_3  and  C_22
    6  A    between atoms: N_6  and  O_56
    7  A    between atoms: C_7  and  C_38
    8  A    between atoms: C_9  and  C_51
    9  A    between atoms: C_14  and  C_35
   10  A    between atoms: C_17  and  N_54
   11  A    between atoms: C_22  and  C_57
   12  A    between atoms: C_27  and  C_43
   13  A    between atoms: C_28  and  C_43
   14  A    between atoms: C_30  and  N_42
   15  A    between atoms: C_32  and  C_35
   16  A    between atoms: C_37  and  C_39
   17  A    between atoms: C_37  and  O_45
   18  A    between atoms: C_38  and  C_49
   19  A    between atoms: C_43  and  O_56
                            x       y       z     vdW  Elec       q    Type
                         _______ _______ _______ _____ _____    ______ ____

>  <TORSDO>
F 19

$$$$
=
 OpenBabel11042413423D

 58 65  0  0  1  0  0  0  0  0999 V2000
  188.5790  177.3280  145.9330 C   0  0  2  0  0  3  0  0  0  0  0  0
  186.3430  178.4330  146.0900 C   0  0  1  0  0  3  0  0  0  0  0  0
  186.6190  178.9840  148.3060 N   0  0  0  0  0  1  0  0  0  0  0  0
  185.8900  178.1490  147.4470 N   0  0  0  0  0  0  0  0  0  0  0  0
  187.0710  177.1090  145.9650 C   0  0  2  0  0  3  0  0  0  0  0  0
  186.6020  176.8770  147.3860 C   0  0  0  0  0  2  0  0  0  0  0  0
  185.1580  178.4550  145.1350 C   0  0  0  0  0  2  0  0  0  0  0  0
  186.8420  178.7140  143.3030 C   0  0  0  0  0  3  0  0  0  0  0  0
  184.7710  177.5450  142.8330 C   0  0  0  0  0  3  0  0  0  0  0  0
  187.2460  178.5310  141.9770 C   0  0  0  0  0  3  0  0  0  0  0  0
  186.4100  177.8600  141.0760 C   0  0  0  0  0  0  0  0  0  0  0  0
  185.1780  177.3590  141.5080 C   0  0  0  0  0  3  0  0  0  0  0  0
  185.6020  178.2280  143.7310 C   0  0  0  0  0  0  0  0  0  0  0  0
  186.8350  177.6730  139.6590 C   0  0  0  0  0  2  0  0  0  0  0  0
  186.6500  176.4070  137.8620 C   0  0  0  0  0  1  0  0  0  0  0  0
  185.9560  176.8070  139.0060 O   0  0  0  0  0  0  0  0  0  0  0  0
  189.1680  176.7940  144.6640 C   0  0  0  0  0  0  0  0  0  0  0  0
  190.1450  177.3790  144.1180 O   0  0  0  0  0  0  0  0  0  0  0  0
  188.6010  175.6270  144.0730 N   0  0  0  0  0  2  0  0  0  0  0  0
  191.2230  171.8550  140.4390 C   0  0  2  0  0  3  0  0  0  0  0  0
  190.1500  172.7800  142.2700 C   0  0  1  0  0  3  0  0  0  0  0  0
  188.9710  173.5210  142.9440 C   0  0  1  0  0  3  0  0  0  0  0  0
  189.1570  175.0250  142.8740 C   0  0  1  0  0  3  0  0  0  0  0  0
  189.1710  173.3620  140.0980 C   0  0  0  0  0  0  0  0  0  0  0  0
  188.3630  174.5120  140.5770 C   0  0  0  0  0  2  0  0  0  0  0  0
  188.7510  172.6460  139.2020 O   0  0  0  0  0  0  0  0  0  0  0  0
  188.0350  174.3830  142.0680 C   0  0  1  0  0  3  0  0  0  0  0  0
  189.9980  171.3840  142.4170 O   0  0  0  0  0  0  0  0  0  0  0  0
  190.5710  170.7800  141.2770 C   0  0  0  0  0  2  0  0  0  0  0  0
  190.4690  173.1050  140.8200 C   0  0  2  0  0  3  0  0  0  0  0  0
  190.8560  170.4790  138.5260 O   0  0  0  0  0  0  0  0  0  0  0  0
  191.9680  172.4860  138.0830 N   0  0  0  0  0  2  0  0  0  0  0  0
  191.3320  171.5590  138.9710 C   0  0  0  0  0  0  0  0  0  0  0  0
  193.1520  171.2780  136.3040 C   0  0  2  0  0  3  0  0  0  0  0  0
  194.1040  173.7040  135.6790 O   0  0  0  0  0  0  0  0  0  0  0  0
  192.1330  172.2200  136.6610 C   0  0  1  0  0  0  0  0  0  0  0  0
  190.9990  172.3390  135.8550 O   0  0  0  0  0  1  0  0  0  0  0  0
  193.4100  172.7810  136.0620 C   0  0  0  0  0  0  0  0  0  0  0  0
  192.9070  170.5950  134.9660 C   0  0  0  0  0  2  0  0  0  0  0  0
  192.3800  168.6710  136.2280 O   0  0  0  0  0  0  0  0  0  0  0  0
  192.7480  169.1230  135.1550 C   0  0  0  0  0  3  0  0  0  0  0  0
  189.1720  176.7030  147.0340 O   0  0  0  0  0  0  0  0  0  0  0  0
  189.7080  175.5590  146.5400 N   0  0  0  0  0  2  0  0  0  0  0  0
  191.0580  175.5420  146.9170 N   0  0  0  0  0  2  0  0  0  0  0  0
  192.0250  173.9710  145.3660 C   0  0  0  0  0  2  0  0  0  0  0  0
  192.0980  175.1290  146.0230 C   0  0  0  0  0  0  0  0  0  0  0  0
  193.3000  175.9890  145.8510 C   0  0  0  0  0  2  0  0  0  0  0  0
  194.5610  175.1840  146.1230 C   0  0  0  0  0  2  0  0  0  0  0  0
  195.6510  175.3970  145.0720 C   0  0  1  0  0  3  0  0  0  0  0  0
  194.8810  175.4220  142.6490 C   0  0  1  0  0  0  0  0  0  0  0  0
  195.7690  174.3260  142.5150 O   0  0  0  0  0  0  0  0  0  0  0  0
  196.3690  174.2250  144.7400 O   0  0  0  0  0  0  0  0  0  0  0  0
  195.6950  173.5640  143.6950 C   0  0  0  0  0  2  0  0  0  0  0  0
  193.5760  174.9730  142.7730 F   0  0  0  0  0  0  0  0  0  0  0  0
  195.2520  176.2710  143.8710 C   0  0  0  0  0  2  0  0  0  0  0  0
  196.0330  176.0160  140.5870 O   0  0  0  0  0  0  0  0  0  0  0  0
  194.7610  175.6020  140.1550 C   0  0  0  0  0  2  0  0  0  0  0  0
  194.9480  176.3450  141.4230 C   0  0  1  0  0  3  0  0  0  0  0  0
  1 17  1  6  0  0  0
  1 42  1  0  0  0  0
  2  7  1  6  0  0  0
  2  4  1  0  0  0  0
  4  3  1  0  0  0  0
  5  1  1  1  0  0  0
  5  2  1  0  0  0  0
  5  6  1  0  0  0  0
  6  4  1  0  0  0  0
  8 13  1  0  0  0  0
  9 13  2  0  0  0  0
 10  8  2  0  0  0  0
 11 12  2  0  0  0  0
 11 10  1  0  0  0  0
 12  9  1  0  0  0  0
 13  7  1  0  0  0  0
 14 11  1  0  0  0  0
 15 16  1  0  0  0  0
 16 14  1  0  0  0  0
 18 17  2  0  0  0  0
 19 17  1  0  0  0  0
 20 33  1  6  0  0  0
 20 30  1  0  0  0  0
 20 29  1  0  0  0  0
 21 28  1  6  0  0  0
 21 22  1  0  0  0  0
 23 22  1  0  0  0  0
 23 19  1  0  0  0  0
 24 25  1  0  0  0  0
 24 30  1  0  0  0  0
 25 27  1  0  0  0  0
 26 24  2  0  0  0  0
 27 23  1  0  0  0  0
 27 22  1  0  0  0  0
 29 28  1  0  0  0  0
 30 21  1  0  0  0  0
 31 33  2  0  0  0  0
 32 33  1  0  0  0  0
 34 36  1  0  0  0  0
 35 38  2  0  0  0  0
 36 32  1  0  0  0  0
 37 36  1  0  0  0  0
 38 34  1  0  0  0  0
 38 36  1  0  0  0  0
 39 41  1  0  0  0  0
 39 34  1  0  0  0  0
 41 40  2  0  0  0  0
 43 44  1  0  0  0  0
 43 42  1  0  0  0  0
 45 46  2  0  0  0  0
 46 44  1  0  0  0  0
 47 46  1  0  0  0  0
 47 48  1  0  0  0  0
 49 48  1  0  0  0  0
 50 54  1  0  0  0  0
 50 55  1  0  0  0  0
 51 50  1  0  0  0  0
 51 53  1  0  0  0  0
 52 49  1  0  0  0  0
 53 52  1  0  0  0  0
 55 49  1  0  0  0  0
 56 58  1  0  0  0  0
 57 56  1  0  0  0  0
 57 58  1  0  0  0  0
 58 50  1  0  0  0  0
M  END
>  <MODEL>
3

>  <REMARK>
 VINA RESULT:      -6.1      1.283      1.864
  Name = 
  19 active torsions:
  status: ('A' for Active; 'I' for Inactive)
    1  A    between atoms: N_1  and  N_6
    2  A    between atoms: N_1  and  C_57
    3  A    between atoms: C_2  and  C_46
    4  A    between atoms: C_3  and  C_5
    5  A    between atoms: C_3  and  C_22
    6  A    between atoms: N_6  and  O_56
    7  A    between atoms: C_7  and  C_38
    8  A    between atoms: C_9  and  C_51
    9  A    between atoms: C_14  and  C_35
   10  A    between atoms: C_17  and  N_54
   11  A    between atoms: C_22  and  C_57
   12  A    between atoms: C_27  and  C_43
   13  A    between atoms: C_28  and  C_43
   14  A    between atoms: C_30  and  N_42
   15  A    between atoms: C_32  and  C_35
   16  A    between atoms: C_37  and  C_39
   17  A    between atoms: C_37  and  O_45
   18  A    between atoms: C_38  and  C_49
   19  A    between atoms: C_43  and  O_56
                            x       y       z     vdW  Elec       q    Type
                         _______ _______ _______ _____ _____    ______ ____

>  <TORSDO>
F 19

$$$$
=
 OpenBabel11042413423D

 58 65  0  0  1  0  0  0  0  0999 V2000
  189.8410  175.8840  146.3310 C   0  0  2  0  0  3  0  0  0  0  0  0
  192.2190  176.1720  145.6150 C   0  0  1  0  0  3  0  0  0  0  0  0
  192.9530  174.3810  146.8580 N   0  0  0  0  0  1  0  0  0  0  0  0
  193.0010  175.7800  146.7820 N   0  0  0  0  0  0  0  0  0  0  0  0
  191.0940  176.7440  146.4560 C   0  0  2  0  0  3  0  0  0  0  0  0
  191.9310  176.2890  147.6320 C   0  0  0  0  0  2  0  0  0  0  0  0
  192.9180  177.2970  144.8670 C   0  0  0  0  0  2  0  0  0  0  0  0
  193.6480  176.2670  142.7080 C   0  0  0  0  0  3  0  0  0  0  0  0
  195.3160  176.7360  144.4040 C   0  0  0  0  0  3  0  0  0  0  0  0
  194.6410  175.7330  141.8800 C   0  0  0  0  0  3  0  0  0  0  0  0
  195.9720  175.6950  142.3160 C   0  0  0  0  0  0  0  0  0  0  0  0
  196.3080  176.2050  143.5730 C   0  0  0  0  0  3  0  0  0  0  0  0
  193.9830  176.7620  143.9730 C   0  0  0  0  0  0  0  0  0  0  0  0
  197.0290  175.1170  141.4380 C   0  0  0  0  0  2  0  0  0  0  0  0
  197.9410  175.1060  139.4300 C   0  0  0  0  0  1  0  0  0  0  0  0
  197.1760  175.8980  140.2890 O   0  0  0  0  0  0  0  0  0  0  0  0
  189.7230  175.3120  144.9530 C   0  0  0  0  0  0  0  0  0  0  0  0
  189.5250  176.0690  143.9620 O   0  0  0  0  0  0  0  0  0  0  0  0
  189.8240  173.9010  144.7750 N   0  0  0  0  0  2  0  0  0  0  0  0
  190.8260  172.7660  139.1170 C   0  0  2  0  0  3  0  0  0  0  0  0
  191.0110  173.5810  141.2760 C   0  0  1  0  0  3  0  0  0  0  0  0
  191.1380  173.4030  142.8080 C   0  0  1  0  0  3  0  0  0  0  0  0
  189.7750  173.2850  143.4610 C   0  0  1  0  0  3  0  0  0  0  0  0
  190.5220  171.1830  141.1170 C   0  0  0  0  0  0  0  0  0  0  0  0
  190.0770  171.0050  142.5230 C   0  0  0  0  0  2  0  0  0  0  0  0
  191.1260  170.2880  140.5450 O   0  0  0  0  0  0  0  0  0  0  0  0
  190.6900  172.0670  143.4420 C   0  0  1  0  0  3  0  0  0  0  0  0
  192.2850  173.7700  140.6980 O   0  0  0  0  0  0  0  0  0  0  0  0
  192.2420  173.2120  139.4020 C   0  0  0  0  0  2  0  0  0  0  0  0
  190.2490  172.5260  140.4910 C   0  0  2  0  0  3  0  0  0  0  0  0
  189.5300  171.3000  137.7540 O   0  0  0  0  0  0  0  0  0  0  0  0
  191.8390  170.9770  137.6070 N   0  0  0  0  0  2  0  0  0  0  0  0
  190.6840  171.6470  138.1260 C   0  0  0  0  0  0  0  0  0  0  0  0
  192.7120  169.8310  135.6200 C   0  0  2  0  0  3  0  0  0  0  0  0
  190.3900  170.5840  134.5130 O   0  0  0  0  0  0  0  0  0  0  0  0
  191.7470  169.8610  136.6790 C   0  0  1  0  0  0  0  0  0  0  0  0
  191.2430  168.6580  137.1780 O   0  0  0  0  0  1  0  0  0  0  0  0
  191.2590  170.2360  135.2920 C   0  0  0  0  0  0  0  0  0  0  0  0
  192.9740  168.4350  135.0730 C   0  0  0  0  0  2  0  0  0  0  0  0
  195.2420  169.0670  135.2370 O   0  0  0  0  0  0  0  0  0  0  0  0
  194.4400  168.1990  134.9290 C   0  0  0  0  0  3  0  0  0  0  0  0
  188.7100  176.6490  146.6290 O   0  0  0  0  0  0  0  0  0  0  0  0
  187.7640  175.7480  146.9930 N   0  0  0  0  0  2  0  0  0  0  0  0
  186.8680  176.4150  147.8400 N   0  0  0  0  0  2  0  0  0  0  0  0
  186.2970  178.7540  147.7340 C   0  0  0  0  0  2  0  0  0  0  0  0
  186.0420  177.4930  147.3850 C   0  0  0  0  0  0  0  0  0  0  0  0
  184.8550  177.1980  146.5370 C   0  0  0  0  0  2  0  0  0  0  0  0
  184.2080  178.4950  146.0750 C   0  0  0  0  0  2  0  0  0  0  0  0
  184.1380  178.6250  144.5530 C   0  0  1  0  0  3  0  0  0  0  0  0
  186.2660  178.0590  143.2810 C   0  0  1  0  0  0  0  0  0  0  0  0
  186.1660  179.3970  142.8240 O   0  0  0  0  0  0  0  0  0  0  0  0
  184.3100  179.9460  144.0780 O   0  0  0  0  0  0  0  0  0  0  0  0
  185.6840  180.1820  143.8880 C   0  0  0  0  0  2  0  0  0  0  0  0
  187.1850  177.9690  144.3150 F   0  0  0  0  0  0  0  0  0  0  0  0
  184.9010  177.5500  143.7600 C   0  0  0  0  0  2  0  0  0  0  0  0
  186.5180  177.6940  140.8860 O   0  0  0  0  0  0  0  0  0  0  0  0
  187.8390  177.7010  141.3670 C   0  0  0  0  0  2  0  0  0  0  0  0
  186.7270  177.1210  142.1560 C   0  0  1  0  0  3  0  0  0  0  0  0
  1 17  1  6  0  0  0
  1 42  1  0  0  0  0
  2  7  1  6  0  0  0
  2  5  1  0  0  0  0
  2  4  1  0  0  0  0
  4  3  1  0  0  0  0
  4  6  1  0  0  0  0
  5  1  1  6  0  0  0
  5  6  1  0  0  0  0
  8 13  1  0  0  0  0
 10 11  1  0  0  0  0
 10  8  2  0  0  0  0
 11 12  2  0  0  0  0
 12  9  1  0  0  0  0
 13  9  2  0  0  0  0
 13  7  1  0  0  0  0
 14 11  1  0  0  0  0
 15 16  1  0  0  0  0
 16 14  1  0  0  0  0
 18 17  2  0  0  0  0
 19 17  1  0  0  0  0
 20 33  1  6  0  0  0
 20 29  1  0  0  0  0
 20 30  1  0  0  0  0
 21 28  1  6  0  0  0
 21 22  1  0  0  0  0
 22 27  1  0  0  0  0
 22 23  1  0  0  0  0
 23 19  1  0  0  0  0
 24 25  1  0  0  0  0
 25 27  1  0  0  0  0
 26 24  2  0  0  0  0
 27 23  1  0  0  0  0
 29 28  1  0  0  0  0
 30 24  1  0  0  0  0
 30 21  1  0  0  0  0
 31 33  2  0  0  0  0
 32 33  1  0  0  0  0
 34 36  1  0  0  0  0
 35 38  2  0  0  0  0
 36 37  1  0  0  0  0
 36 32  1  0  0  0  0
 38 34  1  0  0  0  0
 38 36  1  0  0  0  0
 39 34  1  0  0  0  0
 41 39  1  0  0  0  0
 41 40  2  0  0  0  0
 42 43  1  0  0  0  0
 43 44  1  0  0  0  0
 46 45  2  0  0  0  0
 46 44  1  0  0  0  0
 47 46  1  0  0  0  0
 48 47  1  0  0  0  0
 49 48  1  0  0  0  0
 50 55  1  0  0  0  0
 50 54  1  0  0  0  0
 51 50  1  0  0  0  0
 51 53  1  0  0  0  0
 52 49  1  0  0  0  0
 53 52  1  0  0  0  0
 55 49  1  0  0  0  0
 56 57  1  0  0  0  0
 56 58  1  0  0  0  0
 57 58  1  0  0  0  0
 58 50  1  0  0  0  0
M  END
>  <MODEL>
4

>  <REMARK>
 VINA RESULT:      -6.0      2.326      6.817
  Name = 
  19 active torsions:
  status: ('A' for Active; 'I' for Inactive)
    1  A    between atoms: N_1  and  N_6
    2  A    between atoms: N_1  and  C_57
    3  A    between atoms: C_2  and  C_46
    4  A    between atoms: C_3  and  C_5
    5  A    between atoms: C_3  and  C_22
    6  A    between atoms: N_6  and  O_56
    7  A    between atoms: C_7  and  C_38
    8  A    between atoms: C_9  and  C_51
    9  A    between atoms: C_14  and  C_35
   10  A    between atoms: C_17  and  N_54
   11  A    between atoms: C_22  and  C_57
   12  A    between atoms: C_27  and  C_43
   13  A    between atoms: C_28  and  C_43
   14  A    between atoms: C_30  and  N_42
   15  A    between atoms: C_32  and  C_35
   16  A    between atoms: C_37  and  C_39
   17  A    between atoms: C_37  and  O_45
   18  A    between atoms: C_38  and  C_49
   19  A    between atoms: C_43  and  O_56
                            x       y       z     vdW  Elec       q    Type
                         _______ _______ _______ _____ _____    ______ ____

>  <TORSDO>
F 19

$$$$
=
 OpenBabel11042413423D

 58 65  0  0  1  0  0  0  0  0999 V2000
  186.1280  177.3050  140.5990 C   0  0  2  0  0  3  0  0  0  0  0  0
  184.4280  178.0790  142.2600 C   0  0  1  0  0  3  0  0  0  0  0  0
  182.6530  177.5410  140.9000 N   0  0  0  0  0  1  0  0  0  0  0  0
  183.3480  178.6280  141.4480 N   0  0  0  0  0  0  0  0  0  0  0  0
  185.5000  178.5160  141.2810 C   0  0  2  0  0  3  0  0  0  0  0  0
  184.3400  179.0400  140.4620 C   0  0  0  0  0  2  0  0  0  0  0  0
  184.5670  178.8690  143.5530 C   0  0  0  0  0  2  0  0  0  0  0  0
  184.8450  177.4460  145.5910 C   0  0  0  0  0  3  0  0  0  0  0  0
  186.8230  178.1800  144.3970 C   0  0  0  0  0  3  0  0  0  0  0  0
  185.6540  176.7930  146.5280 C   0  0  0  0  0  3  0  0  0  0  0  0
  187.0480  176.8400  146.4030 C   0  0  0  0  0  0  0  0  0  0  0  0
  187.6300  177.5250  145.3330 C   0  0  0  0  0  3  0  0  0  0  0  0
  185.4290  178.1460  144.5300 C   0  0  0  0  0  0  0  0  0  0  0  0
  187.9110  176.1530  147.4070 C   0  0  0  0  0  2  0  0  0  0  0  0
  189.7300  174.9160  147.2530 C   0  0  0  0  0  1  0  0  0  0  0  0
  189.2470  176.2020  147.0020 O   0  0  0  0  0  0  0  0  0  0  0  0
  187.4400  176.9580  141.2320 C   0  0  0  0  0  0  0  0  0  0  0  0
  188.3670  177.8130  141.2890 O   0  0  0  0  0  0  0  0  0  0  0  0
  187.6320  175.6470  141.7580 N   0  0  0  0  0  2  0  0  0  0  0  0
  191.5980  172.5540  144.7590 C   0  0  2  0  0  3  0  0  0  0  0  0
  189.7470  173.1500  143.5020 C   0  0  1  0  0  3  0  0  0  0  0  0
  189.0730  173.7710  142.2560 C   0  0  1  0  0  3  0  0  0  0  0  0
  188.8580  175.2610  142.4340 C   0  0  1  0  0  3  0  0  0  0  0  0
  191.8680  174.1140  142.7360 C   0  0  0  0  0  0  0  0  0  0  0  0
  191.2760  175.1680  141.8740 C   0  0  0  0  0  2  0  0  0  0  0  0
  192.9140  173.5710  142.4130 O   0  0  0  0  0  0  0  0  0  0  0  0
  189.8710  174.7810  141.4020 C   0  0  1  0  0  3  0  0  0  0  0  0
  189.8640  171.7510  143.3500 O   0  0  0  0  0  0  0  0  0  0  0  0
  191.0310  171.3530  144.0380 C   0  0  0  0  0  2  0  0  0  0  0  0
  191.0790  173.7240  143.9590 C   0  0  2  0  0  3  0  0  0  0  0  0
  193.6250  173.5070  145.5790 O   0  0  0  0  0  0  0  0  0  0  0  0
  193.8630  171.3890  144.6230 N   0  0  0  0  0  2  0  0  0  0  0  0
  193.0780  172.5210  145.0140 C   0  0  0  0  0  0  0  0  0  0  0  0
  196.0990  172.0670  143.8720 C   0  0  2  0  0  3  0  0  0  0  0  0
  196.3600  169.4790  143.2300 O   0  0  0  0  0  0  0  0  0  0  0  0
  195.3050  171.3320  144.8110 C   0  0  1  0  0  0  0  0  0  0  0  0
  195.7700  171.1660  146.1170 O   0  0  0  0  0  1  0  0  0  0  0  0
  196.0440  170.5280  143.7580 C   0  0  0  0  0  0  0  0  0  0  0  0
  197.4600  172.4770  144.4150 C   0  0  0  0  0  2  0  0  0  0  0  0
  196.8550  174.5410  145.3880 O   0  0  0  0  0  0  0  0  0  0  0  0
  197.5380  173.9610  144.5590 C   0  0  0  0  0  3  0  0  0  0  0  0
  186.3100  177.5690  139.2380 O   0  0  0  0  0  0  0  0  0  0  0  0
  186.1690  176.3670  138.6270 N   0  0  0  0  0  2  0  0  0  0  0  0
  186.9380  176.4110  137.4560 N   0  0  0  0  0  2  0  0  0  0  0  0
  188.3050  175.2790  135.8240 C   0  0  0  0  0  2  0  0  0  0  0  0
  187.7710  175.3200  137.0450 C   0  0  0  0  0  0  0  0  0  0  0  0
  188.0150  174.1920  137.9840 C   0  0  0  0  0  2  0  0  0  0  0  0
  189.4580  173.7230  137.8720 C   0  0  0  0  0  2  0  0  0  0  0  0
  189.6100  172.2050  137.9910 C   0  0  1  0  0  3  0  0  0  0  0  0
  191.5720  171.3810  139.3820 C   0  0  1  0  0  0  0  0  0  0  0  0
  191.9640  170.7490  138.1760 O   0  0  0  0  0  0  0  0  0  0  0  0
  190.2530  171.6010  136.8860 O   0  0  0  0  0  0  0  0  0  0  0  0
  191.6420  171.6110  137.1120 C   0  0  0  0  0  2  0  0  0  0  0  0
  192.2870  172.5550  139.5660 F   0  0  0  0  0  0  0  0  0  0  0  0
  190.0700  171.6910  139.3650 C   0  0  0  0  0  2  0  0  0  0  0  0
  190.8170  169.5090  140.7450 O   0  0  0  0  0  0  0  0  0  0  0  0
  192.0340  169.0620  140.2010 C   0  0  0  0  0  2  0  0  0  0  0  0
  191.8310  170.4750  140.5950 C   0  0  1  0  0  3  0  0  0  0  0  0
  1 42  1  6  0  0  0
  1 17  1  0  0  0  0
  2  7  1  1  0  0  0
  3  4  1  0  0  0  0
  4  2  1  0  0  0  0
  5  1  1  6  0  0  0
  5  2  1  0  0  0  0
  6  5  1  0  0  0  0
  6  4  1  0  0  0  0
  7 13  1  0  0  0  0
  8 10  1  0  0  0  0
  9 13  1  0  0  0  0
  9 12  2  0  0  0  0
 11 10  2  0  0  0  0
 11 14  1  0  0  0  0
 12 11  1  0  0  0  0
 13  8  2  0  0  0  0
 16 15  1  0  0  0  0
 16 14  1  0  0  0  0
 17 18  2  0  0  0  0
 17 19  1  0  0  0  0
 19 23  1  0  0  0  0
 20 33  1  6  0  0  0
 21 28  1  6  0  0  0
 21 30  1  0  0  0  0
 22 23  1  0  0  0  0
 22 21  1  0  0  0  0
 24 30  1  0  0  0  0
 25 24  1  0  0  0  0
 26 24  2  0  0  0  0
 27 25  1  0  0  0  0
 27 22  1  0  0  0  0
 27 23  1  0  0  0  0
 28 29  1  0  0  0  0
 29 20  1  0  0  0  0
 30 20  1  0  0  0  0
 32 36  1  0  0  0  0
 32 33  1  0  0  0  0
 33 31  2  0  0  0  0
 34 39  1  0  0  0  0
 34 36  1  0  0  0  0
 35 38  2  0  0  0  0
 36 37  1  0  0  0  0
 38 34  1  0  0  0  0
 38 36  1  0  0  0  0
 39 41  1  0  0  0  0
 41 40  2  0  0  0  0
 43 42  1  0  0  0  0
 44 43  1  0  0  0  0
 45 46  2  0  0  0  0
 46 44  1  0  0  0  0
 46 47  1  0  0  0  0
 48 47  1  0  0  0  0
 48 49  1  0  0  0  0
 49 55  1  0  0  0  0
 50 54  1  0  0  0  0
 50 58  1  0  0  0  0
 51 50  1  0  0  0  0
 52 53  1  0  0  0  0
 52 49  1  0  0  0  0
 53 51  1  0  0  0  0
 55 50  1  0  0  0  0
 57 58  1  0  0  0  0
 57 56  1  0  0  0  0
 58 56  1  0  0  0  0
M  END
>  <MODEL>
5

>  <REMARK>
 VINA RESULT:      -6.0      3.062      7.082
  Name = 
  19 active torsions:
  status: ('A' for Active; 'I' for Inactive)
    1  A    between atoms: N_1  and  N_6
    2  A    between atoms: N_1  and  C_57
    3  A    between atoms: C_2  and  C_46
    4  A    between atoms: C_3  and  C_5
    5  A    between atoms: C_3  and  C_22
    6  A    between atoms: N_6  and  O_56
    7  A    between atoms: C_7  and  C_38
    8  A    between atoms: C_9  and  C_51
    9  A    between atoms: C_14  and  C_35
   10  A    between atoms: C_17  and  N_54
   11  A    between atoms: C_22  and  C_57
   12  A    between atoms: C_27  and  C_43
   13  A    between atoms: C_28  and  C_43
   14  A    between atoms: C_30  and  N_42
   15  A    between atoms: C_32  and  C_35
   16  A    between atoms: C_37  and  C_39
   17  A    between atoms: C_37  and  O_45
   18  A    between atoms: C_38  and  C_49
   19  A    between atoms: C_43  and  O_56
                            x       y       z     vdW  Elec       q    Type
                         _______ _______ _______ _____ _____    ______ ____

>  <TORSDO>
F 19

$$$$
=
 OpenBabel11042413423D

 58 65  0  0  1  0  0  0  0  0999 V2000
  194.0610  170.6560  139.9760 C   0  0  2  0  0  3  0  0  0  0  0  0
  194.2730  170.9610  137.5040 C   0  0  1  0  0  3  0  0  0  0  0  0
  196.2360  169.7680  137.3870 N   0  0  0  0  0  1  0  0  0  0  0  0
  195.7090  171.0620  137.2700 N   0  0  0  0  0  0  0  0  0  0  0  0
  194.3580  171.6450  138.8540 C   0  0  2  0  0  3  0  0  0  0  0  0
  195.8450  171.6960  138.5770 C   0  0  0  0  0  2  0  0  0  0  0  0
  193.5180  171.8520  136.5280 C   0  0  0  0  0  2  0  0  0  0  0  0
  191.8820  173.4790  137.4950 C   0  0  0  0  0  3  0  0  0  0  0  0
  191.1710  171.1940  137.1090 C   0  0  0  0  0  3  0  0  0  0  0  0
  190.6190  173.7840  138.0140 C   0  0  0  0  0  3  0  0  0  0  0  0
  189.6340  172.7920  138.0870 C   0  0  0  0  0  0  0  0  0  0  0  0
  189.9080  171.5010  137.6250 C   0  0  0  0  0  3  0  0  0  0  0  0
  192.1610  172.1830  137.0490 C   0  0  0  0  0  0  0  0  0  0  0  0
  188.2910  173.1130  138.6500 C   0  0  0  0  0  2  0  0  0  0  0  0
  187.6400  174.8830  137.5070 C   0  0  0  0  0  1  0  0  0  0  0  0
  188.1340  174.4970  138.7540 O   0  0  0  0  0  0  0  0  0  0  0  0
  192.9720  171.1710  140.8640 C   0  0  0  0  0  0  0  0  0  0  0  0
  192.0040  170.4250  141.1860 O   0  0  0  0  0  0  0  0  0  0  0  0
  193.0340  172.5160  141.3310 N   0  0  0  0  0  2  0  0  0  0  0  0
  190.0810  176.2150  144.7810 C   0  0  2  0  0  3  0  0  0  0  0  0
  191.5160  175.3460  143.1860 C   0  0  1  0  0  3  0  0  0  0  0  0
  191.8210  174.5260  141.9110 C   0  0  1  0  0  3  0  0  0  0  0  0
  192.0410  173.0620  142.2400 C   0  0  1  0  0  3  0  0  0  0  0  0
  189.2460  174.4190  143.1460 C   0  0  0  0  0  0  0  0  0  0  0  0
  189.5640  173.2250  142.3210 C   0  0  0  0  0  2  0  0  0  0  0  0
  188.1650  174.9760  143.0300 O   0  0  0  0  0  0  0  0  0  0  0  0
  190.8020  173.4610  141.4490 C   0  0  1  0  0  3  0  0  0  0  0  0
  191.3950  176.7170  142.8690 O   0  0  0  0  0  0  0  0  0  0  0  0
  190.4630  177.2730  143.7720 C   0  0  0  0  0  2  0  0  0  0  0  0
  190.3410  174.9200  144.0510 C   0  0  2  0  0  3  0  0  0  0  0  0
  188.3710  175.5720  146.3140 O   0  0  0  0  0  0  0  0  0  0  0  0
  187.8360  177.4110  144.9750 N   0  0  0  0  0  2  0  0  0  0  0  0
  188.7230  176.3720  145.4050 C   0  0  0  0  0  0  0  0  0  0  0  0
  185.9310  178.8870  145.4410 C   0  0  2  0  0  3  0  0  0  0  0  0
  186.6280  178.5110  148.0020 O   0  0  0  0  0  0  0  0  0  0  0  0
  186.4970  177.5730  145.5210 C   0  0  1  0  0  0  0  0  0  0  0  0
  185.6520  176.4610  145.4750 O   0  0  0  0  0  1  0  0  0  0  0  0
  186.4360  178.3740  146.8080 C   0  0  0  0  0  0  0  0  0  0  0  0
  184.4090  178.8960  145.4460 C   0  0  0  0  0  2  0  0  0  0  0  0
  184.4870  178.6820  143.0960 O   0  0  0  0  0  0  0  0  0  0  0  0
  183.8860  179.1180  144.0660 C   0  0  0  0  0  3  0  0  0  0  0  0
  195.2190  170.4260  140.7240 O   0  0  0  0  0  0  0  0  0  0  0  0
  195.0430  169.1990  141.2750 N   0  0  0  0  0  2  0  0  0  0  0  0
  196.1540  168.9530  142.0920 N   0  0  0  0  0  2  0  0  0  0  0  0
  197.6190  170.1410  143.5930 C   0  0  0  0  0  2  0  0  0  0  0  0
  196.4000  169.6940  143.2940 C   0  0  0  0  0  0  0  0  0  0  0  0
  195.2820  169.9360  144.2450 C   0  0  0  0  0  2  0  0  0  0  0  0
  194.8120  171.3790  144.1410 C   0  0  0  0  0  2  0  0  0  0  0  0
  194.8440  172.1220  145.4780 C   0  0  1  0  0  3  0  0  0  0  0  0
  194.5580  174.6460  145.3640 C   0  0  1  0  0  0  0  0  0  0  0  0
  195.8350  174.6650  145.9780 O   0  0  0  0  0  0  0  0  0  0  0  0
  196.1470  172.3800  145.9640 O   0  0  0  0  0  0  0  0  0  0  0  0
  196.5900  173.6080  145.4370 C   0  0  0  0  0  2  0  0  0  0  0  0
  194.6750  174.8720  144.0010 F   0  0  0  0  0  0  0  0  0  0  0  0
  193.8640  173.3000  145.6050 C   0  0  0  0  0  2  0  0  0  0  0  0
  194.3580  176.6110  146.7880 O   0  0  0  0  0  0  0  0  0  0  0  0
  194.0430  177.0910  145.5050 C   0  0  0  0  0  2  0  0  0  0  0  0
  193.6450  175.7350  145.9470 C   0  0  1  0  0  3  0  0  0  0  0  0
  1 42  1  1  0  0  0
  1 17  1  0  0  0  0
  2  7  1  6  0  0  0
  2  5  1  0  0  0  0
  4  3  1  0  0  0  0
  4  2  1  0  0  0  0
  4  6  1  0  0  0  0
  5  1  1  1  0  0  0
  6  5  1  0  0  0  0
  7 13  1  0  0  0  0
  8 10  1  0  0  0  0
  9 12  2  0  0  0  0
 10 11  2  0  0  0  0
 11 14  1  0  0  0  0
 12 11  1  0  0  0  0
 13  9  1  0  0  0  0
 13  8  2  0  0  0  0
 14 16  1  0  0  0  0
 15 16  1  0  0  0  0
 17 18  2  0  0  0  0
 17 19  1  0  0  0  0
 19 23  1  0  0  0  0
 20 33  1  6  0  0  0
 21 28  1  6  0  0  0
 21 30  1  0  0  0  0
 22 23  1  0  0  0  0
 22 21  1  0  0  0  0
 24 30  1  0  0  0  0
 25 24  1  0  0  0  0
 26 24  2  0  0  0  0
 27 22  1  0  0  0  0
 27 23  1  0  0  0  0
 27 25  1  0  0  0  0
 28 29  1  0  0  0  0
 29 20  1  0  0  0  0
 30 20  1  0  0  0  0
 32 33  1  0  0  0  0
 32 36  1  0  0  0  0
 33 31  2  0  0  0  0
 34 39  1  0  0  0  0
 34 36  1  0  0  0  0
 34 38  1  0  0  0  0
 36 38  1  0  0  0  0
 37 36  1  0  0  0  0
 38 35  2  0  0  0  0
 40 41  2  0  0  0  0
 41 39  1  0  0  0  0
 42 43  1  0  0  0  0
 43 44  1  0  0  0  0
 44 46  1  0  0  0  0
 46 45  2  0  0  0  0
 46 47  1  0  0  0  0
 48 47  1  0  0  0  0
 48 49  1  0  0  0  0
 49 55  1  0  0  0  0
 49 52  1  0  0  0  0
 50 55  1  0  0  0  0
 50 58  1  0  0  0  0
 50 51  1  0  0  0  0
 53 52  1  0  0  0  0
 53 51  1  0  0  0  0
 54 50  1  0  0  0  0
 57 58  1  0  0  0  0
 57 56  1  0  0  0  0
 58 56  1  0  0  0  0
M  END
>  <MODEL>
6

>  <REMARK>
 VINA RESULT:      -5.9      2.874      9.069
  Name = 
  19 active torsions:
  status: ('A' for Active; 'I' for Inactive)
    1  A    between atoms: N_1  and  N_6
    2  A    between atoms: N_1  and  C_57
    3  A    between atoms: C_2  and  C_46
    4  A    between atoms: C_3  and  C_5
    5  A    between atoms: C_3  and  C_22
    6  A    between atoms: N_6  and  O_56
    7  A    between atoms: C_7  and  C_38
    8  A    between atoms: C_9  and  C_51
    9  A    between atoms: C_14  and  C_35
   10  A    between atoms: C_17  and  N_54
   11  A    between atoms: C_22  and  C_57
   12  A    between atoms: C_27  and  C_43
   13  A    between atoms: C_28  and  C_43
   14  A    between atoms: C_30  and  N_42
   15  A    between atoms: C_32  and  C_35
   16  A    between atoms: C_37  and  C_39
   17  A    between atoms: C_37  and  O_45
   18  A    between atoms: C_38  and  C_49
   19  A    between atoms: C_43  and  O_56
                            x       y       z     vdW  Elec       q    Type
                         _______ _______ _______ _____ _____    ______ ____

>  <TORSDO>
F 19

$$$$
=
 OpenBabel11042413423D

 58 65  0  0  1  0  0  0  0  0999 V2000
  187.7870  176.9170  145.4830 C   0  0  2  0  0  3  0  0  0  0  0  0
  186.0060  178.6360  145.8340 C   0  0  1  0  0  3  0  0  0  0  0  0
  185.7210  178.0860  148.0490 N   0  0  0  0  0  1  0  0  0  0  0  0
  185.0950  178.0260  146.7960 N   0  0  0  0  0  0  0  0  0  0  0  0
  186.3440  177.3080  145.1840 C   0  0  2  0  0  3  0  0  0  0  0  0
  185.4130  176.7220  146.2240 C   0  0  0  0  0  2  0  0  0  0  0  0
  185.2300  179.5010  144.8510 C   0  0  0  0  0  2  0  0  0  0  0  0
  186.5670  179.0600  142.7830 C   0  0  0  0  0  3  0  0  0  0  0  0
  184.2370  178.3930  142.8350 C   0  0  0  0  0  3  0  0  0  0  0  0
  186.6710  178.5910  141.4690 C   0  0  0  0  0  3  0  0  0  0  0  0
  185.5570  178.0290  140.8350 C   0  0  0  0  0  0  0  0  0  0  0  0
  184.3440  177.9220  141.5230 C   0  0  0  0  0  3  0  0  0  0  0  0
  185.3490  178.9690  143.4640 C   0  0  0  0  0  0  0  0  0  0  0  0
  185.6640  177.5370  139.4320 C   0  0  0  0  0  2  0  0  0  0  0  0
  186.6910  176.2270  137.9850 C   0  0  0  0  0  1  0  0  0  0  0  0
  186.7190  176.6290  139.3220 O   0  0  0  0  0  0  0  0  0  0  0  0
  188.4970  176.5060  144.2310 C   0  0  0  0  0  0  0  0  0  0  0  0
  189.3880  177.2470  143.7290 O   0  0  0  0  0  0  0  0  0  0  0  0
  188.1450  175.2740  143.6060 N   0  0  0  0  0  2  0  0  0  0  0  0
  191.8900  172.4270  140.1160 C   0  0  2  0  0  3  0  0  0  0  0  0
  190.6350  173.0810  141.9480 C   0  0  1  0  0  3  0  0  0  0  0  0
  189.2960  173.3650  142.6680 C   0  0  1  0  0  3  0  0  0  0  0  0
  188.8320  174.7880  142.4220 C   0  0  1  0  0  3  0  0  0  0  0  0
  189.3790  172.9030  139.8490 C   0  0  0  0  0  0  0  0  0  0  0  0
  188.1930  173.6790  140.2920 C   0  0  0  0  0  2  0  0  0  0  0  0
  189.2460  171.9600  139.0840 O   0  0  0  0  0  0  0  0  0  0  0  0
  188.0360  173.6390  141.8160 C   0  0  1  0  0  3  0  0  0  0  0  0
  191.0900  171.7800  142.2550 O   0  0  0  0  0  0  0  0  0  0  0  0
  191.7960  171.3080  141.1280 C   0  0  0  0  0  2  0  0  0  0  0  0
  190.7050  173.3010  140.4450 C   0  0  2  0  0  3  0  0  0  0  0  0
  192.0770  170.7660  138.4140 O   0  0  0  0  0  0  0  0  0  0  0  0
  192.1030  172.9680  137.6320 N   0  0  0  0  0  2  0  0  0  0  0  0
  192.0270  171.9970  138.6830 C   0  0  0  0  0  0  0  0  0  0  0  0
  193.5640  172.0780  135.8730 C   0  0  2  0  0  3  0  0  0  0  0  0
  193.4530  174.5760  134.9090 O   0  0  0  0  0  0  0  0  0  0  0  0
  192.2790  172.5980  136.2360 C   0  0  1  0  0  0  0  0  0  0  0  0
  191.1460  172.1650  135.5440 O   0  0  0  0  0  1  0  0  0  0  0  0
  193.1980  173.5190  135.4540 C   0  0  0  0  0  0  0  0  0  0  0  0
  193.5330  171.1810  134.6440 C   0  0  0  0  0  2  0  0  0  0  0  0
  194.6260  169.5820  135.9930 O   0  0  0  0  0  0  0  0  0  0  0  0
  194.3770  169.9700  134.8620 C   0  0  0  0  0  3  0  0  0  0  0  0
  187.8120  175.8720  146.4120 O   0  0  0  0  0  0  0  0  0  0  0  0
  189.1280  175.5960  146.5920 N   0  0  0  0  0  2  0  0  0  0  0  0
  189.6590  176.6270  147.3800 N   0  0  0  0  0  2  0  0  0  0  0  0
  191.5670  177.1780  148.7450 C   0  0  0  0  0  2  0  0  0  0  0  0
  191.0680  176.7980  147.5690 C   0  0  0  0  0  0  0  0  0  0  0  0
  191.9920  176.5830  146.4220 C   0  0  0  0  0  2  0  0  0  0  0  0
  192.7500  175.2760  146.6010 C   0  0  0  0  0  2  0  0  0  0  0  0
  193.0770  174.5820  145.2780 C   0  0  1  0  0  3  0  0  0  0  0  0
  195.4180  173.6120  145.0690 C   0  0  1  0  0  0  0  0  0  0  0  0
  195.5210  174.4980  143.9680 O   0  0  0  0  0  0  0  0  0  0  0  0
  193.4450  175.4670  144.2370 O   0  0  0  0  0  0  0  0  0  0  0  0
  194.8350  175.6810  144.2990 C   0  0  0  0  0  2  0  0  0  0  0  0
  196.0380  174.1550  146.1840 F   0  0  0  0  0  0  0  0  0  0  0  0
  193.9470  173.3190  145.3890 C   0  0  0  0  0  2  0  0  0  0  0  0
  196.9400  172.3530  143.6440 O   0  0  0  0  0  0  0  0  0  0  0  0
  197.5630  172.3330  144.9050 C   0  0  0  0  0  2  0  0  0  0  0  0
  196.0900  172.2650  144.7630 C   0  0  1  0  0  3  0  0  0  0  0  0
  1 17  1  6  0  0  0
  1 42  1  0  0  0  0
  2  7  1  6  0  0  0
  2  4  1  0  0  0  0
  4  3  1  0  0  0  0
  5  1  1  1  0  0  0
  5  2  1  0  0  0  0
  5  6  1  0  0  0  0
  6  4  1  0  0  0  0
  8 13  1  0  0  0  0
  9 13  2  0  0  0  0
 10  8  2  0  0  0  0
 11 10  1  0  0  0  0
 11 12  2  0  0  0  0
 12  9  1  0  0  0  0
 13  7  1  0  0  0  0
 14 11  1  0  0  0  0
 15 16  1  0  0  0  0
 16 14  1  0  0  0  0
 18 17  2  0  0  0  0
 19 17  1  0  0  0  0
 20 33  1  6  0  0  0
 20 30  1  0  0  0  0
 20 29  1  0  0  0  0
 21 28  1  6  0  0  0
 21 22  1  0  0  0  0
 23 22  1  0  0  0  0
 23 19  1  0  0  0  0
 24 25  1  0  0  0  0
 24 30  1  0  0  0  0
 25 27  1  0  0  0  0
 26 24  2  0  0  0  0
 27 23  1  0  0  0  0
 27 22  1  0  0  0  0
 29 28  1  0  0  0  0
 30 21  1  0  0  0  0
 31 33  2  0  0  0  0
 32 33  1  0  0  0  0
 34 36  1  0  0  0  0
 35 38  2  0  0  0  0
 36 32  1  0  0  0  0
 37 36  1  0  0  0  0
 38 34  1  0  0  0  0
 38 36  1  0  0  0  0
 39 41  1  0  0  0  0
 39 34  1  0  0  0  0
 41 40  2  0  0  0  0
 42 43  1  0  0  0  0
 43 44  1  0  0  0  0
 44 46  1  0  0  0  0
 46 45  2  0  0  0  0
 47 48  1  0  0  0  0
 47 46  1  0  0  0  0
 49 55  1  0  0  0  0
 49 48  1  0  0  0  0
 50 55  1  0  0  0  0
 50 54  1  0  0  0  0
 51 53  1  0  0  0  0
 51 50  1  0  0  0  0
 52 53  1  0  0  0  0
 52 49  1  0  0  0  0
 56 58  1  0  0  0  0
 56 57  1  0  0  0  0
 58 57  1  0  0  0  0
 58 50  1  0  0  0  0
M  END
>  <MODEL>
7

>  <REMARK>
 VINA RESULT:      -5.9      1.825      2.581
  Name = 
  19 active torsions:
  status: ('A' for Active; 'I' for Inactive)
    1  A    between atoms: N_1  and  N_6
    2  A    between atoms: N_1  and  C_57
    3  A    between atoms: C_2  and  C_46
    4  A    between atoms: C_3  and  C_5
    5  A    between atoms: C_3  and  C_22
    6  A    between atoms: N_6  and  O_56
    7  A    between atoms: C_7  and  C_38
    8  A    between atoms: C_9  and  C_51
    9  A    between atoms: C_14  and  C_35
   10  A    between atoms: C_17  and  N_54
   11  A    between atoms: C_22  and  C_57
   12  A    between atoms: C_27  and  C_43
   13  A    between atoms: C_28  and  C_43
   14  A    between atoms: C_30  and  N_42
   15  A    between atoms: C_32  and  C_35
   16  A    between atoms: C_37  and  C_39
   17  A    between atoms: C_37  and  O_45
   18  A    between atoms: C_38  and  C_49
   19  A    between atoms: C_43  and  O_56
                            x       y       z     vdW  Elec       q    Type
                         _______ _______ _______ _____ _____    ______ ____

>  <TORSDO>
F 19

$$$$
=
 OpenBabel11042413423D

 58 65  0  0  1  0  0  0  0  0999 V2000
  193.5010  169.9050  141.7420 C   0  0  2  0  0  3  0  0  0  0  0  0
  192.5960  170.9600  139.6650 C   0  0  1  0  0  3  0  0  0  0  0  0
  191.0640  169.2810  139.3150 N   0  0  0  0  0  1  0  0  0  0  0  0
  192.2470  169.8350  138.8060 N   0  0  0  0  0  0  0  0  0  0  0  0
  193.7770  170.2350  140.2790 C   0  0  2  0  0  3  0  0  0  0  0  0
  193.3530  169.0850  139.3900 C   0  0  0  0  0  2  0  0  0  0  0  0
  193.0960  172.1260  138.8240 C   0  0  0  0  0  2  0  0  0  0  0  0
  192.0830  173.0680  136.7390 C   0  0  0  0  0  3  0  0  0  0  0  0
  190.8040  173.1390  138.7980 C   0  0  0  0  0  3  0  0  0  0  0  0
  191.0400  173.7160  136.0690 C   0  0  0  0  0  3  0  0  0  0  0  0
  189.8810  174.0820  136.7650 C   0  0  0  0  0  0  0  0  0  0  0  0
  189.7610  173.7850  138.1260 C   0  0  0  0  0  3  0  0  0  0  0  0
  191.9690  172.7860  138.1050 C   0  0  0  0  0  0  0  0  0  0  0  0
  188.7730  174.7830  136.0540 C   0  0  0  0  0  2  0  0  0  0  0  0
  187.0500  176.1450  136.2560 C   0  0  0  0  0  1  0  0  0  0  0  0
  187.8190  175.2250  136.9730 O   0  0  0  0  0  0  0  0  0  0  0  0
  192.4050  170.7690  142.2850 C   0  0  0  0  0  0  0  0  0  0  0  0
  191.2780  170.2710  142.5630 O   0  0  0  0  0  0  0  0  0  0  0  0
  192.6460  172.1620  142.4690 N   0  0  0  0  0  2  0  0  0  0  0  0
  189.8250  176.9910  144.2090 C   0  0  2  0  0  3  0  0  0  0  0  0
  191.2840  175.5450  143.1410 C   0  0  1  0  0  3  0  0  0  0  0  0
  191.6020  174.3300  142.2380 C   0  0  1  0  0  3  0  0  0  0  0  0
  191.6460  173.0460  143.0430 C   0  0  1  0  0  3  0  0  0  0  0  0
  188.9420  174.8190  143.1620 C   0  0  0  0  0  0  0  0  0  0  0  0
  189.1990  173.4010  142.8040 C   0  0  0  0  0  2  0  0  0  0  0  0
  187.9350  175.3820  142.7580 O   0  0  0  0  0  0  0  0  0  0  0  0
  190.5180  173.2470  142.0390 C   0  0  1  0  0  3  0  0  0  0  0  0
  191.3270  176.7390  142.3880 O   0  0  0  0  0  0  0  0  0  0  0  0
  190.3890  177.6260  142.9600 C   0  0  0  0  0  2  0  0  0  0  0  0
  190.0090  175.5130  143.9680 C   0  0  2  0  0  3  0  0  0  0  0  0
  188.0290  177.1910  145.7650 O   0  0  0  0  0  0  0  0  0  0  0  0
  187.6130  178.1410  143.6710 N   0  0  0  0  0  2  0  0  0  0  0  0
  188.4470  177.4400  144.6020 C   0  0  0  0  0  0  0  0  0  0  0  0
  185.3860  177.5410  144.5110 C   0  0  2  0  0  3  0  0  0  0  0  0
  184.6220  177.9840  141.9800 O   0  0  0  0  0  0  0  0  0  0  0  0
  186.2560  178.5560  143.9940 C   0  0  1  0  0  0  0  0  0  0  0  0
  186.0740  179.8810  144.3950 O   0  0  0  0  0  1  0  0  0  0  0  0
  185.1940  178.0160  143.0540 C   0  0  0  0  0  0  0  0  0  0  0  0
  184.2520  178.0880  145.3650 C   0  0  0  0  0  2  0  0  0  0  0  0
  184.4580  178.6670  147.6440 O   0  0  0  0  0  0  0  0  0  0  0  0
  184.4900  177.7800  146.8060 C   0  0  0  0  0  3  0  0  0  0  0  0
  194.6660  170.0830  142.4950 O   0  0  0  0  0  0  0  0  0  0  0  0
  194.5040  169.2890  143.5830 N   0  0  0  0  0  2  0  0  0  0  0  0
  195.6910  169.3620  144.3240 N   0  0  0  0  0  2  0  0  0  0  0  0
  194.8950  169.6350  146.5830 C   0  0  0  0  0  2  0  0  0  0  0  0
  195.7490  169.9750  145.6180 C   0  0  0  0  0  0  0  0  0  0  0  0
  196.7570  171.0380  145.8790 C   0  0  0  0  0  2  0  0  0  0  0  0
  196.6650  172.1180  144.8110 C   0  0  0  0  0  2  0  0  0  0  0  0
  197.0610  173.5050  145.3200 C   0  0  1  0  0  3  0  0  0  0  0  0
  195.2620  175.2980  145.2030 C   0  0  1  0  0  0  0  0  0  0  0  0
  196.1980  175.9660  144.3750 O   0  0  0  0  0  0  0  0  0  0  0  0
  197.7750  174.2830  144.3800 O   0  0  0  0  0  0  0  0  0  0  0  0
  196.8520  174.9970  143.5920 C   0  0  0  0  0  2  0  0  0  0  0  0
  194.2990  174.6660  144.4310 F   0  0  0  0  0  0  0  0  0  0  0  0
  195.9680  174.2650  146.0900 C   0  0  0  0  0  2  0  0  0  0  0  0
  193.3940  176.8240  145.5370 O   0  0  0  0  0  0  0  0  0  0  0  0
  193.1860  175.8200  146.4980 C   0  0  0  0  0  2  0  0  0  0  0  0
  194.5460  176.2820  146.1390 C   0  0  1  0  0  3  0  0  0  0  0  0
  1 17  1  1  0  0  0
  1 42  1  0  0  0  0
  2  7  1  6  0  0  0
  2  5  1  0  0  0  0
  4  3  1  0  0  0  0
  4  6  1  0  0  0  0
  4  2  1  0  0  0  0
  5  1  1  1  0  0  0
  6  5  1  0  0  0  0
  8 13  1  0  0  0  0
 10  8  2  0  0  0  0
 10 11  1  0  0  0  0
 11 12  2  0  0  0  0
 12  9  1  0  0  0  0
 13  9  2  0  0  0  0
 13  7  1  0  0  0  0
 14 11  1  0  0  0  0
 14 16  1  0  0  0  0
 15 16  1  0  0  0  0
 17 19  1  0  0  0  0
 17 18  2  0  0  0  0
 19 23  1  0  0  0  0
 20 33  1  6  0  0  0
 21 28  1  6  0  0  0
 21 30  1  0  0  0  0
 22 23  1  0  0  0  0
 22 21  1  0  0  0  0
 24 30  1  0  0  0  0
 25 24  1  0  0  0  0
 26 24  2  0  0  0  0
 27 22  1  0  0  0  0
 27 25  1  0  0  0  0
 27 23  1  0  0  0  0
 28 29  1  0  0  0  0
 29 20  1  0  0  0  0
 30 20  1  0  0  0  0
 32 36  1  0  0  0  0
 32 33  1  0  0  0  0
 33 31  2  0  0  0  0
 34 39  1  0  0  0  0
 35 38  2  0  0  0  0
 36 37  1  0  0  0  0
 36 34  1  0  0  0  0
 38 36  1  0  0  0  0
 38 34  1  0  0  0  0
 39 41  1  0  0  0  0
 41 40  2  0  0  0  0
 42 43  1  0  0  0  0
 43 44  1  0  0  0  0
 44 46  1  0  0  0  0
 46 47  1  0  0  0  0
 46 45  2  0  0  0  0
 48 49  1  0  0  0  0
 48 47  1  0  0  0  0
 49 55  1  0  0  0  0
 50 55  1  0  0  0  0
 50 58  1  0  0  0  0
 51 50  1  0  0  0  0
 52 49  1  0  0  0  0
 53 51  1  0  0  0  0
 53 52  1  0  0  0  0
 54 50  1  0  0  0  0
 56 58  1  0  0  0  0
 56 57  1  0  0  0  0
 58 57  1  0  0  0  0
M  END
>  <MODEL>
8

>  <REMARK>
 VINA RESULT:      -5.8      2.837      8.507
  Name = 
  19 active torsions:
  status: ('A' for Active; 'I' for Inactive)
    1  A    between atoms: N_1  and  N_6
    2  A    between atoms: N_1  and  C_57
    3  A    between atoms: C_2  and  C_46
    4  A    between atoms: C_3  and  C_5
    5  A    between atoms: C_3  and  C_22
    6  A    between atoms: N_6  and  O_56
    7  A    between atoms: C_7  and  C_38
    8  A    between atoms: C_9  and  C_51
    9  A    between atoms: C_14  and  C_35
   10  A    between atoms: C_17  and  N_54
   11  A    between atoms: C_22  and  C_57
   12  A    between atoms: C_27  and  C_43
   13  A    between atoms: C_28  and  C_43
   14  A    between atoms: C_30  and  N_42
   15  A    between atoms: C_32  and  C_35
   16  A    between atoms: C_37  and  C_39
   17  A    between atoms: C_37  and  O_45
   18  A    between atoms: C_38  and  C_49
   19  A    between atoms: C_43  and  O_56
                            x       y       z     vdW  Elec       q    Type
                         _______ _______ _______ _____ _____    ______ ____

>  <TORSDO>
F 19

$$$$
=
 OpenBabel11042413423D

 58 65  0  0  1  0  0  0  0  0999 V2000
  194.6570  172.0810  136.4240 C   0  0  2  0  0  3  0  0  0  0  0  0
  196.6060  173.3650  137.3180 C   0  0  1  0  0  3  0  0  0  0  0  0
  196.4700  174.9750  135.6810 N   0  0  0  0  0  1  0  0  0  0  0  0
  197.2590  173.9080  136.1330 N   0  0  0  0  0  0  0  0  0  0  0  0
  196.1710  172.1010  136.6030 C   0  0  2  0  0  3  0  0  0  0  0  0
  196.8360  172.7240  135.3940 C   0  0  0  0  0  2  0  0  0  0  0  0
  197.6430  173.0200  138.3770 C   0  0  0  0  0  2  0  0  0  0  0  0
  197.0970  175.2210  139.4330 C   0  0  0  0  0  3  0  0  0  0  0  0
  197.7360  173.3660  140.8570 C   0  0  0  0  0  3  0  0  0  0  0  0
  196.9780  176.0430  140.5590 C   0  0  0  0  0  3  0  0  0  0  0  0
  197.2450  175.5290  141.8340 C   0  0  0  0  0  0  0  0  0  0  0  0
  197.6140  174.1880  141.9820 C   0  0  0  0  0  3  0  0  0  0  0  0
  197.4830  173.8850  139.5800 C   0  0  0  0  0  0  0  0  0  0  0  0
  197.1290  176.4070  143.0330 C   0  0  0  0  0  2  0  0  0  0  0  0
  195.6610  176.8300  144.6240 C   0  0  0  0  0  1  0  0  0  0  0  0
  195.7940  176.7670  143.2350 O   0  0  0  0  0  0  0  0  0  0  0  0
  193.9740  172.7190  137.5940 C   0  0  0  0  0  0  0  0  0  0  0  0
  193.4730  173.8740  137.4880 O   0  0  0  0  0  0  0  0  0  0  0  0
  193.9110  172.0140  138.8310 N   0  0  0  0  0  2  0  0  0  0  0  0
  191.8890  172.7060  144.2850 C   0  0  2  0  0  3  0  0  0  0  0  0
  193.1280  172.0110  142.4560 C   0  0  1  0  0  3  0  0  0  0  0  0
  194.0370  172.2690  141.2320 C   0  0  1  0  0  3  0  0  0  0  0  0
  193.2170  172.5500  139.9880 C   0  0  1  0  0  3  0  0  0  0  0  0
  192.7390  174.4290  142.5790 C   0  0  0  0  0  0  0  0  0  0  0  0
  193.0960  174.7320  141.1700 C   0  0  0  0  0  2  0  0  0  0  0  0
  193.0010  175.2290  143.4660 O   0  0  0  0  0  0  0  0  0  0  0  0
  194.0450  173.6760  140.5940 C   0  0  1  0  0  3  0  0  0  0  0  0
  193.9080  171.6720  143.5830 O   0  0  0  0  0  0  0  0  0  0  0  0
  193.2250  172.1510  144.7220 C   0  0  0  0  0  2  0  0  0  0  0  0
  192.1190  173.0810  142.8410 C   0  0  2  0  0  3  0  0  0  0  0  0
  192.0220  174.2710  146.0800 O   0  0  0  0  0  0  0  0  0  0  0  0
  189.9580  174.2170  144.9860 N   0  0  0  0  0  2  0  0  0  0  0  0
  191.3070  173.7710  145.1690 C   0  0  0  0  0  0  0  0  0  0  0  0
  188.5070  176.1850  145.1990 C   0  0  2  0  0  3  0  0  0  0  0  0
  190.7830  177.4430  145.8440 O   0  0  0  0  0  0  0  0  0  0  0  0
  189.3400  175.2150  145.8460 C   0  0  1  0  0  0  0  0  0  0  0  0
  189.0520  174.8340  147.1590 O   0  0  0  0  0  1  0  0  0  0  0  0
  189.9060  176.6140  145.6920 C   0  0  0  0  0  0  0  0  0  0  0  0
  187.4510  176.7890  146.1140 C   0  0  0  0  0  2  0  0  0  0  0  0
  185.0900  176.7920  146.1160 O   0  0  0  0  0  0  0  0  0  0  0  0
  186.1140  176.7690  145.4510 C   0  0  0  0  0  3  0  0  0  0  0  0
  194.2150  170.7620  136.2760 O   0  0  0  0  0  0  0  0  0  0  0  0
  193.3400  170.8010  135.2410 N   0  0  0  0  0  2  0  0  0  0  0  0
  192.3910  169.7950  135.4680 N   0  0  0  0  0  2  0  0  0  0  0  0
  191.1250  169.0050  137.3610 C   0  0  0  0  0  2  0  0  0  0  0  0
  191.3410  169.9360  136.4320 C   0  0  0  0  0  0  0  0  0  0  0  0
  190.4500  171.1270  136.3740 C   0  0  0  0  0  2  0  0  0  0  0  0
  189.9990  171.5110  137.7750 C   0  0  0  0  0  2  0  0  0  0  0  0
  190.1330  173.0070  138.0630 C   0  0  1  0  0  3  0  0  0  0  0  0
  188.6740  173.9230  139.9330 C   0  0  1  0  0  0  0  0  0  0  0  0
  188.1490  174.7510  138.9110 O   0  0  0  0  0  0  0  0  0  0  0  0
  189.3830  173.8310  137.1930 O   0  0  0  0  0  0  0  0  0  0  0  0
  188.0900  173.9930  137.7270 C   0  0  0  0  0  2  0  0  0  0  0  0
  187.8270  172.8500  140.1670 F   0  0  0  0  0  0  0  0  0  0  0  0
  190.0640  173.4040  139.5470 C   0  0  0  0  0  2  0  0  0  0  0  0
  187.8310  175.6780  141.3970 O   0  0  0  0  0  0  0  0  0  0  0  0
  187.6720  174.5030  142.1520 C   0  0  0  0  0  2  0  0  0  0  0  0
  188.8310  174.6960  141.2510 C   0  0  1  0  0  3  0  0  0  0  0  0
  1 42  1  1  0  0  0
  1 17  1  0  0  0  0
  2  7  1  1  0  0  0
  3  4  1  0  0  0  0
  4  2  1  0  0  0  0
  5  1  1  6  0  0  0
  5  2  1  0  0  0  0
  6  4  1  0  0  0  0
  6  5  1  0  0  0  0
  7 13  1  0  0  0  0
  8 13  2  0  0  0  0
  8 10  1  0  0  0  0
  9 12  2  0  0  0  0
 10 11  2  0  0  0  0
 11 12  1  0  0  0  0
 11 14  1  0  0  0  0
 13  9  1  0  0  0  0
 14 16  1  0  0  0  0
 16 15  1  0  0  0  0
 17 19  1  0  0  0  0
 18 17  2  0  0  0  0
 19 23  1  0  0  0  0
 20 29  1  0  0  0  0
 20 33  1  1  0  0  0
 21 30  1  0  0  0  0
 21 28  1  1  0  0  0
 22 21  1  0  0  0  0
 23 27  1  0  0  0  0
 23 22  1  0  0  0  0
 24 30  1  0  0  0  0
 24 26  2  0  0  0  0
 25 24  1  0  0  0  0
 27 25  1  0  0  0  0
 27 22  1  0  0  0  0
 28 29  1  0  0  0  0
 30 20  1  0  0  0  0
 32 33  1  0  0  0  0
 32 36  1  0  0  0  0
 33 31  2  0  0  0  0
 34 38  1  0  0  0  0
 34 36  1  0  0  0  0
 34 39  1  0  0  0  0
 36 37  1  0  0  0  0
 38 35  2  0  0  0  0
 38 36  1  0  0  0  0
 41 39  1  0  0  0  0
 41 40  2  0  0  0  0
 43 44  1  0  0  0  0
 43 42  1  0  0  0  0
 44 46  1  0  0  0  0
 46 45  2  0  0  0  0
 47 46  1  0  0  0  0
 47 48  1  0  0  0  0
 48 49  1  0  0  0  0
 49 55  1  0  0  0  0
 50 54  1  0  0  0  0
 50 58  1  0  0  0  0
 51 50  1  0  0  0  0
 52 53  1  0  0  0  0
 52 49  1  0  0  0  0
 53 51  1  0  0  0  0
 55 50  1  0  0  0  0
 56 57  1  0  0  0  0
 58 56  1  0  0  0  0
 58 57  1  0  0  0  0
M  END
>  <MODEL>
9

>  <REMARK>
 VINA RESULT:      -5.7      2.775     10.456
  Name = 
  19 active torsions:
  status: ('A' for Active; 'I' for Inactive)
    1  A    between atoms: N_1  and  N_6
    2  A    between atoms: N_1  and  C_57
    3  A    between atoms: C_2  and  C_46
    4  A    between atoms: C_3  and  C_5
    5  A    between atoms: C_3  and  C_22
    6  A    between atoms: N_6  and  O_56
    7  A    between atoms: C_7  and  C_38
    8  A    between atoms: C_9  and  C_51
    9  A    between atoms: C_14  and  C_35
   10  A    between atoms: C_17  and  N_54
   11  A    between atoms: C_22  and  C_57
   12  A    between atoms: C_27  and  C_43
   13  A    between atoms: C_28  and  C_43
   14  A    between atoms: C_30  and  N_42
   15  A    between atoms: C_32  and  C_35
   16  A    between atoms: C_37  and  C_39
   17  A    between atoms: C_37  and  O_45
   18  A    between atoms: C_38  and  C_49
   19  A    between atoms: C_43  and  O_56
                            x       y       z     vdW  Elec       q    Type
                         _______ _______ _______ _____ _____    ______ ____

>  <TORSDO>
F 19

$$$$
