=
 OpenBabel11042418513D

 26 29  0  0  1  0  0  0  0  0999 V2000
  189.7990  173.8910  144.0360 C   0  0  0  0  0  2  0  0  0  0  0  0
  189.9430  175.3960  144.0770 C   0  0  1  0  0  3  0  0  0  0  0  0
  188.5780  176.0310  144.1950 C   0  0  0  0  0  0  0  0  0  0  0  0
  187.5430  174.9080  142.1560 C   0  0  0  0  0  3  0  0  0  0  0  0
  190.1030  172.1350  142.4800 O   0  0  0  0  0  1  0  0  0  0  0  0
  192.6240  175.8180  147.3860 C   0  0  0  0  0  2  0  0  0  0  0  0
  189.1500  176.7900  146.4570 C   0  0  0  0  0  3  0  0  0  0  0  0
  190.3980  176.3440  146.3750 C   0  0  0  0  0  0  0  0  0  0  0  0
  190.8810  175.7950  145.1320 N   0  0  0  0  0  0  0  0  0  0  0  0
  188.2140  176.6930  145.3220 C   0  0  0  0  0  0  0  0  0  0  0  0
  187.9240  172.8240  141.1770 O   0  0  0  0  0  0  0  0  0  0  0  0
  188.3650  173.6920  141.9770 C   0  0  0  0  0  0  0  0  0  0  0  0
  187.6200  175.8780  143.0770 C   0  0  0  0  0  3  0  0  0  0  0  0
  191.3200  176.5910  147.5310 C   0  0  0  0  0  2  0  0  0  0  0  0
  192.2820  175.3890  144.9710 C   0  0  0  0  0  2  0  0  0  0  0  0
  193.1980  176.0480  146.0000 C   0  0  2  0  0  3  0  0  0  0  0  0
  189.7260  173.4750  142.5850 C   0  0  1  0  0  3  0  0  0  0  0  0
  186.8850  177.3320  145.5000 C   0  0  0  0  0  0  0  0  0  0  0  0
  184.9910  180.2690  144.2170 N   0  0  0  0  0  1  0  0  0  0  0  0
  184.6510  177.3660  146.4330 C   0  0  0  0  0  3  0  0  0  0  0  0
  186.5720  178.5000  144.7900 C   0  0  0  0  0  3  0  0  0  0  0  0
  184.3820  178.5060  145.7430 N   0  0  0  0  0  0  0  0  0  0  0  0
  185.3090  179.0790  144.9290 C   0  0  0  0  0  0  0  0  0  0  0  0
  185.9030  176.7570  146.3190 C   0  0  0  0  0  3  0  0  0  0  0  0
  194.5860  175.4410  145.9210 C   0  0  0  0  0  2  0  0  0  0  0  0
  195.3090  175.9950  144.7890 N   0  0  0  0  0  1  0  0  0  0  0  0
  2  1  1  1  0  0  0
  2  3  1  0  0  0  0
  2  9  1  0  0  0  0
  3 10  2  0  0  0  0
  4 13  2  0  0  0  0
  6 14  1  0  0  0  0
  8  7  2  0  0  0  0
  8 14  1  0  0  0  0
  9  8  1  0  0  0  0
 10 18  1  0  0  0  0
 10  7  1  0  0  0  0
 11 12  2  0  0  0  0
 12  4  1  0  0  0  0
 12 17  1  0  0  0  0
 13  3  1  0  0  0  0
 15  9  1  0  0  0  0
 15 16  1  0  0  0  0
 16 25  1  1  0  0  0
 16  6  1  0  0  0  0
 17  5  1  1  0  0  0
 17  1  1  0  0  0  0
 18 24  1  0  0  0  0
 19 23  1  0  0  0  0
 21 23  1  0  0  0  0
 21 18  2  0  0  0  0
 22 20  1  0  0  0  0
 23 22  2  0  0  0  0
 24 20  2  0  0  0  0
 26 25  1  0  0  0  0
M  END
>  <MODEL>
1

>  <REMARK>
 VINA RESULT:      -8.0      0.000      0.000
  Name = 
  2 active torsions:
  status: ('A' for Active; 'I' for Inactive)
    1  A    between atoms: C_1  and  C_18
    2  A    between atoms: C_16  and  C_25
                            x       y       z     vdW  Elec       q    Type
                         _______ _______ _______ _____ _____    ______ ____

>  <TORSDO>
F 2

$$$$
=
 OpenBabel11042418513D

 26 29  0  0  1  0  0  0  0  0999 V2000
  188.2000  175.9320  141.4750 C   0  0  0  0  0  2  0  0  0  0  0  0
  187.6500  175.6760  142.8600 C   0  0  1  0  0  3  0  0  0  0  0  0
  188.7900  175.4020  143.8130 C   0  0  0  0  0  0  0  0  0  0  0  0
  189.8420  173.4970  142.4910 C   0  0  0  0  0  3  0  0  0  0  0  0
  188.2110  174.8710  139.3600 O   0  0  0  0  0  1  0  0  0  0  0  0
  185.3750  179.2510  143.4550 C   0  0  0  0  0  2  0  0  0  0  0  0
  188.3050  177.5160  144.9630 C   0  0  0  0  0  3  0  0  0  0  0  0
  187.2300  177.7600  144.2250 C   0  0  0  0  0  0  0  0  0  0  0  0
  186.7720  176.7750  143.2780 N   0  0  0  0  0  0  0  0  0  0  0  0
  189.0880  176.2760  144.8080 C   0  0  0  0  0  0  0  0  0  0  0  0
  189.9400  173.0740  140.1970 O   0  0  0  0  0  0  0  0  0  0  0  0
  189.3750  173.7370  141.1080 C   0  0  0  0  0  0  0  0  0  0  0  0
  189.6110  174.1870  143.6150 C   0  0  0  0  0  3  0  0  0  0  0  0
  186.4210  178.9860  144.5290 C   0  0  0  0  0  2  0  0  0  0  0  0
  185.5310  176.9640  142.5190 C   0  0  0  0  0  2  0  0  0  0  0  0
  184.5980  177.9780  143.1780 C   0  0  2  0  0  3  0  0  0  0  0  0
  188.2110  174.6160  140.7330 C   0  0  1  0  0  3  0  0  0  0  0  0
  190.1990  176.0650  145.7720 C   0  0  0  0  0  0  0  0  0  0  0  0
  193.8430  176.7710  146.0480 N   0  0  0  0  0  1  0  0  0  0  0  0
  191.0350  175.3470  147.9280 C   0  0  0  0  0  3  0  0  0  0  0  0
  191.4920  176.5020  145.4520 C   0  0  0  0  0  3  0  0  0  0  0  0
  192.2810  175.7670  147.5830 N   0  0  0  0  0  0  0  0  0  0  0  0
  192.5280  176.3380  146.3740 C   0  0  0  0  0  0  0  0  0  0  0  0
  189.9730  175.4940  147.0330 C   0  0  0  0  0  3  0  0  0  0  0  0
  183.4340  178.2870  142.2560 C   0  0  0  0  0  2  0  0  0  0  0  0
  183.8760  178.2670  140.8720 N   0  0  0  0  0  1  0  0  0  0  0  0
  2  1  1  6  0  0  0
  2  9  1  0  0  0  0
  2  3  1  0  0  0  0
  3 10  2  0  0  0  0
  4 13  2  0  0  0  0
  6 14  1  0  0  0  0
  8 14  1  0  0  0  0
  8  7  2  0  0  0  0
  9  8  1  0  0  0  0
 10  7  1  0  0  0  0
 10 18  1  0  0  0  0
 11 12  2  0  0  0  0
 12  4  1  0  0  0  0
 13  3  1  0  0  0  0
 15 16  1  0  0  0  0
 15  9  1  0  0  0  0
 16 25  1  6  0  0  0
 16  6  1  0  0  0  0
 17  5  1  6  0  0  0
 17 12  1  0  0  0  0
 17  1  1  0  0  0  0
 18 24  1  0  0  0  0
 19 23  1  0  0  0  0
 21 18  2  0  0  0  0
 21 23  1  0  0  0  0
 22 20  1  0  0  0  0
 23 22  2  0  0  0  0
 24 20  2  0  0  0  0
 26 25  1  0  0  0  0
M  END
>  <MODEL>
2

>  <REMARK>
 VINA RESULT:      -7.6      1.931      6.214
  Name = 
  2 active torsions:
  status: ('A' for Active; 'I' for Inactive)
    1  A    between atoms: C_1  and  C_18
    2  A    between atoms: C_16  and  C_25
                            x       y       z     vdW  Elec       q    Type
                         _______ _______ _______ _____ _____    ______ ____

>  <TORSDO>
F 2

$$$$
=
 OpenBabel11042418513D

 26 29  0  0  1  0  0  0  0  0999 V2000
  191.1800  175.6560  144.4460 C   0  0  0  0  0  2  0  0  0  0  0  0
  189.8820  174.9030  144.6310 C   0  0  1  0  0  3  0  0  0  0  0  0
  188.8340  175.8340  145.1950 C   0  0  0  0  0  0  0  0  0  0  0  0
  190.1640  176.5930  147.2290 C   0  0  0  0  0  3  0  0  0  0  0  0
  193.3490  175.6850  145.3920 O   0  0  0  0  0  1  0  0  0  0  0  0
  189.2910  173.4110  140.6640 C   0  0  0  0  0  2  0  0  0  0  0  0
  187.6020  175.6900  143.0770 C   0  0  0  0  0  3  0  0  0  0  0  0
  188.4320  174.7900  142.5660 C   0  0  0  0  0  0  0  0  0  0  0  0
  189.4870  174.2430  143.3820 N   0  0  0  0  0  0  0  0  0  0  0  0
  187.7560  176.1960  144.4540 C   0  0  0  0  0  0  0  0  0  0  0  0
  192.4570  176.8670  147.5660 O   0  0  0  0  0  0  0  0  0  0  0  0
  191.5680  176.3570  146.8320 C   0  0  0  0  0  0  0  0  0  0  0  0
  189.0260  176.3860  146.5540 C   0  0  0  0  0  3  0  0  0  0  0  0
  188.1330  174.2380  141.2040 C   0  0  0  0  0  2  0  0  0  0  0  0
  190.3580  173.1720  142.8860 C   0  0  0  0  0  2  0  0  0  0  0  0
  189.7340  172.4120  141.7170 C   0  0  2  0  0  3  0  0  0  0  0  0
  192.0050  175.4670  145.6980 C   0  0  1  0  0  3  0  0  0  0  0  0
  186.6960  177.1110  144.9490 C   0  0  0  0  0  0  0  0  0  0  0  0
  185.3920  180.5270  144.2540 N   0  0  0  0  0  1  0  0  0  0  0  0
  184.7780  177.5810  146.3490 C   0  0  0  0  0  3  0  0  0  0  0  0
  186.5540  178.3850  144.3810 C   0  0  0  0  0  3  0  0  0  0  0  0
  184.6740  178.8160  145.7900 N   0  0  0  0  0  0  0  0  0  0  0  0
  185.5340  179.2310  144.8210 C   0  0  0  0  0  0  0  0  0  0  0  0
  185.7850  176.7070  145.9350 C   0  0  0  0  0  3  0  0  0  0  0  0
  190.7520  171.4620  141.1150 C   0  0  0  0  0  2  0  0  0  0  0  0
  190.7110  170.1840  141.8070 N   0  0  0  0  0  1  0  0  0  0  0  0
  1 17  1  0  0  0  0
  2  1  1  6  0  0  0
  2  3  1  0  0  0  0
  3 13  1  0  0  0  0
  6 14  1  0  0  0  0
  6 16  1  0  0  0  0
  7 10  1  0  0  0  0
  8  7  2  0  0  0  0
  8  9  1  0  0  0  0
  9  2  1  0  0  0  0
 10 18  1  0  0  0  0
 10  3  2  0  0  0  0
 12  4  1  0  0  0  0
 12 11  2  0  0  0  0
 13  4  2  0  0  0  0
 14  8  1  0  0  0  0
 15  9  1  0  0  0  0
 16 25  1  6  0  0  0
 16 15  1  0  0  0  0
 17  5  1  6  0  0  0
 17 12  1  0  0  0  0
 18 24  1  0  0  0  0
 19 23  1  0  0  0  0
 21 23  1  0  0  0  0
 21 18  2  0  0  0  0
 22 20  1  0  0  0  0
 23 22  2  0  0  0  0
 24 20  2  0  0  0  0
 25 26  1  0  0  0  0
M  END
>  <MODEL>
3

>  <REMARK>
 VINA RESULT:      -7.4      2.460      4.654
  Name = 
  2 active torsions:
  status: ('A' for Active; 'I' for Inactive)
    1  A    between atoms: C_1  and  C_18
    2  A    between atoms: C_16  and  C_25
                            x       y       z     vdW  Elec       q    Type
                         _______ _______ _______ _____ _____    ______ ____

>  <TORSDO>
F 2

$$$$
=
 OpenBabel11042418513D

 26 29  0  0  1  0  0  0  0  0999 V2000
  187.0510  177.5970  142.5050 C   0  0  0  0  0  2  0  0  0  0  0  0
  187.1170  176.4060  143.4350 C   0  0  1  0  0  3  0  0  0  0  0  0
  188.4140  175.6650  143.2120 C   0  0  0  0  0  0  0  0  0  0  0  0
  188.1350  175.3070  140.7070 C   0  0  0  0  0  3  0  0  0  0  0  0
  185.8030  178.2910  140.6180 O   0  0  0  0  0  1  0  0  0  0  0  0
  186.5580  178.3470  147.2070 C   0  0  0  0  0  2  0  0  0  0  0  0
  189.1610  176.3460  145.4490 C   0  0  0  0  0  3  0  0  0  0  0  0
  188.0040  176.9250  145.7430 C   0  0  0  0  0  0  0  0  0  0  0  0
  186.8980  176.8240  144.8240 N   0  0  0  0  0  0  0  0  0  0  0  0
  189.3720  175.6360  144.1730 C   0  0  0  0  0  0  0  0  0  0  0  0
  187.0780  176.5910  139.0680 O   0  0  0  0  0  0  0  0  0  0  0  0
  187.2060  176.3850  140.3050 C   0  0  0  0  0  0  0  0  0  0  0  0
  188.6460  175.0070  141.9070 C   0  0  0  0  0  3  0  0  0  0  0  0
  187.8320  177.5190  147.1090 C   0  0  0  0  0  2  0  0  0  0  0  0
  185.5750  177.3610  145.1600 C   0  0  0  0  0  2  0  0  0  0  0  0
  185.3890  177.5460  146.6640 C   0  0  2  0  0  3  0  0  0  0  0  0
  186.3290  177.1630  141.2510 C   0  0  1  0  0  3  0  0  0  0  0  0
  190.6690  174.9300  144.0120 C   0  0  0  0  0  0  0  0  0  0  0  0
  194.1430  175.6660  142.8950 N   0  0  0  0  0  1  0  0  0  0  0  0
  192.0690  172.9720  144.2720 C   0  0  0  0  0  3  0  0  0  0  0  0
  191.7840  175.6230  143.5190 C   0  0  0  0  0  3  0  0  0  0  0  0
  193.1290  173.6660  143.7780 N   0  0  0  0  0  0  0  0  0  0  0  0
  193.0120  174.9680  143.4030 C   0  0  0  0  0  0  0  0  0  0  0  0
  190.8250  173.5930  144.4040 C   0  0  0  0  0  3  0  0  0  0  0  0
  184.0960  178.2900  146.9400 C   0  0  0  0  0  2  0  0  0  0  0  0
  183.6920  179.0390  145.7620 N   0  0  0  0  0  1  0  0  0  0  0  0
  2  1  1  6  0  0  0
  2  9  1  0  0  0  0
  3  2  1  0  0  0  0
  3 10  2  0  0  0  0
  4 13  2  0  0  0  0
  7  8  2  0  0  0  0
  8 14  1  0  0  0  0
  9 15  1  0  0  0  0
  9  8  1  0  0  0  0
 10  7  1  0  0  0  0
 11 12  2  0  0  0  0
 12  4  1  0  0  0  0
 12 17  1  0  0  0  0
 13  3  1  0  0  0  0
 14  6  1  0  0  0  0
 15 16  1  0  0  0  0
 16 25  1  6  0  0  0
 16  6  1  0  0  0  0
 17  5  1  6  0  0  0
 17  1  1  0  0  0  0
 18 10  1  0  0  0  0
 18 24  1  0  0  0  0
 19 23  1  0  0  0  0
 20 24  2  0  0  0  0
 21 18  2  0  0  0  0
 22 20  1  0  0  0  0
 23 21  1  0  0  0  0
 23 22  2  0  0  0  0
 26 25  1  0  0  0  0
M  END
>  <MODEL>
4

>  <REMARK>
 VINA RESULT:      -7.0      2.399      6.459
  Name = 
  2 active torsions:
  status: ('A' for Active; 'I' for Inactive)
    1  A    between atoms: C_1  and  C_18
    2  A    between atoms: C_16  and  C_25
                            x       y       z     vdW  Elec       q    Type
                         _______ _______ _______ _____ _____    ______ ____

>  <TORSDO>
F 2

$$$$
=
 OpenBabel11042418513D

 26 29  0  0  1  0  0  0  0  0999 V2000
  186.3580  176.8470  145.0980 C   0  0  0  0  0  2  0  0  0  0  0  0
  187.5270  177.5370  144.4320 C   0  0  1  0  0  3  0  0  0  0  0  0
  188.8030  177.1820  145.1590 C   0  0  0  0  0  0  0  0  0  0  0  0
  188.0470  177.9140  147.4780 C   0  0  0  0  0  3  0  0  0  0  0  0
  184.4550  177.4410  146.3720 O   0  0  0  0  0  1  0  0  0  0  0  0
  187.0660  176.1270  140.4180 C   0  0  0  0  0  2  0  0  0  0  0  0
  189.5490  175.9260  143.1870 C   0  0  0  0  0  3  0  0  0  0  0  0
  188.4990  176.2900  142.4620 C   0  0  0  0  0  0  0  0  0  0  0  0
  187.5540  177.2370  142.9960 N   0  0  0  0  0  0  0  0  0  0  0  0
  189.7560  176.4240  144.5590 C   0  0  0  0  0  0  0  0  0  0  0  0
  185.9410  177.9300  148.4860 O   0  0  0  0  0  0  0  0  0  0  0  0
  186.5720  177.8450  147.3980 C   0  0  0  0  0  0  0  0  0  0  0  0
  188.9780  177.6340  146.5570 C   0  0  0  0  0  3  0  0  0  0  0  0
  188.4280  175.8350  141.0350 C   0  0  0  0  0  2  0  0  0  0  0  0
  186.4390  177.7430  142.1870 C   0  0  0  0  0  2  0  0  0  0  0  0
  186.6860  177.5700  140.6900 C   0  0  2  0  0  3  0  0  0  0  0  0
  185.7800  177.8000  146.1170 C   0  0  1  0  0  3  0  0  0  0  0  0
  191.0280  176.0370  145.2230 C   0  0  0  0  0  0  0  0  0  0  0  0
  194.5560  177.2050  145.4220 N   0  0  0  0  0  1  0  0  0  0  0  0
  192.2860  174.6540  146.7610 C   0  0  0  0  0  3  0  0  0  0  0  0
  192.1890  176.7910  145.0000 C   0  0  0  0  0  3  0  0  0  0  0  0
  193.3990  175.3940  146.5130 N   0  0  0  0  0  0  0  0  0  0  0  0
  193.3740  176.4480  145.6540 C   0  0  0  0  0  0  0  0  0  0  0  0
  191.0820  174.9660  146.1260 C   0  0  0  0  0  3  0  0  0  0  0  0
  185.4280  177.9150  139.9140 C   0  0  0  0  0  2  0  0  0  0  0  0
  184.3650  178.2910  140.8310 N   0  0  0  0  0  1  0  0  0  0  0  0
  1 17  1  0  0  0  0
  2  1  1  1  0  0  0
  2  3  1  0  0  0  0
  3 13  1  0  0  0  0
  6 16  1  0  0  0  0
  6 14  1  0  0  0  0
  7 10  1  0  0  0  0
  8  9  1  0  0  0  0
  8  7  2  0  0  0  0
  9  2  1  0  0  0  0
 10  3  2  0  0  0  0
 10 18  1  0  0  0  0
 12  4  1  0  0  0  0
 12 11  2  0  0  0  0
 13  4  2  0  0  0  0
 14  8  1  0  0  0  0
 15  9  1  0  0  0  0
 16 25  1  6  0  0  0
 16 15  1  0  0  0  0
 17  5  1  1  0  0  0
 17 12  1  0  0  0  0
 18 24  1  0  0  0  0
 19 23  1  0  0  0  0
 21 18  2  0  0  0  0
 21 23  1  0  0  0  0
 22 20  1  0  0  0  0
 23 22  2  0  0  0  0
 24 20  2  0  0  0  0
 25 26  1  0  0  0  0
M  END
>  <MODEL>
5

>  <REMARK>
 VINA RESULT:      -6.8      3.106      7.150
  Name = 
  2 active torsions:
  status: ('A' for Active; 'I' for Inactive)
    1  A    between atoms: C_1  and  C_18
    2  A    between atoms: C_16  and  C_25
                            x       y       z     vdW  Elec       q    Type
                         _______ _______ _______ _____ _____    ______ ____

>  <TORSDO>
F 2

$$$$
=
 OpenBabel11042418513D

 26 29  0  0  1  0  0  0  0  0999 V2000
  189.7250  175.9730  145.7520 C   0  0  0  0  0  2  0  0  0  0  0  0
  189.6660  176.4010  144.3030 C   0  0  1  0  0  3  0  0  0  0  0  0
  190.2510  175.3150  143.4310 C   0  0  0  0  0  0  0  0  0  0  0  0
  192.4980  175.1500  144.6170 C   0  0  0  0  0  3  0  0  0  0  0  0
  190.8780  176.5880  147.7250 O   0  0  0  0  0  1  0  0  0  0  0  0
  185.4840  177.2250  143.9180 C   0  0  0  0  0  2  0  0  0  0  0  0
  188.0220  174.9020  142.4900 C   0  0  0  0  0  3  0  0  0  0  0  0
  187.4700  175.9110  143.1520 C   0  0  0  0  0  0  0  0  0  0  0  0
  188.3000  176.7920  143.9360 N   0  0  0  0  0  0  0  0  0  0  0  0
  189.4660  174.6160  142.5730 C   0  0  0  0  0  0  0  0  0  0  0  0
  193.1000  175.4870  146.8470 O   0  0  0  0  0  0  0  0  0  0  0  0
  192.2140  175.6740  145.9700 C   0  0  0  0  0  0  0  0  0  0  0  0
  191.6890  174.9910  143.5620 C   0  0  0  0  0  3  0  0  0  0  0  0
  186.0190  176.2080  142.9180 C   0  0  0  0  0  2  0  0  0  0  0  0
  187.7430  177.9780  144.5970 C   0  0  0  0  0  2  0  0  0  0  0  0
  186.4190  178.4190  143.9760 C   0  0  2  0  0  3  0  0  0  0  0  0
  191.0120  176.5040  146.3370 C   0  0  1  0  0  3  0  0  0  0  0  0
  189.9810  173.5330  141.6950 C   0  0  0  0  0  0  0  0  0  0  0  0
  190.6330  169.8720  141.8460 N   0  0  0  0  0  1  0  0  0  0  0  0
  190.7600  172.7280  139.5490 C   0  0  0  0  0  3  0  0  0  0  0  0
  190.0770  172.2230  142.1860 C   0  0  0  0  0  3  0  0  0  0  0  0
  190.8570  171.4710  140.0580 N   0  0  0  0  0  0  0  0  0  0  0  0
  190.5250  171.2000  141.3490 C   0  0  0  0  0  0  0  0  0  0  0  0
  190.3150  173.7780  140.3550 C   0  0  0  0  0  3  0  0  0  0  0  0
  185.7900  179.5120  144.8200 C   0  0  0  0  0  2  0  0  0  0  0  0
  184.4480  179.1220  145.2200 N   0  0  0  0  0  1  0  0  0  0  0  0
  1 17  1  0  0  0  0
  2  1  1  1  0  0  0
  3 13  1  0  0  0  0
  3  2  1  0  0  0  0
  4 12  1  0  0  0  0
  6 16  1  0  0  0  0
  7 10  1  0  0  0  0
  7  8  2  0  0  0  0
  8  9  1  0  0  0  0
  9  2  1  0  0  0  0
  9 15  1  0  0  0  0
 10  3  2  0  0  0  0
 12 17  1  0  0  0  0
 12 11  2  0  0  0  0
 13  4  2  0  0  0  0
 14  8  1  0  0  0  0
 14  6  1  0  0  0  0
 16 15  1  0  0  0  0
 16 25  1  1  0  0  0
 17  5  1  1  0  0  0
 18 21  1  0  0  0  0
 18 10  1  0  0  0  0
 20 22  2  0  0  0  0
 20 24  1  0  0  0  0
 22 23  1  0  0  0  0
 23 19  1  0  0  0  0
 23 21  2  0  0  0  0
 24 18  2  0  0  0  0
 25 26  1  0  0  0  0
M  END
>  <MODEL>
6

>  <REMARK>
 VINA RESULT:      -6.8      2.983      7.221
  Name = 
  2 active torsions:
  status: ('A' for Active; 'I' for Inactive)
    1  A    between atoms: C_1  and  C_18
    2  A    between atoms: C_16  and  C_25
                            x       y       z     vdW  Elec       q    Type
                         _______ _______ _______ _____ _____    ______ ____

>  <TORSDO>
F 2

$$$$
=
 OpenBabel11042418513D

 26 29  0  0  1  0  0  0  0  0999 V2000
  189.1370  175.8960  142.8560 C   0  0  0  0  0  2  0  0  0  0  0  0
  189.5460  175.1710  144.1180 C   0  0  1  0  0  3  0  0  0  0  0  0
  191.0290  174.8880  144.0790 C   0  0  0  0  0  0  0  0  0  0  0  0
  191.0480  173.6640  141.8470 C   0  0  0  0  0  3  0  0  0  0  0  0
  187.8490  175.4690  140.9180 O   0  0  0  0  0  1  0  0  0  0  0  0
  188.1210  177.9160  147.0760 C   0  0  0  0  0  2  0  0  0  0  0  0
  191.3560  176.4700  145.9270 C   0  0  0  0  0  3  0  0  0  0  0  0
  190.0550  176.6810  146.0790 C   0  0  0  0  0  0  0  0  0  0  0  0
  189.1100  175.9150  145.3050 N   0  0  0  0  0  0  0  0  0  0  0  0
  191.8770  175.5030  144.9430 C   0  0  0  0  0  0  0  0  0  0  0  0
  189.7230  173.9020  139.9400 O   0  0  0  0  0  0  0  0  0  0  0  0
  189.8350  174.1670  141.1670 C   0  0  0  0  0  0  0  0  0  0  0  0
  191.5540  173.9640  143.0500 C   0  0  0  0  0  3  0  0  0  0  0  0
  189.6050  177.5890  147.1840 C   0  0  0  0  0  2  0  0  0  0  0  0
  187.6640  176.0450  145.5190 C   0  0  0  0  0  2  0  0  0  0  0  0
  187.3320  176.6330  146.8890 C   0  0  2  0  0  3  0  0  0  0  0  0
  188.6870  174.8590  141.8540 C   0  0  1  0  0  3  0  0  0  0  0  0
  193.3440  175.2720  144.9500 C   0  0  0  0  0  0  0  0  0  0  0  0
  196.4280  176.7820  143.5140 N   0  0  0  0  0  1  0  0  0  0  0  0
  195.3050  174.0890  145.7370 C   0  0  0  0  0  3  0  0  0  0  0  0
  194.1880  176.1220  144.2220 C   0  0  0  0  0  3  0  0  0  0  0  0
  196.0960  174.9210  145.0090 N   0  0  0  0  0  0  0  0  0  0  0  0
  195.5700  175.9260  144.2590 C   0  0  0  0  0  0  0  0  0  0  0  0
  193.9180  174.2540  145.7250 C   0  0  0  0  0  3  0  0  0  0  0  0
  185.8480  176.9370  146.9770 C   0  0  0  0  0  2  0  0  0  0  0  0
  185.6420  178.2460  147.5720 N   0  0  0  0  0  1  0  0  0  0  0  0
  2  1  1  6  0  0  0
  2  9  1  0  0  0  0
  3  2  1  0  0  0  0
  3 10  2  0  0  0  0
  4 13  2  0  0  0  0
  6 14  1  0  0  0  0
  7  8  2  0  0  0  0
  8 14  1  0  0  0  0
  9 15  1  0  0  0  0
  9  8  1  0  0  0  0
 10 18  1  0  0  0  0
 10  7  1  0  0  0  0
 11 12  2  0  0  0  0
 12  4  1  0  0  0  0
 12 17  1  0  0  0  0
 13  3  1  0  0  0  0
 15 16  1  0  0  0  0
 16 25  1  6  0  0  0
 16  6  1  0  0  0  0
 17  5  1  6  0  0  0
 17  1  1  0  0  0  0
 18 24  1  0  0  0  0
 19 23  1  0  0  0  0
 21 23  1  0  0  0  0
 21 18  2  0  0  0  0
 22 20  1  0  0  0  0
 23 22  2  0  0  0  0
 24 20  2  0  0  0  0
 25 26  1  0  0  0  0
M  END
>  <MODEL>
7

>  <REMARK>
 VINA RESULT:      -6.8      1.826      6.473
  Name = 
  2 active torsions:
  status: ('A' for Active; 'I' for Inactive)
    1  A    between atoms: C_1  and  C_18
    2  A    between atoms: C_16  and  C_25
                            x       y       z     vdW  Elec       q    Type
                         _______ _______ _______ _____ _____    ______ ____

>  <TORSDO>
F 2

$$$$
=
 OpenBabel11042418513D

 26 29  0  0  1  0  0  0  0  0999 V2000
  192.9640  175.0330  144.6710 C   0  0  0  0  0  2  0  0  0  0  0  0
  191.8580  174.2550  145.3470 C   0  0  1  0  0  3  0  0  0  0  0  0
  190.7720  175.2060  145.7930 C   0  0  0  0  0  0  0  0  0  0  0  0
  192.2630  176.7500  147.1640 C   0  0  0  0  0  3  0  0  0  0  0  0
  195.2200  175.6120  145.0880 O   0  0  0  0  0  1  0  0  0  0  0  0
  190.9000  171.4470  142.2640 C   0  0  0  0  0  2  0  0  0  0  0  0
  189.2580  174.2200  144.1320 C   0  0  0  0  0  3  0  0  0  0  0  0
  190.1360  173.2930  143.7690 C   0  0  0  0  0  0  0  0  0  0  0  0
  191.3840  173.1710  144.4790 N   0  0  0  0  0  0  0  0  0  0  0  0
  189.5440  175.1780  145.2170 C   0  0  0  0  0  0  0  0  0  0  0  0
  194.5010  177.3630  146.9150 O   0  0  0  0  0  0  0  0  0  0  0  0
  193.6050  176.5430  146.5800 C   0  0  0  0  0  0  0  0  0  0  0  0
  191.0830  176.2060  146.8390 C   0  0  0  0  0  3  0  0  0  0  0  0
  189.7200  172.2810  142.7430 C   0  0  0  0  0  2  0  0  0  0  0  0
  192.3330  172.0940  144.1760 C   0  0  0  0  0  2  0  0  0  0  0  0
  191.6680  170.9200  143.4620 C   0  0  2  0  0  3  0  0  0  0  0  0
  193.9980  175.3700  145.7190 C   0  0  1  0  0  3  0  0  0  0  0  0
  188.4380  176.0900  145.6070 C   0  0  0  0  0  0  0  0  0  0  0  0
  186.3970  178.8210  144.1140 N   0  0  0  0  0  1  0  0  0  0  0  0
  186.7580  176.8400  147.1800 C   0  0  0  0  0  3  0  0  0  0  0  0
  187.9510  177.0290  144.6870 C   0  0  0  0  0  3  0  0  0  0  0  0
  186.3170  177.7510  146.2720 N   0  0  0  0  0  0  0  0  0  0  0  0
  186.8870  177.8610  145.0420 C   0  0  0  0  0  0  0  0  0  0  0  0
  187.8200  175.9910  146.8610 C   0  0  0  0  0  3  0  0  0  0  0  0
  192.7210  169.9340  142.9920 C   0  0  0  0  0  2  0  0  0  0  0  0
  192.7880  168.8040  143.9030 N   0  0  0  0  0  1  0  0  0  0  0  0
  1 17  1  0  0  0  0
  2  1  1  6  0  0  0
  2  3  1  0  0  0  0
  3 13  1  0  0  0  0
  6 14  1  0  0  0  0
  6 16  1  0  0  0  0
  7 10  1  0  0  0  0
  8  7  2  0  0  0  0
  8  9  1  0  0  0  0
  9  2  1  0  0  0  0
 10 18  1  0  0  0  0
 10  3  2  0  0  0  0
 12 11  2  0  0  0  0
 12  4  1  0  0  0  0
 13  4  2  0  0  0  0
 14  8  1  0  0  0  0
 15  9  1  0  0  0  0
 16 25  1  6  0  0  0
 16 15  1  0  0  0  0
 17  5  1  6  0  0  0
 17 12  1  0  0  0  0
 18 24  1  0  0  0  0
 19 23  1  0  0  0  0
 21 23  1  0  0  0  0
 21 18  2  0  0  0  0
 22 20  1  0  0  0  0
 23 22  2  0  0  0  0
 24 20  2  0  0  0  0
 25 26  1  0  0  0  0
M  END
>  <MODEL>
8

>  <REMARK>
 VINA RESULT:      -6.6      3.077      4.978
  Name = 
  2 active torsions:
  status: ('A' for Active; 'I' for Inactive)
    1  A    between atoms: C_1  and  C_18
    2  A    between atoms: C_16  and  C_25
                            x       y       z     vdW  Elec       q    Type
                         _______ _______ _______ _____ _____    ______ ____

>  <TORSDO>
F 2

$$$$
=
 OpenBabel11042418513D

 26 29  0  0  1  0  0  0  0  0999 V2000
  191.4540  175.7590  142.7990 C   0  0  0  0  0  2  0  0  0  0  0  0
  190.1740  174.9990  143.0610 C   0  0  1  0  0  3  0  0  0  0  0  0
  189.1650  175.9180  143.7080 C   0  0  0  0  0  0  0  0  0  0  0  0
  190.6280  176.6530  145.6570 C   0  0  0  0  0  3  0  0  0  0  0  0
  193.6830  175.7820  143.5940 O   0  0  0  0  0  1  0  0  0  0  0  0
  189.3170  173.5620  139.1220 C   0  0  0  0  0  2  0  0  0  0  0  0
  187.7900  175.8000  141.6770 C   0  0  0  0  0  3  0  0  0  0  0  0
  188.5860  174.9110  141.0970 C   0  0  0  0  0  0  0  0  0  0  0  0
  189.6950  174.3560  141.8310 N   0  0  0  0  0  0  0  0  0  0  0  0
  188.0370  176.2870  143.0480 C   0  0  0  0  0  0  0  0  0  0  0  0
  192.9390  176.9300  145.8410 O   0  0  0  0  0  0  0  0  0  0  0  0
  192.0030  176.4280  145.1620 C   0  0  0  0  0  0  0  0  0  0  0  0
  189.4470  176.4520  145.0590 C   0  0  0  0  0  3  0  0  0  0  0  0
  188.1960  174.3770  139.7510 C   0  0  0  0  0  2  0  0  0  0  0  0
  190.5340  173.2950  141.2620 C   0  0  0  0  0  2  0  0  0  0  0  0
  189.8330  172.5500  140.1280 C   0  0  2  0  0  3  0  0  0  0  0  0
  192.3630  175.5550  143.9880 C   0  0  1  0  0  3  0  0  0  0  0  0
  187.0120  177.1920  143.6270 C   0  0  0  0  0  0  0  0  0  0  0  0
  184.6580  177.2810  146.5090 N   0  0  0  0  0  1  0  0  0  0  0  0
  185.8230  179.3000  143.6780 C   0  0  0  0  0  3  0  0  0  0  0  0
  186.3130  176.8060  144.7800 C   0  0  0  0  0  3  0  0  0  0  0  0
  185.1500  178.8920  144.7870 N   0  0  0  0  0  0  0  0  0  0  0  0
  185.3750  177.6730  145.3450 C   0  0  0  0  0  0  0  0  0  0  0  0
  186.7680  178.4610  143.0840 C   0  0  0  0  0  3  0  0  0  0  0  0
  190.8100  171.6110  139.4440 C   0  0  0  0  0  2  0  0  0  0  0  0
  190.3200  171.2610  138.1210 N   0  0  0  0  0  1  0  0  0  0  0  0
  1 17  1  0  0  0  0
  2  1  1  6  0  0  0
  2  3  1  0  0  0  0
  3 13  1  0  0  0  0
  6 14  1  0  0  0  0
  6 16  1  0  0  0  0
  7 10  1  0  0  0  0
  8  7  2  0  0  0  0
  8  9  1  0  0  0  0
  9  2  1  0  0  0  0
 10 18  1  0  0  0  0
 10  3  2  0  0  0  0
 12  4  1  0  0  0  0
 12 11  2  0  0  0  0
 13  4  2  0  0  0  0
 14  8  1  0  0  0  0
 15  9  1  0  0  0  0
 16 25  1  6  0  0  0
 16 15  1  0  0  0  0
 17  5  1  6  0  0  0
 17 12  1  0  0  0  0
 18 21  1  0  0  0  0
 20 22  2  0  0  0  0
 21 23  2  0  0  0  0
 22 23  1  0  0  0  0
 23 19  1  0  0  0  0
 24 18  2  0  0  0  0
 24 20  1  0  0  0  0
 26 25  1  0  0  0  0
M  END
>  <MODEL>
9

>  <REMARK>
 VINA RESULT:      -6.6      2.912      5.221
  Name = 
  2 active torsions:
  status: ('A' for Active; 'I' for Inactive)
    1  A    between atoms: C_1  and  C_18
    2  A    between atoms: C_16  and  C_25
                            x       y       z     vdW  Elec       q    Type
                         _______ _______ _______ _____ _____    ______ ____

>  <TORSDO>
F 2

$$$$
