=
 OpenBabel11042417203D

 26 27  0  0  0  0  0  0  0  0999 V2000
  187.9760  176.7170  145.8200 C   0  0  0  0  0  0  0  0  0  0  0  0
  188.2860  175.8950  146.8350 C   0  0  0  0  0  3  0  0  0  0  0  0
  186.6360  177.3660  145.8140 C   0  0  0  0  0  0  0  0  0  0  0  0
  184.7260  178.2950  147.0080 C   0  0  0  0  0  3  0  0  0  0  0  0
  185.9890  177.6990  147.0170 C   0  0  0  0  0  3  0  0  0  0  0  0
  185.9800  177.6390  144.6030 C   0  0  0  0  0  3  0  0  0  0  0  0
  184.7130  178.2370  144.5820 C   0  0  0  0  0  0  0  0  0  0  0  0
  184.0910  178.5640  145.7940 C   0  0  0  0  0  3  0  0  0  0  0  0
  184.7050  178.2470  142.0660 N   0  0  0  0  0  1  0  0  0  0  0  0
  182.8800  178.9980  143.2810 O   0  0  0  0  0  0  0  0  0  0  0  0
  184.0440  178.5170  143.2990 C   0  0  0  0  0  0  0  0  0  0  0  0
  190.0010  177.9320  144.8990 N   0  0  0  0  0  2  0  0  0  0  0  0
  188.8300  176.3700  143.6270 O   0  0  0  0  0  0  0  0  0  0  0  0
  188.9390  176.9890  144.7210 C   0  0  0  0  0  0  0  0  0  0  0  0
  191.0240  178.1700  143.8900 C   0  0  0  0  0  2  0  0  0  0  0  0
  192.0770  177.1170  143.9660 C   0  0  0  0  0  0  0  0  0  0  0  0
  193.4970  175.6440  144.6760 C   0  0  0  0  0  3  0  0  0  0  0  0
  193.4500  175.5930  143.3290 N   0  0  0  0  0  0  0  0  0  0  0  0
  192.6190  176.6140  145.1300 C   0  0  0  0  0  2  0  0  0  0  0  0
  192.5810  176.4870  142.8950 N   0  0  0  0  0  0  0  0  0  0  0  0
  189.5970  175.2010  147.0070 C   0  0  0  0  0  2  0  0  0  0  0  0
  189.7230  174.1390  146.0090 C   0  0  0  0  0  0  0  0  0  0  0  0
  189.8280  173.2640  145.1860 C   0  0  0  0  0  0  0  0  0  0  0  0
  191.1540  171.5400  144.0690 O   0  0  0  0  0  1  0  0  0  0  0  0
  188.9750  171.9260  143.4750 O   0  0  0  0  0  0  0  0  0  0  0  0
  189.9530  172.2220  144.2070 C   0  0  0  0  0  0  0  0  0  0  0  0
  1  2  2  0  0  0  0
  2 21  1  0  0  0  0
  3  1  1  0  0  0  0
  3  5  1  0  0  0  0
  4  5  2  0  0  0  0
  6  3  2  0  0  0  0
  7  6  1  0  0  0  0
  7  8  2  0  0  0  0
  8  4  1  0  0  0  0
  9 11  1  0  0  0  0
 10 11  2  0  0  0  0
 11  7  1  0  0  0  0
 13 14  2  0  0  0  0
 14 12  1  0  0  0  0
 14  1  1  0  0  0  0
 15 16  1  0  0  0  0
 15 12  1  0  0  0  0
 16 19  1  0  0  0  0
 17 19  1  0  0  0  0
 18 17  2  0  0  0  0
 20 18  1  0  0  0  0
 20 16  2  0  0  0  0
 22 21  1  0  0  0  0
 23 22  3  0  0  0  0
 24 26  1  0  0  0  0
 25 26  2  0  0  0  0
 26 23  1  0  0  0  0
M  END
>  <MODEL>
1

>  <REMARK>
 VINA RESULT:      -6.9      0.000      0.000
  Name = 
  8 active torsions:
  status: ('A' for Active; 'I' for Inactive)
    1  A    between atoms: C_2  and  C_12
    2  A    between atoms: C_4  and  C_25
    3  A    between atoms: N_5  and  C_25
    4  A    between atoms: C_8  and  C_12
    5  A    between atoms: C_17  and  C_26
    6  A    between atoms: C_18  and  C_22
    7  A    between atoms: C_19  and  C_20
    8  A    between atoms: C_23  and  C_26
                            x       y       z     vdW  Elec       q    Type
                         _______ _______ _______ _____ _____    ______ ____

>  <TORSDO>
F 8

$$$$
=
 OpenBabel11042417203D

 26 27  0  0  0  0  0  0  0  0999 V2000
  188.6120  175.8340  145.2680 C   0  0  0  0  0  0  0  0  0  0  0  0
  189.2850  174.9680  146.0420 C   0  0  0  0  0  3  0  0  0  0  0  0
  187.5210  176.6400  145.8830 C   0  0  0  0  0  0  0  0  0  0  0  0
  186.1860  177.2660  147.8220 C   0  0  0  0  0  3  0  0  0  0  0  0
  187.2190  176.5190  147.2510 C   0  0  0  0  0  3  0  0  0  0  0  0
  186.7570  177.5210  145.1030 C   0  0  0  0  0  3  0  0  0  0  0  0
  185.7190  178.2760  145.6660 C   0  0  0  0  0  0  0  0  0  0  0  0
  185.4390  178.1420  147.0320 C   0  0  0  0  0  3  0  0  0  0  0  0
  185.5800  180.1900  144.0400 N   0  0  0  0  0  1  0  0  0  0  0  0
  183.6740  179.1160  144.8030 O   0  0  0  0  0  0  0  0  0  0  0  0
  184.9310  179.1970  144.8290 C   0  0  0  0  0  0  0  0  0  0  0  0
  188.1820  175.3120  142.8250 N   0  0  0  0  0  2  0  0  0  0  0  0
  189.8750  176.7710  143.4840 O   0  0  0  0  0  0  0  0  0  0  0  0
  188.9370  176.0010  143.8270 C   0  0  0  0  0  0  0  0  0  0  0  0
  188.3980  175.5100  141.3980 C   0  0  0  0  0  2  0  0  0  0  0  0
  187.3720  176.4380  140.8450 C   0  0  0  0  0  0  0  0  0  0  0  0
  185.8880  177.9980  140.6170 C   0  0  0  0  0  3  0  0  0  0  0  0
  186.1580  177.4720  139.4060 N   0  0  0  0  0  0  0  0  0  0  0  0
  186.6560  177.3620  141.5770 C   0  0  0  0  0  2  0  0  0  0  0  0
  187.0670  176.5240  139.5420 N   0  0  0  0  0  0  0  0  0  0  0  0
  190.4260  174.1190  145.5880 C   0  0  0  0  0  2  0  0  0  0  0  0
  191.6890  174.7800  145.9170 C   0  0  0  0  0  0  0  0  0  0  0  0
  192.7300  175.3250  146.1880 C   0  0  0  0  0  0  0  0  0  0  0  0
  195.1730  175.3210  146.2890 O   0  0  0  0  0  0  0  0  0  0  0  0
  193.9630  177.1340  146.9960 O   0  0  0  0  0  1  0  0  0  0  0  0
  193.9680  175.9740  146.5110 C   0  0  0  0  0  0  0  0  0  0  0  0
  1  3  1  0  0  0  0
  1  2  2  0  0  0  0
  3  5  1  0  0  0  0
  5  4  2  0  0  0  0
  6  7  1  0  0  0  0
  6  3  2  0  0  0  0
  7  8  2  0  0  0  0
  8  4  1  0  0  0  0
  9 11  1  0  0  0  0
 10 11  2  0  0  0  0
 11  7  1  0  0  0  0
 12 14  1  0  0  0  0
 13 14  2  0  0  0  0
 14  1  1  0  0  0  0
 15 12  1  0  0  0  0
 16 15  1  0  0  0  0
 16 19  1  0  0  0  0
 17 19  1  0  0  0  0
 18 20  1  0  0  0  0
 18 17  2  0  0  0  0
 20 16  2  0  0  0  0
 21 22  1  0  0  0  0
 21  2  1  0  0  0  0
 22 23  3  0  0  0  0
 23 26  1  0  0  0  0
 24 26  2  0  0  0  0
 26 25  1  0  0  0  0
M  END
>  <MODEL>
2

>  <REMARK>
 VINA RESULT:      -6.8      2.768      4.399
  Name = 
  8 active torsions:
  status: ('A' for Active; 'I' for Inactive)
    1  A    between atoms: C_2  and  C_12
    2  A    between atoms: C_4  and  C_25
    3  A    between atoms: N_5  and  C_25
    4  A    between atoms: C_8  and  C_12
    5  A    between atoms: C_17  and  C_26
    6  A    between atoms: C_18  and  C_22
    7  A    between atoms: C_19  and  C_20
    8  A    between atoms: C_23  and  C_26
                            x       y       z     vdW  Elec       q    Type
                         _______ _______ _______ _____ _____    ______ ____

>  <TORSDO>
F 8

$$$$
=
 OpenBabel11042417203D

 26 27  0  0  0  0  0  0  0  0999 V2000
  185.6210  177.5860  143.2130 C   0  0  0  0  0  0  0  0  0  0  0  0
  184.4110  178.0080  142.8130 C   0  0  0  0  0  3  0  0  0  0  0  0
  185.8650  177.4030  144.6710 C   0  0  0  0  0  0  0  0  0  0  0  0
  185.1150  177.5810  146.9820 C   0  0  0  0  0  3  0  0  0  0  0  0
  184.8790  177.7400  145.6150 C   0  0  0  0  0  3  0  0  0  0  0  0
  187.0950  176.9120  145.1330 C   0  0  0  0  0  3  0  0  0  0  0  0
  187.3430  176.7470  146.5030 C   0  0  0  0  0  0  0  0  0  0  0  0
  186.3430  177.0850  147.4250 C   0  0  0  0  0  3  0  0  0  0  0  0
  188.7960  174.8430  147.2740 N   0  0  0  0  0  1  0  0  0  0  0  0
  189.6270  176.9990  147.0950 O   0  0  0  0  0  0  0  0  0  0  0  0
  188.6410  176.2260  146.9660 C   0  0  0  0  0  0  0  0  0  0  0  0
  186.9720  175.9550  141.8200 N   0  0  0  0  0  2  0  0  0  0  0  0
  187.3830  178.2480  141.7580 O   0  0  0  0  0  0  0  0  0  0  0  0
  186.7040  177.2980  142.2370 C   0  0  0  0  0  0  0  0  0  0  0  0
  187.9580  175.6250  140.8000 C   0  0  0  0  0  2  0  0  0  0  0  0
  188.9940  174.7130  141.3600 C   0  0  0  0  0  0  0  0  0  0  0  0
  190.2560  173.5760  142.7040 C   0  0  0  0  0  3  0  0  0  0  0  0
  190.5160  173.1990  141.4350 N   0  0  0  0  0  0  0  0  0  0  0  0
  189.2730  174.5500  142.7010 C   0  0  0  0  0  2  0  0  0  0  0  0
  189.7440  173.8870  140.6150 N   0  0  0  0  0  0  0  0  0  0  0  0
  183.9980  178.2010  141.3910 C   0  0  0  0  0  2  0  0  0  0  0  0
  182.5380  178.1950  141.3000 C   0  0  0  0  0  0  0  0  0  0  0  0
  181.3340  178.1910  141.2240 C   0  0  0  0  0  0  0  0  0  0  0  0
  179.2650  178.9420  140.1610 O   0  0  0  0  0  0  0  0  0  0  0  0
  179.2250  177.4930  141.9360 O   0  0  0  0  0  1  0  0  0  0  0  0
  179.9030  178.1850  141.1340 C   0  0  0  0  0  0  0  0  0  0  0  0
  1  3  1  0  0  0  0
  2  1  2  0  0  0  0
  3  6  2  0  0  0  0
  3  5  1  0  0  0  0
  4  8  1  0  0  0  0
  5  4  2  0  0  0  0
  6  7  1  0  0  0  0
  7 11  1  0  0  0  0
  7  8  2  0  0  0  0
 11 10  2  0  0  0  0
 11  9  1  0  0  0  0
 12 14  1  0  0  0  0
 13 14  2  0  0  0  0
 14  1  1  0  0  0  0
 15 16  1  0  0  0  0
 15 12  1  0  0  0  0
 16 19  1  0  0  0  0
 18 17  2  0  0  0  0
 19 17  1  0  0  0  0
 20 16  2  0  0  0  0
 20 18  1  0  0  0  0
 21  2  1  0  0  0  0
 22 21  1  0  0  0  0
 23 22  3  0  0  0  0
 24 26  2  0  0  0  0
 26 23  1  0  0  0  0
 26 25  1  0  0  0  0
M  END
>  <MODEL>
3

>  <REMARK>
 VINA RESULT:      -6.7      3.224      6.700
  Name = 
  8 active torsions:
  status: ('A' for Active; 'I' for Inactive)
    1  A    between atoms: C_2  and  C_12
    2  A    between atoms: C_4  and  C_25
    3  A    between atoms: N_5  and  C_25
    4  A    between atoms: C_8  and  C_12
    5  A    between atoms: C_17  and  C_26
    6  A    between atoms: C_18  and  C_22
    7  A    between atoms: C_19  and  C_20
    8  A    between atoms: C_23  and  C_26
                            x       y       z     vdW  Elec       q    Type
                         _______ _______ _______ _____ _____    ______ ____

>  <TORSDO>
F 8

$$$$
=
 OpenBabel11042417203D

 26 27  0  0  0  0  0  0  0  0999 V2000
  189.2310  176.3850  146.4370 C   0  0  0  0  0  0  0  0  0  0  0  0
  190.0820  177.0730  147.2150 C   0  0  0  0  0  3  0  0  0  0  0  0
  188.2010  177.1370  145.6700 C   0  0  0  0  0  0  0  0  0  0  0  0
  187.4670  178.2360  143.6230 C   0  0  0  0  0  3  0  0  0  0  0  0
  188.4300  177.5180  144.3360 C   0  0  0  0  0  3  0  0  0  0  0  0
  186.9860  177.5010  146.2710 C   0  0  0  0  0  3  0  0  0  0  0  0
  186.0120  178.2200  145.5650 C   0  0  0  0  0  0  0  0  0  0  0  0
  186.2620  178.5850  144.2350 C   0  0  0  0  0  3  0  0  0  0  0  0
  184.6540  178.6650  147.6360 N   0  0  0  0  0  1  0  0  0  0  0  0
  183.7220  178.8410  145.5220 O   0  0  0  0  0  0  0  0  0  0  0  0
  184.7430  178.5890  146.2160 C   0  0  0  0  0  0  0  0  0  0  0  0
  189.8020  174.2840  145.1400 N   0  0  0  0  0  2  0  0  0  0  0  0
  188.9410  174.1880  147.3030 O   0  0  0  0  0  0  0  0  0  0  0  0
  189.3040  174.9040  146.3300 C   0  0  0  0  0  0  0  0  0  0  0  0
  189.9810  172.8430  145.0150 C   0  0  0  0  0  2  0  0  0  0  0  0
  189.8510  172.4290  143.5890 C   0  0  0  0  0  0  0  0  0  0  0  0
  189.3160  172.3340  141.4930 C   0  0  0  0  0  3  0  0  0  0  0  0
  190.2230  171.3720  141.7570 N   0  0  0  0  0  0  0  0  0  0  0  0
  189.0510  173.0450  142.6500 C   0  0  0  0  0  3  0  0  0  0  0  0
  190.5540  171.4310  143.0340 N   0  0  0  0  0  2  0  0  0  0  0  0
  191.1920  176.4730  148.0130 C   0  0  0  0  0  2  0  0  0  0  0  0
  192.3770  176.3220  147.1680 C   0  0  0  0  0  0  0  0  0  0  0  0
  193.3540  176.1970  146.4730 C   0  0  0  0  0  0  0  0  0  0  0  0
  195.4640  175.0800  145.9470 O   0  0  0  0  0  1  0  0  0  0  0  0
  194.6750  176.7930  144.6440 O   0  0  0  0  0  0  0  0  0  0  0  0
  194.5160  176.0470  145.6440 C   0  0  0  0  0  0  0  0  0  0  0  0
  1  2  2  0  0  0  0
  2 21  1  0  0  0  0
  3  6  1  0  0  0  0
  3  1  1  0  0  0  0
  4  8  2  0  0  0  0
  4  5  1  0  0  0  0
  5  3  2  0  0  0  0
  7 11  1  0  0  0  0
  7  6  2  0  0  0  0
  8  7  1  0  0  0  0
 10 11  2  0  0  0  0
 11  9  1  0  0  0  0
 12 14  1  0  0  0  0
 14  1  1  0  0  0  0
 14 13  2  0  0  0  0
 15 12  1  0  0  0  0
 16 15  1  0  0  0  0
 17 18  2  0  0  0  0
 17 19  1  0  0  0  0
 18 20  1  0  0  0  0
 19 16  2  0  0  0  0
 20 16  1  0  0  0  0
 22 21  1  0  0  0  0
 23 22  3  0  0  0  0
 25 26  2  0  0  0  0
 26 24  1  0  0  0  0
 26 23  1  0  0  0  0
M  END
>  <MODEL>
4

>  <REMARK>
 VINA RESULT:      -6.6      3.007      4.380
  Name = 
  8 active torsions:
  status: ('A' for Active; 'I' for Inactive)
    1  A    between atoms: C_2  and  C_12
    2  A    between atoms: C_4  and  C_25
    3  A    between atoms: N_5  and  C_25
    4  A    between atoms: C_8  and  C_12
    5  A    between atoms: C_17  and  C_26
    6  A    between atoms: C_18  and  C_22
    7  A    between atoms: C_19  and  C_20
    8  A    between atoms: C_23  and  C_26
                            x       y       z     vdW  Elec       q    Type
                         _______ _______ _______ _____ _____    ______ ____

>  <TORSDO>
F 8

$$$$
=
 OpenBabel11042417203D

 26 27  0  0  0  0  0  0  0  0999 V2000
  188.6660  175.8900  144.9280 C   0  0  0  0  0  0  0  0  0  0  0  0
  189.4110  175.0860  145.7030 C   0  0  0  0  0  3  0  0  0  0  0  0
  187.6060  176.7150  145.5690 C   0  0  0  0  0  0  0  0  0  0  0  0
  186.3250  177.3600  147.5390 C   0  0  0  0  0  3  0  0  0  0  0  0
  187.3300  176.5940  146.9430 C   0  0  0  0  0  3  0  0  0  0  0  0
  186.8430  177.6160  144.8090 C   0  0  0  0  0  3  0  0  0  0  0  0
  185.8330  178.3890  145.3970 C   0  0  0  0  0  0  0  0  0  0  0  0
  185.5790  178.2550  146.7690 C   0  0  0  0  0  3  0  0  0  0  0  0
  183.6890  179.0440  144.2560 N   0  0  0  0  0  1  0  0  0  0  0  0
  185.5680  180.3980  144.1610 O   0  0  0  0  0  0  0  0  0  0  0  0
  185.0470  179.3300  144.5810 C   0  0  0  0  0  0  0  0  0  0  0  0
  188.0980  175.1830  142.5610 N   0  0  0  0  0  2  0  0  0  0  0  0
  189.7590  176.7570  143.0010 O   0  0  0  0  0  0  0  0  0  0  0  0
  188.8850  175.9720  143.4600 C   0  0  0  0  0  0  0  0  0  0  0  0
  188.2070  175.2910  141.1130 C   0  0  0  0  0  2  0  0  0  0  0  0
  188.8000  174.0470  140.5460 C   0  0  0  0  0  0  0  0  0  0  0  0
  190.0760  172.3390  140.1640 C   0  0  0  0  0  3  0  0  0  0  0  0
  188.9800  172.2480  139.3850 N   0  0  0  0  0  0  0  0  0  0  0  0
  189.9990  173.4860  140.9360 C   0  0  0  0  0  2  0  0  0  0  0  0
  188.1980  173.2860  139.6200 N   0  0  0  0  0  0  0  0  0  0  0  0
  190.5340  174.2290  145.2200 C   0  0  0  0  0  2  0  0  0  0  0  0
  191.8100  174.8280  145.6120 C   0  0  0  0  0  0  0  0  0  0  0  0
  192.8620  175.3210  145.9340 C   0  0  0  0  0  0  0  0  0  0  0  0
  194.1410  177.1740  146.8880 O   0  0  0  0  0  1  0  0  0  0  0  0
  195.1870  175.2780  146.1360 O   0  0  0  0  0  0  0  0  0  0  0  0
  194.1140  175.9080  146.3170 C   0  0  0  0  0  0  0  0  0  0  0  0
  1  3  1  0  0  0  0
  1  2  2  0  0  0  0
  3  5  1  0  0  0  0
  5  4  2  0  0  0  0
  6  7  1  0  0  0  0
  6  3  2  0  0  0  0
  7  8  2  0  0  0  0
  8  4  1  0  0  0  0
  9 11  1  0  0  0  0
 10 11  2  0  0  0  0
 11  7  1  0  0  0  0
 12 14  1  0  0  0  0
 13 14  2  0  0  0  0
 14  1  1  0  0  0  0
 15 12  1  0  0  0  0
 16 19  1  0  0  0  0
 16 15  1  0  0  0  0
 17 19  1  0  0  0  0
 18 20  1  0  0  0  0
 18 17  2  0  0  0  0
 20 16  2  0  0  0  0
 21 22  1  0  0  0  0
 21  2  1  0  0  0  0
 22 23  3  0  0  0  0
 23 26  1  0  0  0  0
 25 26  2  0  0  0  0
 26 24  1  0  0  0  0
M  END
>  <MODEL>
5

>  <REMARK>
 VINA RESULT:      -6.6      3.262      4.135
  Name = 
  8 active torsions:
  status: ('A' for Active; 'I' for Inactive)
    1  A    between atoms: C_2  and  C_12
    2  A    between atoms: C_4  and  C_25
    3  A    between atoms: N_5  and  C_25
    4  A    between atoms: C_8  and  C_12
    5  A    between atoms: C_17  and  C_26
    6  A    between atoms: C_18  and  C_22
    7  A    between atoms: C_19  and  C_20
    8  A    between atoms: C_23  and  C_26
                            x       y       z     vdW  Elec       q    Type
                         _______ _______ _______ _____ _____    ______ ____

>  <TORSDO>
F 8

$$$$
=
 OpenBabel11042417203D

 26 27  0  0  0  0  0  0  0  0999 V2000
  189.2120  176.4510  146.6380 C   0  0  0  0  0  0  0  0  0  0  0  0
  190.1960  177.1280  147.2500 C   0  0  0  0  0  3  0  0  0  0  0  0
  188.0300  177.2070  146.1390 C   0  0  0  0  0  0  0  0  0  0  0  0
  185.9410  178.3870  146.5560 C   0  0  0  0  0  3  0  0  0  0  0  0
  187.0540  177.6900  147.0280 C   0  0  0  0  0  3  0  0  0  0  0  0
  187.8560  177.4340  144.7650 C   0  0  0  0  0  3  0  0  0  0  0  0
  186.7420  178.1330  144.2790 C   0  0  0  0  0  0  0  0  0  0  0  0
  185.7850  178.6090  145.1860 C   0  0  0  0  0  3  0  0  0  0  0  0
  185.2990  178.6650  142.2890 N   0  0  0  0  0  1  0  0  0  0  0  0
  187.5750  178.2930  142.0630 O   0  0  0  0  0  0  0  0  0  0  0  0
  186.5810  178.3620  142.8330 C   0  0  0  0  0  0  0  0  0  0  0  0
  189.7590  174.4220  145.2200 N   0  0  0  0  0  2  0  0  0  0  0  0
  188.9410  174.2100  147.3920 O   0  0  0  0  0  0  0  0  0  0  0  0
  189.2840  174.9780  146.4510 C   0  0  0  0  0  0  0  0  0  0  0  0
  189.9360  172.9910  145.0150 C   0  0  0  0  0  2  0  0  0  0  0  0
  189.6910  172.6400  143.5880 C   0  0  0  0  0  0  0  0  0  0  0  0
  189.0620  172.6790  141.5160 C   0  0  0  0  0  3  0  0  0  0  0  0
  189.8360  171.5930  141.7180 N   0  0  0  0  0  0  0  0  0  0  0  0
  188.9460  173.3870  142.7000 C   0  0  0  0  0  3  0  0  0  0  0  0
  190.2250  171.5710  142.9790 N   0  0  0  0  0  2  0  0  0  0  0  0
  191.4590  176.5240  147.7690 C   0  0  0  0  0  2  0  0  0  0  0  0
  192.4290  176.4060  146.6810 C   0  0  0  0  0  0  0  0  0  0  0  0
  193.2290  176.3090  145.7830 C   0  0  0  0  0  0  0  0  0  0  0  0
  195.5330  176.0640  145.0040 O   0  0  0  0  0  1  0  0  0  0  0  0
  193.7920  176.2120  143.5210 O   0  0  0  0  0  0  0  0  0  0  0  0
  194.1810  176.1950  144.7160 C   0  0  0  0  0  0  0  0  0  0  0  0
  1  2  2  0  0  0  0
  2 21  1  0  0  0  0
  3  1  1  0  0  0  0
  3  5  1  0  0  0  0
  4  5  2  0  0  0  0
  6  3  2  0  0  0  0
  7  6  1  0  0  0  0
  7  8  2  0  0  0  0
  8  4  1  0  0  0  0
  9 11  1  0  0  0  0
 10 11  2  0  0  0  0
 11  7  1  0  0  0  0
 12 14  1  0  0  0  0
 14  1  1  0  0  0  0
 14 13  2  0  0  0  0
 15 12  1  0  0  0  0
 16 15  1  0  0  0  0
 17 18  2  0  0  0  0
 17 19  1  0  0  0  0
 18 20  1  0  0  0  0
 19 16  2  0  0  0  0
 20 16  1  0  0  0  0
 22 21  1  0  0  0  0
 23 22  3  0  0  0  0
 25 26  2  0  0  0  0
 26 24  1  0  0  0  0
 26 23  1  0  0  0  0
M  END
>  <MODEL>
6

>  <REMARK>
 VINA RESULT:      -6.6      2.790      4.086
  Name = 
  8 active torsions:
  status: ('A' for Active; 'I' for Inactive)
    1  A    between atoms: C_2  and  C_12
    2  A    between atoms: C_4  and  C_25
    3  A    between atoms: N_5  and  C_25
    4  A    between atoms: C_8  and  C_12
    5  A    between atoms: C_17  and  C_26
    6  A    between atoms: C_18  and  C_22
    7  A    between atoms: C_19  and  C_20
    8  A    between atoms: C_23  and  C_26
                            x       y       z     vdW  Elec       q    Type
                         _______ _______ _______ _____ _____    ______ ____

>  <TORSDO>
F 8

$$$$
=
 OpenBabel11042417203D

 26 27  0  0  0  0  0  0  0  0999 V2000
  188.5440  175.9770  145.1050 C   0  0  0  0  0  0  0  0  0  0  0  0
  188.5480  175.6940  143.7930 C   0  0  0  0  0  3  0  0  0  0  0  0
  187.4260  176.7940  145.6540 C   0  0  0  0  0  0  0  0  0  0  0  0
  185.9870  177.4390  147.5100 C   0  0  0  0  0  3  0  0  0  0  0  0
  187.0450  176.6810  147.0030 C   0  0  0  0  0  3  0  0  0  0  0  0
  186.7130  177.6760  144.8270 C   0  0  0  0  0  3  0  0  0  0  0  0
  185.6500  178.4420  145.3260 C   0  0  0  0  0  0  0  0  0  0  0  0
  185.2920  178.3160  146.6750 C   0  0  0  0  0  3  0  0  0  0  0  0
  183.7270  178.9410  143.7840 N   0  0  0  0  0  1  0  0  0  0  0  0
  185.3390  180.5370  144.2570 O   0  0  0  0  0  0  0  0  0  0  0  0
  184.9180  179.3640  144.4420 C   0  0  0  0  0  0  0  0  0  0  0  0
  190.7460  176.3220  146.3120 N   0  0  0  0  0  2  0  0  0  0  0  0
  189.5340  174.3430  146.5220 O   0  0  0  0  0  0  0  0  0  0  0  0
  189.6210  175.4920  146.0070 C   0  0  0  0  0  0  0  0  0  0  0  0
  191.7820  175.9330  147.2590 C   0  0  0  0  0  2  0  0  0  0  0  0
  193.0120  175.5100  146.5320 C   0  0  0  0  0  0  0  0  0  0  0  0
  195.0320  175.3850  145.7620 C   0  0  0  0  0  3  0  0  0  0  0  0
  194.3490  174.2890  145.3760 N   0  0  0  0  0  0  0  0  0  0  0  0
  194.2060  176.2000  146.5170 C   0  0  0  0  0  2  0  0  0  0  0  0
  193.1180  174.3600  145.8500 N   0  0  0  0  0  0  0  0  0  0  0  0
  189.5720  174.8580  143.0990 C   0  0  0  0  0  2  0  0  0  0  0  0
  189.0920  174.5040  141.7630 C   0  0  0  0  0  0  0  0  0  0  0  0
  188.6980  174.2120  140.6620 C   0  0  0  0  0  0  0  0  0  0  0  0
  187.8170  174.8590  138.4750 O   0  0  0  0  0  0  0  0  0  0  0  0
  188.1900  172.6580  138.9970 O   0  0  0  0  0  1  0  0  0  0  0  0
  188.2290  173.8640  139.3520 C   0  0  0  0  0  0  0  0  0  0  0  0
  1  3  1  0  0  0  0
  1 14  1  0  0  0  0
  2  1  2  0  0  0  0
  3  5  1  0  0  0  0
  5  4  2  0  0  0  0
  6  7  1  0  0  0  0
  6  3  2  0  0  0  0
  7  8  2  0  0  0  0
  8  4  1  0  0  0  0
  9 11  1  0  0  0  0
 10 11  2  0  0  0  0
 11  7  1  0  0  0  0
 12 15  1  0  0  0  0
 14 12  1  0  0  0  0
 14 13  2  0  0  0  0
 16 15  1  0  0  0  0
 17 19  1  0  0  0  0
 18 17  2  0  0  0  0
 18 20  1  0  0  0  0
 19 16  1  0  0  0  0
 20 16  2  0  0  0  0
 21  2  1  0  0  0  0
 22 21  1  0  0  0  0
 23 22  3  0  0  0  0
 24 26  2  0  0  0  0
 25 26  1  0  0  0  0
 26 23  1  0  0  0  0
M  END
>  <MODEL>
7

>  <REMARK>
 VINA RESULT:      -6.6      2.716      3.257
  Name = 
  8 active torsions:
  status: ('A' for Active; 'I' for Inactive)
    1  A    between atoms: C_2  and  C_12
    2  A    between atoms: C_4  and  C_25
    3  A    between atoms: N_5  and  C_25
    4  A    between atoms: C_8  and  C_12
    5  A    between atoms: C_17  and  C_26
    6  A    between atoms: C_18  and  C_22
    7  A    between atoms: C_19  and  C_20
    8  A    between atoms: C_23  and  C_26
                            x       y       z     vdW  Elec       q    Type
                         _______ _______ _______ _____ _____    ______ ____

>  <TORSDO>
F 8

$$$$
=
 OpenBabel11042417203D

 26 27  0  0  0  0  0  0  0  0999 V2000
  189.2250  176.4980  146.6870 C   0  0  0  0  0  0  0  0  0  0  0  0
  190.2630  177.1450  147.2420 C   0  0  0  0  0  3  0  0  0  0  0  0
  188.0370  177.2890  146.2630 C   0  0  0  0  0  0  0  0  0  0  0  0
  186.0020  178.5120  146.8090 C   0  0  0  0  0  3  0  0  0  0  0  0
  187.1230  177.7820  147.2110 C   0  0  0  0  0  3  0  0  0  0  0  0
  187.7930  177.5390  144.9040 C   0  0  0  0  0  3  0  0  0  0  0  0
  186.6720  178.2710  144.4890 C   0  0  0  0  0  0  0  0  0  0  0  0
  185.7780  178.7560  145.4530 C   0  0  0  0  0  3  0  0  0  0  0  0
  187.4840  178.3350  142.1090 N   0  0  0  0  0  1  0  0  0  0  0  0
  185.3070  178.9110  142.6570 O   0  0  0  0  0  0  0  0  0  0  0  0
  186.4370  178.5240  143.0570 C   0  0  0  0  0  0  0  0  0  0  0  0
  189.6830  174.4620  145.2480 N   0  0  0  0  0  2  0  0  0  0  0  0
  188.8940  174.2630  147.4320 O   0  0  0  0  0  0  0  0  0  0  0  0
  189.2470  175.0250  146.4900 C   0  0  0  0  0  0  0  0  0  0  0  0
  189.8100  173.0270  145.0320 C   0  0  0  0  0  2  0  0  0  0  0  0
  191.0410  172.7310  144.2460 C   0  0  0  0  0  0  0  0  0  0  0  0
  193.0980  172.4290  143.6400 C   0  0  0  0  0  3  0  0  0  0  0  0
  192.2850  172.0510  142.6330 N   0  0  0  0  0  0  0  0  0  0  0  0
  192.3330  172.8720  144.7060 C   0  0  0  0  0  2  0  0  0  0  0  0
  191.0300  172.2290  143.0020 N   0  0  0  0  0  0  0  0  0  0  0  0
  191.5370  176.5040  147.6810 C   0  0  0  0  0  2  0  0  0  0  0  0
  192.4650  176.4340  146.5520 C   0  0  0  0  0  0  0  0  0  0  0  0
  193.2310  176.3770  145.6230 C   0  0  0  0  0  0  0  0  0  0  0  0
  193.6770  175.9600  143.2550 O   0  0  0  0  0  0  0  0  0  0  0  0
  195.3610  176.5610  144.6880 O   0  0  0  0  0  1  0  0  0  0  0  0
  194.1420  176.3070  144.5160 C   0  0  0  0  0  0  0  0  0  0  0  0
  1  2  2  0  0  0  0
  2 21  1  0  0  0  0
  3  1  1  0  0  0  0
  3  5  1  0  0  0  0
  4  5  2  0  0  0  0
  6  3  2  0  0  0  0
  7  6  1  0  0  0  0
  7  8  2  0  0  0  0
  8  4  1  0  0  0  0
  9 11  1  0  0  0  0
 10 11  2  0  0  0  0
 11  7  1  0  0  0  0
 12 14  1  0  0  0  0
 14  1  1  0  0  0  0
 14 13  2  0  0  0  0
 15 12  1  0  0  0  0
 16 19  1  0  0  0  0
 16 15  1  0  0  0  0
 17 19  1  0  0  0  0
 18 20  1  0  0  0  0
 18 17  2  0  0  0  0
 20 16  2  0  0  0  0
 22 21  1  0  0  0  0
 23 22  3  0  0  0  0
 24 26  2  0  0  0  0
 26 25  1  0  0  0  0
 26 23  1  0  0  0  0
M  END
>  <MODEL>
8

>  <REMARK>
 VINA RESULT:      -6.5      2.689      3.706
  Name = 
  8 active torsions:
  status: ('A' for Active; 'I' for Inactive)
    1  A    between atoms: C_2  and  C_12
    2  A    between atoms: C_4  and  C_25
    3  A    between atoms: N_5  and  C_25
    4  A    between atoms: C_8  and  C_12
    5  A    between atoms: C_17  and  C_26
    6  A    between atoms: C_18  and  C_22
    7  A    between atoms: C_19  and  C_20
    8  A    between atoms: C_23  and  C_26
                            x       y       z     vdW  Elec       q    Type
                         _______ _______ _______ _____ _____    ______ ____

>  <TORSDO>
F 8

$$$$
=
 OpenBabel11042417203D

 26 27  0  0  0  0  0  0  0  0999 V2000
  190.8830  175.3440  145.6280 C   0  0  0  0  0  0  0  0  0  0  0  0
  190.2810  175.3880  146.8270 C   0  0  0  0  0  3  0  0  0  0  0  0
  192.2920  175.8140  145.5210 C   0  0  0  0  0  0  0  0  0  0  0  0
  194.2600  176.8510  146.5140 C   0  0  0  0  0  3  0  0  0  0  0  0
  192.9430  176.3990  146.6220 C   0  0  0  0  0  3  0  0  0  0  0  0
  192.9930  175.7020  144.3100 C   0  0  0  0  0  3  0  0  0  0  0  0
  194.3150  176.1520  144.1910 C   0  0  0  0  0  0  0  0  0  0  0  0
  194.9440  176.7270  145.3030 C   0  0  0  0  0  3  0  0  0  0  0  0
  194.5770  175.1080  141.9170 N   0  0  0  0  0  1  0  0  0  0  0  0
  196.0570  176.7180  142.6830 O   0  0  0  0  0  0  0  0  0  0  0  0
  195.0330  176.0220  142.9110 C   0  0  0  0  0  0  0  0  0  0  0  0
  189.4130  175.7250  143.5980 N   0  0  0  0  0  2  0  0  0  0  0  0
  190.2630  173.6170  144.1140 O   0  0  0  0  0  0  0  0  0  0  0  0
  190.1760  174.8380  144.4230 C   0  0  0  0  0  0  0  0  0  0  0  0
  188.7770  175.3010  142.3590 C   0  0  0  0  0  2  0  0  0  0  0  0
  187.5920  176.1570  142.0680 C   0  0  0  0  0  0  0  0  0  0  0  0
  185.7400  177.2680  142.2300 C   0  0  0  0  0  3  0  0  0  0  0  0
  186.3100  177.5380  141.0380 N   0  0  0  0  0  0  0  0  0  0  0  0
  186.5400  176.3820  142.9310 C   0  0  0  0  0  2  0  0  0  0  0  0
  187.4410  176.8660  140.9390 N   0  0  0  0  0  0  0  0  0  0  0  0
  188.8920  174.9190  147.1060 C   0  0  0  0  0  2  0  0  0  0  0  0
  187.9550  176.0290  146.9260 C   0  0  0  0  0  0  0  0  0  0  0  0
  187.1830  176.9430  146.7770 C   0  0  0  0  0  0  0  0  0  0  0  0
  186.3070  178.7960  145.4440 O   0  0  0  0  0  0  0  0  0  0  0  0
  185.4180  178.2900  147.4940 O   0  0  0  0  0  1  0  0  0  0  0  0
  186.2630  178.0300  146.6010 C   0  0  0  0  0  0  0  0  0  0  0  0
  1  2  2  0  0  0  0
  2 21  1  0  0  0  0
  3  1  1  0  0  0  0
  3  5  1  0  0  0  0
  4  5  2  0  0  0  0
  6  3  2  0  0  0  0
  7  6  1  0  0  0  0
  7  8  2  0  0  0  0
  8  4  1  0  0  0  0
  9 11  1  0  0  0  0
 10 11  2  0  0  0  0
 11  7  1  0  0  0  0
 12 14  1  0  0  0  0
 13 14  2  0  0  0  0
 14  1  1  0  0  0  0
 15 12  1  0  0  0  0
 16 15  1  0  0  0  0
 16 19  1  0  0  0  0
 17 19  1  0  0  0  0
 18 17  2  0  0  0  0
 20 18  1  0  0  0  0
 20 16  2  0  0  0  0
 22 21  1  0  0  0  0
 23 22  3  0  0  0  0
 24 26  2  0  0  0  0
 26 23  1  0  0  0  0
 26 25  1  0  0  0  0
M  END
>  <MODEL>
9

>  <REMARK>
 VINA RESULT:      -6.5      2.627      7.267
  Name = 
  8 active torsions:
  status: ('A' for Active; 'I' for Inactive)
    1  A    between atoms: C_2  and  C_12
    2  A    between atoms: C_4  and  C_25
    3  A    between atoms: N_5  and  C_25
    4  A    between atoms: C_8  and  C_12
    5  A    between atoms: C_17  and  C_26
    6  A    between atoms: C_18  and  C_22
    7  A    between atoms: C_19  and  C_20
    8  A    between atoms: C_23  and  C_26
                            x       y       z     vdW  Elec       q    Type
                         _______ _______ _______ _____ _____    ______ ____

>  <TORSDO>
F 8

$$$$
