=
 OpenBabel11042419253D

 40 45  0  0  1  0  0  0  0  0999 V2000
  189.1220  172.2900  141.4950 C   0  0  0  0  0  3  0  0  0  0  0  0
  187.2170  178.2560  144.3380 C   0  0  0  0  0  2  0  0  0  0  0  0
  190.1720  176.2690  144.0120 C   0  0  0  0  0  0  0  0  0  0  0  0
  194.3550  175.0340  145.8290 C   0  0  1  0  0  3  0  0  0  0  0  0
  193.4420  174.2920  143.5940 C   0  0  1  0  0  3  0  0  0  0  0  0
  188.2250  176.3810  143.0070 C   0  0  0  0  0  0  0  0  0  0  0  0
  189.9040  174.5920  142.0960 C   0  0  0  0  0  0  0  0  0  0  0  0
  188.9530  173.4390  142.1530 C   0  0  0  0  0  3  0  0  0  0  0  0
  193.7570  176.4010  145.4610 C   0  0  0  0  0  2  0  0  0  0  0  0
  190.2930  171.9030  140.6810 C   0  0  0  0  0  0  0  0  0  0  0  0
  191.2920  174.1740  142.5190 C   0  0  1  0  0  3  0  0  0  0  0  0
  191.5480  175.8430  144.3180 C   0  0  0  0  0  0  0  0  0  0  0  0
  189.4200  175.6980  142.9990 C   0  0  0  0  0  0  0  0  0  0  0  0
  191.5540  172.2800  140.9300 C   0  0  0  0  0  3  0  0  0  0  0  0
  188.3320  177.3180  144.0060 C   0  0  0  0  0  0  0  0  0  0  0  0
  190.0790  171.0120  139.6370 O   0  0  0  0  0  1  0  0  0  0  0  0
  192.2340  176.4040  145.5400 C   0  0  0  0  0  2  0  0  0  0  0  0
  192.0090  173.1970  141.9930 C   0  0  0  0  0  0  0  0  0  0  0  0
  193.3730  173.1040  142.6250 C   0  0  1  0  0  3  0  0  0  0  0  0
  187.0510  176.2930  142.0860 C   0  0  0  0  0  2  0  0  0  0  0  0
  186.3140  178.3940  143.1780 N   0  0  0  0  0  0  0  0  0  0  0  0
  189.4990  177.2320  144.6090 O   0  0  0  0  0  0  0  0  0  0  0  0
  192.0620  174.8560  143.5530 C   0  0  0  0  0  0  0  0  0  0  0  0
  193.8000  173.8610  145.0070 C   0  0  0  0  0  2  0  0  0  0  0  0
  185.8760  177.0720  142.6990 C   0  0  0  0  0  2  0  0  0  0  0  0
  194.4710  173.1920  141.6040 C   0  0  0  0  0  0  0  0  0  0  0  0
  195.1610  172.2110  141.3830 O   0  0  0  0  0  0  0  0  0  0  0  0
  194.7350  174.4590  140.8560 C   0  0  0  0  0  1  0  0  0  0  0  0
  183.9470  178.4440  143.3010 O   0  0  0  0  0  1  0  0  0  0  0  0
  185.1230  179.1620  143.5540 C   0  0  1  0  0  3  0  0  0  0  0  0
  185.1820  179.5130  144.9050 O   0  0  0  0  0  0  0  0  0  0  0  0
  184.0710  178.8940  145.4810 C   0  0  0  0  0  2  0  0  0  0  0  0
  184.4590  178.2650  146.8060 C   0  0  1  0  0  3  0  0  0  0  0  0
  184.9610  176.8570  146.5630 C   0  0  0  0  0  1  0  0  0  0  0  0
  185.5090  179.0480  147.4330 N   0  0  0  0  0  1  0  0  0  0  0  0
  195.7430  175.0860  145.6860 O   0  0  0  0  0  0  0  0  0  0  0  0
  195.9610  175.9700  144.6260 C   0  0  0  0  0  2  0  0  0  0  0  0
  197.0000  175.4130  143.7200 C   0  0  0  0  0  0  0  0  0  0  0  0
  197.7800  176.2670  142.9510 O   0  0  0  0  0  0  0  0  0  0  0  0
  197.2000  174.1720  143.6770 O   0  0  0  0  0  1  0  0  0  0  0  0
  1  8  1  0  0  0  0
  3 12  1  0  0  0  0
  3 22  1  0  0  0  0
  4 36  1  6  0  0  0
  5 24  1  1  0  0  0
  6 15  2  0  0  0  0
  7  8  2  0  0  0  0
  7 11  1  0  0  0  0
  7 13  1  0  0  0  0
  9 17  1  0  0  0  0
  9  4  1  0  0  0  0
 10 14  1  0  0  0  0
 10  1  2  0  0  0  0
 11 18  1  6  0  0  0
 11 23  1  0  0  0  0
 12 17  1  0  0  0  0
 13  6  1  0  0  0  0
 13  3  2  0  0  0  0
 14 18  2  0  0  0  0
 15  2  1  0  0  0  0
 15 22  1  0  0  0  0
 16 10  1  0  0  0  0
 18 19  1  0  0  0  0
 19 26  1  6  0  0  0
 19  5  1  0  0  0  0
 20 25  1  0  0  0  0
 20  6  1  0  0  0  0
 21 30  1  0  0  0  0
 21  2  1  0  0  0  0
 23  5  1  0  0  0  0
 23 12  2  0  0  0  0
 24  4  1  0  0  0  0
 25 21  1  0  0  0  0
 27 26  2  0  0  0  0
 28 26  1  0  0  0  0
 30 29  1  1  0  0  0
 30 31  1  0  0  0  0
 31 32  1  0  0  0  0
 32 33  1  0  0  0  0
 33 34  1  6  0  0  0
 33 35  1  0  0  0  0
 37 36  1  0  0  0  0
 38 37  1  0  0  0  0
 39 38  2  0  0  0  0
 40 38  1  0  0  0  0
M  END
>  <MODEL>
1

>  <REMARK>
 VINA RESULT:      -7.7      0.000      0.000
  Name = 
  8 active torsions:
  status: ('A' for Active; 'I' for Inactive)
    1  A    between atoms: O_3  and  C_4
    2  A    between atoms: O_3  and  C_19
    3  A    between atoms: C_4  and  C_25
    4  A    between atoms: C_6  and  O_38
    5  A    between atoms: C_7  and  C_30
    6  A    between atoms: C_15  and  C_20
    7  A    between atoms: C_19  and  N_33
    8  A    between atoms: C_20  and  O_38
                            x       y       z     vdW  Elec       q    Type
                         _______ _______ _______ _____ _____    ______ ____

>  <TORSDO>
F 8

$$$$
=
 OpenBabel11042419253D

 40 45  0  0  1  0  0  0  0  0999 V2000
  186.6530  177.5880  140.2580 C   0  0  0  0  0  3  0  0  0  0  0  0
  190.5480  171.9570  139.6110 C   0  0  0  0  0  2  0  0  0  0  0  0
  189.5520  174.2430  142.1750 C   0  0  0  0  0  0  0  0  0  0  0  0
  190.6020  176.3010  146.2950 C   0  0  1  0  0  3  0  0  0  0  0  0
  188.4250  176.5450  145.0380 C   0  0  1  0  0  3  0  0  0  0  0  0
  188.8400  173.7110  140.1670 C   0  0  0  0  0  0  0  0  0  0  0  0
  187.4680  175.5390  141.4430 C   0  0  2  0  0  3  0  0  0  0  0  0
  187.4850  176.5480  140.3400 C   0  0  0  0  0  3  0  0  0  0  0  0
  190.5160  174.8260  145.8760 C   0  0  0  0  0  2  0  0  0  0  0  0
  185.6440  177.9930  141.2590 C   0  0  0  0  0  0  0  0  0  0  0  0
  187.6390  176.2010  142.7900 C   0  0  0  0  0  0  0  0  0  0  0  0
  189.6080  174.8930  143.4950 C   0  0  0  0  0  0  0  0  0  0  0  0
  188.5760  174.5370  141.2370 C   0  0  0  0  0  0  0  0  0  0  0  0
  185.7750  177.8330  142.5830 C   0  0  0  0  0  3  0  0  0  0  0  0
  189.9400  172.9700  140.5260 C   0  0  0  0  0  0  0  0  0  0  0  0
  184.5210  178.6670  140.7980 O   0  0  0  0  0  1  0  0  0  0  0  0
  190.7960  174.6320  144.3890 C   0  0  0  0  0  2  0  0  0  0  0  0
  186.8870  177.1670  143.2870 C   0  0  0  0  0  0  0  0  0  0  0  0
  187.3130  177.5420  144.6820 C   0  0  1  0  0  3  0  0  0  0  0  0
  188.0800  173.4920  138.9000 C   0  0  0  0  0  2  0  0  0  0  0  0
  189.5500  171.5150  138.6170 N   0  0  0  0  0  0  0  0  0  0  0  0
  190.3640  173.3070  141.7260 O   0  0  0  0  0  0  0  0  0  0  0  0
  188.6480  175.8030  143.7650 C   0  0  0  0  0  0  0  0  0  0  0  0
  189.7010  177.2420  145.4800 C   0  0  0  0  0  2  0  0  0  0  0  0
  188.9490  172.6720  137.9320 C   0  0  0  0  0  2  0  0  0  0  0  0
  186.1790  177.4380  145.6610 C   0  0  0  0  0  0  0  0  0  0  0  0
  185.6170  176.3660  145.8130 O   0  0  0  0  0  0  0  0  0  0  0  0
  185.7240  178.6230  146.4510 C   0  0  0  0  0  1  0  0  0  0  0  0
  189.6840  170.9260  136.3250 O   0  0  0  0  0  1  0  0  0  0  0  0
  190.1870  170.6660  137.6060 C   0  0  1  0  0  3  0  0  0  0  0  0
  191.5710  170.8540  137.6190 O   0  0  0  0  0  0  0  0  0  0  0  0
  191.9010  171.1560  136.2960 C   0  0  0  0  0  2  0  0  0  0  0  0
  192.9100  172.2870  136.2610 C   0  0  1  0  0  3  0  0  0  0  0  0
  192.1820  173.6120  136.3420 C   0  0  0  0  0  1  0  0  0  0  0  0
  193.8210  172.1690  137.3860 N   0  0  0  0  0  1  0  0  0  0  0  0
  190.2840  176.4130  147.6500 O   0  0  0  0  0  0  0  0  0  0  0  0
  191.4510  176.8890  148.2540 C   0  0  0  0  0  2  0  0  0  0  0  0
  191.1170  178.0200  149.1590 C   0  0  0  0  0  0  0  0  0  0  0  0
  190.1390  178.9360  148.7930 O   0  0  0  0  0  0  0  0  0  0  0  0
  191.6920  178.1280  150.2720 O   0  0  0  0  0  1  0  0  0  0  0  0
  1  8  2  0  0  0  0
  1 10  1  0  0  0  0
  2 15  1  0  0  0  0
  3 12  1  0  0  0  0
  4 36  1  1  0  0  0
  5 24  1  6  0  0  0
  6 15  2  0  0  0  0
  6 13  1  0  0  0  0
  7  8  1  6  0  0  0
  7 11  1  0  0  0  0
  9  4  1  0  0  0  0
 10 14  2  0  0  0  0
 11 18  2  0  0  0  0
 11 23  1  0  0  0  0
 12 23  2  0  0  0  0
 12 17  1  0  0  0  0
 13  7  1  0  0  0  0
 13  3  2  0  0  0  0
 14 18  1  0  0  0  0
 15 22  1  0  0  0  0
 16 10  1  0  0  0  0
 17  9  1  0  0  0  0
 18 19  1  0  0  0  0
 19  5  1  0  0  0  0
 19 26  1  1  0  0  0
 20  6  1  0  0  0  0
 21  2  1  0  0  0  0
 22  3  1  0  0  0  0
 23  5  1  0  0  0  0
 24  4  1  0  0  0  0
 25 21  1  0  0  0  0
 25 20  1  0  0  0  0
 26 27  2  0  0  0  0
 26 28  1  0  0  0  0
 30 29  1  6  0  0  0
 30 31  1  0  0  0  0
 30 21  1  0  0  0  0
 32 31  1  0  0  0  0
 33 32  1  0  0  0  0
 33 34  1  1  0  0  0
 33 35  1  0  0  0  0
 36 37  1  0  0  0  0
 37 38  1  0  0  0  0
 38 40  1  0  0  0  0
 39 38  2  0  0  0  0
M  END
>  <MODEL>
2

>  <REMARK>
 VINA RESULT:      -7.2      4.041      8.306
  Name = 
  8 active torsions:
  status: ('A' for Active; 'I' for Inactive)
    1  A    between atoms: O_3  and  C_4
    2  A    between atoms: O_3  and  C_19
    3  A    between atoms: C_4  and  C_25
    4  A    between atoms: C_6  and  O_38
    5  A    between atoms: C_7  and  C_30
    6  A    between atoms: C_15  and  C_20
    7  A    between atoms: C_19  and  N_33
    8  A    between atoms: C_20  and  O_38
                            x       y       z     vdW  Elec       q    Type
                         _______ _______ _______ _____ _____    ______ ____

>  <TORSDO>
F 8

$$$$
=
 OpenBabel11042419253D

 40 45  0  0  1  0  0  0  0  0999 V2000
  186.0960  179.7320  146.7550 C   0  0  0  0  0  3  0  0  0  0  0  0
  183.1190  178.1700  140.7550 C   0  0  0  0  0  2  0  0  0  0  0  0
  186.0690  177.3090  142.5840 C   0  0  0  0  0  0  0  0  0  0  0  0
  190.5600  175.8510  142.4290 C   0  0  1  0  0  3  0  0  0  0  0  0
  189.1930  176.1950  144.5250 C   0  0  1  0  0  3  0  0  0  0  0  0
  184.1330  178.2310  143.0520 C   0  0  0  0  0  0  0  0  0  0  0  0
  185.7880  177.9200  145.0540 C   0  0  0  0  0  0  0  0  0  0  0  0
  185.7190  179.3330  145.5390 C   0  0  0  0  0  3  0  0  0  0  0  0
  189.2670  175.2570  141.8520 C   0  0  0  0  0  2  0  0  0  0  0  0
  186.7310  178.9010  147.7990 C   0  0  0  0  0  0  0  0  0  0  0  0
  187.1960  177.3800  145.1530 C   0  0  0  0  0  0  0  0  0  0  0  0
  187.4150  176.7430  142.7790 C   0  0  0  0  0  0  0  0  0  0  0  0
  185.3260  177.8470  143.6220 C   0  0  0  0  0  0  0  0  0  0  0  0
  187.5620  177.8780  147.5610 C   0  0  0  0  0  3  0  0  0  0  0  0
  184.2250  177.8950  141.7220 C   0  0  0  0  0  0  0  0  0  0  0  0
  186.5180  179.2650  149.1230 O   0  0  0  0  0  1  0  0  0  0  0  0
  188.2170  176.3270  141.5700 C   0  0  0  0  0  2  0  0  0  0  0  0
  187.9420  177.3370  146.2420 C   0  0  0  0  0  0  0  0  0  0  0  0
  189.2700  176.6760  145.9800 C   0  0  1  0  0  3  0  0  0  0  0  0
  182.8920  178.7800  143.6760 C   0  0  0  0  0  2  0  0  0  0  0  0
  181.8400  178.3060  141.4810 N   0  0  0  0  0  0  0  0  0  0  0  0
  185.3940  177.3550  141.4530 O   0  0  0  0  0  0  0  0  0  0  0  0
  187.9050  176.7650  144.0370 C   0  0  2  0  0  3  0  0  0  0  0  0
  190.3550  176.7070  143.6890 C   0  0  0  0  0  2  0  0  0  0  0  0
  181.9590  179.2930  142.5670 C   0  0  0  0  0  2  0  0  0  0  0  0
  189.5120  175.5190  146.9070 C   0  0  0  0  0  0  0  0  0  0  0  0
  188.6380  174.6810  147.0560 O   0  0  0  0  0  0  0  0  0  0  0  0
  190.8000  175.3750  147.6500 C   0  0  0  0  0  1  0  0  0  0  0  0
  180.3110  177.7080  139.7700 O   0  0  0  0  0  1  0  0  0  0  0  0
  180.7870  178.7570  140.5660 C   0  0  1  0  0  3  0  0  0  0  0  0
  179.7310  179.3220  141.2860 O   0  0  0  0  0  0  0  0  0  0  0  0
  178.6540  178.4590  141.0730 C   0  0  0  0  0  2  0  0  0  0  0  0
  177.9490  178.1780  142.3860 C   0  0  1  0  0  3  0  0  0  0  0  0
  178.1550  176.7260  142.7640 C   0  0  0  0  0  1  0  0  0  0  0  0
  178.4940  179.0290  143.4290 N   0  0  0  0  0  1  0  0  0  0  0  0
  191.4540  174.8170  142.7110 O   0  0  0  0  0  0  0  0  0  0  0  0
  192.7100  175.4270  142.7470 C   0  0  0  0  0  2  0  0  0  0  0  0
  193.4550  174.9650  143.9480 C   0  0  0  0  0  0  0  0  0  0  0  0
  194.8040  175.2640  144.0860 O   0  0  0  0  0  0  0  0  0  0  0  0
  192.8550  174.3360  144.8580 O   0  0  0  0  0  1  0  0  0  0  0  0
  1 10  1  0  0  0  0
  2 21  1  0  0  0  0
  2 15  1  0  0  0  0
  3 12  2  0  0  0  0
  3 13  1  0  0  0  0
  4 36  1  1  0  0  0
  4 24  1  0  0  0  0
  5 24  1  6  0  0  0
  5 19  1  0  0  0  0
  6 13  1  0  0  0  0
  6 20  1  0  0  0  0
  7 11  1  0  0  0  0
  7  8  1  0  0  0  0
  8  1  2  0  0  0  0
  9  4  1  0  0  0  0
 10 16  1  0  0  0  0
 11 18  2  0  0  0  0
 13  7  2  0  0  0  0
 14 10  2  0  0  0  0
 15  6  2  0  0  0  0
 17  9  1  0  0  0  0
 17 12  1  0  0  0  0
 18 14  1  0  0  0  0
 19 18  1  0  0  0  0
 19 26  1  1  0  0  0
 21 25  1  0  0  0  0
 22 15  1  0  0  0  0
 22  3  1  0  0  0  0
 23 12  1  1  0  0  0
 23  5  1  0  0  0  0
 23 11  1  0  0  0  0
 25 20  1  0  0  0  0
 26 27  2  0  0  0  0
 26 28  1  0  0  0  0
 30 29  1  1  0  0  0
 30 31  1  0  0  0  0
 30 21  1  0  0  0  0
 32 31  1  0  0  0  0
 32 33  1  0  0  0  0
 33 34  1  1  0  0  0
 33 35  1  0  0  0  0
 36 37  1  0  0  0  0
 37 38  1  0  0  0  0
 38 39  2  0  0  0  0
 38 40  1  0  0  0  0
M  END
>  <MODEL>
3

>  <REMARK>
 VINA RESULT:      -7.2      3.427      6.513
  Name = 
  8 active torsions:
  status: ('A' for Active; 'I' for Inactive)
    1  A    between atoms: O_3  and  C_4
    2  A    between atoms: O_3  and  C_19
    3  A    between atoms: C_4  and  C_25
    4  A    between atoms: C_6  and  O_38
    5  A    between atoms: C_7  and  C_30
    6  A    between atoms: C_15  and  C_20
    7  A    between atoms: C_19  and  N_33
    8  A    between atoms: C_20  and  O_38
                            x       y       z     vdW  Elec       q    Type
                         _______ _______ _______ _____ _____    ______ ____

>  <TORSDO>
F 8

$$$$
=
 OpenBabel11042419253D

 40 45  0  0  1  0  0  0  0  0999 V2000
  185.9670  179.4150  146.4840 C   0  0  0  0  0  3  0  0  0  0  0  0
  182.7430  178.3000  140.5130 C   0  0  0  0  0  2  0  0  0  0  0  0
  185.6800  177.1800  142.2190 C   0  0  0  0  0  0  0  0  0  0  0  0
  190.0650  175.4570  141.8750 C   0  0  1  0  0  3  0  0  0  0  0  0
  188.7770  175.7930  144.0220 C   0  0  1  0  0  3  0  0  0  0  0  0
  183.8180  178.1990  142.7800 C   0  0  0  0  0  0  0  0  0  0  0  0
  185.5020  177.7000  144.7190 C   0  0  0  0  0  0  0  0  0  0  0  0
  185.5340  179.0920  145.2640 C   0  0  0  0  0  3  0  0  0  0  0  0
  188.7220  174.9690  141.3110 C   0  0  0  0  0  2  0  0  0  0  0  0
  186.5750  178.5010  147.4750 C   0  0  0  0  0  0  0  0  0  0  0  0
  186.8750  177.0710  144.7550 C   0  0  0  0  0  0  0  0  0  0  0  0
  186.9920  176.5250  142.3520 C   0  0  0  0  0  0  0  0  0  0  0  0
  184.9990  177.7180  143.2990 C   0  0  0  0  0  0  0  0  0  0  0  0
  187.3340  177.4400  147.1700 C   0  0  0  0  0  3  0  0  0  0  0  0
  183.8540  177.9160  141.4350 C   0  0  0  0  0  0  0  0  0  0  0  0
  186.4200  178.8200  148.8180 O   0  0  0  0  0  1  0  0  0  0  0  0
  187.7350  176.1130  141.1040 C   0  0  0  0  0  2  0  0  0  0  0  0
  187.6450  176.9350  145.8200 C   0  0  0  0  0  0  0  0  0  0  0  0
  188.9220  176.2050  145.4930 C   0  0  1  0  0  3  0  0  0  0  0  0
  182.6300  178.7950  143.4610 C   0  0  0  0  0  2  0  0  0  0  0  0
  181.4940  178.4820  141.2790 N   0  0  0  0  0  0  0  0  0  0  0  0
  184.9800  177.3170  141.1100 O   0  0  0  0  0  0  0  0  0  0  0  0
  187.5150  176.4610  143.5950 C   0  0  2  0  0  3  0  0  0  0  0  0
  189.9460  176.2680  143.1750 C   0  0  0  0  0  2  0  0  0  0  0  0
  181.7040  179.4130  142.4020 C   0  0  0  0  0  2  0  0  0  0  0  0
  189.1140  174.9960  146.3630 C   0  0  0  0  0  0  0  0  0  0  0  0
  188.7950  175.0500  147.5400 O   0  0  0  0  0  0  0  0  0  0  0  0
  189.6910  173.7300  145.8170 C   0  0  0  0  0  1  0  0  0  0  0  0
  179.2180  178.3990  140.6200 O   0  0  0  0  0  1  0  0  0  0  0  0
  180.4480  179.0370  140.4150 C   0  0  1  0  0  3  0  0  0  0  0  0
  180.3140  180.4090  140.6390 O   0  0  0  0  0  0  0  0  0  0  0  0
  179.0720  180.7380  140.0920 C   0  0  0  0  0  2  0  0  0  0  0  0
  179.2010  181.9760  139.2250 C   0  0  1  0  0  3  0  0  0  0  0  0
  178.6650  181.6760  137.8410 C   0  0  0  0  0  1  0  0  0  0  0  0
  178.4400  183.0670  139.8090 N   0  0  0  0  0  1  0  0  0  0  0  0
  190.9000  174.3580  142.0890 O   0  0  0  0  0  0  0  0  0  0  0  0
  190.1110  173.2450  141.7900 C   0  0  0  0  0  2  0  0  0  0  0  0
  190.8870  172.0020  142.0420 C   0  0  0  0  0  0  0  0  0  0  0  0
  192.2320  172.0800  142.3780 O   0  0  0  0  0  1  0  0  0  0  0  0
  190.3170  170.8820  141.9890 O   0  0  0  0  0  0  0  0  0  0  0  0
  1 10  1  0  0  0  0
  2 21  1  0  0  0  0
  2 15  1  0  0  0  0
  3 12  2  0  0  0  0
  3 13  1  0  0  0  0
  4 36  1  1  0  0  0
  4 24  1  0  0  0  0
  5 24  1  6  0  0  0
  5 19  1  0  0  0  0
  6 13  1  0  0  0  0
  6 20  1  0  0  0  0
  7 11  1  0  0  0  0
  7  8  1  0  0  0  0
  8  1  2  0  0  0  0
  9  4  1  0  0  0  0
 10 16  1  0  0  0  0
 11 18  2  0  0  0  0
 13  7  2  0  0  0  0
 14 10  2  0  0  0  0
 15  6  2  0  0  0  0
 17  9  1  0  0  0  0
 17 12  1  0  0  0  0
 18 14  1  0  0  0  0
 19 18  1  0  0  0  0
 19 26  1  1  0  0  0
 21 25  1  0  0  0  0
 22 15  1  0  0  0  0
 22  3  1  0  0  0  0
 23 12  1  1  0  0  0
 23  5  1  0  0  0  0
 23 11  1  0  0  0  0
 25 20  1  0  0  0  0
 26 27  2  0  0  0  0
 28 26  1  0  0  0  0
 30 29  1  1  0  0  0
 30 31  1  0  0  0  0
 30 21  1  0  0  0  0
 32 31  1  0  0  0  0
 33 34  1  6  0  0  0
 33 35  1  0  0  0  0
 33 32  1  0  0  0  0
 37 38  1  0  0  0  0
 37 36  1  0  0  0  0
 38 39  1  0  0  0  0
 40 38  2  0  0  0  0
M  END
>  <MODEL>
4

>  <REMARK>
 VINA RESULT:      -7.1      3.796      7.176
  Name = 
  8 active torsions:
  status: ('A' for Active; 'I' for Inactive)
    1  A    between atoms: O_3  and  C_4
    2  A    between atoms: O_3  and  C_19
    3  A    between atoms: C_4  and  C_25
    4  A    between atoms: C_6  and  O_38
    5  A    between atoms: C_7  and  C_30
    6  A    between atoms: C_15  and  C_20
    7  A    between atoms: C_19  and  N_33
    8  A    between atoms: C_20  and  O_38
                            x       y       z     vdW  Elec       q    Type
                         _______ _______ _______ _____ _____    ______ ____

>  <TORSDO>
F 8

$$$$
=
 OpenBabel11042419253D

 40 45  0  0  1  0  0  0  0  0999 V2000
  189.5300  173.2620  140.4590 C   0  0  0  0  0  3  0  0  0  0  0  0
  188.0200  176.2680  146.4580 C   0  0  0  0  0  2  0  0  0  0  0  0
  190.8910  174.9850  144.7540 C   0  0  0  0  0  0  0  0  0  0  0  0
  195.1960  173.0710  145.1010 C   0  0  1  0  0  3  0  0  0  0  0  0
  194.0660  173.7780  142.9560 C   0  0  1  0  0  3  0  0  0  0  0  0
  188.8620  175.6010  144.1880 C   0  0  0  0  0  0  0  0  0  0  0  0
  190.4120  174.7770  142.2470 C   0  0  0  0  0  0  0  0  0  0  0  0
  189.4470  173.7830  141.6850 C   0  0  0  0  0  3  0  0  0  0  0  0
  194.5960  174.3630  145.6770 C   0  0  0  0  0  2  0  0  0  0  0  0
  190.6130  173.4830  139.4770 C   0  0  0  0  0  0  0  0  0  0  0  0
  191.8240  174.2420  142.2140 C   0  0  1  0  0  3  0  0  0  0  0  0
  192.2800  174.5140  144.6240 C   0  0  0  0  0  0  0  0  0  0  0  0
  190.0370  175.1050  143.6700 C   0  0  0  0  0  0  0  0  0  0  0  0
  191.8990  173.6850  139.7920 C   0  0  0  0  0  3  0  0  0  0  0  0
  189.0800  175.7580  145.5360 C   0  0  0  0  0  0  0  0  0  0  0  0
  190.2850  173.3860  138.1320 O   0  0  0  0  0  1  0  0  0  0  0  0
  193.0870  174.2590  145.8730 C   0  0  0  0  0  2  0  0  0  0  0  0
  192.4690  173.8030  141.1480 C   0  0  0  0  0  0  0  0  0  0  0  0
  193.8830  173.4030  141.4790 C   0  0  1  0  0  3  0  0  0  0  0  0
  187.6070  176.0360  143.5030 C   0  0  0  0  0  2  0  0  0  0  0  0
  187.0180  177.0380  145.6940 N   0  0  0  0  0  0  0  0  0  0  0  0
  190.2960  175.3740  145.8630 O   0  0  0  0  0  0  0  0  0  0  0  0
  192.7010  174.2010  143.3800 C   0  0  0  0  0  0  0  0  0  0  0  0
  194.5440  172.6010  143.7920 C   0  0  0  0  0  2  0  0  0  0  0  0
  186.5100  176.2490  144.5590 C   0  0  0  0  0  2  0  0  0  0  0  0
  194.8840  174.1250  140.6230 C   0  0  0  0  0  0  0  0  0  0  0  0
  195.6320  173.4820  139.9060 O   0  0  0  0  0  0  0  0  0  0  0  0
  194.9830  175.6170  140.6360 C   0  0  0  0  0  1  0  0  0  0  0  0
  186.1130  178.5710  147.2600 O   0  0  0  0  0  1  0  0  0  0  0  0
  185.8830  177.3820  146.5560 C   0  0  1  0  0  3  0  0  0  0  0  0
  184.7180  177.5010  145.7950 O   0  0  0  0  0  0  0  0  0  0  0  0
  184.4030  178.8610  145.8370 C   0  0  0  0  0  2  0  0  0  0  0  0
  184.2910  179.4090  144.4270 C   0  0  1  0  0  3  0  0  0  0  0  0
  185.6050  180.0520  144.0350 C   0  0  0  0  0  1  0  0  0  0  0  0
  183.9890  178.3300  143.5020 N   0  0  0  0  0  1  0  0  0  0  0  0
  196.5660  173.2520  144.8980 O   0  0  0  0  0  0  0  0  0  0  0  0
  196.7420  174.6370  144.8500 C   0  0  0  0  0  2  0  0  0  0  0  0
  197.4010  175.0110  143.5710 C   0  0  0  0  0  0  0  0  0  0  0  0
  197.8030  174.0230  142.6820 O   0  0  0  0  0  0  0  0  0  0  0  0
  197.5600  176.2230  143.2760 O   0  0  0  0  0  1  0  0  0  0  0  0
  1  8  1  0  0  0  0
  3 22  1  0  0  0  0
  4 36  1  6  0  0  0
  4  9  1  0  0  0  0
  5 23  1  0  0  0  0
  5 24  1  1  0  0  0
  6 15  2  0  0  0  0
  7 13  1  0  0  0  0
  8  7  2  0  0  0  0
  9 17  1  0  0  0  0
 10 14  1  0  0  0  0
 10  1  2  0  0  0  0
 11 18  1  6  0  0  0
 11  7  1  0  0  0  0
 11 23  1  0  0  0  0
 12  3  1  0  0  0  0
 12 17  1  0  0  0  0
 13  6  1  0  0  0  0
 13  3  2  0  0  0  0
 14 18  2  0  0  0  0
 15 22  1  0  0  0  0
 15  2  1  0  0  0  0
 16 10  1  0  0  0  0
 18 19  1  0  0  0  0
 19 26  1  6  0  0  0
 19  5  1  0  0  0  0
 20  6  1  0  0  0  0
 20 25  1  0  0  0  0
 21  2  1  0  0  0  0
 21 30  1  0  0  0  0
 23 12  2  0  0  0  0
 24  4  1  0  0  0  0
 25 21  1  0  0  0  0
 26 28  1  0  0  0  0
 27 26  2  0  0  0  0
 30 29  1  6  0  0  0
 31 32  1  0  0  0  0
 31 30  1  0  0  0  0
 33 34  1  6  0  0  0
 33 32  1  0  0  0  0
 35 33  1  0  0  0  0
 37 36  1  0  0  0  0
 38 37  1  0  0  0  0
 39 38  2  0  0  0  0
 40 38  1  0  0  0  0
M  END
>  <MODEL>
5

>  <REMARK>
 VINA RESULT:      -7.1      1.593      2.193
  Name = 
  8 active torsions:
  status: ('A' for Active; 'I' for Inactive)
    1  A    between atoms: O_3  and  C_4
    2  A    between atoms: O_3  and  C_19
    3  A    between atoms: C_4  and  C_25
    4  A    between atoms: C_6  and  O_38
    5  A    between atoms: C_7  and  C_30
    6  A    between atoms: C_15  and  C_20
    7  A    between atoms: C_19  and  N_33
    8  A    between atoms: C_20  and  O_38
                            x       y       z     vdW  Elec       q    Type
                         _______ _______ _______ _____ _____    ______ ____

>  <TORSDO>
F 8

$$$$
=
 OpenBabel11042419253D

 40 45  0  0  1  0  0  0  0  0999 V2000
  188.5150  172.5480  139.1660 C   0  0  0  0  0  3  0  0  0  0  0  0
  187.4650  177.4190  143.9070 C   0  0  0  0  0  2  0  0  0  0  0  0
  189.8980  174.9140  143.1360 C   0  0  0  0  0  0  0  0  0  0  0  0
  193.2290  171.9770  144.7470 C   0  0  1  0  0  3  0  0  0  0  0  0
  192.6510  172.3590  142.3180 C   0  0  1  0  0  3  0  0  0  0  0  0
  188.2740  175.9240  142.0590 C   0  0  0  0  0  0  0  0  0  0  0  0
  189.6560  174.1660  140.7000 C   0  0  0  0  0  0  0  0  0  0  0  0
  188.4790  173.3900  140.2010 C   0  0  0  0  0  3  0  0  0  0  0  0
  193.0440  173.4950  144.8850 C   0  0  0  0  0  2  0  0  0  0  0  0
  189.7090  172.1510  138.3920 C   0  0  0  0  0  0  0  0  0  0  0  0
  190.7970  173.2470  141.0660 C   0  0  1  0  0  3  0  0  0  0  0  0
  191.0490  174.0310  143.3920 C   0  0  0  0  0  0  0  0  0  0  0  0
  189.2600  174.9750  141.9080 C   0  0  0  0  0  0  0  0  0  0  0  0
  190.9440  172.0390  138.8980 C   0  0  0  0  0  3  0  0  0  0  0  0
  188.3830  176.3790  143.3510 C   0  0  0  0  0  0  0  0  0  0  0  0
  189.5190  171.7840  137.0660 O   0  0  0  0  0  1  0  0  0  0  0  0
  191.5780  173.9070  144.8000 C   0  0  0  0  0  2  0  0  0  0  0  0
  191.3670  172.3550  140.2760 C   0  0  0  0  0  0  0  0  0  0  0  0
  192.5150  171.6590  140.9590 C   0  0  1  0  0  3  0  0  0  0  0  0
  187.3260  176.5050  141.0610 C   0  0  0  0  0  2  0  0  0  0  0  0
  186.8750  178.2080  142.8070 N   0  0  0  0  0  0  0  0  0  0  0  0
  189.3510  175.7570  143.9890 O   0  0  0  0  0  0  0  0  0  0  0  0
  191.4720  173.2720  142.3590 C   0  0  0  0  0  0  0  0  0  0  0  0
  192.6040  171.3770  143.4780 C   0  0  0  0  0  2  0  0  0  0  0  0
  186.2570  177.3220  141.8050 C   0  0  0  0  0  2  0  0  0  0  0  0
  193.7900  171.7800  140.1750 C   0  0  0  0  0  0  0  0  0  0  0  0
  194.2710  170.7840  139.6590 O   0  0  0  0  0  0  0  0  0  0  0  0
  194.4820  173.0950  140.0150 C   0  0  0  0  0  1  0  0  0  0  0  0
  184.5540  178.6630  142.9760 O   0  0  0  0  0  1  0  0  0  0  0  0
  185.8370  179.1020  143.3280 C   0  0  1  0  0  3  0  0  0  0  0  0
  185.9380  179.2020  144.7170 O   0  0  0  0  0  0  0  0  0  0  0  0
  184.6310  179.0410  145.1810 C   0  0  0  0  0  2  0  0  0  0  0  0
  184.6480  178.4690  146.5860 C   0  0  1  0  0  3  0  0  0  0  0  0
  184.8170  176.9660  146.5120 C   0  0  0  0  0  1  0  0  0  0  0  0
  185.7510  179.0410  147.3370 N   0  0  0  0  0  1  0  0  0  0  0  0
  194.5920  171.6750  144.7810 O   0  0  0  0  0  0  0  0  0  0  0  0
  195.2140  172.8670  145.1590 C   0  0  0  0  0  2  0  0  0  0  0  0
  196.4490  172.5620  145.9280 C   0  0  0  0  0  0  0  0  0  0  0  0
  197.1910  173.5940  146.4870 O   0  0  0  0  0  1  0  0  0  0  0  0
  196.8020  171.3680  146.1060 O   0  0  0  0  0  0  0  0  0  0  0  0
  1  8  1  0  0  0  0
  3 12  1  0  0  0  0
  3 22  1  0  0  0  0
  4 36  1  6  0  0  0
  4  9  1  0  0  0  0
  5 23  1  0  0  0  0
  5 24  1  1  0  0  0
  6 15  2  0  0  0  0
  7 11  1  0  0  0  0
  7 13  1  0  0  0  0
  8  7  2  0  0  0  0
 10 14  1  0  0  0  0
 10  1  2  0  0  0  0
 11 18  1  6  0  0  0
 11 23  1  0  0  0  0
 12 17  1  0  0  0  0
 13  6  1  0  0  0  0
 13  3  2  0  0  0  0
 14 18  2  0  0  0  0
 15  2  1  0  0  0  0
 15 22  1  0  0  0  0
 16 10  1  0  0  0  0
 17  9  1  0  0  0  0
 18 19  1  0  0  0  0
 19 26  1  6  0  0  0
 19  5  1  0  0  0  0
 20 25  1  0  0  0  0
 20  6  1  0  0  0  0
 21 30  1  0  0  0  0
 21  2  1  0  0  0  0
 23 12  2  0  0  0  0
 24  4  1  0  0  0  0
 25 21  1  0  0  0  0
 27 26  2  0  0  0  0
 28 26  1  0  0  0  0
 30 29  1  1  0  0  0
 30 31  1  0  0  0  0
 31 32  1  0  0  0  0
 32 33  1  0  0  0  0
 33 34  1  6  0  0  0
 33 35  1  0  0  0  0
 36 37  1  0  0  0  0
 37 38  1  0  0  0  0
 38 40  2  0  0  0  0
 38 39  1  0  0  0  0
M  END
>  <MODEL>
6

>  <REMARK>
 VINA RESULT:      -7.0      1.790      2.211
  Name = 
  8 active torsions:
  status: ('A' for Active; 'I' for Inactive)
    1  A    between atoms: O_3  and  C_4
    2  A    between atoms: O_3  and  C_19
    3  A    between atoms: C_4  and  C_25
    4  A    between atoms: C_6  and  O_38
    5  A    between atoms: C_7  and  C_30
    6  A    between atoms: C_15  and  C_20
    7  A    between atoms: C_19  and  N_33
    8  A    between atoms: C_20  and  O_38
                            x       y       z     vdW  Elec       q    Type
                         _______ _______ _______ _____ _____    ______ ____

>  <TORSDO>
F 8

$$$$
=
 OpenBabel11042419253D

 40 45  0  0  1  0  0  0  0  0999 V2000
  192.8690  176.5750  144.7890 C   0  0  0  0  0  3  0  0  0  0  0  0
  186.5820  177.2360  142.0810 C   0  0  0  0  0  2  0  0  0  0  0  0
  189.3350  174.9580  141.9310 C   0  0  0  0  0  0  0  0  0  0  0  0
  191.7000  171.7380  139.4100 C   0  0  1  0  0  3  0  0  0  0  0  0
  192.1700  172.3650  141.8110 C   0  0  1  0  0  3  0  0  0  0  0  0
  188.6790  176.5580  143.2840 C   0  0  0  0  0  0  0  0  0  0  0  0
  190.8830  175.3080  143.9410 C   0  0  0  0  0  0  0  0  0  0  0  0
  191.7150  176.5380  144.1210 C   0  0  0  0  0  3  0  0  0  0  0  0
  190.2230  171.8400  139.8200 C   0  0  0  0  0  2  0  0  0  0  0  0
  193.5840  175.4250  145.3820 C   0  0  0  0  0  0  0  0  0  0  0  0
  191.6770  174.2060  143.2810 C   0  0  0  0  0  0  0  0  0  0  0  0
  190.1350  173.8470  141.3890 C   0  0  0  0  0  0  0  0  0  0  0  0
  189.6760  175.6270  143.0960 C   0  0  0  0  0  0  0  0  0  0  0  0
  193.5810  174.1830  144.8790 C   0  0  0  0  0  3  0  0  0  0  0  0
  187.8030  176.3890  142.2380 C   0  0  0  0  0  0  0  0  0  0  0  0
  194.3850  175.6720  146.4880 O   0  0  0  0  0  1  0  0  0  0  0  0
  189.7830  173.2850  140.0330 C   0  0  0  0  0  2  0  0  0  0  0  0
  192.8230  173.7060  143.7070 C   0  0  0  0  0  0  0  0  0  0  0  0
  193.2970  172.5750  142.8310 C   0  0  1  0  0  3  0  0  0  0  0  0
  188.4360  177.5030  144.4140 C   0  0  0  0  0  2  0  0  0  0  0  0
  186.2020  177.8160  143.3840 N   0  0  0  0  0  0  0  0  0  0  0  0
  188.2140  175.4360  141.4290 O   0  0  0  0  0  0  0  0  0  0  0  0
  191.2340  173.4930  142.0880 C   0  0  2  0  0  3  0  0  0  0  0  0
  192.6720  172.4290  140.3780 C   0  0  0  0  0  2  0  0  0  0  0  0
  187.3470  178.5070  144.0010 C   0  0  0  0  0  2  0  0  0  0  0  0
  193.5370  171.3190  143.6180 C   0  0  0  0  0  0  0  0  0  0  0  0
  194.6820  170.9460  143.8140 O   0  0  0  0  0  0  0  0  0  0  0  0
  192.4000  170.5170  144.1650 C   0  0  0  0  0  1  0  0  0  0  0  0
  183.9410  178.1780  142.7670 O   0  0  0  0  0  1  0  0  0  0  0  0
  185.1220  178.7910  143.2060 C   0  0  1  0  0  3  0  0  0  0  0  0
  184.8850  179.4730  144.4020 O   0  0  0  0  0  0  0  0  0  0  0  0
  183.9560  178.6840  145.0830 C   0  0  0  0  0  2  0  0  0  0  0  0
  184.4540  178.3940  146.4860 C   0  0  1  0  0  3  0  0  0  0  0  0
  184.9210  176.9550  146.5650 C   0  0  0  0  0  1  0  0  0  0  0  0
  185.5620  179.2770  146.8070 N   0  0  0  0  0  1  0  0  0  0  0  0
  192.0490  170.3920  139.2830 O   0  0  0  0  0  0  0  0  0  0  0  0
  190.9670  169.6890  139.8180 C   0  0  0  0  0  2  0  0  0  0  0  0
  191.4390  168.8110  140.9210 C   0  0  0  0  0  0  0  0  0  0  0  0
  192.8000  168.6790  141.1690 O   0  0  0  0  0  0  0  0  0  0  0  0
  190.6080  168.2170  141.6540 O   0  0  0  0  0  1  0  0  0  0  0  0
  1 10  1  0  0  0  0
  2 15  1  0  0  0  0
  2 21  1  0  0  0  0
  3 13  1  0  0  0  0
  4 36  1  1  0  0  0
  4  9  1  0  0  0  0
  4 24  1  0  0  0  0
  5 24  1  6  0  0  0
  5 23  1  0  0  0  0
  5 19  1  0  0  0  0
  6 20  1  0  0  0  0
  7  8  1  0  0  0  0
  8  1  2  0  0  0  0
  9 17  1  0  0  0  0
 10 16  1  0  0  0  0
 11 18  2  0  0  0  0
 11  7  1  0  0  0  0
 12  3  2  0  0  0  0
 13  6  1  0  0  0  0
 13  7  2  0  0  0  0
 14 10  2  0  0  0  0
 15  6  2  0  0  0  0
 17 12  1  0  0  0  0
 18 14  1  0  0  0  0
 19 26  1  1  0  0  0
 19 18  1  0  0  0  0
 21 25  1  0  0  0  0
 22  3  1  0  0  0  0
 22 15  1  0  0  0  0
 23 12  1  1  0  0  0
 23 11  1  0  0  0  0
 25 20  1  0  0  0  0
 26 27  2  0  0  0  0
 26 28  1  0  0  0  0
 30 29  1  1  0  0  0
 30 21  1  0  0  0  0
 30 31  1  0  0  0  0
 31 32  1  0  0  0  0
 32 33  1  0  0  0  0
 33 34  1  6  0  0  0
 33 35  1  0  0  0  0
 36 37  1  0  0  0  0
 37 38  1  0  0  0  0
 38 39  2  0  0  0  0
 38 40  1  0  0  0  0
M  END
>  <MODEL>
7

>  <REMARK>
 VINA RESULT:      -7.0      1.764      4.914
  Name = 
  8 active torsions:
  status: ('A' for Active; 'I' for Inactive)
    1  A    between atoms: O_3  and  C_4
    2  A    between atoms: O_3  and  C_19
    3  A    between atoms: C_4  and  C_25
    4  A    between atoms: C_6  and  O_38
    5  A    between atoms: C_7  and  C_30
    6  A    between atoms: C_15  and  C_20
    7  A    between atoms: C_19  and  N_33
    8  A    between atoms: C_20  and  O_38
                            x       y       z     vdW  Elec       q    Type
                         _______ _______ _______ _____ _____    ______ ____

>  <TORSDO>
F 8

$$$$
=
 OpenBabel11042419253D

 40 45  0  0  1  0  0  0  0  0999 V2000
  193.4630  176.3930  145.3020 C   0  0  0  0  0  3  0  0  0  0  0  0
  186.6010  176.6800  144.9400 C   0  0  0  0  0  2  0  0  0  0  0  0
  189.3080  175.0910  143.2260 C   0  0  0  0  0  0  0  0  0  0  0  0
  190.9270  173.2570  139.1840 C   0  0  1  0  0  3  0  0  0  0  0  0
  192.1250  173.2130  141.4070 C   0  0  1  0  0  3  0  0  0  0  0  0
  189.0250  176.0660  145.1720 C   0  0  0  0  0  0  0  0  0  0  0  0
  191.4090  175.0990  144.6900 C   0  0  0  0  0  0  0  0  0  0  0  0
  192.1580  176.3480  145.0290 C   0  0  0  0  0  3  0  0  0  0  0  0
  189.6690  172.9630  140.0160 C   0  0  0  0  0  2  0  0  0  0  0  0
  194.4190  175.2680  145.2310 C   0  0  0  0  0  0  0  0  0  0  0  0
  192.0170  174.4080  143.4930 C   0  0  0  0  0  0  0  0  0  0  0  0
  189.9620  174.3580  142.1290 C   0  0  0  0  0  0  0  0  0  0  0  0
  189.9680  175.4310  144.3960 C   0  0  0  0  0  0  0  0  0  0  0  0
  194.3420  174.2550  144.3580 C   0  0  0  0  0  3  0  0  0  0  0  0
  187.8650  176.0610  144.4360 C   0  0  0  0  0  0  0  0  0  0  0  0
  195.5240  175.3140  146.0710 O   0  0  0  0  0  1  0  0  0  0  0  0
  189.2190  174.1720  140.8280 C   0  0  0  0  0  2  0  0  0  0  0  0
  193.2730  174.0200  143.3690 C   0  0  0  0  0  0  0  0  0  0  0  0
  193.5100  173.3090  142.0620 C   0  0  1  0  0  3  0  0  0  0  0  0
  189.1040  176.5700  146.5760 C   0  0  0  0  0  2  0  0  0  0  0  0
  186.6370  176.7650  146.4140 N   0  0  0  0  0  0  0  0  0  0  0  0
  188.0520  175.4860  143.2670 O   0  0  0  0  0  0  0  0  0  0  0  0
  191.2550  174.0170  142.3120 C   0  0  2  0  0  3  0  0  0  0  0  0
  192.1130  173.7920  140.0020 C   0  0  0  0  0  2  0  0  0  0  0  0
  187.8680  177.4360  146.8670 C   0  0  0  0  0  2  0  0  0  0  0  0
  194.0930  171.9410  142.2660 C   0  0  0  0  0  0  0  0  0  0  0  0
  195.2380  171.7190  141.9060 O   0  0  0  0  0  0  0  0  0  0  0  0
  193.2990  170.8450  142.9010 C   0  0  0  0  0  1  0  0  0  0  0  0
  185.8700  178.8200  147.3130 O   0  0  0  0  0  1  0  0  0  0  0  0
  185.4900  177.5360  146.9030 C   0  0  1  0  0  3  0  0  0  0  0  0
  184.5110  177.6260  145.9110 O   0  0  0  0  0  0  0  0  0  0  0  0
  184.2020  178.9860  145.8390 C   0  0  0  0  0  2  0  0  0  0  0  0
  184.2370  179.4480  144.3950 C   0  0  1  0  0  3  0  0  0  0  0  0
  185.5620  180.1270  144.1180 C   0  0  0  0  0  1  0  0  0  0  0  0
  184.0870  178.3060  143.5090 N   0  0  0  0  0  1  0  0  0  0  0  0
  191.3130  172.0980  138.5090 O   0  0  0  0  0  0  0  0  0  0  0  0
  190.4850  171.0940  139.0180 C   0  0  0  0  0  2  0  0  0  0  0  0
  191.3030  169.9020  139.3640 C   0  0  0  0  0  0  0  0  0  0  0  0
  192.6770  170.0250  139.5260 O   0  0  0  0  0  0  0  0  0  0  0  0
  190.7470  168.7890  139.5490 O   0  0  0  0  0  1  0  0  0  0  0  0
  2 21  1  0  0  0  0
  3 22  1  0  0  0  0
  3 13  1  0  0  0  0
  4 36  1  1  0  0  0
  4 24  1  0  0  0  0
  4  9  1  0  0  0  0
  5 24  1  6  0  0  0
  5 19  1  0  0  0  0
  5 23  1  0  0  0  0
  6 20  1  0  0  0  0
  7  8  1  0  0  0  0
  8  1  2  0  0  0  0
  9 17  1  0  0  0  0
 10  1  1  0  0  0  0
 10 16  1  0  0  0  0
 11  7  1  0  0  0  0
 12  3  2  0  0  0  0
 13  7  2  0  0  0  0
 13  6  1  0  0  0  0
 14 10  2  0  0  0  0
 15  2  1  0  0  0  0
 15  6  2  0  0  0  0
 17 12  1  0  0  0  0
 18 11  2  0  0  0  0
 18 14  1  0  0  0  0
 19 26  1  1  0  0  0
 19 18  1  0  0  0  0
 20 25  1  0  0  0  0
 21 25  1  0  0  0  0
 21 30  1  0  0  0  0
 22 15  1  0  0  0  0
 23 12  1  1  0  0  0
 23 11  1  0  0  0  0
 26 28  1  0  0  0  0
 27 26  2  0  0  0  0
 30 29  1  6  0  0  0
 31 30  1  0  0  0  0
 32 31  1  0  0  0  0
 33 34  1  6  0  0  0
 33 32  1  0  0  0  0
 35 33  1  0  0  0  0
 36 37  1  0  0  0  0
 37 38  1  0  0  0  0
 38 39  2  0  0  0  0
 38 40  1  0  0  0  0
M  END
>  <MODEL>
8

>  <REMARK>
 VINA RESULT:      -6.9      1.708      5.130
  Name = 
  8 active torsions:
  status: ('A' for Active; 'I' for Inactive)
    1  A    between atoms: O_3  and  C_4
    2  A    between atoms: O_3  and  C_19
    3  A    between atoms: C_4  and  C_25
    4  A    between atoms: C_6  and  O_38
    5  A    between atoms: C_7  and  C_30
    6  A    between atoms: C_15  and  C_20
    7  A    between atoms: C_19  and  N_33
    8  A    between atoms: C_20  and  O_38
                            x       y       z     vdW  Elec       q    Type
                         _______ _______ _______ _____ _____    ______ ____

>  <TORSDO>
F 8

$$$$
=
 OpenBabel11042419253D

 40 45  0  0  1  0  0  0  0  0999 V2000
  192.7360  176.0550  144.0170 C   0  0  0  0  0  3  0  0  0  0  0  0
  186.3090  177.3510  141.9420 C   0  0  0  0  0  2  0  0  0  0  0  0
  188.8950  174.9620  141.3120 C   0  0  0  0  0  0  0  0  0  0  0  0
  190.8490  171.9270  138.2650 C   0  0  1  0  0  3  0  0  0  0  0  0
  191.5440  172.2530  140.6710 C   0  0  1  0  0  3  0  0  0  0  0  0
  188.4480  176.4310  142.8810 C   0  0  0  0  0  0  0  0  0  0  0  0
  190.6140  175.0000  143.2090 C   0  0  0  0  0  0  0  0  0  0  0  0
  191.5330  176.1550  143.4500 C   0  0  0  0  0  3  0  0  0  0  0  0
  189.4180  172.0600  138.8070 C   0  0  0  0  0  2  0  0  0  0  0  0
  193.4220  174.8090  144.4190 C   0  0  0  0  0  0  0  0  0  0  0  0
  191.2840  173.9390  142.3680 C   0  0  0  0  0  0  0  0  0  0  0  0
  189.5790  173.8790  140.5860 C   0  0  0  0  0  0  0  0  0  0  0  0
  189.3670  175.4760  142.5090 C   0  0  0  0  0  0  0  0  0  0  0  0
  193.3030  173.6340  143.7870 C   0  0  0  0  0  3  0  0  0  0  0  0
  187.4830  176.4280  141.9020 C   0  0  0  0  0  0  0  0  0  0  0  0
  194.3220  174.8860  145.4740 O   0  0  0  0  0  1  0  0  0  0  0  0
  189.0870  173.4930  139.2130 C   0  0  0  0  0  2  0  0  0  0  0  0
  192.4270  173.3330  142.6390 C   0  0  0  0  0  0  0  0  0  0  0  0
  192.7590  172.2860  141.6080 C   0  0  1  0  0  3  0  0  0  0  0  0
  188.3540  177.2540  144.1240 C   0  0  0  0  0  2  0  0  0  0  0  0
  186.0690  177.7990  143.3280 N   0  0  0  0  0  0  0  0  0  0  0  0
  187.7700  175.5530  140.9620 O   0  0  0  0  0  0  0  0  0  0  0  0
  190.7060  173.3900  141.1470 C   0  0  2  0  0  3  0  0  0  0  0  0
  191.9360  172.4510  139.2160 C   0  0  0  0  0  2  0  0  0  0  0  0
  187.3000  178.3540  143.9160 C   0  0  0  0  0  2  0  0  0  0  0  0
  192.9810  170.9380  142.2310 C   0  0  0  0  0  0  0  0  0  0  0  0
  194.1220  170.5380  142.4000 O   0  0  0  0  0  0  0  0  0  0  0  0
  191.8330  170.0750  142.6460 C   0  0  0  0  0  1  0  0  0  0  0  0
  183.7770  178.3300  143.0330 O   0  0  0  0  0  1  0  0  0  0  0  0
  185.0410  178.8440  143.3490 C   0  0  1  0  0  3  0  0  0  0  0  0
  185.0020  179.4580  144.6040 O   0  0  0  0  0  0  0  0  0  0  0  0
  184.0120  178.7670  145.3060 C   0  0  0  0  0  2  0  0  0  0  0  0
  184.5390  178.3490  146.6650 C   0  0  1  0  0  3  0  0  0  0  0  0
  185.0380  176.9210  146.5920 C   0  0  0  0  0  1  0  0  0  0  0  0
  185.6320  179.2210  147.0590 N   0  0  0  0  0  1  0  0  0  0  0  0
  191.1020  170.5870  137.9630 O   0  0  0  0  0  0  0  0  0  0  0  0
  190.1450  170.2470  137.0050 C   0  0  0  0  0  2  0  0  0  0  0  0
  190.6960  170.4840  135.6450 C   0  0  0  0  0  0  0  0  0  0  0  0
  190.0110  171.2960  134.7500 O   0  0  0  0  0  0  0  0  0  0  0  0
  191.8000  169.9800  135.3160 O   0  0  0  0  0  1  0  0  0  0  0  0
  1 10  1  0  0  0  0
  2 21  1  0  0  0  0
  3 13  1  0  0  0  0
  4 36  1  1  0  0  0
  4  9  1  0  0  0  0
  4 24  1  0  0  0  0
  5 24  1  6  0  0  0
  5 23  1  0  0  0  0
  5 19  1  0  0  0  0
  6 20  1  0  0  0  0
  7  8  1  0  0  0  0
  8  1  2  0  0  0  0
  9 17  1  0  0  0  0
 10 16  1  0  0  0  0
 11 18  2  0  0  0  0
 11  7  1  0  0  0  0
 12  3  2  0  0  0  0
 13  6  1  0  0  0  0
 13  7  2  0  0  0  0
 14 10  2  0  0  0  0
 15  2  1  0  0  0  0
 15  6  2  0  0  0  0
 17 12  1  0  0  0  0
 18 14  1  0  0  0  0
 19 26  1  1  0  0  0
 19 18  1  0  0  0  0
 21 30  1  0  0  0  0
 21 25  1  0  0  0  0
 22  3  1  0  0  0  0
 22 15  1  0  0  0  0
 23 12  1  1  0  0  0
 23 11  1  0  0  0  0
 25 20  1  0  0  0  0
 26 27  2  0  0  0  0
 26 28  1  0  0  0  0
 30 29  1  1  0  0  0
 30 31  1  0  0  0  0
 31 32  1  0  0  0  0
 32 33  1  0  0  0  0
 33 34  1  6  0  0  0
 33 35  1  0  0  0  0
 37 36  1  0  0  0  0
 38 37  1  0  0  0  0
 39 38  2  0  0  0  0
 40 38  1  0  0  0  0
M  END
>  <MODEL>
9

>  <REMARK>
 VINA RESULT:      -6.9      2.064      5.470
  Name = 
  8 active torsions:
  status: ('A' for Active; 'I' for Inactive)
    1  A    between atoms: O_3  and  C_4
    2  A    between atoms: O_3  and  C_19
    3  A    between atoms: C_4  and  C_25
    4  A    between atoms: C_6  and  O_38
    5  A    between atoms: C_7  and  C_30
    6  A    between atoms: C_15  and  C_20
    7  A    between atoms: C_19  and  N_33
    8  A    between atoms: C_20  and  O_38
                            x       y       z     vdW  Elec       q    Type
                         _______ _______ _______ _____ _____    ______ ____

>  <TORSDO>
F 8

$$$$
