=
 OpenBabel11042415453D

 59 69  0  0  1  0  0  0  0  0999 V2000
  191.7430  173.1480  141.4470 C   0  0  1  0  0  3  0  0  0  0  0  0
  190.1730  172.9240  138.5060 C   0  0  0  0  0  2  0  0  0  0  0  0
  192.7260  170.7690  141.3690 C   0  0  0  0  0  2  0  0  0  0  0  0
  192.0510  173.7780  135.3870 C   0  0  0  0  0  2  0  0  0  0  0  0
  191.3110  175.0640  146.9380 F   0  0  0  0  0  0  0  0  0  0  0  0
  188.0520  175.1260  138.8000 C   0  0  0  0  0  2  0  0  0  0  0  0
  189.4180  174.1000  134.8950 C   0  0  0  0  0  2  0  0  0  0  0  0
  194.0770  174.8450  144.3300 C   0  0  2  0  0  3  0  0  0  0  0  0
  190.3070  172.8410  140.9870 C   0  0  0  0  0  2  0  0  0  0  0  0
  188.1320  174.9140  134.9750 C   0  0  0  0  0  2  0  0  0  0  0  0
  192.4210  177.4280  144.6690 C   0  0  0  0  0  2  0  0  0  0  0  0
  192.8250  172.2210  140.8510 C   0  0  1  0  0  3  0  0  0  0  0  0
  192.1710  175.1670  142.5310 C   0  0  2  0  0  3  0  0  0  0  0  0
  187.7610  174.5050  137.4420 C   0  0  0  0  0  2  0  0  0  0  0  0
  193.6250  175.4300  142.9720 C   0  0  0  0  0  2  0  0  0  0  0  0
  191.9310  175.3670  145.7450 C   0  0  2  0  0  0  0  0  0  0  0  0
  192.5770  170.6420  142.7770 O   0  0  0  0  0  0  0  0  0  0  0  0
  192.7710  176.6090  145.8950 C   0  0  1  0  0  3  0  0  0  0  0  0
  191.3000  174.6650  143.5270 O   0  0  0  0  0  0  0  0  0  0  0  0
  189.8710  173.6870  139.7870 C   0  0  2  0  0  3  0  0  0  0  0  0
  194.4510  173.3910  144.2780 C   0  0  0  0  0  0  0  0  0  0  0  0
  188.3820  174.0670  139.8490 C   0  0  1  0  0  3  0  0  0  0  0  0
  193.5930  172.5760  143.6820 C   0  0  0  0  0  3  0  0  0  0  0  0
  192.0770  174.5090  141.2800 O   0  0  0  0  0  0  0  0  0  0  0  0
  195.0290  170.6970  142.9080 C   0  0  0  0  0  3  0  0  0  0  0  0
  196.4190  171.9310  144.5200 N   0  0  0  0  0  0  0  0  0  0  0  0
  191.0680  175.6310  144.5350 C   0  0  2  0  0  3  0  0  0  0  0  0
  191.3790  173.5290  137.7990 C   0  0  2  0  0  3  0  0  0  0  0  0
  195.6870  172.9210  144.9540 C   0  0  0  0  0  0  0  0  0  0  0  0
  191.5960  172.8130  136.4770 C   0  0  0  0  0  2  0  0  0  0  0  0
  196.2150  171.0550  143.4000 C   0  0  0  0  0  3  0  0  0  0  0  0
  187.9370  175.5520  136.3490 C   0  0  2  0  0  3  0  0  0  0  0  0
  190.8820  175.1630  135.1230 S   0  0  0  0  0  0  0  0  0  0  0  0
  192.9210  172.2640  139.3460 C   0  0  0  0  0  0  0  0  0  0  0  0
  193.4400  175.2450  145.6870 C   0  0  2  0  0  3  0  0  0  0  0  0
  193.3290  171.2620  138.7000 O   0  0  0  0  0  0  0  0  0  0  0  0
  191.2140  176.9700  144.1130 O   0  0  0  0  0  0  0  0  0  0  0  0
  197.3050  173.3390  146.7090 O   0  0  0  0  0  1  0  0  0  0  0  0
  196.1580  173.6720  146.0720 N   0  0  0  0  0  2  0  0  0  0  0  0
  192.5680  173.4570  138.6420 N   0  0  0  0  0  2  0  0  0  0  0  0
  193.7110  171.1100  143.4960 C   0  0  2  0  0  3  0  0  0  0  0  0
  185.5880  176.1050  136.1100 N   0  0  0  0  0  2  0  0  0  0  0  0
  186.7860  176.5100  136.3210 C   0  0  0  0  0  3  0  0  0  0  0  0
  187.9900  174.6160  141.2220 C   0  0  0  0  0  2  0  0  0  0  0  0
  188.9030  175.6250  141.6390 O   0  0  0  0  0  0  0  0  0  0  0  0
  188.4650  176.8580  142.1180 C   0  0  0  0  0  0  0  0  0  0  0  0
  187.3420  176.9370  143.0010 N   0  0  0  0  0  2  0  0  0  0  0  0
  189.0550  177.9060  141.7470 O   0  0  0  0  0  0  0  0  0  0  0  0
  184.5040  177.8880  144.0520 N   0  0  2  0  0  0  0  0  0  0  0  0
  184.1230  178.0280  146.3770 N   0  0  0  0  0  2  0  0  0  0  0  0
  185.8420  178.0420  144.5430 C   0  0  2  0  0  0  0  0  0  0  0  0
  185.8350  178.5550  142.2470 O   0  0  0  0  0  0  0  0  0  0  0  0
  185.4050  178.6340  145.8850 C   0  0  2  0  0  0  0  0  0  0  0  0
  186.0130  179.5500  144.9630 C   0  0  0  0  0  2  0  0  0  0  0  0
  186.6930  178.2010  143.3110 C   0  0  2  0  0  3  0  0  0  0  0  0
  184.5250  178.5970  142.7760 C   0  0  1  0  0  3  0  0  0  0  0  0
  184.0780  178.7380  145.1610 C   0  0  1  0  0  3  0  0  0  0  0  0
  184.0280  178.3370  140.5150 C   0  0  0  0  0  1  0  0  0  0  0  0
  183.6070  177.9570  141.8500 N   0  0  0  0  0  2  0  0  0  0  0  0
  1  9  1  6  0  0  0
  3 17  1  0  0  0  0
  4 30  1  0  0  0  0
  6 22  1  0  0  0  0
  7 10  1  0  0  0  0
  7 33  1  0  0  0  0
  8 15  1  6  0  0  0
  8 35  1  0  0  0  0
 10 32  1  0  0  0  0
 12  3  1  6  0  0  0
 12  1  1  0  0  0  0
 13 15  1  1  0  0  0
 13 19  1  0  0  0  0
 14  6  1  0  0  0  0
 16 18  1  0  0  0  0
 16  5  1  1  0  0  0
 17 41  1  0  0  0  0
 18 11  1  6  0  0  0
 20  2  1  6  0  0  0
 20 22  1  0  0  0  0
 20  9  1  0  0  0  0
 21  8  1  0  0  0  0
 21 29  1  0  0  0  0
 22 44  1  1  0  0  0
 23 21  2  0  0  0  0
 24  1  1  0  0  0  0
 24 13  1  0  0  0  0
 25 31  2  0  0  0  0
 25 41  1  0  0  0  0
 26 29  2  0  0  0  0
 27 19  1  6  0  0  0
 27 16  1  0  0  0  0
 28 30  1  6  0  0  0
 28  2  1  0  0  0  0
 28 40  1  0  0  0  0
 29 39  1  0  0  0  0
 31 26  1  0  0  0  0
 32 43  1  6  0  0  0
 32 14  1  0  0  0  0
 33  4  1  0  0  0  0
 34 12  1  0  0  0  0
 35 16  1  0  0  0  0
 35 18  1  0  0  0  0
 36 34  2  0  0  0  0
 37 27  1  0  0  0  0
 37 11  1  0  0  0  0
 39 38  1  0  0  0  0
 40 34  1  0  0  0  0
 41 23  1  0  0  0  0
 42 43  2  0  0  0  0
 44 45  1  0  0  0  0
 45 46  1  0  0  0  0
 46 47  1  0  0  0  0
 47 55  1  0  0  0  0
 48 46  2  0  0  0  0
 49 51  1  0  0  0  0
 49 57  1  0  0  0  0
 51 54  1  0  0  0  0
 51 53  1  0  0  0  0
 52 56  1  0  0  0  0
 52 55  1  0  0  0  0
 53 50  1  0  0  0  0
 54 53  1  0  0  0  0
 55 51  1  0  0  0  0
 56 49  1  0  0  0  0
 57 53  1  0  0  0  0
 57 50  1  0  0  0  0
 58 59  1  0  0  0  0
 59 56  1  0  0  0  0
M  END
>  <MODEL>
1

>  <REMARK>
 VINA RESULT:      -9.2      0.000      0.000
  Name = 
  6 active torsions:
  status: ('A' for Active; 'I' for Inactive)
    1  A    between atoms: C_13  and  O_23
    2  A    between atoms: O_23  and  C_57
    3  A    between atoms: N_27  and  C_40
    4  A    between atoms: C_33  and  C_57
    5  A    between atoms: N_37  and  C_43
    6  A    between atoms: C_46  and  C_49
                            x       y       z     vdW  Elec       q    Type
                         _______ _______ _______ _____ _____    ______ ____

>  <TORSDO>
F 6

$$$$
=
 OpenBabel11042415453D

 59 69  0  0  1  0  0  0  0  0999 V2000
  192.0870  173.1920  141.1210 C   0  0  1  0  0  3  0  0  0  0  0  0
  190.7070  173.0180  138.0830 C   0  0  0  0  0  2  0  0  0  0  0  0
  193.4720  171.0360  140.8730 C   0  0  0  0  0  2  0  0  0  0  0  0
  192.5400  174.5020  135.1800 C   0  0  0  0  0  2  0  0  0  0  0  0
  191.0910  174.4160  146.7350 F   0  0  0  0  0  0  0  0  0  0  0  0
  188.2240  174.7860  138.4590 C   0  0  0  0  0  2  0  0  0  0  0  0
  189.9150  174.4240  134.5630 C   0  0  0  0  0  2  0  0  0  0  0  0
  193.9620  174.9450  144.2900 C   0  0  2  0  0  3  0  0  0  0  0  0
  190.7470  172.6970  140.5470 C   0  0  0  0  0  2  0  0  0  0  0  0
  188.5040  174.9960  134.6440 C   0  0  0  0  0  2  0  0  0  0  0  0
  191.8680  177.1610  144.7770 C   0  0  0  0  0  2  0  0  0  0  0  0
  193.3390  172.5300  140.5050 C   0  0  1  0  0  3  0  0  0  0  0  0
  192.1090  175.1280  142.4190 C   0  0  2  0  0  3  0  0  0  0  0  0
  188.1050  174.2710  137.0320 C   0  0  0  0  0  2  0  0  0  0  0  0
  193.4750  175.5860  142.9700 C   0  0  0  0  0  2  0  0  0  0  0  0
  191.7000  174.9440  145.6170 C   0  0  2  0  0  0  0  0  0  0  0  0
  193.2870  170.7370  142.2500 O   0  0  0  0  0  0  0  0  0  0  0  0
  192.3030  176.2870  145.9360 C   0  0  1  0  0  3  0  0  0  0  0  0
  191.2970  174.3840  143.3070 O   0  0  0  0  0  0  0  0  0  0  0  0
  190.2220  173.5790  139.4100 C   0  0  2  0  0  3  0  0  0  0  0  0
  194.5870  173.5900  144.1210 C   0  0  0  0  0  0  0  0  0  0  0  0
  188.6880  173.6930  139.4190 C   0  0  1  0  0  3  0  0  0  0  0  0
  193.9100  172.7090  143.3980 C   0  0  0  0  0  3  0  0  0  0  0  0
  192.1850  174.6000  141.1060 O   0  0  0  0  0  0  0  0  0  0  0  0
  195.6840  171.1930  142.5340 C   0  0  0  0  0  3  0  0  0  0  0  0
  196.7670  172.4660  144.3390 N   0  0  0  0  0  0  0  0  0  0  0  0
  190.8570  175.1850  144.3880 C   0  0  2  0  0  3  0  0  0  0  0  0
  191.8180  173.8890  137.5120 C   0  0  2  0  0  3  0  0  0  0  0  0
  195.8550  173.2670  144.8220 C   0  0  0  0  0  0  0  0  0  0  0  0
  192.2140  173.3640  136.1420 C   0  0  0  0  0  2  0  0  0  0  0  0
  196.7680  171.6910  143.1290 C   0  0  0  0  0  3  0  0  0  0  0  0
  188.1410  175.4420  136.0580 C   0  0  2  0  0  3  0  0  0  0  0  0
  191.1590  175.6900  134.9810 S   0  0  0  0  0  0  0  0  0  0  0  0
  193.4890  172.7480  139.0190 C   0  0  0  0  0  0  0  0  0  0  0  0
  193.2080  175.0860  145.6380 C   0  0  2  0  0  3  0  0  0  0  0  0
  194.0940  171.9030  138.3050 O   0  0  0  0  0  0  0  0  0  0  0  0
  190.7850  176.5660  144.1070 O   0  0  0  0  0  0  0  0  0  0  0  0
  197.2990  173.7650  146.7040 O   0  0  0  0  0  1  0  0  0  0  0  0
  196.1390  173.9640  146.0330 N   0  0  0  0  0  2  0  0  0  0  0  0
  192.9650  173.9320  138.4140 N   0  0  0  0  0  2  0  0  0  0  0  0
  194.2900  171.3110  143.0780 C   0  0  2  0  0  3  0  0  0  0  0  0
  186.3010  176.5730  134.9580 N   0  0  0  0  0  2  0  0  0  0  0  0
  186.8440  176.1900  136.0540 C   0  0  0  0  0  3  0  0  0  0  0  0
  188.1480  174.0200  140.8120 C   0  0  0  0  0  2  0  0  0  0  0  0
  188.2800  175.4090  141.0890 O   0  0  0  0  0  0  0  0  0  0  0  0
  187.3160  176.1080  141.8120 C   0  0  0  0  0  0  0  0  0  0  0  0
  187.2810  176.0310  143.2390 N   0  0  0  0  0  2  0  0  0  0  0  0
  186.4590  176.7920  141.1920 O   0  0  0  0  0  0  0  0  0  0  0  0
  186.6170  178.5660  145.0280 N   0  0  2  0  0  0  0  0  0  0  0  0
  185.7450  180.5050  144.0030 N   0  0  0  0  0  2  0  0  0  0  0  0
  186.0310  178.0120  143.8430 C   0  0  2  0  0  0  0  0  0  0  0  0
  186.3760  176.2650  145.3810 O   0  0  0  0  0  0  0  0  0  0  0  0
  185.1050  179.2070  143.6040 C   0  0  2  0  0  0  0  0  0  0  0  0
  184.4710  178.0020  144.0560 C   0  0  0  0  0  2  0  0  0  0  0  0
  186.1490  176.5210  144.0110 C   0  0  2  0  0  3  0  0  0  0  0  0
  186.4170  177.5210  146.0280 C   0  0  1  0  0  3  0  0  0  0  0  0
  185.5350  179.5480  145.0160 C   0  0  1  0  0  3  0  0  0  0  0  0
  188.2060  176.2720  146.8460 C   0  0  0  0  0  1  0  0  0  0  0  0
  187.5150  177.5410  146.9780 N   0  0  0  0  0  2  0  0  0  0  0  0
  1  9  1  6  0  0  0
  3 17  1  0  0  0  0
  4 30  1  0  0  0  0
  6 22  1  0  0  0  0
  7 10  1  0  0  0  0
  7 33  1  0  0  0  0
  8 15  1  6  0  0  0
  8 35  1  0  0  0  0
 10 32  1  0  0  0  0
 12  3  1  6  0  0  0
 12  1  1  0  0  0  0
 13 15  1  1  0  0  0
 13 19  1  0  0  0  0
 14  6  1  0  0  0  0
 16 35  1  0  0  0  0
 16 18  1  0  0  0  0
 16  5  1  1  0  0  0
 17 41  1  0  0  0  0
 18 11  1  6  0  0  0
 20  2  1  6  0  0  0
 20 22  1  0  0  0  0
 20  9  1  0  0  0  0
 21  8  1  0  0  0  0
 21 29  1  0  0  0  0
 22 44  1  1  0  0  0
 23 21  2  0  0  0  0
 24  1  1  0  0  0  0
 24 13  1  0  0  0  0
 25 41  1  0  0  0  0
 25 31  2  0  0  0  0
 26 29  2  0  0  0  0
 27 19  1  6  0  0  0
 27 16  1  0  0  0  0
 28 30  1  6  0  0  0
 28  2  1  0  0  0  0
 28 40  1  0  0  0  0
 29 39  1  0  0  0  0
 31 26  1  0  0  0  0
 32 43  1  6  0  0  0
 32 14  1  0  0  0  0
 33  4  1  0  0  0  0
 34 12  1  0  0  0  0
 35 18  1  0  0  0  0
 36 34  2  0  0  0  0
 37 27  1  0  0  0  0
 37 11  1  0  0  0  0
 39 38  1  0  0  0  0
 40 34  1  0  0  0  0
 41 23  1  0  0  0  0
 42 43  2  0  0  0  0
 44 45  1  0  0  0  0
 45 46  1  0  0  0  0
 46 47  1  0  0  0  0
 47 55  1  0  0  0  0
 48 46  2  0  0  0  0
 49 56  1  0  0  0  0
 50 57  1  0  0  0  0
 51 55  1  0  0  0  0
 51 54  1  0  0  0  0
 51 49  1  0  0  0  0
 52 56  1  0  0  0  0
 53 51  1  0  0  0  0
 53 50  1  0  0  0  0
 53 54  1  0  0  0  0
 53 57  1  0  0  0  0
 55 52  1  0  0  0  0
 56 59  1  0  0  0  0
 57 49  1  0  0  0  0
 58 59  1  0  0  0  0
M  END
>  <MODEL>
2

>  <REMARK>
 VINA RESULT:      -8.9      1.245      1.855
  Name = 
  6 active torsions:
  status: ('A' for Active; 'I' for Inactive)
    1  A    between atoms: C_13  and  O_23
    2  A    between atoms: O_23  and  C_57
    3  A    between atoms: N_27  and  C_40
    4  A    between atoms: C_33  and  C_57
    5  A    between atoms: N_37  and  C_43
    6  A    between atoms: C_46  and  C_49
                            x       y       z     vdW  Elec       q    Type
                         _______ _______ _______ _____ _____    ______ ____

>  <TORSDO>
F 6

$$$$
=
 OpenBabel11042415453D

 59 69  0  0  1  0  0  0  0  0999 V2000
  190.5660  175.6830  143.3700 C   0  0  1  0  0  3  0  0  0  0  0  0
  188.2150  177.8920  144.2390 C   0  0  0  0  0  2  0  0  0  0  0  0
  192.4510  176.8040  144.7190 C   0  0  0  0  0  2  0  0  0  0  0  0
  186.3050  177.3430  147.4080 C   0  0  0  0  0  2  0  0  0  0  0  0
  192.7260  172.5130  138.9770 F   0  0  0  0  0  0  0  0  0  0  0  0
  186.1690  177.4940  141.9840 C   0  0  0  0  0  2  0  0  0  0  0  0
  184.8010  178.8780  145.7770 C   0  0  0  0  0  2  0  0  0  0  0  0
  192.1860  171.9980  142.7110 C   0  0  2  0  0  3  0  0  0  0  0  0
  189.9400  176.9330  142.7280 C   0  0  0  0  0  2  0  0  0  0  0  0
  183.8400  179.0420  144.6040 C   0  0  0  0  0  2  0  0  0  0  0  0
  190.0890  171.0360  140.6610 C   0  0  0  0  0  2  0  0  0  0  0  0
  191.1890  175.9150  144.7640 C   0  0  1  0  0  3  0  0  0  0  0  0
  190.0970  173.5910  142.4550 C   0  0  2  0  0  3  0  0  0  0  0  0
  185.5860  178.6210  142.8240 C   0  0  0  0  0  2  0  0  0  0  0  0
  190.7460  172.3680  143.1340 C   0  0  0  0  0  2  0  0  0  0  0  0
  191.9750  172.3790  140.1250 C   0  0  2  0  0  0  0  0  0  0  0  0
  193.4000  176.4510  143.7210 O   0  0  0  0  0  0  0  0  0  0  0  0
  191.5600  170.9420  140.3120 C   0  0  1  0  0  3  0  0  0  0  0  0
  190.7580  174.0900  141.3090 O   0  0  0  0  0  0  0  0  0  0  0  0
  188.4360  177.0500  142.9920 C   0  0  2  0  0  3  0  0  0  0  0  0
  193.2530  172.8200  143.3770 C   0  0  0  0  0  0  0  0  0  0  0  0
  187.6770  177.6490  141.7960 C   0  0  1  0  0  3  0  0  0  0  0  0
  193.0860  174.1350  143.3630 C   0  0  0  0  0  3  0  0  0  0  0  0
  189.6800  174.5840  143.3750 O   0  0  0  0  0  0  0  0  0  0  0  0
  194.3530  174.8950  145.3660 C   0  0  0  0  0  3  0  0  0  0  0  0
  195.1020  172.5830  144.9860 N   0  0  0  0  0  0  0  0  0  0  0  0
  190.6920  173.1650  140.2390 C   0  0  2  0  0  3  0  0  0  0  0  0
  187.7980  177.0100  145.4090 C   0  0  2  0  0  3  0  0  0  0  0  0
  194.4600  172.1570  143.9310 C   0  0  0  0  0  0  0  0  0  0  0  0
  187.4880  177.8860  146.6110 C   0  0  0  0  0  2  0  0  0  0  0  0
  194.8750  173.7470  145.7970 C   0  0  0  0  0  3  0  0  0  0  0  0
  184.2440  178.1890  143.4030 C   0  0  2  0  0  3  0  0  0  0  0  0
  184.7850  177.1640  146.4000 S   0  0  0  0  0  0  0  0  0  0  0  0
  190.2130  176.3960  145.8090 C   0  0  0  0  0  0  0  0  0  0  0  0
  192.5740  171.5840  141.2680 C   0  0  2  0  0  3  0  0  0  0  0  0
  190.6050  177.1040  146.7760 O   0  0  0  0  0  0  0  0  0  0  0  0
  189.5850  172.2920  140.2820 O   0  0  0  0  0  0  0  0  0  0  0  0
  195.9260  170.2300  143.8250 O   0  0  0  0  0  1  0  0  0  0  0  0
  194.8660  170.9230  143.3440 N   0  0  0  0  0  2  0  0  0  0  0  0
  188.8340  176.0300  145.7200 N   0  0  0  0  0  2  0  0  0  0  0  0
  193.9780  175.1700  143.9380 C   0  0  2  0  0  3  0  0  0  0  0  0
  182.1180  178.9330  142.5050 N   0  0  0  0  0  2  0  0  0  0  0  0
  183.1680  178.2110  142.3620 C   0  0  0  0  0  3  0  0  0  0  0  0
  188.0650  176.9770  140.4780 C   0  0  0  0  0  2  0  0  0  0  0  0
  186.9390  176.8780  139.6130 O   0  0  0  0  0  0  0  0  0  0  0  0
  186.9540  176.0700  138.4790 C   0  0  0  0  0  0  0  0  0  0  0  0
  188.0200  175.1420  138.2630 N   0  0  0  0  0  2  0  0  0  0  0  0
  186.0290  176.1820  137.6320 O   0  0  0  0  0  0  0  0  0  0  0  0
  190.2630  175.0430  136.0210 N   0  0  2  0  0  0  0  0  0  0  0  0
  192.0140  173.4720  136.2100 N   0  0  0  0  0  2  0  0  0  0  0  0
  189.6530  174.0480  136.8530 C   0  0  2  0  0  0  0  0  0  0  0  0
  187.9500  175.3910  135.9410 O   0  0  0  0  0  0  0  0  0  0  0  0
  190.6300  172.9420  136.4450 C   0  0  2  0  0  0  0  0  0  0  0  0
  189.2960  172.8240  135.9290 C   0  0  0  0  0  2  0  0  0  0  0  0
  188.2160  174.4770  136.9840 C   0  0  2  0  0  3  0  0  0  0  0  0
  189.1530  175.5390  135.2130 C   0  0  1  0  0  3  0  0  0  0  0  0
  190.9870  173.9520  135.3730 C   0  0  1  0  0  3  0  0  0  0  0  0
  188.0740  177.5960  135.0300 C   0  0  0  0  0  1  0  0  0  0  0  0
  189.3640  176.9430  134.9070 N   0  0  0  0  0  2  0  0  0  0  0  0
  1  9  1  1  0  0  0
  1 24  1  0  0  0  0
  1 12  1  0  0  0  0
  6 14  1  0  0  0  0
  7 33  1  0  0  0  0
  8 15  1  6  0  0  0
  8 21  1  0  0  0  0
 10  7  1  0  0  0  0
 12  3  1  6  0  0  0
 12 34  1  0  0  0  0
 13 15  1  1  0  0  0
 13 24  1  0  0  0  0
 14 32  1  0  0  0  0
 16  5  1  6  0  0  0
 16 27  1  0  0  0  0
 16 18  1  0  0  0  0
 16 35  1  0  0  0  0
 17 41  1  0  0  0  0
 17  3  1  0  0  0  0
 18 11  1  1  0  0  0
 18 35  1  0  0  0  0
 19 13  1  0  0  0  0
 20  9  1  6  0  0  0
 20  2  1  0  0  0  0
 21 29  1  0  0  0  0
 22 44  1  6  0  0  0
 22  6  1  0  0  0  0
 22 20  1  0  0  0  0
 23 21  2  0  0  0  0
 23 41  1  0  0  0  0
 25 31  2  0  0  0  0
 26 31  1  0  0  0  0
 27 37  1  1  0  0  0
 27 19  1  0  0  0  0
 28  2  1  6  0  0  0
 28 40  1  0  0  0  0
 28 30  1  0  0  0  0
 29 26  2  0  0  0  0
 30  4  1  0  0  0  0
 32 43  1  6  0  0  0
 32 10  1  0  0  0  0
 33  4  1  0  0  0  0
 34 36  2  0  0  0  0
 35  8  1  0  0  0  0
 37 11  1  0  0  0  0
 39 38  1  0  0  0  0
 39 29  1  0  0  0  0
 40 34  1  0  0  0  0
 41 25  1  0  0  0  0
 43 42  2  0  0  0  0
 45 44  1  0  0  0  0
 46 45  1  0  0  0  0
 47 46  1  0  0  0  0
 48 46  2  0  0  0  0
 49 51  1  0  0  0  0
 50 53  1  0  0  0  0
 51 55  1  0  0  0  0
 52 55  1  0  0  0  0
 53 51  1  0  0  0  0
 54 53  1  0  0  0  0
 54 51  1  0  0  0  0
 55 47  1  0  0  0  0
 56 52  1  0  0  0  0
 56 49  1  0  0  0  0
 57 49  1  0  0  0  0
 57 50  1  0  0  0  0
 57 53  1  0  0  0  0
 59 58  1  0  0  0  0
 59 56  1  0  0  0  0
M  END
>  <MODEL>
3

>  <REMARK>
 VINA RESULT:      -8.8      2.917      7.554
  Name = 
  6 active torsions:
  status: ('A' for Active; 'I' for Inactive)
    1  A    between atoms: C_13  and  O_23
    2  A    between atoms: O_23  and  C_57
    3  A    between atoms: N_27  and  C_40
    4  A    between atoms: C_33  and  C_57
    5  A    between atoms: N_37  and  C_43
    6  A    between atoms: C_46  and  C_49
                            x       y       z     vdW  Elec       q    Type
                         _______ _______ _______ _____ _____    ______ ____

>  <TORSDO>
F 6

$$$$
=
 OpenBabel11042415453D

 59 69  0  0  1  0  0  0  0  0999 V2000
  192.7500  173.4600  140.0720 C   0  0  1  0  0  3  0  0  0  0  0  0
  192.9940  175.6610  142.5740 C   0  0  0  0  0  2  0  0  0  0  0  0
  193.9310  174.9490  138.3340 C   0  0  0  0  0  2  0  0  0  0  0  0
  196.0950  175.6810  144.6650 C   0  0  0  0  0  2  0  0  0  0  0  0
  189.2640  169.5690  137.4820 F   0  0  0  0  0  0  0  0  0  0  0  0
  190.7650  174.6790  144.4450 C   0  0  0  0  0  2  0  0  0  0  0  0
  194.0920  176.7470  146.1250 C   0  0  0  0  0  2  0  0  0  0  0  0
  192.9850  169.8210  138.2460 C   0  0  2  0  0  3  0  0  0  0  0  0
  191.8210  174.5080  140.7100 C   0  0  0  0  0  2  0  0  0  0  0  0
  192.8590  176.6040  147.0110 C   0  0  0  0  0  2  0  0  0  0  0  0
  191.0740  168.3270  140.1560 C   0  0  0  0  0  2  0  0  0  0  0  0
  194.0940  174.0170  139.5550 C   0  0  1  0  0  3  0  0  0  0  0  0
  192.2780  171.1990  140.3840 C   0  0  2  0  0  3  0  0  0  0  0  0
  191.3120  175.9210  145.1330 C   0  0  0  0  0  2  0  0  0  0  0  0
  193.2380  170.1860  139.7260 C   0  0  0  0  0  2  0  0  0  0  0  0
  190.3700  169.6350  138.3010 C   0  0  2  0  0  0  0  0  0  0  0  0
  193.0860  174.4500  137.3070 O   0  0  0  0  0  0  0  0  0  0  0  0
  190.8360  168.2490  138.6610 C   0  0  1  0  0  3  0  0  0  0  0  0
  191.0900  171.4840  139.6710 O   0  0  0  0  0  0  0  0  0  0  0  0
  191.9700  174.5900  142.2320 C   0  0  2  0  0  3  0  0  0  0  0  0
  193.5190  170.8260  137.2650 C   0  0  0  0  0  0  0  0  0  0  0  0
  190.6330  174.8780  142.9360 C   0  0  1  0  0  3  0  0  0  0  0  0
  193.2140  172.0960  137.4900 C   0  0  0  0  0  3  0  0  0  0  0  0
  192.9400  172.3380  140.9060 O   0  0  0  0  0  0  0  0  0  0  0  0
  195.0760  173.3340  136.3960 C   0  0  0  0  0  3  0  0  0  0  0  0
  195.2410  171.0420  135.5190 N   0  0  0  0  0  0  0  0  0  0  0  0
  190.2410  170.3520  139.6230 C   0  0  2  0  0  3  0  0  0  0  0  0
  194.3000  175.0230  143.0280 C   0  0  2  0  0  3  0  0  0  0  0  0
  194.2680  170.3660  136.0690 C   0  0  0  0  0  0  0  0  0  0  0  0
  195.2680  176.1120  143.4570 C   0  0  0  0  0  2  0  0  0  0  0  0
  195.7700  172.3350  135.8520 C   0  0  0  0  0  3  0  0  0  0  0  0
  191.8930  175.5430  146.4900 C   0  0  2  0  0  3  0  0  0  0  0  0
  195.0660  175.2060  146.1040 S   0  0  0  0  0  0  0  0  0  0  0  0
  194.9560  174.6500  140.6200 C   0  0  0  0  0  0  0  0  0  0  0  0
  191.6870  169.1350  137.7440 C   0  0  2  0  0  3  0  0  0  0  0  0
  195.7690  175.5670  140.3260 O   0  0  0  0  0  0  0  0  0  0  0  0
  190.4080  169.4440  140.6900 O   0  0  0  0  0  0  0  0  0  0  0  0
  194.6580  168.5490  134.5130 O   0  0  0  0  0  1  0  0  0  0  0  0
  193.9810  169.0620  135.5680 N   0  0  0  0  0  2  0  0  0  0  0  0
  194.8710  174.1930  141.9720 N   0  0  0  0  0  2  0  0  0  0  0  0
  193.6030  173.2800  136.6860 C   0  0  2  0  0  3  0  0  0  0  0  0
  189.8090  176.0700  147.6100 N   0  0  0  0  0  2  0  0  0  0  0  0
  190.8130  175.2820  147.4940 C   0  0  0  0  0  3  0  0  0  0  0  0
  189.5130  173.9680  142.4300 C   0  0  0  0  0  2  0  0  0  0  0  0
  188.4240  174.7380  141.9360 O   0  0  0  0  0  0  0  0  0  0  0  0
  188.2230  176.0600  142.3260 C   0  0  0  0  0  0  0  0  0  0  0  0
  187.2050  176.3900  143.2760 N   0  0  0  0  0  2  0  0  0  0  0  0
  188.9330  176.9660  141.8170 O   0  0  0  0  0  0  0  0  0  0  0  0
  184.5340  177.8890  144.1060 N   0  0  2  0  0  0  0  0  0  0  0  0
  184.0390  178.1800  146.3950 N   0  0  0  0  0  2  0  0  0  0  0  0
  185.8440  177.8090  144.6840 C   0  0  2  0  0  0  0  0  0  0  0  0
  186.0790  178.2320  142.3820 O   0  0  0  0  0  0  0  0  0  0  0  0
  185.4410  178.5190  145.9790 C   0  0  2  0  0  0  0  0  0  0  0  0
  186.2680  179.2730  145.0800 C   0  0  0  0  0  2  0  0  0  0  0  0
  186.7860  177.7630  143.5110 C   0  0  2  0  0  3  0  0  0  0  0  0
  184.7700  178.5360  142.8180 C   0  0  1  0  0  3  0  0  0  0  0  0
  184.2060  178.8420  145.1630 C   0  0  1  0  0  3  0  0  0  0  0  0
  184.3920  178.2630  140.5350 C   0  0  0  0  0  1  0  0  0  0  0  0
  183.8090  178.0450  141.8450 N   0  0  0  0  0  2  0  0  0  0  0  0
  1  9  1  1  0  0  0
  1 24  1  0  0  0  0
  4 33  1  0  0  0  0
  6 14  1  0  0  0  0
  7 10  1  0  0  0  0
  8 15  1  1  0  0  0
 11 37  1  0  0  0  0
 12  3  1  6  0  0  0
 12  1  1  0  0  0  0
 12 34  1  0  0  0  0
 13 15  1  6  0  0  0
 13 24  1  0  0  0  0
 14 32  1  0  0  0  0
 16  5  1  6  0  0  0
 16 18  1  0  0  0  0
 16 27  1  0  0  0  0
 17  3  1  0  0  0  0
 18 11  1  1  0  0  0
 19 13  1  0  0  0  0
 20  9  1  6  0  0  0
 20  2  1  0  0  0  0
 20 22  1  0  0  0  0
 21 23  2  0  0  0  0
 21  8  1  0  0  0  0
 22 44  1  6  0  0  0
 22  6  1  0  0  0  0
 25 41  1  0  0  0  0
 26 31  1  0  0  0  0
 26 29  2  0  0  0  0
 27 19  1  6  0  0  0
 27 37  1  0  0  0  0
 28  2  1  6  0  0  0
 28 30  1  0  0  0  0
 29 21  1  0  0  0  0
 30  4  1  0  0  0  0
 31 25  2  0  0  0  0
 32 10  1  0  0  0  0
 32 43  1  1  0  0  0
 33  7  1  0  0  0  0
 34 40  1  0  0  0  0
 35  8  1  0  0  0  0
 35 16  1  0  0  0  0
 35 18  1  0  0  0  0
 36 34  2  0  0  0  0
 38 39  1  0  0  0  0
 39 29  1  0  0  0  0
 40 28  1  0  0  0  0
 41 17  1  0  0  0  0
 41 23  1  0  0  0  0
 43 42  2  0  0  0  0
 45 46  1  0  0  0  0
 45 44  1  0  0  0  0
 46 47  1  0  0  0  0
 47 55  1  0  0  0  0
 48 46  2  0  0  0  0
 49 51  1  0  0  0  0
 49 57  1  0  0  0  0
 51 54  1  0  0  0  0
 51 53  1  0  0  0  0
 52 56  1  0  0  0  0
 52 55  1  0  0  0  0
 53 50  1  0  0  0  0
 54 53  1  0  0  0  0
 55 51  1  0  0  0  0
 56 49  1  0  0  0  0
 57 53  1  0  0  0  0
 57 50  1  0  0  0  0
 58 59  1  0  0  0  0
 59 56  1  0  0  0  0
M  END
>  <MODEL>
4

>  <REMARK>
 VINA RESULT:      -8.5      3.510      7.105
  Name = 
  6 active torsions:
  status: ('A' for Active; 'I' for Inactive)
    1  A    between atoms: C_13  and  O_23
    2  A    between atoms: O_23  and  C_57
    3  A    between atoms: N_27  and  C_40
    4  A    between atoms: C_33  and  C_57
    5  A    between atoms: N_37  and  C_43
    6  A    between atoms: C_46  and  C_49
                            x       y       z     vdW  Elec       q    Type
                         _______ _______ _______ _____ _____    ______ ____

>  <TORSDO>
F 6

$$$$
=
 OpenBabel11042415453D

 59 69  0  0  1  0  0  0  0  0999 V2000
  192.9020  174.0180  141.7760 C   0  0  1  0  0  3  0  0  0  0  0  0
  191.7930  176.3310  143.9170 C   0  0  0  0  0  2  0  0  0  0  0  0
  195.0070  175.3300  141.0830 C   0  0  0  0  0  2  0  0  0  0  0  0
  193.0260  176.2610  147.4480 C   0  0  0  0  0  2  0  0  0  0  0  0
  191.3300  170.2290  137.6310 F   0  0  0  0  0  0  0  0  0  0  0  0
  188.8150  175.5990  144.0870 C   0  0  0  0  0  2  0  0  0  0  0  0
  190.6470  177.5330  147.4150 C   0  0  0  0  0  2  0  0  0  0  0  0
  193.8680  170.2770  140.4690 C   0  0  2  0  0  3  0  0  0  0  0  0
  191.8690  175.1580  141.7270 C   0  0  0  0  0  2  0  0  0  0  0  0
  189.1220  177.5200  147.3880 C   0  0  0  0  0  2  0  0  0  0  0  0
  191.0770  169.0180  140.8630 C   0  0  0  0  0  2  0  0  0  0  0  0
  194.3310  174.4570  142.1630 C   0  0  1  0  0  3  0  0  0  0  0  0
  192.1470  171.8130  141.7530 C   0  0  2  0  0  3  0  0  0  0  0  0
  188.9470  176.8380  144.9600 C   0  0  0  0  0  2  0  0  0  0  0  0
  193.2190  170.7050  141.8050 C   0  0  0  0  0  2  0  0  0  0  0  0
  191.7310  170.2670  138.9490 C   0  0  2  0  0  0  0  0  0  0  0  0
  194.9010  174.8330  139.7560 O   0  0  0  0  0  0  0  0  0  0  0  0
  191.7710  168.8740  139.5220 C   0  0  1  0  0  3  0  0  0  0  0  0
  191.6470  172.1360  140.4700 O   0  0  0  0  0  0  0  0  0  0  0  0
  191.0870  175.3120  143.0350 C   0  0  2  0  0  3  0  0  0  0  0  0
  194.9640  171.1910  139.9980 C   0  0  0  0  0  0  0  0  0  0  0  0
  189.6250  175.7250  142.7990 C   0  0  1  0  0  3  0  0  0  0  0  0
  194.6950  172.4880  139.9900 C   0  0  0  0  0  3  0  0  0  0  0  0
  192.4610  172.9320  142.5630 O   0  0  0  0  0  0  0  0  0  0  0  0
  196.9380  173.5410  140.2220 C   0  0  0  0  0  3  0  0  0  0  0  0
  197.3980  171.1980  139.6280 N   0  0  0  0  0  0  0  0  0  0  0  0
  190.9010  171.0610  139.9290 C   0  0  2  0  0  3  0  0  0  0  0  0
  192.5110  175.6340  145.0650 C   0  0  2  0  0  3  0  0  0  0  0  0
  196.2360  170.6190  139.4890 C   0  0  0  0  0  0  0  0  0  0  0  0
  193.1210  176.6790  145.9830 C   0  0  0  0  0  2  0  0  0  0  0  0
  197.7320  172.4700  140.2060 C   0  0  0  0  0  3  0  0  0  0  0  0
  188.5710  176.4970  146.3970 C   0  0  2  0  0  3  0  0  0  0  0  0
  191.3060  175.9320  147.9880 S   0  0  0  0  0  0  0  0  0  0  0  0
  194.4380  175.0880  143.5300 C   0  0  0  0  0  0  0  0  0  0  0  0
  193.0720  169.6520  139.2930 C   0  0  2  0  0  3  0  0  0  0  0  0
  195.3410  175.9330  143.7770 O   0  0  0  0  0  0  0  0  0  0  0  0
  190.3220  170.2030  140.8870 O   0  0  0  0  0  0  0  0  0  0  0  0
  197.3210  168.6990  138.4830 O   0  0  0  0  0  1  0  0  0  0  0  0
  196.1950  169.3110  138.9220 N   0  0  0  0  0  2  0  0  0  0  0  0
  193.5260  174.7120  144.5640 N   0  0  0  0  0  2  0  0  0  0  0  0
  195.5850  173.5990  139.5740 C   0  0  2  0  0  3  0  0  0  0  0  0
  186.4830  176.8400  147.5810 N   0  0  0  0  0  2  0  0  0  0  0  0
  187.0880  176.3630  146.5560 C   0  0  0  0  0  3  0  0  0  0  0  0
  188.9550  174.8640  141.7270 C   0  0  0  0  0  2  0  0  0  0  0  0
  188.1200  175.6590  140.8930 O   0  0  0  0  0  0  0  0  0  0  0  0
  187.7110  176.9360  141.2690 C   0  0  0  0  0  0  0  0  0  0  0  0
  186.6720  177.1110  142.2360 N   0  0  0  0  0  2  0  0  0  0  0  0
  188.2500  177.9380  140.7290 O   0  0  0  0  0  0  0  0  0  0  0  0
  184.0240  178.1810  143.6190 N   0  0  2  0  0  0  0  0  0  0  0  0
  184.0490  178.6810  145.9260 N   0  0  0  0  0  2  0  0  0  0  0  0
  185.4200  178.4270  143.8340 C   0  0  2  0  0  0  0  0  0  0  0  0
  184.9930  178.5710  141.5250 O   0  0  0  0  0  0  0  0  0  0  0  0
  185.2010  179.2180  145.1260 C   0  0  2  0  0  0  0  0  0  0  0  0
  185.6010  179.9840  143.9810 C   0  0  0  0  0  2  0  0  0  0  0  0
  186.0360  178.4000  142.4600 C   0  0  2  0  0  3  0  0  0  0  0  0
  183.7940  178.6810  142.2670 C   0  0  1  0  0  3  0  0  0  0  0  0
  183.7640  179.1900  144.6430 C   0  0  1  0  0  3  0  0  0  0  0  0
  181.5620  178.7150  141.5990 C   0  0  0  0  0  1  0  0  0  0  0  0
  182.7560  177.8910  141.6280 N   0  0  0  0  0  2  0  0  0  0  0  0
  1  9  1  1  0  0  0
  1 12  1  0  0  0  0
  1 24  1  0  0  0  0
  4 33  1  0  0  0  0
  6 14  1  0  0  0  0
  7 33  1  0  0  0  0
  8 15  1  1  0  0  0
 10  7  1  0  0  0  0
 11 37  1  0  0  0  0
 12  3  1  6  0  0  0
 12 34  1  0  0  0  0
 13 15  1  6  0  0  0
 13 24  1  0  0  0  0
 14 32  1  0  0  0  0
 16  5  1  6  0  0  0
 16 35  1  0  0  0  0
 16 18  1  0  0  0  0
 16 27  1  0  0  0  0
 17  3  1  0  0  0  0
 18 11  1  1  0  0  0
 19 13  1  0  0  0  0
 20  9  1  6  0  0  0
 20  2  1  0  0  0  0
 21  8  1  0  0  0  0
 22 44  1  6  0  0  0
 22 20  1  0  0  0  0
 22  6  1  0  0  0  0
 23 21  2  0  0  0  0
 26 31  1  0  0  0  0
 27 19  1  1  0  0  0
 27 37  1  0  0  0  0
 28  2  1  6  0  0  0
 28 30  1  0  0  0  0
 29 26  2  0  0  0  0
 29 21  1  0  0  0  0
 30  4  1  0  0  0  0
 31 25  2  0  0  0  0
 32 43  1  6  0  0  0
 32 10  1  0  0  0  0
 34 36  2  0  0  0  0
 34 40  1  0  0  0  0
 35 18  1  0  0  0  0
 35  8  1  0  0  0  0
 38 39  1  0  0  0  0
 39 29  1  0  0  0  0
 40 28  1  0  0  0  0
 41 17  1  0  0  0  0
 41 23  1  0  0  0  0
 41 25  1  0  0  0  0
 43 42  2  0  0  0  0
 45 46  1  0  0  0  0
 45 44  1  0  0  0  0
 46 47  1  0  0  0  0
 47 55  1  0  0  0  0
 48 46  2  0  0  0  0
 49 51  1  0  0  0  0
 49 57  1  0  0  0  0
 51 54  1  0  0  0  0
 51 53  1  0  0  0  0
 52 56  1  0  0  0  0
 52 55  1  0  0  0  0
 53 50  1  0  0  0  0
 54 53  1  0  0  0  0
 55 51  1  0  0  0  0
 56 49  1  0  0  0  0
 57 53  1  0  0  0  0
 57 50  1  0  0  0  0
 58 59  1  0  0  0  0
 59 56  1  0  0  0  0
M  END
>  <MODEL>
5

>  <REMARK>
 VINA RESULT:      -8.3      3.526      6.494
  Name = 
  6 active torsions:
  status: ('A' for Active; 'I' for Inactive)
    1  A    between atoms: C_13  and  O_23
    2  A    between atoms: O_23  and  C_57
    3  A    between atoms: N_27  and  C_40
    4  A    between atoms: C_33  and  C_57
    5  A    between atoms: N_37  and  C_43
    6  A    between atoms: C_46  and  C_49
                            x       y       z     vdW  Elec       q    Type
                         _______ _______ _______ _____ _____    ______ ____

>  <TORSDO>
F 6

$$$$
=
 OpenBabel11042415453D

 59 69  0  0  1  0  0  0  0  0999 V2000
  191.5260  175.1560  143.7070 C   0  0  1  0  0  3  0  0  0  0  0  0
  189.2490  177.5160  144.3460 C   0  0  0  0  0  2  0  0  0  0  0  0
  193.5010  176.4530  144.7310 C   0  0  0  0  0  2  0  0  0  0  0  0
  187.5440  177.5260  147.6750 C   0  0  0  0  0  2  0  0  0  0  0  0
  193.3790  171.2740  139.7700 F   0  0  0  0  0  0  0  0  0  0  0  0
  187.0580  176.7870  142.3200 C   0  0  0  0  0  2  0  0  0  0  0  0
  185.9470  178.7960  145.9110 C   0  0  0  0  0  2  0  0  0  0  0  0
  193.0790  171.3870  143.5650 C   0  0  2  0  0  3  0  0  0  0  0  0
  190.8670  176.2940  142.9080 C   0  0  0  0  0  2  0  0  0  0  0  0
  184.9130  178.7810  144.7900 C   0  0  0  0  0  2  0  0  0  0  0  0
  190.8480  170.1360  141.8370 C   0  0  0  0  0  2  0  0  0  0  0  0
  192.2390  175.6040  145.0020 C   0  0  1  0  0  3  0  0  0  0  0  0
  190.9870  172.9500  143.1810 C   0  0  2  0  0  3  0  0  0  0  0  0
  186.5380  178.0450  142.9980 C   0  0  0  0  0  2  0  0  0  0  0  0
  191.6720  171.8450  144.0100 C   0  0  0  0  0  2  0  0  0  0  0  0
  192.7030  171.3420  140.9690 C   0  0  2  0  0  0  0  0  0  0  0  0
  194.3810  175.9260  143.7480 O   0  0  0  0  0  0  0  0  0  0  0  0
  192.2940  169.9620  141.4160 C   0  0  1  0  0  3  0  0  0  0  0  0
  191.5750  173.2440  141.9280 O   0  0  0  0  0  0  0  0  0  0  0  0
  189.3830  176.4770  143.2430 C   0  0  2  0  0  3  0  0  0  0  0  0
  194.1910  172.2910  144.0170 C   0  0  0  0  0  0  0  0  0  0  0  0
  188.5520  176.8840  142.0150 C   0  0  1  0  0  3  0  0  0  0  0  0
  194.0310  173.5870  143.7970 C   0  0  0  0  0  3  0  0  0  0  0  0
  190.6360  174.0880  143.9490 O   0  0  0  0  0  0  0  0  0  0  0  0
  195.4290  174.6460  145.5630 C   0  0  0  0  0  3  0  0  0  0  0  0
  196.1390  172.2910  145.5240 N   0  0  0  0  0  0  0  0  0  0  0  0
  191.4340  172.1570  141.0320 C   0  0  2  0  0  3  0  0  0  0  0  0
  188.9030  176.8460  145.6680 C   0  0  2  0  0  3  0  0  0  0  0  0
  195.4280  171.7080  144.5960 C   0  0  0  0  0  0  0  0  0  0  0  0
  188.6760  177.9110  146.7270 C   0  0  0  0  0  2  0  0  0  0  0  0
  195.9710  173.5760  146.1440 C   0  0  0  0  0  3  0  0  0  0  0  0
  185.2330  177.7370  143.7230 C   0  0  2  0  0  3  0  0  0  0  0  0
  185.9620  177.2090  146.8080 S   0  0  0  0  0  0  0  0  0  0  0  0
  191.3350  176.2660  146.0120 C   0  0  0  0  0  0  0  0  0  0  0  0
  193.3700  170.7360  142.1870 C   0  0  2  0  0  3  0  0  0  0  0  0
  191.7930  177.1170  146.8220 O   0  0  0  0  0  0  0  0  0  0  0  0
  190.3280  171.3210  141.2890 O   0  0  0  0  0  0  0  0  0  0  0  0
  196.8730  169.7660  144.7180 O   0  0  0  0  0  1  0  0  0  0  0  0
  195.7890  170.3870  144.1960 N   0  0  0  0  0  2  0  0  0  0  0  0
  189.9510  175.9130  146.0720 N   0  0  0  0  0  2  0  0  0  0  0  0
  194.9650  174.6890  144.1360 C   0  0  2  0  0  3  0  0  0  0  0  0
  184.0510  178.2920  141.6810 N   0  0  0  0  0  2  0  0  0  0  0  0
  184.0930  177.6050  142.7620 C   0  0  0  0  0  3  0  0  0  0  0  0
  188.8500  175.9980  140.8040 C   0  0  0  0  0  2  0  0  0  0  0  0
  188.2880  174.7030  140.9780 O   0  0  0  0  0  0  0  0  0  0  0  0
  188.3870  173.7210  139.9950 C   0  0  0  0  0  0  0  0  0  0  0  0
  189.1780  173.9440  138.8250 N   0  0  0  0  0  2  0  0  0  0  0  0
  187.7530  172.6430  140.1360 O   0  0  0  0  0  0  0  0  0  0  0  0
  191.1200  173.0000  136.5000 N   0  0  2  0  0  0  0  0  0  0  0  0
  192.4950  171.1120  136.8400 N   0  0  0  0  0  2  0  0  0  0  0  0
  190.3900  172.3060  137.5200 C   0  0  2  0  0  0  0  0  0  0  0  0
  188.9430  173.8570  136.5020 O   0  0  0  0  0  0  0  0  0  0  0  0
  191.0570  170.9570  137.2420 C   0  0  2  0  0  0  0  0  0  0  0  0
  189.6860  171.0760  136.8340 C   0  0  0  0  0  2  0  0  0  0  0  0
  189.1010  173.0710  137.6640 C   0  0  2  0  0  3  0  0  0  0  0  0
  190.0740  173.6140  135.6880 C   0  0  1  0  0  3  0  0  0  0  0  0
  191.5230  171.6880  135.9990 C   0  0  1  0  0  3  0  0  0  0  0  0
  191.6650  175.2910  135.9780 C   0  0  0  0  0  1  0  0  0  0  0  0
  190.5570  174.8710  135.1420 N   0  0  0  0  0  2  0  0  0  0  0  0
  1  9  1  1  0  0  0
  1 24  1  0  0  0  0
  1 12  1  0  0  0  0
  6 14  1  0  0  0  0
  7 33  1  0  0  0  0
  8 15  1  6  0  0  0
  8 21  1  0  0  0  0
 10  7  1  0  0  0  0
 12  3  1  6  0  0  0
 12 34  1  0  0  0  0
 13 24  1  0  0  0  0
 13 15  1  1  0  0  0
 14 32  1  0  0  0  0
 16  5  1  6  0  0  0
 16 27  1  0  0  0  0
 16 18  1  0  0  0  0
 16 35  1  0  0  0  0
 17 41  1  0  0  0  0
 17  3  1  0  0  0  0
 18 11  1  1  0  0  0
 18 35  1  0  0  0  0
 19 13  1  0  0  0  0
 20  9  1  6  0  0  0
 20  2  1  0  0  0  0
 21 29  1  0  0  0  0
 22 44  1  6  0  0  0
 22  6  1  0  0  0  0
 22 20  1  0  0  0  0
 23 21  2  0  0  0  0
 23 41  1  0  0  0  0
 25 31  2  0  0  0  0
 26 31  1  0  0  0  0
 27 37  1  1  0  0  0
 27 19  1  0  0  0  0
 28  2  1  6  0  0  0
 28 40  1  0  0  0  0
 28 30  1  0  0  0  0
 29 26  2  0  0  0  0
 30  4  1  0  0  0  0
 32 43  1  6  0  0  0
 32 10  1  0  0  0  0
 33  4  1  0  0  0  0
 34 40  1  0  0  0  0
 34 36  2  0  0  0  0
 35  8  1  0  0  0  0
 37 11  1  0  0  0  0
 39 29  1  0  0  0  0
 39 38  1  0  0  0  0
 41 25  1  0  0  0  0
 42 43  2  0  0  0  0
 44 45  1  0  0  0  0
 46 48  2  0  0  0  0
 46 45  1  0  0  0  0
 47 46  1  0  0  0  0
 49 51  1  0  0  0  0
 50 53  1  0  0  0  0
 51 55  1  0  0  0  0
 52 55  1  0  0  0  0
 53 51  1  0  0  0  0
 54 53  1  0  0  0  0
 54 51  1  0  0  0  0
 55 47  1  0  0  0  0
 56 49  1  0  0  0  0
 56 52  1  0  0  0  0
 57 49  1  0  0  0  0
 57 50  1  0  0  0  0
 57 53  1  0  0  0  0
 59 56  1  0  0  0  0
 59 58  1  0  0  0  0
M  END
>  <MODEL>
6

>  <REMARK>
 VINA RESULT:      -8.3      2.903      7.635
  Name = 
  6 active torsions:
  status: ('A' for Active; 'I' for Inactive)
    1  A    between atoms: C_13  and  O_23
    2  A    between atoms: O_23  and  C_57
    3  A    between atoms: N_27  and  C_40
    4  A    between atoms: C_33  and  C_57
    5  A    between atoms: N_37  and  C_43
    6  A    between atoms: C_46  and  C_49
                            x       y       z     vdW  Elec       q    Type
                         _______ _______ _______ _____ _____    ______ ____

>  <TORSDO>
F 6

$$$$
=
 OpenBabel11042415453D

 59 69  0  0  1  0  0  0  0  0999 V2000
  193.1280  173.3880  139.9110 C   0  0  1  0  0  3  0  0  0  0  0  0
  193.5060  175.5800  142.4040 C   0  0  0  0  0  2  0  0  0  0  0  0
  194.5880  174.6870  138.2340 C   0  0  0  0  0  2  0  0  0  0  0  0
  196.4580  175.2400  144.6760 C   0  0  0  0  0  2  0  0  0  0  0  0
  189.3300  169.9290  137.1510 F   0  0  0  0  0  0  0  0  0  0  0  0
  191.0660  174.9180  144.1480 C   0  0  0  0  0  2  0  0  0  0  0  0
  194.5260  176.5740  146.0050 C   0  0  0  0  0  2  0  0  0  0  0  0
  193.0030  169.7190  138.1330 C   0  0  2  0  0  3  0  0  0  0  0  0
  192.3060  174.5550  140.4840 C   0  0  0  0  0  2  0  0  0  0  0  0
  193.2360  176.6030  146.8170 C   0  0  0  0  0  2  0  0  0  0  0  0
  190.8100  168.5110  139.9390 C   0  0  0  0  0  2  0  0  0  0  0  0
  194.5610  173.7610  139.4700 C   0  0  1  0  0  3  0  0  0  0  0  0
  192.3550  171.2100  140.2130 C   0  0  2  0  0  3  0  0  0  0  0  0
  191.7250  176.0910  144.8560 C   0  0  0  0  0  2  0  0  0  0  0  0
  193.2150  170.0730  139.6230 C   0  0  0  0  0  2  0  0  0  0  0  0
  190.3870  169.8680  138.0340 C   0  0  2  0  0  0  0  0  0  0  0  0
  193.7470  174.2830  137.1620 O   0  0  0  0  0  0  0  0  0  0  0  0
  190.6500  168.4390  138.4330 C   0  0  1  0  0  3  0  0  0  0  0  0
  191.2570  171.6310  139.4280 O   0  0  0  0  0  0  0  0  0  0  0  0
  192.3750  174.6420  142.0120 C   0  0  2  0  0  3  0  0  0  0  0  0
  193.7160  170.6330  137.1770 C   0  0  0  0  0  0  0  0  0  0  0  0
  191.0470  175.1090  142.6320 C   0  0  1  0  0  3  0  0  0  0  0  0
  193.5640  171.9350  137.3730 C   0  0  0  0  0  3  0  0  0  0  0  0
  193.1250  172.2640  140.7640 O   0  0  0  0  0  0  0  0  0  0  0  0
  195.6280  172.9090  136.3810 C   0  0  0  0  0  3  0  0  0  0  0  0
  195.5500  170.6000  135.5350 N   0  0  0  0  0  0  0  0  0  0  0  0
  190.2740  170.6160  139.3400 C   0  0  2  0  0  3  0  0  0  0  0  0
  194.6910  174.7880  142.9410 C   0  0  2  0  0  3  0  0  0  0  0  0
  194.4690  170.0630  136.0310 C   0  0  0  0  0  0  0  0  0  0  0  0
  195.7640  175.7530  143.4170 C   0  0  0  0  0  2  0  0  0  0  0  0
  196.2200  171.8210  135.8880 C   0  0  0  0  0  3  0  0  0  0  0  0
  192.1740  175.6640  146.2490 C   0  0  2  0  0  3  0  0  0  0  0  0
  195.2950  174.9220  146.0550 S   0  0  0  0  0  0  0  0  0  0  0  0
  195.4330  174.2960  140.5790 C   0  0  0  0  0  0  0  0  0  0  0  0
  191.6600  169.1960  137.5610 C   0  0  2  0  0  3  0  0  0  0  0  0
  196.3720  175.0980  140.3260 O   0  0  0  0  0  0  0  0  0  0  0  0
  190.2620  169.7110  140.4230 O   0  0  0  0  0  0  0  0  0  0  0  0
  194.7140  168.1870  134.5170 O   0  0  0  0  0  1  0  0  0  0  0  0
  194.0480  168.7970  135.5260 N   0  0  0  0  0  2  0  0  0  0  0  0
  195.2120  173.8760  141.9270 N   0  0  0  0  0  2  0  0  0  0  0  0
  194.1470  173.0470  136.5830 C   0  0  2  0  0  3  0  0  0  0  0  0
  191.1890  175.3520  148.4410 N   0  0  0  0  0  2  0  0  0  0  0  0
  191.0130  175.5590  147.1890 C   0  0  0  0  0  3  0  0  0  0  0  0
  189.8520  174.3390  142.0680 C   0  0  0  0  0  2  0  0  0  0  0  0
  189.1160  175.1500  141.1590 O   0  0  0  0  0  0  0  0  0  0  0  0
  187.9280  175.7760  141.5300 C   0  0  0  0  0  0  0  0  0  0  0  0
  187.5940  175.9380  142.9110 N   0  0  0  0  0  2  0  0  0  0  0  0
  187.1390  176.1770  140.6340 O   0  0  0  0  0  0  0  0  0  0  0  0
  186.3380  178.1360  144.8240 N   0  0  2  0  0  0  0  0  0  0  0  0
  185.8400  180.2730  143.9550 N   0  0  0  0  0  2  0  0  0  0  0  0
  186.1910  177.8400  143.4290 C   0  0  2  0  0  0  0  0  0  0  0  0
  186.0180  175.8260  144.6320 O   0  0  0  0  0  0  0  0  0  0  0  0
  185.3870  179.1070  143.1260 C   0  0  2  0  0  0  0  0  0  0  0  0
  184.6510  177.8750  143.1050 C   0  0  0  0  0  2  0  0  0  0  0  0
  186.2620  176.3390  143.3400 C   0  0  2  0  0  3  0  0  0  0  0  0
  185.8240  176.9380  145.4820 C   0  0  1  0  0  3  0  0  0  0  0  0
  185.3130  179.1600  144.6390 C   0  0  1  0  0  3  0  0  0  0  0  0
  187.8210  177.3870  146.5950 C   0  0  0  0  0  1  0  0  0  0  0  0
  186.5380  176.7250  146.7290 N   0  0  0  0  0  2  0  0  0  0  0  0
  1  9  1  1  0  0  0
  1 24  1  0  0  0  0
  4 33  1  0  0  0  0
  6 14  1  0  0  0  0
  7 33  1  0  0  0  0
  7 10  1  0  0  0  0
  8 15  1  1  0  0  0
 11 37  1  0  0  0  0
 12  3  1  6  0  0  0
 12  1  1  0  0  0  0
 12 34  1  0  0  0  0
 13 15  1  6  0  0  0
 13 24  1  0  0  0  0
 14 32  1  0  0  0  0
 16  5  1  6  0  0  0
 16 18  1  0  0  0  0
 16 27  1  0  0  0  0
 17  3  1  0  0  0  0
 18 11  1  1  0  0  0
 19 13  1  0  0  0  0
 20  9  1  6  0  0  0
 20  2  1  0  0  0  0
 20 22  1  0  0  0  0
 21 23  2  0  0  0  0
 21  8  1  0  0  0  0
 22 44  1  6  0  0  0
 22  6  1  0  0  0  0
 25 41  1  0  0  0  0
 26 31  1  0  0  0  0
 26 29  2  0  0  0  0
 27 19  1  1  0  0  0
 27 37  1  0  0  0  0
 28  2  1  6  0  0  0
 28 30  1  0  0  0  0
 29 21  1  0  0  0  0
 30  4  1  0  0  0  0
 31 25  2  0  0  0  0
 32 10  1  0  0  0  0
 32 43  1  1  0  0  0
 34 40  1  0  0  0  0
 35 16  1  0  0  0  0
 35  8  1  0  0  0  0
 35 18  1  0  0  0  0
 36 34  2  0  0  0  0
 38 39  1  0  0  0  0
 39 29  1  0  0  0  0
 40 28  1  0  0  0  0
 41 17  1  0  0  0  0
 41 23  1  0  0  0  0
 43 42  2  0  0  0  0
 45 46  1  0  0  0  0
 45 44  1  0  0  0  0
 46 47  1  0  0  0  0
 47 55  1  0  0  0  0
 48 46  2  0  0  0  0
 49 56  1  0  0  0  0
 50 57  1  0  0  0  0
 51 49  1  0  0  0  0
 52 56  1  0  0  0  0
 53 51  1  0  0  0  0
 53 50  1  0  0  0  0
 53 57  1  0  0  0  0
 54 53  1  0  0  0  0
 54 51  1  0  0  0  0
 55 51  1  0  0  0  0
 55 52  1  0  0  0  0
 56 59  1  0  0  0  0
 57 49  1  0  0  0  0
 58 59  1  0  0  0  0
M  END
>  <MODEL>
7

>  <REMARK>
 VINA RESULT:      -8.2      3.644      7.360
  Name = 
  6 active torsions:
  status: ('A' for Active; 'I' for Inactive)
    1  A    between atoms: C_13  and  O_23
    2  A    between atoms: O_23  and  C_57
    3  A    between atoms: N_27  and  C_40
    4  A    between atoms: C_33  and  C_57
    5  A    between atoms: N_37  and  C_43
    6  A    between atoms: C_46  and  C_49
                            x       y       z     vdW  Elec       q    Type
                         _______ _______ _______ _____ _____    ______ ____

>  <TORSDO>
F 6

$$$$
=
 OpenBabel11042415453D

 59 69  0  0  1  0  0  0  0  0999 V2000
  191.4810  172.1150  141.1420 C   0  0  1  0  0  3  0  0  0  0  0  0
  189.9470  172.2170  138.1750 C   0  0  0  0  0  2  0  0  0  0  0  0
  191.7910  169.5590  141.1580 C   0  0  0  0  0  2  0  0  0  0  0  0
  192.0280  172.4270  135.0740 C   0  0  0  0  0  2  0  0  0  0  0  0
  191.5040  174.2680  146.5620 F   0  0  0  0  0  0  0  0  0  0  0  0
  188.4910  174.9150  138.3550 C   0  0  0  0  0  2  0  0  0  0  0  0
  189.5850  173.4240  134.5140 C   0  0  0  0  0  2  0  0  0  0  0  0
  194.1450  173.2260  144.0240 C   0  0  2  0  0  3  0  0  0  0  0  0
  190.0210  172.1880  140.6600 C   0  0  0  0  0  2  0  0  0  0  0  0
  188.5630  174.5560  134.5410 C   0  0  0  0  0  2  0  0  0  0  0  0
  193.2380  176.1680  144.2480 C   0  0  0  0  0  2  0  0  0  0  0  0
  192.2820  170.9120  140.5990 C   0  0  1  0  0  3  0  0  0  0  0  0
  192.4200  173.9820  142.1750 C   0  0  2  0  0  3  0  0  0  0  0  0
  188.0630  174.3470  137.0100 C   0  0  0  0  0  2  0  0  0  0  0  0
  193.8850  173.8620  142.6400 C   0  0  0  0  0  2  0  0  0  0  0  0
  192.1990  174.3520  145.3750 C   0  0  2  0  0  0  0  0  0  0  0  0
  191.5930  169.5260  142.5650 O   0  0  0  0  0  0  0  0  0  0  0  0
  193.3390  175.3280  145.5050 C   0  0  1  0  0  3  0  0  0  0  0  0
  191.4330  173.7670  143.1650 O   0  0  0  0  0  0  0  0  0  0  0  0
  189.8440  173.0770  139.4250 C   0  0  2  0  0  3  0  0  0  0  0  0
  194.1160  171.7240  144.0250 C   0  0  0  0  0  0  0  0  0  0  0  0
  188.5100  173.8440  139.4430 C   0  0  1  0  0  3  0  0  0  0  0  0
  193.0790  171.1480  143.4340 C   0  0  0  0  0  3  0  0  0  0  0  0
  192.1700  173.3310  140.9420 O   0  0  0  0  0  0  0  0  0  0  0  0
  193.9690  168.9270  142.7490 C   0  0  0  0  0  3  0  0  0  0  0  0
  195.6160  169.7990  144.3540 N   0  0  0  0  0  0  0  0  0  0  0  0
  191.4550  174.7950  144.1380 C   0  0  2  0  0  3  0  0  0  0  0  0
  191.2800  172.4520  137.4780 C   0  0  2  0  0  3  0  0  0  0  0  0
  195.1710  170.9640  144.7420 C   0  0  0  0  0  0  0  0  0  0  0  0
  191.3150  171.6580  136.1830 C   0  0  0  0  0  2  0  0  0  0  0  0
  195.2010  168.9710  143.2570 C   0  0  0  0  0  3  0  0  0  0  0  0
  188.5270  175.2700  135.8900 C   0  0  2  0  0  3  0  0  0  0  0  0
  191.2760  174.0650  134.7430 S   0  0  0  0  0  0  0  0  0  0  0  0
  192.4060  170.8760  139.0950 C   0  0  0  0  0  0  0  0  0  0  0  0
  193.6210  173.8280  145.3540 C   0  0  2  0  0  3  0  0  0  0  0  0
  192.5390  169.7780  138.4900 O   0  0  0  0  0  0  0  0  0  0  0  0
  191.9600  176.0300  143.6800 O   0  0  0  0  0  0  0  0  0  0  0  0
  196.8190  170.9950  146.5190 O   0  0  0  0  0  1  0  0  0  0  0  0
  195.8110  171.6010  145.8460 N   0  0  0  0  0  2  0  0  0  0  0  0
  192.3960  172.0940  138.3480 N   0  0  0  0  0  2  0  0  0  0  0  0
  192.8020  169.6980  143.2950 C   0  0  2  0  0  3  0  0  0  0  0  0
  188.0780  177.5460  135.1860 N   0  0  0  0  0  2  0  0  0  0  0  0
  187.6760  176.5000  135.8080 C   0  0  0  0  0  3  0  0  0  0  0  0
  188.2620  174.5260  140.7890 C   0  0  0  0  0  2  0  0  0  0  0  0
  187.8120  175.8630  140.6000 O   0  0  0  0  0  0  0  0  0  0  0  0
  187.9210  176.8230  141.6030 C   0  0  0  0  0  0  0  0  0  0  0  0
  188.6580  176.5440  142.7970 N   0  0  0  0  0  2  0  0  0  0  0  0
  187.3430  177.9320  141.4590 O   0  0  0  0  0  0  0  0  0  0  0  0
  187.1710  176.5080  145.6000 N   0  0  2  0  0  0  0  0  0  0  0  0
  188.1930  175.4310  147.4340 N   0  0  0  0  0  2  0  0  0  0  0  0
  188.5500  176.5550  145.2140 C   0  0  2  0  0  0  0  0  0  0  0  0
  187.3720  178.1330  143.9280 O   0  0  0  0  0  0  0  0  0  0  0  0
  189.0750  176.3470  146.6370 C   0  0  2  0  0  0  0  0  0  0  0  0
  189.2420  177.6640  146.0910 C   0  0  0  0  0  2  0  0  0  0  0  0
  188.5790  177.4020  143.9700 C   0  0  2  0  0  3  0  0  0  0  0  0
  186.6250  177.7530  145.0670 C   0  0  1  0  0  3  0  0  0  0  0  0
  187.6280  176.6400  146.9810 C   0  0  1  0  0  3  0  0  0  0  0  0
  184.4370  178.3390  145.6130 C   0  0  0  0  0  1  0  0  0  0  0  0
  185.2360  177.5540  144.6910 N   0  0  0  0  0  2  0  0  0  0  0  0
  1  9  1  6  0  0  0
  3 17  1  0  0  0  0
  4 30  1  0  0  0  0
  6 22  1  0  0  0  0
  7 10  1  0  0  0  0
  7 33  1  0  0  0  0
  8 15  1  6  0  0  0
  8 21  1  0  0  0  0
  8 35  1  0  0  0  0
 10 32  1  0  0  0  0
 12  1  1  0  0  0  0
 12  3  1  6  0  0  0
 13 15  1  1  0  0  0
 13 19  1  0  0  0  0
 14  6  1  0  0  0  0
 16 18  1  0  0  0  0
 16  5  1  1  0  0  0
 17 41  1  0  0  0  0
 18 11  1  6  0  0  0
 20  2  1  6  0  0  0
 20 22  1  0  0  0  0
 20  9  1  0  0  0  0
 21 29  1  0  0  0  0
 22 44  1  1  0  0  0
 23 21  2  0  0  0  0
 24  1  1  0  0  0  0
 24 13  1  0  0  0  0
 25 31  2  0  0  0  0
 25 41  1  0  0  0  0
 26 29  2  0  0  0  0
 27 19  1  6  0  0  0
 27 16  1  0  0  0  0
 28 30  1  6  0  0  0
 28  2  1  0  0  0  0
 28 40  1  0  0  0  0
 29 39  1  0  0  0  0
 31 26  1  0  0  0  0
 32 43  1  6  0  0  0
 32 14  1  0  0  0  0
 33  4  1  0  0  0  0
 34 12  1  0  0  0  0
 35 16  1  0  0  0  0
 35 18  1  0  0  0  0
 36 34  2  0  0  0  0
 37 27  1  0  0  0  0
 37 11  1  0  0  0  0
 39 38  1  0  0  0  0
 40 34  1  0  0  0  0
 41 23  1  0  0  0  0
 42 43  2  0  0  0  0
 45 44  1  0  0  0  0
 45 46  1  0  0  0  0
 46 47  1  0  0  0  0
 47 55  1  0  0  0  0
 48 46  2  0  0  0  0
 49 57  1  0  0  0  0
 51 49  1  0  0  0  0
 51 54  1  0  0  0  0
 51 53  1  0  0  0  0
 52 55  1  0  0  0  0
 52 56  1  0  0  0  0
 53 57  1  0  0  0  0
 53 50  1  0  0  0  0
 54 53  1  0  0  0  0
 55 51  1  0  0  0  0
 56 49  1  0  0  0  0
 57 50  1  0  0  0  0
 59 56  1  0  0  0  0
 59 58  1  0  0  0  0
M  END
>  <MODEL>
8

>  <REMARK>
 VINA RESULT:      -8.2      1.668      2.101
  Name = 
  6 active torsions:
  status: ('A' for Active; 'I' for Inactive)
    1  A    between atoms: C_13  and  O_23
    2  A    between atoms: O_23  and  C_57
    3  A    between atoms: N_27  and  C_40
    4  A    between atoms: C_33  and  C_57
    5  A    between atoms: N_37  and  C_43
    6  A    between atoms: C_46  and  C_49
                            x       y       z     vdW  Elec       q    Type
                         _______ _______ _______ _____ _____    ______ ____

>  <TORSDO>
F 6

$$$$
=
 OpenBabel11042415453D

 59 69  0  0  1  0  0  0  0  0999 V2000
  192.1160  173.8270  142.0460 C   0  0  1  0  0  3  0  0  0  0  0  0
  189.2990  174.4670  143.7250 C   0  0  0  0  0  2  0  0  0  0  0  0
  191.2090  171.7290  140.8590 C   0  0  0  0  0  2  0  0  0  0  0  0
  186.6420  176.5200  142.0770 C   0  0  0  0  0  2  0  0  0  0  0  0
  197.9350  173.6940  142.3920 F   0  0  0  0  0  0  0  0  0  0  0  0
  190.3620  176.2130  146.0180 C   0  0  0  0  0  2  0  0  0  0  0  0
  186.3250  176.7260  144.7480 C   0  0  0  0  0  2  0  0  0  0  0  0
  195.3770  174.6580  139.7420 C   0  0  2  0  0  3  0  0  0  0  0  0
  191.5960  173.5540  143.4690 C   0  0  0  0  0  2  0  0  0  0  0  0
  186.6980  177.3310  146.0970 C   0  0  0  0  0  2  0  0  0  0  0  0
  196.6080  176.7910  141.6040 C   0  0  0  0  0  2  0  0  0  0  0  0
  191.2230  173.2720  140.9140 C   0  0  1  0  0  3  0  0  0  0  0  0
  193.8240  175.3840  141.7500 C   0  0  2  0  0  3  0  0  0  0  0  0
  188.8760  176.0670  146.3150 C   0  0  0  0  0  2  0  0  0  0  0  0
  194.3100  175.6240  140.3060 C   0  0  0  0  0  2  0  0  0  0  0  0
  196.9130  174.4470  141.8570 C   0  0  2  0  0  0  0  0  0  0  0  0
  192.4880  171.1140  140.9310 O   0  0  0  0  0  0  0  0  0  0  0  0
  197.4710  175.6400  141.1260 C   0  0  1  0  0  3  0  0  0  0  0  0
  194.5970  174.4880  142.5250 O   0  0  0  0  0  0  0  0  0  0  0  0
  190.7680  174.7110  144.0340 C   0  0  2  0  0  3  0  0  0  0  0  0
  194.8220  173.3550  139.2420 C   0  0  0  0  0  0  0  0  0  0  0  0
  190.9770  174.8960  145.5470 C   0  0  1  0  0  3  0  0  0  0  0  0
  193.9920  172.7120  140.0510 C   0  0  0  0  0  3  0  0  0  0  0  0
  192.4240  175.1890  141.8430 O   0  0  0  0  0  0  0  0  0  0  0  0
  192.5980  171.3650  138.4900 C   0  0  0  0  0  3  0  0  0  0  0  0
  194.5190  172.1040  137.1430 N   0  0  0  0  0  0  0  0  0  0  0  0
  195.8790  175.0230  142.7950 C   0  0  2  0  0  3  0  0  0  0  0  0
  188.8290  175.3940  142.6120 C   0  0  2  0  0  3  0  0  0  0  0  0
  195.2780  172.8080  137.9390 C   0  0  0  0  0  0  0  0  0  0  0  0
  187.3380  175.1990  142.3940 C   0  0  0  0  0  2  0  0  0  0  0  0
  193.1680  171.6480  137.3190 C   0  0  0  0  0  3  0  0  0  0  0  0
  188.2100  177.4370  146.2850 C   0  0  2  0  0  3  0  0  0  0  0  0
  186.8870  177.7880  143.3770 S   0  0  0  0  0  0  0  0  0  0  0  0
  189.8240  173.8370  140.8930 C   0  0  0  0  0  0  0  0  0  0  0  0
  196.7960  174.5040  140.3470 C   0  0  2  0  0  3  0  0  0  0  0  0
  188.8660  173.1620  140.4270 O   0  0  0  0  0  0  0  0  0  0  0  0
  195.9440  176.4320  142.7900 O   0  0  0  0  0  0  0  0  0  0  0  0
  197.0490  172.7590  136.2850 O   0  0  0  0  0  1  0  0  0  0  0  0
  196.5800  173.1740  137.4860 N   0  0  0  0  0  2  0  0  0  0  0  0
  189.5790  175.1580  141.3830 N   0  0  0  0  0  2  0  0  0  0  0  0
  193.3100  171.4170  139.8110 C   0  0  2  0  0  3  0  0  0  0  0  0
  187.6010  178.6790  148.2760 N   0  0  0  0  0  2  0  0  0  0  0  0
  188.5290  178.2270  147.5160 C   0  0  0  0  0  3  0  0  0  0  0  0
  192.4600  174.9010  145.9220 C   0  0  0  0  0  2  0  0  0  0  0  0
  192.9590  173.5710  146.0120 O   0  0  0  0  0  0  0  0  0  0  0  0
  194.2930  173.2700  145.7460 C   0  0  0  0  0  0  0  0  0  0  0  0
  194.6640  171.9720  145.2720 N   0  0  0  0  0  2  0  0  0  0  0  0
  195.1740  174.1460  145.9510 O   0  0  0  0  0  0  0  0  0  0  0  0
  196.2140  169.2100  145.0900 N   0  0  2  0  0  0  0  0  0  0  0  0
  196.6940  168.2950  142.9680 N   0  0  0  0  0  2  0  0  0  0  0  0
  196.1900  170.3850  144.2700 C   0  0  2  0  0  0  0  0  0  0  0  0
  196.4180  171.0560  146.5130 O   0  0  0  0  0  0  0  0  0  0  0  0
  197.0040  169.7540  143.1380 C   0  0  2  0  0  0  0  0  0  0  0  0
  197.6830  170.7430  143.9250 C   0  0  0  0  0  2  0  0  0  0  0  0
  196.0500  171.5310  145.2360 C   0  0  2  0  0  3  0  0  0  0  0  0
  196.7510  169.6910  146.3590 C   0  0  1  0  0  3  0  0  0  0  0  0
  197.2510  168.6980  144.1970 C   0  0  1  0  0  3  0  0  0  0  0  0
  194.7970  168.6540  147.0900 C   0  0  0  0  0  1  0  0  0  0  0  0
  196.1750  168.9260  147.4510 N   0  0  0  0  0  2  0  0  0  0  0  0
  1  9  1  1  0  0  0
  2 20  1  0  0  0  0
  3 17  1  0  0  0  0
  4 30  1  0  0  0  0
  4 33  1  0  0  0  0
  6 14  1  0  0  0  0
  7 10  1  0  0  0  0
  8 15  1  1  0  0  0
  8 35  1  0  0  0  0
 10 32  1  0  0  0  0
 11 37  1  0  0  0  0
 12  3  1  1  0  0  0
 12  1  1  0  0  0  0
 13 15  1  6  0  0  0
 13 24  1  0  0  0  0
 13 19  1  0  0  0  0
 16  5  1  1  0  0  0
 16 27  1  0  0  0  0
 18 11  1  1  0  0  0
 18 16  1  0  0  0  0
 20  9  1  1  0  0  0
 20 22  1  0  0  0  0
 21  8  1  0  0  0  0
 21 23  2  0  0  0  0
 22 44  1  6  0  0  0
 22  6  1  0  0  0  0
 24  1  1  0  0  0  0
 25 41  1  0  0  0  0
 26 31  1  0  0  0  0
 26 29  2  0  0  0  0
 27 19  1  6  0  0  0
 28 30  1  6  0  0  0
 28  2  1  0  0  0  0
 29 21  1  0  0  0  0
 31 25  2  0  0  0  0
 32 14  1  0  0  0  0
 32 43  1  1  0  0  0
 33  7  1  0  0  0  0
 34 12  1  0  0  0  0
 34 40  1  0  0  0  0
 35 18  1  0  0  0  0
 35 16  1  0  0  0  0
 36 34  2  0  0  0  0
 37 27  1  0  0  0  0
 38 39  1  0  0  0  0
 39 29  1  0  0  0  0
 40 28  1  0  0  0  0
 41 23  1  0  0  0  0
 41 17  1  0  0  0  0
 43 42  2  0  0  0  0
 44 45  1  0  0  0  0
 46 48  2  0  0  0  0
 46 45  1  0  0  0  0
 47 46  1  0  0  0  0
 49 56  1  0  0  0  0
 50 53  1  0  0  0  0
 50 57  1  0  0  0  0
 51 49  1  0  0  0  0
 51 55  1  0  0  0  0
 53 54  1  0  0  0  0
 53 57  1  0  0  0  0
 53 51  1  0  0  0  0
 54 51  1  0  0  0  0
 55 47  1  0  0  0  0
 55 52  1  0  0  0  0
 56 52  1  0  0  0  0
 56 59  1  0  0  0  0
 57 49  1  0  0  0  0
 58 59  1  0  0  0  0
M  END
>  <MODEL>
9

>  <REMARK>
 VINA RESULT:      -8.0      3.448      8.911
  Name = 
  6 active torsions:
  status: ('A' for Active; 'I' for Inactive)
    1  A    between atoms: C_13  and  O_23
    2  A    between atoms: O_23  and  C_57
    3  A    between atoms: N_27  and  C_40
    4  A    between atoms: C_33  and  C_57
    5  A    between atoms: N_37  and  C_43
    6  A    between atoms: C_46  and  C_49
                            x       y       z     vdW  Elec       q    Type
                         _______ _______ _______ _____ _____    ______ ____

>  <TORSDO>
F 6

$$$$
