=
 OpenBabel11042414563D

 39 42  0  0  1  0  0  0  0  0999 V2000
  185.9120  176.8690  144.5320 N   0  0  0  0  0  2  0  0  0  0  0  0
  188.0800  176.3550  145.5900 C   0  0  0  0  0  0  0  0  0  0  0  0
  185.7960  177.6900  143.3350 C   0  0  2  0  0  3  0  0  0  0  0  0
  188.7070  176.1010  144.2930 C   0  0  0  0  0  3  0  0  0  0  0  0
  189.8850  174.7600  142.6570 C   0  0  0  0  0  2  0  0  0  0  0  0
  184.4300  179.6170  144.3130 N   0  0  0  0  0  2  0  0  0  0  0  0
  189.5240  175.0770  144.0750 C   0  0  0  0  0  0  0  0  0  0  0  0
  188.3840  175.5930  146.6520 C   0  0  0  0  0  3  0  0  0  0  0  0
  188.6050  174.4860  141.8570 C   0  0  1  0  0  3  0  0  0  0  0  0
  183.5200  178.1850  142.7270 O   0  0  0  0  0  0  0  0  0  0  0  0
  185.4280  178.9920  146.4550 C   0  0  0  0  0  2  0  0  0  0  0  0
  188.0570  175.7320  141.2200 C   0  0  0  0  0  3  0  0  0  0  0  0
  186.9580  176.2890  141.6690 C   0  0  0  0  0  0  0  0  0  0  0  0
  184.5300  178.5060  143.4150 C   0  0  0  0  0  0  0  0  0  0  0  0
  186.8600  177.1610  145.5580 C   0  0  0  0  0  0  0  0  0  0  0  0
  186.6470  178.1300  146.4560 C   0  0  0  0  0  3  0  0  0  0  0  0
  190.5800  173.1570  144.9850 O   0  0  0  0  0  0  0  0  0  0  0  0
  185.4580  179.9630  145.2850 C   0  0  0  0  0  2  0  0  0  0  0  0
  189.4610  174.5290  146.6060 C   0  0  1  0  0  3  0  0  0  0  0  0
  189.8890  174.1860  145.1960 C   0  0  0  0  0  0  0  0  0  0  0  0
  185.8450  176.8250  142.1060 C   0  0  0  0  0  3  0  0  0  0  0  0
  188.7950  173.3740  140.8790 C   0  0  0  0  0  0  0  0  0  0  0  0
  189.2890  172.2690  141.2420 O   0  0  0  0  0  0  0  0  0  0  0  0
  188.3400  173.5620  139.5420 N   0  0  0  0  0  2  0  0  0  0  0  0
  188.4800  172.5500  138.5050 C   0  0  0  0  0  2  0  0  0  0  0  0
  189.3260  172.5890  136.2630 O   0  0  0  0  0  0  0  0  0  0  0  0
  189.4230  173.0250  137.4490 C   0  0  0  0  0  0  0  0  0  0  0  0
  190.4200  173.9440  137.7920 O   0  0  0  0  0  0  0  0  0  0  0  0
  191.6930  173.5240  138.2680 C   0  0  0  0  0  1  0  0  0  0  0  0
  190.6060  174.9380  147.4020 N   0  0  0  0  0  2  0  0  0  0  0  0
  191.0590  176.2020  146.8330 C   0  0  0  0  0  2  0  0  0  0  0  0
  193.2510  175.0470  146.6010 C   0  0  0  0  0  3  0  0  0  0  0  0
  194.4680  174.8290  145.9460 C   0  0  0  0  0  3  0  0  0  0  0  0
  194.7930  175.5700  144.8080 C   0  0  0  0  0  3  0  0  0  0  0  0
  193.9020  176.5360  144.3220 C   0  0  0  0  0  3  0  0  0  0  0  0
  192.3540  176.0100  146.1200 C   0  0  0  0  0  0  0  0  0  0  0  0
  192.6860  176.7660  144.9790 C   0  0  0  0  0  0  0  0  0  0  0  0
  191.7440  177.7460  142.9800 N   0  0  0  0  0  1  0  0  0  0  0  0
  191.7580  177.8060  144.4370 C   0  0  0  0  0  2  0  0  0  0  0  0
  1 15  1  0  0  0  0
  2  8  2  0  0  0  0
  3 21  1  6  0  0  0
  3 14  1  0  0  0  0
  3  1  1  0  0  0  0
  4  2  1  0  0  0  0
  5  7  1  0  0  0  0
  6 18  1  0  0  0  0
  7  4  2  0  0  0  0
  7 20  1  0  0  0  0
  9 22  1  6  0  0  0
  9  5  1  0  0  0  0
 10 14  2  0  0  0  0
 11 16  1  0  0  0  0
 12 13  2  0  0  0  0
 12  9  1  0  0  0  0
 13 21  2  0  0  0  0
 14  6  1  0  0  0  0
 15  2  1  0  0  0  0
 15 16  2  0  0  0  0
 17 20  2  0  0  0  0
 18 11  1  0  0  0  0
 19  8  1  0  0  0  0
 19 30  1  1  0  0  0
 20 19  1  0  0  0  0
 22 23  2  0  0  0  0
 24 22  1  0  0  0  0
 25 24  1  0  0  0  0
 26 27  2  0  0  0  0
 27 28  1  0  0  0  0
 27 25  1  0  0  0  0
 28 29  1  0  0  0  0
 31 30  1  0  0  0  0
 33 32  2  0  0  0  0
 34 33  1  0  0  0  0
 35 34  2  0  0  0  0
 35 37  1  0  0  0  0
 36 32  1  0  0  0  0
 36 31  1  0  0  0  0
 37 36  2  0  0  0  0
 38 39  1  0  0  0  0
 39 37  1  0  0  0  0
M  END
>  <MODEL>
1

>  <REMARK>
 VINA RESULT:      -8.0      0.000      0.000
  Name = 
  8 active torsions:
  status: ('A' for Active; 'I' for Inactive)
    1  A    between atoms: N_3  and  C_8
    2  A    between atoms: N_3  and  C_30
    3  A    between atoms: C_8  and  C_35
    4  A    between atoms: C_10  and  C_31
    5  A    between atoms: C_10  and  N_37
    6  A    between atoms: O_15  and  C_31
    7  A    between atoms: C_17  and  C_23
    8  A    between atoms: C_27  and  C_39
                            x       y       z     vdW  Elec       q    Type
                         _______ _______ _______ _____ _____    ______ ____

>  <TORSDO>
F 8

$$$$
=
 OpenBabel11042414563D

 39 42  0  0  1  0  0  0  0  0999 V2000
  192.5280  175.3340  143.2280 N   0  0  0  0  0  2  0  0  0  0  0  0
  190.2770  176.3280  143.3990 C   0  0  0  0  0  0  0  0  0  0  0  0
  192.8330  173.9920  143.7050 C   0  0  2  0  0  3  0  0  0  0  0  0
  189.6420  175.0840  142.9680 C   0  0  0  0  0  3  0  0  0  0  0  0
  188.2570  173.7200  141.5260 C   0  0  0  0  0  2  0  0  0  0  0  0
  194.5350  174.5960  145.5140 N   0  0  0  0  0  2  0  0  0  0  0  0
  188.6420  175.0490  142.0950 C   0  0  0  0  0  0  0  0  0  0  0  0
  189.8040  177.5130  142.9830 C   0  0  0  0  0  3  0  0  0  0  0  0
  189.4730  173.0930  140.8320 C   0  0  1  0  0  3  0  0  0  0  0  0
  195.1750  173.4450  143.6010 O   0  0  0  0  0  0  0  0  0  0  0  0
  193.3840  176.7500  145.6160 C   0  0  0  0  0  2  0  0  0  0  0  0
  190.2740  172.2280  141.7650 C   0  0  0  0  0  3  0  0  0  0  0  0
  191.4520  172.6130  142.1940 C   0  0  0  0  0  0  0  0  0  0  0  0
  194.2350  173.9710  144.2610 C   0  0  0  0  0  0  0  0  0  0  0  0
  191.6340  176.1980  143.9290 C   0  0  0  0  0  0  0  0  0  0  0  0
  192.0170  176.8640  145.0250 C   0  0  0  0  0  3  0  0  0  0  0  0
  187.2030  176.2980  140.6820 O   0  0  0  0  0  0  0  0  0  0  0  0
  193.5750  175.3900  146.2690 C   0  0  0  0  0  2  0  0  0  0  0  0
  188.5370  177.6360  142.1620 C   0  0  1  0  0  3  0  0  0  0  0  0
  188.0810  176.3160  141.5820 C   0  0  0  0  0  0  0  0  0  0  0  0
  192.6400  172.9920  142.5980 C   0  0  0  0  0  3  0  0  0  0  0  0
  189.0870  172.3840  139.5770 C   0  0  0  0  0  0  0  0  0  0  0  0
  187.9460  172.5570  139.0590 O   0  0  0  0  0  0  0  0  0  0  0  0
  190.0590  171.5630  138.9360 N   0  0  0  0  0  2  0  0  0  0  0  0
  189.7890  170.8200  137.7120 C   0  0  0  0  0  2  0  0  0  0  0  0
  189.4090  171.4620  135.4350 O   0  0  0  0  0  0  0  0  0  0  0  0
  190.0160  171.6940  136.5220 C   0  0  0  0  0  0  0  0  0  0  0  0
  190.9170  172.7590  136.6230 O   0  0  0  0  0  0  0  0  0  0  0  0
  190.5080  174.1060  136.4240 C   0  0  0  0  0  1  0  0  0  0  0  0
  187.4790  178.2380  142.9570 N   0  0  0  0  0  2  0  0  0  0  0  0
  186.7130  177.1260  143.5110 C   0  0  0  0  0  2  0  0  0  0  0  0
  184.8450  178.3130  144.6490 C   0  0  0  0  0  3  0  0  0  0  0  0
  184.1560  178.7150  145.7980 C   0  0  0  0  0  3  0  0  0  0  0  0
  184.6330  178.3570  147.0610 C   0  0  0  0  0  3  0  0  0  0  0  0
  185.8050  177.5970  147.1780 C   0  0  0  0  0  3  0  0  0  0  0  0
  186.0160  177.5520  144.7580 C   0  0  0  0  0  0  0  0  0  0  0  0
  186.5040  177.2000  146.0310 C   0  0  0  0  0  0  0  0  0  0  0  0
  188.8170  177.2270  146.7350 N   0  0  0  0  0  1  0  0  0  0  0  0
  187.7530  176.3920  146.1900 C   0  0  0  0  0  2  0  0  0  0  0  0
  1  3  1  0  0  0  0
  1 15  1  0  0  0  0
  2 15  1  0  0  0  0
  3 21  1  6  0  0  0
  3 14  1  0  0  0  0
  4  2  1  0  0  0  0
  5  7  1  0  0  0  0
  6 18  1  0  0  0  0
  7  4  2  0  0  0  0
  8  2  2  0  0  0  0
  9 22  1  6  0  0  0
  9  5  1  0  0  0  0
  9 12  1  0  0  0  0
 10 14  2  0  0  0  0
 11 18  1  0  0  0  0
 12 13  2  0  0  0  0
 13 21  2  0  0  0  0
 14  6  1  0  0  0  0
 15 16  2  0  0  0  0
 16 11  1  0  0  0  0
 17 20  2  0  0  0  0
 19 30  1  1  0  0  0
 19  8  1  0  0  0  0
 20  7  1  0  0  0  0
 20 19  1  0  0  0  0
 23 22  2  0  0  0  0
 24 22  1  0  0  0  0
 25 24  1  0  0  0  0
 26 27  2  0  0  0  0
 27 28  1  0  0  0  0
 27 25  1  0  0  0  0
 29 28  1  0  0  0  0
 30 31  1  0  0  0  0
 31 36  1  0  0  0  0
 32 36  2  0  0  0  0
 32 33  1  0  0  0  0
 33 34  2  0  0  0  0
 34 35  1  0  0  0  0
 36 37  1  0  0  0  0
 37 39  1  0  0  0  0
 37 35  2  0  0  0  0
 39 38  1  0  0  0  0
M  END
>  <MODEL>
2

>  <REMARK>
 VINA RESULT:      -7.7      2.142      6.428
  Name = 
  8 active torsions:
  status: ('A' for Active; 'I' for Inactive)
    1  A    between atoms: N_3  and  C_8
    2  A    between atoms: N_3  and  C_30
    3  A    between atoms: C_8  and  C_35
    4  A    between atoms: C_10  and  C_31
    5  A    between atoms: C_10  and  N_37
    6  A    between atoms: O_15  and  C_31
    7  A    between atoms: C_17  and  C_23
    8  A    between atoms: C_27  and  C_39
                            x       y       z     vdW  Elec       q    Type
                         _______ _______ _______ _____ _____    ______ ____

>  <TORSDO>
F 8

$$$$
=
 OpenBabel11042414563D

 39 42  0  0  1  0  0  0  0  0999 V2000
  190.9840  173.5760  140.8350 N   0  0  0  0  0  2  0  0  0  0  0  0
  191.7570  174.5920  142.9450 C   0  0  0  0  0  0  0  0  0  0  0  0
  189.8460  172.6700  140.7700 C   0  0  2  0  0  3  0  0  0  0  0  0
  190.3860  174.8810  143.3640 C   0  0  0  0  0  3  0  0  0  0  0  0
  188.5670  176.3210  144.0550 C   0  0  0  0  0  2  0  0  0  0  0  0
  191.0600  170.5750  139.9500 N   0  0  0  0  0  2  0  0  0  0  0  0
  190.0290  176.0330  143.9200 C   0  0  0  0  0  0  0  0  0  0  0  0
  192.7420  175.4700  143.1910 C   0  0  0  0  0  3  0  0  0  0  0  0
  187.9100  176.2740  142.6700 C   0  0  1  0  0  3  0  0  0  0  0  0
  189.5290  171.6800  138.5980 O   0  0  0  0  0  0  0  0  0  0  0  0
  193.0410  171.5330  141.0140 C   0  0  0  0  0  2  0  0  0  0  0  0
  187.3970  174.9010  142.3330 C   0  0  0  0  0  3  0  0  0  0  0  0
  187.9950  174.1630  141.4280 C   0  0  0  0  0  0  0  0  0  0  0  0
  190.1090  171.6200  139.7190 C   0  0  0  0  0  0  0  0  0  0  0  0
  191.9040  173.5540  141.9260 C   0  0  0  0  0  0  0  0  0  0  0  0
  192.8620  172.6250  142.0170 C   0  0  0  0  0  3  0  0  0  0  0  0
  190.7250  178.1850  144.6380 O   0  0  0  0  0  0  0  0  0  0  0  0
  191.9190  170.5120  141.1250 C   0  0  0  0  0  2  0  0  0  0  0  0
  192.5230  176.7260  144.0090 C   0  0  1  0  0  3  0  0  0  0  0  0
  191.0590  177.0530  144.2040 C   0  0  0  0  0  0  0  0  0  0  0  0
  188.5820  173.4420  140.5060 C   0  0  0  0  0  3  0  0  0  0  0  0
  186.8680  177.3320  142.5170 C   0  0  0  0  0  0  0  0  0  0  0  0
  187.0700  178.3390  141.7800 O   0  0  0  0  0  0  0  0  0  0  0  0
  185.6130  177.1450  143.1650 N   0  0  0  0  0  2  0  0  0  0  0  0
  184.5290  178.1150  143.0900 C   0  0  0  0  0  2  0  0  0  0  0  0
  185.3950  180.0780  144.1570 O   0  0  0  0  0  0  0  0  0  0  0  0
  184.6220  179.0770  144.2290 C   0  0  0  0  0  0  0  0  0  0  0  0
  183.8560  178.8470  145.3760 O   0  0  0  0  0  0  0  0  0  0  0  0
  184.3880  178.1710  146.5080 C   0  0  0  0  0  1  0  0  0  0  0  0
  193.1980  176.6140  145.2920 N   0  0  0  0  0  2  0  0  0  0  0  0
  194.5640  177.0750  145.0670 C   0  0  0  0  0  2  0  0  0  0  0  0
  195.4140  174.9470  146.0350 C   0  0  0  0  0  3  0  0  0  0  0  0
  196.2630  173.8360  146.0190 C   0  0  0  0  0  3  0  0  0  0  0  0
  197.2010  173.6870  144.9950 C   0  0  0  0  0  3  0  0  0  0  0  0
  197.2930  174.6520  143.9830 C   0  0  0  0  0  3  0  0  0  0  0  0
  195.4990  175.9150  145.0270 C   0  0  0  0  0  0  0  0  0  0  0  0
  196.4510  175.7720  143.9990 C   0  0  0  0  0  0  0  0  0  0  0  0
  196.1550  176.2010  141.6390 N   0  0  0  0  0  1  0  0  0  0  0  0
  196.5760  176.7850  142.9070 C   0  0  0  0  0  2  0  0  0  0  0  0
  1 15  1  0  0  0  0
  2  8  2  0  0  0  0
  2  4  1  0  0  0  0
  3 21  1  6  0  0  0
  3  1  1  0  0  0  0
  4  7  2  0  0  0  0
  6 18  1  0  0  0  0
  7  5  1  0  0  0  0
  7 20  1  0  0  0  0
  8 19  1  0  0  0  0
  9 22  1  1  0  0  0
  9  5  1  0  0  0  0
 10 14  2  0  0  0  0
 11 18  1  0  0  0  0
 11 16  1  0  0  0  0
 12  9  1  0  0  0  0
 13 12  2  0  0  0  0
 14  6  1  0  0  0  0
 14  3  1  0  0  0  0
 15 16  2  0  0  0  0
 15  2  1  0  0  0  0
 19 20  1  0  0  0  0
 19 30  1  1  0  0  0
 20 17  2  0  0  0  0
 21 13  2  0  0  0  0
 22 24  1  0  0  0  0
 23 22  2  0  0  0  0
 25 24  1  0  0  0  0
 25 27  1  0  0  0  0
 26 27  2  0  0  0  0
 27 28  1  0  0  0  0
 28 29  1  0  0  0  0
 31 30  1  0  0  0  0
 33 32  1  0  0  0  0
 34 33  2  0  0  0  0
 35 37  2  0  0  0  0
 35 34  1  0  0  0  0
 36 31  1  0  0  0  0
 36 32  2  0  0  0  0
 37 36  1  0  0  0  0
 38 39  1  0  0  0  0
 39 37  1  0  0  0  0
M  END
>  <MODEL>
3

>  <REMARK>
 VINA RESULT:      -7.6      2.456      6.858
  Name = 
  8 active torsions:
  status: ('A' for Active; 'I' for Inactive)
    1  A    between atoms: N_3  and  C_8
    2  A    between atoms: N_3  and  C_30
    3  A    between atoms: C_8  and  C_35
    4  A    between atoms: C_10  and  C_31
    5  A    between atoms: C_10  and  N_37
    6  A    between atoms: O_15  and  C_31
    7  A    between atoms: C_17  and  C_23
    8  A    between atoms: C_27  and  C_39
                            x       y       z     vdW  Elec       q    Type
                         _______ _______ _______ _____ _____    ______ ____

>  <TORSDO>
F 8

$$$$
=
 OpenBabel11042414563D

 39 42  0  0  1  0  0  0  0  0999 V2000
  192.9260  174.8790  144.0230 N   0  0  0  0  0  2  0  0  0  0  0  0
  191.4090  174.8120  142.0790 C   0  0  0  0  0  0  0  0  0  0  0  0
  193.2920  176.1200  144.6910 C   0  0  2  0  0  3  0  0  0  0  0  0
  190.4960  175.7730  142.6980 C   0  0  0  0  0  3  0  0  0  0  0  0
  188.3600  176.5190  143.5590 C   0  0  0  0  0  2  0  0  0  0  0  0
  195.8060  176.0850  144.2320 N   0  0  0  0  0  2  0  0  0  0  0  0
  189.1750  175.6340  142.6690 C   0  0  0  0  0  0  0  0  0  0  0  0
  190.9300  173.7780  141.3710 C   0  0  0  0  0  3  0  0  0  0  0  0
  188.7970  176.3150  145.0160 C   0  0  1  0  0  3  0  0  0  0  0  0
  194.9770  175.8360  146.3870 O   0  0  0  0  0  0  0  0  0  0  0  0
  195.2420  174.7330  142.2760 C   0  0  0  0  0  2  0  0  0  0  0  0
  189.8890  177.2670  145.4180 C   0  0  0  0  0  3  0  0  0  0  0  0
  191.1160  176.8420  145.6050 C   0  0  0  0  0  0  0  0  0  0  0  0
  194.7210  176.0250  145.1640 C   0  0  0  0  0  0  0  0  0  0  0  0
  192.7730  174.8030  142.6050 C   0  0  0  0  0  0  0  0  0  0  0  0
  193.8300  174.7260  141.7890 C   0  0  0  0  0  3  0  0  0  0  0  0
  187.3380  174.3070  141.9680 O   0  0  0  0  0  0  0  0  0  0  0  0
  195.6270  176.1130  142.7870 C   0  0  0  0  0  2  0  0  0  0  0  0
  189.4540  173.6150  141.0700 C   0  0  1  0  0  3  0  0  0  0  0  0
  188.5780  174.5080  141.9220 C   0  0  0  0  0  0  0  0  0  0  0  0
  192.3340  176.4060  145.8150 C   0  0  0  0  0  3  0  0  0  0  0  0
  187.6330  176.3460  145.9490 C   0  0  0  0  0  0  0  0  0  0  0  0
  187.7780  176.0710  147.1750 O   0  0  0  0  0  0  0  0  0  0  0  0
  186.3680  176.7620  145.4430 N   0  0  0  0  0  2  0  0  0  0  0  0
  185.1660  176.8240  146.2610 C   0  0  0  0  0  2  0  0  0  0  0  0
  185.3000  178.9240  147.4080 O   0  0  0  0  0  0  0  0  0  0  0  0
  184.7660  178.2460  146.4800 C   0  0  0  0  0  0  0  0  0  0  0  0
  183.7870  178.8110  145.6550 O   0  0  0  0  0  0  0  0  0  0  0  0
  184.0790  179.2340  144.3290 C   0  0  0  0  0  1  0  0  0  0  0  0
  189.2000  173.8470  139.6580 N   0  0  0  0  0  2  0  0  0  0  0  0
  190.4070  173.4190  138.9590 C   0  0  0  0  0  2  0  0  0  0  0  0
  189.9170  173.8170  136.5520 C   0  0  0  0  0  3  0  0  0  0  0  0
  189.6100  173.3650  135.2640 C   0  0  0  0  0  3  0  0  0  0  0  0
  189.4480  172.0000  135.0210 C   0  0  0  0  0  3  0  0  0  0  0  0
  189.5890  171.0790  136.0690 C   0  0  0  0  0  3  0  0  0  0  0  0
  190.0610  172.9030  137.6040 C   0  0  0  0  0  0  0  0  0  0  0  0
  189.8870  171.5270  137.3630 C   0  0  0  0  0  0  0  0  0  0  0  0
  190.0230  169.1730  137.8990 N   0  0  0  0  0  1  0  0  0  0  0  0
  190.0290  170.5190  138.4590 C   0  0  0  0  0  2  0  0  0  0  0  0
  1  3  1  0  0  0  0
  2 15  1  0  0  0  0
  2  4  1  0  0  0  0
  3 14  1  0  0  0  0
  3 21  1  1  0  0  0
  5  9  1  0  0  0  0
  6 14  1  0  0  0  0
  7  4  2  0  0  0  0
  7  5  1  0  0  0  0
  8  2  2  0  0  0  0
  9 12  1  0  0  0  0
  9 22  1  1  0  0  0
 11 18  1  0  0  0  0
 12 13  2  0  0  0  0
 13 21  2  0  0  0  0
 14 10  2  0  0  0  0
 15  1  1  0  0  0  0
 16 11  1  0  0  0  0
 16 15  2  0  0  0  0
 18  6  1  0  0  0  0
 19 30  1  6  0  0  0
 19  8  1  0  0  0  0
 19 20  1  0  0  0  0
 20 17  2  0  0  0  0
 20  7  1  0  0  0  0
 22 23  2  0  0  0  0
 24 22  1  0  0  0  0
 24 25  1  0  0  0  0
 25 27  1  0  0  0  0
 27 26  2  0  0  0  0
 28 27  1  0  0  0  0
 29 28  1  0  0  0  0
 31 30  1  0  0  0  0
 32 36  1  0  0  0  0
 33 32  2  0  0  0  0
 34 33  1  0  0  0  0
 34 35  2  0  0  0  0
 35 37  1  0  0  0  0
 36 31  1  0  0  0  0
 37 36  2  0  0  0  0
 37 39  1  0  0  0  0
 38 39  1  0  0  0  0
M  END
>  <MODEL>
4

>  <REMARK>
 VINA RESULT:      -7.6      2.458      8.752
  Name = 
  8 active torsions:
  status: ('A' for Active; 'I' for Inactive)
    1  A    between atoms: N_3  and  C_8
    2  A    between atoms: N_3  and  C_30
    3  A    between atoms: C_8  and  C_35
    4  A    between atoms: C_10  and  C_31
    5  A    between atoms: C_10  and  N_37
    6  A    between atoms: O_15  and  C_31
    7  A    between atoms: C_17  and  C_23
    8  A    between atoms: C_27  and  C_39
                            x       y       z     vdW  Elec       q    Type
                         _______ _______ _______ _____ _____    ______ ____

>  <TORSDO>
F 8

$$$$
=
 OpenBabel11042414563D

 39 42  0  0  1  0  0  0  0  0999 V2000
  190.6830  172.8710  141.0150 N   0  0  0  0  0  2  0  0  0  0  0  0
  189.8280  174.8010  142.2920 C   0  0  0  0  0  0  0  0  0  0  0  0
  191.5600  173.0180  139.8620 C   0  0  2  0  0  3  0  0  0  0  0  0
  191.1340  175.4580  142.2660 C   0  0  0  0  0  3  0  0  0  0  0  0
  193.1020  176.4550  143.2640 C   0  0  0  0  0  2  0  0  0  0  0  0
  190.0330  172.0090  138.0780 N   0  0  0  0  0  2  0  0  0  0  0  0
  191.6590  176.0600  143.3270 C   0  0  0  0  0  0  0  0  0  0  0  0
  189.0590  174.8590  143.3900 C   0  0  0  0  0  3  0  0  0  0  0  0
  193.9570  175.2100  142.9920 C   0  0  1  0  0  3  0  0  0  0  0  0
  191.9970  170.9460  138.7170 O   0  0  0  0  0  0  0  0  0  0  0  0
  188.1910  172.6910  139.5330 C   0  0  0  0  0  2  0  0  0  0  0  0
  194.1700  174.9810  141.5220 C   0  0  0  0  0  3  0  0  0  0  0  0
  193.5760  173.9890  140.9020 C   0  0  0  0  0  0  0  0  0  0  0  0
  191.2350  171.9450  138.8530 C   0  0  0  0  0  0  0  0  0  0  0  0
  189.6110  173.7790  141.2680 C   0  0  0  0  0  0  0  0  0  0  0  0
  188.4540  173.7030  140.6000 C   0  0  0  0  0  3  0  0  0  0  0  0
  191.3960  176.6260  145.6160 O   0  0  0  0  0  0  0  0  0  0  0  0
  188.9940  173.0090  138.2810 C   0  0  0  0  0  2  0  0  0  0  0  0
  189.4320  175.6940  144.5970 C   0  0  1  0  0  3  0  0  0  0  0  0
  190.8750  176.1480  144.5760 C   0  0  0  0  0  0  0  0  0  0  0  0
  192.9990  172.9810  140.2960 C   0  0  0  0  0  3  0  0  0  0  0  0
  195.2350  175.2410  143.7620 C   0  0  0  0  0  0  0  0  0  0  0  0
  195.5310  176.2340  144.4860 O   0  0  0  0  0  0  0  0  0  0  0  0
  196.0790  174.0940  143.7200 N   0  0  0  0  0  2  0  0  0  0  0  0
  197.3500  174.0170  144.4270 C   0  0  0  0  0  2  0  0  0  0  0  0
  197.0790  173.7420  146.7920 O   0  0  0  0  0  0  0  0  0  0  0  0
  197.2010  173.1870  145.6600 C   0  0  0  0  0  0  0  0  0  0  0  0
  197.2140  171.7930  145.5460 O   0  0  0  0  0  0  0  0  0  0  0  0
  196.0580  171.0100  145.8170 C   0  0  0  0  0  1  0  0  0  0  0  0
  188.5390  176.8350  144.7150 N   0  0  0  0  0  2  0  0  0  0  0  0
  187.2720  176.4140  144.1260 C   0  0  0  0  0  2  0  0  0  0  0  0
  185.6140  176.8100  145.9390 C   0  0  0  0  0  3  0  0  0  0  0  0
  184.5700  177.5380  146.5190 C   0  0  0  0  0  3  0  0  0  0  0  0
  184.0580  178.6640  145.8710 C   0  0  0  0  0  3  0  0  0  0  0  0
  184.5860  179.0640  144.6360 C   0  0  0  0  0  3  0  0  0  0  0  0
  186.1490  177.2040  144.7050 C   0  0  0  0  0  0  0  0  0  0  0  0
  185.6250  178.3320  144.0460 C   0  0  0  0  0  0  0  0  0  0  0  0
  185.3210  178.2820  141.6480 N   0  0  0  0  0  1  0  0  0  0  0  0
  186.1650  178.7830  142.7260 C   0  0  0  0  0  2  0  0  0  0  0  0
  1 15  1  0  0  0  0
  2  8  2  0  0  0  0
  3 21  1  1  0  0  0
  3  1  1  0  0  0  0
  4  2  1  0  0  0  0
  4  7  2  0  0  0  0
  5  7  1  0  0  0  0
  6 18  1  0  0  0  0
  6 14  1  0  0  0  0
  7 20  1  0  0  0  0
  8 19  1  0  0  0  0
  9  5  1  0  0  0  0
  9 22  1  1  0  0  0
 10 14  2  0  0  0  0
 11 16  1  0  0  0  0
 12  9  1  0  0  0  0
 13 12  2  0  0  0  0
 14  3  1  0  0  0  0
 15  2  1  0  0  0  0
 16 15  2  0  0  0  0
 18 11  1  0  0  0  0
 19 30  1  6  0  0  0
 20 19  1  0  0  0  0
 20 17  2  0  0  0  0
 21 13  2  0  0  0  0
 22 23  2  0  0  0  0
 24 22  1  0  0  0  0
 24 25  1  0  0  0  0
 25 27  1  0  0  0  0
 27 26  2  0  0  0  0
 28 27  1  0  0  0  0
 28 29  1  0  0  0  0
 31 36  1  0  0  0  0
 31 30  1  0  0  0  0
 32 33  1  0  0  0  0
 34 33  2  0  0  0  0
 35 34  1  0  0  0  0
 36 32  2  0  0  0  0
 37 35  2  0  0  0  0
 37 36  1  0  0  0  0
 38 39  1  0  0  0  0
 39 37  1  0  0  0  0
M  END
>  <MODEL>
5

>  <REMARK>
 VINA RESULT:      -7.5      2.872      7.954
  Name = 
  8 active torsions:
  status: ('A' for Active; 'I' for Inactive)
    1  A    between atoms: N_3  and  C_8
    2  A    between atoms: N_3  and  C_30
    3  A    between atoms: C_8  and  C_35
    4  A    between atoms: C_10  and  C_31
    5  A    between atoms: C_10  and  N_37
    6  A    between atoms: O_15  and  C_31
    7  A    between atoms: C_17  and  C_23
    8  A    between atoms: C_27  and  C_39
                            x       y       z     vdW  Elec       q    Type
                         _______ _______ _______ _____ _____    ______ ____

>  <TORSDO>
F 8

$$$$
=
 OpenBabel11042414563D

 39 42  0  0  1  0  0  0  0  0999 V2000
  193.7240  175.6930  143.1400 N   0  0  0  0  0  2  0  0  0  0  0  0
  191.3300  175.6900  143.7360 C   0  0  0  0  0  0  0  0  0  0  0  0
  194.5290  174.4790  143.1130 C   0  0  2  0  0  3  0  0  0  0  0  0
  191.0820  174.4960  142.9290 C   0  0  0  0  0  3  0  0  0  0  0  0
  190.0110  173.2320  141.1640 C   0  0  0  0  0  2  0  0  0  0  0  0
  196.2040  175.0790  144.9480 N   0  0  0  0  0  2  0  0  0  0  0  0
  190.0220  174.3660  142.1400 C   0  0  0  0  0  0  0  0  0  0  0  0
  190.4310  176.6850  143.7730 C   0  0  0  0  0  3  0  0  0  0  0  0
  191.2370  173.3390  140.2480 C   0  0  1  0  0  3  0  0  0  0  0  0
  196.8700  174.8880  142.7310 O   0  0  0  0  0  0  0  0  0  0  0  0
  194.4380  176.5190  145.8320 C   0  0  0  0  0  2  0  0  0  0  0  0
  192.4180  172.5860  140.7920 C   0  0  0  0  0  3  0  0  0  0  0  0
  193.4560  173.2250  141.2780 C   0  0  0  0  0  0  0  0  0  0  0  0
  195.9290  174.8030  143.5700 C   0  0  0  0  0  0  0  0  0  0  0  0
  192.7210  175.9100  144.1320 C   0  0  0  0  0  0  0  0  0  0  0  0
  193.0340  176.3000  145.3730 C   0  0  0  0  0  3  0  0  0  0  0  0
  188.0410  175.3700  141.3030 O   0  0  0  0  0  0  0  0  0  0  0  0
  195.1720  175.1940  145.9690 C   0  0  0  0  0  2  0  0  0  0  0  0
  189.0790  176.5810  143.0970 C   0  0  1  0  0  3  0  0  0  0  0  0
  188.9980  175.4310  142.1170 C   0  0  0  0  0  0  0  0  0  0  0  0
  194.5000  173.8690  141.7380 C   0  0  0  0  0  3  0  0  0  0  0  0
  190.9090  172.9590  138.8420 C   0  0  0  0  0  0  0  0  0  0  0  0
  191.2300  171.8240  138.3860 O   0  0  0  0  0  0  0  0  0  0  0  0
  190.1610  173.8760  138.0480 N   0  0  0  0  0  2  0  0  0  0  0  0
  189.7910  173.6110  136.6650 C   0  0  0  0  0  2  0  0  0  0  0  0
  187.9090  175.0840  136.8360 O   0  0  0  0  0  0  0  0  0  0  0  0
  188.9050  174.6990  136.1540 C   0  0  0  0  0  0  0  0  0  0  0  0
  189.1830  175.2730  134.9090 O   0  0  0  0  0  0  0  0  0  0  0  0
  190.1080  176.3440  134.7690 C   0  0  0  0  0  1  0  0  0  0  0  0
  188.0260  176.4790  144.0940 N   0  0  0  0  0  2  0  0  0  0  0  0
  187.9700  177.7800  144.7520 C   0  0  0  0  0  2  0  0  0  0  0  0
  186.1300  177.8540  146.4250 C   0  0  0  0  0  3  0  0  0  0  0  0
  184.8220  178.1690  146.8080 C   0  0  0  0  0  3  0  0  0  0  0  0
  183.9420  178.7430  145.8880 C   0  0  0  0  0  3  0  0  0  0  0  0
  184.3690  179.0010  144.5770 C   0  0  0  0  0  3  0  0  0  0  0  0
  186.5640  178.1110  145.1180 C   0  0  0  0  0  0  0  0  0  0  0  0
  185.6750  178.6790  144.1860 C   0  0  0  0  0  0  0  0  0  0  0  0
  185.6220  177.9080  141.8960 N   0  0  0  0  0  1  0  0  0  0  0  0
  186.0970  178.9650  142.7800 C   0  0  0  0  0  2  0  0  0  0  0  0
  1 15  1  0  0  0  0
  2  8  2  0  0  0  0
  2 15  1  0  0  0  0
  3 21  1  6  0  0  0
  3  1  1  0  0  0  0
  3 14  1  0  0  0  0
  4  2  1  0  0  0  0
  5  7  1  0  0  0  0
  6 18  1  0  0  0  0
  7  4  2  0  0  0  0
  9 22  1  6  0  0  0
  9 12  1  0  0  0  0
  9  5  1  0  0  0  0
 10 14  2  0  0  0  0
 11 18  1  0  0  0  0
 12 13  2  0  0  0  0
 13 21  2  0  0  0  0
 14  6  1  0  0  0  0
 15 16  2  0  0  0  0
 16 11  1  0  0  0  0
 17 20  2  0  0  0  0
 19  8  1  0  0  0  0
 19 30  1  1  0  0  0
 20  7  1  0  0  0  0
 20 19  1  0  0  0  0
 23 22  2  0  0  0  0
 24 22  1  0  0  0  0
 25 24  1  0  0  0  0
 27 25  1  0  0  0  0
 27 26  2  0  0  0  0
 28 27  1  0  0  0  0
 29 28  1  0  0  0  0
 30 31  1  0  0  0  0
 31 36  1  0  0  0  0
 32 33  1  0  0  0  0
 34 33  2  0  0  0  0
 35 34  1  0  0  0  0
 36 32  2  0  0  0  0
 37 35  2  0  0  0  0
 37 36  1  0  0  0  0
 38 39  1  0  0  0  0
 39 37  1  0  0  0  0
M  END
>  <MODEL>
6

>  <REMARK>
 VINA RESULT:      -7.5      2.484      6.946
  Name = 
  8 active torsions:
  status: ('A' for Active; 'I' for Inactive)
    1  A    between atoms: N_3  and  C_8
    2  A    between atoms: N_3  and  C_30
    3  A    between atoms: C_8  and  C_35
    4  A    between atoms: C_10  and  C_31
    5  A    between atoms: C_10  and  N_37
    6  A    between atoms: O_15  and  C_31
    7  A    between atoms: C_17  and  C_23
    8  A    between atoms: C_27  and  C_39
                            x       y       z     vdW  Elec       q    Type
                         _______ _______ _______ _____ _____    ______ ____

>  <TORSDO>
F 8

$$$$
=
 OpenBabel11042414563D

 39 42  0  0  1  0  0  0  0  0999 V2000
  193.3170  174.9740  143.3930 N   0  0  0  0  0  2  0  0  0  0  0  0
  190.9000  175.2270  143.8160 C   0  0  0  0  0  0  0  0  0  0  0  0
  194.1070  173.8930  143.9650 C   0  0  2  0  0  3  0  0  0  0  0  0
  190.6720  173.7930  143.6420 C   0  0  0  0  0  3  0  0  0  0  0  0
  189.6620  171.8470  142.6140 C   0  0  0  0  0  2  0  0  0  0  0  0
  195.7090  175.2870  145.3880 N   0  0  0  0  0  2  0  0  0  0  0  0
  189.6450  173.3050  142.9550 C   0  0  0  0  0  0  0  0  0  0  0  0
  190.0130  176.1190  143.3490 C   0  0  0  0  0  3  0  0  0  0  0  0
  190.9280  171.5300  141.8070 C   0  0  1  0  0  3  0  0  0  0  0  0
  196.4680  174.0980  143.5430 O   0  0  0  0  0  0  0  0  0  0  0  0
  193.9250  176.9570  145.4280 C   0  0  0  0  0  2  0  0  0  0  0  0
  192.0750  171.1240  142.6900 C   0  0  0  0  0  3  0  0  0  0  0  0
  193.0990  171.9230  142.8720 C   0  0  0  0  0  0  0  0  0  0  0  0
  195.4900  174.4030  144.2830 C   0  0  0  0  0  0  0  0  0  0  0  0
  192.2750  175.6170  144.1270 C   0  0  0  0  0  0  0  0  0  0  0  0
  192.5390  176.5390  145.0600 C   0  0  0  0  0  3  0  0  0  0  0  0
  187.7160  173.7910  141.6620 O   0  0  0  0  0  0  0  0  0  0  0  0
  194.6350  175.8510  146.1940 C   0  0  0  0  0  2  0  0  0  0  0  0
  188.6900  175.7020  142.7380 C   0  0  1  0  0  3  0  0  0  0  0  0
  188.6370  174.2300  142.3970 C   0  0  0  0  0  0  0  0  0  0  0  0
  194.1300  172.7160  143.0290 C   0  0  0  0  0  3  0  0  0  0  0  0
  190.6560  170.5400  140.7240 C   0  0  0  0  0  0  0  0  0  0  0  0
  190.7780  169.2990  140.9340 O   0  0  0  0  0  0  0  0  0  0  0  0
  190.1860  171.0220  139.4680 N   0  0  0  0  0  2  0  0  0  0  0  0
  189.8960  170.1480  138.3400 C   0  0  0  0  0  2  0  0  0  0  0  0
  192.1900  169.9290  137.6810 O   0  0  0  0  0  0  0  0  0  0  0  0
  191.0040  170.2150  137.3400 C   0  0  0  0  0  0  0  0  0  0  0  0
  190.7130  170.6120  136.0310 O   0  0  0  0  0  0  0  0  0  0  0  0
  189.5530  171.3740  135.7200 C   0  0  0  0  0  1  0  0  0  0  0  0
  187.5940  176.0630  143.6210 N   0  0  0  0  0  2  0  0  0  0  0  0
  187.9110  177.3930  144.1310 C   0  0  0  0  0  2  0  0  0  0  0  0
  187.1160  177.2220  146.4830 C   0  0  0  0  0  3  0  0  0  0  0  0
  186.2440  177.5710  147.5190 C   0  0  0  0  0  3  0  0  0  0  0  0
  185.2060  178.4750  147.2860 C   0  0  0  0  0  3  0  0  0  0  0  0
  185.0340  179.0310  146.0100 C   0  0  0  0  0  3  0  0  0  0  0  0
  186.9520  177.7740  145.2060 C   0  0  0  0  0  0  0  0  0  0  0  0
  185.8980  178.6770  144.9660 C   0  0  0  0  0  0  0  0  0  0  0  0
  184.5940  178.6050  142.9320 N   0  0  0  0  0  1  0  0  0  0  0  0
  185.6860  179.2860  143.6170 C   0  0  0  0  0  2  0  0  0  0  0  0
  1  3  1  0  0  0  0
  1 15  1  0  0  0  0
  2 15  1  0  0  0  0
  3 21  1  6  0  0  0
  3 14  1  0  0  0  0
  4  2  1  0  0  0  0
  5  7  1  0  0  0  0
  6 18  1  0  0  0  0
  7  4  2  0  0  0  0
  8  2  2  0  0  0  0
  9 22  1  6  0  0  0
  9  5  1  0  0  0  0
  9 12  1  0  0  0  0
 10 14  2  0  0  0  0
 11 18  1  0  0  0  0
 12 13  2  0  0  0  0
 13 21  2  0  0  0  0
 14  6  1  0  0  0  0
 15 16  2  0  0  0  0
 16 11  1  0  0  0  0
 17 20  2  0  0  0  0
 19  8  1  0  0  0  0
 19 30  1  1  0  0  0
 20 19  1  0  0  0  0
 20  7  1  0  0  0  0
 22 23  2  0  0  0  0
 24 22  1  0  0  0  0
 25 24  1  0  0  0  0
 27 26  2  0  0  0  0
 27 25  1  0  0  0  0
 28 27  1  0  0  0  0
 29 28  1  0  0  0  0
 30 31  1  0  0  0  0
 31 36  1  0  0  0  0
 32 33  1  0  0  0  0
 34 33  2  0  0  0  0
 35 34  1  0  0  0  0
 36 32  2  0  0  0  0
 37 36  1  0  0  0  0
 37 35  2  0  0  0  0
 38 39  1  0  0  0  0
 39 37  1  0  0  0  0
M  END
>  <MODEL>
7

>  <REMARK>
 VINA RESULT:      -7.4      2.598      6.772
  Name = 
  8 active torsions:
  status: ('A' for Active; 'I' for Inactive)
    1  A    between atoms: N_3  and  C_8
    2  A    between atoms: N_3  and  C_30
    3  A    between atoms: C_8  and  C_35
    4  A    between atoms: C_10  and  C_31
    5  A    between atoms: C_10  and  N_37
    6  A    between atoms: O_15  and  C_31
    7  A    between atoms: C_17  and  C_23
    8  A    between atoms: C_27  and  C_39
                            x       y       z     vdW  Elec       q    Type
                         _______ _______ _______ _____ _____    ______ ____

>  <TORSDO>
F 8

$$$$
=
 OpenBabel11042414563D

 39 42  0  0  1  0  0  0  0  0999 V2000
  192.1120  174.7220  145.4310 N   0  0  0  0  0  2  0  0  0  0  0  0
  191.4190  173.3050  143.5350 C   0  0  0  0  0  0  0  0  0  0  0  0
  192.5310  176.1070  145.2660 C   0  0  2  0  0  3  0  0  0  0  0  0
  190.6330  174.3900  142.9490 C   0  0  0  0  0  3  0  0  0  0  0  0
  188.6070  175.4230  142.1180 C   0  0  0  0  0  2  0  0  0  0  0  0
  194.9410  175.8880  146.0880 N   0  0  0  0  0  2  0  0  0  0  0  0
  189.4210  174.2080  142.4380 C   0  0  0  0  0  0  0  0  0  0  0  0
  190.9670  172.0410  143.4980 C   0  0  0  0  0  3  0  0  0  0  0  0
  188.4320  176.2640  143.3900 C   0  0  1  0  0  3  0  0  0  0  0  0
  193.3700  177.1050  147.2900 O   0  0  0  0  0  0  0  0  0  0  0  0
  194.7700  173.5510  145.3910 C   0  0  0  0  0  2  0  0  0  0  0  0
  189.5200  177.2890  143.5450 C   0  0  0  0  0  3  0  0  0  0  0  0
  190.4440  177.1540  144.4670 C   0  0  0  0  0  0  0  0  0  0  0  0
  193.6210  176.4160  146.2600 C   0  0  0  0  0  0  0  0  0  0  0  0
  192.4550  173.7120  144.4830 C   0  0  0  0  0  0  0  0  0  0  0  0
  193.6730  173.1570  144.4580 C   0  0  0  0  0  3  0  0  0  0  0  0
  187.6700  172.6710  141.9910 O   0  0  0  0  0  0  0  0  0  0  0  0
  195.2980  174.9350  145.0460 C   0  0  0  0  0  2  0  0  0  0  0  0
  189.7050  171.6540  142.7550 C   0  0  1  0  0  3  0  0  0  0  0  0
  188.8530  172.8460  142.3800 C   0  0  0  0  0  0  0  0  0  0  0  0
  191.3480  177.0260  145.4060 C   0  0  0  0  0  3  0  0  0  0  0  0
  187.0650  176.8580  143.4720 C   0  0  0  0  0  0  0  0  0  0  0  0
  186.0440  176.1800  143.1610 O   0  0  0  0  0  0  0  0  0  0  0  0
  186.9300  178.1830  143.9790 N   0  0  0  0  0  2  0  0  0  0  0  0
  185.6480  178.8620  144.0970 C   0  0  0  0  0  2  0  0  0  0  0  0
  183.9340  179.0250  145.7650 O   0  0  0  0  0  0  0  0  0  0  0  0
  185.1470  178.7710  145.5020 C   0  0  0  0  0  0  0  0  0  0  0  0
  186.0390  178.4160  146.5190 O   0  0  0  0  0  0  0  0  0  0  0  0
  185.9940  177.1390  147.1420 C   0  0  0  0  0  1  0  0  0  0  0  0
  190.0370  170.8700  141.5760 N   0  0  0  0  0  2  0  0  0  0  0  0
  190.6580  171.8000  140.6390 C   0  0  0  0  0  2  0  0  0  0  0  0
  190.5110  170.0840  138.8430 C   0  0  0  0  0  3  0  0  0  0  0  0
  190.1940  169.6850  137.5410 C   0  0  0  0  0  3  0  0  0  0  0  0
  189.6920  170.6140  136.6270 C   0  0  0  0  0  3  0  0  0  0  0  0
  189.5070  171.9490  137.0130 C   0  0  0  0  0  3  0  0  0  0  0  0
  190.3270  171.4160  139.2380 C   0  0  0  0  0  0  0  0  0  0  0  0
  189.8310  172.3560  138.3140 C   0  0  0  0  0  0  0  0  0  0  0  0
  188.1990  174.0820  138.7590 N   0  0  0  0  0  1  0  0  0  0  0  0
  189.6250  173.7880  138.6940 C   0  0  0  0  0  2  0  0  0  0  0  0
  2 15  1  0  0  0  0
  3 21  1  1  0  0  0
  3  1  1  0  0  0  0
  3 14  1  0  0  0  0
  4  2  1  0  0  0  0
  5  7  1  0  0  0  0
  5  9  1  0  0  0  0
  6 14  1  0  0  0  0
  7  4  2  0  0  0  0
  8  2  2  0  0  0  0
  9 22  1  6  0  0  0
  9 12  1  0  0  0  0
 12 13  2  0  0  0  0
 13 21  2  0  0  0  0
 14 10  2  0  0  0  0
 15  1  1  0  0  0  0
 16 15  2  0  0  0  0
 16 11  1  0  0  0  0
 17 20  2  0  0  0  0
 18 11  1  0  0  0  0
 18  6  1  0  0  0  0
 19 30  1  6  0  0  0
 19  8  1  0  0  0  0
 20  7  1  0  0  0  0
 20 19  1  0  0  0  0
 22 24  1  0  0  0  0
 23 22  2  0  0  0  0
 24 25  1  0  0  0  0
 25 27  1  0  0  0  0
 27 26  2  0  0  0  0
 27 28  1  0  0  0  0
 28 29  1  0  0  0  0
 31 30  1  0  0  0  0
 32 36  1  0  0  0  0
 33 32  2  0  0  0  0
 34 35  2  0  0  0  0
 34 33  1  0  0  0  0
 35 37  1  0  0  0  0
 36 31  1  0  0  0  0
 37 39  1  0  0  0  0
 37 36  2  0  0  0  0
 39 38  1  0  0  0  0
M  END
>  <MODEL>
8

>  <REMARK>
 VINA RESULT:      -7.4      2.387      7.937
  Name = 
  8 active torsions:
  status: ('A' for Active; 'I' for Inactive)
    1  A    between atoms: N_3  and  C_8
    2  A    between atoms: N_3  and  C_30
    3  A    between atoms: C_8  and  C_35
    4  A    between atoms: C_10  and  C_31
    5  A    between atoms: C_10  and  N_37
    6  A    between atoms: O_15  and  C_31
    7  A    between atoms: C_17  and  C_23
    8  A    between atoms: C_27  and  C_39
                            x       y       z     vdW  Elec       q    Type
                         _______ _______ _______ _____ _____    ______ ____

>  <TORSDO>
F 8

$$$$
=
 OpenBabel11042414563D

 39 42  0  0  1  0  0  0  0  0999 V2000
  192.5420  175.0590  144.6500 N   0  0  0  0  0  2  0  0  0  0  0  0
  191.5270  174.0030  142.6650 C   0  0  0  0  0  0  0  0  0  0  0  0
  192.7090  176.5000  144.7740 C   0  0  2  0  0  3  0  0  0  0  0  0
  190.4700  175.0120  142.6090 C   0  0  0  0  0  3  0  0  0  0  0  0
  188.1730  175.7770  142.6140 C   0  0  0  0  0  2  0  0  0  0  0  0
  195.2610  176.5910  144.8920 N   0  0  0  0  0  2  0  0  0  0  0  0
  189.1970  174.7110  142.3790 C   0  0  0  0  0  0  0  0  0  0  0  0
  191.2550  172.7170  142.3940 C   0  0  0  0  0  3  0  0  0  0  0  0
  188.2600  176.2520  144.0700 C   0  0  1  0  0  3  0  0  0  0  0  0
  193.9540  177.1580  146.7270 O   0  0  0  0  0  0  0  0  0  0  0  0
  195.2070  174.4900  143.6440 C   0  0  0  0  0  2  0  0  0  0  0  0
  189.2020  177.4120  144.2310 C   0  0  0  0  0  3  0  0  0  0  0  0
  190.3610  177.2590  144.8260 C   0  0  0  0  0  0  0  0  0  0  0  0
  193.9880  176.7890  145.5190 C   0  0  0  0  0  0  0  0  0  0  0  0
  192.7290  174.3830  143.4070 C   0  0  0  0  0  0  0  0  0  0  0  0
  193.9500  174.1060  142.9350 C   0  0  0  0  0  3  0  0  0  0  0  0
  187.6110  172.9950  141.9670 O   0  0  0  0  0  0  0  0  0  0  0  0
  195.4260  175.9930  143.5740 C   0  0  0  0  0  2  0  0  0  0  0  0
  189.8960  172.2620  141.9030 C   0  0  1  0  0  3  0  0  0  0  0  0
  188.8220  173.3110  142.0890 C   0  0  0  0  0  0  0  0  0  0  0  0
  191.5060  177.1060  145.4450 C   0  0  0  0  0  3  0  0  0  0  0  0
  186.9090  176.5220  144.6420 C   0  0  0  0  0  0  0  0  0  0  0  0
  185.8700  176.4150  143.9300 O   0  0  0  0  0  0  0  0  0  0  0  0
  186.8100  176.8340  146.0290 N   0  0  0  0  0  2  0  0  0  0  0  0
  185.5450  177.1220  146.6910 C   0  0  0  0  0  2  0  0  0  0  0  0
  185.9090  179.4160  147.2820 O   0  0  0  0  0  0  0  0  0  0  0  0
  185.2410  178.5820  146.6020 C   0  0  0  0  0  0  0  0  0  0  0  0
  184.2010  179.0090  145.7690 O   0  0  0  0  0  0  0  0  0  0  0  0
  184.4380  179.4290  144.4320 C   0  0  0  0  0  1  0  0  0  0  0  0
  189.9750  171.8530  140.5110 N   0  0  0  0  0  2  0  0  0  0  0  0
  191.1850  172.4710  139.9800 C   0  0  0  0  0  2  0  0  0  0  0  0
  189.5470  173.3050  138.3040 C   0  0  0  0  0  3  0  0  0  0  0  0
  189.2260  173.9820  137.1230 C   0  0  0  0  0  3  0  0  0  0  0  0
  190.2370  174.5410  136.3390 C   0  0  0  0  0  3  0  0  0  0  0  0
  191.5770  174.4210  136.7340 C   0  0  0  0  0  3  0  0  0  0  0  0
  190.8830  173.1830  138.7060 C   0  0  0  0  0  0  0  0  0  0  0  0
  191.9050  173.7360  137.9110 C   0  0  0  0  0  0  0  0  0  0  0  0
  193.8140  174.9000  138.8310 N   0  0  0  0  0  1  0  0  0  0  0  0
  193.3440  173.6240  138.3040 C   0  0  0  0  0  2  0  0  0  0  0  0
  1  3  1  0  0  0  0
  2 15  1  0  0  0  0
  3 21  1  1  0  0  0
  3 14  1  0  0  0  0
  4  2  1  0  0  0  0
  5  9  1  0  0  0  0
  6 14  1  0  0  0  0
  7  4  2  0  0  0  0
  7  5  1  0  0  0  0
  8  2  2  0  0  0  0
  9 12  1  0  0  0  0
  9 22  1  6  0  0  0
 12 13  2  0  0  0  0
 13 21  2  0  0  0  0
 14 10  2  0  0  0  0
 15  1  1  0  0  0  0
 16 15  2  0  0  0  0
 16 11  1  0  0  0  0
 17 20  2  0  0  0  0
 18 11  1  0  0  0  0
 18  6  1  0  0  0  0
 19 30  1  6  0  0  0
 19 20  1  0  0  0  0
 19  8  1  0  0  0  0
 20  7  1  0  0  0  0
 22 24  1  0  0  0  0
 23 22  2  0  0  0  0
 24 25  1  0  0  0  0
 27 25  1  0  0  0  0
 27 26  2  0  0  0  0
 28 27  1  0  0  0  0
 29 28  1  0  0  0  0
 31 30  1  0  0  0  0
 32 36  1  0  0  0  0
 33 32  2  0  0  0  0
 34 35  2  0  0  0  0
 34 33  1  0  0  0  0
 35 37  1  0  0  0  0
 36 31  1  0  0  0  0
 37 39  1  0  0  0  0
 37 36  2  0  0  0  0
 39 38  1  0  0  0  0
M  END
>  <MODEL>
9

>  <REMARK>
 VINA RESULT:      -7.3      2.380      8.008
  Name = 
  8 active torsions:
  status: ('A' for Active; 'I' for Inactive)
    1  A    between atoms: N_3  and  C_8
    2  A    between atoms: N_3  and  C_30
    3  A    between atoms: C_8  and  C_35
    4  A    between atoms: C_10  and  C_31
    5  A    between atoms: C_10  and  N_37
    6  A    between atoms: O_15  and  C_31
    7  A    between atoms: C_17  and  C_23
    8  A    between atoms: C_27  and  C_39
                            x       y       z     vdW  Elec       q    Type
                         _______ _______ _______ _____ _____    ______ ____

>  <TORSDO>
F 8

$$$$
