=
 OpenBabel11042413413D

 42 44  0  0  1  0  0  0  0  0999 V2000
  190.8470  175.1300  147.4290 C   0  0  0  0  0  2  0  0  0  0  0  0
  189.7300  176.6200  143.1400 C   0  0  0  0  0  0  0  0  0  0  0  0
  189.7760  174.1850  144.5110 C   0  0  0  0  0  0  0  0  0  0  0  0
  189.4710  177.1060  146.8310 N   0  0  0  0  0  0  0  0  0  0  0  0
  189.5630  177.7100  145.4910 C   0  0  0  0  0  3  0  0  0  0  0  0
  189.6830  176.5820  144.5400 C   0  0  0  0  0  0  0  0  0  0  0  0
  189.7800  172.8760  145.2240 C   0  0  0  0  0  1  0  0  0  0  0  0
  189.8230  175.3980  142.4560 C   0  0  0  0  0  3  0  0  0  0  0  0
  189.6960  175.3970  145.2100 C   0  0  0  0  0  0  0  0  0  0  0  0
  189.8450  174.2190  143.1500 N   0  0  0  0  0  0  0  0  0  0  0  0
  189.6140  175.6460  146.6720 C   0  0  1  0  0  3  0  0  0  0  0  0
  189.6770  177.9030  142.3790 C   0  0  0  0  0  2  0  0  0  0  0  0
  188.3300  178.0420  141.6820 C   0  0  0  0  0  2  0  0  0  0  0  0
  185.5610  178.3670  141.0760 O   0  0  0  0  0  0  0  0  0  0  0  0
  185.8950  178.4010  142.2910 C   0  0  0  0  0  0  0  0  0  0  0  0
  185.0960  178.7500  144.6950 C   0  0  0  0  0  0  0  0  0  0  0  0
  187.2630  178.1610  142.6650 N   0  0  0  0  0  2  0  0  0  0  0  0
  184.8850  178.6370  143.2810 N   0  0  0  0  0  2  0  0  0  0  0  0
  186.2570  178.7750  145.1770 O   0  0  0  0  0  0  0  0  0  0  0  0
  183.9290  178.9280  145.6100 C   0  0  0  0  0  2  0  0  0  0  0  0
  184.0110  178.0060  146.6600 O   0  0  0  0  0  1  0  0  0  0  0  0
  192.1260  175.1470  146.5930 C   0  0  0  0  0  2  0  0  0  0  0  0
  192.9320  176.4070  146.8610 C   0  0  0  0  0  2  0  0  0  0  0  0
  194.8980  177.8880  145.8110 O   0  0  0  0  0  0  0  0  0  0  0  0
  193.7190  176.3570  144.3070 O   0  0  0  0  0  0  0  0  0  0  0  0
  194.2650  176.5310  145.6950 S   0  0  0  0  0  0  0  0  0  0  0  0
  195.4400  175.2990  146.0410 N   0  0  0  0  0  2  0  0  0  0  0  0
  195.6670  174.5320  144.8240 C   0  0  2  0  0  3  0  0  0  0  0  0
  195.4620  173.0620  145.0720 C   0  0  0  0  0  0  0  0  0  0  0  0
  195.2400  170.2990  145.5490 C   0  0  0  0  0  0  0  0  0  0  0  0
  195.1470  168.9590  145.7620 F   0  0  0  0  0  0  0  0  0  0  0  0
  193.2740  172.9980  143.7990 C   0  0  0  0  0  1  0  0  0  0  0  0
  196.4410  172.3890  145.8170 C   0  0  0  0  0  3  0  0  0  0  0  0
  196.3330  171.0160  146.0580 C   0  0  0  0  0  3  0  0  0  0  0  0
  194.2560  170.9610  144.8160 C   0  0  0  0  0  3  0  0  0  0  0  0
  194.3550  172.3380  144.5750 C   0  0  0  0  0  0  0  0  0  0  0  0
  197.0440  174.8290  144.2370 C   0  0  0  0  0  2  0  0  0  0  0  0
  196.7820  176.9550  143.1900 O   0  0  0  0  0  0  0  0  0  0  0  0
  196.9080  175.7080  143.0390 C   0  0  0  0  0  0  0  0  0  0  0  0
  196.8920  175.1340  141.7300 N   0  0  0  0  0  2  0  0  0  0  0  0
  197.5950  175.2450  139.3960 C   0  0  0  0  0  1  0  0  0  0  0  0
  196.8390  175.9360  140.5160 C   0  0  0  0  0  2  0  0  0  0  0  0
  2  6  1  0  0  0  0
  3  9  1  0  0  0  0
  3  7  1  0  0  0  0
  5  4  2  0  0  0  0
  6  9  2  0  0  0  0
  6  5  1  0  0  0  0
  8  2  2  0  0  0  0
  8 10  1  0  0  0  0
  9 11  1  0  0  0  0
 10  3  2  0  0  0  0
 11  4  1  0  0  0  0
 11  1  1  1  0  0  0
 12  2  1  0  0  0  0
 13 12  1  0  0  0  0
 13 17  1  0  0  0  0
 14 15  2  0  0  0  0
 15 17  1  0  0  0  0
 15 18  1  0  0  0  0
 16 19  2  0  0  0  0
 16 20  1  0  0  0  0
 18 16  1  0  0  0  0
 20 21  1  0  0  0  0
 22 23  1  0  0  0  0
 22  1  1  0  0  0  0
 25 26  2  0  0  0  0
 26 24  2  0  0  0  0
 26 27  1  0  0  0  0
 26 23  1  0  0  0  0
 28 37  1  1  0  0  0
 28 29  1  0  0  0  0
 28 27  1  0  0  0  0
 29 33  1  0  0  0  0
 30 31  1  0  0  0  0
 30 34  1  0  0  0  0
 32 36  1  0  0  0  0
 33 34  2  0  0  0  0
 35 30  2  0  0  0  0
 36 35  1  0  0  0  0
 36 29  2  0  0  0  0
 39 38  2  0  0  0  0
 39 37  1  0  0  0  0
 40 39  1  0  0  0  0
 41 42  1  0  0  0  0
 42 40  1  0  0  0  0
M  END
>  <MODEL>
1

>  <REMARK>
 VINA RESULT:      -7.3      0.000      0.000
  Name = 
  14 active torsions:
  status: ('A' for Active; 'I' for Inactive)
    1  A    between atoms: C_1  and  C_39
    2  A    between atoms: C_2  and  C_15
    3  A    between atoms: C_2  and  C_40
    4  A    between atoms: C_5  and  C_29
    5  A    between atoms: C_8  and  C_37
    6  A    between atoms: C_12  and  N_26
    7  A    between atoms: C_14  and  C_15
    8  A    between atoms: C_14  and  S_36
    9  A    between atoms: C_23  and  C_24
   10  A    between atoms: C_23  and  C_37
   11  A    between atoms: N_32  and  C_38
   12  A    between atoms: S_36  and  N_41
   13  A    between atoms: C_37  and  N_41
   14  A    between atoms: C_38  and  C_39
                            x       y       z     vdW  Elec       q    Type
                         _______ _______ _______ _____ _____    ______ ____

>  <TORSDO>
F 14

$$$$
=
 OpenBabel11042413413D

 42 44  0  0  1  0  0  0  0  0999 V2000
  192.3500  175.2430  142.0120 C   0  0  0  0  0  2  0  0  0  0  0  0
  187.7820  176.2360  142.0830 C   0  0  0  0  0  0  0  0  0  0  0  0
  189.4060  174.0370  142.6670 C   0  0  0  0  0  0  0  0  0  0  0  0
  191.2640  177.2750  142.9330 N   0  0  0  0  0  0  0  0  0  0  0  0
  189.9090  177.6630  142.5050 C   0  0  0  0  0  3  0  0  0  0  0  0
  189.1390  176.4050  142.3900 C   0  0  0  0  0  0  0  0  0  0  0  0
  190.2510  172.8550  142.9960 C   0  0  0  0  0  1  0  0  0  0  0  0
  187.2760  174.9270  142.0580 C   0  0  0  0  0  3  0  0  0  0  0  0
  189.9290  175.3370  142.6840 C   0  0  0  0  0  0  0  0  0  0  0  0
  188.0910  173.8670  142.3470 N   0  0  0  0  0  0  0  0  0  0  0  0
  191.3060  175.8010  142.9910 C   0  0  1  0  0  3  0  0  0  0  0  0
  186.8830  177.3930  141.7970 C   0  0  0  0  0  2  0  0  0  0  0  0
  185.5530  177.2130  142.5170 C   0  0  0  0  0  2  0  0  0  0  0  0
  185.4870  179.8490  143.6080 O   0  0  0  0  0  0  0  0  0  0  0  0
  185.7300  178.9000  144.4020 C   0  0  0  0  0  0  0  0  0  0  0  0
  186.3270  178.2510  146.8020 C   0  0  0  0  0  0  0  0  0  0  0  0
  185.6940  177.5430  143.9280 N   0  0  0  0  0  2  0  0  0  0  0  0
  185.9930  179.1990  145.7790 N   0  0  0  0  0  2  0  0  0  0  0  0
  186.5460  177.0450  146.5220 O   0  0  0  0  0  0  0  0  0  0  0  0
  186.5060  178.7090  148.2130 C   0  0  0  0  0  2  0  0  0  0  0  0
  186.2600  180.0850  148.2930 O   0  0  0  0  0  1  0  0  0  0  0  0
  193.7150  175.9210  142.1250 C   0  0  0  0  0  2  0  0  0  0  0  0
  194.8340  174.9420  141.8140 C   0  0  0  0  0  2  0  0  0  0  0  0
  196.5760  176.9510  141.5110 O   0  0  0  0  0  0  0  0  0  0  0  0
  197.4970  174.7090  141.8560 O   0  0  0  0  0  0  0  0  0  0  0  0
  196.4000  175.6560  142.2500 S   0  0  0  0  0  0  0  0  0  0  0  0
  196.4370  175.9430  143.9630 N   0  0  0  0  0  2  0  0  0  0  0  0
  195.9730  174.7390  144.6370 C   0  0  2  0  0  3  0  0  0  0  0  0
  194.7090  175.0090  145.4070 C   0  0  0  0  0  0  0  0  0  0  0  0
  192.4340  175.6090  146.9470 C   0  0  0  0  0  0  0  0  0  0  0  0
  191.3430  175.8910  147.7100 F   0  0  0  0  0  0  0  0  0  0  0  0
  193.6260  172.8370  144.6880 C   0  0  0  0  0  1  0  0  0  0  0  0
  194.6370  176.2090  146.1300 C   0  0  0  0  0  3  0  0  0  0  0  0
  193.5060  176.5110  146.8950 C   0  0  0  0  0  3  0  0  0  0  0  0
  192.4910  174.4180  146.2230 C   0  0  0  0  0  3  0  0  0  0  0  0
  193.6190  174.1110  145.4490 C   0  0  0  0  0  0  0  0  0  0  0  0
  197.0680  174.1470  145.5200 C   0  0  0  0  0  2  0  0  0  0  0  0
  197.7690  172.3140  144.1660 O   0  0  0  0  0  0  0  0  0  0  0  0
  197.2180  172.6900  145.2380 C   0  0  0  0  0  0  0  0  0  0  0  0
  196.7130  171.7270  146.1660 N   0  0  0  0  0  2  0  0  0  0  0  0
  195.5550  169.6230  145.7350 C   0  0  0  0  0  1  0  0  0  0  0  0
  196.8920  170.2920  145.9920 C   0  0  0  0  0  2  0  0  0  0  0  0
  1 22  1  0  0  0  0
  2  6  1  0  0  0  0
  3  9  1  0  0  0  0
  3  7  1  0  0  0  0
  4 11  1  0  0  0  0
  5  4  2  0  0  0  0
  6  5  1  0  0  0  0
  6  9  2  0  0  0  0
  8  2  2  0  0  0  0
  8 10  1  0  0  0  0
  9 11  1  0  0  0  0
 10  3  2  0  0  0  0
 11  1  1  6  0  0  0
 12  2  1  0  0  0  0
 12 13  1  0  0  0  0
 13 17  1  0  0  0  0
 14 15  2  0  0  0  0
 15 18  1  0  0  0  0
 16 20  1  0  0  0  0
 17 15  1  0  0  0  0
 18 16  1  0  0  0  0
 19 16  2  0  0  0  0
 20 21  1  0  0  0  0
 23 22  1  0  0  0  0
 23 26  1  0  0  0  0
 24 26  2  0  0  0  0
 25 26  2  0  0  0  0
 26 27  1  0  0  0  0
 27 28  1  0  0  0  0
 28 29  1  0  0  0  0
 28 37  1  1  0  0  0
 29 36  2  0  0  0  0
 29 33  1  0  0  0  0
 30 31  1  0  0  0  0
 32 36  1  0  0  0  0
 33 34  2  0  0  0  0
 34 30  1  0  0  0  0
 35 30  2  0  0  0  0
 36 35  1  0  0  0  0
 38 39  2  0  0  0  0
 39 37  1  0  0  0  0
 39 40  1  0  0  0  0
 41 42  1  0  0  0  0
 42 40  1  0  0  0  0
M  END
>  <MODEL>
2

>  <REMARK>
 VINA RESULT:      -7.0      2.553      4.113
  Name = 
  14 active torsions:
  status: ('A' for Active; 'I' for Inactive)
    1  A    between atoms: C_1  and  C_39
    2  A    between atoms: C_2  and  C_15
    3  A    between atoms: C_2  and  C_40
    4  A    between atoms: C_5  and  C_29
    5  A    between atoms: C_8  and  C_37
    6  A    between atoms: C_12  and  N_26
    7  A    between atoms: C_14  and  C_15
    8  A    between atoms: C_14  and  S_36
    9  A    between atoms: C_23  and  C_24
   10  A    between atoms: C_23  and  C_37
   11  A    between atoms: N_32  and  C_38
   12  A    between atoms: S_36  and  N_41
   13  A    between atoms: C_37  and  N_41
   14  A    between atoms: C_38  and  C_39
                            x       y       z     vdW  Elec       q    Type
                         _______ _______ _______ _____ _____    ______ ____

>  <TORSDO>
F 14

$$$$
=
 OpenBabel11042413413D

 42 44  0  0  1  0  0  0  0  0999 V2000
  190.2030  176.2030  146.3670 C   0  0  0  0  0  2  0  0  0  0  0  0
  187.4530  177.4310  142.7910 C   0  0  0  0  0  0  0  0  0  0  0  0
  187.1640  176.9940  145.5360 C   0  0  0  0  0  0  0  0  0  0  0  0
  190.6780  177.8910  144.6120 N   0  0  0  0  0  0  0  0  0  0  0  0
  189.9560  177.8660  143.3290 C   0  0  0  0  0  3  0  0  0  0  0  0
  188.5550  177.5160  143.6530 C   0  0  0  0  0  0  0  0  0  0  0  0
  186.9860  176.7790  147.0000 C   0  0  0  0  0  1  0  0  0  0  0  0
  186.2100  177.1000  143.3500 C   0  0  0  0  0  3  0  0  0  0  0  0
  188.4150  177.3120  144.9910 C   0  0  0  0  0  0  0  0  0  0  0  0
  186.0940  176.8900  144.6970 N   0  0  0  0  0  0  0  0  0  0  0  0
  189.7280  177.4840  145.6650 C   0  0  1  0  0  3  0  0  0  0  0  0
  187.5710  177.6890  141.3250 C   0  0  0  0  0  2  0  0  0  0  0  0
  187.2130  176.4340  140.5420 C   0  0  0  0  0  2  0  0  0  0  0  0
  188.0890  174.4780  138.6580 O   0  0  0  0  0  0  0  0  0  0  0  0
  188.5150  174.3750  139.8400 C   0  0  0  0  0  0  0  0  0  0  0  0
  189.9060  172.9820  141.4720 C   0  0  0  0  0  0  0  0  0  0  0  0
  188.1750  175.3760  140.8150 N   0  0  0  0  0  2  0  0  0  0  0  0
  189.3700  173.2740  140.1740 N   0  0  0  0  0  2  0  0  0  0  0  0
  189.5430  173.6330  142.4850 O   0  0  0  0  0  0  0  0  0  0  0  0
  190.8440  171.8320  141.6500 C   0  0  0  0  0  2  0  0  0  0  0  0
  190.2210  170.8310  142.4050 O   0  0  0  0  0  1  0  0  0  0  0  0
  191.4600  176.4030  147.2140 C   0  0  0  0  0  2  0  0  0  0  0  0
  192.4950  175.3350  146.9070 C   0  0  0  0  0  2  0  0  0  0  0  0
  194.1810  177.4110  146.8070 O   0  0  0  0  0  0  0  0  0  0  0  0
  193.6770  176.2710  144.7000 O   0  0  0  0  0  0  0  0  0  0  0  0
  193.9280  176.0770  146.1670 S   0  0  0  0  0  0  0  0  0  0  0  0
  195.2970  175.0350  146.4110 N   0  0  0  0  0  2  0  0  0  0  0  0
  195.5490  174.3140  145.1710 C   0  0  2  0  0  3  0  0  0  0  0  0
  195.4820  172.8280  145.3930 C   0  0  0  0  0  0  0  0  0  0  0  0
  195.5190  170.0440  145.7880 C   0  0  0  0  0  0  0  0  0  0  0  0
  195.5470  168.6940  145.9590 F   0  0  0  0  0  0  0  0  0  0  0  0
  193.0860  172.6620  144.5910 C   0  0  0  0  0  1  0  0  0  0  0  0
  196.6300  172.1970  145.8940 C   0  0  0  0  0  3  0  0  0  0  0  0
  196.6510  170.8130  146.0950 C   0  0  0  0  0  3  0  0  0  0  0  0
  194.3690  170.6620  145.2990 C   0  0  0  0  0  3  0  0  0  0  0  0
  194.3390  172.0500  145.1020 C   0  0  0  0  0  0  0  0  0  0  0  0
  196.8730  174.7430  144.5450 C   0  0  0  0  0  2  0  0  0  0  0  0
  197.0660  176.7930  143.3420 O   0  0  0  0  0  0  0  0  0  0  0  0
  196.6180  175.6120  143.3590 C   0  0  0  0  0  0  0  0  0  0  0  0
  195.8450  175.1170  142.2640 N   0  0  0  0  0  2  0  0  0  0  0  0
  196.7390  175.6240  140.0510 C   0  0  0  0  0  1  0  0  0  0  0  0
  195.6220  175.8820  141.0440 C   0  0  0  0  0  2  0  0  0  0  0  0
  1 22  1  0  0  0  0
  2  8  2  0  0  0  0
  2  6  1  0  0  0  0
  3  7  1  0  0  0  0
  4 11  1  0  0  0  0
  5  6  1  0  0  0  0
  5  4  2  0  0  0  0
  6  9  2  0  0  0  0
  8 10  1  0  0  0  0
  9  3  1  0  0  0  0
  9 11  1  0  0  0  0
 10  3  2  0  0  0  0
 11  1  1  6  0  0  0
 12  2  1  0  0  0  0
 13 17  1  0  0  0  0
 13 12  1  0  0  0  0
 14 15  2  0  0  0  0
 15 18  1  0  0  0  0
 15 17  1  0  0  0  0
 16 20  1  0  0  0  0
 16 19  2  0  0  0  0
 18 16  1  0  0  0  0
 20 21  1  0  0  0  0
 23 22  1  0  0  0  0
 25 26  2  0  0  0  0
 26 27  1  0  0  0  0
 26 24  2  0  0  0  0
 26 23  1  0  0  0  0
 28 37  1  1  0  0  0
 28 29  1  0  0  0  0
 28 27  1  0  0  0  0
 29 33  1  0  0  0  0
 30 31  1  0  0  0  0
 30 34  1  0  0  0  0
 32 36  1  0  0  0  0
 33 34  2  0  0  0  0
 35 30  2  0  0  0  0
 36 35  1  0  0  0  0
 36 29  2  0  0  0  0
 38 39  2  0  0  0  0
 39 37  1  0  0  0  0
 40 39  1  0  0  0  0
 41 42  1  0  0  0  0
 42 40  1  0  0  0  0
M  END
>  <MODEL>
3

>  <REMARK>
 VINA RESULT:      -7.0      2.382      3.781
  Name = 
  14 active torsions:
  status: ('A' for Active; 'I' for Inactive)
    1  A    between atoms: C_1  and  C_39
    2  A    between atoms: C_2  and  C_15
    3  A    between atoms: C_2  and  C_40
    4  A    between atoms: C_5  and  C_29
    5  A    between atoms: C_8  and  C_37
    6  A    between atoms: C_12  and  N_26
    7  A    between atoms: C_14  and  C_15
    8  A    between atoms: C_14  and  S_36
    9  A    between atoms: C_23  and  C_24
   10  A    between atoms: C_23  and  C_37
   11  A    between atoms: N_32  and  C_38
   12  A    between atoms: S_36  and  N_41
   13  A    between atoms: C_37  and  N_41
   14  A    between atoms: C_38  and  C_39
                            x       y       z     vdW  Elec       q    Type
                         _______ _______ _______ _____ _____    ______ ____

>  <TORSDO>
F 14

$$$$
=
 OpenBabel11042413413D

 42 44  0  0  1  0  0  0  0  0999 V2000
  190.9500  176.5970  144.0460 C   0  0  0  0  0  2  0  0  0  0  0  0
  186.3170  177.2220  143.9930 C   0  0  0  0  0  0  0  0  0  0  0  0
  188.3780  177.3650  145.8760 C   0  0  0  0  0  0  0  0  0  0  0  0
  189.6200  177.8680  142.3810 N   0  0  0  0  0  0  0  0  0  0  0  0
  188.1760  177.6220  142.2260 C   0  0  0  0  0  3  0  0  0  0  0  0
  187.6450  177.4200  143.5920 C   0  0  0  0  0  0  0  0  0  0  0  0
  189.4610  177.4590  146.8950 C   0  0  0  0  0  1  0  0  0  0  0  0
  186.0640  177.0770  145.3660 C   0  0  0  0  0  3  0  0  0  0  0  0
  188.6490  177.4990  144.5070 C   0  0  0  0  0  0  0  0  0  0  0  0
  187.0900  177.1500  146.2680 N   0  0  0  0  0  0  0  0  0  0  0  0
  189.9420  177.7330  143.8140 C   0  0  1  0  0  3  0  0  0  0  0  0
  185.1920  177.1720  143.0140 C   0  0  0  0  0  2  0  0  0  0  0  0
  184.6360  178.5710  142.7840 C   0  0  0  0  0  2  0  0  0  0  0  0
  183.8490  178.0150  140.0980 O   0  0  0  0  0  0  0  0  0  0  0  0
  182.9370  178.2890  140.9230 C   0  0  0  0  0  0  0  0  0  0  0  0
  180.4320  178.6800  141.2530 C   0  0  0  0  0  0  0  0  0  0  0  0
  183.2620  178.4970  142.3090 N   0  0  0  0  0  2  0  0  0  0  0  0
  181.5800  178.3430  140.4630 N   0  0  0  0  0  2  0  0  0  0  0  0
  180.5550  179.0940  142.4340 O   0  0  0  0  0  0  0  0  0  0  0  0
  179.0680  178.6250  140.6450 C   0  0  0  0  0  2  0  0  0  0  0  0
  178.8920  177.3970  139.9970 O   0  0  0  0  0  1  0  0  0  0  0  0
  191.5740  176.0650  142.7560 C   0  0  0  0  0  2  0  0  0  0  0  0
  192.9520  176.6640  142.5330 C   0  0  0  0  0  2  0  0  0  0  0  0
  194.4970  175.6900  140.5770 O   0  0  0  0  0  0  0  0  0  0  0  0
  193.3860  174.0730  142.0410 O   0  0  0  0  0  0  0  0  0  0  0  0
  194.0780  175.4040  141.9900 S   0  0  0  0  0  0  0  0  0  0  0  0
  195.4710  175.4000  143.0290 N   0  0  0  0  0  2  0  0  0  0  0  0
  195.2200  174.4730  144.1230 C   0  0  2  0  0  3  0  0  0  0  0  0
  194.3980  175.1250  145.2010 C   0  0  0  0  0  0  0  0  0  0  0  0
  192.9960  176.4260  147.2630 C   0  0  0  0  0  0  0  0  0  0  0  0
  192.3320  177.0470  148.2760 F   0  0  0  0  0  0  0  0  0  0  0  0
  192.7330  173.2210  145.2970 C   0  0  0  0  0  1  0  0  0  0  0  0
  194.8250  176.3760  145.6710 C   0  0  0  0  0  3  0  0  0  0  0  0
  194.1280  177.0270  146.6950 C   0  0  0  0  0  3  0  0  0  0  0  0
  192.5580  175.1870  146.7960 C   0  0  0  0  0  3  0  0  0  0  0  0
  193.2470  174.5310  145.7670 C   0  0  0  0  0  0  0  0  0  0  0  0
  196.5260  173.8970  144.6650 C   0  0  0  0  0  2  0  0  0  0  0  0
  195.4430  171.8220  144.2100 O   0  0  0  0  0  0  0  0  0  0  0  0
  196.4560  172.4070  144.6860 C   0  0  0  0  0  0  0  0  0  0  0  0
  197.5180  171.6500  145.2710 N   0  0  0  0  0  2  0  0  0  0  0  0
  196.7960  169.6390  146.4500 C   0  0  0  0  0  1  0  0  0  0  0  0
  197.5520  170.1940  145.2570 C   0  0  0  0  0  2  0  0  0  0  0  0
  2  8  1  0  0  0  0
  3 10  1  0  0  0  0
  3  7  1  0  0  0  0
  4 11  1  0  0  0  0
  5  4  2  0  0  0  0
  5  6  1  0  0  0  0
  6  2  2  0  0  0  0
  6  9  1  0  0  0  0
  8 10  2  0  0  0  0
  9  3  2  0  0  0  0
 11  1  1  6  0  0  0
 11  9  1  0  0  0  0
 12  2  1  0  0  0  0
 13 12  1  0  0  0  0
 14 15  2  0  0  0  0
 15 17  1  0  0  0  0
 16 19  2  0  0  0  0
 17 13  1  0  0  0  0
 18 15  1  0  0  0  0
 18 16  1  0  0  0  0
 20 16  1  0  0  0  0
 21 20  1  0  0  0  0
 22  1  1  0  0  0  0
 23 22  1  0  0  0  0
 24 26  2  0  0  0  0
 26 25  2  0  0  0  0
 26 23  1  0  0  0  0
 26 27  1  0  0  0  0
 27 28  1  0  0  0  0
 28 37  1  1  0  0  0
 28 29  1  0  0  0  0
 29 33  2  0  0  0  0
 29 36  1  0  0  0  0
 30 31  1  0  0  0  0
 32 36  1  0  0  0  0
 33 34  1  0  0  0  0
 34 30  2  0  0  0  0
 35 30  1  0  0  0  0
 36 35  2  0  0  0  0
 37 39  1  0  0  0  0
 38 39  2  0  0  0  0
 39 40  1  0  0  0  0
 42 40  1  0  0  0  0
 42 41  1  0  0  0  0
M  END
>  <MODEL>
4

>  <REMARK>
 VINA RESULT:      -7.0      3.201      4.847
  Name = 
  14 active torsions:
  status: ('A' for Active; 'I' for Inactive)
    1  A    between atoms: C_1  and  C_39
    2  A    between atoms: C_2  and  C_15
    3  A    between atoms: C_2  and  C_40
    4  A    between atoms: C_5  and  C_29
    5  A    between atoms: C_8  and  C_37
    6  A    between atoms: C_12  and  N_26
    7  A    between atoms: C_14  and  C_15
    8  A    between atoms: C_14  and  S_36
    9  A    between atoms: C_23  and  C_24
   10  A    between atoms: C_23  and  C_37
   11  A    between atoms: N_32  and  C_38
   12  A    between atoms: S_36  and  N_41
   13  A    between atoms: C_37  and  N_41
   14  A    between atoms: C_38  and  C_39
                            x       y       z     vdW  Elec       q    Type
                         _______ _______ _______ _____ _____    ______ ____

>  <TORSDO>
F 14

$$$$
=
 OpenBabel11042413413D

 42 44  0  0  1  0  0  0  0  0999 V2000
  190.5470  176.4480  145.8890 C   0  0  0  0  0  2  0  0  0  0  0  0
  186.4610  176.8950  143.6610 C   0  0  0  0  0  0  0  0  0  0  0  0
  188.8860  175.5700  143.2390 C   0  0  0  0  0  0  0  0  0  0  0  0
  188.2730  176.2730  146.8630 N   0  0  0  0  0  0  0  0  0  0  0  0
  187.1120  176.8600  146.1750 C   0  0  0  0  0  3  0  0  0  0  0  0
  187.3160  176.6000  144.7320 C   0  0  0  0  0  0  0  0  0  0  0  0
  190.1650  174.8450  142.9970 C   0  0  0  0  0  1  0  0  0  0  0  0
  186.8750  176.5230  142.3730 C   0  0  0  0  0  3  0  0  0  0  0  0
  188.4920  175.9470  144.5300 C   0  0  0  0  0  0  0  0  0  0  0  0
  188.0670  175.8760  142.1920 N   0  0  0  0  0  0  0  0  0  0  0  0
  189.1830  175.7450  145.8300 C   0  0  1  0  0  3  0  0  0  0  0  0
  185.1470  177.5740  143.8590 C   0  0  0  0  0  2  0  0  0  0  0  0
  184.8950  178.5670  142.7320 C   0  0  0  0  0  2  0  0  0  0  0  0
  183.9630  177.9070  140.1170 O   0  0  0  0  0  0  0  0  0  0  0  0
  183.1010  178.2590  140.9670 C   0  0  0  0  0  0  0  0  0  0  0  0
  180.6310  178.7660  141.3870 C   0  0  0  0  0  0  0  0  0  0  0  0
  183.4990  178.5230  142.3230 N   0  0  0  0  0  2  0  0  0  0  0  0
  181.7270  178.3430  140.5650 N   0  0  0  0  0  2  0  0  0  0  0  0
  180.8250  179.2340  142.5380 O   0  0  0  0  0  0  0  0  0  0  0  0
  179.2390  178.7350  140.8450 C   0  0  0  0  0  2  0  0  0  0  0  0
  178.6410  177.5070  141.1570 O   0  0  0  0  0  1  0  0  0  0  0  0
  191.6660  175.5620  146.4360 C   0  0  0  0  0  2  0  0  0  0  0  0
  192.8170  176.4040  146.9590 C   0  0  0  0  0  2  0  0  0  0  0  0
  194.7890  177.7730  145.7750 O   0  0  0  0  0  0  0  0  0  0  0  0
  193.5830  176.1350  144.4120 O   0  0  0  0  0  0  0  0  0  0  0  0
  194.1410  176.4180  145.7770 S   0  0  0  0  0  0  0  0  0  0  0  0
  195.3070  175.2070  146.2150 N   0  0  0  0  0  2  0  0  0  0  0  0
  195.5890  174.3990  145.0370 C   0  0  2  0  0  3  0  0  0  0  0  0
  195.5590  172.9330  145.3740 C   0  0  0  0  0  0  0  0  0  0  0  0
  195.6620  170.1860  145.9710 C   0  0  0  0  0  0  0  0  0  0  0  0
  195.7200  168.8540  146.2400 F   0  0  0  0  0  0  0  0  0  0  0  0
  193.1110  172.6900  144.7740 C   0  0  0  0  0  1  0  0  0  0  0  0
  196.7500  172.3490  145.8300 C   0  0  0  0  0  3  0  0  0  0  0  0
  196.8040  170.9840  146.1300 C   0  0  0  0  0  3  0  0  0  0  0  0
  194.4700  170.7590  145.5280 C   0  0  0  0  0  3  0  0  0  0  0  0
  194.4070  172.1270  145.2300 C   0  0  0  0  0  0  0  0  0  0  0  0
  196.9080  174.8120  144.3900 C   0  0  0  0  0  2  0  0  0  0  0  0
  196.2730  176.1320  142.5090 O   0  0  0  0  0  0  0  0  0  0  0  0
  196.7130  175.0250  142.9260 C   0  0  0  0  0  0  0  0  0  0  0  0
  196.9950  173.9670  142.0060 N   0  0  0  0  0  2  0  0  0  0  0  0
  197.8200  173.1460  139.8620 C   0  0  0  0  0  1  0  0  0  0  0  0
  196.9000  174.1290  140.5620 C   0  0  0  0  0  2  0  0  0  0  0  0
  1 22  1  0  0  0  0
  2 12  1  0  0  0  0
  2  6  1  0  0  0  0
  3  9  1  0  0  0  0
  5  4  2  0  0  0  0
  6  5  1  0  0  0  0
  7  3  1  0  0  0  0
  8  2  2  0  0  0  0
  9  6  2  0  0  0  0
  9 11  1  0  0  0  0
 10  8  1  0  0  0  0
 10  3  2  0  0  0  0
 11  1  1  6  0  0  0
 11  4  1  0  0  0  0
 13 12  1  0  0  0  0
 14 15  2  0  0  0  0
 15 17  1  0  0  0  0
 16 19  2  0  0  0  0
 17 13  1  0  0  0  0
 18 15  1  0  0  0  0
 18 16  1  0  0  0  0
 20 21  1  0  0  0  0
 20 16  1  0  0  0  0
 22 23  1  0  0  0  0
 24 26  2  0  0  0  0
 25 26  2  0  0  0  0
 26 27  1  0  0  0  0
 26 23  1  0  0  0  0
 28 37  1  1  0  0  0
 28 29  1  0  0  0  0
 28 27  1  0  0  0  0
 29 33  1  0  0  0  0
 30 34  1  0  0  0  0
 30 31  1  0  0  0  0
 32 36  1  0  0  0  0
 33 34  2  0  0  0  0
 35 30  2  0  0  0  0
 36 29  2  0  0  0  0
 36 35  1  0  0  0  0
 38 39  2  0  0  0  0
 39 37  1  0  0  0  0
 40 39  1  0  0  0  0
 41 42  1  0  0  0  0
 42 40  1  0  0  0  0
M  END
>  <MODEL>
5

>  <REMARK>
 VINA RESULT:      -6.9      2.373      2.810
  Name = 
  14 active torsions:
  status: ('A' for Active; 'I' for Inactive)
    1  A    between atoms: C_1  and  C_39
    2  A    between atoms: C_2  and  C_15
    3  A    between atoms: C_2  and  C_40
    4  A    between atoms: C_5  and  C_29
    5  A    between atoms: C_8  and  C_37
    6  A    between atoms: C_12  and  N_26
    7  A    between atoms: C_14  and  C_15
    8  A    between atoms: C_14  and  S_36
    9  A    between atoms: C_23  and  C_24
   10  A    between atoms: C_23  and  C_37
   11  A    between atoms: N_32  and  C_38
   12  A    between atoms: S_36  and  N_41
   13  A    between atoms: C_37  and  N_41
   14  A    between atoms: C_38  and  C_39
                            x       y       z     vdW  Elec       q    Type
                         _______ _______ _______ _____ _____    ______ ____

>  <TORSDO>
F 14

$$$$
=
 OpenBabel11042413413D

 42 44  0  0  1  0  0  0  0  0999 V2000
  191.5450  176.6360  144.6130 C   0  0  0  0  0  2  0  0  0  0  0  0
  186.9080  177.1380  144.2840 C   0  0  0  0  0  0  0  0  0  0  0  0
  188.8480  177.3240  146.2880 C   0  0  0  0  0  0  0  0  0  0  0  0
  190.2840  177.8810  142.8770 N   0  0  0  0  0  0  0  0  0  0  0  0
  188.8600  177.5980  142.6340 C   0  0  0  0  0  3  0  0  0  0  0  0
  188.2520  177.3730  143.9650 C   0  0  0  0  0  0  0  0  0  0  0  0
  189.8640  177.4410  147.3710 C   0  0  0  0  0  1  0  0  0  0  0  0
  186.5770  176.9780  145.6380 C   0  0  0  0  0  3  0  0  0  0  0  0
  189.1970  177.4730  144.9390 C   0  0  0  0  0  0  0  0  0  0  0  0
  187.5450  177.0730  146.6000 N   0  0  0  0  0  0  0  0  0  0  0  0
  190.5230  177.7450  144.3270 C   0  0  1  0  0  3  0  0  0  0  0  0
  185.8460  177.0640  143.2380 C   0  0  0  0  0  2  0  0  0  0  0  0
  185.3070  178.4570  142.9400 C   0  0  0  0  0  2  0  0  0  0  0  0
  184.7610  177.9180  140.1920 O   0  0  0  0  0  0  0  0  0  0  0  0
  183.7770  178.1710  140.9390 C   0  0  0  0  0  0  0  0  0  0  0  0
  181.2480  178.5250  141.0560 C   0  0  0  0  0  0  0  0  0  0  0  0
  183.9800  178.3690  142.3490 N   0  0  0  0  0  2  0  0  0  0  0  0
  182.4650  178.2110  140.3640 N   0  0  0  0  0  2  0  0  0  0  0  0
  181.2640  178.9290  142.2460 O   0  0  0  0  0  0  0  0  0  0  0  0
  179.9420  178.4580  140.3330 C   0  0  0  0  0  2  0  0  0  0  0  0
  179.4580  179.7550  140.1190 O   0  0  0  0  0  1  0  0  0  0  0  0
  192.6760  176.5690  143.5880 C   0  0  0  0  0  2  0  0  0  0  0  0
  194.0090  176.3050  144.2670 C   0  0  0  0  0  2  0  0  0  0  0  0
  195.7950  174.3610  144.7080 O   0  0  0  0  0  0  0  0  0  0  0  0
  194.7850  174.4740  142.4810 O   0  0  0  0  0  0  0  0  0  0  0  0
  194.5280  174.6370  143.9510 S   0  0  0  0  0  0  0  0  0  0  0  0
  193.2800  173.5450  144.4700 N   0  0  0  0  0  2  0  0  0  0  0  0
  192.8020  172.8130  143.3060 C   0  0  2  0  0  3  0  0  0  0  0  0
  191.4350  173.2910  142.8980 C   0  0  0  0  0  0  0  0  0  0  0  0
  188.8170  174.0940  142.2570 C   0  0  0  0  0  0  0  0  0  0  0  0
  187.5440  174.4610  141.9450 F   0  0  0  0  0  0  0  0  0  0  0  0
  192.1220  173.6800  140.4930 C   0  0  0  0  0  1  0  0  0  0  0  0
  190.4410  173.3270  143.8870 C   0  0  0  0  0  3  0  0  0  0  0  0
  189.1380  173.7280  143.5720 C   0  0  0  0  0  3  0  0  0  0  0  0
  189.8000  174.0710  141.2690 C   0  0  0  0  0  3  0  0  0  0  0  0
  191.1090  173.6750  141.5780 C   0  0  0  0  0  0  0  0  0  0  0  0
  192.8350  171.3080  143.5530 C   0  0  0  0  0  2  0  0  0  0  0  0
  194.9800  170.7680  142.6630 O   0  0  0  0  0  0  0  0  0  0  0  0
  194.2470  170.8440  143.6880 C   0  0  0  0  0  0  0  0  0  0  0  0
  194.7540  170.4610  144.9680 N   0  0  0  0  0  2  0  0  0  0  0  0
  196.9030  171.2000  145.8570 C   0  0  0  0  0  1  0  0  0  0  0  0
  196.1400  170.0730  145.1860 C   0  0  0  0  0  2  0  0  0  0  0  0
  2  8  1  0  0  0  0
  3 10  1  0  0  0  0
  3  7  1  0  0  0  0
  4 11  1  0  0  0  0
  5  4  2  0  0  0  0
  5  6  1  0  0  0  0
  6  2  2  0  0  0  0
  6  9  1  0  0  0  0
  8 10  2  0  0  0  0
  9  3  2  0  0  0  0
 11  1  1  6  0  0  0
 11  9  1  0  0  0  0
 12  2  1  0  0  0  0
 13 12  1  0  0  0  0
 14 15  2  0  0  0  0
 15 17  1  0  0  0  0
 16 19  2  0  0  0  0
 17 13  1  0  0  0  0
 18 15  1  0  0  0  0
 18 16  1  0  0  0  0
 20 16  1  0  0  0  0
 21 20  1  0  0  0  0
 22 23  1  0  0  0  0
 22  1  1  0  0  0  0
 25 26  2  0  0  0  0
 26 23  1  0  0  0  0
 26 27  1  0  0  0  0
 26 24  2  0  0  0  0
 28 37  1  1  0  0  0
 28 27  1  0  0  0  0
 29 28  1  0  0  0  0
 29 33  1  0  0  0  0
 30 34  1  0  0  0  0
 31 30  1  0  0  0  0
 32 36  1  0  0  0  0
 34 33  2  0  0  0  0
 35 36  1  0  0  0  0
 35 30  2  0  0  0  0
 36 29  2  0  0  0  0
 37 39  1  0  0  0  0
 38 39  2  0  0  0  0
 39 40  1  0  0  0  0
 40 42  1  0  0  0  0
 42 41  1  0  0  0  0
M  END
>  <MODEL>
6

>  <REMARK>
 VINA RESULT:      -6.8      3.234      5.082
  Name = 
  14 active torsions:
  status: ('A' for Active; 'I' for Inactive)
    1  A    between atoms: C_1  and  C_39
    2  A    between atoms: C_2  and  C_15
    3  A    between atoms: C_2  and  C_40
    4  A    between atoms: C_5  and  C_29
    5  A    between atoms: C_8  and  C_37
    6  A    between atoms: C_12  and  N_26
    7  A    between atoms: C_14  and  C_15
    8  A    between atoms: C_14  and  S_36
    9  A    between atoms: C_23  and  C_24
   10  A    between atoms: C_23  and  C_37
   11  A    between atoms: N_32  and  C_38
   12  A    between atoms: S_36  and  N_41
   13  A    between atoms: C_37  and  N_41
   14  A    between atoms: C_38  and  C_39
                            x       y       z     vdW  Elec       q    Type
                         _______ _______ _______ _____ _____    ______ ____

>  <TORSDO>
F 14

$$$$
=
 OpenBabel11042413413D

 42 44  0  0  1  0  0  0  0  0999 V2000
  193.9180  176.6290  143.4540 C   0  0  0  0  0  2  0  0  0  0  0  0
  196.7530  173.2090  144.9120 C   0  0  0  0  0  0  0  0  0  0  0  0
  196.7110  175.0890  142.8430 C   0  0  0  0  0  0  0  0  0  0  0  0
  194.6580  176.1740  145.7770 N   0  0  0  0  0  0  0  0  0  0  0  0
  195.1680  174.8460  146.1580 C   0  0  0  0  0  3  0  0  0  0  0  0
  195.9920  174.3810  145.0190 C   0  0  0  0  0  0  0  0  0  0  0  0
  196.7180  176.0880  141.7390 C   0  0  0  0  0  1  0  0  0  0  0  0
  197.4730  173.0050  143.7250 C   0  0  0  0  0  3  0  0  0  0  0  0
  195.9770  175.3020  144.0180 C   0  0  0  0  0  0  0  0  0  0  0  0
  197.4360  173.9390  142.7260 N   0  0  0  0  0  0  0  0  0  0  0  0
  195.1130  176.4470  144.4010 C   0  0  1  0  0  3  0  0  0  0  0  0
  196.8190  172.2030  146.0120 C   0  0  0  0  0  2  0  0  0  0  0  0
  196.0630  170.9420  145.6150 C   0  0  0  0  0  2  0  0  0  0  0  0
  194.1290  169.0900  144.6300 O   0  0  0  0  0  0  0  0  0  0  0  0
  193.7780  170.2970  144.7260 C   0  0  0  0  0  0  0  0  0  0  0  0
  191.9150  171.9980  144.3050 C   0  0  0  0  0  0  0  0  0  0  0  0
  194.6800  171.2630  145.2930 N   0  0  0  0  0  2  0  0  0  0  0  0
  192.4590  170.6710  144.3050 N   0  0  0  0  0  2  0  0  0  0  0  0
  192.6360  172.9940  144.5710 O   0  0  0  0  0  0  0  0  0  0  0  0
  190.4940  172.2210  143.9010 C   0  0  0  0  0  2  0  0  0  0  0  0
  189.6540  172.0040  144.9990 O   0  0  0  0  0  1  0  0  0  0  0  0
  192.5810  176.2180  144.0730 C   0  0  0  0  0  2  0  0  0  0  0  0
  191.4810  176.2060  143.0260 C   0  0  0  0  0  2  0  0  0  0  0  0
  189.6640  178.0630  142.3830 O   0  0  0  0  0  0  0  0  0  0  0  0
  190.6230  178.1620  144.6340 O   0  0  0  0  0  0  0  0  0  0  0  0
  190.1380  177.2440  143.5490 S   0  0  0  0  0  0  0  0  0  0  0  0
  188.8430  176.2450  144.1360 N   0  0  0  0  0  2  0  0  0  0  0  0
  187.5880  176.7840  143.6320 C   0  0  2  0  0  3  0  0  0  0  0  0
  186.7570  177.3440  144.7530 C   0  0  0  0  0  0  0  0  0  0  0  0
  185.1960  178.2400  146.9150 C   0  0  0  0  0  0  0  0  0  0  0  0
  184.4260  178.6600  147.9550 F   0  0  0  0  0  0  0  0  0  0  0  0
  185.8680  179.2520  143.3460 C   0  0  0  0  0  1  0  0  0  0  0  0
  186.7950  176.6720  145.9840 C   0  0  0  0  0  3  0  0  0  0  0  0
  186.0230  177.1170  147.0620 C   0  0  0  0  0  3  0  0  0  0  0  0
  185.1580  178.9220  145.6980 C   0  0  0  0  0  3  0  0  0  0  0  0
  185.9340  178.4850  144.6150 C   0  0  0  0  0  0  0  0  0  0  0  0
  186.8290  175.7380  142.8200 C   0  0  0  0  0  2  0  0  0  0  0  0
  187.4970  176.3590  140.6170 O   0  0  0  0  0  0  0  0  0  0  0  0
  187.5320  175.4860  141.5280 C   0  0  0  0  0  0  0  0  0  0  0  0
  188.2160  174.2490  141.3160 N   0  0  0  0  0  2  0  0  0  0  0  0
  190.4380  173.7060  140.4670 C   0  0  0  0  0  1  0  0  0  0  0  0
  188.9850  173.9670  140.1130 C   0  0  0  0  0  2  0  0  0  0  0  0
  1 22  1  0  0  0  0
  2  6  1  0  0  0  0
  2 12  1  0  0  0  0
  3  9  1  0  0  0  0
  4  5  2  0  0  0  0
  6  5  1  0  0  0  0
  7  3  1  0  0  0  0
  8  2  2  0  0  0  0
  9 11  1  0  0  0  0
  9  6  2  0  0  0  0
 10  3  2  0  0  0  0
 10  8  1  0  0  0  0
 11  1  1  6  0  0  0
 11  4  1  0  0  0  0
 13 12  1  0  0  0  0
 14 15  2  0  0  0  0
 15 17  1  0  0  0  0
 16 19  2  0  0  0  0
 17 13  1  0  0  0  0
 18 16  1  0  0  0  0
 18 15  1  0  0  0  0
 20 16  1  0  0  0  0
 20 21  1  0  0  0  0
 23 26  1  0  0  0  0
 23 22  1  0  0  0  0
 24 26  2  0  0  0  0
 26 27  1  0  0  0  0
 26 25  2  0  0  0  0
 28 37  1  1  0  0  0
 28 27  1  0  0  0  0
 28 29  1  0  0  0  0
 29 33  1  0  0  0  0
 30 34  1  0  0  0  0
 30 31  1  0  0  0  0
 32 36  1  0  0  0  0
 33 34  2  0  0  0  0
 35 30  2  0  0  0  0
 36 29  2  0  0  0  0
 36 35  1  0  0  0  0
 38 39  2  0  0  0  0
 39 37  1  0  0  0  0
 40 39  1  0  0  0  0
 42 41  1  0  0  0  0
 42 40  1  0  0  0  0
M  END
>  <MODEL>
7

>  <REMARK>
 VINA RESULT:      -6.8      3.597      9.000
  Name = 
  14 active torsions:
  status: ('A' for Active; 'I' for Inactive)
    1  A    between atoms: C_1  and  C_39
    2  A    between atoms: C_2  and  C_15
    3  A    between atoms: C_2  and  C_40
    4  A    between atoms: C_5  and  C_29
    5  A    between atoms: C_8  and  C_37
    6  A    between atoms: C_12  and  N_26
    7  A    between atoms: C_14  and  C_15
    8  A    between atoms: C_14  and  S_36
    9  A    between atoms: C_23  and  C_24
   10  A    between atoms: C_23  and  C_37
   11  A    between atoms: N_32  and  C_38
   12  A    between atoms: S_36  and  N_41
   13  A    between atoms: C_37  and  N_41
   14  A    between atoms: C_38  and  C_39
                            x       y       z     vdW  Elec       q    Type
                         _______ _______ _______ _____ _____    ______ ____

>  <TORSDO>
F 14

$$$$
=
 OpenBabel11042413413D

 42 44  0  0  1  0  0  0  0  0999 V2000
  192.6640  170.9300  140.6320 C   0  0  0  0  0  2  0  0  0  0  0  0
  188.7490  173.4630  140.9790 C   0  0  0  0  0  0  0  0  0  0  0  0
  190.3570  172.4540  138.9270 C   0  0  0  0  0  0  0  0  0  0  0  0
  190.7070  170.4880  142.0920 N   0  0  0  0  0  0  0  0  0  0  0  0
  189.7630  171.5650  142.4320 C   0  0  0  0  0  3  0  0  0  0  0  0
  189.5950  172.3680  141.2000 C   0  0  0  0  0  0  0  0  0  0  0  0
  191.1910  171.9170  137.8150 C   0  0  0  0  0  1  0  0  0  0  0  0
  188.7550  174.0450  139.7020 C   0  0  0  0  0  3  0  0  0  0  0  0
  190.3720  171.8690  140.2010 C   0  0  0  0  0  0  0  0  0  0  0  0
  189.5510  173.5340  138.7150 N   0  0  0  0  0  0  0  0  0  0  0  0
  191.1460  170.7040  140.7000 C   0  0  1  0  0  3  0  0  0  0  0  0
  187.8570  174.0050  142.0460 C   0  0  0  0  0  2  0  0  0  0  0  0
  187.7410  175.5170  141.9140 C   0  0  0  0  0  2  0  0  0  0  0  0
  186.0170  177.7830  141.7340 O   0  0  0  0  0  0  0  0  0  0  0  0
  186.1610  177.2540  142.8690 C   0  0  0  0  0  0  0  0  0  0  0  0
  185.5790  177.3920  145.3550 C   0  0  0  0  0  0  0  0  0  0  0  0
  186.9510  176.0600  143.0080 N   0  0  0  0  0  2  0  0  0  0  0  0
  185.4910  177.8370  143.9950 N   0  0  0  0  0  2  0  0  0  0  0  0
  186.3890  176.4910  145.6920 O   0  0  0  0  0  0  0  0  0  0  0  0
  184.7630  178.0620  146.4130 C   0  0  0  0  0  2  0  0  0  0  0  0
  183.6660  178.7010  145.8240 O   0  0  0  0  0  1  0  0  0  0  0  0
  193.4340  170.2340  141.7530 C   0  0  0  0  0  2  0  0  0  0  0  0
  194.4900  171.1560  142.3390 C   0  0  0  0  0  2  0  0  0  0  0  0
  195.0360  172.3950  144.6470 O   0  0  0  0  0  0  0  0  0  0  0  0
  193.1040  170.8910  144.6090 O   0  0  0  0  0  0  0  0  0  0  0  0
  193.8770  171.9110  143.8240 S   0  0  0  0  0  0  0  0  0  0  0  0
  192.8530  173.2490  143.4000 N   0  0  0  0  0  2  0  0  0  0  0  0
  193.1040  174.3310  144.3420 C   0  0  2  0  0  3  0  0  0  0  0  0
  191.9470  174.4950  145.2890 C   0  0  0  0  0  0  0  0  0  0  0  0
  189.6840  174.7770  146.9340 C   0  0  0  0  0  0  0  0  0  0  0  0
  188.5810  174.9290  147.7170 F   0  0  0  0  0  0  0  0  0  0  0  0
  193.2670  175.9450  146.8910 C   0  0  0  0  0  1  0  0  0  0  0  0
  190.7420  173.8600  144.9540 C   0  0  0  0  0  3  0  0  0  0  0  0
  189.6150  173.9960  145.7720 C   0  0  0  0  0  3  0  0  0  0  0  0
  190.8800  175.4040  147.2820 C   0  0  0  0  0  3  0  0  0  0  0  0
  192.0150  175.2680  146.4710 C   0  0  0  0  0  0  0  0  0  0  0  0
  193.4370  175.6290  143.6110 C   0  0  0  0  0  2  0  0  0  0  0  0
  191.4390  175.8890  142.3370 O   0  0  0  0  0  0  0  0  0  0  0  0
  192.1800  176.3470  143.2500 C   0  0  0  0  0  0  0  0  0  0  0  0
  191.8360  177.5640  143.9170 N   0  0  0  0  0  2  0  0  0  0  0  0
  189.5100  177.7890  144.6160 C   0  0  0  0  0  1  0  0  0  0  0  0
  190.5900  178.2760  143.6690 C   0  0  0  0  0  2  0  0  0  0  0  0
  1 22  1  0  0  0  0
  2  6  1  0  0  0  0
  2 12  1  0  0  0  0
  3  9  1  0  0  0  0
  4  5  2  0  0  0  0
  6  5  1  0  0  0  0
  7  3  1  0  0  0  0
  8  2  2  0  0  0  0
  9 11  1  0  0  0  0
  9  6  2  0  0  0  0
 10  3  2  0  0  0  0
 10  8  1  0  0  0  0
 11  1  1  1  0  0  0
 11  4  1  0  0  0  0
 13 12  1  0  0  0  0
 13 17  1  0  0  0  0
 14 15  2  0  0  0  0
 15 17  1  0  0  0  0
 15 18  1  0  0  0  0
 16 19  2  0  0  0  0
 16 20  1  0  0  0  0
 18 16  1  0  0  0  0
 21 20  1  0  0  0  0
 22 23  1  0  0  0  0
 23 26  1  0  0  0  0
 26 25  2  0  0  0  0
 26 24  2  0  0  0  0
 27 26  1  0  0  0  0
 27 28  1  0  0  0  0
 28 37  1  6  0  0  0
 28 29  1  0  0  0  0
 29 36  1  0  0  0  0
 30 35  1  0  0  0  0
 30 31  1  0  0  0  0
 33 29  2  0  0  0  0
 33 34  1  0  0  0  0
 34 30  2  0  0  0  0
 36 32  1  0  0  0  0
 36 35  2  0  0  0  0
 38 39  2  0  0  0  0
 39 37  1  0  0  0  0
 39 40  1  0  0  0  0
 42 40  1  0  0  0  0
 42 41  1  0  0  0  0
M  END
>  <MODEL>
8

>  <REMARK>
 VINA RESULT:      -6.7      3.253      5.513
  Name = 
  14 active torsions:
  status: ('A' for Active; 'I' for Inactive)
    1  A    between atoms: C_1  and  C_39
    2  A    between atoms: C_2  and  C_15
    3  A    between atoms: C_2  and  C_40
    4  A    between atoms: C_5  and  C_29
    5  A    between atoms: C_8  and  C_37
    6  A    between atoms: C_12  and  N_26
    7  A    between atoms: C_14  and  C_15
    8  A    between atoms: C_14  and  S_36
    9  A    between atoms: C_23  and  C_24
   10  A    between atoms: C_23  and  C_37
   11  A    between atoms: N_32  and  C_38
   12  A    between atoms: S_36  and  N_41
   13  A    between atoms: C_37  and  N_41
   14  A    between atoms: C_38  and  C_39
                            x       y       z     vdW  Elec       q    Type
                         _______ _______ _______ _____ _____    ______ ____

>  <TORSDO>
F 14

$$$$
=
 OpenBabel11042413413D

 42 44  0  0  1  0  0  0  0  0999 V2000
  192.4790  171.1940  141.3820 C   0  0  0  0  0  2  0  0  0  0  0  0
  188.5550  173.7340  141.2850 C   0  0  0  0  0  0  0  0  0  0  0  0
  190.3290  172.6390  139.4220 C   0  0  0  0  0  0  0  0  0  0  0  0
  190.4050  170.8120  142.6880 N   0  0  0  0  0  0  0  0  0  0  0  0
  189.4380  171.9020  142.9000 C   0  0  0  0  0  3  0  0  0  0  0  0
  189.3770  172.6500  141.6240 C   0  0  0  0  0  0  0  0  0  0  0  0
  191.2530  172.0560  138.4100 C   0  0  0  0  0  1  0  0  0  0  0  0
  188.6700  174.2600  139.9900 C   0  0  0  0  0  3  0  0  0  0  0  0
  190.2350  172.1100  140.7170 C   0  0  0  0  0  0  0  0  0  0  0  0
  189.5470  173.7070  139.0960 N   0  0  0  0  0  0  0  0  0  0  0  0
  190.9610  170.9690  141.3300 C   0  0  1  0  0  3  0  0  0  0  0  0
  187.5770  174.3190  142.2480 C   0  0  0  0  0  2  0  0  0  0  0  0
  187.7620  175.8280  142.3300 C   0  0  0  0  0  2  0  0  0  0  0  0
  187.0920  178.5950  142.5260 O   0  0  0  0  0  0  0  0  0  0  0  0
  186.5930  177.8170  143.3830 C   0  0  0  0  0  0  0  0  0  0  0  0
  185.1540  177.6320  145.4880 C   0  0  0  0  0  0  0  0  0  0  0  0
  186.8270  176.4010  143.2870 N   0  0  0  0  0  2  0  0  0  0  0  0
  185.7620  178.3640  144.4150 N   0  0  0  0  0  2  0  0  0  0  0  0
  185.4220  176.4190  145.6800 O   0  0  0  0  0  0  0  0  0  0  0  0
  184.2530  178.3350  146.4510 C   0  0  0  0  0  2  0  0  0  0  0  0
  184.9500  178.6020  147.6360 O   0  0  0  0  0  1  0  0  0  0  0  0
  193.0740  171.0200  142.7790 C   0  0  0  0  0  2  0  0  0  0  0  0
  194.1240  172.0820  143.0570 C   0  0  0  0  0  2  0  0  0  0  0  0
  194.4500  174.3410  144.4550 O   0  0  0  0  0  0  0  0  0  0  0  0
  193.8030  172.3340  145.6990 O   0  0  0  0  0  0  0  0  0  0  0  0
  193.6100  173.0970  144.4200 S   0  0  0  0  0  0  0  0  0  0  0  0
  191.9370  173.5190  144.2150 N   0  0  0  0  0  2  0  0  0  0  0  0
  191.8620  174.9330  143.8750 C   0  0  2  0  0  3  0  0  0  0  0  0
  190.8490  175.6380  144.7360 C   0  0  0  0  0  0  0  0  0  0  0  0
  188.8650  176.8200  146.3400 C   0  0  0  0  0  0  0  0  0  0  0  0
  187.8900  177.3870  147.1010 F   0  0  0  0  0  0  0  0  0  0  0  0
  191.5470  177.9370  143.9390 C   0  0  0  0  0  1  0  0  0  0  0  0
  190.0200  174.8430  145.5400 C   0  0  0  0  0  3  0  0  0  0  0  0
  189.0340  175.4270  146.3410 C   0  0  0  0  0  3  0  0  0  0  0  0
  189.6910  177.6200  145.5520 C   0  0  0  0  0  3  0  0  0  0  0  0
  190.6860  177.0410  144.7510 C   0  0  0  0  0  0  0  0  0  0  0  0
  191.5850  175.1250  142.3870 C   0  0  0  0  0  2  0  0  0  0  0  0
  193.6810  176.2000  142.0170 O   0  0  0  0  0  0  0  0  0  0  0  0
  192.8690  175.3060  141.6480 C   0  0  0  0  0  0  0  0  0  0  0  0
  193.1610  174.4900  140.5120 N   0  0  0  0  0  2  0  0  0  0  0  0
  194.1800  174.8750  138.3290 C   0  0  0  0  0  1  0  0  0  0  0  0
  194.4250  174.5600  139.7920 C   0  0  0  0  0  2  0  0  0  0  0  0
  1 22  1  0  0  0  0
  2  6  1  0  0  0  0
  2 12  1  0  0  0  0
  3  9  1  0  0  0  0
  4  5  2  0  0  0  0
  6  5  1  0  0  0  0
  7  3  1  0  0  0  0
  8  2  2  0  0  0  0
  9 11  1  0  0  0  0
  9  6  2  0  0  0  0
 10  3  2  0  0  0  0
 10  8  1  0  0  0  0
 11  1  1  1  0  0  0
 11  4  1  0  0  0  0
 12 13  1  0  0  0  0
 13 17  1  0  0  0  0
 14 15  2  0  0  0  0
 15 18  1  0  0  0  0
 16 19  2  0  0  0  0
 16 20  1  0  0  0  0
 17 15  1  0  0  0  0
 18 16  1  0  0  0  0
 20 21  1  0  0  0  0
 22 23  1  0  0  0  0
 23 26  1  0  0  0  0
 26 24  2  0  0  0  0
 26 25  2  0  0  0  0
 27 26  1  0  0  0  0
 28 37  1  6  0  0  0
 28 27  1  0  0  0  0
 28 29  1  0  0  0  0
 29 36  2  0  0  0  0
 29 33  1  0  0  0  0
 30 34  1  0  0  0  0
 30 31  1  0  0  0  0
 32 36  1  0  0  0  0
 33 34  2  0  0  0  0
 35 30  2  0  0  0  0
 36 35  1  0  0  0  0
 39 38  2  0  0  0  0
 39 37  1  0  0  0  0
 40 39  1  0  0  0  0
 41 42  1  0  0  0  0
 42 40  1  0  0  0  0
M  END
>  <MODEL>
9

>  <REMARK>
 VINA RESULT:      -6.6      3.183      5.252
  Name = 
  14 active torsions:
  status: ('A' for Active; 'I' for Inactive)
    1  A    between atoms: C_1  and  C_39
    2  A    between atoms: C_2  and  C_15
    3  A    between atoms: C_2  and  C_40
    4  A    between atoms: C_5  and  C_29
    5  A    between atoms: C_8  and  C_37
    6  A    between atoms: C_12  and  N_26
    7  A    between atoms: C_14  and  C_15
    8  A    between atoms: C_14  and  S_36
    9  A    between atoms: C_23  and  C_24
   10  A    between atoms: C_23  and  C_37
   11  A    between atoms: N_32  and  C_38
   12  A    between atoms: S_36  and  N_41
   13  A    between atoms: C_37  and  N_41
   14  A    between atoms: C_38  and  C_39
                            x       y       z     vdW  Elec       q    Type
                         _______ _______ _______ _____ _____    ______ ____

>  <TORSDO>
F 14

$$$$
