=
 OpenBabel11042417353D

 68 75  0  0  1  0  0  0  0  0999 V2000
  187.3170  174.8500  141.5570 O   0  0  0  0  0  0  0  0  0  0  0  0
  189.4110  174.7160  142.5770 N   0  0  0  0  0  0  0  0  0  0  0  0
  188.0380  175.1660  142.5420 C   0  0  0  0  0  0  0  0  0  0  0  0
  193.4900  176.7610  143.0260 C   0  0  0  0  0  3  0  0  0  0  0  0
  190.3160  175.0720  143.6740 C   0  0  2  0  0  3  0  0  0  0  0  0
  190.5820  177.5700  143.0920 O   0  0  0  0  0  1  0  0  0  0  0  0
  194.7450  176.1310  143.0560 C   0  0  0  0  0  3  0  0  0  0  0  0
  191.1020  176.3050  143.3390 C   0  0  0  0  0  0  0  0  0  0  0  0
  192.4960  174.6500  143.6030 C   0  0  0  0  0  0  0  0  0  0  0  0
  194.8360  174.7610  143.3720 C   0  0  0  0  0  0  0  0  0  0  0  0
  191.3690  174.0580  143.8250 N   0  0  0  0  0  0  0  0  0  0  0  0
  193.7050  174.0360  143.6320 N   0  0  0  0  0  0  0  0  0  0  0  0
  192.3750  175.9800  143.3110 C   0  0  0  0  0  0  0  0  0  0  0  0
  196.1730  174.0990  143.3630 C   0  0  0  0  0  2  0  0  0  0  0  0
  195.9640  174.6250  145.7880 C   0  0  0  0  0  1  0  0  0  0  0  0
  196.6060  173.6970  144.7700 C   0  0  1  0  0  3  0  0  0  0  0  0
  196.7320  171.6180  146.1600 N   0  0  0  0  0  0  0  0  0  0  0  0
  196.1480  170.4090  146.0740 C   0  0  0  0  0  0  0  0  0  0  0  0
  195.3700  171.4700  144.3730 C   0  0  0  0  0  3  0  0  0  0  0  0
  195.3420  170.2810  145.0020 N   0  0  0  0  0  0  0  0  0  0  0  0
  196.3160  169.3990  147.0670 N   0  0  0  0  0  1  0  0  0  0  0  0
  196.2480  172.2750  145.0850 C   0  0  0  0  0  0  0  0  0  0  0  0
  194.7590  170.1160  142.3560 O   0  0  0  0  0  1  0  0  0  0  0  0
  195.1900  168.1670  143.7260 C   0  0  0  0  0  2  0  0  0  0  0  0
  194.4730  169.1560  144.6530 C   0  0  2  0  0  3  0  0  0  0  0  0
  194.1800  169.1290  143.1580 C   0  0  1  0  0  0  0  0  0  0  0  0
  192.8850  168.4910  142.6930 C   0  0  0  0  0  2  0  0  0  0  0  0
  192.7240  168.6990  141.3140 O   0  0  0  0  0  0  0  0  0  0  0  0
  191.0720  169.9320  142.3390 F   0  0  0  0  0  0  0  0  0  0  0  0
  190.5810  168.7360  140.4700 F   0  0  0  0  0  0  0  0  0  0  0  0
  191.8780  170.5630  140.3410 F   0  0  0  0  0  0  0  0  0  0  0  0
  191.5600  169.4710  141.1240 C   0  0  0  0  0  0  0  0  0  0  0  0
  186.4700  176.8530  146.8120 C   0  0  0  0  0  3  0  0  0  0  0  0
  186.4660  177.7920  144.5810 C   0  0  0  0  0  0  0  0  0  0  0  0
  185.8160  179.0340  144.9910 C   0  0  0  0  0  3  0  0  0  0  0  0
  185.5090  179.1790  146.2900 C   0  0  0  0  0  3  0  0  0  0  0  0
  187.3690  175.6550  144.8570 N   0  0  0  0  0  0  0  0  0  0  0  0
  185.8140  178.1170  147.3440 C   0  0  0  0  0  2  0  0  0  0  0  0
  186.8760  177.3680  143.3990 C   0  0  0  0  0  0  0  0  0  0  0  0
  187.4420  176.0130  143.6070 C   0  0  0  0  0  0  0  0  0  0  0  0
  186.7590  176.7530  145.5180 C   0  0  0  0  0  0  0  0  0  0  0  0
  186.7350  178.1090  142.1120 C   0  0  0  0  0  2  0  0  0  0  0  0
  185.4490  177.9180  141.6000 O   0  0  0  0  0  1  0  0  0  0  0  0
  189.9730  174.0510  141.4010 C   0  0  0  0  0  2  0  0  0  0  0  0
  189.4990  172.6100  141.3230 C   0  0  0  0  0  2  0  0  0  0  0  0
  189.0880  172.2970  139.8960 C   0  0  0  0  0  2  0  0  0  0  0  0
  189.5460  173.4180  138.9760 C   0  0  0  0  0  2  0  0  0  0  0  0
  189.3160  172.8930  136.5640 C   0  0  1  0  0  3  0  0  0  0  0  0
  189.0480  174.9140  135.3130 O   0  0  0  0  0  1  0  0  0  0  0  0
  191.3720  173.7370  137.3440 C   0  0  0  0  0  0  0  0  0  0  0  0
  189.1980  171.6150  136.0190 O   0  0  0  0  0  1  0  0  0  0  0  0
  190.2640  172.8530  137.7630 C   0  0  1  0  0  3  0  0  0  0  0  0
  192.4230  173.9080  138.0190 O   0  0  0  0  0  0  0  0  0  0  0  0
  191.1690  174.3280  136.0770 N   0  0  0  0  0  0  0  0  0  0  0  0
  189.9180  173.8420  135.5190 C   0  0  1  0  0  3  0  0  0  0  0  0
  192.2700  174.8060  135.2530 C   0  0  0  0  0  2  0  0  0  0  0  0
  192.3620  176.3190  135.3100 C   0  0  0  0  0  2  0  0  0  0  0  0
  193.6870  176.7040  135.7610 N   0  0  0  0  0  2  0  0  0  0  0  0
  194.5010  175.5000  135.7360 C   0  0  0  0  0  2  0  0  0  0  0  0
  195.8690  177.1890  134.5810 C   0  0  0  0  0  1  0  0  0  0  0  0
  195.6820  175.6970  134.7980 C   0  0  1  0  0  3  0  0  0  0  0  0
  196.9630  175.0730  135.3630 C   0  0  1  0  0  3  0  0  0  0  0  0
  197.4750  175.8660  136.3950 O   0  0  0  0  0  1  0  0  0  0  0  0
  196.6830  173.6790  135.9120 C   0  0  2  0  0  3  0  0  0  0  0  0
  197.5640  172.6710  135.1960 C   0  0  2  0  0  3  0  0  0  0  0  0
  196.1030  172.7970  134.8230 C   0  0  0  0  0  2  0  0  0  0  0  0
  197.2150  170.2870  135.4350 N   0  0  0  0  0  1  0  0  0  0  0  0
  197.7510  171.4650  136.0920 C   0  0  0  0  0  2  0  0  0  0  0  0
  1  3  2  0  0  0  0
  3  2  1  0  0  0  0
  3 40  1  0  0  0  0
  4  7  2  0  0  0  0
  4 13  1  0  0  0  0
  5  2  1  6  0  0  0
  5 11  1  0  0  0  0
  6  8  1  0  0  0  0
  7 10  1  0  0  0  0
  8  5  1  0  0  0  0
  9 12  1  0  0  0  0
  9 11  2  0  0  0  0
 10 12  2  0  0  0  0
 13  8  2  0  0  0  0
 13  9  1  0  0  0  0
 14 10  1  0  0  0  0
 14 16  1  0  0  0  0
 16 22  1  0  0  0  0
 16 15  1  1  0  0  0
 18 17  2  0  0  0  0
 18 21  1  0  0  0  0
 19 20  1  0  0  0  0
 19 22  2  0  0  0  0
 20 18  1  0  0  0  0
 22 17  1  0  0  0  0
 25 24  1  6  0  0  0
 25 20  1  0  0  0  0
 26 23  1  6  0  0  0
 26 24  1  0  0  0  0
 26 25  1  0  0  0  0
 27 26  1  0  0  0  0
 28 27  1  0  0  0  0
 30 32  1  0  0  0  0
 31 32  1  0  0  0  0
 32 28  1  0  0  0  0
 32 29  1  0  0  0  0
 33 38  1  0  0  0  0
 34 35  1  0  0  0  0
 34 41  1  0  0  0  0
 35 36  2  0  0  0  0
 36 38  1  0  0  0  0
 37 41  1  0  0  0  0
 39 40  1  0  0  0  0
 39 34  2  0  0  0  0
 40 37  2  0  0  0  0
 41 33  2  0  0  0  0
 42 39  1  0  0  0  0
 43 42  1  0  0  0  0
 44  2  1  0  0  0  0
 45 44  1  0  0  0  0
 46 45  1  0  0  0  0
 47 46  1  0  0  0  0
 48 51  1  6  0  0  0
 48 52  1  0  0  0  0
 50 52  1  0  0  0  0
 50 53  2  0  0  0  0
 52 47  1  1  0  0  0
 54 50  1  0  0  0  0
 55 49  1  1  0  0  0
 55 54  1  0  0  0  0
 55 48  1  0  0  0  0
 56 57  1  0  0  0  0
 56 54  1  0  0  0  0
 57 58  1  0  0  0  0
 59 58  1  0  0  0  0
 61 60  1  1  0  0  0
 61 62  1  0  0  0  0
 61 59  1  0  0  0  0
 62 63  1  1  0  0  0
 64 62  1  6  0  0  0
 65 64  1  0  0  0  0
 65 68  1  1  0  0  0
 66 65  1  0  0  0  0
 66 64  1  0  0  0  0
 67 68  1  0  0  0  0
M  END
>  <MODEL>
1

>  <REMARK>
 VINA RESULT:      -5.8      0.000      0.000
  Name = 
  23 active torsions:
  status: ('A' for Active; 'I' for Inactive)
    1  A    between atoms: N_3  and  C_9
    2  A    between atoms: N_3  and  C_58
    3  A    between atoms: C_8  and  C_10
    4  A    between atoms: C_8  and  C_57
    5  A    between atoms: C_9  and  C_57
    6  A    between atoms: C_11  and  C_54
    7  A    between atoms: C_13  and  N_38
    8  A    between atoms: C_14  and  C_30
    9  A    between atoms: C_14  and  C_43
   10  A    between atoms: C_15  and  C_52
   11  A    between atoms: C_15  and  C_56
   12  A    between atoms: C_18  and  C_47
   13  A    between atoms: C_22  and  C_24
   14  A    between atoms: C_22  and  C_30
   15  A    between atoms: C_24  and  N_38
   16  A    between atoms: O_26  and  C_31
   17  A    between atoms: O_26  and  C_62
   18  A    between atoms: C_31  and  C_61
   19  A    between atoms: N_32  and  C_60
   20  A    between atoms: C_35  and  C_58
   21  A    between atoms: C_35  and  N_65
   22  A    between atoms: C_40  and  C_64
   23  A    between atoms: C_53  and  C_56
                            x       y       z     vdW  Elec       q    Type
                         _______ _______ _______ _____ _____    ______ ____

>  <TORSDO>
F 23

$$$$
=
 OpenBabel11042417353D

 68 75  0  0  1  0  0  0  0  0999 V2000
  188.5470  172.0340  143.1060 O   0  0  0  0  0  0  0  0  0  0  0  0
  188.9800  173.1820  141.1220 N   0  0  0  0  0  0  0  0  0  0  0  0
  189.3590  172.2610  142.1680 C   0  0  0  0  0  0  0  0  0  0  0  0
  189.1210  172.5290  136.5850 C   0  0  0  0  0  3  0  0  0  0  0  0
  189.8860  173.5180  140.0190 C   0  0  2  0  0  3  0  0  0  0  0  0
  188.1470  174.6580  138.4920 O   0  0  0  0  0  1  0  0  0  0  0  0
  189.7370  171.4630  135.9110 C   0  0  0  0  0  3  0  0  0  0  0  0
  189.1240  173.7000  138.7400 C   0  0  0  0  0  0  0  0  0  0  0  0
  190.5010  172.0290  138.4890 C   0  0  0  0  0  0  0  0  0  0  0  0
  190.7380  170.7080  136.5560 C   0  0  0  0  0  0  0  0  0  0  0  0
  190.7610  172.3810  139.7050 N   0  0  0  0  0  0  0  0  0  0  0  0
  191.0980  170.9970  137.8430 N   0  0  0  0  0  0  0  0  0  0  0  0
  189.5360  172.7880  137.8880 C   0  0  0  0  0  0  0  0  0  0  0  0
  191.3560  169.5550  135.8380 C   0  0  0  0  0  2  0  0  0  0  0  0
  192.3640  171.4280  134.5420 C   0  0  0  0  0  1  0  0  0  0  0  0
  192.5590  169.9950  135.0090 C   0  0  1  0  0  3  0  0  0  0  0  0
  194.5350  168.7270  135.8780 N   0  0  0  0  0  0  0  0  0  0  0  0
  195.6070  169.0740  136.6130 C   0  0  0  0  0  0  0  0  0  0  0  0
  194.5050  170.9100  136.4290 C   0  0  0  0  0  3  0  0  0  0  0  0
  195.6080  170.3710  136.9770 N   0  0  0  0  0  0  0  0  0  0  0  0
  196.6670  168.1660  136.9070 N   0  0  0  0  0  1  0  0  0  0  0  0
  193.8430  169.8820  135.7760 C   0  0  0  0  0  0  0  0  0  0  0  0
  194.7860  171.5030  139.3040 O   0  0  0  0  0  1  0  0  0  0  0  0
  196.9650  170.4800  139.0430 C   0  0  0  0  0  2  0  0  0  0  0  0
  196.6560  171.1130  137.6810 C   0  0  2  0  0  3  0  0  0  0  0  0
  196.1260  171.7270  138.9700 C   0  0  1  0  0  0  0  0  0  0  0  0
  196.7990  172.9790  139.4980 C   0  0  0  0  0  2  0  0  0  0  0  0
  196.3290  174.1010  138.7960 O   0  0  0  0  0  0  0  0  0  0  0  0
  195.3850  174.2680  140.8890 F   0  0  0  0  0  0  0  0  0  0  0  0
  194.5180  175.4750  139.1700 F   0  0  0  0  0  0  0  0  0  0  0  0
  196.5280  175.9950  140.0240 F   0  0  0  0  0  0  0  0  0  0  0  0
  195.6810  174.9490  139.7170 C   0  0  0  0  0  0  0  0  0  0  0  0
  192.9150  168.9740  141.8700 C   0  0  0  0  0  3  0  0  0  0  0  0
  192.9040  171.3220  142.4540 C   0  0  0  0  0  0  0  0  0  0  0  0
  194.3440  171.3790  142.6910 C   0  0  0  0  0  3  0  0  0  0  0  0
  195.0510  170.2520  142.5090 C   0  0  0  0  0  3  0  0  0  0  0  0
  190.8590  170.3290  141.9170 N   0  0  0  0  0  0  0  0  0  0  0  0
  194.4220  168.9330  142.0660 C   0  0  0  0  0  2  0  0  0  0  0  0
  191.9650  172.2460  142.5510 C   0  0  0  0  0  0  0  0  0  0  0  0
  190.6820  171.5860  142.2060 C   0  0  0  0  0  0  0  0  0  0  0  0
  192.2540  170.1120  142.0580 C   0  0  0  0  0  0  0  0  0  0  0  0
  192.1750  173.6600  142.9810 C   0  0  0  0  0  2  0  0  0  0  0  0
  192.6910  174.4020  141.9160 O   0  0  0  0  0  1  0  0  0  0  0  0
  187.7410  173.9480  141.2610 C   0  0  0  0  0  2  0  0  0  0  0  0
  188.0410  175.3790  141.6760 C   0  0  0  0  0  2  0  0  0  0  0  0
  186.9790  175.8480  142.6530 C   0  0  0  0  0  2  0  0  0  0  0  0
  186.5250  177.2490  142.2770 C   0  0  0  0  0  2  0  0  0  0  0  0
  185.5830  178.1310  144.3950 C   0  0  1  0  0  3  0  0  0  0  0  0
  185.4930  176.3900  146.0330 O   0  0  0  0  0  1  0  0  0  0  0  0
  187.9070  177.7780  144.2550 C   0  0  0  0  0  0  0  0  0  0  0  0
  185.0350  179.4010  144.5730 O   0  0  0  0  0  1  0  0  0  0  0  0
  186.7630  178.2130  143.4270 C   0  0  1  0  0  3  0  0  0  0  0  0
  189.1030  177.7890  143.8570 O   0  0  0  0  0  0  0  0  0  0  0  0
  187.5380  177.4020  145.5660 N   0  0  0  0  0  0  0  0  0  0  0  0
  186.1100  177.6070  145.7370 C   0  0  1  0  0  3  0  0  0  0  0  0
  188.4790  177.4210  146.6780 C   0  0  0  0  0  2  0  0  0  0  0  0
  189.1360  176.0650  146.8460 C   0  0  0  0  0  2  0  0  0  0  0  0
  190.4940  176.2430  147.3240 N   0  0  0  0  0  2  0  0  0  0  0  0
  191.3200  176.4830  146.1530 C   0  0  0  0  0  2  0  0  0  0  0  0
  192.8740  174.5940  146.4300 C   0  0  0  0  0  1  0  0  0  0  0  0
  192.7630  176.1090  146.4550 C   0  0  1  0  0  3  0  0  0  0  0  0
  193.7320  176.7350  145.4460 C   0  0  1  0  0  3  0  0  0  0  0  0
  194.7160  177.4740  146.1120 O   0  0  0  0  0  1  0  0  0  0  0  0
  194.4130  175.6530  144.6160 C   0  0  2  0  0  3  0  0  0  0  0  0
  195.9030  175.6570  144.9100 C   0  0  2  0  0  3  0  0  0  0  0  0
  195.3830  176.2830  143.6340 C   0  0  0  0  0  2  0  0  0  0  0  0
  197.4340  173.9220  145.6190 N   0  0  0  0  0  1  0  0  0  0  0  0
  196.4630  174.2840  144.6040 C   0  0  0  0  0  2  0  0  0  0  0  0
  2 44  1  0  0  0  0
  2  3  1  0  0  0  0
  3 40  1  0  0  0  0
  3  1  2  0  0  0  0
  4 13  1  0  0  0  0
  5  2  1  1  0  0  0
  6  8  1  0  0  0  0
  7 10  1  0  0  0  0
  7  4  2  0  0  0  0
  8  5  1  0  0  0  0
  9 11  2  0  0  0  0
 10 12  2  0  0  0  0
 11  5  1  0  0  0  0
 12  9  1  0  0  0  0
 13  9  1  0  0  0  0
 13  8  2  0  0  0  0
 14 10  1  0  0  0  0
 16 15  1  1  0  0  0
 16 22  1  0  0  0  0
 16 14  1  0  0  0  0
 17 18  2  0  0  0  0
 18 21  1  0  0  0  0
 18 20  1  0  0  0  0
 19 20  1  0  0  0  0
 22 17  1  0  0  0  0
 22 19  2  0  0  0  0
 25 20  1  6  0  0  0
 25 26  1  0  0  0  0
 25 24  1  0  0  0  0
 26 24  1  0  0  0  0
 26 23  1  1  0  0  0
 26 27  1  0  0  0  0
 28 27  1  0  0  0  0
 28 32  1  0  0  0  0
 30 32  1  0  0  0  0
 32 31  1  0  0  0  0
 32 29  1  0  0  0  0
 33 41  2  0  0  0  0
 33 38  1  0  0  0  0
 34 39  2  0  0  0  0
 34 35  1  0  0  0  0
 36 35  2  0  0  0  0
 37 41  1  0  0  0  0
 37 40  2  0  0  0  0
 38 36  1  0  0  0  0
 39 42  1  0  0  0  0
 40 39  1  0  0  0  0
 41 34  1  0  0  0  0
 43 42  1  0  0  0  0
 44 45  1  0  0  0  0
 45 46  1  0  0  0  0
 47 46  1  0  0  0  0
 48 51  1  1  0  0  0
 48 55  1  0  0  0  0
 50 54  1  0  0  0  0
 52 47  1  6  0  0  0
 52 50  1  0  0  0  0
 52 48  1  0  0  0  0
 53 50  2  0  0  0  0
 54 55  1  0  0  0  0
 54 56  1  0  0  0  0
 55 49  1  6  0  0  0
 56 57  1  0  0  0  0
 57 58  1  0  0  0  0
 59 61  1  0  0  0  0
 59 58  1  0  0  0  0
 61 60  1  6  0  0  0
 62 63  1  1  0  0  0
 62 61  1  0  0  0  0
 64 65  1  0  0  0  0
 64 62  1  1  0  0  0
 65 68  1  6  0  0  0
 66 64  1  0  0  0  0
 66 65  1  0  0  0  0
 68 67  1  0  0  0  0
M  END
>  <MODEL>
2

>  <REMARK>
 VINA RESULT:      -5.7      3.048      8.906
  Name = 
  23 active torsions:
  status: ('A' for Active; 'I' for Inactive)
    1  A    between atoms: N_3  and  C_9
    2  A    between atoms: N_3  and  C_58
    3  A    between atoms: C_8  and  C_10
    4  A    between atoms: C_8  and  C_57
    5  A    between atoms: C_9  and  C_57
    6  A    between atoms: C_11  and  C_54
    7  A    between atoms: C_13  and  N_38
    8  A    between atoms: C_14  and  C_30
    9  A    between atoms: C_14  and  C_43
   10  A    between atoms: C_15  and  C_52
   11  A    between atoms: C_15  and  C_56
   12  A    between atoms: C_18  and  C_47
   13  A    between atoms: C_22  and  C_24
   14  A    between atoms: C_22  and  C_30
   15  A    between atoms: C_24  and  N_38
   16  A    between atoms: O_26  and  C_31
   17  A    between atoms: O_26  and  C_62
   18  A    between atoms: C_31  and  C_61
   19  A    between atoms: N_32  and  C_60
   20  A    between atoms: C_35  and  C_58
   21  A    between atoms: C_35  and  N_65
   22  A    between atoms: C_40  and  C_64
   23  A    between atoms: C_53  and  C_56
                            x       y       z     vdW  Elec       q    Type
                         _______ _______ _______ _____ _____    ______ ____

>  <TORSDO>
F 23

$$$$
=
 OpenBabel11042417353D

 68 75  0  0  1  0  0  0  0  0999 V2000
  190.6210  177.5220  144.5450 O   0  0  0  0  0  0  0  0  0  0  0  0
  189.8630  175.8090  143.1540 N   0  0  0  0  0  0  0  0  0  0  0  0
  189.6300  176.9090  144.0620 C   0  0  0  0  0  0  0  0  0  0  0  0
  189.3990  171.9820  140.6710 C   0  0  0  0  0  3  0  0  0  0  0  0
  188.7600  175.0310  142.5810 C   0  0  2  0  0  3  0  0  0  0  0  0
  189.3990  172.7470  143.5930 O   0  0  0  0  0  1  0  0  0  0  0  0
  189.3340  171.8940  139.2710 C   0  0  0  0  0  3  0  0  0  0  0  0
  189.1130  173.5750  142.5130 C   0  0  0  0  0  0  0  0  0  0  0  0
  188.7850  174.2990  140.4830 C   0  0  0  0  0  0  0  0  0  0  0  0
  188.9810  173.0280  138.5120 C   0  0  0  0  0  0  0  0  0  0  0  0
  188.5670  175.3750  141.1660 N   0  0  0  0  0  0  0  0  0  0  0  0
  188.7220  174.2200  139.1310 N   0  0  0  0  0  0  0  0  0  0  0  0
  189.1120  173.2150  141.2490 C   0  0  0  0  0  0  0  0  0  0  0  0
  188.9530  172.9270  137.0240 C   0  0  0  0  0  2  0  0  0  0  0  0
  191.0860  174.1960  137.2220 C   0  0  0  0  0  1  0  0  0  0  0  0
  190.3390  173.1420  136.4230 C   0  0  1  0  0  3  0  0  0  0  0  0
  190.5890  170.6680  136.1270 N   0  0  0  0  0  0  0  0  0  0  0  0
  191.6420  169.8330  136.1650 C   0  0  0  0  0  0  0  0  0  0  0  0
  192.5100  171.7600  136.5600 C   0  0  0  0  0  3  0  0  0  0  0  0
  192.8060  170.4530  136.4430 N   0  0  0  0  0  0  0  0  0  0  0  0
  191.5350  168.4420  135.8650 N   0  0  0  0  0  1  0  0  0  0  0  0
  191.1390  171.8740  136.3850 C   0  0  0  0  0  0  0  0  0  0  0  0
  193.7530  169.9300  138.9330 O   0  0  0  0  0  1  0  0  0  0  0  0
  194.1510  168.4650  137.0460 C   0  0  0  0  0  2  0  0  0  0  0  0
  194.1540  169.8820  136.4600 C   0  0  2  0  0  3  0  0  0  0  0  0
  194.6260  169.6220  137.8840 C   0  0  1  0  0  0  0  0  0  0  0  0
  196.1170  169.6380  138.1600 C   0  0  0  0  0  2  0  0  0  0  0  0
  196.3420  169.8000  139.5370 O   0  0  0  0  0  0  0  0  0  0  0  0
  197.9400  171.2960  140.2460 F   0  0  0  0  0  0  0  0  0  0  0  0
  195.7480  171.7130  140.6740 F   0  0  0  0  0  0  0  0  0  0  0  0
  196.5410  171.8430  138.5780 F   0  0  0  0  0  0  0  0  0  0  0  0
  196.6440  171.1560  139.7720 C   0  0  0  0  0  0  0  0  0  0  0  0
  185.2370  178.9640  144.2010 C   0  0  0  0  0  3  0  0  0  0  0  0
  186.3980  177.4820  145.7220 C   0  0  0  0  0  0  0  0  0  0  0  0
  185.3030  177.4440  146.6880 C   0  0  0  0  0  3  0  0  0  0  0  0
  184.1970  178.1500  146.4050 C   0  0  0  0  0  3  0  0  0  0  0  0
  187.5140  178.1270  143.7740 N   0  0  0  0  0  0  0  0  0  0  0  0
  184.0330  178.9720  145.1290 C   0  0  0  0  0  2  0  0  0  0  0  0
  187.5870  176.9060  145.7240 C   0  0  0  0  0  0  0  0  0  0  0  0
  188.2690  177.3350  144.4790 C   0  0  0  0  0  0  0  0  0  0  0  0
  186.3130  178.2500  144.5190 C   0  0  0  0  0  0  0  0  0  0  0  0
  188.1330  176.0400  146.8110 C   0  0  0  0  0  2  0  0  0  0  0  0
  189.3060  176.6060  147.3160 O   0  0  0  0  0  1  0  0  0  0  0  0
  191.2300  175.3320  142.9480 C   0  0  0  0  0  2  0  0  0  0  0  0
  192.1330  175.7890  144.0810 C   0  0  0  0  0  2  0  0  0  0  0  0
  193.5550  175.3460  143.7960 C   0  0  0  0  0  2  0  0  0  0  0  0
  193.9230  175.7060  142.3650 C   0  0  0  0  0  2  0  0  0  0  0  0
  196.2370  175.7690  141.4750 C   0  0  1  0  0  3  0  0  0  0  0  0
  197.7250  176.6340  143.1340 O   0  0  0  0  0  1  0  0  0  0  0  0
  195.6570  174.0620  142.9900 C   0  0  0  0  0  0  0  0  0  0  0  0
  196.6080  175.4960  140.1580 O   0  0  0  0  0  1  0  0  0  0  0  0
  195.0820  174.8520  141.8810 C   0  0  1  0  0  3  0  0  0  0  0  0
  195.0540  173.1110  143.5570 O   0  0  0  0  0  0  0  0  0  0  0  0
  196.9800  174.4350  143.3170 N   0  0  0  0  0  0  0  0  0  0  0  0
  197.4190  175.4810  142.4090 C   0  0  1  0  0  3  0  0  0  0  0  0
  197.9040  173.5300  143.9870 C   0  0  0  0  0  2  0  0  0  0  0  0
  197.7530  172.1190  143.4520 C   0  0  0  0  0  2  0  0  0  0  0  0
  197.9210  171.1710  144.5380 N   0  0  0  0  0  2  0  0  0  0  0  0
  197.2050  169.9670  144.1540 C   0  0  0  0  0  2  0  0  0  0  0  0
  195.9420  170.7450  146.1180 C   0  0  0  0  0  1  0  0  0  0  0  0
  196.2990  169.5210  145.2920 C   0  0  1  0  0  3  0  0  0  0  0  0
  195.0300  168.8380  144.7700 C   0  0  1  0  0  3  0  0  0  0  0  0
  194.1010  168.6840  145.8050 O   0  0  0  0  0  1  0  0  0  0  0  0
  194.3920  169.6660  143.6610 C   0  0  2  0  0  3  0  0  0  0  0  0
  193.2140  168.9050  143.0800 C   0  0  2  0  0  3  0  0  0  0  0  0
  194.5280  168.9500  142.3310 C   0  0  0  0  0  2  0  0  0  0  0  0
  191.2910  169.1880  141.6370 N   0  0  0  0  0  1  0  0  0  0  0  0
  192.2500  169.8970  142.4630 C   0  0  0  0  0  2  0  0  0  0  0  0
  2  3  1  0  0  0  0
  3 40  1  0  0  0  0
  3  1  2  0  0  0  0
  4 13  1  0  0  0  0
  5  2  1  6  0  0  0
  7  4  2  0  0  0  0
  8  5  1  0  0  0  0
  8  6  1  0  0  0  0
  9 11  2  0  0  0  0
  9 13  1  0  0  0  0
 10 12  2  0  0  0  0
 10  7  1  0  0  0  0
 11  5  1  0  0  0  0
 12  9  1  0  0  0  0
 13  8  2  0  0  0  0
 14 10  1  0  0  0  0
 16 14  1  0  0  0  0
 16 15  1  1  0  0  0
 17 18  2  0  0  0  0
 17 22  1  0  0  0  0
 18 20  1  0  0  0  0
 20 19  1  0  0  0  0
 21 18  1  0  0  0  0
 22 16  1  0  0  0  0
 22 19  2  0  0  0  0
 24 26  1  0  0  0  0
 25 20  1  1  0  0  0
 25 24  1  0  0  0  0
 25 26  1  0  0  0  0
 26 27  1  0  0  0  0
 26 23  1  1  0  0  0
 27 28  1  0  0  0  0
 28 32  1  0  0  0  0
 31 32  1  0  0  0  0
 32 29  1  0  0  0  0
 32 30  1  0  0  0  0
 33 41  2  0  0  0  0
 33 38  1  0  0  0  0
 34 39  2  0  0  0  0
 34 35  1  0  0  0  0
 36 35  2  0  0  0  0
 37 40  2  0  0  0  0
 37 41  1  0  0  0  0
 38 36  1  0  0  0  0
 39 42  1  0  0  0  0
 40 39  1  0  0  0  0
 41 34  1  0  0  0  0
 42 43  1  0  0  0  0
 44  2  1  0  0  0  0
 44 45  1  0  0  0  0
 46 45  1  0  0  0  0
 47 46  1  0  0  0  0
 48 51  1  6  0  0  0
 48 52  1  0  0  0  0
 48 55  1  0  0  0  0
 50 54  1  0  0  0  0
 50 53  2  0  0  0  0
 52 47  1  1  0  0  0
 52 50  1  0  0  0  0
 54 56  1  0  0  0  0
 55 49  1  1  0  0  0
 55 54  1  0  0  0  0
 57 56  1  0  0  0  0
 57 58  1  0  0  0  0
 59 58  1  0  0  0  0
 59 61  1  0  0  0  0
 61 60  1  6  0  0  0
 62 61  1  0  0  0  0
 62 63  1  1  0  0  0
 64 62  1  1  0  0  0
 65 68  1  6  0  0  0
 65 64  1  0  0  0  0
 66 65  1  0  0  0  0
 66 64  1  0  0  0  0
 67 68  1  0  0  0  0
M  END
>  <MODEL>
3

>  <REMARK>
 VINA RESULT:      -5.3      3.107      7.665
  Name = 
  23 active torsions:
  status: ('A' for Active; 'I' for Inactive)
    1  A    between atoms: N_3  and  C_9
    2  A    between atoms: N_3  and  C_58
    3  A    between atoms: C_8  and  C_10
    4  A    between atoms: C_8  and  C_57
    5  A    between atoms: C_9  and  C_57
    6  A    between atoms: C_11  and  C_54
    7  A    between atoms: C_13  and  N_38
    8  A    between atoms: C_14  and  C_30
    9  A    between atoms: C_14  and  C_43
   10  A    between atoms: C_15  and  C_52
   11  A    between atoms: C_15  and  C_56
   12  A    between atoms: C_18  and  C_47
   13  A    between atoms: C_22  and  C_24
   14  A    between atoms: C_22  and  C_30
   15  A    between atoms: C_24  and  N_38
   16  A    between atoms: O_26  and  C_31
   17  A    between atoms: O_26  and  C_62
   18  A    between atoms: C_31  and  C_61
   19  A    between atoms: N_32  and  C_60
   20  A    between atoms: C_35  and  C_58
   21  A    between atoms: C_35  and  N_65
   22  A    between atoms: C_40  and  C_64
   23  A    between atoms: C_53  and  C_56
                            x       y       z     vdW  Elec       q    Type
                         _______ _______ _______ _____ _____    ______ ____

>  <TORSDO>
F 23

$$$$
=
 OpenBabel11042417353D

 68 75  0  0  1  0  0  0  0  0999 V2000
  188.5320  173.6760  140.1320 O   0  0  0  0  0  0  0  0  0  0  0  0
  190.6520  173.3790  141.0590 N   0  0  0  0  0  0  0  0  0  0  0  0
  189.7050  173.2370  139.9780 C   0  0  0  0  0  0  0  0  0  0  0  0
  193.3230  170.5010  143.4270 C   0  0  0  0  0  3  0  0  0  0  0  0
  192.0210  172.8640  140.9620 C   0  0  2  0  0  3  0  0  0  0  0  0
  191.4420  170.3530  141.0690 O   0  0  0  0  0  1  0  0  0  0  0  0
  194.2130  170.8400  144.4590 C   0  0  0  0  0  3  0  0  0  0  0  0
  192.1120  171.4800  141.5330 C   0  0  0  0  0  0  0  0  0  0  0  0
  193.3920  172.7940  142.7090 C   0  0  0  0  0  0  0  0  0  0  0  0
  194.6770  172.1650  144.5780 C   0  0  0  0  0  0  0  0  0  0  0  0
  192.9230  173.6250  141.8380 N   0  0  0  0  0  0  0  0  0  0  0  0
  194.2510  173.1280  143.7050 N   0  0  0  0  0  0  0  0  0  0  0  0
  192.9330  171.5150  142.5590 C   0  0  0  0  0  0  0  0  0  0  0  0
  195.5940  172.5160  145.7020 C   0  0  0  0  0  2  0  0  0  0  0  0
  197.6790  173.7410  146.2960 C   0  0  0  0  0  1  0  0  0  0  0  0
  196.5020  173.6870  145.3370 C   0  0  1  0  0  3  0  0  0  0  0  0
  197.2500  172.4160  143.3140 N   0  0  0  0  0  0  0  0  0  0  0  0
  197.6460  172.7840  142.0830 C   0  0  0  0  0  0  0  0  0  0  0  0
  197.2320  174.6530  143.0620 C   0  0  0  0  0  3  0  0  0  0  0  0
  197.6670  174.1200  141.9060 N   0  0  0  0  0  0  0  0  0  0  0  0
  197.9410  171.8420  141.0530 N   0  0  0  0  0  1  0  0  0  0  0  0
  197.0010  173.5930  143.9260 C   0  0  0  0  0  0  0  0  0  0  0  0
  195.6840  173.9670  140.0580 O   0  0  0  0  0  1  0  0  0  0  0  0
  196.9280  176.0010  140.4790 C   0  0  0  0  0  2  0  0  0  0  0  0
  197.9400  174.8660  140.6770 C   0  0  2  0  0  3  0  0  0  0  0  0
  196.7940  174.7310  139.6830 C   0  0  1  0  0  0  0  0  0  0  0  0
  197.1060  174.8690  138.2050 C   0  0  0  0  0  2  0  0  0  0  0  0
  195.9150  175.0610  137.4860 O   0  0  0  0  0  0  0  0  0  0  0  0
  197.1990  173.8360  136.0200 F   0  0  0  0  0  0  0  0  0  0  0  0
  195.1970  174.6650  135.3330 F   0  0  0  0  0  0  0  0  0  0  0  0
  195.2820  172.9890  136.8240 F   0  0  0  0  0  0  0  0  0  0  0  0
  195.9050  174.1500  136.4110 C   0  0  0  0  0  0  0  0  0  0  0  0
  190.1810  169.9770  136.4160 C   0  0  0  0  0  3  0  0  0  0  0  0
  190.8120  172.3070  136.5960 C   0  0  0  0  0  0  0  0  0  0  0  0
  191.3900  172.3630  135.2560 C   0  0  0  0  0  3  0  0  0  0  0  0
  191.3530  171.2450  134.5130 C   0  0  0  0  0  3  0  0  0  0  0  0
  189.7690  171.3210  138.4400 N   0  0  0  0  0  0  0  0  0  0  0  0
  190.7340  169.9370  135.0010 C   0  0  0  0  0  3  0  0  0  0  0  0
  190.7050  173.2230  137.5410 C   0  0  1  0  0  3  0  0  0  0  0  0
  190.0410  172.5680  138.6950 C   0  0  0  0  0  0  0  0  0  0  0  0
  190.2360  171.1060  137.1160 C   0  0  0  0  0  0  0  0  0  0  0  0
  191.2120  174.6240  137.4570 C   0  0  0  0  0  2  0  0  0  0  0  0
  192.6090  174.6160  137.4240 O   0  0  0  0  0  1  0  0  0  0  0  0
  190.1870  173.8750  142.3540 C   0  0  0  0  0  2  0  0  0  0  0  0
  189.5440  172.7560  143.1560 C   0  0  0  0  0  2  0  0  0  0  0  0
  189.6200  173.0940  144.6330 C   0  0  0  0  0  2  0  0  0  0  0  0
  191.0720  173.0860  145.0830 C   0  0  0  0  0  2  0  0  0  0  0  0
  192.3800  175.1650  145.4270 C   0  0  1  0  0  3  0  0  0  0  0  0
  191.7150  176.8180  143.8330 O   0  0  0  0  0  1  0  0  0  0  0  0
  190.1500  175.0990  146.1790 C   0  0  0  0  0  0  0  0  0  0  0  0
  193.4540  175.3120  146.3040 O   0  0  0  0  0  1  0  0  0  0  0  0
  191.3390  174.2310  146.0450 C   0  0  1  0  0  3  0  0  0  0  0  0
  189.0800  174.7360  146.7390 O   0  0  0  0  0  0  0  0  0  0  0  0
  190.3470  176.4020  145.6710 N   0  0  0  0  0  0  0  0  0  0  0  0
  191.7150  176.5280  145.1980 C   0  0  1  0  0  3  0  0  0  0  0  0
  189.5550  177.5410  146.1150 C   0  0  0  0  0  2  0  0  0  0  0  0
  188.2090  177.5610  145.4180 C   0  0  0  0  0  2  0  0  0  0  0  0
  187.1530  177.4310  146.4050 N   0  0  0  0  0  2  0  0  0  0  0  0
  186.2170  178.5150  146.1590 C   0  0  0  0  0  2  0  0  0  0  0  0
  183.8180  178.4990  146.7090 C   0  0  0  0  0  1  0  0  0  0  0  0
  184.8650  177.9470  145.7560 C   0  0  1  0  0  3  0  0  0  0  0  0
  184.5110  178.3010  144.3080 C   0  0  1  0  0  3  0  0  0  0  0  0
  184.6150  179.6820  144.1070 O   0  0  0  0  0  1  0  0  0  0  0  0
  185.4510  177.5950  143.3380 C   0  0  2  0  0  3  0  0  0  0  0  0
  186.0270  178.6100  142.3670 C   0  0  2  0  0  3  0  0  0  0  0  0
  184.9100  177.6900  141.9250 C   0  0  0  0  0  2  0  0  0  0  0  0
  187.1430  176.7830  141.2380 N   0  0  0  0  0  1  0  0  0  0  0  0
  187.3470  178.0860  141.8410 C   0  0  0  0  0  2  0  0  0  0  0  0
  2 44  1  0  0  0  0
  3  1  2  0  0  0  0
  3  2  1  0  0  0  0
  4  7  2  0  0  0  0
  5  2  1  1  0  0  0
  5  8  1  0  0  0  0
  5 11  1  0  0  0  0
  6  8  1  0  0  0  0
  7 10  1  0  0  0  0
  8 13  2  0  0  0  0
  9 12  1  0  0  0  0
 10 14  1  0  0  0  0
 11  9  2  0  0  0  0
 12 10  2  0  0  0  0
 13  9  1  0  0  0  0
 13  4  1  0  0  0  0
 16 14  1  0  0  0  0
 16 15  1  1  0  0  0
 17 22  1  0  0  0  0
 18 17  2  0  0  0  0
 19 22  2  0  0  0  0
 20 18  1  0  0  0  0
 20 19  1  0  0  0  0
 21 18  1  0  0  0  0
 22 16  1  0  0  0  0
 25 24  1  1  0  0  0
 25 20  1  0  0  0  0
 26 23  1  1  0  0  0
 26 24  1  0  0  0  0
 26 25  1  0  0  0  0
 27 26  1  0  0  0  0
 28 27  1  0  0  0  0
 29 32  1  0  0  0  0
 30 32  1  0  0  0  0
 32 31  1  0  0  0  0
 32 28  1  0  0  0  0
 33 41  1  0  0  0  0
 34 41  2  0  0  0  0
 34 39  1  0  0  0  0
 35 34  1  0  0  0  0
 36 38  1  0  0  0  0
 36 35  2  0  0  0  0
 37 40  2  0  0  0  0
 38 33  2  0  0  0  0
 39 42  1  1  0  0  0
 39 40  1  0  0  0  0
 40  3  1  0  0  0  0
 41 37  1  0  0  0  0
 43 42  1  0  0  0  0
 44 45  1  0  0  0  0
 45 46  1  0  0  0  0
 46 47  1  0  0  0  0
 48 52  1  0  0  0  0
 48 51  1  1  0  0  0
 50 53  2  0  0  0  0
 52 47  1  6  0  0  0
 52 50  1  0  0  0  0
 54 56  1  0  0  0  0
 54 50  1  0  0  0  0
 55 49  1  6  0  0  0
 55 48  1  0  0  0  0
 55 54  1  0  0  0  0
 57 56  1  0  0  0  0
 57 58  1  0  0  0  0
 59 58  1  0  0  0  0
 61 59  1  0  0  0  0
 61 60  1  1  0  0  0
 62 63  1  1  0  0  0
 62 61  1  0  0  0  0
 64 62  1  1  0  0  0
 65 68  1  6  0  0  0
 65 64  1  0  0  0  0
 66 65  1  0  0  0  0
 66 64  1  0  0  0  0
 67 68  1  0  0  0  0
M  END
>  <MODEL>
4

>  <REMARK>
 VINA RESULT:      -5.2      2.857      9.209
  Name = 
  23 active torsions:
  status: ('A' for Active; 'I' for Inactive)
    1  A    between atoms: N_3  and  C_9
    2  A    between atoms: N_3  and  C_58
    3  A    between atoms: C_8  and  C_10
    4  A    between atoms: C_8  and  C_57
    5  A    between atoms: C_9  and  C_57
    6  A    between atoms: C_11  and  C_54
    7  A    between atoms: C_13  and  N_38
    8  A    between atoms: C_14  and  C_30
    9  A    between atoms: C_14  and  C_43
   10  A    between atoms: C_15  and  C_52
   11  A    between atoms: C_15  and  C_56
   12  A    between atoms: C_18  and  C_47
   13  A    between atoms: C_22  and  C_24
   14  A    between atoms: C_22  and  C_30
   15  A    between atoms: C_24  and  N_38
   16  A    between atoms: O_26  and  C_31
   17  A    between atoms: O_26  and  C_62
   18  A    between atoms: C_31  and  C_61
   19  A    between atoms: N_32  and  C_60
   20  A    between atoms: C_35  and  C_58
   21  A    between atoms: C_35  and  N_65
   22  A    between atoms: C_40  and  C_64
   23  A    between atoms: C_53  and  C_56
                            x       y       z     vdW  Elec       q    Type
                         _______ _______ _______ _____ _____    ______ ____

>  <TORSDO>
F 23

$$$$
=
 OpenBabel11042417353D

 68 75  0  0  1  0  0  0  0  0999 V2000
  189.8930  172.4080  142.1940 O   0  0  0  0  0  0  0  0  0  0  0  0
  189.0460  174.5670  141.9490 N   0  0  0  0  0  0  0  0  0  0  0  0
  189.7370  173.4060  141.4390 C   0  0  0  0  0  0  0  0  0  0  0  0
  187.0730  178.6750  142.4660 C   0  0  0  0  0  3  0  0  0  0  0  0
  188.8570  175.7750  141.1390 C   0  0  2  0  0  3  0  0  0  0  0  0
  189.8170  177.4680  142.8310 O   0  0  0  0  0  1  0  0  0  0  0  0
  185.7560  179.0210  142.1240 C   0  0  0  0  0  3  0  0  0  0  0  0
  188.8010  176.9970  142.0070 C   0  0  0  0  0  0  0  0  0  0  0  0
  186.8930  176.8010  140.9720 C   0  0  0  0  0  0  0  0  0  0  0  0
  185.0420  178.2370  141.1950 C   0  0  0  0  0  0  0  0  0  0  0  0
  187.5280  175.7730  140.5110 N   0  0  0  0  0  0  0  0  0  0  0  0
  185.6200  177.1290  140.6380 N   0  0  0  0  0  0  0  0  0  0  0  0
  187.6160  177.5460  141.8600 C   0  0  0  0  0  0  0  0  0  0  0  0
  183.6310  178.5980  140.8710 C   0  0  0  0  0  2  0  0  0  0  0  0
  183.0060  179.0870  143.2320 C   0  0  0  0  0  1  0  0  0  0  0  0
  182.6870  178.2360  142.0140 C   0  0  1  0  0  3  0  0  0  0  0  0
  180.2720  177.5770  142.0420 N   0  0  0  0  0  0  0  0  0  0  0  0
  179.1600  178.1110  141.5050 C   0  0  0  0  0  0  0  0  0  0  0  0
  180.7190  179.4490  140.8730 C   0  0  0  0  0  3  0  0  0  0  0  0
  179.3970  179.2220  140.7810 N   0  0  0  0  0  0  0  0  0  0  0  0
  177.8560  177.5850  141.7490 N   0  0  0  0  0  1  0  0  0  0  0  0
  181.2470  178.4160  141.6330 C   0  0  0  0  0  0  0  0  0  0  0  0
  180.4770  181.5070  139.7890 O   0  0  0  0  0  1  0  0  0  0  0  0
  178.7190  180.2900  138.6540 C   0  0  0  0  0  2  0  0  0  0  0  0
  178.4240  180.1150  140.1490 C   0  0  2  0  0  3  0  0  0  0  0  0
  179.0950  181.3780  139.6240 C   0  0  1  0  0  0  0  0  0  0  0  0
  178.2620  182.6410  139.5170 C   0  0  0  0  0  2  0  0  0  0  0  0
  179.0860  183.7660  139.6820 O   0  0  0  0  0  0  0  0  0  0  0  0
  179.5400  183.5900  137.4330 F   0  0  0  0  0  0  0  0  0  0  0  0
  180.0130  185.5270  138.5220 F   0  0  0  0  0  0  0  0  0  0  0  0
  177.8830  184.9230  138.1500 F   0  0  0  0  0  0  0  0  0  0  0  0
  179.1440  184.4470  138.4500 C   0  0  0  0  0  0  0  0  0  0  0  0
  190.3000  172.7460  136.6650 C   0  0  0  0  0  3  0  0  0  0  0  0
  191.7860  173.5690  138.3890 C   0  0  0  0  0  0  0  0  0  0  0  0
  192.9030  173.7810  137.4720 C   0  0  0  0  0  3  0  0  0  0  0  0
  192.7110  173.4870  136.1760 C   0  0  0  0  0  3  0  0  0  0  0  0
  189.6330  172.9270  139.0300 N   0  0  0  0  0  0  0  0  0  0  0  0
  191.3900  172.9540  135.6270 C   0  0  0  0  0  3  0  0  0  0  0  0
  191.6750  173.7600  139.6910 C   0  0  1  0  0  3  0  0  0  0  0  0
  190.3020  173.3440  140.0660 C   0  0  0  0  0  0  0  0  0  0  0  0
  190.5310  173.0530  137.9380 C   0  0  0  0  0  0  0  0  0  0  0  0
  192.7580  174.2490  140.5950 C   0  0  0  0  0  2  0  0  0  0  0  0
  193.9050  173.4730  140.4160 O   0  0  0  0  0  1  0  0  0  0  0  0
  188.6920  174.6210  143.3670 C   0  0  0  0  0  2  0  0  0  0  0  0
  189.9260  174.4320  144.2340 C   0  0  0  0  0  2  0  0  0  0  0  0
  189.4990  174.2640  145.6800 C   0  0  0  0  0  2  0  0  0  0  0  0
  189.0160  175.5980  146.2270 C   0  0  0  0  0  2  0  0  0  0  0  0
  191.0940  175.3050  147.5480 C   0  0  1  0  0  3  0  0  0  0  0  0
  192.7650  174.2370  146.2110 O   0  0  0  0  0  1  0  0  0  0  0  0
  191.0130  177.0250  145.9400 C   0  0  0  0  0  0  0  0  0  0  0  0
  191.2340  175.5700  148.9100 O   0  0  0  0  0  1  0  0  0  0  0  0
  190.1500  176.3320  146.9210 C   0  0  1  0  0  3  0  0  0  0  0  0
  190.6410  178.0210  145.2630 O   0  0  0  0  0  0  0  0  0  0  0  0
  192.3230  176.5000  145.8770 N   0  0  0  0  0  0  0  0  0  0  0  0
  192.4580  175.4360  146.8580 C   0  0  1  0  0  3  0  0  0  0  0  0
  193.4540  177.2790  145.3950 C   0  0  0  0  0  2  0  0  0  0  0  0
  194.7320  176.4670  145.4660 C   0  0  0  0  0  2  0  0  0  0  0  0
  194.8430  175.6380  144.2800 N   0  0  0  0  0  2  0  0  0  0  0  0
  196.1370  174.9790  144.3520 C   0  0  0  0  0  2  0  0  0  0  0  0
  197.4480  174.3850  142.3560 C   0  0  0  0  0  1  0  0  0  0  0  0
  196.2660  173.9740  143.2170 C   0  0  1  0  0  3  0  0  0  0  0  0
  196.4570  172.5480  143.7450 C   0  0  1  0  0  3  0  0  0  0  0  0
  197.3520  172.5440  144.8210 O   0  0  0  0  0  1  0  0  0  0  0  0
  195.1280  171.9670  144.2130 C   0  0  2  0  0  3  0  0  0  0  0  0
  195.1130  170.4720  143.9500 C   0  0  2  0  0  3  0  0  0  0  0  0
  194.3590  171.4080  143.0310 C   0  0  0  0  0  2  0  0  0  0  0  0
  194.8470  169.4160  146.1120 N   0  0  0  0  0  1  0  0  0  0  0  0
  194.1410  169.8180  144.9100 C   0  0  0  0  0  2  0  0  0  0  0  0
  2 44  1  0  0  0  0
  3  2  1  0  0  0  0
  3  1  2  0  0  0  0
  5  2  1  1  0  0  0
  5  8  1  0  0  0  0
  7  4  2  0  0  0  0
  8  6  1  0  0  0  0
  9 13  1  0  0  0  0
 10  7  1  0  0  0  0
 11  9  2  0  0  0  0
 11  5  1  0  0  0  0
 12  9  1  0  0  0  0
 12 10  2  0  0  0  0
 13  8  2  0  0  0  0
 13  4  1  0  0  0  0
 14 10  1  0  0  0  0
 14 16  1  0  0  0  0
 16 15  1  1  0  0  0
 18 21  1  0  0  0  0
 18 17  2  0  0  0  0
 19 22  2  0  0  0  0
 20 19  1  0  0  0  0
 20 18  1  0  0  0  0
 22 16  1  0  0  0  0
 22 17  1  0  0  0  0
 24 26  1  0  0  0  0
 25 24  1  6  0  0  0
 25 20  1  0  0  0  0
 26 23  1  1  0  0  0
 26 25  1  0  0  0  0
 27 26  1  0  0  0  0
 27 28  1  0  0  0  0
 29 32  1  0  0  0  0
 31 32  1  0  0  0  0
 32 30  1  0  0  0  0
 32 28  1  0  0  0  0
 33 41  1  0  0  0  0
 34 39  1  0  0  0  0
 35 34  1  0  0  0  0
 36 35  2  0  0  0  0
 37 40  2  0  0  0  0
 38 36  1  0  0  0  0
 38 33  2  0  0  0  0
 39 40  1  0  0  0  0
 39 42  1  1  0  0  0
 40  3  1  0  0  0  0
 41 34  2  0  0  0  0
 41 37  1  0  0  0  0
 43 42  1  0  0  0  0
 44 45  1  0  0  0  0
 45 46  1  0  0  0  0
 46 47  1  0  0  0  0
 48 51  1  1  0  0  0
 50 52  1  0  0  0  0
 52 47  1  6  0  0  0
 52 48  1  0  0  0  0
 53 50  2  0  0  0  0
 54 50  1  0  0  0  0
 54 55  1  0  0  0  0
 55 49  1  6  0  0  0
 55 48  1  0  0  0  0
 56 57  1  0  0  0  0
 56 54  1  0  0  0  0
 58 59  1  0  0  0  0
 58 57  1  0  0  0  0
 61 60  1  6  0  0  0
 61 62  1  0  0  0  0
 61 59  1  0  0  0  0
 62 63  1  1  0  0  0
 64 62  1  6  0  0  0
 65 64  1  0  0  0  0
 65 68  1  1  0  0  0
 66 65  1  0  0  0  0
 66 64  1  0  0  0  0
 68 67  1  0  0  0  0
M  END
>  <MODEL>
5

>  <REMARK>
 VINA RESULT:      -4.8      5.931     12.324
  Name = 
  23 active torsions:
  status: ('A' for Active; 'I' for Inactive)
    1  A    between atoms: N_3  and  C_9
    2  A    between atoms: N_3  and  C_58
    3  A    between atoms: C_8  and  C_10
    4  A    between atoms: C_8  and  C_57
    5  A    between atoms: C_9  and  C_57
    6  A    between atoms: C_11  and  C_54
    7  A    between atoms: C_13  and  N_38
    8  A    between atoms: C_14  and  C_30
    9  A    between atoms: C_14  and  C_43
   10  A    between atoms: C_15  and  C_52
   11  A    between atoms: C_15  and  C_56
   12  A    between atoms: C_18  and  C_47
   13  A    between atoms: C_22  and  C_24
   14  A    between atoms: C_22  and  C_30
   15  A    between atoms: C_24  and  N_38
   16  A    between atoms: O_26  and  C_31
   17  A    between atoms: O_26  and  C_62
   18  A    between atoms: C_31  and  C_61
   19  A    between atoms: N_32  and  C_60
   20  A    between atoms: C_35  and  C_58
   21  A    between atoms: C_35  and  N_65
   22  A    between atoms: C_40  and  C_64
   23  A    between atoms: C_53  and  C_56
                            x       y       z     vdW  Elec       q    Type
                         _______ _______ _______ _____ _____    ______ ____

>  <TORSDO>
F 23

$$$$
=
 OpenBabel11042417353D

 68 75  0  0  1  0  0  0  0  0999 V2000
  190.1280  177.2140  142.6520 O   0  0  0  0  0  0  0  0  0  0  0  0
  189.6720  175.1120  141.7510 N   0  0  0  0  0  0  0  0  0  0  0  0
  189.2680  176.4410  142.1490 C   0  0  0  0  0  0  0  0  0  0  0  0
  189.8750  171.1030  139.5340 C   0  0  0  0  0  3  0  0  0  0  0  0
  188.7190  174.1480  141.1900 C   0  0  2  0  0  3  0  0  0  0  0  0
  189.6190  172.0500  142.3900 O   0  0  0  0  0  1  0  0  0  0  0  0
  189.8940  170.9150  138.1420 C   0  0  0  0  0  3  0  0  0  0  0  0
  189.2750  172.7560  141.2420 C   0  0  0  0  0  0  0  0  0  0  0  0
  188.9540  173.2910  139.1540 C   0  0  0  0  0  0  0  0  0  0  0  0
  189.4260  171.9350  137.2890 C   0  0  0  0  0  0  0  0  0  0  0  0
  188.5530  174.3670  139.7470 N   0  0  0  0  0  0  0  0  0  0  0  0
  188.9720  173.1160  137.8090 N   0  0  0  0  0  0  0  0  0  0  0  0
  189.3900  172.3170  140.0090 C   0  0  0  0  0  0  0  0  0  0  0  0
  189.4880  171.7330  135.8120 C   0  0  0  0  0  2  0  0  0  0  0  0
  190.7640  173.8590  135.5830 C   0  0  0  0  0  1  0  0  0  0  0  0
  190.7290  172.3870  135.2110 C   0  0  1  0  0  3  0  0  0  0  0  0
  192.3830  170.5070  135.2190 N   0  0  0  0  0  0  0  0  0  0  0  0
  193.5540  170.3060  135.8500 C   0  0  0  0  0  0  0  0  0  0  0  0
  192.9310  172.2440  136.5430 C   0  0  0  0  0  3  0  0  0  0  0  0
  193.9010  171.3200  136.6680 N   0  0  0  0  0  0  0  0  0  0  0  0
  194.3730  169.1630  135.6110 N   0  0  0  0  0  1  0  0  0  0  0  0
  191.9930  171.7200  135.6660 C   0  0  0  0  0  0  0  0  0  0  0  0
  194.7350  173.8970  136.8570 O   0  0  0  0  0  1  0  0  0  0  0  0
  194.9160  172.3240  138.6880 C   0  0  0  0  0  2  0  0  0  0  0  0
  195.1440  171.4900  137.4220 C   0  0  2  0  0  3  0  0  0  0  0  0
  195.5570  172.9550  137.4820 C   0  0  1  0  0  0  0  0  0  0  0  0
  197.0310  173.2780  137.6400 C   0  0  0  0  0  2  0  0  0  0  0  0
  197.2630  173.8180  138.9150 O   0  0  0  0  0  0  0  0  0  0  0  0
  195.8320  175.6160  139.0450 F   0  0  0  0  0  0  0  0  0  0  0  0
  197.5680  175.6700  137.5810 F   0  0  0  0  0  0  0  0  0  0  0  0
  197.9410  175.7940  139.7910 F   0  0  0  0  0  0  0  0  0  0  0  0
  197.1430  175.2190  138.8220 C   0  0  0  0  0  0  0  0  0  0  0  0
  185.0270  177.9870  140.3710 C   0  0  0  0  0  3  0  0  0  0  0  0
  185.8030  177.5750  142.6270 C   0  0  0  0  0  0  0  0  0  0  0  0
  184.5390  177.9690  143.2460 C   0  0  0  0  0  3  0  0  0  0  0  0
  183.5410  178.3550  142.4350 C   0  0  0  0  0  3  0  0  0  0  0  0
  187.3050  177.1980  140.8780 N   0  0  0  0  0  0  0  0  0  0  0  0
  183.6660  178.3920  140.9140 C   0  0  0  0  0  3  0  0  0  0  0  0
  186.9420  177.1600  143.1510 C   0  0  1  0  0  3  0  0  0  0  0  0
  187.8720  176.9310  142.0190 C   0  0  0  0  0  0  0  0  0  0  0  0
  185.9870  177.6080  141.2090 C   0  0  0  0  0  0  0  0  0  0  0  0
  187.2260  177.0130  144.6090 C   0  0  0  0  0  2  0  0  0  0  0  0
  188.0130  175.8790  144.8210 O   0  0  0  0  0  1  0  0  0  0  0  0
  191.0150  174.6430  142.0900 C   0  0  0  0  0  2  0  0  0  0  0  0
  191.1450  174.4270  143.5890 C   0  0  0  0  0  2  0  0  0  0  0  0
  192.5360  174.8380  144.0330 C   0  0  0  0  0  2  0  0  0  0  0  0
  193.4450  174.9540  142.8200 C   0  0  0  0  0  2  0  0  0  0  0  0
  194.9240  175.3240  144.7760 C   0  0  1  0  0  3  0  0  0  0  0  0
  195.0640  173.3240  146.0800 O   0  0  0  0  0  1  0  0  0  0  0  0
  195.7590  174.1000  142.9450 C   0  0  0  0  0  0  0  0  0  0  0  0
  195.4700  176.5480  145.1600 O   0  0  0  0  0  1  0  0  0  0  0  0
  194.8730  175.2430  143.2490 C   0  0  1  0  0  3  0  0  0  0  0  0
  196.0700  173.7490  141.7750 O   0  0  0  0  0  0  0  0  0  0  0  0
  196.2800  173.4720  144.0980 N   0  0  0  0  0  0  0  0  0  0  0  0
  195.8180  174.1830  145.2790 C   0  0  1  0  0  3  0  0  0  0  0  0
  197.5090  172.6910  144.0750 C   0  0  0  0  0  2  0  0  0  0  0  0
  197.4120  171.5710  143.0580 C   0  0  0  0  0  2  0  0  0  0  0  0
  197.5820  170.2950  143.7280 N   0  0  0  0  0  2  0  0  0  0  0  0
  197.1970  170.4990  145.1150 C   0  0  0  0  0  2  0  0  0  0  0  0
  196.8530  169.2120  147.1840 C   0  0  0  0  0  1  0  0  0  0  0  0
  196.6190  169.2120  145.6830 C   0  0  1  0  0  3  0  0  0  0  0  0
  195.1240  169.0790  145.3730 C   0  0  1  0  0  3  0  0  0  0  0  0
  194.4150  170.1470  145.9350 O   0  0  0  0  0  1  0  0  0  0  0  0
  194.8860  169.0740  143.8680 C   0  0  2  0  0  3  0  0  0  0  0  0
  193.7680  170.0440  143.5320 C   0  0  2  0  0  3  0  0  0  0  0  0
  193.4940  168.5560  143.5620 C   0  0  0  0  0  2  0  0  0  0  0  0
  192.9500  171.5230  141.8000 N   0  0  0  0  0  1  0  0  0  0  0  0
  193.9310  170.4960  142.0960 C   0  0  0  0  0  2  0  0  0  0  0  0
  2 44  1  0  0  0  0
  2  3  1  0  0  0  0
  3  1  2  0  0  0  0
  4 13  1  0  0  0  0
  5  8  1  0  0  0  0
  5  2  1  6  0  0  0
  7  4  2  0  0  0  0
  8  6  1  0  0  0  0
  9 11  2  0  0  0  0
  9 13  1  0  0  0  0
 10 12  2  0  0  0  0
 10  7  1  0  0  0  0
 11  5  1  0  0  0  0
 12  9  1  0  0  0  0
 13  8  2  0  0  0  0
 14 10  1  0  0  0  0
 16 15  1  1  0  0  0
 16 22  1  0  0  0  0
 16 14  1  0  0  0  0
 17 22  1  0  0  0  0
 17 18  2  0  0  0  0
 18 20  1  0  0  0  0
 19 20  1  0  0  0  0
 21 18  1  0  0  0  0
 22 19  2  0  0  0  0
 25 20  1  6  0  0  0
 25 26  1  0  0  0  0
 25 24  1  0  0  0  0
 26 23  1  6  0  0  0
 26 27  1  0  0  0  0
 26 24  1  0  0  0  0
 27 28  1  0  0  0  0
 30 32  1  0  0  0  0
 32 28  1  0  0  0  0
 32 29  1  0  0  0  0
 32 31  1  0  0  0  0
 33 38  2  0  0  0  0
 33 41  1  0  0  0  0
 34 39  1  0  0  0  0
 34 35  1  0  0  0  0
 36 35  2  0  0  0  0
 37 41  1  0  0  0  0
 37 40  2  0  0  0  0
 38 36  1  0  0  0  0
 39 42  1  1  0  0  0
 40  3  1  0  0  0  0
 40 39  1  0  0  0  0
 41 34  2  0  0  0  0
 42 43  1  0  0  0  0
 44 45  1  0  0  0  0
 45 46  1  0  0  0  0
 47 46  1  0  0  0  0
 48 51  1  6  0  0  0
 48 55  1  0  0  0  0
 50 52  1  0  0  0  0
 50 54  1  0  0  0  0
 52 47  1  1  0  0  0
 52 48  1  0  0  0  0
 53 50  2  0  0  0  0
 54 55  1  0  0  0  0
 55 49  1  1  0  0  0
 56 54  1  0  0  0  0
 57 58  1  0  0  0  0
 57 56  1  0  0  0  0
 58 59  1  0  0  0  0
 59 61  1  0  0  0  0
 61 60  1  1  0  0  0
 62 61  1  0  0  0  0
 62 63  1  1  0  0  0
 64 62  1  1  0  0  0
 65 68  1  6  0  0  0
 65 66  1  0  0  0  0
 65 64  1  0  0  0  0
 66 64  1  0  0  0  0
 67 68  1  0  0  0  0
M  END
>  <MODEL>
6

>  <REMARK>
 VINA RESULT:      -4.8      3.043      8.221
  Name = 
  23 active torsions:
  status: ('A' for Active; 'I' for Inactive)
    1  A    between atoms: N_3  and  C_9
    2  A    between atoms: N_3  and  C_58
    3  A    between atoms: C_8  and  C_10
    4  A    between atoms: C_8  and  C_57
    5  A    between atoms: C_9  and  C_57
    6  A    between atoms: C_11  and  C_54
    7  A    between atoms: C_13  and  N_38
    8  A    between atoms: C_14  and  C_30
    9  A    between atoms: C_14  and  C_43
   10  A    between atoms: C_15  and  C_52
   11  A    between atoms: C_15  and  C_56
   12  A    between atoms: C_18  and  C_47
   13  A    between atoms: C_22  and  C_24
   14  A    between atoms: C_22  and  C_30
   15  A    between atoms: C_24  and  N_38
   16  A    between atoms: O_26  and  C_31
   17  A    between atoms: O_26  and  C_62
   18  A    between atoms: C_31  and  C_61
   19  A    between atoms: N_32  and  C_60
   20  A    between atoms: C_35  and  C_58
   21  A    between atoms: C_35  and  N_65
   22  A    between atoms: C_40  and  C_64
   23  A    between atoms: C_53  and  C_56
                            x       y       z     vdW  Elec       q    Type
                         _______ _______ _______ _____ _____    ______ ____

>  <TORSDO>
F 23

$$$$
=
 OpenBabel11042417353D

 68 75  0  0  1  0  0  0  0  0999 V2000
  190.2630  170.9400  142.3900 O   0  0  0  0  0  0  0  0  0  0  0  0
  189.6030  173.1410  141.9930 N   0  0  0  0  0  0  0  0  0  0  0  0
  190.2920  171.9300  141.6100 C   0  0  0  0  0  0  0  0  0  0  0  0
  188.6930  177.6060  142.5050 C   0  0  0  0  0  3  0  0  0  0  0  0
  189.6210  174.3420  141.1510 C   0  0  2  0  0  3  0  0  0  0  0  0
  191.1060  175.7990  142.6750 O   0  0  0  0  0  1  0  0  0  0  0  0
  187.4650  178.2440  142.2670 C   0  0  0  0  0  3  0  0  0  0  0  0
  189.9330  175.5610  141.9670 C   0  0  0  0  0  0  0  0  0  0  0  0
  187.9410  175.7950  141.1150 C   0  0  0  0  0  0  0  0  0  0  0  0
  186.5020  177.6290  141.4400 C   0  0  0  0  0  0  0  0  0  0  0  0
  188.2740  174.6380  140.6450 N   0  0  0  0  0  0  0  0  0  0  0  0
  186.7520  176.4050  140.8830 N   0  0  0  0  0  0  0  0  0  0  0  0
  188.8990  176.3700  141.9020 C   0  0  0  0  0  0  0  0  0  0  0  0
  185.1880  178.3040  141.2280 C   0  0  0  0  0  2  0  0  0  0  0  0
  184.8650  179.3410  143.4690 C   0  0  0  0  0  1  0  0  0  0  0  0
  184.3450  178.2930  142.5000 C   0  0  1  0  0  3  0  0  0  0  0  0
  181.9980  178.8360  143.1820 N   0  0  0  0  0  0  0  0  0  0  0  0
  180.8500  179.0030  142.4990 C   0  0  0  0  0  0  0  0  0  0  0  0
  182.2890  178.5520  140.9670 C   0  0  0  0  0  3  0  0  0  0  0  0
  180.9870  178.8190  141.1720 N   0  0  0  0  0  0  0  0  0  0  0  0
  179.6340  179.4090  143.1240 N   0  0  0  0  0  1  0  0  0  0  0  0
  182.8930  178.5420  142.2150 C   0  0  0  0  0  0  0  0  0  0  0  0
  179.0880  176.8820  141.0680 O   0  0  0  0  0  1  0  0  0  0  0  0
  178.5890  179.2260  140.7190 C   0  0  0  0  0  2  0  0  0  0  0  0
  179.9870  179.0220  140.1220 C   0  0  2  0  0  3  0  0  0  0  0  0
  178.9590  177.8980  140.1150 C   0  0  1  0  0  0  0  0  0  0  0  0
  178.2590  177.5750  138.8090 C   0  0  0  0  0  2  0  0  0  0  0  0
  179.1310  176.8670  137.9660 O   0  0  0  0  0  0  0  0  0  0  0  0
  177.8050  175.7040  136.4880 F   0  0  0  0  0  0  0  0  0  0  0  0
  177.7120  175.2090  138.7030 F   0  0  0  0  0  0  0  0  0  0  0  0
  179.5320  174.6870  137.4970 F   0  0  0  0  0  0  0  0  0  0  0  0
  178.5350  175.6270  137.6660 C   0  0  0  0  0  0  0  0  0  0  0  0
  193.8540  171.3440  138.3690 C   0  0  0  0  0  3  0  0  0  0  0  0
  191.4720  171.7010  138.1340 C   0  0  0  0  0  0  0  0  0  0  0  0
  191.5060  171.6840  136.6740 C   0  0  0  0  0  3  0  0  0  0  0  0
  192.6950  171.4920  136.0800 C   0  0  0  0  0  3  0  0  0  0  0  0
  192.3460  171.6110  140.2980 N   0  0  0  0  0  0  0  0  0  0  0  0
  193.9940  171.2850  136.8560 C   0  0  0  0  0  3  0  0  0  0  0  0
  190.4740  171.8680  138.9830 C   0  0  1  0  0  3  0  0  0  0  0  0
  191.0600  171.8070  140.3440 C   0  0  0  0  0  0  0  0  0  0  0  0
  192.6570  171.5340  138.9150 C   0  0  0  0  0  0  0  0  0  0  0  0
  189.0500  172.1220  138.6150 C   0  0  0  0  0  2  0  0  0  0  0  0
  188.4500  170.9280  138.2100 O   0  0  0  0  0  1  0  0  0  0  0  0
  189.0350  173.2440  143.3370 C   0  0  0  0  0  2  0  0  0  0  0  0
  190.1340  173.4310  144.3690 C   0  0  0  0  0  2  0  0  0  0  0  0
  189.5100  173.8140  145.6980 C   0  0  0  0  0  2  0  0  0  0  0  0
  189.1980  175.3020  145.7040 C   0  0  0  0  0  2  0  0  0  0  0  0
  191.2140  175.0590  147.1270 C   0  0  1  0  0  3  0  0  0  0  0  0
  193.0290  174.1990  145.8290 O   0  0  0  0  0  1  0  0  0  0  0  0
  191.1010  176.8750  145.6320 C   0  0  0  0  0  0  0  0  0  0  0  0
  191.2580  175.2390  148.5100 O   0  0  0  0  0  1  0  0  0  0  0  0
  190.2370  176.0610  146.5120 C   0  0  1  0  0  3  0  0  0  0  0  0
  190.6980  177.8880  144.9990 O   0  0  0  0  0  0  0  0  0  0  0  0
  192.4470  176.4440  145.6150 N   0  0  0  0  0  0  0  0  0  0  0  0
  192.6020  175.3270  146.5320 C   0  0  1  0  0  3  0  0  0  0  0  0
  193.5460  177.3290  145.2530 C   0  0  0  0  0  2  0  0  0  0  0  0
  194.8790  176.6400  145.4680 C   0  0  0  0  0  2  0  0  0  0  0  0
  195.8950  177.2950  144.6640 N   0  0  0  0  0  2  0  0  0  0  0  0
  196.3890  176.3010  143.7260 C   0  0  0  0  0  2  0  0  0  0  0  0
  195.3570  176.8310  141.5550 C   0  0  0  0  0  1  0  0  0  0  0  0
  195.2810  175.9090  142.7600 C   0  0  1  0  0  3  0  0  0  0  0  0
  195.4030  174.4450  142.3240 C   0  0  1  0  0  3  0  0  0  0  0  0
  195.7590  174.3700  140.9720 O   0  0  0  0  0  1  0  0  0  0  0  0
  196.4650  173.7270  143.1480 C   0  0  2  0  0  3  0  0  0  0  0  0
  196.2350  172.2280  143.0680 C   0  0  2  0  0  3  0  0  0  0  0  0
  195.8170  172.9920  144.3060 C   0  0  0  0  0  2  0  0  0  0  0  0
  197.6100  171.1310  144.7310 N   0  0  0  0  0  1  0  0  0  0  0  0
  197.5460  171.5190  143.3340 C   0  0  0  0  0  2  0  0  0  0  0  0
  2 44  1  0  0  0  0
  3  2  1  0  0  0  0
  3  1  2  0  0  0  0
  5  8  1  0  0  0  0
  5  2  1  1  0  0  0
  7  4  2  0  0  0  0
  8  6  1  0  0  0  0
  9 13  1  0  0  0  0
 10  7  1  0  0  0  0
 11  9  2  0  0  0  0
 11  5  1  0  0  0  0
 12  9  1  0  0  0  0
 12 10  2  0  0  0  0
 13  8  2  0  0  0  0
 13  4  1  0  0  0  0
 14 10  1  0  0  0  0
 14 16  1  0  0  0  0
 16 15  1  1  0  0  0
 18 21  1  0  0  0  0
 18 17  2  0  0  0  0
 19 20  1  0  0  0  0
 19 22  2  0  0  0  0
 20 18  1  0  0  0  0
 22 16  1  0  0  0  0
 22 17  1  0  0  0  0
 25 24  1  1  0  0  0
 25 20  1  0  0  0  0
 26 25  1  0  0  0  0
 26 24  1  0  0  0  0
 26 23  1  1  0  0  0
 27 26  1  0  0  0  0
 28 27  1  0  0  0  0
 29 32  1  0  0  0  0
 31 32  1  0  0  0  0
 32 28  1  0  0  0  0
 32 30  1  0  0  0  0
 33 41  1  0  0  0  0
 34 41  2  0  0  0  0
 34 39  1  0  0  0  0
 35 34  1  0  0  0  0
 36 35  2  0  0  0  0
 36 38  1  0  0  0  0
 37 40  2  0  0  0  0
 38 33  2  0  0  0  0
 39 42  1  6  0  0  0
 39 40  1  0  0  0  0
 40  3  1  0  0  0  0
 41 37  1  0  0  0  0
 43 42  1  0  0  0  0
 44 45  1  0  0  0  0
 45 46  1  0  0  0  0
 46 47  1  0  0  0  0
 48 51  1  1  0  0  0
 50 52  1  0  0  0  0
 52 47  1  6  0  0  0
 52 48  1  0  0  0  0
 53 50  2  0  0  0  0
 54 50  1  0  0  0  0
 54 55  1  0  0  0  0
 55 49  1  6  0  0  0
 55 48  1  0  0  0  0
 56 57  1  0  0  0  0
 56 54  1  0  0  0  0
 58 57  1  0  0  0  0
 59 58  1  0  0  0  0
 61 60  1  6  0  0  0
 61 59  1  0  0  0  0
 62 63  1  6  0  0  0
 62 61  1  0  0  0  0
 64 62  1  6  0  0  0
 64 66  1  0  0  0  0
 65 64  1  0  0  0  0
 65 68  1  1  0  0  0
 65 66  1  0  0  0  0
 68 67  1  0  0  0  0
M  END
>  <MODEL>
7

>  <REMARK>
 VINA RESULT:      -4.7      4.932     11.160
  Name = 
  23 active torsions:
  status: ('A' for Active; 'I' for Inactive)
    1  A    between atoms: N_3  and  C_9
    2  A    between atoms: N_3  and  C_58
    3  A    between atoms: C_8  and  C_10
    4  A    between atoms: C_8  and  C_57
    5  A    between atoms: C_9  and  C_57
    6  A    between atoms: C_11  and  C_54
    7  A    between atoms: C_13  and  N_38
    8  A    between atoms: C_14  and  C_30
    9  A    between atoms: C_14  and  C_43
   10  A    between atoms: C_15  and  C_52
   11  A    between atoms: C_15  and  C_56
   12  A    between atoms: C_18  and  C_47
   13  A    between atoms: C_22  and  C_24
   14  A    between atoms: C_22  and  C_30
   15  A    between atoms: C_24  and  N_38
   16  A    between atoms: O_26  and  C_31
   17  A    between atoms: O_26  and  C_62
   18  A    between atoms: C_31  and  C_61
   19  A    between atoms: N_32  and  C_60
   20  A    between atoms: C_35  and  C_58
   21  A    between atoms: C_35  and  N_65
   22  A    between atoms: C_40  and  C_64
   23  A    between atoms: C_53  and  C_56
                            x       y       z     vdW  Elec       q    Type
                         _______ _______ _______ _____ _____    ______ ____

>  <TORSDO>
F 23

$$$$
=
 OpenBabel11042417353D

 68 75  0  0  1  0  0  0  0  0999 V2000
  189.9670  171.6460  143.6350 O   0  0  0  0  0  0  0  0  0  0  0  0
  189.9460  172.7840  141.5990 N   0  0  0  0  0  0  0  0  0  0  0  0
  190.6180  172.0130  142.6190 C   0  0  0  0  0  0  0  0  0  0  0  0
  190.9720  171.1870  137.4240 C   0  0  0  0  0  3  0  0  0  0  0  0
  190.6490  173.2720  140.4070 C   0  0  2  0  0  3  0  0  0  0  0  0
  188.7710  172.8140  138.7000 O   0  0  0  0  0  1  0  0  0  0  0  0
  192.1470  170.5150  137.0500 C   0  0  0  0  0  3  0  0  0  0  0  0
  190.0740  172.6640  139.1630 C   0  0  0  0  0  0  0  0  0  0  0  0
  192.1570  172.0470  139.3300 C   0  0  0  0  0  0  0  0  0  0  0  0
  193.3100  170.6410  137.8360 C   0  0  0  0  0  0  0  0  0  0  0  0
  192.0330  172.7810  140.3870 N   0  0  0  0  0  0  0  0  0  0  0  0
  193.2940  171.3990  138.9740 N   0  0  0  0  0  0  0  0  0  0  0  0
  191.0170  171.9550  138.5830 C   0  0  0  0  0  0  0  0  0  0  0  0
  194.5380  169.8900  137.4430 C   0  0  0  0  0  2  0  0  0  0  0  0
  194.3980  170.2070  134.9770 C   0  0  0  0  0  1  0  0  0  0  0  0
  195.2090  170.5180  136.2240 C   0  0  1  0  0  3  0  0  0  0  0  0
  194.8290  172.8840  135.5000 N   0  0  0  0  0  0  0  0  0  0  0  0
  195.1840  174.0770  136.0100 C   0  0  0  0  0  0  0  0  0  0  0  0
  196.0200  172.6640  137.3980 C   0  0  0  0  0  3  0  0  0  0  0  0
  195.9170  173.9790  137.1360 N   0  0  0  0  0  0  0  0  0  0  0  0
  194.7560  175.3150  135.4450 N   0  0  0  0  0  1  0  0  0  0  0  0
  195.3660  172.0020  136.3700 C   0  0  0  0  0  0  0  0  0  0  0  0
  197.8800  173.2380  138.8580 O   0  0  0  0  0  1  0  0  0  0  0  0
  197.8540  175.3900  137.7500 C   0  0  0  0  0  2  0  0  0  0  0  0
  196.3800  175.0580  138.0110 C   0  0  2  0  0  3  0  0  0  0  0  0
  197.4730  174.5720  138.9540 C   0  0  1  0  0  0  0  0  0  0  0  0
  197.6400  175.2820  140.2840 C   0  0  0  0  0  2  0  0  0  0  0  0
  196.6570  176.2770  140.4160 O   0  0  0  0  0  0  0  0  0  0  0  0
  194.6630  175.2650  140.9620 F   0  0  0  0  0  0  0  0  0  0  0  0
  195.4200  177.0000  142.2200 F   0  0  0  0  0  0  0  0  0  0  0  0
  196.4590  175.0110  142.2850 F   0  0  0  0  0  0  0  0  0  0  0  0
  195.7930  175.8980  141.4630 C   0  0  0  0  0  0  0  0  0  0  0  0
  195.4660  172.1930  142.6720 C   0  0  0  0  0  3  0  0  0  0  0  0
  193.9010  170.3850  142.3010 C   0  0  0  0  0  0  0  0  0  0  0  0
  194.9440  169.3830  142.0930 C   0  0  0  0  0  3  0  0  0  0  0  0
  196.2220  169.7860  142.1820 C   0  0  0  0  0  3  0  0  0  0  0  0
  193.0240  172.5100  142.7170 N   0  0  0  0  0  0  0  0  0  0  0  0
  196.6250  171.2240  142.4950 C   0  0  0  0  0  3  0  0  0  0  0  0
  192.5830  170.2940  142.2750 C   0  0  0  0  0  0  0  0  0  0  0  0
  192.0580  171.6550  142.5400 C   0  0  0  0  0  0  0  0  0  0  0  0
  194.2160  171.7520  142.5780 C   0  0  2  0  0  3  0  0  0  0  0  0
  191.8020  169.0570  141.9770 C   0  0  0  0  0  2  0  0  0  0  0  0
  190.7570  169.3620  141.1010 O   0  0  0  0  0  1  0  0  0  0  0  0
  188.5840  173.2570  141.8440 C   0  0  0  0  0  2  0  0  0  0  0  0
  188.4610  174.7330  141.5070 C   0  0  0  0  0  2  0  0  0  0  0  0
  187.2430  175.3050  142.2080 C   0  0  0  0  0  2  0  0  0  0  0  0
  186.7940  176.5720  141.4980 C   0  0  0  0  0  2  0  0  0  0  0  0
  185.5070  177.4750  143.4150 C   0  0  1  0  0  3  0  0  0  0  0  0
  185.7590  176.0410  145.3120 O   0  0  0  0  0  1  0  0  0  0  0  0
  187.8470  177.7440  143.4000 C   0  0  0  0  0  0  0  0  0  0  0  0
  184.6350  178.5620  143.3680 O   0  0  0  0  0  1  0  0  0  0  0  0
  186.6910  177.7260  142.4800 C   0  0  1  0  0  3  0  0  0  0  0  0
  189.0230  178.0180  143.0390 O   0  0  0  0  0  0  0  0  0  0  0  0
  187.4970  177.4850  144.7440 N   0  0  0  0  0  0  0  0  0  0  0  0
  186.0560  177.3210  144.8390 C   0  0  1  0  0  3  0  0  0  0  0  0
  188.3190  177.9230  145.8640 C   0  0  0  0  0  2  0  0  0  0  0  0
  188.6870  176.7490  146.7490 C   0  0  0  0  0  2  0  0  0  0  0  0
  190.0850  176.8490  147.1260 N   0  0  0  0  0  2  0  0  0  0  0  0
  190.7750  177.4630  146.0040 C   0  0  0  0  0  2  0  0  0  0  0  0
  192.0530  177.0640  143.9380 C   0  0  0  0  0  1  0  0  0  0  0  0
  191.3550  176.3830  145.1030 C   0  0  1  0  0  3  0  0  0  0  0  0
  192.3350  175.4810  145.8620 C   0  0  1  0  0  3  0  0  0  0  0  0
  191.9560  174.1390  145.7350 O   0  0  0  0  0  1  0  0  0  0  0  0
  193.7480  175.6430  145.3140 C   0  0  2  0  0  3  0  0  0  0  0  0
  194.7160  174.8550  146.1780 C   0  0  2  0  0  3  0  0  0  0  0  0
  194.6210  176.3580  146.3270 C   0  0  0  0  0  2  0  0  0  0  0  0
  196.8800  173.7720  146.1700 N   0  0  0  0  0  1  0  0  0  0  0  0
  195.9360  174.5080  145.3510 C   0  0  0  0  0  2  0  0  0  0  0  0
  2 44  1  0  0  0  0
  2  3  1  0  0  0  0
  3  1  2  0  0  0  0
  4 13  1  0  0  0  0
  5  2  1  1  0  0  0
  6  8  1  0  0  0  0
  7  4  2  0  0  0  0
  7 10  1  0  0  0  0
  8  5  1  0  0  0  0
  9 11  2  0  0  0  0
 10 12  2  0  0  0  0
 11  5  1  0  0  0  0
 12  9  1  0  0  0  0
 13  8  2  0  0  0  0
 13  9  1  0  0  0  0
 14 10  1  0  0  0  0
 16 15  1  6  0  0  0
 16 22  1  0  0  0  0
 16 14  1  0  0  0  0
 17 18  2  0  0  0  0
 17 22  1  0  0  0  0
 18 20  1  0  0  0  0
 20 19  1  0  0  0  0
 21 18  1  0  0  0  0
 22 19  2  0  0  0  0
 24 25  1  0  0  0  0
 24 26  1  0  0  0  0
 25 20  1  6  0  0  0
 25 26  1  0  0  0  0
 26 23  1  6  0  0  0
 26 27  1  0  0  0  0
 27 28  1  0  0  0  0
 28 32  1  0  0  0  0
 29 32  1  0  0  0  0
 32 30  1  0  0  0  0
 32 31  1  0  0  0  0
 34 41  1  0  0  0  0
 35 36  2  0  0  0  0
 35 34  1  0  0  0  0
 36 38  1  0  0  0  0
 38 33  2  0  0  0  0
 39 34  2  0  0  0  0
 39 40  1  0  0  0  0
 40  3  1  0  0  0  0
 40 37  2  0  0  0  0
 41 33  1  6  0  0  0
 41 37  1  0  0  0  0
 42 39  1  0  0  0  0
 43 42  1  0  0  0  0
 45 44  1  0  0  0  0
 45 46  1  0  0  0  0
 47 46  1  0  0  0  0
 48 51  1  1  0  0  0
 48 55  1  0  0  0  0
 50 54  1  0  0  0  0
 52 47  1  6  0  0  0
 52 50  1  0  0  0  0
 52 48  1  0  0  0  0
 53 50  2  0  0  0  0
 54 55  1  0  0  0  0
 54 56  1  0  0  0  0
 55 49  1  6  0  0  0
 56 57  1  0  0  0  0
 57 58  1  0  0  0  0
 59 58  1  0  0  0  0
 61 60  1  6  0  0  0
 61 62  1  0  0  0  0
 61 59  1  0  0  0  0
 62 63  1  6  0  0  0
 64 62  1  1  0  0  0
 64 65  1  0  0  0  0
 64 66  1  0  0  0  0
 65 68  1  6  0  0  0
 65 66  1  0  0  0  0
 68 67  1  0  0  0  0
M  END
>  <MODEL>
8

>  <REMARK>
 VINA RESULT:      -4.6      2.833      9.134
  Name = 
  23 active torsions:
  status: ('A' for Active; 'I' for Inactive)
    1  A    between atoms: N_3  and  C_9
    2  A    between atoms: N_3  and  C_58
    3  A    between atoms: C_8  and  C_10
    4  A    between atoms: C_8  and  C_57
    5  A    between atoms: C_9  and  C_57
    6  A    between atoms: C_11  and  C_54
    7  A    between atoms: C_13  and  N_38
    8  A    between atoms: C_14  and  C_30
    9  A    between atoms: C_14  and  C_43
   10  A    between atoms: C_15  and  C_52
   11  A    between atoms: C_15  and  C_56
   12  A    between atoms: C_18  and  C_47
   13  A    between atoms: C_22  and  C_24
   14  A    between atoms: C_22  and  C_30
   15  A    between atoms: C_24  and  N_38
   16  A    between atoms: O_26  and  C_31
   17  A    between atoms: O_26  and  C_62
   18  A    between atoms: C_31  and  C_61
   19  A    between atoms: N_32  and  C_60
   20  A    between atoms: C_35  and  C_58
   21  A    between atoms: C_35  and  N_65
   22  A    between atoms: C_40  and  C_64
   23  A    between atoms: C_53  and  C_56
                            x       y       z     vdW  Elec       q    Type
                         _______ _______ _______ _____ _____    ______ ____

>  <TORSDO>
F 23

$$$$
=
 OpenBabel11042417353D

 68 75  0  0  1  0  0  0  0  0999 V2000
  189.9920  172.6330  139.5410 O   0  0  0  0  0  0  0  0  0  0  0  0
  191.6200  171.7840  140.9800 N   0  0  0  0  0  0  0  0  0  0  0  0
  191.0710  171.9920  139.6590 C   0  0  0  0  0  0  0  0  0  0  0  0
  194.6120  171.1440  144.3960 C   0  0  0  0  0  3  0  0  0  0  0  0
  192.8530  171.0200  141.1950 C   0  0  2  0  0  3  0  0  0  0  0  0
  192.1210  169.7980  143.3450 O   0  0  0  0  0  1  0  0  0  0  0  0
  195.7880  171.8740  144.6270 C   0  0  0  0  0  3  0  0  0  0  0  0
  192.9890  170.6200  142.6340 C   0  0  0  0  0  0  0  0  0  0  0  0
  194.6620  171.9180  142.1210 C   0  0  0  0  0  0  0  0  0  0  0  0
  196.3780  172.6070  143.5770 C   0  0  0  0  0  0  0  0  0  0  0  0
  194.0310  171.8750  140.9930 N   0  0  0  0  0  0  0  0  0  0  0  0
  195.7980  172.6270  142.3380 N   0  0  0  0  0  0  0  0  0  0  0  0
  194.0730  171.1880  143.1140 C   0  0  0  0  0  0  0  0  0  0  0  0
  197.6080  173.4070  143.8490 C   0  0  0  0  0  2  0  0  0  0  0  0
  197.7590  174.6590  141.7020 C   0  0  0  0  0  1  0  0  0  0  0  0
  197.5320  174.7860  143.1990 C   0  0  1  0  0  3  0  0  0  0  0  0
  195.2540  175.5690  142.5160 N   0  0  0  0  0  0  0  0  0  0  0  0
  194.2590  176.2020  143.1640 C   0  0  0  0  0  0  0  0  0  0  0  0
  195.7920  176.0050  144.6580 C   0  0  0  0  0  3  0  0  0  0  0  0
  194.5590  176.4960  144.4440 N   0  0  0  0  0  0  0  0  0  0  0  0
  192.9910  176.4610  142.5640 N   0  0  0  0  0  1  0  0  0  0  0  0
  196.2160  175.4580  143.4560 C   0  0  0  0  0  0  0  0  0  0  0  0
  193.5260  174.6820  146.1800 O   0  0  0  0  0  1  0  0  0  0  0  0
  194.2690  176.8800  146.8710 C   0  0  0  0  0  2  0  0  0  0  0  0
  193.6880  177.0790  145.4660 C   0  0  2  0  0  3  0  0  0  0  0  0
  193.1380  176.0080  146.3990 C   0  0  1  0  0  0  0  0  0  0  0  0
  191.8080  176.2650  147.0810 C   0  0  0  0  0  2  0  0  0  0  0  0
  190.7660  176.1500  146.1460 O   0  0  0  0  0  0  0  0  0  0  0  0
  190.1150  174.8730  147.9480 F   0  0  0  0  0  0  0  0  0  0  0  0
  189.1570  174.5170  145.9180 F   0  0  0  0  0  0  0  0  0  0  0  0
  188.7120  176.3910  147.0720 F   0  0  0  0  0  0  0  0  0  0  0  0
  189.6980  175.4730  146.7680 C   0  0  0  0  0  0  0  0  0  0  0  0
  193.9040  171.4120  135.7630 C   0  0  0  0  0  3  0  0  0  0  0  0
  192.1620  170.0420  136.7380 C   0  0  0  0  0  0  0  0  0  0  0  0
  192.2720  168.9960  135.7250 C   0  0  0  0  0  3  0  0  0  0  0  0
  193.1890  169.1570  134.7580 C   0  0  0  0  0  3  0  0  0  0  0  0
  192.6610  172.0700  137.7860 N   0  0  0  0  0  0  0  0  0  0  0  0
  194.1140  170.3690  134.6770 C   0  0  0  0  0  3  0  0  0  0  0  0
  191.3690  170.1640  137.7870 C   0  0  1  0  0  3  0  0  0  0  0  0
  191.7090  171.4570  138.4290 C   0  0  0  0  0  0  0  0  0  0  0  0
  192.9860  171.2100  136.7040 C   0  0  0  0  0  0  0  0  0  0  0  0
  190.3080  169.1960  138.1930 C   0  0  0  0  0  2  0  0  0  0  0  0
  190.5270  168.7860  139.5100 O   0  0  0  0  0  1  0  0  0  0  0  0
  190.8320  172.1740  142.1490 C   0  0  0  0  0  2  0  0  0  0  0  0
  190.0090  173.4160  141.8490 C   0  0  0  0  0  2  0  0  0  0  0  0
  190.1480  174.3960  142.9990 C   0  0  0  0  0  2  0  0  0  0  0  0
  189.9340  175.8120  142.4890 C   0  0  0  0  0  2  0  0  0  0  0  0
  187.5480  175.3360  142.9680 C   0  0  1  0  0  3  0  0  0  0  0  0
  186.8580  176.5230  144.9260 O   0  0  0  0  0  1  0  0  0  0  0  0
  188.1120  177.4080  142.0010 C   0  0  0  0  0  0  0  0  0  0  0  0
  186.7580  174.3990  142.3030 O   0  0  0  0  0  1  0  0  0  0  0  0
  188.5140  175.9860  141.9770 C   0  0  1  0  0  3  0  0  0  0  0  0
  188.6060  178.2870  141.2440 O   0  0  0  0  0  0  0  0  0  0  0  0
  187.0710  177.6810  142.9160 N   0  0  0  0  0  0  0  0  0  0  0  0
  186.6540  176.4400  143.5470 C   0  0  1  0  0  3  0  0  0  0  0  0
  186.1910  178.8330  142.7770 C   0  0  0  0  0  2  0  0  0  0  0  0
  185.4240  179.0770  144.0620 C   0  0  0  0  0  2  0  0  0  0  0  0
  184.1260  178.4340  143.9780 N   0  0  0  0  0  2  0  0  0  0  0  0
  183.6610  178.6110  142.6120 C   0  0  0  0  0  2  0  0  0  0  0  0
  181.6340  179.6840  143.5050 C   0  0  0  0  0  1  0  0  0  0  0  0
  182.1400  178.5910  142.5790 C   0  0  1  0  0  3  0  0  0  0  0  0
  181.6030  178.8000  141.1580 C   0  0  1  0  0  3  0  0  0  0  0  0
  182.5940  178.4990  140.2170 O   0  0  0  0  0  1  0  0  0  0  0  0
  180.3980  177.9030  140.9030 C   0  0  2  0  0  3  0  0  0  0  0  0
  179.2420  178.7460  140.3980 C   0  0  2  0  0  3  0  0  0  0  0  0
  179.2630  178.2770  141.8370 C   0  0  0  0  0  2  0  0  0  0  0  0
  178.0900  178.4550  138.2890 N   0  0  0  0  0  1  0  0  0  0  0  0
  178.3090  177.8630  139.5960 C   0  0  0  0  0  2  0  0  0  0  0  0
  1  3  2  0  0  0  0
  2 44  1  0  0  0  0
  3  2  1  0  0  0  0
  4  7  2  0  0  0  0
  5  2  1  1  0  0  0
  5  8  1  0  0  0  0
  8 13  2  0  0  0  0
  8  6  1  0  0  0  0
  9 12  1  0  0  0  0
  9 13  1  0  0  0  0
 10 14  1  0  0  0  0
 10  7  1  0  0  0  0
 11  5  1  0  0  0  0
 11  9  2  0  0  0  0
 12 10  2  0  0  0  0
 13  4  1  0  0  0  0
 16 15  1  6  0  0  0
 16 22  1  0  0  0  0
 16 14  1  0  0  0  0
 17 18  2  0  0  0  0
 17 22  1  0  0  0  0
 18 20  1  0  0  0  0
 20 19  1  0  0  0  0
 21 18  1  0  0  0  0
 22 19  2  0  0  0  0
 25 20  1  6  0  0  0
 25 26  1  0  0  0  0
 25 24  1  0  0  0  0
 26 23  1  6  0  0  0
 26 24  1  0  0  0  0
 26 27  1  0  0  0  0
 28 32  1  0  0  0  0
 28 27  1  0  0  0  0
 30 32  1  0  0  0  0
 32 31  1  0  0  0  0
 32 29  1  0  0  0  0
 33 41  1  0  0  0  0
 34 39  1  0  0  0  0
 35 34  1  0  0  0  0
 36 35  2  0  0  0  0
 37 40  2  0  0  0  0
 38 36  1  0  0  0  0
 38 33  2  0  0  0  0
 39 42  1  6  0  0  0
 39 40  1  0  0  0  0
 40  3  1  0  0  0  0
 41 34  2  0  0  0  0
 41 37  1  0  0  0  0
 42 43  1  0  0  0  0
 45 44  1  0  0  0  0
 45 46  1  0  0  0  0
 47 46  1  0  0  0  0
 48 51  1  6  0  0  0
 48 55  1  0  0  0  0
 50 54  1  0  0  0  0
 52 50  1  0  0  0  0
 52 47  1  1  0  0  0
 52 48  1  0  0  0  0
 53 50  2  0  0  0  0
 54 55  1  0  0  0  0
 55 49  1  1  0  0  0
 56 54  1  0  0  0  0
 56 57  1  0  0  0  0
 58 57  1  0  0  0  0
 59 58  1  0  0  0  0
 61 59  1  0  0  0  0
 61 60  1  1  0  0  0
 62 63  1  6  0  0  0
 62 61  1  0  0  0  0
 64 62  1  1  0  0  0
 64 66  1  0  0  0  0
 65 68  1  6  0  0  0
 65 64  1  0  0  0  0
 65 66  1  0  0  0  0
 67 68  1  0  0  0  0
M  END
>  <MODEL>
9

>  <REMARK>
 VINA RESULT:      -4.6      3.849     10.274
  Name = 
  23 active torsions:
  status: ('A' for Active; 'I' for Inactive)
    1  A    between atoms: N_3  and  C_9
    2  A    between atoms: N_3  and  C_58
    3  A    between atoms: C_8  and  C_10
    4  A    between atoms: C_8  and  C_57
    5  A    between atoms: C_9  and  C_57
    6  A    between atoms: C_11  and  C_54
    7  A    between atoms: C_13  and  N_38
    8  A    between atoms: C_14  and  C_30
    9  A    between atoms: C_14  and  C_43
   10  A    between atoms: C_15  and  C_52
   11  A    between atoms: C_15  and  C_56
   12  A    between atoms: C_18  and  C_47
   13  A    between atoms: C_22  and  C_24
   14  A    between atoms: C_22  and  C_30
   15  A    between atoms: C_24  and  N_38
   16  A    between atoms: O_26  and  C_31
   17  A    between atoms: O_26  and  C_62
   18  A    between atoms: C_31  and  C_61
   19  A    between atoms: N_32  and  C_60
   20  A    between atoms: C_35  and  C_58
   21  A    between atoms: C_35  and  N_65
   22  A    between atoms: C_40  and  C_64
   23  A    between atoms: C_53  and  C_56
                            x       y       z     vdW  Elec       q    Type
                         _______ _______ _______ _____ _____    ______ ____

>  <TORSDO>
F 23

$$$$
