=
 OpenBabel11042415423D

 46 52  0  0  1  0  0  0  0  0999 V2000
  189.9240  174.8710  142.8440 C   0  0  0  0  0  0  0  0  0  0  0  0
  191.8160  172.2070  144.4860 N   0  0  0  0  0  0  0  0  0  0  0  0
  190.6450  173.1100  141.1030 C   0  0  1  0  0  3  0  0  0  0  0  0
  192.5000  171.1430  143.7480 C   0  0  2  0  0  3  0  0  0  0  0  0
  189.8630  174.7430  145.3520 S   0  0  0  0  0  0  0  0  0  0  0  0
  194.0000  171.1820  143.9260 C   0  0  0  0  0  0  0  0  0  0  0  0
  189.1380  176.0570  144.5730 C   0  0  0  0  0  0  0  0  0  0  0  0
  191.0760  172.8420  143.6400 C   0  0  0  0  0  0  0  0  0  0  0  0
  190.3410  174.0670  143.8920 C   0  0  0  0  0  0  0  0  0  0  0  0
  194.2860  170.7340  141.5040 C   0  0  0  0  0  3  0  0  0  0  0  0
  189.2630  175.9930  143.2250 N   0  0  0  0  0  0  0  0  0  0  0  0
  194.8100  170.9210  142.8810 C   0  0  0  0  0  3  0  0  0  0  0  0
  190.3380  174.6030  141.4130 C   0  0  0  0  0  2  0  0  0  0  0  0
  191.2490  172.3940  142.2850 C   0  0  2  0  0  3  0  0  0  0  0  0
  192.9970  170.9660  141.2140 C   0  0  0  0  0  0  0  0  0  0  0  0
  192.1300  171.4090  142.3160 C   0  0  1  0  0  3  0  0  0  0  0  0
  184.9170  177.7510  146.5790 C   0  0  0  0  0  3  0  0  0  0  0  0
  186.5410  178.4370  144.9490 N   0  0  0  0  0  0  0  0  0  0  0  0
  185.6360  179.3860  144.3020 C   0  0  0  0  0  2  0  0  0  0  0  0
  183.9390  178.7440  146.0190 C   0  0  0  0  0  2  0  0  0  0  0  0
  188.4440  177.1680  145.2840 C   0  0  1  0  0  3  0  0  0  0  0  0
  187.7140  178.0030  144.3180 N   0  0  0  0  0  2  0  0  0  0  0  0
  184.1840  178.9620  144.5230 C   0  0  0  0  0  2  0  0  0  0  0  0
  186.1550  177.6910  146.0900 C   0  0  0  0  0  0  0  0  0  0  0  0
  187.3380  176.4910  146.5900 S   0  0  0  0  0  0  0  0  0  0  0  0
  192.4860  170.8360  139.8450 C   0  0  0  0  0  3  0  0  0  0  0  0
  191.6190  169.9710  139.5470 O   0  0  0  0  0  0  0  0  0  0  0  0
  189.4270  172.4250  140.7030 N   0  0  0  0  0  2  0  0  0  0  0  0
  188.1690  173.0830  138.5170 C   0  0  0  0  0  3  0  0  0  0  0  0
  188.7510  172.7760  139.5270 C   0  0  0  0  0  0  0  0  0  0  0  0
  194.5340  171.3370  145.2450 N   0  0  0  0  0  2  0  0  0  0  0  0
  195.3580  172.4640  145.6530 C   0  0  0  0  0  2  0  0  0  0  0  0
  196.8020  172.0170  145.8200 C   0  0  0  0  0  2  0  0  0  0  0  0
  197.1630  174.6170  143.4600 N   0  0  0  0  0  0  0  0  0  0  0  0
  197.8500  172.3800  143.6490 N   0  0  0  0  0  2  0  0  0  0  0  0
  197.4810  173.2680  141.1480 S   0  0  0  0  0  0  0  0  0  0  0  0
  197.5190  173.4370  142.7740 C   0  0  0  0  0  0  0  0  0  0  0  0
  197.1890  174.3370  144.8820 C   0  0  0  0  0  2  0  0  0  0  0  0
  197.7410  172.9000  145.0080 C   0  0  1  0  0  3  0  0  0  0  0  0
  196.5450  175.7960  142.8760 C   0  0  0  0  0  2  0  0  0  0  0  0
  194.2100  175.8230  143.8360 C   0  0  0  0  0  0  0  0  0  0  0  0
  193.8640  174.8780  143.0750 O   0  0  0  0  0  0  0  0  0  0  0  0
  195.5470  176.3310  143.7890 N   0  0  0  0  0  2  0  0  0  0  0  0
  193.2380  176.3980  144.7760 C   0  0  0  0  0  0  0  0  0  0  0  0
  193.2530  176.0130  146.1460 N   0  0  0  0  0  1  0  0  0  0  0  0
  192.3920  177.2400  144.3760 O   0  0  0  0  0  0  0  0  0  0  0  0
  1 11  1  0  0  0  0
  1  9  2  0  0  0  0
  3 28  1  1  0  0  0
  3 13  1  0  0  0  0
  3 14  1  0  0  0  0
  4  6  1  6  0  0  0
  4  2  1  0  0  0  0
  6 31  1  0  0  0  0
  7  5  1  0  0  0  0
  8  9  1  0  0  0  0
  8  2  2  0  0  0  0
  9  5  1  0  0  0  0
 10 12  1  0  0  0  0
 11  7  2  0  0  0  0
 12  6  2  0  0  0  0
 13  1  1  0  0  0  0
 14 16  1  0  0  0  0
 14  8  1  1  0  0  0
 15 10  2  0  0  0  0
 16 15  1  6  0  0  0
 16  4  1  0  0  0  0
 18 24  1  0  0  0  0
 19 23  1  0  0  0  0
 19 18  1  0  0  0  0
 20 17  1  0  0  0  0
 21  7  1  6  0  0  0
 21 25  1  0  0  0  0
 22 18  1  0  0  0  0
 22 21  1  0  0  0  0
 23 20  1  0  0  0  0
 24 17  2  0  0  0  0
 24 25  1  0  0  0  0
 26 15  1  0  0  0  0
 27 26  2  0  0  0  0
 29 30  3  0  0  0  0
 30 28  1  0  0  0  0
 31 32  1  0  0  0  0
 32 33  1  0  0  0  0
 34 38  1  0  0  0  0
 35 39  1  0  0  0  0
 36 37  2  0  0  0  0
 37 34  1  0  0  0  0
 37 35  1  0  0  0  0
 38 39  1  0  0  0  0
 39 33  1  1  0  0  0
 40 34  1  0  0  0  0
 40 43  1  0  0  0  0
 41 44  1  0  0  0  0
 42 41  2  0  0  0  0
 43 41  1  0  0  0  0
 44 45  1  0  0  0  0
 46 44  2  0  0  0  0
M  END
>  <MODEL>
1

>  <REMARK>
 VINA RESULT:      -7.0      0.000      0.000
  Name = 
  11 active torsions:
  status: ('A' for Active; 'I' for Inactive)
    1  A    between atoms: C_5  and  N_11
    2  A    between atoms: N_6  and  C_15
    3  A    between atoms: C_9  and  C_40
    4  A    between atoms: C_10  and  N_11
    5  A    between atoms: C_12  and  C_13
    6  A    between atoms: C_15  and  N_41
    7  A    between atoms: C_19  and  C_36
    8  A    between atoms: C_19  and  C_44
    9  A    between atoms: N_20  and  C_22
   10  A    between atoms: N_20  and  C_36
   11  A    between atoms: C_23  and  C_33
                            x       y       z     vdW  Elec       q    Type
                         _______ _______ _______ _____ _____    ______ ____

>  <TORSDO>
F 11

$$$$
=
 OpenBabel11042415423D

 46 52  0  0  1  0  0  0  0  0999 V2000
  188.9410  174.8610  141.5320 C   0  0  0  0  0  0  0  0  0  0  0  0
  190.1640  176.8490  144.3470 N   0  0  0  0  0  0  0  0  0  0  0  0
  187.1190  176.5240  142.2850 C   0  0  1  0  0  3  0  0  0  0  0  0
  189.3130  177.7680  145.1040 C   0  0  2  0  0  3  0  0  0  0  0  0
  191.3980  174.8030  142.0470 S   0  0  0  0  0  0  0  0  0  0  0  0
  189.1440  177.3510  146.5470 C   0  0  0  0  0  0  0  0  0  0  0  0
  190.7780  173.7710  140.8610 C   0  0  0  0  0  0  0  0  0  0  0  0
  189.4960  176.4800  143.3060 C   0  0  0  0  0  0  0  0  0  0  0  0
  189.8830  175.4550  142.3550 C   0  0  0  0  0  0  0  0  0  0  0  0
  186.7300  177.9050  146.4090 C   0  0  0  0  0  3  0  0  0  0  0  0
  189.4380  173.9080  140.7050 N   0  0  0  0  0  0  0  0  0  0  0  0
  187.9470  177.4890  147.1520 C   0  0  0  0  0  3  0  0  0  0  0  0
  187.4590  175.1320  141.6820 C   0  0  0  0  0  2  0  0  0  0  0  0
  188.1470  176.9780  143.2910 C   0  0  2  0  0  3  0  0  0  0  0  0
  186.7370  178.0170  145.0730 C   0  0  0  0  0  0  0  0  0  0  0  0
  187.9980  177.7130  144.3790 C   0  0  1  0  0  3  0  0  0  0  0  0
  191.2220  171.0260  136.7400 C   0  0  0  0  0  3  0  0  0  0  0  0
  191.2920  170.7270  139.1220 N   0  0  0  0  0  0  0  0  0  0  0  0
  191.0310  169.2910  139.0490 C   0  0  0  0  0  2  0  0  0  0  0  0
  191.0120  169.5480  136.5640 C   0  0  0  0  0  2  0  0  0  0  0  0
  191.6030  172.8100  140.0770 C   0  0  1  0  0  3  0  0  0  0  0  0
  191.1420  171.4340  140.3220 N   0  0  0  0  0  2  0  0  0  0  0  0
  190.2670  168.9600  137.7660 C   0  0  0  0  0  2  0  0  0  0  0  0
  191.4210  171.5260  137.9600 C   0  0  0  0  0  0  0  0  0  0  0  0
  191.5590  173.2480  138.2900 S   0  0  0  0  0  0  0  0  0  0  0  0
  185.5230  178.3740  144.3280 C   0  0  0  0  0  3  0  0  0  0  0  0
  185.3740  179.5210  143.8280 O   0  0  0  0  0  0  0  0  0  0  0  0
  187.0230  177.5150  141.2250 N   0  0  0  0  0  2  0  0  0  0  0  0
  184.7070  178.2910  140.3140 C   0  0  0  0  0  3  0  0  0  0  0  0
  185.7780  177.9300  140.7340 C   0  0  0  0  0  0  0  0  0  0  0  0
  190.3020  176.9690  147.2950 N   0  0  0  0  0  2  0  0  0  0  0  0
  190.7020  175.5870  147.5090 C   0  0  0  0  0  2  0  0  0  0  0  0
  192.1960  175.4370  147.2690 C   0  0  0  0  0  2  0  0  0  0  0  0
  194.2880  173.7730  144.9640 N   0  0  0  0  0  0  0  0  0  0  0  0
  193.4960  175.9610  145.2750 N   0  0  0  0  0  2  0  0  0  0  0  0
  195.8930  175.7570  144.0930 S   0  0  0  0  0  0  0  0  0  0  0  0
  194.5320  175.1490  144.7650 C   0  0  0  0  0  0  0  0  0  0  0  0
  193.0510  173.6370  145.7070 C   0  0  0  0  0  2  0  0  0  0  0  0
  192.4790  175.0670  145.8190 C   0  0  1  0  0  3  0  0  0  0  0  0
  195.2490  172.6970  144.7810 C   0  0  0  0  0  2  0  0  0  0  0  0
  195.4320  170.4950  146.0040 C   0  0  0  0  0  0  0  0  0  0  0  0
  196.6350  170.7360  146.2990 O   0  0  0  0  0  0  0  0  0  0  0  0
  194.6750  171.4430  145.2440 N   0  0  0  0  0  2  0  0  0  0  0  0
  194.8080  169.2420  146.4490 C   0  0  0  0  0  0  0  0  0  0  0  0
  195.1140  168.7040  147.7310 N   0  0  0  0  0  1  0  0  0  0  0  0
  193.9920  168.6420  145.7010 O   0  0  0  0  0  0  0  0  0  0  0  0
  1 13  1  0  0  0  0
  1  9  2  0  0  0  0
  3 28  1  6  0  0  0
  3 14  1  0  0  0  0
  4  2  1  6  0  0  0
  4  6  1  0  0  0  0
  5  9  1  0  0  0  0
  6 12  2  0  0  0  0
  6 31  1  0  0  0  0
  7  5  1  0  0  0  0
  8  2  2  0  0  0  0
  9  8  1  0  0  0  0
 10 12  1  0  0  0  0
 11  7  2  0  0  0  0
 11  1  1  0  0  0  0
 13  3  1  0  0  0  0
 14  8  1  1  0  0  0
 14 16  1  0  0  0  0
 15 10  2  0  0  0  0
 16 15  1  1  0  0  0
 16  4  1  0  0  0  0
 17 24  2  0  0  0  0
 18 22  1  0  0  0  0
 19 18  1  0  0  0  0
 20 17  1  0  0  0  0
 20 23  1  0  0  0  0
 21 22  1  0  0  0  0
 21  7  1  1  0  0  0
 23 19  1  0  0  0  0
 24 25  1  0  0  0  0
 24 18  1  0  0  0  0
 25 21  1  0  0  0  0
 26 15  1  0  0  0  0
 27 26  2  0  0  0  0
 29 30  3  0  0  0  0
 30 28  1  0  0  0  0
 31 32  1  0  0  0  0
 33 32  1  0  0  0  0
 34 38  1  0  0  0  0
 35 39  1  0  0  0  0
 36 37  2  0  0  0  0
 37 34  1  0  0  0  0
 37 35  1  0  0  0  0
 38 39  1  0  0  0  0
 39 33  1  1  0  0  0
 40 34  1  0  0  0  0
 40 43  1  0  0  0  0
 41 42  2  0  0  0  0
 41 44  1  0  0  0  0
 43 41  1  0  0  0  0
 44 45  1  0  0  0  0
 46 44  2  0  0  0  0
M  END
>  <MODEL>
2

>  <REMARK>
 VINA RESULT:      -7.0      3.079      7.875
  Name = 
  11 active torsions:
  status: ('A' for Active; 'I' for Inactive)
    1  A    between atoms: C_5  and  N_11
    2  A    between atoms: N_6  and  C_15
    3  A    between atoms: C_9  and  C_40
    4  A    between atoms: C_10  and  N_11
    5  A    between atoms: C_12  and  C_13
    6  A    between atoms: C_15  and  N_41
    7  A    between atoms: C_19  and  C_36
    8  A    between atoms: C_19  and  C_44
    9  A    between atoms: N_20  and  C_22
   10  A    between atoms: N_20  and  C_36
   11  A    between atoms: C_23  and  C_33
                            x       y       z     vdW  Elec       q    Type
                         _______ _______ _______ _____ _____    ______ ____

>  <TORSDO>
F 11

$$$$
=
 OpenBabel11042415423D

 46 52  0  0  1  0  0  0  0  0999 V2000
  190.4300  177.0410  144.8460 C   0  0  0  0  0  0  0  0  0  0  0  0
  188.2180  176.2690  142.0370 N   0  0  0  0  0  0  0  0  0  0  0  0
  187.9690  177.3080  145.5710 C   0  0  1  0  0  3  0  0  0  0  0  0
  186.7700  176.4820  142.0800 C   0  0  2  0  0  3  0  0  0  0  0  0
  191.4140  175.8960  142.8390 S   0  0  0  0  0  0  0  0  0  0  0  0
  186.3040  177.5190  141.0850 C   0  0  0  0  0  0  0  0  0  0  0  0
  192.4380  176.4140  144.0800 C   0  0  0  0  0  0  0  0  0  0  0  0
  188.6630  176.4310  143.2390 C   0  0  0  0  0  0  0  0  0  0  0  0
  190.0560  176.4700  143.6410 C   0  0  0  0  0  0  0  0  0  0  0  0
  184.7970  178.4750  142.8070 C   0  0  0  0  0  3  0  0  0  0  0  0
  191.7650  177.0230  145.0870 N   0  0  0  0  0  0  0  0  0  0  0  0
  185.3350  178.3930  141.4250 C   0  0  0  0  0  3  0  0  0  0  0  0
  189.4420  177.7810  145.7230 C   0  0  0  0  0  2  0  0  0  0  0  0
  187.6520  176.8660  144.1650 C   0  0  2  0  0  3  0  0  0  0  0  0
  185.3570  177.7860  143.8120 C   0  0  0  0  0  0  0  0  0  0  0  0
  186.5210  176.9480  143.4870 C   0  0  1  0  0  3  0  0  0  0  0  0
  196.2720  173.3460  143.3050 C   0  0  0  0  0  3  0  0  0  0  0  0
  195.4280  174.7750  145.0410 N   0  0  0  0  0  0  0  0  0  0  0  0
  196.1770  174.0970  146.0990 C   0  0  0  0  0  2  0  0  0  0  0  0
  197.1250  172.6300  144.3130 C   0  0  0  0  0  2  0  0  0  0  0  0
  193.9170  176.2320  144.0720 C   0  0  1  0  0  3  0  0  0  0  0  0
  194.3550  175.6250  145.3390 N   0  0  0  0  0  2  0  0  0  0  0  0
  196.4650  172.6510  145.6950 C   0  0  0  0  0  2  0  0  0  0  0  0
  195.5430  174.3970  143.6810 C   0  0  0  0  0  0  0  0  0  0  0  0
  194.4230  175.2320  142.6120 S   0  0  0  0  0  0  0  0  0  0  0  0
  184.8640  177.9060  145.1900 C   0  0  0  0  0  3  0  0  0  0  0  0
  183.9190  178.6860  145.4830 O   0  0  0  0  0  0  0  0  0  0  0  0
  187.7030  176.2100  146.4860 N   0  0  0  0  0  2  0  0  0  0  0  0
  189.6000  174.5800  147.2180 C   0  0  0  0  0  3  0  0  0  0  0  0
  188.7210  175.3310  146.8790 C   0  0  0  0  0  0  0  0  0  0  0  0
  186.7870  177.4500  139.7400 N   0  0  0  0  0  2  0  0  0  0  0  0
  186.1660  176.6420  138.7020 C   0  0  0  0  0  2  0  0  0  0  0  0
  186.9830  176.7240  137.4220 C   0  0  0  0  0  2  0  0  0  0  0  0
  189.1890  173.9690  137.3900 N   0  0  0  0  0  0  0  0  0  0  0  0
  188.2690  175.4340  135.8030 N   0  0  0  0  0  2  0  0  0  0  0  0
  190.6840  174.4420  135.1970 S   0  0  0  0  0  0  0  0  0  0  0  0
  189.3550  174.5950  136.1370 C   0  0  0  0  0  0  0  0  0  0  0  0
  187.9550  174.4530  137.9770 C   0  0  0  0  0  2  0  0  0  0  0  0
  187.3000  175.3340  136.8890 C   0  0  1  0  0  3  0  0  0  0  0  0
  190.2110  173.2470  138.1300 C   0  0  0  0  0  2  0  0  0  0  0  0
  190.5090  172.8350  140.6030 C   0  0  0  0  0  0  0  0  0  0  0  0
  191.7220  173.1750  140.5340 O   0  0  0  0  0  0  0  0  0  0  0  0
  189.6900  172.8520  139.4300 N   0  0  0  0  0  2  0  0  0  0  0  0
  189.9370  172.4290  141.8930 C   0  0  0  0  0  0  0  0  0  0  0  0
  190.6520  171.5430  142.7480 N   0  0  0  0  0  1  0  0  0  0  0  0
  188.8140  172.8680  142.2540 O   0  0  0  0  0  0  0  0  0  0  0  0
  1 11  1  0  0  0  0
  1 13  1  0  0  0  0
  2  4  1  0  0  0  0
  2  8  2  0  0  0  0
  3 13  1  0  0  0  0
  3 28  1  1  0  0  0
  4  6  1  6  0  0  0
  4 16  1  0  0  0  0
  5  9  1  0  0  0  0
  5  7  1  0  0  0  0
  6 12  2  0  0  0  0
  7 11  2  0  0  0  0
  8  9  1  0  0  0  0
  9  1  2  0  0  0  0
 10 15  2  0  0  0  0
 12 10  1  0  0  0  0
 14  8  1  6  0  0  0
 14  3  1  0  0  0  0
 15 26  1  0  0  0  0
 16 15  1  6  0  0  0
 16 14  1  0  0  0  0
 17 24  2  0  0  0  0
 17 20  1  0  0  0  0
 18 22  1  0  0  0  0
 18 19  1  0  0  0  0
 20 23  1  0  0  0  0
 21  7  1  1  0  0  0
 21 22  1  0  0  0  0
 23 19  1  0  0  0  0
 24 18  1  0  0  0  0
 25 24  1  0  0  0  0
 25 21  1  0  0  0  0
 26 27  2  0  0  0  0
 28 30  1  0  0  0  0
 30 29  3  0  0  0  0
 31  6  1  0  0  0  0
 32 31  1  0  0  0  0
 33 32  1  0  0  0  0
 34 38  1  0  0  0  0
 34 40  1  0  0  0  0
 35 37  1  0  0  0  0
 35 39  1  0  0  0  0
 36 37  2  0  0  0  0
 37 34  1  0  0  0  0
 39 33  1  1  0  0  0
 39 38  1  0  0  0  0
 40 43  1  0  0  0  0
 41 44  1  0  0  0  0
 42 41  2  0  0  0  0
 43 41  1  0  0  0  0
 44 46  2  0  0  0  0
 44 45  1  0  0  0  0
M  END
>  <MODEL>
3

>  <REMARK>
 VINA RESULT:      -7.0      3.165      9.258
  Name = 
  11 active torsions:
  status: ('A' for Active; 'I' for Inactive)
    1  A    between atoms: C_5  and  N_11
    2  A    between atoms: N_6  and  C_15
    3  A    between atoms: C_9  and  C_40
    4  A    between atoms: C_10  and  N_11
    5  A    between atoms: C_12  and  C_13
    6  A    between atoms: C_15  and  N_41
    7  A    between atoms: C_19  and  C_36
    8  A    between atoms: C_19  and  C_44
    9  A    between atoms: N_20  and  C_22
   10  A    between atoms: N_20  and  C_36
   11  A    between atoms: C_23  and  C_33
                            x       y       z     vdW  Elec       q    Type
                         _______ _______ _______ _____ _____    ______ ____

>  <TORSDO>
F 11

$$$$
=
 OpenBabel11042415423D

 46 52  0  0  1  0  0  0  0  0999 V2000
  189.5400  175.5900  143.2490 C   0  0  0  0  0  0  0  0  0  0  0  0
  185.9440  176.2290  143.0720 N   0  0  0  0  0  0  0  0  0  0  0  0
  188.7420  176.7070  145.4330 C   0  0  1  0  0  3  0  0  0  0  0  0
  185.2190  176.9970  144.0860 C   0  0  2  0  0  3  0  0  0  0  0  0
  188.2250  174.4790  141.4200 S   0  0  0  0  0  0  0  0  0  0  0  0
  184.6320  178.2780  143.5390 C   0  0  0  0  0  0  0  0  0  0  0  0
  189.9100  174.3380  141.4300 C   0  0  0  0  0  0  0  0  0  0  0  0
  187.1270  176.0060  143.5370 C   0  0  0  0  0  0  0  0  0  0  0  0
  188.2380  175.4160  142.8130 C   0  0  0  0  0  0  0  0  0  0  0  0
  185.3670  179.4730  145.5840 C   0  0  0  0  0  3  0  0  0  0  0  0
  190.4790  174.9990  142.4680 N   0  0  0  0  0  0  0  0  0  0  0  0
  184.6530  179.4010  144.2840 C   0  0  0  0  0  3  0  0  0  0  0  0
  189.8850  176.5160  144.3960 C   0  0  0  0  0  2  0  0  0  0  0  0
  187.3770  176.6580  144.7940 C   0  0  2  0  0  3  0  0  0  0  0  0
  186.1500  178.4680  146.0020 C   0  0  0  0  0  0  0  0  0  0  0  0
  186.2660  177.2950  145.1220 C   0  0  1  0  0  3  0  0  0  0  0  0
  189.8690  170.9120  137.8280 C   0  0  0  0  0  3  0  0  0  0  0  0
  191.0310  171.3550  139.8820 N   0  0  0  0  0  0  0  0  0  0  0  0
  191.4680  169.9700  140.0480 C   0  0  0  0  0  2  0  0  0  0  0  0
  190.3230  169.4810  137.8830 C   0  0  0  0  0  2  0  0  0  0  0  0
  190.6890  173.5800  140.4120 C   0  0  1  0  0  3  0  0  0  0  0  0
  191.0700  172.2640  140.9480 N   0  0  0  0  0  2  0  0  0  0  0  0
  190.5030  169.0250  139.3330 C   0  0  0  0  0  2  0  0  0  0  0  0
  190.2860  171.7760  138.7540 C   0  0  0  0  0  0  0  0  0  0  0  0
  189.7230  173.4390  138.8510 S   0  0  0  0  0  0  0  0  0  0  0  0
  186.9020  178.5560  147.2600 C   0  0  0  0  0  3  0  0  0  0  0  0
  186.4710  178.0290  148.3200 O   0  0  0  0  0  0  0  0  0  0  0  0
  188.8240  175.6790  146.4580 N   0  0  0  0  0  2  0  0  0  0  0  0
  191.0310  175.2790  147.7850 C   0  0  0  0  0  3  0  0  0  0  0  0
  190.0100  175.4610  147.1710 C   0  0  0  0  0  0  0  0  0  0  0  0
  183.9170  178.2340  142.3000 N   0  0  0  0  0  2  0  0  0  0  0  0
  182.5310  178.6510  142.1560 C   0  0  0  0  0  2  0  0  0  0  0  0
  182.1010  178.5280  140.7030 C   0  0  0  0  0  2  0  0  0  0  0  0
  178.6950  179.4270  140.9200 N   0  0  0  0  0  0  0  0  0  0  0  0
  180.1100  177.8540  141.9380 N   0  0  0  0  0  2  0  0  0  0  0  0
  178.0590  178.7040  143.4390 S   0  0  0  0  0  0  0  0  0  0  0  0
  178.9500  178.6480  142.0690 C   0  0  0  0  0  0  0  0  0  0  0  0
  179.7720  179.2050  139.9760 C   0  0  0  0  0  2  0  0  0  0  0  0
  180.6450  178.0940  140.6020 C   0  0  1  0  0  3  0  0  0  0  0  0
  177.7370  180.5150  140.8170 C   0  0  0  0  0  2  0  0  0  0  0  0
  178.0050  182.6160  139.4430 C   0  0  0  0  0  0  0  0  0  0  0  0
  177.9680  183.3270  140.4850 O   0  0  0  0  0  0  0  0  0  0  0  0
  177.8970  181.1920  139.5400 N   0  0  0  0  0  2  0  0  0  0  0  0
  178.1660  183.2530  138.1290 C   0  0  0  0  0  0  0  0  0  0  0  0
  178.1160  184.6710  138.0090 N   0  0  0  0  0  1  0  0  0  0  0  0
  178.3570  182.5490  137.1040 O   0  0  0  0  0  0  0  0  0  0  0  0
  1 13  1  0  0  0  0
  2  8  2  0  0  0  0
  3 28  1  1  0  0  0
  4  2  1  6  0  0  0
  4 16  1  0  0  0  0
  5  7  1  0  0  0  0
  5  9  1  0  0  0  0
  6  4  1  0  0  0  0
  6 12  2  0  0  0  0
  7 11  2  0  0  0  0
  9  1  2  0  0  0  0
  9  8  1  0  0  0  0
 10 15  2  0  0  0  0
 11  1  1  0  0  0  0
 12 10  1  0  0  0  0
 13  3  1  0  0  0  0
 14  8  1  6  0  0  0
 14 16  1  0  0  0  0
 14  3  1  0  0  0  0
 15 26  1  0  0  0  0
 16 15  1  6  0  0  0
 17 20  1  0  0  0  0
 17 24  2  0  0  0  0
 18 19  1  0  0  0  0
 18 22  1  0  0  0  0
 20 23  1  0  0  0  0
 21 22  1  0  0  0  0
 21  7  1  1  0  0  0
 23 19  1  0  0  0  0
 24 25  1  0  0  0  0
 24 18  1  0  0  0  0
 25 21  1  0  0  0  0
 26 27  2  0  0  0  0
 28 30  1  0  0  0  0
 30 29  3  0  0  0  0
 31  6  1  0  0  0  0
 32 31  1  0  0  0  0
 33 32  1  0  0  0  0
 34 37  1  0  0  0  0
 35 37  1  0  0  0  0
 37 36  2  0  0  0  0
 38 39  1  0  0  0  0
 38 34  1  0  0  0  0
 39 33  1  1  0  0  0
 39 35  1  0  0  0  0
 40 34  1  0  0  0  0
 41 43  1  0  0  0  0
 41 42  2  0  0  0  0
 43 40  1  0  0  0  0
 44 41  1  0  0  0  0
 45 44  1  0  0  0  0
 46 44  2  0  0  0  0
M  END
>  <MODEL>
4

>  <REMARK>
 VINA RESULT:      -6.9      5.961     12.982
  Name = 
  11 active torsions:
  status: ('A' for Active; 'I' for Inactive)
    1  A    between atoms: C_5  and  N_11
    2  A    between atoms: N_6  and  C_15
    3  A    between atoms: C_9  and  C_40
    4  A    between atoms: C_10  and  N_11
    5  A    between atoms: C_12  and  C_13
    6  A    between atoms: C_15  and  N_41
    7  A    between atoms: C_19  and  C_36
    8  A    between atoms: C_19  and  C_44
    9  A    between atoms: N_20  and  C_22
   10  A    between atoms: N_20  and  C_36
   11  A    between atoms: C_23  and  C_33
                            x       y       z     vdW  Elec       q    Type
                         _______ _______ _______ _____ _____    ______ ____

>  <TORSDO>
F 11

$$$$
=
 OpenBabel11042415423D

 46 52  0  0  1  0  0  0  0  0999 V2000
  192.5900  175.1600  144.5150 C   0  0  0  0  0  0  0  0  0  0  0  0
  193.3150  175.2940  140.9330 N   0  0  0  0  0  0  0  0  0  0  0  0
  194.6670  173.7240  143.9880 C   0  0  1  0  0  3  0  0  0  0  0  0
  194.3330  174.4590  140.2930 C   0  0  2  0  0  3  0  0  0  0  0  0
  191.4390  176.9140  143.1350 S   0  0  0  0  0  0  0  0  0  0  0  0
  193.7480  173.4880  139.2930 C   0  0  0  0  0  0  0  0  0  0  0  0
  191.0020  176.7190  144.7560 C   0  0  0  0  0  0  0  0  0  0  0  0
  193.4620  175.1640  142.2090 C   0  0  0  0  0  0  0  0  0  0  0  0
  192.5760  175.6840  143.2330 C   0  0  0  0  0  0  0  0  0  0  0  0
  195.2500  171.7130  140.1570 C   0  0  0  0  0  3  0  0  0  0  0  0
  191.6990  175.7290  145.3650 N   0  0  0  0  0  0  0  0  0  0  0  0
  194.2380  172.2360  139.2030 C   0  0  0  0  0  3  0  0  0  0  0  0
  193.4050  173.9350  144.8710 C   0  0  0  0  0  2  0  0  0  0  0  0
  194.4570  174.1910  142.5700 C   0  0  2  0  0  3  0  0  0  0  0  0
  195.6090  172.4160  141.2420 C   0  0  0  0  0  0  0  0  0  0  0  0
  194.9610  173.7210  141.4420 C   0  0  1  0  0  3  0  0  0  0  0  0
  186.5710  176.8190  147.0070 C   0  0  0  0  0  3  0  0  0  0  0  0
  187.6960  177.9160  145.1910 N   0  0  0  0  0  0  0  0  0  0  0  0
  186.4540  178.3620  144.5610 C   0  0  0  0  0  2  0  0  0  0  0  0
  185.2490  177.2860  146.4660 C   0  0  0  0  0  2  0  0  0  0  0  0
  189.9630  177.5360  145.4440 C   0  0  1  0  0  3  0  0  0  0  0  0
  188.9090  177.9140  144.4900 N   0  0  0  0  0  2  0  0  0  0  0  0
  185.3060  177.4270  144.9430 C   0  0  0  0  0  2  0  0  0  0  0  0
  187.7020  177.2000  146.4130 C   0  0  0  0  0  0  0  0  0  0  0  0
  189.2910  176.6170  146.8910 S   0  0  0  0  0  0  0  0  0  0  0  0
  196.5660  171.8810  142.2170 C   0  0  0  0  0  3  0  0  0  0  0  0
  196.3110  170.8450  142.8880 O   0  0  0  0  0  0  0  0  0  0  0  0
  195.7980  174.4370  144.5600 N   0  0  0  0  0  2  0  0  0  0  0  0
  197.1910  173.4160  146.5130 C   0  0  0  0  0  3  0  0  0  0  0  0
  196.5450  173.8860  145.6100 C   0  0  0  0  0  0  0  0  0  0  0  0
  192.7890  173.9690  138.3460 N   0  0  0  0  0  2  0  0  0  0  0  0
  191.3530  173.7900  138.4920 C   0  0  0  0  0  2  0  0  0  0  0  0
  190.9800  172.3440  138.2030 C   0  0  0  0  0  2  0  0  0  0  0  0
  189.3650  172.8630  141.2980 N   0  0  0  0  0  0  0  0  0  0  0  0
  190.8580  171.2910  140.3980 N   0  0  0  0  0  2  0  0  0  0  0  0
  191.0490  171.6830  143.0420 S   0  0  0  0  0  0  0  0  0  0  0  0
  190.3950  171.9370  141.5650 C   0  0  0  0  0  0  0  0  0  0  0  0
  189.1530  172.9020  139.8650 C   0  0  0  0  0  2  0  0  0  0  0  0
  190.0600  171.7940  139.2850 C   0  0  1  0  0  3  0  0  0  0  0  0
  188.8430  173.8550  142.2230 C   0  0  0  0  0  2  0  0  0  0  0  0
  187.5490  175.9700  141.7430 C   0  0  0  0  0  0  0  0  0  0  0  0
  186.6340  175.6150  142.5370 O   0  0  0  0  0  0  0  0  0  0  0  0
  188.6910  175.1310  141.5410 N   0  0  0  0  0  2  0  0  0  0  0  0
  187.4410  177.2500  141.0310 C   0  0  0  0  0  0  0  0  0  0  0  0
  186.4240  177.4430  140.0540 N   0  0  0  0  0  1  0  0  0  0  0  0
  188.2440  178.1850  141.2860 O   0  0  0  0  0  0  0  0  0  0  0  0
  1 13  1  0  0  0  0
  1 11  1  0  0  0  0
  2  8  2  0  0  0  0
  3 28  1  1  0  0  0
  3 13  1  0  0  0  0
  4  6  1  6  0  0  0
  4  2  1  0  0  0  0
  4 16  1  0  0  0  0
  5  9  1  0  0  0  0
  5  7  1  0  0  0  0
  7 11  2  0  0  0  0
  8  9  1  0  0  0  0
  9  1  2  0  0  0  0
 10 15  2  0  0  0  0
 12  6  2  0  0  0  0
 12 10  1  0  0  0  0
 14  8  1  6  0  0  0
 14  3  1  0  0  0  0
 15 26  1  0  0  0  0
 16 15  1  6  0  0  0
 16 14  1  0  0  0  0
 18 24  1  0  0  0  0
 19 23  1  0  0  0  0
 19 18  1  0  0  0  0
 20 17  1  0  0  0  0
 21  7  1  6  0  0  0
 21 25  1  0  0  0  0
 22 18  1  0  0  0  0
 22 21  1  0  0  0  0
 23 20  1  0  0  0  0
 24 25  1  0  0  0  0
 24 17  2  0  0  0  0
 26 27  2  0  0  0  0
 28 30  1  0  0  0  0
 30 29  3  0  0  0  0
 31 32  1  0  0  0  0
 31  6  1  0  0  0  0
 33 32  1  0  0  0  0
 34 37  1  0  0  0  0
 34 40  1  0  0  0  0
 35 37  1  0  0  0  0
 37 36  2  0  0  0  0
 38 34  1  0  0  0  0
 39 33  1  6  0  0  0
 39 38  1  0  0  0  0
 39 35  1  0  0  0  0
 41 42  2  0  0  0  0
 43 41  1  0  0  0  0
 43 40  1  0  0  0  0
 44 46  2  0  0  0  0
 44 41  1  0  0  0  0
 45 44  1  0  0  0  0
M  END
>  <MODEL>
5

>  <REMARK>
 VINA RESULT:      -6.6      2.659      5.971
  Name = 
  11 active torsions:
  status: ('A' for Active; 'I' for Inactive)
    1  A    between atoms: C_5  and  N_11
    2  A    between atoms: N_6  and  C_15
    3  A    between atoms: C_9  and  C_40
    4  A    between atoms: C_10  and  N_11
    5  A    between atoms: C_12  and  C_13
    6  A    between atoms: C_15  and  N_41
    7  A    between atoms: C_19  and  C_36
    8  A    between atoms: C_19  and  C_44
    9  A    between atoms: N_20  and  C_22
   10  A    between atoms: N_20  and  C_36
   11  A    between atoms: C_23  and  C_33
                            x       y       z     vdW  Elec       q    Type
                         _______ _______ _______ _____ _____    ______ ____

>  <TORSDO>
F 11

$$$$
=
 OpenBabel11042415423D

 46 52  0  0  1  0  0  0  0  0999 V2000
  189.4220  174.9590  142.5560 C   0  0  0  0  0  0  0  0  0  0  0  0
  193.0220  174.7290  141.9530 N   0  0  0  0  0  0  0  0  0  0  0  0
  189.9430  172.8510  141.1640 C   0  0  1  0  0  3  0  0  0  0  0  0
  193.6190  173.7340  141.0600 C   0  0  2  0  0  3  0  0  0  0  0  0
  190.9480  176.4330  143.9000 S   0  0  0  0  0  0  0  0  0  0  0  0
  194.3000  174.3590  139.8640 C   0  0  0  0  0  0  0  0  0  0  0  0
  189.2750  176.6330  144.0350 C   0  0  0  0  0  0  0  0  0  0  0  0
  191.7820  174.4030  142.1110 C   0  0  0  0  0  0  0  0  0  0  0  0
  190.7680  175.1890  142.7880 C   0  0  0  0  0  0  0  0  0  0  0  0
  193.3210  172.6040  138.4090 C   0  0  0  0  0  3  0  0  0  0  0  0
  188.5850  175.7760  143.2430 N   0  0  0  0  0  0  0  0  0  0  0  0
  194.2020  173.7760  138.6520 C   0  0  0  0  0  3  0  0  0  0  0  0
  188.9450  173.9990  141.4870 C   0  0  0  0  0  2  0  0  0  0  0  0
  191.3800  173.2870  141.2990 C   0  0  2  0  0  3  0  0  0  0  0  0
  192.4700  172.1690  139.3490 C   0  0  0  0  0  0  0  0  0  0  0  0
  192.4490  172.8970  140.6260 C   0  0  1  0  0  3  0  0  0  0  0  0
  185.5600  177.6710  147.1710 C   0  0  0  0  0  3  0  0  0  0  0  0
  186.5100  178.5490  145.1480 N   0  0  0  0  0  0  0  0  0  0  0  0
  185.3060  179.2970  144.7910 C   0  0  0  0  0  2  0  0  0  0  0  0
  184.3040  178.4550  146.9180 C   0  0  0  0  0  2  0  0  0  0  0  0
  188.6240  177.6400  144.9190 C   0  0  1  0  0  3  0  0  0  0  0  0
  187.5150  178.2930  144.2060 N   0  0  0  0  0  2  0  0  0  0  0  0
  184.0750  178.6420  145.4150 C   0  0  0  0  0  2  0  0  0  0  0  0
  186.6000  177.8020  146.3480 C   0  0  0  0  0  0  0  0  0  0  0  0
  188.0700  176.8460  146.4840 S   0  0  0  0  0  0  0  0  0  0  0  0
  191.5580  171.0470  139.0950 C   0  0  0  0  0  3  0  0  0  0  0  0
  191.9930  169.8820  138.8910 O   0  0  0  0  0  0  0  0  0  0  0  0
  189.7040  171.7220  142.0480 N   0  0  0  0  0  2  0  0  0  0  0  0
  189.6870  172.0220  144.6380 C   0  0  0  0  0  3  0  0  0  0  0  0
  189.6960  171.8810  143.4410 C   0  0  0  0  0  0  0  0  0  0  0  0
  195.1730  175.4730  140.0710 N   0  0  0  0  0  2  0  0  0  0  0  0
  196.3080  175.4470  140.9810 C   0  0  0  0  0  2  0  0  0  0  0  0
  196.4400  176.7900  141.6820 C   0  0  0  0  0  2  0  0  0  0  0  0
  196.6020  174.6450  144.4800 N   0  0  0  0  0  0  0  0  0  0  0  0
  195.6470  176.7320  143.9870 N   0  0  0  0  0  2  0  0  0  0  0  0
  194.3600  175.2800  145.8350 S   0  0  0  0  0  0  0  0  0  0  0  0
  195.5690  175.5600  144.7710 C   0  0  0  0  0  0  0  0  0  0  0  0
  197.3950  175.1890  143.3950 C   0  0  0  0  0  2  0  0  0  0  0  0
  196.8300  176.6040  143.1430 C   0  0  1  0  0  3  0  0  0  0  0  0
  196.6740  173.2630  144.9250 C   0  0  0  0  0  2  0  0  0  0  0  0
  194.8110  171.6060  144.5270 C   0  0  0  0  0  0  0  0  0  0  0  0
  194.5210  171.6060  145.7550 O   0  0  0  0  0  0  0  0  0  0  0  0
  195.8830  172.4210  144.0410 N   0  0  0  0  0  2  0  0  0  0  0  0
  194.0410  170.7720  143.5940 C   0  0  0  0  0  0  0  0  0  0  0  0
  192.8090  170.1880  144.0050 N   0  0  0  0  0  1  0  0  0  0  0  0
  194.4620  170.5770  142.4240 O   0  0  0  0  0  0  0  0  0  0  0  0
  1  9  2  0  0  0  0
  1 11  1  0  0  0  0
  2  8  2  0  0  0  0
  3 14  1  0  0  0  0
  3 13  1  0  0  0  0
  3 28  1  1  0  0  0
  4  6  1  6  0  0  0
  4  2  1  0  0  0  0
  5  7  1  0  0  0  0
  6 31  1  0  0  0  0
  8  9  1  0  0  0  0
  9  5  1  0  0  0  0
 10 12  1  0  0  0  0
 10 15  2  0  0  0  0
 11  7  2  0  0  0  0
 12  6  2  0  0  0  0
 13  1  1  0  0  0  0
 14  8  1  6  0  0  0
 16 15  1  6  0  0  0
 16  4  1  0  0  0  0
 16 14  1  0  0  0  0
 18 24  1  0  0  0  0
 19 18  1  0  0  0  0
 19 23  1  0  0  0  0
 20 17  1  0  0  0  0
 21  7  1  6  0  0  0
 21 25  1  0  0  0  0
 22 21  1  0  0  0  0
 22 18  1  0  0  0  0
 23 20  1  0  0  0  0
 24 25  1  0  0  0  0
 24 17  2  0  0  0  0
 26 15  1  0  0  0  0
 27 26  2  0  0  0  0
 28 30  1  0  0  0  0
 30 29  3  0  0  0  0
 31 32  1  0  0  0  0
 32 33  1  0  0  0  0
 34 37  1  0  0  0  0
 34 40  1  0  0  0  0
 35 37  1  0  0  0  0
 37 36  2  0  0  0  0
 38 34  1  0  0  0  0
 39 33  1  6  0  0  0
 39 38  1  0  0  0  0
 39 35  1  0  0  0  0
 41 42  2  0  0  0  0
 43 41  1  0  0  0  0
 43 40  1  0  0  0  0
 44 45  1  0  0  0  0
 44 41  1  0  0  0  0
 46 44  2  0  0  0  0
M  END
>  <MODEL>
6

>  <REMARK>
 VINA RESULT:      -6.6      2.072      3.588
  Name = 
  11 active torsions:
  status: ('A' for Active; 'I' for Inactive)
    1  A    between atoms: C_5  and  N_11
    2  A    between atoms: N_6  and  C_15
    3  A    between atoms: C_9  and  C_40
    4  A    between atoms: C_10  and  N_11
    5  A    between atoms: C_12  and  C_13
    6  A    between atoms: C_15  and  N_41
    7  A    between atoms: C_19  and  C_36
    8  A    between atoms: C_19  and  C_44
    9  A    between atoms: N_20  and  C_22
   10  A    between atoms: N_20  and  C_36
   11  A    between atoms: C_23  and  C_33
                            x       y       z     vdW  Elec       q    Type
                         _______ _______ _______ _____ _____    ______ ____

>  <TORSDO>
F 11

$$$$
=
 OpenBabel11042415423D

 46 52  0  0  1  0  0  0  0  0999 V2000
  191.7810  174.6990  144.6060 C   0  0  0  0  0  0  0  0  0  0  0  0
  193.9740  175.9610  141.9650 N   0  0  0  0  0  0  0  0  0  0  0  0
  194.2310  174.0950  145.1400 C   0  0  1  0  0  3  0  0  0  0  0  0
  195.4010  175.6430  141.8930 C   0  0  2  0  0  3  0  0  0  0  0  0
  190.8380  176.3550  142.9710 S   0  0  0  0  0  0  0  0  0  0  0  0
  195.7590  174.8440  140.6620 C   0  0  0  0  0  0  0  0  0  0  0  0
  189.8090  175.6290  144.0980 C   0  0  0  0  0  0  0  0  0  0  0  0
  193.5490  175.5490  143.1130 C   0  0  0  0  0  0  0  0  0  0  0  0
  192.1670  175.5130  143.5550 C   0  0  0  0  0  0  0  0  0  0  0  0
  197.2310  173.4020  142.0440 C   0  0  0  0  0  3  0  0  0  0  0  0
  190.4580  174.7510  144.9020 N   0  0  0  0  0  0  0  0  0  0  0  0
  196.6650  173.8490  140.7450 C   0  0  0  0  0  3  0  0  0  0  0  0
  192.7300  173.7030  145.2400 C   0  0  0  0  0  2  0  0  0  0  0  0
  194.5460  174.8370  143.8650 C   0  0  2  0  0  3  0  0  0  0  0  0
  196.7520  173.8680  143.2060 C   0  0  0  0  0  0  0  0  0  0  0  0
  195.6490  174.8390  143.1380 C   0  0  1  0  0  3  0  0  0  0  0  0
  186.2360  179.0310  144.7010 C   0  0  0  0  0  3  0  0  0  0  0  0
  186.9490  176.9680  145.7020 N   0  0  0  0  0  0  0  0  0  0  0  0
  186.2460  177.2210  146.9590 C   0  0  0  0  0  2  0  0  0  0  0  0
  185.4330  179.3470  145.9310 C   0  0  0  0  0  2  0  0  0  0  0  0
  188.3500  175.9110  144.1970 C   0  0  1  0  0  3  0  0  0  0  0  0
  187.9490  175.9910  145.6100 N   0  0  0  0  0  2  0  0  0  0  0  0
  186.0760  178.7250  147.1730 C   0  0  0  0  0  2  0  0  0  0  0  0
  186.8770  177.8660  144.6090 C   0  0  0  0  0  0  0  0  0  0  0  0
  187.9370  177.4460  143.2700 S   0  0  0  0  0  0  0  0  0  0  0  0
  197.2690  173.3890  144.4940 C   0  0  0  0  0  3  0  0  0  0  0  0
  197.8790  174.1590  145.2830 O   0  0  0  0  0  0  0  0  0  0  0  0
  194.6060  174.9220  146.2760 N   0  0  0  0  0  2  0  0  0  0  0  0
  194.5570  177.5240  146.1280 C   0  0  0  0  0  3  0  0  0  0  0  0
  194.5790  176.3200  146.1940 C   0  0  0  0  0  0  0  0  0  0  0  0
  195.2490  175.2650  139.3940 N   0  0  0  0  0  2  0  0  0  0  0  0
  194.7280  174.3490  138.3910 C   0  0  0  0  0  2  0  0  0  0  0  0
  193.2080  174.3520  138.4270 C   0  0  0  0  0  2  0  0  0  0  0  0
  190.4100  172.3580  139.2380 N   0  0  0  0  0  0  0  0  0  0  0  0
  192.4500  172.9240  140.2520 N   0  0  0  0  0  2  0  0  0  0  0  0
  190.4350  172.3840  141.9340 S   0  0  0  0  0  0  0  0  0  0  0  0
  191.1080  172.5340  140.4510 C   0  0  0  0  0  0  0  0  0  0  0  0
  191.3010  172.7090  138.1500 C   0  0  0  0  0  2  0  0  0  0  0  0
  192.6710  172.9790  138.8110 C   0  0  1  0  0  3  0  0  0  0  0  0
  188.9720  172.1980  139.0910 C   0  0  0  0  0  2  0  0  0  0  0  0
  188.1080  174.4170  138.2500 C   0  0  0  0  0  0  0  0  0  0  0  0
  188.1890  174.9110  139.4090 O   0  0  0  0  0  0  0  0  0  0  0  0
  188.4900  173.0570  138.0200 N   0  0  0  0  0  2  0  0  0  0  0  0
  187.6260  175.2440  137.1360 C   0  0  0  0  0  0  0  0  0  0  0  0
  188.4090  175.3810  135.9550 N   0  0  0  0  0  1  0  0  0  0  0  0
  186.5150  175.8300  137.2170 O   0  0  0  0  0  0  0  0  0  0  0  0
  1 11  1  0  0  0  0
  1 13  1  0  0  0  0
  2  8  2  0  0  0  0
  3 13  1  0  0  0  0
  3 28  1  1  0  0  0
  4  6  1  6  0  0  0
  4  2  1  0  0  0  0
  4 16  1  0  0  0  0
  5  9  1  0  0  0  0
  5  7  1  0  0  0  0
  6 12  2  0  0  0  0
  7 11  2  0  0  0  0
  8  9  1  0  0  0  0
  9  1  2  0  0  0  0
 10 15  2  0  0  0  0
 12 10  1  0  0  0  0
 14  8  1  6  0  0  0
 14  3  1  0  0  0  0
 15 26  1  0  0  0  0
 16 15  1  6  0  0  0
 16 14  1  0  0  0  0
 17 20  1  0  0  0  0
 18 19  1  0  0  0  0
 19 23  1  0  0  0  0
 20 23  1  0  0  0  0
 21  7  1  1  0  0  0
 21 22  1  0  0  0  0
 22 18  1  0  0  0  0
 24 17  2  0  0  0  0
 24 18  1  0  0  0  0
 25 21  1  0  0  0  0
 25 24  1  0  0  0  0
 26 27  2  0  0  0  0
 29 30  3  0  0  0  0
 30 28  1  0  0  0  0
 31  6  1  0  0  0  0
 32 33  1  0  0  0  0
 32 31  1  0  0  0  0
 34 37  1  0  0  0  0
 35 37  1  0  0  0  0
 37 36  2  0  0  0  0
 38 39  1  0  0  0  0
 38 34  1  0  0  0  0
 39 33  1  1  0  0  0
 39 35  1  0  0  0  0
 40 34  1  0  0  0  0
 41 42  2  0  0  0  0
 43 41  1  0  0  0  0
 43 40  1  0  0  0  0
 44 46  2  0  0  0  0
 44 41  1  0  0  0  0
 45 44  1  0  0  0  0
M  END
>  <MODEL>
7

>  <REMARK>
 VINA RESULT:      -6.5      2.853      6.409
  Name = 
  11 active torsions:
  status: ('A' for Active; 'I' for Inactive)
    1  A    between atoms: C_5  and  N_11
    2  A    between atoms: N_6  and  C_15
    3  A    between atoms: C_9  and  C_40
    4  A    between atoms: C_10  and  N_11
    5  A    between atoms: C_12  and  C_13
    6  A    between atoms: C_15  and  N_41
    7  A    between atoms: C_19  and  C_36
    8  A    between atoms: C_19  and  C_44
    9  A    between atoms: N_20  and  C_22
   10  A    between atoms: N_20  and  C_36
   11  A    between atoms: C_23  and  C_33
                            x       y       z     vdW  Elec       q    Type
                         _______ _______ _______ _____ _____    ______ ____

>  <TORSDO>
F 11

$$$$
=
 OpenBabel11042415423D

 46 52  0  0  1  0  0  0  0  0999 V2000
  191.0720  174.8690  144.4210 C   0  0  0  0  0  0  0  0  0  0  0  0
  193.9140  176.2150  142.5550 N   0  0  0  0  0  0  0  0  0  0  0  0
  193.2780  174.0790  145.4980 C   0  0  1  0  0  3  0  0  0  0  0  0
  195.2990  175.8210  142.8170 C   0  0  2  0  0  3  0  0  0  0  0  0
  190.6410  176.7080  142.7660 S   0  0  0  0  0  0  0  0  0  0  0  0
  195.9330  175.1070  141.6460 C   0  0  0  0  0  0  0  0  0  0  0  0
  189.3310  175.9530  143.5220 C   0  0  0  0  0  0  0  0  0  0  0  0
  193.1930  175.7350  143.5120 C   0  0  0  0  0  0  0  0  0  0  0  0
  191.7440  175.7440  143.5850 C   0  0  0  0  0  0  0  0  0  0  0  0
  196.9470  173.4710  143.2100 C   0  0  0  0  0  3  0  0  0  0  0  0
  189.7200  174.9750  144.3760 N   0  0  0  0  0  0  0  0  0  0  0  0
  196.7510  174.0560  141.8590 C   0  0  0  0  0  3  0  0  0  0  0  0
  191.7890  173.7700  145.1760 C   0  0  0  0  0  2  0  0  0  0  0  0
  193.9360  174.9050  144.4210 C   0  0  2  0  0  3  0  0  0  0  0  0
  196.2020  173.8660  144.2530 C   0  0  0  0  0  0  0  0  0  0  0  0
  195.1890  174.9020  144.0010 C   0  0  1  0  0  3  0  0  0  0  0  0
  185.8540  179.5050  143.4930 C   0  0  0  0  0  3  0  0  0  0  0  0
  186.2090  177.3380  144.4630 N   0  0  0  0  0  0  0  0  0  0  0  0
  185.2190  177.5390  145.5190 C   0  0  0  0  0  2  0  0  0  0  0  0
  184.7760  179.7780  144.5040 C   0  0  0  0  0  2  0  0  0  0  0  0
  187.9060  176.3110  143.2750 C   0  0  1  0  0  3  0  0  0  0  0  0
  187.1620  176.3130  144.5430 N   0  0  0  0  0  2  0  0  0  0  0  0
  185.0580  179.0310  145.8110 C   0  0  0  0  0  2  0  0  0  0  0  0
  186.4530  178.3140  143.4670 C   0  0  0  0  0  0  0  0  0  0  0  0
  187.8020  177.9310  142.4070 S   0  0  0  0  0  0  0  0  0  0  0  0
  196.3530  173.2520  145.5770 C   0  0  0  0  0  3  0  0  0  0  0  0
  197.0620  173.7860  146.4720 O   0  0  0  0  0  0  0  0  0  0  0  0
  193.3770  174.7850  146.7650 N   0  0  0  0  0  2  0  0  0  0  0  0
  191.4480  176.3260  147.6010 C   0  0  0  0  0  3  0  0  0  0  0  0
  192.3420  175.6160  147.2140 C   0  0  0  0  0  0  0  0  0  0  0  0
  195.7820  175.6620  140.3360 N   0  0  0  0  0  2  0  0  0  0  0  0
  196.1840  174.9740  139.1190 C   0  0  0  0  0  2  0  0  0  0  0  0
  195.0410  174.9860  138.1150 C   0  0  0  0  0  2  0  0  0  0  0  0
  193.2280  172.7970  140.2070 N   0  0  0  0  0  0  0  0  0  0  0  0
  195.0280  172.6220  138.7100 N   0  0  0  0  0  2  0  0  0  0  0  0
  195.0300  170.8600  140.7290 S   0  0  0  0  0  0  0  0  0  0  0  0
  194.4030  172.0960  139.8610 C   0  0  0  0  0  0  0  0  0  0  0  0
  193.0730  173.9020  139.2820 C   0  0  0  0  0  2  0  0  0  0  0  0
  194.1970  173.7250  138.2370 C   0  0  1  0  0  3  0  0  0  0  0  0
  192.4900  172.6700  141.4530 C   0  0  0  0  0  2  0  0  0  0  0  0
  189.9730  172.4690  141.4950 C   0  0  0  0  0  0  0  0  0  0  0  0
  190.0550  171.2530  141.8210 O   0  0  0  0  0  0  0  0  0  0  0  0
  191.1610  173.2430  141.2970 N   0  0  0  0  0  2  0  0  0  0  0  0
  188.6540  173.0930  141.3250 C   0  0  0  0  0  0  0  0  0  0  0  0
  188.4790  174.1590  140.3980 N   0  0  0  0  0  1  0  0  0  0  0  0
  187.6690  172.6830  141.9940 O   0  0  0  0  0  0  0  0  0  0  0  0
  1 13  1  0  0  0  0
  2  4  1  0  0  0  0
  2  8  2  0  0  0  0
  3 28  1  1  0  0  0
  4  6  1  6  0  0  0
  4 16  1  0  0  0  0
  5  7  1  0  0  0  0
  5  9  1  0  0  0  0
  6 12  2  0  0  0  0
  7 11  2  0  0  0  0
  8  9  1  0  0  0  0
  9  1  2  0  0  0  0
 10 15  2  0  0  0  0
 11  1  1  0  0  0  0
 12 10  1  0  0  0  0
 13  3  1  0  0  0  0
 14  8  1  6  0  0  0
 14  3  1  0  0  0  0
 15 26  1  0  0  0  0
 16 15  1  6  0  0  0
 16 14  1  0  0  0  0
 17 20  1  0  0  0  0
 18 22  1  0  0  0  0
 18 19  1  0  0  0  0
 19 23  1  0  0  0  0
 20 23  1  0  0  0  0
 21  7  1  1  0  0  0
 21 22  1  0  0  0  0
 24 17  2  0  0  0  0
 24 18  1  0  0  0  0
 25 21  1  0  0  0  0
 25 24  1  0  0  0  0
 26 27  2  0  0  0  0
 28 30  1  0  0  0  0
 30 29  3  0  0  0  0
 31  6  1  0  0  0  0
 32 31  1  0  0  0  0
 33 32  1  0  0  0  0
 34 40  1  0  0  0  0
 35 37  1  0  0  0  0
 37 34  1  0  0  0  0
 37 36  2  0  0  0  0
 38 34  1  0  0  0  0
 39 33  1  1  0  0  0
 39 35  1  0  0  0  0
 39 38  1  0  0  0  0
 41 42  2  0  0  0  0
 43 40  1  0  0  0  0
 43 41  1  0  0  0  0
 44 41  1  0  0  0  0
 44 46  2  0  0  0  0
 45 44  1  0  0  0  0
M  END
>  <MODEL>
8

>  <REMARK>
 VINA RESULT:      -6.5      2.629      5.432
  Name = 
  11 active torsions:
  status: ('A' for Active; 'I' for Inactive)
    1  A    between atoms: C_5  and  N_11
    2  A    between atoms: N_6  and  C_15
    3  A    between atoms: C_9  and  C_40
    4  A    between atoms: C_10  and  N_11
    5  A    between atoms: C_12  and  C_13
    6  A    between atoms: C_15  and  N_41
    7  A    between atoms: C_19  and  C_36
    8  A    between atoms: C_19  and  C_44
    9  A    between atoms: N_20  and  C_22
   10  A    between atoms: N_20  and  C_36
   11  A    between atoms: C_23  and  C_33
                            x       y       z     vdW  Elec       q    Type
                         _______ _______ _______ _____ _____    ______ ____

>  <TORSDO>
F 11

$$$$
=
 OpenBabel11042415423D

 46 52  0  0  1  0  0  0  0  0999 V2000
  188.8950  174.8150  141.6680 C   0  0  0  0  0  0  0  0  0  0  0  0
  190.1890  176.9130  144.3690 N   0  0  0  0  0  0  0  0  0  0  0  0
  187.0920  176.5070  142.4010 C   0  0  1  0  0  3  0  0  0  0  0  0
  189.3570  177.8620  145.1100 C   0  0  2  0  0  3  0  0  0  0  0  0
  191.3640  174.7780  142.1210 S   0  0  0  0  0  0  0  0  0  0  0  0
  189.2250  177.5040  146.5730 C   0  0  0  0  0  0  0  0  0  0  0  0
  190.7140  173.6980  140.9940 C   0  0  0  0  0  0  0  0  0  0  0  0
  189.4940  176.5040  143.3610 C   0  0  0  0  0  0  0  0  0  0  0  0
  189.8570  175.4410  142.4420 C   0  0  0  0  0  0  0  0  0  0  0  0
  186.8080  178.0520  146.4750 C   0  0  0  0  0  3  0  0  0  0  0  0
  189.3710  173.8290  140.8670 N   0  0  0  0  0  0  0  0  0  0  0  0
  188.0440  177.6650  147.2030 C   0  0  0  0  0  3  0  0  0  0  0  0
  187.4170  175.0920  141.8460 C   0  0  0  0  0  2  0  0  0  0  0  0
  188.1440  177.0010  143.3620 C   0  0  2  0  0  3  0  0  0  0  0  0
  186.7800  178.1100  145.1360 C   0  0  0  0  0  0  0  0  0  0  0  0
  188.0230  177.7790  144.4230 C   0  0  1  0  0  3  0  0  0  0  0  0
  191.3270  171.1900  136.7460 C   0  0  0  0  0  3  0  0  0  0  0  0
  191.1090  170.7350  139.0930 N   0  0  0  0  0  0  0  0  0  0  0  0
  190.7150  169.3420  138.8870 C   0  0  0  0  0  2  0  0  0  0  0  0
  190.9910  169.7580  136.4400 C   0  0  0  0  0  2  0  0  0  0  0  0
  191.5200  172.7070  140.2280 C   0  0  1  0  0  3  0  0  0  0  0  0
  190.9010  171.3760  140.3220 N   0  0  0  0  0  2  0  0  0  0  0  0
  190.0660  169.1770  137.5130 C   0  0  0  0  0  2  0  0  0  0  0  0
  191.4410  171.5880  138.0130 C   0  0  0  0  0  0  0  0  0  0  0  0
  191.7130  173.2600  138.4830 S   0  0  0  0  0  0  0  0  0  0  0  0
  185.5470  178.4370  144.4100 C   0  0  0  0  0  3  0  0  0  0  0  0
  184.5210  177.7110  144.4990 O   0  0  0  0  0  0  0  0  0  0  0  0
  186.9660  177.4540  141.3060 N   0  0  0  0  0  2  0  0  0  0  0  0
  184.6280  178.2900  140.5130 C   0  0  0  0  0  3  0  0  0  0  0  0
  185.7100  177.9060  140.8790 C   0  0  0  0  0  0  0  0  0  0  0  0
  190.4030  177.1520  147.3050 N   0  0  0  0  0  2  0  0  0  0  0  0
  191.0880  175.8770  147.1620 C   0  0  0  0  0  2  0  0  0  0  0  0
  192.3380  176.0510  146.3140 C   0  0  0  0  0  2  0  0  0  0  0  0
  195.2770  174.3920  145.2810 N   0  0  0  0  0  0  0  0  0  0  0  0
  193.0090  173.8400  145.5390 N   0  0  0  0  0  2  0  0  0  0  0  0
  194.3220  172.4770  143.6410 S   0  0  0  0  0  0  0  0  0  0  0  0
  194.2130  173.5700  144.8520 C   0  0  0  0  0  0  0  0  0  0  0  0
  194.7600  175.3190  146.2690 C   0  0  0  0  0  2  0  0  0  0  0  0
  193.2980  174.8870  146.5140 C   0  0  1  0  0  3  0  0  0  0  0  0
  196.5650  174.5400  144.6250 C   0  0  0  0  0  2  0  0  0  0  0  0
  196.8010  175.0650  142.1660 C   0  0  0  0  0  0  0  0  0  0  0  0
  197.2370  173.9030  141.9390 O   0  0  0  0  0  0  0  0  0  0  0  0
  196.4410  175.4500  143.4970 N   0  0  0  0  0  2  0  0  0  0  0  0
  196.6570  176.0200  141.0600 C   0  0  0  0  0  0  0  0  0  0  0  0
  197.0940  175.6710  139.7500 N   0  0  0  0  0  1  0  0  0  0  0  0
  196.1410  177.1500  141.2630 O   0  0  0  0  0  0  0  0  0  0  0  0
  1 13  1  0  0  0  0
  1  9  2  0  0  0  0
  3 28  1  6  0  0  0
  3 14  1  0  0  0  0
  4  2  1  6  0  0  0
  4  6  1  0  0  0  0
  5  9  1  0  0  0  0
  6 12  2  0  0  0  0
  6 31  1  0  0  0  0
  7  5  1  0  0  0  0
  8  2  2  0  0  0  0
  9  8  1  0  0  0  0
 10 12  1  0  0  0  0
 11  7  2  0  0  0  0
 11  1  1  0  0  0  0
 13  3  1  0  0  0  0
 14  8  1  1  0  0  0
 14 16  1  0  0  0  0
 15 10  2  0  0  0  0
 16  4  1  0  0  0  0
 16 15  1  1  0  0  0
 17 24  2  0  0  0  0
 18 22  1  0  0  0  0
 19 18  1  0  0  0  0
 20 17  1  0  0  0  0
 20 23  1  0  0  0  0
 21 22  1  0  0  0  0
 21  7  1  1  0  0  0
 23 19  1  0  0  0  0
 24 25  1  0  0  0  0
 24 18  1  0  0  0  0
 25 21  1  0  0  0  0
 26 27  2  0  0  0  0
 26 15  1  0  0  0  0
 29 30  3  0  0  0  0
 30 28  1  0  0  0  0
 32 31  1  0  0  0  0
 33 32  1  0  0  0  0
 34 38  1  0  0  0  0
 35 39  1  0  0  0  0
 36 37  2  0  0  0  0
 37 34  1  0  0  0  0
 37 35  1  0  0  0  0
 38 39  1  0  0  0  0
 39 33  1  6  0  0  0
 40 34  1  0  0  0  0
 41 43  1  0  0  0  0
 42 41  2  0  0  0  0
 43 40  1  0  0  0  0
 44 46  2  0  0  0  0
 44 41  1  0  0  0  0
 45 44  1  0  0  0  0
M  END
>  <MODEL>
9

>  <REMARK>
 VINA RESULT:      -6.5      2.865      7.570
  Name = 
  11 active torsions:
  status: ('A' for Active; 'I' for Inactive)
    1  A    between atoms: C_5  and  N_11
    2  A    between atoms: N_6  and  C_15
    3  A    between atoms: C_9  and  C_40
    4  A    between atoms: C_10  and  N_11
    5  A    between atoms: C_12  and  C_13
    6  A    between atoms: C_15  and  N_41
    7  A    between atoms: C_19  and  C_36
    8  A    between atoms: C_19  and  C_44
    9  A    between atoms: N_20  and  C_22
   10  A    between atoms: N_20  and  C_36
   11  A    between atoms: C_23  and  C_33
                            x       y       z     vdW  Elec       q    Type
                         _______ _______ _______ _____ _____    ______ ____

>  <TORSDO>
F 11

$$$$
