=
 OpenBabel11042416473D

 37 43  0  0  1  0  0  0  0  0999 V2000
  188.4940  176.8680  145.0240 C   0  0  0  0  0  0  0  0  0  0  0  0
  184.0780  178.7380  145.1550 N   0  0  0  0  0  0  0  0  0  0  0  0
  185.2620  178.3730  147.2040 C   0  0  0  0  0  3  0  0  0  0  0  0
  186.5410  175.9060  142.6690 C   0  0  0  0  0  2  0  0  0  0  0  0
  189.9800  175.0150  144.1970 C   0  0  0  0  0  2  0  0  0  0  0  0
  188.9260  176.7400  142.7070 N   0  0  1  0  0  0  0  0  0  0  0  0
  192.0580  175.6860  145.3120 N   0  0  0  0  0  0  0  0  0  0  0  0
  184.1280  178.8140  146.5140 C   0  0  0  0  0  3  0  0  0  0  0  0
  187.3610  177.2500  144.3640 C   0  0  0  0  0  0  0  0  0  0  0  0
  188.5880  176.9280  146.4200 C   0  0  0  0  0  3  0  0  0  0  0  0
  186.2700  177.7820  145.0720 C   0  0  0  0  0  0  0  0  0  0  0  0
  187.4840  177.0560  142.8820 C   0  0  1  0  0  0  0  0  0  0  0  0
  190.8830  174.8260  145.4180 C   0  0  0  0  0  2  0  0  0  0  0  0
  189.5350  176.4870  144.0380 C   0  0  1  0  0  0  0  0  0  0  0  0
  186.3400  177.8560  146.4840 C   0  0  0  0  0  0  0  0  0  0  0  0
  187.4950  177.4170  147.1500 C   0  0  0  0  0  3  0  0  0  0  0  0
  185.1120  178.2340  144.4260 C   0  0  0  0  0  3  0  0  0  0  0  0
  191.6080  177.0750  145.3840 C   0  0  0  0  0  2  0  0  0  0  0  0
  190.7540  177.4150  144.1630 C   0  0  0  0  0  2  0  0  0  0  0  0
  187.9690  175.7050  142.3050 C   0  0  2  0  0  0  0  0  0  0  0  0
  187.9870  175.6720  140.8520 N   0  0  0  0  0  2  0  0  0  0  0  0
  188.9300  174.6400  140.4480 C   0  0  0  0  0  2  0  0  0  0  0  0
  188.3800  173.2600  140.7720 C   0  0  1  0  0  3  0  0  0  0  0  0
  188.2190  172.4280  139.5100 C   0  0  0  0  0  1  0  0  0  0  0  0
  190.6980  172.5940  141.5530 N   0  0  0  0  0  2  0  0  0  0  0  0
  191.6730  171.9750  142.4010 C   0  0  0  0  0  0  0  0  0  0  0  0
  191.3320  171.4000  143.5050 N   0  0  0  0  0  2  0  0  0  0  0  0
  189.2740  172.5600  141.7400 C   0  0  0  0  0  0  0  0  0  0  0  0
  193.1060  172.0280  142.0220 C   0  0  0  0  0  1  0  0  0  0  0  0
  188.7610  171.9290  142.7030 O   0  0  0  0  0  0  0  0  0  0  0  0
  192.8490  175.4450  146.5070 C   0  0  0  0  0  2  0  0  0  0  0  0
  194.3200  175.2680  146.1630 C   0  0  1  0  0  3  0  0  0  0  0  0
  194.4790  174.2140  145.0640 C   0  0  0  0  0  3  0  0  0  0  0  0
  195.4570  173.1080  145.4310 C   0  0  0  0  0  2  0  0  0  0  0  0
  193.9730  172.8890  145.5980 C   0  0  0  0  0  2  0  0  0  0  0  0
  195.3010  176.3100  144.4770 C   0  0  0  0  0  1  0  0  0  0  0  0
  194.8450  176.5020  145.7810 O   0  0  0  0  0  0  0  0  0  0  0  0
  1 10  1  0  0  0  0
  2  8  1  0  0  0  0
  4 12  1  0  0  0  0
  5 13  1  0  0  0  0
  6 12  1  0  0  0  0
  6 14  1  0  0  0  0
  7 18  1  0  0  0  0
  7 13  1  0  0  0  0
  7 31  1  0  0  0  0
  8  3  2  0  0  0  0
  9  1  2  0  0  0  0
  9 11  1  0  0  0  0
 10 16  2  0  0  0  0
 11 15  2  0  0  0  0
 12  9  1  0  0  0  0
 14 19  1  0  0  0  0
 14  5  1  0  0  0  0
 14  1  1  0  0  0  0
 15 16  1  0  0  0  0
 15  3  1  0  0  0  0
 17 11  1  0  0  0  0
 17  2  2  0  0  0  0
 19 18  1  0  0  0  0
 20  4  1  0  0  0  0
 20  6  1  0  0  0  0
 20 12  1  0  0  0  0
 21 20  1  0  0  0  0
 22 23  1  0  0  0  0
 22 21  1  0  0  0  0
 23 28  1  0  0  0  0
 24 23  1  0  0  0  0
 25 28  1  0  0  0  0
 25 26  1  0  0  0  0
 26 27  2  0  0  0  0
 28 30  2  0  0  0  0
 29 26  1  0  0  0  0
 32 31  1  0  0  0  0
 33 34  1  0  0  0  0
 33 35  1  0  0  0  0
 33 32  1  0  0  0  0
 34 35  1  0  0  0  0
 36 37  1  0  0  0  0
 37 32  1  0  0  0  0
M  END
>  <MODEL>
1

>  <REMARK>
 VINA RESULT:      -7.8      0.000      0.000
  Name = 
  8 active torsions:
  status: ('A' for Active; 'I' for Inactive)
    1  A    between atoms: C_3  and  C_17
    2  A    between atoms: C_3  and  C_28
    3  A    between atoms: N_7  and  C_28
    4  A    between atoms: N_7  and  C_31
    5  A    between atoms: C_12  and  C_19
    6  A    between atoms: N_14  and  C_34
    7  A    between atoms: C_19  and  C_34
    8  A    between atoms: C_19  and  O_35
                            x       y       z     vdW  Elec       q    Type
                         _______ _______ _______ _____ _____    ______ ____

>  <TORSDO>
F 8

$$$$
=
 OpenBabel11042416473D

 37 43  0  0  1  0  0  0  0  0999 V2000
  188.1530  177.2800  144.0460 C   0  0  0  0  0  0  0  0  0  0  0  0
  184.1350  178.9070  146.1030 N   0  0  0  0  0  0  0  0  0  0  0  0
  185.8050  177.8510  147.4560 C   0  0  0  0  0  3  0  0  0  0  0  0
  185.5430  177.1930  142.1840 C   0  0  0  0  0  2  0  0  0  0  0  0
  189.1770  175.8700  142.2310 C   0  0  0  0  0  2  0  0  0  0  0  0
  187.9090  177.9970  141.8100 N   0  0  1  0  0  0  0  0  0  0  0  0
  191.5340  176.1310  142.8500 N   0  0  0  0  0  0  0  0  0  0  0  0
  184.5680  178.4920  147.3260 C   0  0  0  0  0  3  0  0  0  0  0  0
  186.9210  177.8540  143.9210 C   0  0  0  0  0  0  0  0  0  0  0  0
  188.6370  176.8370  145.2830 C   0  0  0  0  0  3  0  0  0  0  0  0
  186.1220  178.0800  145.0560 C   0  0  0  0  0  0  0  0  0  0  0  0
  186.6070  178.2060  142.4970 C   0  0  1  0  0  0  0  0  0  0  0  0
  190.3630  175.2710  142.9900 C   0  0  0  0  0  2  0  0  0  0  0  0
  188.8400  177.2940  142.7310 C   0  0  1  0  0  0  0  0  0  0  0  0
  186.5890  177.6440  146.3200 C   0  0  0  0  0  0  0  0  0  0  0  0
  187.8400  177.0140  146.4230 C   0  0  0  0  0  3  0  0  0  0  0  0
  184.8750  178.7140  144.9760 C   0  0  0  0  0  3  0  0  0  0  0  0
  191.2500  177.3940  143.5280 C   0  0  0  0  0  2  0  0  0  0  0  0
  190.1230  178.1350  142.8070 C   0  0  0  0  0  2  0  0  0  0  0  0
  186.7890  177.1600  141.3730 C   0  0  2  0  0  0  0  0  0  0  0  0
  186.3980  177.6500  140.0610 N   0  0  0  0  0  2  0  0  0  0  0  0
  187.3370  177.1050  139.0920 C   0  0  0  0  0  2  0  0  0  0  0  0
  186.7530  175.8770  138.4140 C   0  0  1  0  0  3  0  0  0  0  0  0
  186.0970  176.2440  137.0920 C   0  0  0  0  0  1  0  0  0  0  0  0
  188.3360  174.1130  139.3130 N   0  0  0  0  0  2  0  0  0  0  0  0
  189.3470  173.0990  139.2520 C   0  0  0  0  0  0  0  0  0  0  0  0
  189.8110  172.6840  138.1220 N   0  0  0  0  0  2  0  0  0  0  0  0
  187.8130  174.8500  138.1960 C   0  0  0  0  0  0  0  0  0  0  0  0
  189.8430  172.4900  140.5100 C   0  0  0  0  0  1  0  0  0  0  0  0
  188.2510  174.6600  137.0300 O   0  0  0  0  0  0  0  0  0  0  0  0
  192.6020  175.4910  143.6000 C   0  0  0  0  0  2  0  0  0  0  0  0
  192.9400  176.2830  144.8540 C   0  0  1  0  0  3  0  0  0  0  0  0
  192.8660  175.3750  146.0850 C   0  0  0  0  0  3  0  0  0  0  0  0
  191.9660  175.9220  147.1810 C   0  0  0  0  0  2  0  0  0  0  0  0
  191.4420  174.8780  146.2260 C   0  0  0  0  0  2  0  0  0  0  0  0
  194.8940  175.9710  143.8680 C   0  0  0  0  0  1  0  0  0  0  0  0
  194.2040  176.8510  144.7000 O   0  0  0  0  0  0  0  0  0  0  0  0
  1 10  1  0  0  0  0
  2  8  1  0  0  0  0
  4 12  1  0  0  0  0
  5 14  1  0  0  0  0
  5 13  1  0  0  0  0
  6 12  1  0  0  0  0
  6 14  1  0  0  0  0
  7 13  1  0  0  0  0
  7 18  1  0  0  0  0
  7 31  1  0  0  0  0
  8  3  2  0  0  0  0
  9  1  2  0  0  0  0
  9 11  1  0  0  0  0
 10 16  2  0  0  0  0
 11 15  2  0  0  0  0
 12  9  1  0  0  0  0
 14 19  1  0  0  0  0
 14  1  1  0  0  0  0
 15 16  1  0  0  0  0
 15  3  1  0  0  0  0
 17 11  1  0  0  0  0
 17  2  2  0  0  0  0
 19 18  1  0  0  0  0
 20  6  1  0  0  0  0
 20  4  1  0  0  0  0
 20 12  1  0  0  0  0
 21 20  1  0  0  0  0
 22 21  1  0  0  0  0
 23 22  1  0  0  0  0
 24 23  1  0  0  0  0
 26 25  1  0  0  0  0
 26 29  1  0  0  0  0
 27 26  2  0  0  0  0
 28 23  1  0  0  0  0
 28 25  1  0  0  0  0
 30 28  2  0  0  0  0
 31 32  1  0  0  0  0
 32 33  1  0  0  0  0
 33 35  1  0  0  0  0
 33 34  1  0  0  0  0
 35 34  1  0  0  0  0
 36 37  1  0  0  0  0
 37 32  1  0  0  0  0
M  END
>  <MODEL>
2

>  <REMARK>
 VINA RESULT:      -7.6      2.137      2.824
  Name = 
  8 active torsions:
  status: ('A' for Active; 'I' for Inactive)
    1  A    between atoms: C_3  and  C_17
    2  A    between atoms: C_3  and  C_28
    3  A    between atoms: N_7  and  C_28
    4  A    between atoms: N_7  and  C_31
    5  A    between atoms: C_12  and  C_19
    6  A    between atoms: N_14  and  C_34
    7  A    between atoms: C_19  and  C_34
    8  A    between atoms: C_19  and  O_35
                            x       y       z     vdW  Elec       q    Type
                         _______ _______ _______ _____ _____    ______ ____

>  <TORSDO>
F 8

$$$$
=
 OpenBabel11042416473D

 37 43  0  0  1  0  0  0  0  0999 V2000
  189.8630  174.6610  142.8020 C   0  0  0  0  0  0  0  0  0  0  0  0
  188.7800  172.0590  138.9190 N   0  0  0  0  0  0  0  0  0  0  0  0
  190.9590  171.8670  139.8930 C   0  0  0  0  0  3  0  0  0  0  0  0
  187.7660  176.0250  140.7950 C   0  0  0  0  0  2  0  0  0  0  0  0
  189.9270  176.9380  143.8690 C   0  0  0  0  0  2  0  0  0  0  0  0
  187.8090  175.7120  143.3020 N   0  0  1  0  0  0  0  0  0  0  0  0
  190.9890  176.3190  145.9910 N   0  0  0  0  0  0  0  0  0  0  0  0
  190.0220  171.5000  138.9210 C   0  0  0  0  0  3  0  0  0  0  0  0
  188.9750  174.3380  141.8160 C   0  0  0  0  0  0  0  0  0  0  0  0
  191.1500  174.1120  142.8410 C   0  0  0  0  0  3  0  0  0  0  0  0
  189.3100  173.3830  140.8410 C   0  0  0  0  0  0  0  0  0  0  0  0
  187.6810  175.0830  141.9610 C   0  0  1  0  0  0  0  0  0  0  0  0
  191.2400  176.8360  144.6480 C   0  0  0  0  0  2  0  0  0  0  0  0
  189.2100  175.5710  143.7750 C   0  0  1  0  0  0  0  0  0  0  0  0
  190.6050  172.8110  140.8600 C   0  0  0  0  0  0  0  0  0  0  0  0
  191.5210  173.1880  141.8540 C   0  0  0  0  0  3  0  0  0  0  0  0
  188.4080  172.9850  139.8460 C   0  0  0  0  0  3  0  0  0  0  0  0
  190.5160  174.9410  145.8620 C   0  0  0  0  0  2  0  0  0  0  0  0
  189.1560  174.9160  145.1640 C   0  0  0  0  0  2  0  0  0  0  0  0
  187.6770  176.6170  142.1560 C   0  0  2  0  0  0  0  0  0  0  0  0
  186.3410  177.1840  142.2350 N   0  0  0  0  0  2  0  0  0  0  0  0
  186.4750  178.5640  142.6760 C   0  0  0  0  0  2  0  0  0  0  0  0
  185.1800  179.0510  143.3050 C   0  0  1  0  0  3  0  0  0  0  0  0
  183.9800  178.3350  142.7050 C   0  0  0  0  0  1  0  0  0  0  0  0
  186.4090  178.3620  145.4120 N   0  0  0  0  0  2  0  0  0  0  0  0
  186.5860  178.1290  146.8140 C   0  0  0  0  0  0  0  0  0  0  0  0
  185.6740  178.4520  147.6680 N   0  0  0  0  0  2  0  0  0  0  0  0
  185.2130  178.8510  144.7830 C   0  0  0  0  0  0  0  0  0  0  0  0
  187.8580  177.5370  147.2980 C   0  0  0  0  0  1  0  0  0  0  0  0
  184.1780  179.0970  145.4590 O   0  0  0  0  0  0  0  0  0  0  0  0
  192.2820  176.2510  146.6500 C   0  0  0  0  0  2  0  0  0  0  0  0
  193.2650  175.4170  145.8440 C   0  0  1  0  0  3  0  0  0  0  0  0
  194.6770  175.9930  145.9770 C   0  0  0  0  0  3  0  0  0  0  0  0
  195.1790  176.6550  144.7030 C   0  0  0  0  0  2  0  0  0  0  0  0
  194.5960  177.4970  145.8110 C   0  0  0  0  0  2  0  0  0  0  0  0
  193.8660  173.3590  145.3040 C   0  0  0  0  0  1  0  0  0  0  0  0
  193.1980  174.0950  146.2810 O   0  0  0  0  0  0  0  0  0  0  0  0
  1 10  1  0  0  0  0
  1 14  1  0  0  0  0
  2  8  2  0  0  0  0
  2 17  1  0  0  0  0
  3 15  2  0  0  0  0
  4 12  1  0  0  0  0
  4 20  1  0  0  0  0
  5 13  1  0  0  0  0
  6 14  1  0  0  0  0
  7 31  1  0  0  0  0
  8  3  1  0  0  0  0
  9 12  1  0  0  0  0
  9  1  2  0  0  0  0
 11 15  1  0  0  0  0
 11  9  1  0  0  0  0
 12 20  1  0  0  0  0
 12  6  1  0  0  0  0
 13  7  1  0  0  0  0
 14  5  1  0  0  0  0
 14 19  1  0  0  0  0
 15 16  1  0  0  0  0
 16 10  2  0  0  0  0
 17 11  2  0  0  0  0
 18  7  1  0  0  0  0
 19 18  1  0  0  0  0
 20 21  1  0  0  0  0
 20  6  1  0  0  0  0
 21 22  1  0  0  0  0
 22 23  1  0  0  0  0
 23 28  1  0  0  0  0
 24 23  1  0  0  0  0
 25 26  1  0  0  0  0
 26 29  1  0  0  0  0
 26 27  2  0  0  0  0
 28 25  1  0  0  0  0
 28 30  2  0  0  0  0
 32 33  1  0  0  0  0
 32 37  1  0  0  0  0
 32 31  1  0  0  0  0
 34 35  1  0  0  0  0
 34 33  1  0  0  0  0
 35 33  1  0  0  0  0
 36 37  1  0  0  0  0
M  END
>  <MODEL>
3

>  <REMARK>
 VINA RESULT:      -7.4      2.178      6.169
  Name = 
  8 active torsions:
  status: ('A' for Active; 'I' for Inactive)
    1  A    between atoms: C_3  and  C_17
    2  A    between atoms: C_3  and  C_28
    3  A    between atoms: N_7  and  C_28
    4  A    between atoms: N_7  and  C_31
    5  A    between atoms: C_12  and  C_19
    6  A    between atoms: N_14  and  C_34
    7  A    between atoms: C_19  and  C_34
    8  A    between atoms: C_19  and  O_35
                            x       y       z     vdW  Elec       q    Type
                         _______ _______ _______ _____ _____    ______ ____

>  <TORSDO>
F 8

$$$$
=
 OpenBabel11042416473D

 37 43  0  0  1  0  0  0  0  0999 V2000
  188.6250  176.7830  144.8500 C   0  0  0  0  0  0  0  0  0  0  0  0
  184.2280  178.7030  144.8420 N   0  0  0  0  0  0  0  0  0  0  0  0
  185.3960  178.4490  146.9160 C   0  0  0  0  0  3  0  0  0  0  0  0
  186.6750  175.7010  142.5450 C   0  0  0  0  0  2  0  0  0  0  0  0
  190.0960  174.8680  144.1450 C   0  0  0  0  0  2  0  0  0  0  0  0
  189.0680  176.5110  142.5470 N   0  0  1  0  0  0  0  0  0  0  0  0
  192.1740  175.5840  145.2300 N   0  0  0  0  0  0  0  0  0  0  0  0
  184.2710  178.8600  146.1940 C   0  0  0  0  0  3  0  0  0  0  0  0
  187.5000  177.1360  144.1620 C   0  0  0  0  0  0  0  0  0  0  0  0
  188.7120  176.9260  146.2400 C   0  0  0  0  0  3  0  0  0  0  0  0
  186.4100  177.7210  144.8290 C   0  0  0  0  0  0  0  0  0  0  0  0
  187.6280  176.8520  142.6940 C   0  0  1  0  0  0  0  0  0  0  0  0
  190.9900  174.7430  145.3810 C   0  0  0  0  0  2  0  0  0  0  0  0
  189.6670  176.3330  143.8950 C   0  0  1  0  0  0  0  0  0  0  0  0
  186.4730  177.8780  146.2350 C   0  0  0  0  0  0  0  0  0  0  0  0
  187.6200  177.4680  146.9330 C   0  0  0  0  0  3  0  0  0  0  0  0
  185.2600  178.1450  144.1510 C   0  0  0  0  0  3  0  0  0  0  0  0
  191.7390  176.9790  145.2170 C   0  0  0  0  0  2  0  0  0  0  0  0
  190.8940  177.2540  143.9710 C   0  0  0  0  0  2  0  0  0  0  0  0
  188.1020  175.4640  142.2020 C   0  0  2  0  0  0  0  0  0  0  0  0
  188.1280  175.3440  140.7540 N   0  0  0  0  0  2  0  0  0  0  0  0
  188.4520  173.9620  140.4340 C   0  0  0  0  0  2  0  0  0  0  0  0
  189.8580  173.8610  139.8670 C   0  0  1  0  0  3  0  0  0  0  0  0
  190.8020  173.2090  140.8650 C   0  0  0  0  0  1  0  0  0  0  0  0
  189.8870  171.6550  138.6180 N   0  0  0  0  0  2  0  0  0  0  0  0
  189.8760  170.7900  137.4760 C   0  0  0  0  0  0  0  0  0  0  0  0
  189.7230  171.2580  136.2830 N   0  0  0  0  0  2  0  0  0  0  0  0
  189.8480  173.0910  138.5880 C   0  0  0  0  0  0  0  0  0  0  0  0
  190.0080  169.3260  137.6710 C   0  0  0  0  0  1  0  0  0  0  0  0
  189.8270  173.7180  137.4950 O   0  0  0  0  0  0  0  0  0  0  0  0
  192.9560  175.4070  146.4420 C   0  0  0  0  0  2  0  0  0  0  0  0
  194.4370  175.2720  146.1230 C   0  0  1  0  0  3  0  0  0  0  0  0
  194.6510  174.1760  145.0750 C   0  0  0  0  0  3  0  0  0  0  0  0
  195.6130  173.0900  145.5310 C   0  0  0  0  0  2  0  0  0  0  0  0
  194.1240  172.8710  145.6360 C   0  0  0  0  0  2  0  0  0  0  0  0
  195.4540  176.2610  144.4280 C   0  0  0  0  0  1  0  0  0  0  0  0
  194.9190  176.5070  145.6910 O   0  0  0  0  0  0  0  0  0  0  0  0
  1 10  1  0  0  0  0
  2  8  1  0  0  0  0
  4 12  1  0  0  0  0
  5 13  1  0  0  0  0
  6 12  1  0  0  0  0
  6 14  1  0  0  0  0
  7 13  1  0  0  0  0
  7 31  1  0  0  0  0
  8  3  2  0  0  0  0
  9 11  1  0  0  0  0
  9  1  2  0  0  0  0
 10 16  2  0  0  0  0
 11 15  2  0  0  0  0
 12  9  1  0  0  0  0
 14 19  1  0  0  0  0
 14  5  1  0  0  0  0
 14  1  1  0  0  0  0
 15  3  1  0  0  0  0
 15 16  1  0  0  0  0
 17 11  1  0  0  0  0
 17  2  2  0  0  0  0
 18  7  1  0  0  0  0
 19 18  1  0  0  0  0
 20  4  1  0  0  0  0
 20  6  1  0  0  0  0
 20 12  1  0  0  0  0
 21 20  1  0  0  0  0
 22 21  1  0  0  0  0
 23 22  1  0  0  0  0
 23 24  1  0  0  0  0
 26 29  1  0  0  0  0
 26 25  1  0  0  0  0
 27 26  2  0  0  0  0
 28 25  1  0  0  0  0
 28 23  1  0  0  0  0
 30 28  2  0  0  0  0
 32 31  1  0  0  0  0
 33 34  1  0  0  0  0
 33 35  1  0  0  0  0
 33 32  1  0  0  0  0
 34 35  1  0  0  0  0
 36 37  1  0  0  0  0
 37 32  1  0  0  0  0
M  END
>  <MODEL>
4

>  <REMARK>
 VINA RESULT:      -7.4      1.721      2.246
  Name = 
  8 active torsions:
  status: ('A' for Active; 'I' for Inactive)
    1  A    between atoms: C_3  and  C_17
    2  A    between atoms: C_3  and  C_28
    3  A    between atoms: N_7  and  C_28
    4  A    between atoms: N_7  and  C_31
    5  A    between atoms: C_12  and  C_19
    6  A    between atoms: N_14  and  C_34
    7  A    between atoms: C_19  and  C_34
    8  A    between atoms: C_19  and  O_35
                            x       y       z     vdW  Elec       q    Type
                         _______ _______ _______ _____ _____    ______ ____

>  <TORSDO>
F 8

$$$$
=
 OpenBabel11042416473D

 37 43  0  0  1  0  0  0  0  0999 V2000
  188.5620  175.4430  143.6670 C   0  0  0  0  0  0  0  0  0  0  0  0
  185.8300  178.5660  146.0770 N   0  0  0  0  0  0  0  0  0  0  0  0
  185.0780  177.7340  143.9610 C   0  0  0  0  0  3  0  0  0  0  0  0
  190.1740  177.5450  145.4750 C   0  0  0  0  0  2  0  0  0  0  0  0
  190.8310  174.9130  142.7180 C   0  0  0  0  0  2  0  0  0  0  0  0
  190.3310  175.0410  145.1770 N   0  0  1  0  0  0  0  0  0  0  0  0
  190.2820  172.7900  141.6210 N   0  0  0  0  0  0  0  0  0  0  0  0
  184.8870  178.5300  145.0950 C   0  0  0  0  0  3  0  0  0  0  0  0
  188.3910  176.2660  144.7430 C   0  0  0  0  0  0  0  0  0  0  0  0
  187.6180  175.3770  142.6340 C   0  0  0  0  0  3  0  0  0  0  0  0
  187.2170  177.0280  144.8780 C   0  0  0  0  0  0  0  0  0  0  0  0
  189.5500  176.1960  145.6920 C   0  0  1  0  0  0  0  0  0  0  0  0
  190.4250  174.2280  141.4110 C   0  0  0  0  0  2  0  0  0  0  0  0
  189.8030  174.6500  143.8440 C   0  0  1  0  0  0  0  0  0  0  0  0
  186.2460  176.9770  143.8480 C   0  0  0  0  0  0  0  0  0  0  0  0
  186.4590  176.1600  142.7270 C   0  0  0  0  0  3  0  0  0  0  0  0
  186.9810  177.8420  145.9930 C   0  0  0  0  0  3  0  0  0  0  0  0
  189.1550  172.5760  142.5270 C   0  0  0  0  0  2  0  0  0  0  0  0
  189.4740  173.1510  143.9080 C   0  0  0  0  0  2  0  0  0  0  0  0
  190.9990  176.3450  145.1730 C   0  0  2  0  0  0  0  0  0  0  0  0
  191.9970  176.2970  146.2280 N   0  0  0  0  0  2  0  0  0  0  0  0
  193.2970  176.5190  145.6130 C   0  0  0  0  0  2  0  0  0  0  0  0
  194.2540  175.3910  145.9650 C   0  0  1  0  0  3  0  0  0  0  0  0
  193.5460  174.0460  145.9280 C   0  0  0  0  0  1  0  0  0  0  0  0
  195.3200  176.0550  143.7640 N   0  0  0  0  0  2  0  0  0  0  0  0
  196.3550  176.1370  142.7750 C   0  0  0  0  0  0  0  0  0  0  0  0
  197.5400  175.6820  143.0060 N   0  0  0  0  0  2  0  0  0  0  0  0
  195.4180  175.3870  145.0320 C   0  0  0  0  0  0  0  0  0  0  0  0
  196.0670  176.7910  141.4750 C   0  0  0  0  0  1  0  0  0  0  0  0
  196.4690  174.7770  145.3650 O   0  0  0  0  0  0  0  0  0  0  0  0
  189.8940  172.2280  140.3390 C   0  0  0  0  0  2  0  0  0  0  0  0
  189.6600  173.3220  139.3090 C   0  0  1  0  0  3  0  0  0  0  0  0
  190.4410  173.0140  138.0280 C   0  0  0  0  0  3  0  0  0  0  0  0
  191.7450  173.7900  137.9190 C   0  0  0  0  0  2  0  0  0  0  0  0
  191.7540  172.3650  138.4150 C   0  0  0  0  0  2  0  0  0  0  0  0
  188.1900  174.1650  137.8900 C   0  0  0  0  0  1  0  0  0  0  0  0
  188.2910  173.4320  139.0710 O   0  0  0  0  0  0  0  0  0  0  0  0
  1 14  1  0  0  0  0
  1  9  1  0  0  0  0
  3  8  2  0  0  0  0
  4 12  1  0  0  0  0
  5 14  1  0  0  0  0
  6 12  1  0  0  0  0
  7 18  1  0  0  0  0
  8  2  1  0  0  0  0
  9 11  2  0  0  0  0
  9 12  1  0  0  0  0
 10 16  1  0  0  0  0
 10  1  2  0  0  0  0
 11 17  1  0  0  0  0
 13  7  1  0  0  0  0
 13  5  1  0  0  0  0
 14 19  1  0  0  0  0
 14  6  1  0  0  0  0
 15  3  1  0  0  0  0
 15 11  1  0  0  0  0
 16 15  2  0  0  0  0
 17  2  2  0  0  0  0
 18 19  1  0  0  0  0
 20  6  1  0  0  0  0
 20  4  1  0  0  0  0
 20 12  1  0  0  0  0
 20 21  1  0  0  0  0
 22 23  1  0  0  0  0
 22 21  1  0  0  0  0
 24 23  1  0  0  0  0
 25 28  1  0  0  0  0
 26 27  2  0  0  0  0
 26 25  1  0  0  0  0
 28 30  2  0  0  0  0
 28 23  1  0  0  0  0
 29 26  1  0  0  0  0
 31  7  1  0  0  0  0
 32 31  1  0  0  0  0
 33 35  1  0  0  0  0
 33 32  1  0  0  0  0
 34 33  1  0  0  0  0
 34 35  1  0  0  0  0
 36 37  1  0  0  0  0
 37 32  1  0  0  0  0
M  END
>  <MODEL>
5

>  <REMARK>
 VINA RESULT:      -7.3      2.128      5.922
  Name = 
  8 active torsions:
  status: ('A' for Active; 'I' for Inactive)
    1  A    between atoms: C_3  and  C_17
    2  A    between atoms: C_3  and  C_28
    3  A    between atoms: N_7  and  C_28
    4  A    between atoms: N_7  and  C_31
    5  A    between atoms: C_12  and  C_19
    6  A    between atoms: N_14  and  C_34
    7  A    between atoms: C_19  and  C_34
    8  A    between atoms: C_19  and  O_35
                            x       y       z     vdW  Elec       q    Type
                         _______ _______ _______ _____ _____    ______ ____

>  <TORSDO>
F 8

$$$$
=
 OpenBabel11042416473D

 37 43  0  0  1  0  0  0  0  0999 V2000
  188.6230  176.8440  144.7950 C   0  0  0  0  0  0  0  0  0  0  0  0
  184.1480  178.5720  144.8300 N   0  0  0  0  0  0  0  0  0  0  0  0
  185.3570  178.3970  146.8900 C   0  0  0  0  0  3  0  0  0  0  0  0
  186.6890  175.6490  142.5340 C   0  0  0  0  0  2  0  0  0  0  0  0
  190.1660  174.9860  144.0920 C   0  0  0  0  0  2  0  0  0  0  0  0
  189.0440  176.5620  142.4900 N   0  0  1  0  0  0  0  0  0  0  0  0
  192.2270  175.8040  145.1360 N   0  0  0  0  0  0  0  0  0  0  0  0
  184.2040  178.7490  146.1790 C   0  0  0  0  0  3  0  0  0  0  0  0
  187.4740  177.1390  144.1200 C   0  0  0  0  0  0  0  0  0  0  0  0
  188.7240  177.0090  146.1820 C   0  0  0  0  0  3  0  0  0  0  0  0
  186.3700  177.6850  144.7960 C   0  0  0  0  0  0  0  0  0  0  0  0
  187.5930  176.8420  142.6550 C   0  0  1  0  0  0  0  0  0  0  0  0
  191.0820  174.9160  145.3150 C   0  0  0  0  0  2  0  0  0  0  0  0
  189.6700  176.4270  143.8300 C   0  0  1  0  0  0  0  0  0  0  0  0
  186.4470  177.8640  146.2000 C   0  0  0  0  0  0  0  0  0  0  0  0
  187.6210  177.5130  146.8850 C   0  0  0  0  0  3  0  0  0  0  0  0
  185.1930  178.0510  144.1300 C   0  0  0  0  0  3  0  0  0  0  0  0
  191.7310  177.1800  145.1120 C   0  0  0  0  0  2  0  0  0  0  0  0
  190.8570  177.4010  143.8760 C   0  0  0  0  0  2  0  0  0  0  0  0
  188.1200  175.4700  142.1730 C   0  0  2  0  0  0  0  0  0  0  0  0
  188.1300  175.3320  140.7260 N   0  0  0  0  0  2  0  0  0  0  0  0
  188.3010  173.9190  140.4210 C   0  0  0  0  0  2  0  0  0  0  0  0
  189.7580  173.5130  140.5750 C   0  0  1  0  0  3  0  0  0  0  0  0
  189.8930  172.3100  141.4940 C   0  0  0  0  0  1  0  0  0  0  0  0
  189.7860  173.7880  138.0550 N   0  0  0  0  0  2  0  0  0  0  0  0
  190.2570  173.5940  136.7160 C   0  0  0  0  0  0  0  0  0  0  0  0
  191.3420  172.9360  136.4760 N   0  0  0  0  0  2  0  0  0  0  0  0
  190.3570  173.2130  139.2410 C   0  0  0  0  0  0  0  0  0  0  0  0
  189.5040  174.1910  135.5860 C   0  0  0  0  0  1  0  0  0  0  0  0
  191.3470  172.4370  139.1750 O   0  0  0  0  0  0  0  0  0  0  0  0
  193.0330  175.6780  146.3380 C   0  0  0  0  0  2  0  0  0  0  0  0
  194.5120  175.5800  145.9970 C   0  0  1  0  0  3  0  0  0  0  0  0
  194.7600  174.3890  145.0680 C   0  0  0  0  0  3  0  0  0  0  0  0
  195.7550  173.3850  145.6300 C   0  0  0  0  0  2  0  0  0  0  0  0
  194.2730  173.1330  145.7620 C   0  0  0  0  0  2  0  0  0  0  0  0
  195.5900  176.4140  144.2560 C   0  0  0  0  0  1  0  0  0  0  0  0
  194.9220  176.7830  145.4230 O   0  0  0  0  0  0  0  0  0  0  0  0
  1 10  1  0  0  0  0
  2  8  1  0  0  0  0
  4 12  1  0  0  0  0
  5 13  1  0  0  0  0
  6 12  1  0  0  0  0
  6 14  1  0  0  0  0
  7 13  1  0  0  0  0
  7 31  1  0  0  0  0
  8  3  2  0  0  0  0
  9  1  2  0  0  0  0
  9 11  1  0  0  0  0
 10 16  2  0  0  0  0
 11 15  2  0  0  0  0
 12  9  1  0  0  0  0
 14 19  1  0  0  0  0
 14  5  1  0  0  0  0
 14  1  1  0  0  0  0
 15 16  1  0  0  0  0
 15  3  1  0  0  0  0
 17 11  1  0  0  0  0
 17  2  2  0  0  0  0
 18  7  1  0  0  0  0
 19 18  1  0  0  0  0
 20  6  1  0  0  0  0
 20  4  1  0  0  0  0
 20 12  1  0  0  0  0
 21 20  1  0  0  0  0
 22 23  1  0  0  0  0
 22 21  1  0  0  0  0
 23 24  1  0  0  0  0
 25 28  1  0  0  0  0
 26 25  1  0  0  0  0
 27 26  2  0  0  0  0
 28 23  1  0  0  0  0
 29 26  1  0  0  0  0
 30 28  2  0  0  0  0
 32 31  1  0  0  0  0
 33 34  1  0  0  0  0
 33 35  1  0  0  0  0
 33 32  1  0  0  0  0
 34 35  1  0  0  0  0
 36 37  1  0  0  0  0
 37 32  1  0  0  0  0
M  END
>  <MODEL>
6

>  <REMARK>
 VINA RESULT:      -7.3      1.685      2.338
  Name = 
  8 active torsions:
  status: ('A' for Active; 'I' for Inactive)
    1  A    between atoms: C_3  and  C_17
    2  A    between atoms: C_3  and  C_28
    3  A    between atoms: N_7  and  C_28
    4  A    between atoms: N_7  and  C_31
    5  A    between atoms: C_12  and  C_19
    6  A    between atoms: N_14  and  C_34
    7  A    between atoms: C_19  and  C_34
    8  A    between atoms: C_19  and  O_35
                            x       y       z     vdW  Elec       q    Type
                         _______ _______ _______ _____ _____    ______ ____

>  <TORSDO>
F 8

$$$$
=
 OpenBabel11042416473D

 37 43  0  0  1  0  0  0  0  0999 V2000
  188.0940  175.6270  143.5510 C   0  0  0  0  0  0  0  0  0  0  0  0
  186.1450  178.5650  146.8050 N   0  0  0  0  0  0  0  0  0  0  0  0
  184.8690  177.9290  144.8800 C   0  0  0  0  0  3  0  0  0  0  0  0
  190.1710  177.5430  145.0680 C   0  0  0  0  0  2  0  0  0  0  0  0
  190.0420  175.1510  142.0310 C   0  0  0  0  0  2  0  0  0  0  0  0
  190.1650  175.0720  144.5390 N   0  0  1  0  0  0  0  0  0  0  0  0
  189.1690  173.1390  140.9360 N   0  0  0  0  0  0  0  0  0  0  0  0
  184.9890  178.6270  146.0870 C   0  0  0  0  0  3  0  0  0  0  0  0
  188.2200  176.3560  144.6990 C   0  0  0  0  0  0  0  0  0  0  0  0
  186.9250  175.6630  142.7820 C   0  0  0  0  0  3  0  0  0  0  0  0
  187.1420  177.1190  145.1810 C   0  0  0  0  0  0  0  0  0  0  0  0
  189.5740  176.1890  145.3230 C   0  0  1  0  0  0  0  0  0  0  0  0
  189.3050  174.5870  140.8140 C   0  0  0  0  0  2  0  0  0  0  0  0
  189.3130  174.8050  143.3510 C   0  0  1  0  0  0  0  0  0  0  0  0
  185.9470  177.1690  144.4220 C   0  0  0  0  0  0  0  0  0  0  0  0
  185.8510  176.4500  143.2210 C   0  0  0  0  0  3  0  0  0  0  0  0
  187.2140  177.8360  146.3810 C   0  0  0  0  0  3  0  0  0  0  0  0
  188.2920  172.8620  142.0720 C   0  0  0  0  0  2  0  0  0  0  0  0
  188.9590  173.3110  143.3730 C   0  0  0  0  0  2  0  0  0  0  0  0
  190.8550  176.3630  144.4750 C   0  0  2  0  0  0  0  0  0  0  0  0
  192.0800  176.2110  145.2440 N   0  0  0  0  0  2  0  0  0  0  0  0
  193.1970  176.3950  144.3300 C   0  0  0  0  0  2  0  0  0  0  0  0
  194.4450  176.8150  145.0910 C   0  0  1  0  0  3  0  0  0  0  0  0
  194.1910  176.8230  146.5900 C   0  0  0  0  0  1  0  0  0  0  0  0
  195.7270  174.6620  145.4690 N   0  0  0  0  0  2  0  0  0  0  0  0
  196.7610  173.6920  145.2590 C   0  0  0  0  0  0  0  0  0  0  0  0
  197.6210  173.8260  144.3060 N   0  0  0  0  0  2  0  0  0  0  0  0
  195.5820  175.9050  144.7650 C   0  0  0  0  0  0  0  0  0  0  0  0
  196.8220  172.4930  146.1310 C   0  0  0  0  0  1  0  0  0  0  0  0
  196.4140  176.2550  143.8860 O   0  0  0  0  0  0  0  0  0  0  0  0
  188.4590  172.6940  139.7490 C   0  0  0  0  0  2  0  0  0  0  0  0
  189.3690  171.8830  138.8390 C   0  0  1  0  0  3  0  0  0  0  0  0
  190.0390  172.8010  137.8120 C   0  0  0  0  0  3  0  0  0  0  0  0
  189.6260  172.5010  136.3790 C   0  0  0  0  0  2  0  0  0  0  0  0
  188.9620  173.6250  137.1360 C   0  0  0  0  0  2  0  0  0  0  0  0
  190.4270  169.9520  139.0330 C   0  0  0  0  0  1  0  0  0  0  0  0
  190.3040  171.2090  139.6230 O   0  0  0  0  0  0  0  0  0  0  0  0
  1  9  1  0  0  0  0
  3  8  2  0  0  0  0
  4 12  1  0  0  0  0
  5 14  1  0  0  0  0
  6 12  1  0  0  0  0
  7 18  1  0  0  0  0
  8  2  1  0  0  0  0
  9 11  2  0  0  0  0
  9 12  1  0  0  0  0
 10 16  1  0  0  0  0
 10  1  2  0  0  0  0
 11 17  1  0  0  0  0
 13  7  1  0  0  0  0
 13  5  1  0  0  0  0
 14 19  1  0  0  0  0
 14  1  1  0  0  0  0
 14  6  1  0  0  0  0
 15  3  1  0  0  0  0
 15 11  1  0  0  0  0
 16 15  2  0  0  0  0
 17  2  2  0  0  0  0
 18 19  1  0  0  0  0
 20  6  1  0  0  0  0
 20  4  1  0  0  0  0
 20 21  1  0  0  0  0
 20 12  1  0  0  0  0
 22 23  1  0  0  0  0
 22 21  1  0  0  0  0
 23 24  1  0  0  0  0
 26 25  1  0  0  0  0
 26 29  1  0  0  0  0
 27 26  2  0  0  0  0
 28 23  1  0  0  0  0
 28 25  1  0  0  0  0
 30 28  2  0  0  0  0
 31  7  1  0  0  0  0
 32 37  1  0  0  0  0
 32 31  1  0  0  0  0
 33 32  1  0  0  0  0
 34 35  1  0  0  0  0
 34 33  1  0  0  0  0
 35 33  1  0  0  0  0
 36 37  1  0  0  0  0
M  END
>  <MODEL>
7

>  <REMARK>
 VINA RESULT:      -7.3      2.059      6.205
  Name = 
  8 active torsions:
  status: ('A' for Active; 'I' for Inactive)
    1  A    between atoms: C_3  and  C_17
    2  A    between atoms: C_3  and  C_28
    3  A    between atoms: N_7  and  C_28
    4  A    between atoms: N_7  and  C_31
    5  A    between atoms: C_12  and  C_19
    6  A    between atoms: N_14  and  C_34
    7  A    between atoms: C_19  and  C_34
    8  A    between atoms: C_19  and  O_35
                            x       y       z     vdW  Elec       q    Type
                         _______ _______ _______ _____ _____    ______ ____

>  <TORSDO>
F 8

$$$$
=
 OpenBabel11042416473D

 37 43  0  0  1  0  0  0  0  0999 V2000
  191.5350  174.5930  145.4460 C   0  0  0  0  0  0  0  0  0  0  0  0
  195.8090  172.5270  144.7520 N   0  0  0  0  0  0  0  0  0  0  0  0
  195.6790  174.5750  145.9870 C   0  0  0  0  0  3  0  0  0  0  0  0
  191.8190  172.9490  142.7080 C   0  0  0  0  0  2  0  0  0  0  0  0
  189.4060  175.4450  144.4110 C   0  0  0  0  0  2  0  0  0  0  0  0
  190.0480  173.0180  144.5080 N   0  0  1  0  0  0  0  0  0  0  0  0
  188.3570  176.3580  146.4290 N   0  0  0  0  0  0  0  0  0  0  0  0
  196.4260  173.5200  145.4510 C   0  0  0  0  0  3  0  0  0  0  0  0
  192.2790  173.5990  144.8800 C   0  0  0  0  0  0  0  0  0  0  0  0
  192.1280  175.6340  146.1710 C   0  0  0  0  0  3  0  0  0  0  0  0
  193.6720  173.5560  145.0670 C   0  0  0  0  0  0  0  0  0  0  0  0
  191.4280  172.6240  144.1210 C   0  0  1  0  0  0  0  0  0  0  0  0
  189.1700  176.6930  145.2640 C   0  0  0  0  0  2  0  0  0  0  0  0
  190.0940  174.3210  145.2210 C   0  0  1  0  0  0  0  0  0  0  0  0
  194.2960  174.5960  145.7990 C   0  0  0  0  0  0  0  0  0  0  0  0
  193.5200  175.6350  146.3360 C   0  0  0  0  0  3  0  0  0  0  0  0
  194.4630  172.5230  144.5480 C   0  0  0  0  0  3  0  0  0  0  0  0
  189.1350  175.4600  147.2800 C   0  0  0  0  0  2  0  0  0  0  0  0
  189.3700  174.1300  146.5620 C   0  0  0  0  0  2  0  0  0  0  0  0
  190.3930  173.1260  143.0870 C   0  0  2  0  0  0  0  0  0  0  0  0
  189.6860  172.0510  142.4110 N   0  0  0  0  0  2  0  0  0  0  0  0
  188.5840  172.6480  141.6700 C   0  0  0  0  0  2  0  0  0  0  0  0
  189.0900  173.2910  140.3890 C   0  0  1  0  0  3  0  0  0  0  0  0
  188.9800  172.3290  139.2170 C   0  0  0  0  0  1  0  0  0  0  0  0
  188.1380  175.5170  141.1400 N   0  0  0  0  0  2  0  0  0  0  0  0
  187.4380  176.7600  141.0080 C   0  0  0  0  0  0  0  0  0  0  0  0
  186.9950  177.1600  139.8640 N   0  0  0  0  0  2  0  0  0  0  0  0
  188.3300  174.5430  140.1020 C   0  0  0  0  0  0  0  0  0  0  0  0
  187.2510  177.6210  142.2010 C   0  0  0  0  0  1  0  0  0  0  0  0
  187.8480  174.7170  138.9510 O   0  0  0  0  0  0  0  0  0  0  0  0
  188.1890  177.5920  147.1780 C   0  0  0  0  0  2  0  0  0  0  0  0
  186.7830  178.1480  147.0090 C   0  0  1  0  0  3  0  0  0  0  0  0
  185.8450  177.0550  146.4890 C   0  0  0  0  0  3  0  0  0  0  0  0
  184.3820  177.4700  146.4870 C   0  0  0  0  0  2  0  0  0  0  0  0
  185.1910  177.5530  145.2160 C   0  0  0  0  0  2  0  0  0  0  0  0
  186.3240  180.0470  148.0440 C   0  0  0  0  0  1  0  0  0  0  0  0
  186.3540  178.6650  148.2300 O   0  0  0  0  0  0  0  0  0  0  0  0
  1 10  1  0  0  0  0
  2  8  1  0  0  0  0
  4 20  1  0  0  0  0
  4 12  1  0  0  0  0
  5 14  1  0  0  0  0
  5 13  1  0  0  0  0
  6 14  1  0  0  0  0
  7 31  1  0  0  0  0
  7 18  1  0  0  0  0
  8  3  2  0  0  0  0
  9 11  1  0  0  0  0
  9  1  2  0  0  0  0
 10 16  2  0  0  0  0
 11 15  2  0  0  0  0
 12  6  1  0  0  0  0
 12  9  1  0  0  0  0
 13  7  1  0  0  0  0
 14  1  1  0  0  0  0
 14 19  1  0  0  0  0
 15  3  1  0  0  0  0
 15 16  1  0  0  0  0
 17  2  2  0  0  0  0
 17 11  1  0  0  0  0
 19 18  1  0  0  0  0
 20 12  1  0  0  0  0
 20  6  1  0  0  0  0
 21 20  1  0  0  0  0
 22 21  1  0  0  0  0
 23 22  1  0  0  0  0
 24 23  1  0  0  0  0
 26 25  1  0  0  0  0
 26 29  1  0  0  0  0
 27 26  2  0  0  0  0
 28 23  1  0  0  0  0
 28 25  1  0  0  0  0
 30 28  2  0  0  0  0
 32 31  1  0  0  0  0
 32 37  1  0  0  0  0
 33 32  1  0  0  0  0
 34 33  1  0  0  0  0
 35 34  1  0  0  0  0
 35 33  1  0  0  0  0
 36 37  1  0  0  0  0
M  END
>  <MODEL>
8

>  <REMARK>
 VINA RESULT:      -7.2      2.325      7.115
  Name = 
  8 active torsions:
  status: ('A' for Active; 'I' for Inactive)
    1  A    between atoms: C_3  and  C_17
    2  A    between atoms: C_3  and  C_28
    3  A    between atoms: N_7  and  C_28
    4  A    between atoms: N_7  and  C_31
    5  A    between atoms: C_12  and  C_19
    6  A    between atoms: N_14  and  C_34
    7  A    between atoms: C_19  and  C_34
    8  A    between atoms: C_19  and  O_35
                            x       y       z     vdW  Elec       q    Type
                         _______ _______ _______ _____ _____    ______ ____

>  <TORSDO>
F 8

$$$$
=
 OpenBabel11042416473D

 37 43  0  0  1  0  0  0  0  0999 V2000
  189.0860  175.7730  144.7030 C   0  0  0  0  0  0  0  0  0  0  0  0
  184.8340  177.9170  145.2930 N   0  0  0  0  0  0  0  0  0  0  0  0
  186.0980  177.2600  147.2190 C   0  0  0  0  0  3  0  0  0  0  0  0
  186.9420  175.1970  142.3890 C   0  0  0  0  0  2  0  0  0  0  0  0
  190.3830  173.9190  143.6040 C   0  0  0  0  0  2  0  0  0  0  0  0
  189.3800  175.8580  142.3620 N   0  0  1  0  0  0  0  0  0  0  0  0
  192.5630  174.3270  144.6500 N   0  0  0  0  0  0  0  0  0  0  0  0
  184.9630  177.8470  146.6470 C   0  0  0  0  0  3  0  0  0  0  0  0
  187.9500  176.2980  144.1560 C   0  0  0  0  0  0  0  0  0  0  0  0
  189.2600  175.6810  146.0890 C   0  0  0  0  0  3  0  0  0  0  0  0
  186.9410  176.8270  144.9790 C   0  0  0  0  0  0  0  0  0  0  0  0
  187.9770  176.2520  142.6570 C   0  0  1  0  0  0  0  0  0  0  0  0
  191.3350  173.5430  144.7420 C   0  0  0  0  0  2  0  0  0  0  0  0
  190.0410  175.4270  143.6210 C   0  0  1  0  0  0  0  0  0  0  0  0
  187.0940  176.7480  146.3850 C   0  0  0  0  0  0  0  0  0  0  0  0
  188.2480  176.1640  146.9310 C   0  0  0  0  0  3  0  0  0  0  0  0
  185.7860  177.4220  144.4550 C   0  0  0  0  0  3  0  0  0  0  0  0
  192.2220  175.7290  144.8890 C   0  0  0  0  0  2  0  0  0  0  0  0
  191.3290  176.2510  143.7630 C   0  0  0  0  0  2  0  0  0  0  0  0
  188.3280  174.9390  141.9190 C   0  0  2  0  0  0  0  0  0  0  0  0
  188.2650  175.0570  140.4710 N   0  0  0  0  0  2  0  0  0  0  0  0
  188.8610  173.8550  139.9070 C   0  0  0  0  0  2  0  0  0  0  0  0
  188.1900  173.4950  138.5910 C   0  0  1  0  0  3  0  0  0  0  0  0
  188.0430  174.7200  137.7020 C   0  0  0  0  0  1  0  0  0  0  0  0
  189.3280  171.2310  138.5770 N   0  0  0  0  0  2  0  0  0  0  0  0
  190.0650  170.1320  138.0260 C   0  0  0  0  0  0  0  0  0  0  0  0
  190.3880  170.1020  136.7770 N   0  0  0  0  0  2  0  0  0  0  0  0
  188.9690  172.4360  137.8840 C   0  0  0  0  0  0  0  0  0  0  0  0
  190.4320  168.9910  138.9000 C   0  0  0  0  0  1  0  0  0  0  0  0
  189.3190  172.6280  136.6890 O   0  0  0  0  0  0  0  0  0  0  0  0
  193.3970  173.9100  145.7640 C   0  0  0  0  0  2  0  0  0  0  0  0
  194.4940  172.9630  145.3010 C   0  0  1  0  0  3  0  0  0  0  0  0
  195.8610  173.4760  145.7640 C   0  0  0  0  0  3  0  0  0  0  0  0
  196.8410  173.6900  144.6210 C   0  0  0  0  0  2  0  0  0  0  0  0
  196.0720  174.8600  145.1850 C   0  0  0  0  0  2  0  0  0  0  0  0
  194.0900  170.8880  144.6560 C   0  0  0  0  0  1  0  0  0  0  0  0
  194.2230  171.6870  145.7900 O   0  0  0  0  0  0  0  0  0  0  0  0
  1 10  1  0  0  0  0
  2  8  1  0  0  0  0
  4 12  1  0  0  0  0
  5 14  1  0  0  0  0
  5 13  1  0  0  0  0
  6 12  1  0  0  0  0
  6 14  1  0  0  0  0
  7 13  1  0  0  0  0
  7 18  1  0  0  0  0
  7 31  1  0  0  0  0
  8  3  2  0  0  0  0
  9  1  2  0  0  0  0
  9 11  1  0  0  0  0
 10 16  2  0  0  0  0
 11 15  2  0  0  0  0
 12  9  1  0  0  0  0
 14 19  1  0  0  0  0
 14  1  1  0  0  0  0
 15 16  1  0  0  0  0
 15  3  1  0  0  0  0
 17 11  1  0  0  0  0
 17  2  2  0  0  0  0
 19 18  1  0  0  0  0
 20  6  1  0  0  0  0
 20  4  1  0  0  0  0
 20 12  1  0  0  0  0
 21 20  1  0  0  0  0
 22 21  1  0  0  0  0
 23 22  1  0  0  0  0
 24 23  1  0  0  0  0
 26 25  1  0  0  0  0
 26 29  1  0  0  0  0
 27 26  2  0  0  0  0
 28 25  1  0  0  0  0
 28 23  1  0  0  0  0
 30 28  2  0  0  0  0
 32 31  1  0  0  0  0
 32 33  1  0  0  0  0
 32 37  1  0  0  0  0
 34 35  1  0  0  0  0
 34 33  1  0  0  0  0
 35 33  1  0  0  0  0
 36 37  1  0  0  0  0
M  END
>  <MODEL>
9

>  <REMARK>
 VINA RESULT:      -7.0      2.229      2.795
  Name = 
  8 active torsions:
  status: ('A' for Active; 'I' for Inactive)
    1  A    between atoms: C_3  and  C_17
    2  A    between atoms: C_3  and  C_28
    3  A    between atoms: N_7  and  C_28
    4  A    between atoms: N_7  and  C_31
    5  A    between atoms: C_12  and  C_19
    6  A    between atoms: N_14  and  C_34
    7  A    between atoms: C_19  and  C_34
    8  A    between atoms: C_19  and  O_35
                            x       y       z     vdW  Elec       q    Type
                         _______ _______ _______ _____ _____    ______ ____

>  <TORSDO>
F 8

$$$$
