=
 OpenBabel11042418233D

 28 31  0  0  1  0  0  0  0  0999 V2000
  187.8010  176.4580  144.9830 C   0  0  0  0  0  3  0  0  0  0  0  0
  193.1020  174.2700  141.6360 C   0  0  0  0  0  3  0  0  0  0  0  0
  191.1120  173.6650  140.5000 C   0  0  0  0  0  0  0  0  0  0  0  0
  189.6840  173.6660  140.5240 N   0  0  0  0  0  0  0  0  0  0  0  0
  188.9350  177.1690  146.9920 C   0  0  0  0  0  3  0  0  0  0  0  0
  191.5350  177.7140  143.0620 C   0  0  0  0  0  2  0  0  0  0  0  0
  187.7550  176.7930  146.3370 C   0  0  0  0  0  0  0  0  0  0  0  0
  194.1690  175.4140  142.5140 S   0  0  0  0  0  0  0  0  0  0  0  0
  190.1410  177.2260  146.2920 C   0  0  0  0  0  3  0  0  0  0  0  0
  191.7130  172.9170  139.6320 N   0  0  0  0  0  2  0  0  0  0  0  0
  189.0080  176.5050  144.2710 C   0  0  0  0  0  0  0  0  0  0  0  0
  190.1930  176.9090  144.9260 C   0  0  0  0  0  0  0  0  0  0  0  0
  188.9810  174.0440  141.5420 C   0  0  0  0  0  0  0  0  0  0  0  0
  188.8390  174.5260  142.8250 C   0  0  2  0  0  3  0  0  0  0  0  0
  193.0220  176.7190  145.0660 S   0  0  0  0  0  0  0  0  0  0  0  0
  187.6530  174.2450  142.2040 O   0  0  0  0  0  0  0  0  0  0  0  0
  191.4810  177.0560  144.2150 C   0  0  0  0  0  0  0  0  0  0  0  0
  191.8750  174.5520  141.3330 N   0  0  0  0  0  0  0  0  0  0  0  0
  189.0220  176.0300  142.8530 C   0  0  0  0  0  2  0  0  0  0  0  0
  193.1800  174.1360  144.5990 O   0  0  0  0  0  0  0  0  0  0  0  0
  193.3780  175.2400  144.1160 C   0  0  0  0  0  0  0  0  0  0  0  0
  186.5290  176.7370  147.0070 O   0  0  0  0  0  0  0  0  0  0  0  0
  186.0690  177.7820  147.8520 C   0  0  0  0  0  2  0  0  0  0  0  0
  185.3470  178.8220  147.0220 C   0  0  0  0  0  2  0  0  0  0  0  0
  184.3690  178.1320  146.0780 C   0  0  2  0  0  3  0  0  0  0  0  0
  184.5180  178.4670  144.6270 C   0  0  1  0  0  3  0  0  0  0  0  0
  183.5670  179.1030  145.4490 O   0  0  0  0  0  0  0  0  0  0  0  0
  185.6280  179.4540  144.2860 C   0  0  0  0  0  1  0  0  0  0  0  0
  1  7  1  0  0  0  0
  2  8  1  0  0  0  0
  3  4  1  0  0  0  0
  3 18  1  0  0  0  0
  4 13  2  0  0  0  0
  6 17  2  0  0  0  0
  7  5  2  0  0  0  0
  7 22  1  0  0  0  0
  8 21  1  0  0  0  0
  9  5  1  0  0  0  0
 10  3  2  0  0  0  0
 11 12  1  0  0  0  0
 11  1  2  0  0  0  0
 12  9  2  0  0  0  0
 13 16  1  0  0  0  0
 13 14  1  0  0  0  0
 14 19  1  6  0  0  0
 16 14  1  0  0  0  0
 17 12  1  0  0  0  0
 17 15  1  0  0  0  0
 18  2  2  0  0  0  0
 19 11  1  0  0  0  0
 21 20  2  0  0  0  0
 21 15  1  0  0  0  0
 22 23  1  0  0  0  0
 24 23  1  0  0  0  0
 25 24  1  1  0  0  0
 26 28  1  1  0  0  0
 26 27  1  0  0  0  0
 26 25  1  0  0  0  0
 27 25  1  0  0  0  0
M  END
>  <MODEL>
1

>  <REMARK>
 VINA RESULT:      -7.4      0.000      0.000
  Name = 
  4 active torsions:
  status: ('A' for Active; 'I' for Inactive)
    1  A    between atoms: C_7  and  O_28
    2  A    between atoms: C_15  and  C_26
    3  A    between atoms: C_15  and  O_28
    4  A    between atoms: C_17  and  C_26
                            x       y       z     vdW  Elec       q    Type
                         _______ _______ _______ _____ _____    ______ ____

>  <TORSDO>
F 4

$$$$
=
 OpenBabel11042418233D

 28 31  0  0  1  0  0  0  0  0999 V2000
  188.2990  177.2130  145.1630 C   0  0  0  0  0  3  0  0  0  0  0  0
  189.3960  172.6760  140.4410 C   0  0  0  0  0  3  0  0  0  0  0  0
  188.2750  174.5530  139.5250 C   0  0  0  0  0  0  0  0  0  0  0  0
  187.6620  175.8150  139.7910 N   0  0  0  0  0  0  0  0  0  0  0  0
  188.9510  175.8850  147.0710 C   0  0  0  0  0  3  0  0  0  0  0  0
  191.4240  174.8950  143.1460 C   0  0  0  0  0  2  0  0  0  0  0  0
  188.2670  176.9870  146.5400 C   0  0  0  0  0  0  0  0  0  0  0  0
  190.6550  171.8870  141.4470 S   0  0  0  0  0  0  0  0  0  0  0  0
  189.6730  175.0350  146.2330 C   0  0  0  0  0  3  0  0  0  0  0  0
  188.0720  173.9990  138.3740 N   0  0  0  0  0  2  0  0  0  0  0  0
  189.0150  176.3610  144.3110 C   0  0  0  0  0  0  0  0  0  0  0  0
  189.7260  175.2650  144.8500 C   0  0  0  0  0  0  0  0  0  0  0  0
  187.4640  176.2840  140.9800 C   0  0  0  0  0  0  0  0  0  0  0  0
  187.5360  176.2150  142.3540 C   0  0  2  0  0  3  0  0  0  0  0  0
  190.7330  172.6430  144.4390 S   0  0  0  0  0  0  0  0  0  0  0  0
  186.9250  177.3470  141.8870 O   0  0  0  0  0  0  0  0  0  0  0  0
  190.5640  174.3770  144.0170 C   0  0  0  0  0  0  0  0  0  0  0  0
  189.1890  173.9540  140.4580 N   0  0  0  0  0  0  0  0  0  0  0  0
  188.9250  176.5850  142.8350 C   0  0  0  0  0  2  0  0  0  0  0  0
  188.6430  171.7110  143.1440 O   0  0  0  0  0  0  0  0  0  0  0  0
  189.8040  172.0690  143.0160 C   0  0  0  0  0  0  0  0  0  0  0  0
  187.5440  177.8640  147.3540 O   0  0  0  0  0  0  0  0  0  0  0  0
  186.1880  177.6390  147.7100 C   0  0  0  0  0  2  0  0  0  0  0  0
  185.3110  178.6700  147.0310 C   0  0  0  0  0  2  0  0  0  0  0  0
  184.4520  177.9900  145.9720 C   0  0  2  0  0  3  0  0  0  0  0  0
  184.5920  178.5220  144.5800 C   0  0  1  0  0  3  0  0  0  0  0  0
  183.5480  178.9260  145.4350 O   0  0  0  0  0  0  0  0  0  0  0  0
  185.5750  179.6730  144.4060 C   0  0  0  0  0  1  0  0  0  0  0  0
  1  7  1  0  0  0  0
  2 18  2  0  0  0  0
  2  8  1  0  0  0  0
  3  4  1  0  0  0  0
  3 18  1  0  0  0  0
  4 13  2  0  0  0  0
  6 17  2  0  0  0  0
  7  5  2  0  0  0  0
  7 22  1  0  0  0  0
  8 21  1  0  0  0  0
  9  5  1  0  0  0  0
 10  3  2  0  0  0  0
 11 12  1  0  0  0  0
 11  1  2  0  0  0  0
 12  9  2  0  0  0  0
 13 16  1  0  0  0  0
 13 14  1  0  0  0  0
 14 19  1  6  0  0  0
 16 14  1  0  0  0  0
 17 15  1  0  0  0  0
 17 12  1  0  0  0  0
 19 11  1  0  0  0  0
 21 20  2  0  0  0  0
 21 15  1  0  0  0  0
 22 23  1  0  0  0  0
 24 23  1  0  0  0  0
 25 24  1  1  0  0  0
 26 28  1  1  0  0  0
 26 27  1  0  0  0  0
 26 25  1  0  0  0  0
 27 25  1  0  0  0  0
M  END
>  <MODEL>
2

>  <REMARK>
 VINA RESULT:      -7.3      2.278      2.767
  Name = 
  4 active torsions:
  status: ('A' for Active; 'I' for Inactive)
    1  A    between atoms: C_7  and  O_28
    2  A    between atoms: C_15  and  C_26
    3  A    between atoms: C_15  and  O_28
    4  A    between atoms: C_17  and  C_26
                            x       y       z     vdW  Elec       q    Type
                         _______ _______ _______ _____ _____    ______ ____

>  <TORSDO>
F 4

$$$$
=
 OpenBabel11042418233D

 28 31  0  0  1  0  0  0  0  0999 V2000
  186.2750  177.2350  142.2990 C   0  0  0  0  0  3  0  0  0  0  0  0
  191.6280  174.3280  144.9420 C   0  0  0  0  0  3  0  0  0  0  0  0
  191.4300  173.7470  142.6530 C   0  0  0  0  0  0  0  0  0  0  0  0
  190.6430  173.8520  141.4650 N   0  0  0  0  0  0  0  0  0  0  0  0
  185.2990  178.0750  144.3410 C   0  0  0  0  0  3  0  0  0  0  0  0
  190.0420  178.0090  144.4010 C   0  0  0  0  0  2  0  0  0  0  0  0
  185.1640  177.7160  142.9930 C   0  0  0  0  0  0  0  0  0  0  0  0
  191.6150  175.4820  146.3160 S   0  0  0  0  0  0  0  0  0  0  0  0
  186.5370  177.9720  144.9750 C   0  0  0  0  0  3  0  0  0  0  0  0
  192.3800  172.8690  142.6880 N   0  0  0  0  0  2  0  0  0  0  0  0
  187.5220  177.1190  142.9290 C   0  0  0  0  0  0  0  0  0  0  0  0
  187.6630  177.5060  144.2800 C   0  0  0  0  0  0  0  0  0  0  0  0
  189.4660  174.3860  141.4260 C   0  0  0  0  0  0  0  0  0  0  0  0
  188.3820  175.0120  142.0010 C   0  0  2  0  0  3  0  0  0  0  0  0
  189.0390  177.1320  146.7340 S   0  0  0  0  0  0  0  0  0  0  0  0
  188.2280  174.7510  140.6670 O   0  0  0  0  0  0  0  0  0  0  0  0
  188.9660  177.4850  144.9790 C   0  0  0  0  0  0  0  0  0  0  0  0
  191.2590  174.6630  143.7470 N   0  0  0  0  0  0  0  0  0  0  0  0
  188.6510  176.4940  142.1720 C   0  0  0  0  0  2  0  0  0  0  0  0
  189.1810  174.5100  146.6110 O   0  0  0  0  0  0  0  0  0  0  0  0
  189.8330  175.5380  146.5180 C   0  0  0  0  0  0  0  0  0  0  0  0
  183.9400  177.8190  142.3240 O   0  0  0  0  0  0  0  0  0  0  0  0
  183.8380  178.2480  140.9740 C   0  0  0  0  0  2  0  0  0  0  0  0
  182.3920  178.1810  140.5320 C   0  0  0  0  0  2  0  0  0  0  0  0
  181.4810  178.4430  141.7250 C   0  0  2  0  0  3  0  0  0  0  0  0
  180.0110  178.3690  141.4520 C   0  0  1  0  0  3  0  0  0  0  0  0
  180.7080  179.5930  141.4760 O   0  0  0  0  0  0  0  0  0  0  0  0
  179.6200  178.0420  140.0160 C   0  0  0  0  0  1  0  0  0  0  0  0
  1 11  2  0  0  0  0
  1  7  1  0  0  0  0
  2  8  1  0  0  0  0
  3 10  2  0  0  0  0
  3 18  1  0  0  0  0
  4  3  1  0  0  0  0
  5  9  1  0  0  0  0
  6 17  2  0  0  0  0
  7  5  2  0  0  0  0
  8 21  1  0  0  0  0
 11 12  1  0  0  0  0
 12  9  2  0  0  0  0
 12 17  1  0  0  0  0
 13  4  2  0  0  0  0
 13 14  1  0  0  0  0
 14 19  1  6  0  0  0
 16 13  1  0  0  0  0
 16 14  1  0  0  0  0
 17 15  1  0  0  0  0
 18  2  2  0  0  0  0
 19 11  1  0  0  0  0
 21 20  2  0  0  0  0
 21 15  1  0  0  0  0
 22  7  1  0  0  0  0
 23 22  1  0  0  0  0
 24 23  1  0  0  0  0
 25 24  1  6  0  0  0
 26 28  1  6  0  0  0
 26 27  1  0  0  0  0
 26 25  1  0  0  0  0
 27 25  1  0  0  0  0
M  END
>  <MODEL>
3

>  <REMARK>
 VINA RESULT:      -7.1      3.022      4.137
  Name = 
  4 active torsions:
  status: ('A' for Active; 'I' for Inactive)
    1  A    between atoms: C_7  and  O_28
    2  A    between atoms: C_15  and  C_26
    3  A    between atoms: C_15  and  O_28
    4  A    between atoms: C_17  and  C_26
                            x       y       z     vdW  Elec       q    Type
                         _______ _______ _______ _____ _____    ______ ____

>  <TORSDO>
F 4

$$$$
=
 OpenBabel11042418233D

 28 31  0  0  1  0  0  0  0  0999 V2000
  187.8550  177.2070  143.6660 C   0  0  0  0  0  3  0  0  0  0  0  0
  192.9780  173.0000  143.2940 C   0  0  0  0  0  3  0  0  0  0  0  0
  192.9670  174.0890  145.3990 C   0  0  0  0  0  0  0  0  0  0  0  0
  192.3430  175.0770  146.2210 N   0  0  0  0  0  0  0  0  0  0  0  0
  187.1540  177.0980  141.3580 C   0  0  0  0  0  3  0  0  0  0  0  0
  188.9460  173.0180  142.9840 C   0  0  0  0  0  2  0  0  0  0  0  0
  187.1570  177.7620  142.5920 C   0  0  0  0  0  0  0  0  0  0  0  0
  192.2060  172.1300  141.9280 S   0  0  0  0  0  0  0  0  0  0  0  0
  187.8270  175.8850  141.2110 C   0  0  0  0  0  3  0  0  0  0  0  0
  194.1160  173.6190  145.7630 N   0  0  0  0  0  2  0  0  0  0  0  0
  188.5410  175.9930  143.5270 C   0  0  0  0  0  0  0  0  0  0  0  0
  188.5170  175.3110  142.2900 C   0  0  0  0  0  0  0  0  0  0  0  0
  191.4230  175.8840  145.8050 C   0  0  0  0  0  0  0  0  0  0  0  0
  190.5780  176.3910  144.8420 C   0  0  2  0  0  3  0  0  0  0  0  0
  189.8570  173.5500  140.5130 S   0  0  0  0  0  0  0  0  0  0  0  0
  190.4870  177.0270  146.0490 O   0  0  0  0  0  0  0  0  0  0  0  0
  189.1510  173.9890  142.1010 C   0  0  0  0  0  0  0  0  0  0  0  0
  192.2960  173.5360  144.2550 N   0  0  0  0  0  0  0  0  0  0  0  0
  189.3630  175.5000  144.6760 C   0  0  0  0  0  2  0  0  0  0  0  0
  192.2680  174.5410  140.8590 O   0  0  0  0  0  0  0  0  0  0  0  0
  191.5500  173.5840  141.1060 C   0  0  0  0  0  0  0  0  0  0  0  0
  186.4820  178.9730  142.7760 O   0  0  0  0  0  0  0  0  0  0  0  0
  185.1350  179.0410  143.2200 C   0  0  0  0  0  2  0  0  0  0  0  0
  185.0980  179.5370  144.6490 C   0  0  0  0  0  2  0  0  0  0  0  0
  184.1530  178.6670  145.4680 C   0  0  2  0  0  3  0  0  0  0  0  0
  184.5730  178.3960  146.8780 C   0  0  1  0  0  3  0  0  0  0  0  0
  184.8140  177.4800  145.8350 O   0  0  0  0  0  0  0  0  0  0  0  0
  185.8920  179.0260  147.3090 C   0  0  0  0  0  1  0  0  0  0  0  0
  2 18  2  0  0  0  0
  3 10  2  0  0  0  0
  3  4  1  0  0  0  0
  5  7  1  0  0  0  0
  7 22  1  0  0  0  0
  7  1  2  0  0  0  0
  8  2  1  0  0  0  0
  9  5  2  0  0  0  0
  9 12  1  0  0  0  0
 11  1  1  0  0  0  0
 11 19  1  0  0  0  0
 12 11  2  0  0  0  0
 13 16  1  0  0  0  0
 13  4  2  0  0  0  0
 14 19  1  1  0  0  0
 14 13  1  0  0  0  0
 14 16  1  0  0  0  0
 15 21  1  0  0  0  0
 15 17  1  0  0  0  0
 17 12  1  0  0  0  0
 17  6  2  0  0  0  0
 18  3  1  0  0  0  0
 20 21  2  0  0  0  0
 21  8  1  0  0  0  0
 22 23  1  0  0  0  0
 23 24  1  0  0  0  0
 25 24  1  6  0  0  0
 25 27  1  0  0  0  0
 25 26  1  0  0  0  0
 26 28  1  6  0  0  0
 27 26  1  0  0  0  0
M  END
>  <MODEL>
4

>  <REMARK>
 VINA RESULT:      -6.9      2.628      4.246
  Name = 
  4 active torsions:
  status: ('A' for Active; 'I' for Inactive)
    1  A    between atoms: C_7  and  O_28
    2  A    between atoms: C_15  and  C_26
    3  A    between atoms: C_15  and  O_28
    4  A    between atoms: C_17  and  C_26
                            x       y       z     vdW  Elec       q    Type
                         _______ _______ _______ _____ _____    ______ ____

>  <TORSDO>
F 4

$$$$
=
 OpenBabel11042418233D

 28 31  0  0  1  0  0  0  0  0999 V2000
  189.8030  176.4370  146.2910 C   0  0  0  0  0  3  0  0  0  0  0  0
  194.8170  173.6450  142.9510 C   0  0  0  0  0  3  0  0  0  0  0  0
  195.5990  174.5390  145.0020 C   0  0  0  0  0  0  0  0  0  0  0  0
  195.2680  175.2810  146.1770 N   0  0  0  0  0  0  0  0  0  0  0  0
  188.1320  176.3310  144.5510 C   0  0  0  0  0  3  0  0  0  0  0  0
  191.1860  172.7020  144.4620 C   0  0  0  0  0  2  0  0  0  0  0  0
  188.5940  176.8820  145.7540 C   0  0  0  0  0  0  0  0  0  0  0  0
  193.6650  172.7160  141.9360 S   0  0  0  0  0  0  0  0  0  0  0  0
  188.8650  175.3320  143.9090 C   0  0  0  0  0  3  0  0  0  0  0  0
  196.8480  174.3390  144.7310 N   0  0  0  0  0  2  0  0  0  0  0  0
  190.5510  175.4400  145.6500 C   0  0  0  0  0  0  0  0  0  0  0  0
  190.0720  174.8660  144.4510 C   0  0  0  0  0  0  0  0  0  0  0  0
  194.1310  175.8690  146.3610 C   0  0  0  0  0  0  0  0  0  0  0  0
  192.8560  176.2240  145.9770 C   0  0  2  0  0  3  0  0  0  0  0  0
  190.7140  173.6210  141.9820 S   0  0  0  0  0  0  0  0  0  0  0  0
  193.2300  176.7280  147.1930 O   0  0  0  0  0  0  0  0  0  0  0  0
  190.7710  173.7560  143.7680 C   0  0  0  0  0  0  0  0  0  0  0  0
  194.5820  173.9260  144.1930 N   0  0  0  0  0  0  0  0  0  0  0  0
  191.8900  175.0790  146.2090 C   0  0  0  0  0  2  0  0  0  0  0  0
  192.7780  175.1410  141.3990 O   0  0  0  0  0  0  0  0  0  0  0  0
  192.4480  174.0230  141.7620 C   0  0  0  0  0  0  0  0  0  0  0  0
  187.8780  177.8750  146.4290 O   0  0  0  0  0  0  0  0  0  0  0  0
  186.7760  177.5840  147.2770 C   0  0  0  0  0  2  0  0  0  0  0  0
  185.6520  178.5590  146.9980 C   0  0  0  0  0  2  0  0  0  0  0  0
  184.6360  177.9110  146.0650 C   0  0  2  0  0  3  0  0  0  0  0  0
  184.5490  178.4930  144.6890 C   0  0  1  0  0  3  0  0  0  0  0  0
  183.6560  178.8590  145.7150 O   0  0  0  0  0  0  0  0  0  0  0  0
  185.4900  179.6580  144.4030 C   0  0  0  0  0  1  0  0  0  0  0  0
  2 18  2  0  0  0  0
  3  4  1  0  0  0  0
  4 13  2  0  0  0  0
  5  7  2  0  0  0  0
  7  1  1  0  0  0  0
  7 22  1  0  0  0  0
  8  2  1  0  0  0  0
  9 12  2  0  0  0  0
  9  5  1  0  0  0  0
 10  3  2  0  0  0  0
 11 19  1  0  0  0  0
 11  1  2  0  0  0  0
 12 11  1  0  0  0  0
 13 16  1  0  0  0  0
 14 19  1  1  0  0  0
 14 13  1  0  0  0  0
 14 16  1  0  0  0  0
 15 17  1  0  0  0  0
 17 12  1  0  0  0  0
 17  6  2  0  0  0  0
 18  3  1  0  0  0  0
 20 21  2  0  0  0  0
 21  8  1  0  0  0  0
 21 15  1  0  0  0  0
 22 23  1  0  0  0  0
 24 23  1  0  0  0  0
 25 24  1  1  0  0  0
 26 28  1  1  0  0  0
 26 27  1  0  0  0  0
 26 25  1  0  0  0  0
 27 25  1  0  0  0  0
M  END
>  <MODEL>
5

>  <REMARK>
 VINA RESULT:      -6.7      2.698      4.127
  Name = 
  4 active torsions:
  status: ('A' for Active; 'I' for Inactive)
    1  A    between atoms: C_7  and  O_28
    2  A    between atoms: C_15  and  C_26
    3  A    between atoms: C_15  and  O_28
    4  A    between atoms: C_17  and  C_26
                            x       y       z     vdW  Elec       q    Type
                         _______ _______ _______ _____ _____    ______ ____

>  <TORSDO>
F 4

$$$$
=
 OpenBabel11042418233D

 28 31  0  0  1  0  0  0  0  0999 V2000
  188.4220  177.4010  143.8380 C   0  0  0  0  0  3  0  0  0  0  0  0
  193.1990  173.1330  142.0890 C   0  0  0  0  0  3  0  0  0  0  0  0
  194.1160  174.9060  143.3670 C   0  0  0  0  0  0  0  0  0  0  0  0
  193.8640  176.1490  144.0250 N   0  0  0  0  0  0  0  0  0  0  0  0
  186.6420  176.4960  142.4800 C   0  0  0  0  0  3  0  0  0  0  0  0
  189.6710  173.2060  144.0630 C   0  0  0  0  0  2  0  0  0  0  0  0
  187.1830  177.5600  143.2160 C   0  0  0  0  0  0  0  0  0  0  0  0
  191.9810  171.8620  141.7430 S   0  0  0  0  0  0  0  0  0  0  0  0
  187.3280  175.2850  142.3880 C   0  0  0  0  0  3  0  0  0  0  0  0
  195.3440  174.5520  143.1660 N   0  0  0  0  0  2  0  0  0  0  0  0
  189.1230  176.1910  143.7450 C   0  0  0  0  0  0  0  0  0  0  0  0
  188.5660  175.1100  143.0250 C   0  0  0  0  0  0  0  0  0  0  0  0
  192.7430  176.7900  143.9500 C   0  0  0  0  0  0  0  0  0  0  0  0
  191.4480  176.9500  143.5090 C   0  0  2  0  0  3  0  0  0  0  0  0
  189.0420  172.7730  141.4870 S   0  0  0  0  0  0  0  0  0  0  0  0
  191.9020  177.9820  144.2840 O   0  0  0  0  0  0  0  0  0  0  0  0
  189.2150  173.7840  142.9570 C   0  0  0  0  0  0  0  0  0  0  0  0
  193.0460  174.0070  143.0320 N   0  0  0  0  0  0  0  0  0  0  0  0
  190.4950  176.1110  144.3370 C   0  0  0  0  0  2  0  0  0  0  0  0
  191.0700  173.7200  140.1080 O   0  0  0  0  0  0  0  0  0  0  0  0
  190.7600  172.9480  141.0010 C   0  0  0  0  0  0  0  0  0  0  0  0
  186.5160  178.7820  143.3380 O   0  0  0  0  0  0  0  0  0  0  0  0
  185.1400  178.8750  143.6810 C   0  0  0  0  0  2  0  0  0  0  0  0
  184.9040  178.1860  145.0080 C   0  0  0  0  0  2  0  0  0  0  0  0
  185.4830  179.0350  146.1330 C   0  0  2  0  0  3  0  0  0  0  0  0
  186.2940  178.3000  147.1530 C   0  0  1  0  0  3  0  0  0  0  0  0
  184.9370  178.6150  147.3610 O   0  0  0  0  0  0  0  0  0  0  0  0
  186.4330  176.7990  146.9330 C   0  0  0  0  0  1  0  0  0  0  0  0
  2 18  2  0  0  0  0
  3  4  1  0  0  0  0
  5  7  1  0  0  0  0
  7 22  1  0  0  0  0
  7  1  2  0  0  0  0
  8  2  1  0  0  0  0
  9  5  2  0  0  0  0
  9 12  1  0  0  0  0
 10  3  2  0  0  0  0
 11  1  1  0  0  0  0
 11 19  1  0  0  0  0
 12 11  2  0  0  0  0
 13  4  2  0  0  0  0
 13 16  1  0  0  0  0
 14 13  1  0  0  0  0
 14 16  1  0  0  0  0
 14 19  1  1  0  0  0
 15 17  1  0  0  0  0
 17 12  1  0  0  0  0
 17  6  2  0  0  0  0
 18  3  1  0  0  0  0
 20 21  2  0  0  0  0
 21 15  1  0  0  0  0
 21  8  1  0  0  0  0
 22 23  1  0  0  0  0
 23 24  1  0  0  0  0
 25 24  1  6  0  0  0
 25 26  1  0  0  0  0
 25 27  1  0  0  0  0
 26 28  1  6  0  0  0
 26 27  1  0  0  0  0
M  END
>  <MODEL>
6

>  <REMARK>
 VINA RESULT:      -6.7      2.467      4.104
  Name = 
  4 active torsions:
  status: ('A' for Active; 'I' for Inactive)
    1  A    between atoms: C_7  and  O_28
    2  A    between atoms: C_15  and  C_26
    3  A    between atoms: C_15  and  O_28
    4  A    between atoms: C_17  and  C_26
                            x       y       z     vdW  Elec       q    Type
                         _______ _______ _______ _____ _____    ______ ____

>  <TORSDO>
F 4

$$$$
=
 OpenBabel11042418233D

 28 31  0  0  1  0  0  0  0  0999 V2000
  188.7270  175.9290  142.1630 C   0  0  0  0  0  3  0  0  0  0  0  0
  193.6570  172.5390  145.0430 C   0  0  0  0  0  3  0  0  0  0  0  0
  192.2650  171.0680  143.8120 C   0  0  0  0  0  0  0  0  0  0  0  0
  191.0800  170.9350  143.0260 N   0  0  0  0  0  0  0  0  0  0  0  0
  189.0880  178.0520  143.2540 C   0  0  0  0  0  3  0  0  0  0  0  0
  193.0870  175.6180  142.4830 C   0  0  0  0  0  2  0  0  0  0  0  0
  188.2480  177.1830  142.5450 C   0  0  0  0  0  0  0  0  0  0  0  0
  194.6040  174.0460  145.2680 S   0  0  0  0  0  0  0  0  0  0  0  0
  190.3970  177.6730  143.5580 C   0  0  0  0  0  3  0  0  0  0  0  0
  192.8380  169.9940  144.2500 N   0  0  0  0  0  2  0  0  0  0  0  0
  190.0370  175.5350  142.4690 C   0  0  0  0  0  0  0  0  0  0  0  0
  190.8920  176.4210  143.1620 C   0  0  0  0  0  0  0  0  0  0  0  0
  190.2190  171.8850  142.8540 C   0  0  0  0  0  0  0  0  0  0  0  0
  189.7480  173.1640  143.0480 C   0  0  2  0  0  3  0  0  0  0  0  0
  193.0880  176.7150  144.9360 S   0  0  0  0  0  0  0  0  0  0  0  0
  188.9250  172.3810  142.2870 O   0  0  0  0  0  0  0  0  0  0  0  0
  192.3060  176.0990  143.4450 C   0  0  0  0  0  0  0  0  0  0  0  0
  192.8830  172.3490  144.0230 N   0  0  0  0  0  0  0  0  0  0  0  0
  190.4620  174.1400  142.1340 C   0  0  0  0  0  2  0  0  0  0  0  0
  192.4260  174.7650  146.5710 O   0  0  0  0  0  0  0  0  0  0  0  0
  193.2150  175.0970  145.6990 C   0  0  0  0  0  0  0  0  0  0  0  0
  186.9370  177.5370  142.2140 O   0  0  0  0  0  0  0  0  0  0  0  0
  185.8030  176.9130  142.8000 C   0  0  0  0  0  2  0  0  0  0  0  0
  185.4000  177.6690  144.0470 C   0  0  0  0  0  2  0  0  0  0  0  0
  185.7530  176.8460  145.2800 C   0  0  2  0  0  3  0  0  0  0  0  0
  185.0900  177.2630  146.5550 C   0  0  1  0  0  3  0  0  0  0  0  0
  186.3970  177.6700  146.2210 O   0  0  0  0  0  0  0  0  0  0  0  0
  184.1500  178.4580  146.4530 C   0  0  0  0  0  1  0  0  0  0  0  0
  1 11  2  0  0  0  0
  1  7  1  0  0  0  0
  2  8  1  0  0  0  0
  3 18  1  0  0  0  0
  3 10  2  0  0  0  0
  4  3  1  0  0  0  0
  5  9  1  0  0  0  0
  6 17  2  0  0  0  0
  7  5  2  0  0  0  0
  8 21  1  0  0  0  0
 11 12  1  0  0  0  0
 12 17  1  0  0  0  0
 12  9  2  0  0  0  0
 13  4  2  0  0  0  0
 13 14  1  0  0  0  0
 14 19  1  6  0  0  0
 15 21  1  0  0  0  0
 16 13  1  0  0  0  0
 16 14  1  0  0  0  0
 17 15  1  0  0  0  0
 18  2  2  0  0  0  0
 19 11  1  0  0  0  0
 21 20  2  0  0  0  0
 22  7  1  0  0  0  0
 22 23  1  0  0  0  0
 23 24  1  0  0  0  0
 25 24  1  6  0  0  0
 25 27  1  0  0  0  0
 25 26  1  0  0  0  0
 26 28  1  6  0  0  0
 27 26  1  0  0  0  0
M  END
>  <MODEL>
7

>  <REMARK>
 VINA RESULT:      -6.3      2.404      3.197
  Name = 
  4 active torsions:
  status: ('A' for Active; 'I' for Inactive)
    1  A    between atoms: C_7  and  O_28
    2  A    between atoms: C_15  and  C_26
    3  A    between atoms: C_15  and  O_28
    4  A    between atoms: C_17  and  C_26
                            x       y       z     vdW  Elec       q    Type
                         _______ _______ _______ _____ _____    ______ ____

>  <TORSDO>
F 4

$$$$
=
 OpenBabel11042418233D

 28 31  0  0  1  0  0  0  0  0999 V2000
  188.9160  175.2400  145.5740 C   0  0  0  0  0  3  0  0  0  0  0  0
  194.9490  173.3820  143.5150 C   0  0  0  0  0  3  0  0  0  0  0  0
  193.3480  171.7290  142.9490 C   0  0  0  0  0  0  0  0  0  0  0  0
  191.9840  171.3140  143.0470 N   0  0  0  0  0  0  0  0  0  0  0  0
  189.5780  177.1570  146.8850 C   0  0  0  0  0  3  0  0  0  0  0  0
  192.3220  176.4270  143.0850 C   0  0  0  0  0  2  0  0  0  0  0  0
  188.6310  176.1720  146.5740 C   0  0  0  0  0  0  0  0  0  0  0  0
  195.5450  175.0700  143.6350 S   0  0  0  0  0  0  0  0  0  0  0  0
  190.7850  177.2170  146.1870 C   0  0  0  0  0  3  0  0  0  0  0  0
  194.2270  170.8680  142.5480 N   0  0  0  0  0  2  0  0  0  0  0  0
  190.1290  175.2860  144.8730 C   0  0  0  0  0  0  0  0  0  0  0  0
  191.0720  176.2960  145.1690 C   0  0  0  0  0  0  0  0  0  0  0  0
  191.0970  171.9170  143.7700 C   0  0  0  0  0  0  0  0  0  0  0  0
  190.6870  172.9050  144.6380 C   0  0  2  0  0  3  0  0  0  0  0  0
  193.8060  177.0580  145.2340 S   0  0  0  0  0  0  0  0  0  0  0  0
  189.7040  172.0120  144.3090 O   0  0  0  0  0  0  0  0  0  0  0  0
  192.3340  176.4480  144.4130 C   0  0  0  0  0  0  0  0  0  0  0  0
  193.7320  173.0940  143.1770 N   0  0  0  0  0  0  0  0  0  0  0  0
  190.4290  174.1990  143.8910 C   0  0  0  0  0  2  0  0  0  0  0  0
  194.7420  174.7690  146.1290 O   0  0  0  0  0  0  0  0  0  0  0  0
  194.6680  175.4880  145.1440 C   0  0  0  0  0  0  0  0  0  0  0  0
  187.4070  176.0920  147.2440 O   0  0  0  0  0  0  0  0  0  0  0  0
  186.4300  177.1220  147.1830 C   0  0  0  0  0  2  0  0  0  0  0  0
  185.4590  176.8290  146.0590 C   0  0  0  0  0  2  0  0  0  0  0  0
  185.3530  178.0460  145.1470 C   0  0  2  0  0  3  0  0  0  0  0  0
  185.7450  177.8270  143.7200 C   0  0  1  0  0  3  0  0  0  0  0  0
  186.6330  178.3780  144.6650 O   0  0  0  0  0  0  0  0  0  0  0  0
  186.2000  176.4160  143.3670 C   0  0  0  0  0  1  0  0  0  0  0  0
  1  7  1  0  0  0  0
  2  8  1  0  0  0  0
  3  4  1  0  0  0  0
  3 18  1  0  0  0  0
  4 13  2  0  0  0  0
  6 17  2  0  0  0  0
  7  5  2  0  0  0  0
  7 22  1  0  0  0  0
  8 21  1  0  0  0  0
  9  5  1  0  0  0  0
 10  3  2  0  0  0  0
 11 12  1  0  0  0  0
 11  1  2  0  0  0  0
 12  9  2  0  0  0  0
 13 16  1  0  0  0  0
 13 14  1  0  0  0  0
 14 19  1  6  0  0  0
 16 14  1  0  0  0  0
 17 12  1  0  0  0  0
 17 15  1  0  0  0  0
 18  2  2  0  0  0  0
 19 11  1  0  0  0  0
 21 15  1  0  0  0  0
 21 20  2  0  0  0  0
 23 22  1  0  0  0  0
 24 23  1  0  0  0  0
 25 24  1  1  0  0  0
 26 28  1  1  0  0  0
 26 27  1  0  0  0  0
 26 25  1  0  0  0  0
 27 25  1  0  0  0  0
M  END
>  <MODEL>
8

>  <REMARK>
 VINA RESULT:      -6.3      2.254      2.453
  Name = 
  4 active torsions:
  status: ('A' for Active; 'I' for Inactive)
    1  A    between atoms: C_7  and  O_28
    2  A    between atoms: C_15  and  C_26
    3  A    between atoms: C_15  and  O_28
    4  A    between atoms: C_17  and  C_26
                            x       y       z     vdW  Elec       q    Type
                         _______ _______ _______ _____ _____    ______ ____

>  <TORSDO>
F 4

$$$$
=
 OpenBabel11042418233D

 28 31  0  0  1  0  0  0  0  0999 V2000
  193.8930  173.8910  145.4250 C   0  0  0  0  0  3  0  0  0  0  0  0
  188.0940  175.1410  142.4420 C   0  0  0  0  0  3  0  0  0  0  0  0
  188.9420  173.0450  141.7310 C   0  0  0  0  0  0  0  0  0  0  0  0
  190.0280  172.1190  141.8000 N   0  0  0  0  0  0  0  0  0  0  0  0
  194.2330  176.0580  146.4330 C   0  0  0  0  0  3  0  0  0  0  0  0
  189.6680  174.7990  146.1520 C   0  0  0  0  0  2  0  0  0  0  0  0
  194.7510  174.8310  145.9980 C   0  0  0  0  0  0  0  0  0  0  0  0
  187.6880  176.3770  143.6780 S   0  0  0  0  0  0  0  0  0  0  0  0
  192.8690  176.3280  146.3120 C   0  0  0  0  0  3  0  0  0  0  0  0
  188.0450  172.8770  140.8150 N   0  0  0  0  0  2  0  0  0  0  0  0
  192.5230  174.1550  145.2910 C   0  0  0  0  0  0  0  0  0  0  0  0
  191.9970  175.3830  145.7530 C   0  0  0  0  0  0  0  0  0  0  0  0
  191.1540  172.3710  142.3840 C   0  0  0  0  0  0  0  0  0  0  0  0
  192.0150  173.1790  143.0930 C   0  0  2  0  0  3  0  0  0  0  0  0
  189.9970  177.3760  145.4680 S   0  0  0  0  0  0  0  0  0  0  0  0
  192.5450  171.9630  142.7580 O   0  0  0  0  0  0  0  0  0  0  0  0
  190.5520  175.6900  145.7140 C   0  0  0  0  0  0  0  0  0  0  0  0
  188.7750  174.0750  142.7200 N   0  0  0  0  0  0  0  0  0  0  0  0
  191.6700  173.1610  144.5690 C   0  0  0  0  0  2  0  0  0  0  0  0
  189.9670  177.4070  142.8390 O   0  0  0  0  0  0  0  0  0  0  0  0
  189.3400  177.0630  143.8280 C   0  0  0  0  0  0  0  0  0  0  0  0
  196.1100  174.5240  146.1170 O   0  0  0  0  0  0  0  0  0  0  0  0
  196.9200  174.1860  145.0000 C   0  0  0  0  0  2  0  0  0  0  0  0
  196.8120  175.2720  143.9510 C   0  0  0  0  0  2  0  0  0  0  0  0
  196.7320  174.6390  142.5680 C   0  0  2  0  0  3  0  0  0  0  0  0
  195.5340  175.0080  141.7500 C   0  0  1  0  0  3  0  0  0  0  0  0
  195.5920  173.8160  142.4990 O   0  0  0  0  0  0  0  0  0  0  0  0
  194.5520  175.9690  142.4110 C   0  0  0  0  0  1  0  0  0  0  0  0
  1  7  1  0  0  0  0
  2 18  2  0  0  0  0
  2  8  1  0  0  0  0
  3  4  1  0  0  0  0
  3 18  1  0  0  0  0
  4 13  2  0  0  0  0
  7 22  1  0  0  0  0
  7  5  2  0  0  0  0
  8 21  1  0  0  0  0
  9  5  1  0  0  0  0
 10  3  2  0  0  0  0
 11  1  2  0  0  0  0
 11 12  1  0  0  0  0
 12  9  2  0  0  0  0
 13 16  1  0  0  0  0
 13 14  1  0  0  0  0
 14 19  1  1  0  0  0
 15 17  1  0  0  0  0
 16 14  1  0  0  0  0
 17 12  1  0  0  0  0
 17  6  2  0  0  0  0
 19 11  1  0  0  0  0
 20 21  2  0  0  0  0
 21 15  1  0  0  0  0
 23 22  1  0  0  0  0
 24 23  1  0  0  0  0
 25 24  1  1  0  0  0
 26 28  1  1  0  0  0
 26 27  1  0  0  0  0
 26 25  1  0  0  0  0
 27 25  1  0  0  0  0
M  END
>  <MODEL>
9

>  <REMARK>
 VINA RESULT:      -6.3      3.520      7.074
  Name = 
  4 active torsions:
  status: ('A' for Active; 'I' for Inactive)
    1  A    between atoms: C_7  and  O_28
    2  A    between atoms: C_15  and  C_26
    3  A    between atoms: C_15  and  O_28
    4  A    between atoms: C_17  and  C_26
                            x       y       z     vdW  Elec       q    Type
                         _______ _______ _______ _____ _____    ______ ____

>  <TORSDO>
F 4

$$$$
