=
 OpenBabel11042416073D

 34 39  0  0  1  0  0  0  0  0999 V2000
  191.0140  175.1670  143.3130 N   0  0  0  0  0  0  0  0  0  0  0  0
  192.3110  174.3360  141.3630 C   0  0  0  0  0  0  0  0  0  0  0  0
  194.2910  174.9060  142.0860 N   0  0  0  0  0  2  0  0  0  0  0  0
  191.1340  175.7840  144.5340 C   0  0  0  0  0  0  0  0  0  0  0  0
  192.1320  174.9320  142.5850 C   0  0  0  0  0  0  0  0  0  0  0  0
  193.5670  175.9010  144.2320 C   0  0  0  0  0  0  0  0  0  0  0  0
  193.6350  174.3310  141.0790 N   0  0  0  0  0  0  0  0  0  0  0  0
  192.4210  176.1530  145.0090 C   0  0  0  0  0  3  0  0  0  0  0  0
  193.3760  175.2730  143.0060 C   0  0  0  0  0  0  0  0  0  0  0  0
  187.7890  177.2250  145.8560 C   0  0  2  0  0  3  0  0  0  0  0  0
  188.8100  177.6600  143.8140 N   0  0  0  0  0  0  0  0  0  0  0  0
  186.7850  178.1190  142.5220 C   0  0  0  0  0  3  0  0  0  0  0  0
  189.1380  177.3340  145.2040 C   0  0  2  0  0  3  0  0  0  0  0  0
  187.5630  176.3550  147.0110 C   0  0  0  0  0  3  0  0  0  0  0  0
  189.9260  176.0420  145.3510 C   0  0  0  0  0  0  0  0  0  0  0  0
  189.6270  175.1950  146.3580 C   0  0  0  0  0  3  0  0  0  0  0  0
  187.5380  177.8760  143.7510 C   0  0  0  0  0  0  0  0  0  0  0  0
  184.6170  177.8710  143.7970 C   0  0  0  0  0  2  0  0  0  0  0  0
  188.4610  175.3970  147.2530 C   0  0  0  0  0  3  0  0  0  0  0  0
  185.4090  177.5070  145.0310 C   0  0  0  0  0  0  0  0  0  0  0  0
  186.8690  177.6170  144.9910 C   0  0  1  0  0  3  0  0  0  0  0  0
  184.8120  177.1450  146.0780 O   0  0  0  0  0  0  0  0  0  0  0  0
  185.4430  178.1140  142.5400 C   0  0  0  0  0  0  0  0  0  0  0  0
  184.1800  178.5690  140.3220 N   0  0  0  0  0  0  0  0  0  0  0  0
  184.7440  178.3650  141.3120 C   0  0  0  0  0  0  0  0  0  0  0  0
  194.9250  176.2630  144.7300 C   0  0  0  0  0  2  0  0  0  0  0  0
  195.3590  175.2910  145.8120 C   0  0  0  0  0  2  0  0  0  0  0  0
  197.1200  174.7450  144.3440 O   0  0  0  0  0  0  0  0  0  0  0  0
  196.7060  173.0960  145.9650 C   0  0  0  0  0  1  0  0  0  0  0  0
  196.4510  174.4080  145.3070 C   0  0  0  0  0  0  0  0  0  0  0  0
  191.3100  173.7900  140.5010 N   0  0  0  0  0  2  0  0  0  0  0  0
  189.1100  172.8770  140.9240 C   0  0  0  0  0  2  0  0  0  0  0  0
  189.6530  172.2330  139.6660 C   0  0  0  0  0  2  0  0  0  0  0  0
  190.5880  172.5670  140.8100 C   0  0  0  0  0  3  0  0  0  0  0  0
  1  4  1  0  0  0  0
  2  5  1  0  0  0  0
  3  9  1  0  0  0  0
  4  8  2  0  0  0  0
  4 15  1  0  0  0  0
  5  9  1  0  0  0  0
  5  1  2  0  0  0  0
  6 26  1  0  0  0  0
  6  8  1  0  0  0  0
  7  2  2  0  0  0  0
  7  3  1  0  0  0  0
  9  6  2  0  0  0  0
 10 14  1  6  0  0  0
 12 23  2  0  0  0  0
 12 17  1  0  0  0  0
 13 11  1  6  0  0  0
 13 15  1  0  0  0  0
 13 10  1  0  0  0  0
 14 19  2  0  0  0  0
 15 16  2  0  0  0  0
 16 19  1  0  0  0  0
 17 11  2  0  0  0  0
 18 20  1  0  0  0  0
 20 22  2  0  0  0  0
 21 17  1  6  0  0  0
 21 20  1  0  0  0  0
 21 10  1  0  0  0  0
 23 18  1  0  0  0  0
 24 25  3  0  0  0  0
 25 23  1  0  0  0  0
 26 27  1  0  0  0  0
 28 30  2  0  0  0  0
 30 27  1  0  0  0  0
 30 29  1  0  0  0  0
 31 34  1  0  0  0  0
 31  2  1  0  0  0  0
 33 34  1  0  0  0  0
 33 32  1  0  0  0  0
 34 32  1  0  0  0  0
M  END
>  <MODEL>
1

>  <REMARK>
 VINA RESULT:      -7.7      0.000      0.000
  Name = 
  7 active torsions:
  status: ('A' for Active; 'I' for Inactive)
    1  A    between atoms: C_7  and  N_27
    2  A    between atoms: C_8  and  C_20
    3  A    between atoms: C_12  and  C_16
    4  A    between atoms: C_12  and  C_26
    5  A    between atoms: C_16  and  C_33
    6  A    between atoms: C_19  and  C_34
    7  A    between atoms: C_24  and  N_27
                            x       y       z     vdW  Elec       q    Type
                         _______ _______ _______ _____ _____    ______ ____

>  <TORSDO>
F 7

$$$$
=
 OpenBabel11042416073D

 34 39  0  0  1  0  0  0  0  0999 V2000
  190.7830  175.8550  144.2570 N   0  0  0  0  0  0  0  0  0  0  0  0
  192.9860  175.1160  143.3750 C   0  0  0  0  0  0  0  0  0  0  0  0
  192.2540  173.4480  142.1710 N   0  0  0  0  0  2  0  0  0  0  0  0
  189.4380  175.5840  144.2280 C   0  0  0  0  0  0  0  0  0  0  0  0
  191.6250  175.0740  143.5390 C   0  0  0  0  0  0  0  0  0  0  0  0
  189.8530  173.7020  142.7070 C   0  0  0  0  0  0  0  0  0  0  0  0
  193.3480  174.1160  142.5380 N   0  0  0  0  0  0  0  0  0  0  0  0
  188.9570  174.5020  143.4420 C   0  0  0  0  0  3  0  0  0  0  0  0
  191.2020  174.0310  142.7800 C   0  0  0  0  0  0  0  0  0  0  0  0
  186.7470  178.1960  145.2080 C   0  0  2  0  0  3  0  0  0  0  0  0
  187.3500  177.5190  143.0680 N   0  0  0  0  0  0  0  0  0  0  0  0
  185.1930  177.8980  141.9810 C   0  0  0  0  0  3  0  0  0  0  0  0
  187.9190  177.7060  144.4060 C   0  0  2  0  0  3  0  0  0  0  0  0
  186.6430  177.9420  146.6470 C   0  0  0  0  0  3  0  0  0  0  0  0
  188.4980  176.4320  144.9980 C   0  0  0  0  0  0  0  0  0  0  0  0
  188.2950  176.1560  146.3040 C   0  0  0  0  0  3  0  0  0  0  0  0
  186.1480  177.9920  143.0830 C   0  0  0  0  0  0  0  0  0  0  0  0
  183.3490  178.7120  143.5070 C   0  0  0  0  0  2  0  0  0  0  0  0
  187.4040  176.9740  147.1640 C   0  0  0  0  0  3  0  0  0  0  0  0
  184.3230  178.6910  144.6600 C   0  0  0  0  0  0  0  0  0  0  0  0
  185.7360  178.4190  144.3870 C   0  0  1  0  0  3  0  0  0  0  0  0
  183.9210  178.9330  145.8280 O   0  0  0  0  0  0  0  0  0  0  0  0
  183.9050  178.2250  142.1740 C   0  0  0  0  0  0  0  0  0  0  0  0
  182.2750  178.0470  140.1660 N   0  0  0  0  0  0  0  0  0  0  0  0
  183.0030  178.1260  141.0620 C   0  0  0  0  0  0  0  0  0  0  0  0
  189.3590  172.5790  141.8620 C   0  0  0  0  0  2  0  0  0  0  0  0
  188.1910  173.0430  141.0100 C   0  0  0  0  0  2  0  0  0  0  0  0
  189.0510  171.9280  139.1200 O   0  0  0  0  0  0  0  0  0  0  0  0
  188.2700  174.0940  138.6560 C   0  0  0  0  0  1  0  0  0  0  0  0
  188.5340  172.9410  139.5620 C   0  0  0  0  0  0  0  0  0  0  0  0
  193.9090  176.0390  143.9570 N   0  0  0  0  0  2  0  0  0  0  0  0
  194.4100  176.1390  146.3220 C   0  0  0  0  0  2  0  0  0  0  0  0
  194.8990  177.4210  145.6830 C   0  0  0  0  0  2  0  0  0  0  0  0
  193.6280  176.7630  145.1870 C   0  0  0  0  0  3  0  0  0  0  0  0
  2  5  1  0  0  0  0
  2 31  1  0  0  0  0
  3  7  1  0  0  0  0
  3  9  1  0  0  0  0
  4  1  1  0  0  0  0
  4 15  1  0  0  0  0
  5  1  2  0  0  0  0
  6  9  2  0  0  0  0
  6  8  1  0  0  0  0
  7  2  2  0  0  0  0
  8  4  2  0  0  0  0
  9  5  1  0  0  0  0
 10 14  1  1  0  0  0
 11 17  2  0  0  0  0
 12 23  2  0  0  0  0
 12 17  1  0  0  0  0
 13 11  1  6  0  0  0
 13 15  1  0  0  0  0
 13 10  1  0  0  0  0
 14 19  2  0  0  0  0
 15 16  2  0  0  0  0
 16 19  1  0  0  0  0
 18 20  1  0  0  0  0
 20 22  2  0  0  0  0
 21 17  1  6  0  0  0
 21 20  1  0  0  0  0
 21 10  1  0  0  0  0
 23 18  1  0  0  0  0
 24 25  3  0  0  0  0
 25 23  1  0  0  0  0
 26  6  1  0  0  0  0
 27 26  1  0  0  0  0
 28 30  2  0  0  0  0
 29 30  1  0  0  0  0
 30 27  1  0  0  0  0
 31 34  1  0  0  0  0
 33 32  1  0  0  0  0
 34 33  1  0  0  0  0
 34 32  1  0  0  0  0
M  END
>  <MODEL>
2

>  <REMARK>
 VINA RESULT:      -7.7      2.285      4.832
  Name = 
  7 active torsions:
  status: ('A' for Active; 'I' for Inactive)
    1  A    between atoms: C_7  and  N_27
    2  A    between atoms: C_8  and  C_20
    3  A    between atoms: C_12  and  C_16
    4  A    between atoms: C_12  and  C_26
    5  A    between atoms: C_16  and  C_33
    6  A    between atoms: C_19  and  C_34
    7  A    between atoms: C_24  and  N_27
                            x       y       z     vdW  Elec       q    Type
                         _______ _______ _______ _____ _____    ______ ____

>  <TORSDO>
F 7

$$$$
=
 OpenBabel11042416073D

 34 39  0  0  1  0  0  0  0  0999 V2000
  189.2750  174.6420  143.8960 N   0  0  0  0  0  0  0  0  0  0  0  0
  190.2040  173.0450  142.2330 C   0  0  0  0  0  0  0  0  0  0  0  0
  192.2540  173.0280  142.9840 N   0  0  0  0  0  2  0  0  0  0  0  0
  189.5990  175.4080  144.9880 C   0  0  0  0  0  0  0  0  0  0  0  0
  190.2410  173.8960  143.3080 C   0  0  0  0  0  0  0  0  0  0  0  0
  191.9190  174.6160  144.8510 C   0  0  0  0  0  0  0  0  0  0  0  0
  191.4420  172.5280  142.0540 N   0  0  0  0  0  0  0  0  0  0  0  0
  190.9320  175.3970  145.4820 C   0  0  0  0  0  3  0  0  0  0  0  0
  191.5240  173.8620  143.7510 C   0  0  0  0  0  0  0  0  0  0  0  0
  186.7930  177.9880  145.6850 C   0  0  2  0  0  3  0  0  0  0  0  0
  187.7050  177.4080  143.6280 N   0  0  0  0  0  0  0  0  0  0  0  0
  185.7310  177.8530  142.2540 C   0  0  0  0  0  3  0  0  0  0  0  0
  188.0700  177.5290  145.0410 C   0  0  2  0  0  3  0  0  0  0  0  0
  186.4790  177.6680  147.0790 C   0  0  0  0  0  3  0  0  0  0  0  0
  188.5560  176.2240  145.6520 C   0  0  0  0  0  0  0  0  0  0  0  0
  188.1630  175.8890  146.8980 C   0  0  0  0  0  3  0  0  0  0  0  0
  186.5140  177.8890  143.4880 C   0  0  0  0  0  0  0  0  0  0  0  0
  183.6820  178.6070  143.5280 C   0  0  0  0  0  2  0  0  0  0  0  0
  187.1550  176.6710  147.6560 C   0  0  0  0  0  3  0  0  0  0  0  0
  184.4760  178.5250  144.8100 C   0  0  0  0  0  0  0  0  0  0  0  0
  185.9140  178.2570  144.7360 C   0  0  1  0  0  3  0  0  0  0  0  0
  183.9070  178.7150  145.9170 O   0  0  0  0  0  0  0  0  0  0  0  0
  184.4300  178.1800  142.2700 C   0  0  0  0  0  0  0  0  0  0  0  0
  183.1140  178.1050  140.0370 N   0  0  0  0  0  0  0  0  0  0  0  0
  183.7010  178.1390  141.0350 C   0  0  0  0  0  0  0  0  0  0  0  0
  193.3140  174.5790  145.3730 C   0  0  0  0  0  2  0  0  0  0  0  0
  193.5730  175.7880  146.2540 C   0  0  0  0  0  2  0  0  0  0  0  0
  194.8170  177.7830  146.0820 O   0  0  0  0  0  0  0  0  0  0  0  0
  195.3760  176.1860  144.4530 C   0  0  0  0  0  1  0  0  0  0  0  0
  194.6100  176.6660  145.6370 C   0  0  0  0  0  0  0  0  0  0  0  0
  189.0790  172.7190  141.4150 N   0  0  0  0  0  2  0  0  0  0  0  0
  189.5030  173.6390  139.2180 C   0  0  0  0  0  2  0  0  0  0  0  0
  188.2270  172.8280  139.1500 C   0  0  0  0  0  2  0  0  0  0  0  0
  188.5560  173.6180  140.3990 C   0  0  0  0  0  3  0  0  0  0  0  0
  1  4  1  0  0  0  0
  2  5  1  0  0  0  0
  3  9  1  0  0  0  0
  4  8  2  0  0  0  0
  4 15  1  0  0  0  0
  5  9  1  0  0  0  0
  5  1  2  0  0  0  0
  6 26  1  0  0  0  0
  6  8  1  0  0  0  0
  7  2  2  0  0  0  0
  7  3  1  0  0  0  0
  9  6  2  0  0  0  0
 10 14  1  1  0  0  0
 12 23  2  0  0  0  0
 12 17  1  0  0  0  0
 13 11  1  6  0  0  0
 13 15  1  0  0  0  0
 13 10  1  0  0  0  0
 14 19  2  0  0  0  0
 15 16  2  0  0  0  0
 16 19  1  0  0  0  0
 17 11  2  0  0  0  0
 18 20  1  0  0  0  0
 20 22  2  0  0  0  0
 21 17  1  6  0  0  0
 21 20  1  0  0  0  0
 21 10  1  0  0  0  0
 23 18  1  0  0  0  0
 24 25  3  0  0  0  0
 25 23  1  0  0  0  0
 26 27  1  0  0  0  0
 29 30  1  0  0  0  0
 30 28  2  0  0  0  0
 30 27  1  0  0  0  0
 31  2  1  0  0  0  0
 32 34  1  0  0  0  0
 33 32  1  0  0  0  0
 33 34  1  0  0  0  0
 34 31  1  0  0  0  0
M  END
>  <MODEL>
3

>  <REMARK>
 VINA RESULT:      -7.7      1.786      2.081
  Name = 
  7 active torsions:
  status: ('A' for Active; 'I' for Inactive)
    1  A    between atoms: C_7  and  N_27
    2  A    between atoms: C_8  and  C_20
    3  A    between atoms: C_12  and  C_16
    4  A    between atoms: C_12  and  C_26
    5  A    between atoms: C_16  and  C_33
    6  A    between atoms: C_19  and  C_34
    7  A    between atoms: C_24  and  N_27
                            x       y       z     vdW  Elec       q    Type
                         _______ _______ _______ _____ _____    ______ ____

>  <TORSDO>
F 7

$$$$
=
 OpenBabel11042416073D

 34 39  0  0  1  0  0  0  0  0999 V2000
  188.6460  176.4400  143.2910 N   0  0  0  0  0  0  0  0  0  0  0  0
  187.2850  176.5340  141.2140 C   0  0  0  0  0  0  0  0  0  0  0  0
  185.8240  178.0000  141.9090 N   0  0  0  0  0  2  0  0  0  0  0  0
  188.7550  176.9520  144.5610 C   0  0  0  0  0  0  0  0  0  0  0  0
  187.6280  176.8580  142.5020 C   0  0  0  0  0  0  0  0  0  0  0  0
  186.7560  178.3230  144.1770 C   0  0  0  0  0  0  0  0  0  0  0  0
  186.1830  177.2410  140.8730 N   0  0  0  0  0  0  0  0  0  0  0  0
  187.8080  177.9080  145.0150 C   0  0  0  0  0  3  0  0  0  0  0  0
  186.7040  177.7680  142.9020 C   0  0  0  0  0  0  0  0  0  0  0  0
  192.0620  175.4140  145.8720 C   0  0  2  0  0  3  0  0  0  0  0  0
  191.3980  175.6680  143.6600 N   0  0  0  0  0  0  0  0  0  0  0  0
  193.6230  175.8830  142.6690 C   0  0  0  0  0  3  0  0  0  0  0  0
  190.8420  175.4370  144.9960 C   0  0  2  0  0  3  0  0  0  0  0  0
  192.0040  175.8200  147.2790 C   0  0  0  0  0  3  0  0  0  0  0  0
  189.8670  176.5160  145.4380 C   0  0  0  0  0  0  0  0  0  0  0  0
  189.9030  176.9600  146.7110 C   0  0  0  0  0  3  0  0  0  0  0  0
  192.6840  175.5970  143.7520 C   0  0  0  0  0  0  0  0  0  0  0  0
  195.5420  175.8310  144.3140 C   0  0  0  0  0  2  0  0  0  0  0  0
  190.9540  176.5450  147.6730 C   0  0  0  0  0  3  0  0  0  0  0  0
  194.5470  175.6530  145.4360 C   0  0  0  0  0  0  0  0  0  0  0  0
  193.1360  175.4430  145.1030 C   0  0  1  0  0  3  0  0  0  0  0  0
  194.9400  175.6580  146.6320 O   0  0  0  0  0  0  0  0  0  0  0  0
  194.9360  175.9930  142.9240 C   0  0  0  0  0  0  0  0  0  0  0  0
  196.5400  176.4860  140.9480 N   0  0  0  0  0  0  0  0  0  0  0  0
  195.8230  176.2660  141.8300 C   0  0  0  0  0  0  0  0  0  0  0  0
  185.7700  179.3430  144.6340 C   0  0  0  0  0  2  0  0  0  0  0  0
  184.5160  178.6600  145.1490 C   0  0  0  0  0  2  0  0  0  0  0  0
  184.6780  176.7340  146.4980 O   0  0  0  0  0  0  0  0  0  0  0  0
  185.2200  178.7190  147.6300 C   0  0  0  0  0  1  0  0  0  0  0  0
  184.8040  177.9450  146.4270 C   0  0  0  0  0  0  0  0  0  0  0  0
  187.9480  175.6200  140.3360 N   0  0  0  0  0  2  0  0  0  0  0  0
  188.5980  173.4650  139.4510 C   0  0  0  0  0  2  0  0  0  0  0  0
  189.6710  173.9200  140.4170 C   0  0  0  0  0  2  0  0  0  0  0  0
  188.2160  174.2380  140.6960 C   0  0  0  0  0  3  0  0  0  0  0  0
  1  4  1  0  0  0  0
  2  5  1  0  0  0  0
  3  9  1  0  0  0  0
  4  8  2  0  0  0  0
  4 15  1  0  0  0  0
  5  9  1  0  0  0  0
  5  1  2  0  0  0  0
  6 26  1  0  0  0  0
  6  8  1  0  0  0  0
  7  2  2  0  0  0  0
  7  3  1  0  0  0  0
  9  6  2  0  0  0  0
 10 14  1  1  0  0  0
 11 17  2  0  0  0  0
 12 23  2  0  0  0  0
 12 17  1  0  0  0  0
 13 11  1  6  0  0  0
 13 15  1  0  0  0  0
 13 10  1  0  0  0  0
 14 19  2  0  0  0  0
 15 16  2  0  0  0  0
 16 19  1  0  0  0  0
 18 20  1  0  0  0  0
 20 22  2  0  0  0  0
 21 17  1  6  0  0  0
 21 20  1  0  0  0  0
 21 10  1  0  0  0  0
 23 18  1  0  0  0  0
 24 25  3  0  0  0  0
 25 23  1  0  0  0  0
 26 27  1  0  0  0  0
 27 30  1  0  0  0  0
 30 28  2  0  0  0  0
 30 29  1  0  0  0  0
 31 34  1  0  0  0  0
 31  2  1  0  0  0  0
 32 33  1  0  0  0  0
 32 34  1  0  0  0  0
 33 34  1  0  0  0  0
M  END
>  <MODEL>
4

>  <REMARK>
 VINA RESULT:      -7.6      1.883      7.603
  Name = 
  7 active torsions:
  status: ('A' for Active; 'I' for Inactive)
    1  A    between atoms: C_7  and  N_27
    2  A    between atoms: C_8  and  C_20
    3  A    between atoms: C_12  and  C_16
    4  A    between atoms: C_12  and  C_26
    5  A    between atoms: C_16  and  C_33
    6  A    between atoms: C_19  and  C_34
    7  A    between atoms: C_24  and  N_27
                            x       y       z     vdW  Elec       q    Type
                         _______ _______ _______ _____ _____    ______ ____

>  <TORSDO>
F 7

$$$$
=
 OpenBabel11042416073D

 34 39  0  0  1  0  0  0  0  0999 V2000
  187.6980  177.5880  144.7480 N   0  0  0  0  0  0  0  0  0  0  0  0
  185.5540  178.5910  143.9880 C   0  0  0  0  0  0  0  0  0  0  0  0
  185.4920  177.6480  142.0210 N   0  0  0  0  0  2  0  0  0  0  0  0
  188.7120  176.7430  144.3730 C   0  0  0  0  0  0  0  0  0  0  0  0
  186.6830  177.8190  143.8820 C   0  0  0  0  0  0  0  0  0  0  0  0
  187.6100  176.3840  142.2100 C   0  0  0  0  0  0  0  0  0  0  0  0
  184.8440  178.4720  142.8430 N   0  0  0  0  0  0  0  0  0  0  0  0
  188.6740  176.1250  143.0950 C   0  0  0  0  0  3  0  0  0  0  0  0
  186.6140  177.2480  142.6520 C   0  0  0  0  0  0  0  0  0  0  0  0
  192.0770  175.5620  145.8910 C   0  0  2  0  0  3  0  0  0  0  0  0
  191.4510  175.5500  143.6530 N   0  0  0  0  0  0  0  0  0  0  0  0
  193.6810  175.8090  142.6840 C   0  0  0  0  0  3  0  0  0  0  0  0
  190.8800  175.4180  144.9960 C   0  0  2  0  0  3  0  0  0  0  0  0
  191.9600  176.1010  147.2480 C   0  0  0  0  0  3  0  0  0  0  0  0
  189.8280  176.4700  145.3090 C   0  0  0  0  0  0  0  0  0  0  0  0
  189.8060  177.0410  146.5320 C   0  0  0  0  0  3  0  0  0  0  0  0
  192.7370  175.5730  143.7740 C   0  0  0  0  0  0  0  0  0  0  0  0
  195.5600  176.0450  144.3590 C   0  0  0  0  0  2  0  0  0  0  0  0
  190.8580  176.7920  147.5490 C   0  0  0  0  0  3  0  0  0  0  0  0
  194.5520  175.9160  145.4760 C   0  0  0  0  0  0  0  0  0  0  0  0
  193.1650  175.5830  145.1410 C   0  0  1  0  0  3  0  0  0  0  0  0
  194.9150  176.0650  146.6720 O   0  0  0  0  0  0  0  0  0  0  0  0
  194.9780  176.0290  142.9500 C   0  0  0  0  0  0  0  0  0  0  0  0
  196.5950  176.4260  140.9620 N   0  0  0  0  0  0  0  0  0  0  0  0
  195.8720  176.2490  141.8490 C   0  0  0  0  0  0  0  0  0  0  0  0
  187.5470  175.7240  140.8750 C   0  0  0  0  0  2  0  0  0  0  0  0
  188.6990  174.7470  140.7220 C   0  0  0  0  0  2  0  0  0  0  0  0
  187.7840  172.8010  141.6870 O   0  0  0  0  0  0  0  0  0  0  0  0
  188.1960  172.6010  139.3830 C   0  0  0  0  0  1  0  0  0  0  0  0
  188.1870  173.3470  140.6730 C   0  0  0  0  0  0  0  0  0  0  0  0
  185.1470  179.3950  145.0980 N   0  0  0  0  0  2  0  0  0  0  0  0
  184.5590  177.5090  146.4950 C   0  0  0  0  0  2  0  0  0  0  0  0
  184.9500  178.6590  147.3980 C   0  0  0  0  0  2  0  0  0  0  0  0
  184.2070  178.9280  146.1050 C   0  0  0  0  0  3  0  0  0  0  0  0
  2 31  1  0  0  0  0
  3  9  1  0  0  0  0
  3  7  1  0  0  0  0
  4  1  1  0  0  0  0
  4 15  1  0  0  0  0
  5  2  1  0  0  0  0
  5  1  2  0  0  0  0
  6  9  2  0  0  0  0
  6  8  1  0  0  0  0
  7  2  2  0  0  0  0
  8  4  2  0  0  0  0
  9  5  1  0  0  0  0
 10 14  1  6  0  0  0
 11 17  2  0  0  0  0
 12 23  2  0  0  0  0
 12 17  1  0  0  0  0
 13 11  1  6  0  0  0
 13 15  1  0  0  0  0
 13 10  1  0  0  0  0
 14 19  2  0  0  0  0
 15 16  2  0  0  0  0
 16 19  1  0  0  0  0
 18 20  1  0  0  0  0
 20 22  2  0  0  0  0
 21 17  1  6  0  0  0
 21 20  1  0  0  0  0
 21 10  1  0  0  0  0
 23 18  1  0  0  0  0
 24 25  3  0  0  0  0
 25 23  1  0  0  0  0
 26  6  1  0  0  0  0
 27 26  1  0  0  0  0
 29 30  1  0  0  0  0
 30 27  1  0  0  0  0
 30 28  2  0  0  0  0
 31 34  1  0  0  0  0
 32 33  1  0  0  0  0
 34 32  1  0  0  0  0
 34 33  1  0  0  0  0
M  END
>  <MODEL>
5

>  <REMARK>
 VINA RESULT:      -7.3      2.267      7.976
  Name = 
  7 active torsions:
  status: ('A' for Active; 'I' for Inactive)
    1  A    between atoms: C_7  and  N_27
    2  A    between atoms: C_8  and  C_20
    3  A    between atoms: C_12  and  C_16
    4  A    between atoms: C_12  and  C_26
    5  A    between atoms: C_16  and  C_33
    6  A    between atoms: C_19  and  C_34
    7  A    between atoms: C_24  and  N_27
                            x       y       z     vdW  Elec       q    Type
                         _______ _______ _______ _____ _____    ______ ____

>  <TORSDO>
F 7

$$$$
=
 OpenBabel11042416073D

 34 39  0  0  1  0  0  0  0  0999 V2000
  192.3570  174.6320  144.2100 N   0  0  0  0  0  0  0  0  0  0  0  0
  194.5720  174.1030  143.2130 C   0  0  0  0  0  0  0  0  0  0  0  0
  193.8340  173.0320  141.4590 N   0  0  0  0  0  2  0  0  0  0  0  0
  191.0040  174.4860  144.0280 C   0  0  0  0  0  0  0  0  0  0  0  0
  193.2020  174.1020  143.2930 C   0  0  0  0  0  0  0  0  0  0  0  0
  191.4200  173.2470  141.9500 C   0  0  0  0  0  0  0  0  0  0  0  0
  194.9350  173.4450  142.0870 N   0  0  0  0  0  0  0  0  0  0  0  0
  190.5210  173.7920  142.8860 C   0  0  0  0  0  3  0  0  0  0  0  0
  192.7770  173.4320  142.1930 C   0  0  0  0  0  0  0  0  0  0  0  0
  188.3400  176.7150  145.7450 C   0  0  2  0  0  3  0  0  0  0  0  0
  188.9830  176.7430  143.5120 N   0  0  0  0  0  0  0  0  0  0  0  0
  186.8620  177.5050  142.5650 C   0  0  0  0  0  3  0  0  0  0  0  0
  189.5210  176.4780  144.8490 C   0  0  2  0  0  3  0  0  0  0  0  0
  188.1940  176.0170  147.0250 C   0  0  0  0  0  3  0  0  0  0  0  0
  190.0620  175.0660  145.0130 C   0  0  0  0  0  0  0  0  0  0  0  0
  189.8210  174.3930  146.1570 C   0  0  0  0  0  3  0  0  0  0  0  0
  187.7910  177.2170  143.6570 C   0  0  0  0  0  0  0  0  0  0  0  0
  184.9950  177.8360  144.2380 C   0  0  0  0  0  2  0  0  0  0  0  0
  188.9240  174.9160  147.2180 C   0  0  0  0  0  3  0  0  0  0  0  0
  185.9400  177.4220  145.3420 C   0  0  0  0  0  0  0  0  0  0  0  0
  187.3540  177.2150  145.0210 C   0  0  1  0  0  3  0  0  0  0  0  0
  185.5130  177.2890  146.5180 O   0  0  0  0  0  0  0  0  0  0  0  0
  185.5760  177.7870  142.8300 C   0  0  0  0  0  0  0  0  0  0  0  0
  183.9930  178.3000  140.8420 N   0  0  0  0  0  0  0  0  0  0  0  0
  184.7000  178.0720  141.7290 C   0  0  0  0  0  0  0  0  0  0  0  0
  190.9240  172.5370  140.7370 C   0  0  0  0  0  2  0  0  0  0  0  0
  190.3890  173.5400  139.7300 C   0  0  0  0  0  2  0  0  0  0  0  0
  188.2790  172.6760  140.3280 O   0  0  0  0  0  0  0  0  0  0  0  0
  188.2450  173.9490  138.3550 C   0  0  0  0  0  1  0  0  0  0  0  0
  188.9220  173.3450  139.5360 C   0  0  0  0  0  0  0  0  0  0  0  0
  195.5010  174.6890  144.1270 N   0  0  0  0  0  2  0  0  0  0  0  0
  196.0410  172.7500  145.4690 C   0  0  0  0  0  2  0  0  0  0  0  0
  197.1070  173.7980  145.7060 C   0  0  0  0  0  2  0  0  0  0  0  0
  195.6680  174.2170  145.4920 C   0  0  0  0  0  3  0  0  0  0  0  0
  2  5  1  0  0  0  0
  2 31  1  0  0  0  0
  3  7  1  0  0  0  0
  3  9  1  0  0  0  0
  4  1  1  0  0  0  0
  4 15  1  0  0  0  0
  5  1  2  0  0  0  0
  6  9  2  0  0  0  0
  6  8  1  0  0  0  0
  7  2  2  0  0  0  0
  8  4  2  0  0  0  0
  9  5  1  0  0  0  0
 10 14  1  6  0  0  0
 11 17  2  0  0  0  0
 12 23  2  0  0  0  0
 12 17  1  0  0  0  0
 13 11  1  6  0  0  0
 13 15  1  0  0  0  0
 13 10  1  0  0  0  0
 14 19  2  0  0  0  0
 15 16  2  0  0  0  0
 16 19  1  0  0  0  0
 18 20  1  0  0  0  0
 20 22  2  0  0  0  0
 21 17  1  6  0  0  0
 21 20  1  0  0  0  0
 21 10  1  0  0  0  0
 23 18  1  0  0  0  0
 24 25  3  0  0  0  0
 25 23  1  0  0  0  0
 26  6  1  0  0  0  0
 27 26  1  0  0  0  0
 29 30  1  0  0  0  0
 30 27  1  0  0  0  0
 30 28  2  0  0  0  0
 31 34  1  0  0  0  0
 32 34  1  0  0  0  0
 32 33  1  0  0  0  0
 34 33  1  0  0  0  0
M  END
>  <MODEL>
6

>  <REMARK>
 VINA RESULT:      -7.1      2.113      4.674
  Name = 
  7 active torsions:
  status: ('A' for Active; 'I' for Inactive)
    1  A    between atoms: C_7  and  N_27
    2  A    between atoms: C_8  and  C_20
    3  A    between atoms: C_12  and  C_16
    4  A    between atoms: C_12  and  C_26
    5  A    between atoms: C_16  and  C_33
    6  A    between atoms: C_19  and  C_34
    7  A    between atoms: C_24  and  N_27
                            x       y       z     vdW  Elec       q    Type
                         _______ _______ _______ _____ _____    ______ ____

>  <TORSDO>
F 7

$$$$
=
 OpenBabel11042416073D

 34 39  0  0  1  0  0  0  0  0999 V2000
  189.4760  176.5650  144.7180 N   0  0  0  0  0  0  0  0  0  0  0  0
  187.0520  177.0730  144.5040 C   0  0  0  0  0  0  0  0  0  0  0  0
  186.7250  176.0540  142.6010 N   0  0  0  0  0  2  0  0  0  0  0  0
  190.5270  175.9320  144.1020 C   0  0  0  0  0  0  0  0  0  0  0  0
  188.2590  176.5450  144.1220 C   0  0  0  0  0  0  0  0  0  0  0  0
  189.0440  175.2620  142.2650 C   0  0  0  0  0  0  0  0  0  0  0  0
  186.1320  176.7610  143.5620 N   0  0  0  0  0  0  0  0  0  0  0  0
  190.3170  175.2660  142.8650 C   0  0  0  0  0  3  0  0  0  0  0  0
  188.0220  175.9210  142.9410 C   0  0  0  0  0  0  0  0  0  0  0  0
  193.7930  174.8320  145.8750 C   0  0  2  0  0  3  0  0  0  0  0  0
  192.1080  173.4680  145.0360 N   0  0  0  0  0  0  0  0  0  0  0  0
  193.4900  171.5190  144.5130 C   0  0  0  0  0  3  0  0  0  0  0  0
  192.3110  174.7890  145.6370 C   0  0  2  0  0  3  0  0  0  0  0  0
  194.5340  176.0950  145.8720 C   0  0  0  0  0  3  0  0  0  0  0  0
  191.8640  175.9340  144.7400 C   0  0  0  0  0  0  0  0  0  0  0  0
  192.6210  177.0480  144.6620 C   0  0  0  0  0  3  0  0  0  0  0  0
  193.2300  172.8310  145.1040 C   0  0  0  0  0  0  0  0  0  0  0  0
  195.9590  171.7970  144.9770 C   0  0  0  0  0  2  0  0  0  0  0  0
  193.9540  177.1550  145.3050 C   0  0  0  0  0  3  0  0  0  0  0  0
  195.6870  173.1960  145.4760 C   0  0  0  0  0  0  0  0  0  0  0  0
  194.2970  173.6380  145.6140 C   0  0  1  0  0  3  0  0  0  0  0  0
  196.6440  173.9490  145.7920 O   0  0  0  0  0  0  0  0  0  0  0  0
  194.7430  171.0430  144.4510 C   0  0  0  0  0  0  0  0  0  0  0  0
  195.1200  168.7030  143.4010 N   0  0  0  0  0  0  0  0  0  0  0  0
  194.9520  169.7480  143.8700 C   0  0  0  0  0  0  0  0  0  0  0  0
  188.8060  174.5470  140.9790 C   0  0  0  0  0  2  0  0  0  0  0  0
  188.3820  173.1150  141.2500 C   0  0  0  0  0  2  0  0  0  0  0  0
  190.0910  171.9860  140.0840 O   0  0  0  0  0  0  0  0  0  0  0  0
  190.0650  171.5260  142.3880 C   0  0  0  0  0  1  0  0  0  0  0  0
  189.5580  172.2010  141.1610 C   0  0  0  0  0  0  0  0  0  0  0  0
  186.7600  177.8210  145.6860 N   0  0  0  0  0  2  0  0  0  0  0  0
  184.4990  178.0290  146.5230 C   0  0  0  0  0  2  0  0  0  0  0  0
  185.3630  179.0420  147.2430 C   0  0  0  0  0  2  0  0  0  0  0  0
  185.6240  178.7230  145.7860 C   0  0  0  0  0  3  0  0  0  0  0  0
  2 31  1  0  0  0  0
  3  9  1  0  0  0  0
  3  7  1  0  0  0  0
  4  1  2  0  0  0  0
  4 15  1  0  0  0  0
  5  2  1  0  0  0  0
  5  1  1  0  0  0  0
  6  8  2  0  0  0  0
  6  9  1  0  0  0  0
  7  2  2  0  0  0  0
  8  4  1  0  0  0  0
  9  5  2  0  0  0  0
 10 14  1  6  0  0  0
 11 17  2  0  0  0  0
 11 13  1  0  0  0  0
 12 17  1  0  0  0  0
 13 15  1  6  0  0  0
 13 10  1  0  0  0  0
 16 15  2  0  0  0  0
 16 19  1  0  0  0  0
 18 20  1  0  0  0  0
 19 14  2  0  0  0  0
 20 21  1  0  0  0  0
 20 22  2  0  0  0  0
 21 17  1  6  0  0  0
 21 10  1  0  0  0  0
 23 12  2  0  0  0  0
 23 18  1  0  0  0  0
 24 25  3  0  0  0  0
 25 23  1  0  0  0  0
 26 27  1  0  0  0  0
 26  6  1  0  0  0  0
 28 30  2  0  0  0  0
 30 27  1  0  0  0  0
 30 29  1  0  0  0  0
 31 34  1  0  0  0  0
 32 33  1  0  0  0  0
 34 32  1  0  0  0  0
 34 33  1  0  0  0  0
M  END
>  <MODEL>
7

>  <REMARK>
 VINA RESULT:      -7.0      2.852      8.331
  Name = 
  7 active torsions:
  status: ('A' for Active; 'I' for Inactive)
    1  A    between atoms: C_7  and  N_27
    2  A    between atoms: C_8  and  C_20
    3  A    between atoms: C_12  and  C_16
    4  A    between atoms: C_12  and  C_26
    5  A    between atoms: C_16  and  C_33
    6  A    between atoms: C_19  and  C_34
    7  A    between atoms: C_24  and  N_27
                            x       y       z     vdW  Elec       q    Type
                         _______ _______ _______ _____ _____    ______ ____

>  <TORSDO>
F 7

$$$$
=
 OpenBabel11042416073D

 34 39  0  0  1  0  0  0  0  0999 V2000
  186.9510  177.9910  143.7820 N   0  0  0  0  0  0  0  0  0  0  0  0
  184.5760  178.6840  144.0170 C   0  0  0  0  0  0  0  0  0  0  0  0
  183.9770  178.3190  141.9500 N   0  0  0  0  0  2  0  0  0  0  0  0
  187.8760  177.5130  142.8870 C   0  0  0  0  0  0  0  0  0  0  0  0
  185.6870  178.2270  143.3560 C   0  0  0  0  0  0  0  0  0  0  0  0
  186.1700  177.5290  141.1220 C   0  0  0  0  0  0  0  0  0  0  0  0
  183.5460  178.7320  143.1410 N   0  0  0  0  0  0  0  0  0  0  0  0
  187.4890  177.2710  141.5410 C   0  0  0  0  0  3  0  0  0  0  0  0
  185.2830  178.0100  142.0790 C   0  0  0  0  0  0  0  0  0  0  0  0
  191.0680  175.7590  144.2100 C   0  0  2  0  0  3  0  0  0  0  0  0
  189.0450  174.7720  143.6340 N   0  0  0  0  0  0  0  0  0  0  0  0
  189.9210  172.5910  142.9580 C   0  0  0  0  0  3  0  0  0  0  0  0
  189.5890  176.0180  144.1790 C   0  0  2  0  0  3  0  0  0  0  0  0
  192.0400  176.8480  144.0840 C   0  0  0  0  0  3  0  0  0  0  0  0
  189.2610  177.2390  143.3340 C   0  0  0  0  0  0  0  0  0  0  0  0
  190.2080  178.1800  143.1340 C   0  0  0  0  0  3  0  0  0  0  0  0
  190.0140  173.9210  143.5570 C   0  0  0  0  0  0  0  0  0  0  0  0
  192.4360  172.3610  143.0720 C   0  0  0  0  0  2  0  0  0  0  0  0
  191.6110  178.0100  143.5840 C   0  0  0  0  0  3  0  0  0  0  0  0
  192.5220  173.7810  143.5810 C   0  0  0  0  0  0  0  0  0  0  0  0
  191.2820  174.4920  143.9020 C   0  0  1  0  0  3  0  0  0  0  0  0
  193.6450  174.3230  143.7490 O   0  0  0  0  0  0  0  0  0  0  0  0
  191.0330  171.8740  142.7310 C   0  0  0  0  0  0  0  0  0  0  0  0
  190.7850  169.5170  141.6800 N   0  0  0  0  0  0  0  0  0  0  0  0
  190.8950  170.5690  142.1490 C   0  0  0  0  0  0  0  0  0  0  0  0
  185.7470  177.2570  139.7190 C   0  0  0  0  0  2  0  0  0  0  0  0
  186.9590  177.2250  138.8060 C   0  0  0  0  0  2  0  0  0  0  0  0
  187.5590  175.0250  138.2100 O   0  0  0  0  0  0  0  0  0  0  0  0
  186.0970  176.0450  136.6810 C   0  0  0  0  0  1  0  0  0  0  0  0
  186.9130  176.0210  137.9260 C   0  0  0  0  0  0  0  0  0  0  0  0
  184.4670  179.0520  145.3940 N   0  0  0  0  0  2  0  0  0  0  0  0
  185.3080  177.1580  146.6430 C   0  0  0  0  0  2  0  0  0  0  0  0
  185.0760  178.2960  147.6140 C   0  0  0  0  0  2  0  0  0  0  0  0
  184.1390  178.0970  146.4400 C   0  0  0  0  0  3  0  0  0  0  0  0
  2 31  1  0  0  0  0
  3  9  1  0  0  0  0
  3  7  1  0  0  0  0
  4 15  1  0  0  0  0
  4  1  2  0  0  0  0
  5  1  1  0  0  0  0
  5  2  1  0  0  0  0
  6  8  2  0  0  0  0
  6  9  1  0  0  0  0
  7  2  2  0  0  0  0
  8  4  1  0  0  0  0
  9  5  2  0  0  0  0
 10 14  1  6  0  0  0
 11 13  1  0  0  0  0
 12 17  1  0  0  0  0
 13 15  1  6  0  0  0
 13 10  1  0  0  0  0
 16 15  2  0  0  0  0
 16 19  1  0  0  0  0
 17 11  2  0  0  0  0
 18 20  1  0  0  0  0
 19 14  2  0  0  0  0
 20 22  2  0  0  0  0
 20 21  1  0  0  0  0
 21 17  1  6  0  0  0
 21 10  1  0  0  0  0
 23 12  2  0  0  0  0
 23 18  1  0  0  0  0
 24 25  3  0  0  0  0
 25 23  1  0  0  0  0
 26  6  1  0  0  0  0
 27 26  1  0  0  0  0
 29 30  1  0  0  0  0
 30 28  2  0  0  0  0
 30 27  1  0  0  0  0
 31 34  1  0  0  0  0
 32 33  1  0  0  0  0
 34 32  1  0  0  0  0
 34 33  1  0  0  0  0
M  END
>  <MODEL>
8

>  <REMARK>
 VINA RESULT:      -7.0      3.061      8.506
  Name = 
  7 active torsions:
  status: ('A' for Active; 'I' for Inactive)
    1  A    between atoms: C_7  and  N_27
    2  A    between atoms: C_8  and  C_20
    3  A    between atoms: C_12  and  C_16
    4  A    between atoms: C_12  and  C_26
    5  A    between atoms: C_16  and  C_33
    6  A    between atoms: C_19  and  C_34
    7  A    between atoms: C_24  and  N_27
                            x       y       z     vdW  Elec       q    Type
                         _______ _______ _______ _____ _____    ______ ____

>  <TORSDO>
F 7

$$$$
=
 OpenBabel11042416073D

 34 39  0  0  1  0  0  0  0  0999 V2000
  187.1000  176.4080  142.6080 N   0  0  0  0  0  0  0  0  0  0  0  0
  185.0770  177.8160  142.9300 C   0  0  0  0  0  0  0  0  0  0  0  0
  184.7140  178.2600  140.8230 N   0  0  0  0  0  2  0  0  0  0  0  0
  187.9420  175.8910  141.6550 C   0  0  0  0  0  0  0  0  0  0  0  0
  186.0640  177.1870  142.2150 C   0  0  0  0  0  0  0  0  0  0  0  0
  186.6250  176.9910  139.9000 C   0  0  0  0  0  0  0  0  0  0  0  0
  184.2660  178.4640  142.0620 N   0  0  0  0  0  0  0  0  0  0  0  0
  187.7070  176.1750  140.2830 C   0  0  0  0  0  3  0  0  0  0  0  0
  185.8100  177.4810  140.9140 C   0  0  0  0  0  0  0  0  0  0  0  0
  191.2230  174.5870  143.2530 C   0  0  2  0  0  3  0  0  0  0  0  0
  190.1730  176.6240  143.6370 N   0  0  0  0  0  0  0  0  0  0  0  0
  190.9310  176.9580  145.9380 C   0  0  0  0  0  3  0  0  0  0  0  0
  190.3730  175.6280  142.5810 C   0  0  2  0  0  3  0  0  0  0  0  0
  191.1730  173.1790  142.8490 C   0  0  0  0  0  3  0  0  0  0  0  0
  189.0750  175.0290  142.0630 C   0  0  0  0  0  0  0  0  0  0  0  0
  189.0130  173.7060  141.8040 C   0  0  0  0  0  3  0  0  0  0  0  0
  190.9210  176.2920  144.6360 C   0  0  0  0  0  0  0  0  0  0  0  0
  192.3410  175.0870  146.8870 C   0  0  0  0  0  2  0  0  0  0  0  0
  190.1180  172.7730  142.1390 C   0  0  0  0  0  3  0  0  0  0  0  0
  192.2210  174.3570  145.5700 C   0  0  0  0  0  0  0  0  0  0  0  0
  191.5850  175.0380  144.4400 C   0  0  1  0  0  3  0  0  0  0  0  0
  192.6890  173.1950  145.4500 O   0  0  0  0  0  0  0  0  0  0  0  0
  191.5810  176.4050  146.9740 C   0  0  0  0  0  0  0  0  0  0  0  0
  191.5660  177.6540  149.2460 N   0  0  0  0  0  0  0  0  0  0  0  0
  191.5720  177.0970  148.2320 C   0  0  0  0  0  0  0  0  0  0  0  0
  186.3550  177.2780  138.4620 C   0  0  0  0  0  2  0  0  0  0  0  0
  186.6720  176.0550  137.6190 C   0  0  0  0  0  2  0  0  0  0  0  0
  187.6290  177.0350  135.7010 O   0  0  0  0  0  0  0  0  0  0  0  0
  185.5390  176.0410  135.3020 C   0  0  0  0  0  1  0  0  0  0  0  0
  186.6890  176.4160  136.1710 C   0  0  0  0  0  0  0  0  0  0  0  0
  184.8870  177.8130  144.3470 N   0  0  0  0  0  2  0  0  0  0  0  0
  184.0680  178.6520  146.4630 C   0  0  0  0  0  2  0  0  0  0  0  0
  185.5250  179.0400  146.3350 C   0  0  0  0  0  2  0  0  0  0  0  0
  184.6350  179.0240  145.1100 C   0  0  0  0  0  3  0  0  0  0  0  0
  2 31  1  0  0  0  0
  3  9  1  0  0  0  0
  3  7  1  0  0  0  0
  4 15  1  0  0  0  0
  4  1  2  0  0  0  0
  5  1  1  0  0  0  0
  5  2  1  0  0  0  0
  6  8  2  0  0  0  0
  6  9  1  0  0  0  0
  7  2  2  0  0  0  0
  8  4  1  0  0  0  0
  9  5  2  0  0  0  0
 10 14  1  1  0  0  0
 10 21  1  0  0  0  0
 11 17  2  0  0  0  0
 12 23  2  0  0  0  0
 13 15  1  1  0  0  0
 13 10  1  0  0  0  0
 13 11  1  0  0  0  0
 16 15  2  0  0  0  0
 16 19  1  0  0  0  0
 17 12  1  0  0  0  0
 18 23  1  0  0  0  0
 19 14  2  0  0  0  0
 20 18  1  0  0  0  0
 21 17  1  1  0  0  0
 21 20  1  0  0  0  0
 22 20  2  0  0  0  0
 23 25  1  0  0  0  0
 25 24  3  0  0  0  0
 26  6  1  0  0  0  0
 27 26  1  0  0  0  0
 28 30  2  0  0  0  0
 29 30  1  0  0  0  0
 30 27  1  0  0  0  0
 31 34  1  0  0  0  0
 33 32  1  0  0  0  0
 34 33  1  0  0  0  0
 34 32  1  0  0  0  0
M  END
>  <MODEL>
9

>  <REMARK>
 VINA RESULT:      -6.9      3.433      8.550
  Name = 
  7 active torsions:
  status: ('A' for Active; 'I' for Inactive)
    1  A    between atoms: C_7  and  N_27
    2  A    between atoms: C_8  and  C_20
    3  A    between atoms: C_12  and  C_16
    4  A    between atoms: C_12  and  C_26
    5  A    between atoms: C_16  and  C_33
    6  A    between atoms: C_19  and  C_34
    7  A    between atoms: C_24  and  N_27
                            x       y       z     vdW  Elec       q    Type
                         _______ _______ _______ _____ _____    ______ ____

>  <TORSDO>
F 7

$$$$
