=
 OpenBabel11042416263D

 38 42  0  0  1  0  0  0  0  0999 V2000
  188.0400  176.5650  146.2540 O   0  0  0  0  0  1  0  0  0  0  0  0
  186.4210  177.7760  147.5540 C   0  0  2  0  0  3  0  0  0  0  0  0
  184.6490  177.8610  145.3040 C   0  0  2  0  0  3  0  0  0  0  0  0
  186.9880  177.4800  146.1640 C   0  0  2  0  0  3  0  0  0  0  0  0
  185.1550  179.0090  143.3470 C   0  0  2  0  0  3  0  0  0  0  0  0
  186.3840  176.7840  143.8060 C   0  0  0  0  0  2  0  0  0  0  0  0
  186.3090  178.0850  143.0580 C   0  0  0  0  0  0  0  0  0  0  0  0
  187.1820  178.4150  142.0920 C   0  0  0  0  0  3  0  0  0  0  0  0
  184.8910  179.1370  144.7320 O   0  0  0  0  0  0  0  0  0  0  0  0
  186.1060  176.5920  148.2230 O   0  0  0  0  0  1  0  0  0  0  0  0
  185.1650  178.6390  147.4100 C   0  0  0  0  0  2  0  0  0  0  0  0
  184.1810  177.9850  146.6330 O   0  0  0  0  0  0  0  0  0  0  0  0
  185.8900  176.9430  145.2440 C   0  0  2  0  0  3  0  0  0  0  0  0
  188.1690  175.4250  140.7620 C   0  0  0  0  0  1  0  0  0  0  0  0
  191.3690  177.1770  143.6030 N   0  0  0  0  0  2  0  0  0  0  0  0
  189.3970  175.7850  142.7240 C   0  0  0  0  0  2  0  0  0  0  0  0
  190.1500  177.0450  142.8760 C   0  0  0  0  0  0  0  0  0  0  0  0
  189.5840  178.0440  142.3090 N   0  0  0  0  0  0  0  0  0  0  0  0
  188.3660  177.5850  141.6670 C   0  0  1  0  0  3  0  0  0  0  0  0
  188.1800  176.1680  142.0100 N   0  0  0  0  0  0  0  0  0  0  0  0
  191.9410  176.0770  144.2510 N   0  0  0  0  0  2  0  0  0  0  0  0
  193.3000  175.5710  142.4380 O   0  0  0  0  0  0  0  0  0  0  0  0
  192.9430  175.2830  143.6130 C   0  0  0  0  0  0  0  0  0  0  0  0
  191.6000  172.5430  143.8210 C   0  0  0  0  0  1  0  0  0  0  0  0
  197.0220  173.5180  146.3030 Cl  0  0  0  0  0  0  0  0  0  0  0  0
  194.8150  174.3030  144.9020 C   0  0  0  0  0  3  0  0  0  0  0  0
  192.9460  172.8410  144.3900 C   0  0  0  0  0  0  0  0  0  0  0  0
  195.4580  173.2560  145.5660 C   0  0  0  0  0  0  0  0  0  0  0  0
  193.5990  171.8000  145.0600 C   0  0  0  0  0  3  0  0  0  0  0  0
  194.8490  172.0040  145.6430 C   0  0  0  0  0  3  0  0  0  0  0  0
  193.5590  174.1190  144.3010 C   0  0  0  0  0  0  0  0  0  0  0  0
  182.6410  179.0480  143.0130 C   0  0  0  0  0  3  0  0  0  0  0  0
  184.0610  178.1690  141.2600 C   0  0  0  0  0  3  0  0  0  0  0  0
  181.5130  178.7920  142.2270 C   0  0  0  0  0  0  0  0  0  0  0  0
  181.6580  178.2260  140.9580 C   0  0  0  0  0  3  0  0  0  0  0  0
  180.2800  179.0980  142.6970 F   0  0  0  0  0  0  0  0  0  0  0  0
  182.9320  177.9160  140.4740 C   0  0  0  0  0  3  0  0  0  0  0  0
  183.9210  178.7310  142.5340 C   0  0  0  0  0  0  0  0  0  0  0  0
  2 10  1  6  0  0  0
  3  9  1  1  0  0  0
  3 12  1  0  0  0  0
  4  1  1  1  0  0  0
  4  2  1  0  0  0  0
  5 38  1  6  0  0  0
  5  9  1  0  0  0  0
  7  5  1  0  0  0  0
  7  6  1  0  0  0  0
  8  7  2  0  0  0  0
 11  2  1  0  0  0  0
 12 11  1  0  0  0  0
 13  6  1  6  0  0  0
 13  3  1  0  0  0  0
 13  4  1  0  0  0  0
 14 20  1  0  0  0  0
 15 21  1  0  0  0  0
 16 17  1  0  0  0  0
 17 15  1  0  0  0  0
 18 17  2  0  0  0  0
 19 20  1  0  0  0  0
 19  8  1  1  0  0  0
 19 18  1  0  0  0  0
 20 16  1  0  0  0  0
 22 23  2  0  0  0  0
 23 21  1  0  0  0  0
 23 31  1  0  0  0  0
 24 27  1  0  0  0  0
 26 28  1  0  0  0  0
 27 29  2  0  0  0  0
 28 30  2  0  0  0  0
 28 25  1  0  0  0  0
 29 30  1  0  0  0  0
 31 27  1  0  0  0  0
 31 26  2  0  0  0  0
 33 38  2  0  0  0  0
 34 36  1  0  0  0  0
 34 32  2  0  0  0  0
 35 34  1  0  0  0  0
 37 35  2  0  0  0  0
 37 33  1  0  0  0  0
 38 32  1  0  0  0  0
M  END
>  <MODEL>
1

>  <REMARK>
 VINA RESULT:      -9.3      0.000      0.000
  Name = 
  4 active torsions:
  status: ('A' for Active; 'I' for Inactive)
    1  A    between atoms: C_10  and  C_38
    2  A    between atoms: N_15  and  N_20
    3  A    between atoms: C_18  and  C_26
    4  A    between atoms: C_34  and  C_35
                            x       y       z     vdW  Elec       q    Type
                         _______ _______ _______ _____ _____    ______ ____

>  <TORSDO>
F 4

$$$$
=
 OpenBabel11042416263D

 38 42  0  0  1  0  0  0  0  0999 V2000
  194.2760  169.2830  146.2630 O   0  0  0  0  0  1  0  0  0  0  0  0
  196.5930  168.9480  145.7180 C   0  0  2  0  0  3  0  0  0  0  0  0
  196.8180  171.6840  144.8990 C   0  0  2  0  0  3  0  0  0  0  0  0
  195.3120  169.7360  145.4410 C   0  0  2  0  0  3  0  0  0  0  0  0
  195.6650  172.5510  143.0770 C   0  0  2  0  0  3  0  0  0  0  0  0
  194.3370  172.0640  145.2390 C   0  0  0  0  0  2  0  0  0  0  0  0
  194.3400  172.3250  143.7590 C   0  0  0  0  0  0  0  0  0  0  0  0
  193.2100  172.4430  143.0430 C   0  0  0  0  0  3  0  0  0  0  0  0
  196.6570  171.6290  143.4910 O   0  0  0  0  0  0  0  0  0  0  0  0
  196.8900  168.9490  147.0830 O   0  0  0  0  0  1  0  0  0  0  0  0
  197.7490  169.5770  144.9370 C   0  0  0  0  0  2  0  0  0  0  0  0
  197.9410  170.9280  145.3080 O   0  0  0  0  0  0  0  0  0  0  0  0
  195.5500  171.2320  145.6570 C   0  0  2  0  0  3  0  0  0  0  0  0
  190.1040  171.1580  142.4230 C   0  0  0  0  0  1  0  0  0  0  0  0
  189.9020  174.9050  145.1260 N   0  0  0  0  0  2  0  0  0  0  0  0
  189.8490  173.4030  143.0430 C   0  0  0  0  0  2  0  0  0  0  0  0
  190.4430  173.8670  144.3110 C   0  0  0  0  0  0  0  0  0  0  0  0
  191.5310  173.2640  144.6110 N   0  0  0  0  0  0  0  0  0  0  0  0
  191.8140  172.2770  143.5850 C   0  0  1  0  0  3  0  0  0  0  0  0
  190.8060  172.4260  142.5250 N   0  0  0  0  0  0  0  0  0  0  0  0
  188.7340  175.5780  144.7500 N   0  0  0  0  0  2  0  0  0  0  0  0
  189.6660  177.6640  145.1620 O   0  0  0  0  0  0  0  0  0  0  0  0
  188.6630  177.0040  144.7740 C   0  0  0  0  0  0  0  0  0  0  0  0
  188.2390  178.1920  141.9870 C   0  0  0  0  0  1  0  0  0  0  0  0
  183.9830  178.7150  146.2440 Cl  0  0  0  0  0  0  0  0  0  0  0  0
  186.4150  177.8770  145.3300 C   0  0  0  0  0  3  0  0  0  0  0  0
  187.2200  178.2650  143.0730 C   0  0  0  0  0  0  0  0  0  0  0  0
  185.2250  178.5400  145.0250 C   0  0  0  0  0  0  0  0  0  0  0  0
  186.0230  178.9290  142.7790 C   0  0  0  0  0  3  0  0  0  0  0  0
  185.0290  179.0650  143.7480 C   0  0  0  0  0  3  0  0  0  0  0  0
  187.4280  177.7230  144.3680 C   0  0  0  0  0  0  0  0  0  0  0  0
  195.5010  174.9480  143.8890 C   0  0  0  0  0  3  0  0  0  0  0  0
  197.2550  174.3350  142.3390 C   0  0  0  0  0  3  0  0  0  0  0  0
  195.9730  176.2640  143.9030 C   0  0  0  0  0  0  0  0  0  0  0  0
  197.0860  176.6150  143.1370 C   0  0  0  0  0  3  0  0  0  0  0  0
  195.3520  177.1960  144.6650 F   0  0  0  0  0  0  0  0  0  0  0  0
  197.7280  175.6510  142.3550 C   0  0  0  0  0  3  0  0  0  0  0  0
  196.1380  173.9780  143.1010 C   0  0  0  0  0  0  0  0  0  0  0  0
  2 10  1  1  0  0  0
  3  9  1  6  0  0  0
  3 12  1  0  0  0  0
  3 13  1  0  0  0  0
  4 13  1  0  0  0  0
  4  2  1  0  0  0  0
  4  1  1  1  0  0  0
  5 38  1  1  0  0  0
  5  9  1  0  0  0  0
  5  7  1  0  0  0  0
  7  6  1  0  0  0  0
  8  7  2  0  0  0  0
 11 12  1  0  0  0  0
 11  2  1  0  0  0  0
 13  6  1  6  0  0  0
 14 20  1  0  0  0  0
 16 17  1  0  0  0  0
 17 18  2  0  0  0  0
 17 15  1  0  0  0  0
 19  8  1  6  0  0  0
 19 18  1  0  0  0  0
 20 16  1  0  0  0  0
 20 19  1  0  0  0  0
 21 23  1  0  0  0  0
 21 15  1  0  0  0  0
 23 22  2  0  0  0  0
 24 27  1  0  0  0  0
 27 31  1  0  0  0  0
 28 26  1  0  0  0  0
 28 25  1  0  0  0  0
 29 27  2  0  0  0  0
 29 30  1  0  0  0  0
 30 28  2  0  0  0  0
 31 23  1  0  0  0  0
 31 26  2  0  0  0  0
 32 34  1  0  0  0  0
 33 37  2  0  0  0  0
 33 38  1  0  0  0  0
 34 36  1  0  0  0  0
 35 34  2  0  0  0  0
 37 35  1  0  0  0  0
 38 32  2  0  0  0  0
M  END
>  <MODEL>
2

>  <REMARK>
 VINA RESULT:      -9.1      4.649     10.890
  Name = 
  4 active torsions:
  status: ('A' for Active; 'I' for Inactive)
    1  A    between atoms: C_10  and  C_38
    2  A    between atoms: N_15  and  N_20
    3  A    between atoms: C_18  and  C_26
    4  A    between atoms: C_34  and  C_35
                            x       y       z     vdW  Elec       q    Type
                         _______ _______ _______ _____ _____    ______ ____

>  <TORSDO>
F 4

$$$$
=
 OpenBabel11042416263D

 38 42  0  0  1  0  0  0  0  0999 V2000
  188.0850  176.5230  146.2620 O   0  0  0  0  0  1  0  0  0  0  0  0
  186.4920  177.7630  147.5680 C   0  0  2  0  0  3  0  0  0  0  0  0
  184.7020  177.8560  145.3330 C   0  0  2  0  0  3  0  0  0  0  0  0
  187.0430  177.4510  146.1760 C   0  0  2  0  0  3  0  0  0  0  0  0
  185.2040  178.9850  143.3650 C   0  0  2  0  0  3  0  0  0  0  0  0
  186.4100  176.7480  143.8270 C   0  0  0  0  0  2  0  0  0  0  0  0
  186.3450  178.0450  143.0720 C   0  0  0  0  0  0  0  0  0  0  0  0
  187.2130  178.3590  142.0970 C   0  0  0  0  0  3  0  0  0  0  0  0
  184.9540  179.1250  144.7520 O   0  0  0  0  0  0  0  0  0  0  0  0
  186.1680  176.5860  148.2480 O   0  0  0  0  0  1  0  0  0  0  0  0
  185.2450  178.6400  147.4300 C   0  0  0  0  0  2  0  0  0  0  0  0
  184.2470  177.9930  146.6660 O   0  0  0  0  0  0  0  0  0  0  0  0
  185.9310  176.9220  145.2680 C   0  0  2  0  0  3  0  0  0  0  0  0
  188.1490  175.3690  140.7300 C   0  0  0  0  0  1  0  0  0  0  0  0
  191.3650  177.0180  143.6130 N   0  0  0  0  0  2  0  0  0  0  0  0
  189.3720  175.6780  142.7030 C   0  0  0  0  0  2  0  0  0  0  0  0
  190.1480  176.9200  142.8780 C   0  0  0  0  0  0  0  0  0  0  0  0
  189.6060  177.9380  142.3220 N   0  0  0  0  0  0  0  0  0  0  0  0
  188.3830  177.5120  141.6660 C   0  0  1  0  0  3  0  0  0  0  0  0
  188.1670  176.0940  141.9880 N   0  0  0  0  0  0  0  0  0  0  0  0
  191.9120  175.8970  144.2480 N   0  0  0  0  0  2  0  0  0  0  0  0
  193.3000  175.4130  142.4520 O   0  0  0  0  0  0  0  0  0  0  0  0
  192.9170  175.1050  143.6130 C   0  0  0  0  0  0  0  0  0  0  0  0
  195.3200  175.2550  145.5000 C   0  0  0  0  0  1  0  0  0  0  0  0
  192.6930  169.9550  144.2630 Cl  0  0  0  0  0  0  0  0  0  0  0  0
  192.9330  172.6640  144.0200 C   0  0  0  0  0  3  0  0  0  0  0  0
  194.6130  173.9830  145.1740 C   0  0  0  0  0  0  0  0  0  0  0  0
  193.4290  171.5030  144.6160 C   0  0  0  0  0  0  0  0  0  0  0  0
  195.1030  172.8120  145.7630 C   0  0  0  0  0  3  0  0  0  0  0  0
  194.5140  171.5780  145.4880 C   0  0  0  0  0  3  0  0  0  0  0  0
  193.5050  173.9190  144.2870 C   0  0  0  0  0  0  0  0  0  0  0  0
  182.6870  179.0410  143.0580 C   0  0  0  0  0  3  0  0  0  0  0  0
  184.0820  178.1590  141.2880 C   0  0  0  0  0  3  0  0  0  0  0  0
  181.5490  178.7940  142.2840 C   0  0  0  0  0  0  0  0  0  0  0  0
  181.6770  178.2310  141.0120 C   0  0  0  0  0  3  0  0  0  0  0  0
  180.3230  179.1070  142.7680 F   0  0  0  0  0  0  0  0  0  0  0  0
  182.9440  177.9140  140.5140 C   0  0  0  0  0  3  0  0  0  0  0  0
  183.9600  178.7170  142.5640 C   0  0  0  0  0  0  0  0  0  0  0  0
  2 10  1  6  0  0  0
  3  9  1  1  0  0  0
  3 12  1  0  0  0  0
  4  1  1  1  0  0  0
  4  2  1  0  0  0  0
  5 38  1  6  0  0  0
  5  9  1  0  0  0  0
  7  5  1  0  0  0  0
  7  6  1  0  0  0  0
  8  7  2  0  0  0  0
 11  2  1  0  0  0  0
 12 11  1  0  0  0  0
 13  6  1  6  0  0  0
 13  3  1  0  0  0  0
 13  4  1  0  0  0  0
 14 20  1  0  0  0  0
 15 21  1  0  0  0  0
 16 17  1  0  0  0  0
 17 15  1  0  0  0  0
 18 17  2  0  0  0  0
 19 20  1  0  0  0  0
 19  8  1  1  0  0  0
 19 18  1  0  0  0  0
 20 16  1  0  0  0  0
 22 23  2  0  0  0  0
 23 21  1  0  0  0  0
 23 31  1  0  0  0  0
 25 28  1  0  0  0  0
 26 31  2  0  0  0  0
 26 28  1  0  0  0  0
 27 24  1  0  0  0  0
 27 29  2  0  0  0  0
 28 30  2  0  0  0  0
 30 29  1  0  0  0  0
 31 27  1  0  0  0  0
 33 38  2  0  0  0  0
 34 36  1  0  0  0  0
 34 32  2  0  0  0  0
 35 34  1  0  0  0  0
 37 35  2  0  0  0  0
 37 33  1  0  0  0  0
 38 32  1  0  0  0  0
M  END
>  <MODEL>
3

>  <REMARK>
 VINA RESULT:      -9.1      1.014      1.485
  Name = 
  4 active torsions:
  status: ('A' for Active; 'I' for Inactive)
    1  A    between atoms: C_10  and  C_38
    2  A    between atoms: N_15  and  N_20
    3  A    between atoms: C_18  and  C_26
    4  A    between atoms: C_34  and  C_35
                            x       y       z     vdW  Elec       q    Type
                         _______ _______ _______ _____ _____    ______ ____

>  <TORSDO>
F 4

$$$$
=
 OpenBabel11042416263D

 38 42  0  0  1  0  0  0  0  0999 V2000
  186.4260  177.3350  147.3020 O   0  0  0  0  0  1  0  0  0  0  0  0
  185.2200  179.0410  146.1120 C   0  0  2  0  0  3  0  0  0  0  0  0
  185.8700  177.7900  143.6180 C   0  0  2  0  0  3  0  0  0  0  0  0
  186.3530  178.0140  146.0820 C   0  0  2  0  0  3  0  0  0  0  0  0
  188.0480  177.6210  142.8250 C   0  0  2  0  0  3  0  0  0  0  0  0
  187.3390  176.0830  144.7750 C   0  0  0  0  0  2  0  0  0  0  0  0
  188.4350  176.7200  143.9690 C   0  0  0  0  0  0  0  0  0  0  0  0
  189.7350  176.4550  144.1780 C   0  0  0  0  0  3  0  0  0  0  0  0
  187.0020  178.5140  143.1630 O   0  0  0  0  0  0  0  0  0  0  0  0
  184.0230  178.4460  146.5190 O   0  0  0  0  0  1  0  0  0  0  0  0
  185.0500  179.6420  144.7150 C   0  0  0  0  0  2  0  0  0  0  0  0
  184.7500  178.6430  143.7620 O   0  0  0  0  0  0  0  0  0  0  0  0
  186.1470  177.0260  144.9320 C   0  0  2  0  0  3  0  0  0  0  0  0
  191.4330  176.3500  147.1420 C   0  0  0  0  0  1  0  0  0  0  0  0
  192.1060  172.5180  144.6440 N   0  0  0  0  0  0  0  0  0  0  0  0
  192.4580  174.8470  145.6670 C   0  0  0  0  0  2  0  0  0  0  0  0
  191.6360  173.8120  145.0130 C   0  0  0  0  0  0  0  0  0  0  0  0
  190.4380  174.1950  144.7710 N   0  0  0  0  0  0  0  0  0  0  0  0
  190.2780  175.5540  145.2560 C   0  0  1  0  0  3  0  0  0  0  0  0
  191.5870  176.0200  145.7360 N   0  0  0  0  0  0  0  0  0  0  0  0
  193.4330  172.1410  144.8810 N   0  0  0  0  0  0  0  0  0  0  0  0
  193.0030  169.9070  144.4240 O   0  0  0  0  0  0  0  0  0  0  0  0
  193.8520  170.7830  144.7440 C   0  0  0  0  0  0  0  0  0  0  0  0
  196.1080  171.2370  142.7290 C   0  0  0  0  0  1  0  0  0  0  0  0
  197.1970  168.5410  148.0260 Cl  0  0  0  0  0  0  0  0  0  0  0  0
  195.5590  169.7420  146.2020 C   0  0  0  0  0  3  0  0  0  0  0  0
  196.3150  170.6010  144.0610 C   0  0  0  0  0  0  0  0  0  0  0  0
  196.8590  169.3350  146.5040 C   0  0  0  0  0  0  0  0  0  0  0  0
  197.6150  170.1860  144.3740 C   0  0  0  0  0  3  0  0  0  0  0  0
  197.8880  169.5590  145.5900 C   0  0  0  0  0  3  0  0  0  0  0  0
  195.2610  170.3820  144.9870 C   0  0  0  0  0  0  0  0  0  0  0  0
  188.2970  175.6040  141.3070 C   0  0  0  0  0  3  0  0  0  0  0  0
  187.0800  177.5430  140.5200 C   0  0  0  0  0  3  0  0  0  0  0  0
  188.0520  174.9570  140.0920 C   0  0  0  0  0  0  0  0  0  0  0  0
  187.3200  175.6020  139.0920 C   0  0  0  0  0  3  0  0  0  0  0  0
  188.5210  173.7030  139.8890 F   0  0  0  0  0  0  0  0  0  0  0  0
  186.8330  176.8940  139.3060 C   0  0  0  0  0  3  0  0  0  0  0  0
  187.8160  176.9050  141.5240 C   0  0  0  0  0  0  0  0  0  0  0  0
  2 10  1  6  0  0  0
  3  9  1  1  0  0  0
  3 12  1  0  0  0  0
  3 13  1  0  0  0  0
  4  2  1  0  0  0  0
  4  1  1  1  0  0  0
  5 38  1  6  0  0  0
  5  9  1  0  0  0  0
  5  7  1  0  0  0  0
  7  8  2  0  0  0  0
  7  6  1  0  0  0  0
 11  2  1  0  0  0  0
 12 11  1  0  0  0  0
 13  6  1  6  0  0  0
 13  4  1  0  0  0  0
 15 21  2  0  0  0  0
 15 17  1  0  0  0  0
 16 20  1  0  0  0  0
 17 16  1  0  0  0  0
 18 17  2  0  0  0  0
 18 19  1  0  0  0  0
 19  8  1  6  0  0  0
 19 20  1  0  0  0  0
 20 14  1  0  0  0  0
 22 23  2  0  0  0  0
 23 21  1  0  0  0  0
 23 31  1  0  0  0  0
 24 27  1  0  0  0  0
 26 28  1  0  0  0  0
 27 29  2  0  0  0  0
 27 31  1  0  0  0  0
 28 25  1  0  0  0  0
 29 30  1  0  0  0  0
 30 28  2  0  0  0  0
 31 26  2  0  0  0  0
 32 38  1  0  0  0  0
 33 38  2  0  0  0  0
 34 32  2  0  0  0  0
 35 37  2  0  0  0  0
 35 34  1  0  0  0  0
 36 34  1  0  0  0  0
 37 33  1  0  0  0  0
M  END
>  <MODEL>
4

>  <REMARK>
 VINA RESULT:      -8.7      3.076      4.601
  Name = 
  4 active torsions:
  status: ('A' for Active; 'I' for Inactive)
    1  A    between atoms: C_10  and  C_38
    2  A    between atoms: N_15  and  N_20
    3  A    between atoms: C_18  and  C_26
    4  A    between atoms: C_34  and  C_35
                            x       y       z     vdW  Elec       q    Type
                         _______ _______ _______ _____ _____    ______ ____

>  <TORSDO>
F 4

$$$$
=
 OpenBabel11042416263D

 38 42  0  0  1  0  0  0  0  0999 V2000
  189.1330  174.2780  141.7480 O   0  0  0  0  0  1  0  0  0  0  0  0
  191.0500  174.7000  143.1350 C   0  0  2  0  0  3  0  0  0  0  0  0
  189.3870  175.9970  145.0740 C   0  0  2  0  0  3  0  0  0  0  0  0
  189.6480  175.1440  142.7160 C   0  0  2  0  0  3  0  0  0  0  0  0
  188.2450  177.9730  144.6320 C   0  0  2  0  0  3  0  0  0  0  0  0
  187.3550  175.7890  143.5770 C   0  0  0  0  0  2  0  0  0  0  0  0
  187.3900  177.2910  143.5950 C   0  0  0  0  0  0  0  0  0  0  0  0
  186.6320  178.0420  142.7800 C   0  0  0  0  0  3  0  0  0  0  0  0
  189.5220  177.3750  144.7650 O   0  0  0  0  0  0  0  0  0  0  0  0
  191.0540  173.3510  143.4990 O   0  0  0  0  0  1  0  0  0  0  0  0
  191.5170  175.5560  144.3140 C   0  0  0  0  0  2  0  0  0  0  0  0
  190.6380  175.4320  145.4150 O   0  0  0  0  0  0  0  0  0  0  0  0
  188.7200  175.1990  143.9310 C   0  0  2  0  0  3  0  0  0  0  0  0
  186.2570  177.4630  139.4320 C   0  0  0  0  0  1  0  0  0  0  0  0
  182.2020  178.2890  141.4950 N   0  0  0  0  0  0  0  0  0  0  0  0
  184.3770  178.6460  140.1780 C   0  0  0  0  0  2  0  0  0  0  0  0
  183.6060  178.1190  141.3190 C   0  0  0  0  0  0  0  0  0  0  0  0
  184.3290  177.5040  142.1780 N   0  0  0  0  0  0  0  0  0  0  0  0
  185.7060  177.5110  141.7160 C   0  0  1  0  0  3  0  0  0  0  0  0
  185.7690  178.3250  140.4940 N   0  0  0  0  0  0  0  0  0  0  0  0
  181.4430  179.0050  140.5610 N   0  0  0  0  0  0  0  0  0  0  0  0
  179.6860  179.3070  142.0480 O   0  0  0  0  0  0  0  0  0  0  0  0
  180.1540  179.5210  140.8960 C   0  0  0  0  0  0  0  0  0  0  0  0
  178.1440  178.2270  138.9880 C   0  0  0  0  0  1  0  0  0  0  0  0
  179.0940  184.1940  138.8880 Cl  0  0  0  0  0  0  0  0  0  0  0  0
  179.5460  181.6770  139.8440 C   0  0  0  0  0  3  0  0  0  0  0  0
  178.4060  179.6940  139.0300 C   0  0  0  0  0  0  0  0  0  0  0  0
  178.8270  182.4660  138.9440 C   0  0  0  0  0  0  0  0  0  0  0  0
  177.6930  180.4950  138.1300 C   0  0  0  0  0  3  0  0  0  0  0  0
  177.8990  181.8740  138.0880 C   0  0  0  0  0  3  0  0  0  0  0  0
  179.3500  180.2870  139.9100 C   0  0  0  0  0  0  0  0  0  0  0  0
  186.1620  178.3240  146.0370 C   0  0  0  0  0  3  0  0  0  0  0  0
  188.3280  178.2540  147.1160 C   0  0  0  0  0  3  0  0  0  0  0  0
  185.5500  178.5180  147.2780 C   0  0  0  0  0  0  0  0  0  0  0  0
  186.3250  178.5780  148.4390 C   0  0  0  0  0  3  0  0  0  0  0  0
  184.2030  178.6410  147.3540 F   0  0  0  0  0  0  0  0  0  0  0  0
  187.7140  178.4450  148.3570 C   0  0  0  0  0  3  0  0  0  0  0  0
  187.5570  178.1980  145.9500 C   0  0  0  0  0  0  0  0  0  0  0  0
  2 10  1  1  0  0  0
  2 11  1  0  0  0  0
  3  9  1  6  0  0  0
  3 12  1  0  0  0  0
  4  1  1  6  0  0  0
  4  2  1  0  0  0  0
  4 13  1  0  0  0  0
  5  9  1  0  0  0  0
  5 38  1  1  0  0  0
  6  7  1  0  0  0  0
  7  5  1  0  0  0  0
  8  7  2  0  0  0  0
 11 12  1  0  0  0  0
 13  6  1  6  0  0  0
 13  3  1  0  0  0  0
 14 20  1  0  0  0  0
 16 20  1  0  0  0  0
 16 17  1  0  0  0  0
 17 15  1  0  0  0  0
 17 18  2  0  0  0  0
 19 18  1  0  0  0  0
 19  8  1  1  0  0  0
 20 19  1  0  0  0  0
 21 23  1  0  0  0  0
 21 15  2  0  0  0  0
 23 22  2  0  0  0  0
 24 27  1  0  0  0  0
 25 28  1  0  0  0  0
 26 31  1  0  0  0  0
 27 31  2  0  0  0  0
 28 26  2  0  0  0  0
 29 27  1  0  0  0  0
 30 29  2  0  0  0  0
 30 28  1  0  0  0  0
 31 23  1  0  0  0  0
 32 34  1  0  0  0  0
 33 37  2  0  0  0  0
 34 36  1  0  0  0  0
 34 35  2  0  0  0  0
 37 35  1  0  0  0  0
 38 32  2  0  0  0  0
 38 33  1  0  0  0  0
M  END
>  <MODEL>
5

>  <REMARK>
 VINA RESULT:      -8.7      4.965     10.582
  Name = 
  4 active torsions:
  status: ('A' for Active; 'I' for Inactive)
    1  A    between atoms: C_10  and  C_38
    2  A    between atoms: N_15  and  N_20
    3  A    between atoms: C_18  and  C_26
    4  A    between atoms: C_34  and  C_35
                            x       y       z     vdW  Elec       q    Type
                         _______ _______ _______ _____ _____    ______ ____

>  <TORSDO>
F 4

$$$$
=
 OpenBabel11042416263D

 38 42  0  0  1  0  0  0  0  0999 V2000
  185.6180  178.2730  142.6580 O   0  0  0  0  0  1  0  0  0  0  0  0
  184.4410  178.2910  144.7540 C   0  0  2  0  0  3  0  0  0  0  0  0
  186.9070  177.9160  146.1640 C   0  0  2  0  0  3  0  0  0  0  0  0
  185.6640  177.8040  143.9740 C   0  0  2  0  0  3  0  0  0  0  0  0
  188.1910  175.9890  145.9620 C   0  0  2  0  0  3  0  0  0  0  0  0
  188.1920  177.6650  143.9970 C   0  0  0  0  0  2  0  0  0  0  0  0
  188.4690  176.2800  144.5100 C   0  0  0  0  0  0  0  0  0  0  0  0
  189.0240  175.3240  143.7480 C   0  0  0  0  0  3  0  0  0  0  0  0
  186.9520  176.5170  146.3990 O   0  0  0  0  0  0  0  0  0  0  0  0
  184.2960  179.6750  144.6340 O   0  0  0  0  0  1  0  0  0  0  0  0
  184.6040  177.9140  146.2290 C   0  0  0  0  0  2  0  0  0  0  0  0
  185.7710  178.4930  146.7790 O   0  0  0  0  0  0  0  0  0  0  0  0
  186.9520  178.2640  144.6600 C   0  0  2  0  0  3  0  0  0  0  0  0
  187.8040  175.8590  140.6010 C   0  0  0  0  0  1  0  0  0  0  0  0
  191.6590  173.3070  140.5350 N   0  0  0  0  0  2  0  0  0  0  0  0
  189.1750  173.9610  140.5330 C   0  0  0  0  0  2  0  0  0  0  0  0
  190.5580  174.0580  141.0390 C   0  0  0  0  0  0  0  0  0  0  0  0
  190.6820  174.8760  142.0160 N   0  0  0  0  0  0  0  0  0  0  0  0
  189.3880  175.4700  142.2930 C   0  0  1  0  0  3  0  0  0  0  0  0
  188.3960  174.8200  141.4250 N   0  0  0  0  0  0  0  0  0  0  0  0
  191.4840  172.3870  139.4940 N   0  0  0  0  0  2  0  0  0  0  0  0
  192.2510  173.8790  137.8910 O   0  0  0  0  0  0  0  0  0  0  0  0
  191.8140  172.7240  138.1460 C   0  0  0  0  0  0  0  0  0  0  0  0
  189.4070  172.7300  136.2590 C   0  0  0  0  0  1  0  0  0  0  0  0
  193.7710  168.5910  135.6810 Cl  0  0  0  0  0  0  0  0  0  0  0  0
  192.6220  170.7590  136.8760 C   0  0  0  0  0  3  0  0  0  0  0  0
  190.5280  171.7520  136.1540 C   0  0  0  0  0  0  0  0  0  0  0  0
  192.5260  169.8070  135.8600 C   0  0  0  0  0  0  0  0  0  0  0  0
  190.4410  170.7910  135.1410 C   0  0  0  0  0  3  0  0  0  0  0  0
  191.4360  169.8240  134.9920 C   0  0  0  0  0  3  0  0  0  0  0  0
  191.6360  171.7470  137.0410 C   0  0  0  0  0  0  0  0  0  0  0  0
  189.4260  177.5640  147.5210 C   0  0  0  0  0  3  0  0  0  0  0  0
  190.3000  175.3390  147.1400 C   0  0  0  0  0  3  0  0  0  0  0  0
  190.4890  177.8330  148.3880 C   0  0  0  0  0  0  0  0  0  0  0  0
  191.4570  176.8550  148.6330 C   0  0  0  0  0  3  0  0  0  0  0  0
  190.5760  179.0410  148.9950 F   0  0  0  0  0  0  0  0  0  0  0  0
  191.3610  175.6080  148.0100 C   0  0  0  0  0  3  0  0  0  0  0  0
  189.3310  176.3150  146.8870 C   0  0  0  0  0  0  0  0  0  0  0  0
  2 10  1  1  0  0  0
  2 11  1  0  0  0  0
  3  9  1  6  0  0  0
  3 12  1  0  0  0  0
  4  1  1  6  0  0  0
  4 13  1  0  0  0  0
  4  2  1  0  0  0  0
  5  9  1  0  0  0  0
  5 38  1  1  0  0  0
  6  7  1  0  0  0  0
  7  5  1  0  0  0  0
  8  7  2  0  0  0  0
 11 12  1  0  0  0  0
 13  6  1  6  0  0  0
 13  3  1  0  0  0  0
 14 20  1  0  0  0  0
 15 17  1  0  0  0  0
 16 17  1  0  0  0  0
 16 20  1  0  0  0  0
 17 18  2  0  0  0  0
 18 19  1  0  0  0  0
 19  8  1  1  0  0  0
 20 19  1  0  0  0  0
 21 15  1  0  0  0  0
 22 23  2  0  0  0  0
 23 21  1  0  0  0  0
 25 28  1  0  0  0  0
 26 31  1  0  0  0  0
 27 24  1  0  0  0  0
 27 31  2  0  0  0  0
 28 26  2  0  0  0  0
 29 27  1  0  0  0  0
 30 29  2  0  0  0  0
 30 28  1  0  0  0  0
 31 23  1  0  0  0  0
 32 34  1  0  0  0  0
 33 37  2  0  0  0  0
 34 35  2  0  0  0  0
 34 36  1  0  0  0  0
 37 35  1  0  0  0  0
 38 33  1  0  0  0  0
 38 32  2  0  0  0  0
M  END
>  <MODEL>
6

>  <REMARK>
 VINA RESULT:      -8.7      4.899      6.985
  Name = 
  4 active torsions:
  status: ('A' for Active; 'I' for Inactive)
    1  A    between atoms: C_10  and  C_38
    2  A    between atoms: N_15  and  N_20
    3  A    between atoms: C_18  and  C_26
    4  A    between atoms: C_34  and  C_35
                            x       y       z     vdW  Elec       q    Type
                         _______ _______ _______ _____ _____    ______ ____

>  <TORSDO>
F 4

$$$$
=
 OpenBabel11042416263D

 38 42  0  0  1  0  0  0  0  0999 V2000
  190.2080  174.0770  142.7620 O   0  0  0  0  0  1  0  0  0  0  0  0
  190.4910  172.0140  141.5590 C   0  0  2  0  0  3  0  0  0  0  0  0
  192.5810  171.2310  143.3560 C   0  0  2  0  0  3  0  0  0  0  0  0
  191.1380  173.0840  142.4410 C   0  0  2  0  0  3  0  0  0  0  0  0
  194.6000  172.3720  143.5120 C   0  0  2  0  0  3  0  0  0  0  0  0
  192.4990  173.4670  144.5410 C   0  0  0  0  0  2  0  0  0  0  0  0
  193.9070  173.6040  144.0350 C   0  0  0  0  0  0  0  0  0  0  0  0
  194.5910  174.7560  144.1050 C   0  0  0  0  0  3  0  0  0  0  0  0
  193.7690  171.5940  142.6700 O   0  0  0  0  0  0  0  0  0  0  0  0
  189.3120  171.5410  142.1410 O   0  0  0  0  0  1  0  0  0  0  0  0
  191.4750  170.8580  141.3690 C   0  0  0  0  0  2  0  0  0  0  0  0
  191.8370  170.2860  142.6110 O   0  0  0  0  0  0  0  0  0  0  0  0
  191.7080  172.4540  143.7130 C   0  0  2  0  0  3  0  0  0  0  0  0
  194.1910  176.7000  146.8880 C   0  0  0  0  0  1  0  0  0  0  0  0
  190.8200  177.4070  143.8030 N   0  0  0  0  0  2  0  0  0  0  0  0
  192.1080  176.5060  145.8340 C   0  0  0  0  0  2  0  0  0  0  0  0
  191.9910  176.8640  144.4080 C   0  0  0  0  0  0  0  0  0  0  0  0
  193.0490  176.6100  143.7340 N   0  0  0  0  0  0  0  0  0  0  0  0
  194.0510  176.0610  144.6300 C   0  0  1  0  0  3  0  0  0  0  0  0
  193.4300  175.8920  145.9520 N   0  0  0  0  0  0  0  0  0  0  0  0
  189.6610  177.6320  144.5560 N   0  0  0  0  0  2  0  0  0  0  0  0
  188.3000  176.6030  142.9820 O   0  0  0  0  0  0  0  0  0  0  0  0
  188.3840  177.1890  144.0960 C   0  0  0  0  0  0  0  0  0  0  0  0
  187.9520  176.0400  146.8980 C   0  0  0  0  0  1  0  0  0  0  0  0
  183.6930  179.4150  144.2570 Cl  0  0  0  0  0  0  0  0  0  0  0  0
  186.1310  178.1900  144.3170 C   0  0  0  0  0  3  0  0  0  0  0  0
  186.9520  176.9000  146.2020 C   0  0  0  0  0  0  0  0  0  0  0  0
  184.9460  178.4510  145.0060 C   0  0  0  0  0  0  0  0  0  0  0  0
  185.7580  177.1660  146.8820 C   0  0  0  0  0  3  0  0  0  0  0  0
  184.7600  177.9400  146.2900 C   0  0  0  0  0  3  0  0  0  0  0  0
  187.1540  177.4200  144.8960 C   0  0  0  0  0  0  0  0  0  0  0  0
  194.5800  170.7890  145.4940 C   0  0  0  0  0  3  0  0  0  0  0  0
  196.6970  171.5540  144.6030 C   0  0  0  0  0  3  0  0  0  0  0  0
  195.2580  170.0320  146.4540 C   0  0  0  0  0  0  0  0  0  0  0  0
  196.6540  170.0340  146.4880 C   0  0  0  0  0  3  0  0  0  0  0  0
  194.5580  169.2920  147.3470 F   0  0  0  0  0  0  0  0  0  0  0  0
  197.3740  170.7940  145.5620 C   0  0  0  0  0  3  0  0  0  0  0  0
  195.2980  171.5600  144.5670 C   0  0  0  0  0  0  0  0  0  0  0  0
  2 10  1  1  0  0  0
  2  4  1  0  0  0  0
  3 12  1  6  0  0  0
  3 13  1  0  0  0  0
  4  1  1  1  0  0  0
  4 13  1  0  0  0  0
  5  7  1  0  0  0  0
  5 38  1  1  0  0  0
  7  8  2  0  0  0  0
  7  6  1  0  0  0  0
  9  3  1  0  0  0  0
  9  5  1  0  0  0  0
 11  2  1  0  0  0  0
 11 12  1  0  0  0  0
 13  6  1  6  0  0  0
 15 17  1  0  0  0  0
 15 21  1  0  0  0  0
 16 20  1  0  0  0  0
 17 16  1  0  0  0  0
 18 17  2  0  0  0  0
 18 19  1  0  0  0  0
 19  8  1  6  0  0  0
 19 20  1  0  0  0  0
 20 14  1  0  0  0  0
 22 23  2  0  0  0  0
 23 21  1  0  0  0  0
 23 31  1  0  0  0  0
 25 28  1  0  0  0  0
 26 31  2  0  0  0  0
 26 28  1  0  0  0  0
 27 29  2  0  0  0  0
 27 24  1  0  0  0  0
 28 30  2  0  0  0  0
 30 29  1  0  0  0  0
 31 27  1  0  0  0  0
 32 34  1  0  0  0  0
 33 37  2  0  0  0  0
 34 35  2  0  0  0  0
 34 36  1  0  0  0  0
 37 35  1  0  0  0  0
 38 33  1  0  0  0  0
 38 32  2  0  0  0  0
M  END
>  <MODEL>
7

>  <REMARK>
 VINA RESULT:      -8.7      4.664     10.327
  Name = 
  4 active torsions:
  status: ('A' for Active; 'I' for Inactive)
    1  A    between atoms: C_10  and  C_38
    2  A    between atoms: N_15  and  N_20
    3  A    between atoms: C_18  and  C_26
    4  A    between atoms: C_34  and  C_35
                            x       y       z     vdW  Elec       q    Type
                         _______ _______ _______ _____ _____    ______ ____

>  <TORSDO>
F 4

$$$$
=
 OpenBabel11042416263D

 38 42  0  0  1  0  0  0  0  0999 V2000
  187.4960  176.1190  147.4630 O   0  0  0  0  0  1  0  0  0  0  0  0
  186.4610  178.2350  147.9440 C   0  0  2  0  0  3  0  0  0  0  0  0
  185.2020  178.2270  145.3700 C   0  0  2  0  0  3  0  0  0  0  0  0
  186.9930  177.2810  146.8720 C   0  0  2  0  0  3  0  0  0  0  0  0
  186.4020  178.3350  143.3820 C   0  0  2  0  0  3  0  0  0  0  0  0
  186.4240  176.1120  144.6990 C   0  0  0  0  0  2  0  0  0  0  0  0
  187.0370  176.9940  143.6490 C   0  0  0  0  0  0  0  0  0  0  0  0
  188.0720  176.6020  142.8890 C   0  0  0  0  0  3  0  0  0  0  0  0
  186.0620  179.0240  144.5720 O   0  0  0  0  0  0  0  0  0  0  0  0
  185.5650  177.5780  148.7910 O   0  0  0  0  0  1  0  0  0  0  0  0
  185.7600  179.4130  147.2650 C   0  0  0  0  0  2  0  0  0  0  0  0
  184.6870  178.9730  146.4560 O   0  0  0  0  0  0  0  0  0  0  0  0
  185.8890  176.9360  145.8710 C   0  0  2  0  0  3  0  0  0  0  0  0
  189.1860  174.2150  145.0670 C   0  0  0  0  0  1  0  0  0  0  0  0
  191.8400  174.4610  141.2880 N   0  0  0  0  0  2  0  0  0  0  0  0
  190.9740  174.8200  143.6800 C   0  0  0  0  0  2  0  0  0  0  0  0
  190.7990  174.7550  142.2160 C   0  0  0  0  0  0  0  0  0  0  0  0
  189.6050  175.0210  141.8380 N   0  0  0  0  0  0  0  0  0  0  0  0
  188.7920  175.2840  143.0110 C   0  0  1  0  0  3  0  0  0  0  0  0
  189.6750  175.2610  144.1860 N   0  0  0  0  0  0  0  0  0  0  0  0
  193.1460  174.2180  141.7290 N   0  0  0  0  0  2  0  0  0  0  0  0
  193.5460  176.4640  142.1520 O   0  0  0  0  0  0  0  0  0  0  0  0
  193.9860  175.2820  142.1760 C   0  0  0  0  0  0  0  0  0  0  0  0
  196.4640  175.6190  140.4150 C   0  0  0  0  0  1  0  0  0  0  0  0
  196.9790  173.7780  146.1470 Cl  0  0  0  0  0  0  0  0  0  0  0  0
  195.5370  174.5860  143.9750 C   0  0  0  0  0  3  0  0  0  0  0  0
  196.5260  175.1930  141.8420 C   0  0  0  0  0  0  0  0  0  0  0  0
  196.8060  174.3240  144.4940 C   0  0  0  0  0  0  0  0  0  0  0  0
  197.7930  174.9250  142.3730 C   0  0  0  0  0  3  0  0  0  0  0  0
  197.9340  174.4960  143.6930 C   0  0  0  0  0  3  0  0  0  0  0  0
  195.3700  175.0260  142.6510 C   0  0  0  0  0  0  0  0  0  0  0  0
  183.9380  178.3070  142.7800 C   0  0  0  0  0  3  0  0  0  0  0  0
  185.5950  178.2910  141.0160 C   0  0  0  0  0  3  0  0  0  0  0  0
  182.9190  178.2910  141.8240 C   0  0  0  0  0  0  0  0  0  0  0  0
  183.2360  178.2760  140.4640 C   0  0  0  0  0  3  0  0  0  0  0  0
  181.6230  178.2950  142.2190 F   0  0  0  0  0  0  0  0  0  0  0  0
  184.5740  178.2780  140.0600 C   0  0  0  0  0  3  0  0  0  0  0  0
  185.2830  178.3010  142.3790 C   0  0  0  0  0  0  0  0  0  0  0  0
  2 10  1  1  0  0  0
  3  9  1  1  0  0  0
  3 13  1  0  0  0  0
  3 12  1  0  0  0  0
  4  1  1  1  0  0  0
  4  2  1  0  0  0  0
  5 38  1  6  0  0  0
  5  7  1  0  0  0  0
  5  9  1  0  0  0  0
  7  6  1  0  0  0  0
  8  7  2  0  0  0  0
 11  2  1  0  0  0  0
 12 11  1  0  0  0  0
 13  6  1  6  0  0  0
 13  4  1  0  0  0  0
 15 21  1  0  0  0  0
 15 17  1  0  0  0  0
 16 20  1  0  0  0  0
 17 16  1  0  0  0  0
 18 17  2  0  0  0  0
 18 19  1  0  0  0  0
 19  8  1  6  0  0  0
 19 20  1  0  0  0  0
 20 14  1  0  0  0  0
 21 23  1  0  0  0  0
 22 23  2  0  0  0  0
 23 31  1  0  0  0  0
 24 27  1  0  0  0  0
 26 28  1  0  0  0  0
 27 29  2  0  0  0  0
 27 31  1  0  0  0  0
 28 25  1  0  0  0  0
 29 30  1  0  0  0  0
 30 28  2  0  0  0  0
 31 26  2  0  0  0  0
 33 38  2  0  0  0  0
 34 36  1  0  0  0  0
 34 32  2  0  0  0  0
 35 34  1  0  0  0  0
 37 35  2  0  0  0  0
 37 33  1  0  0  0  0
 38 32  1  0  0  0  0
M  END
>  <MODEL>
8

>  <REMARK>
 VINA RESULT:      -8.5      1.986      2.600
  Name = 
  4 active torsions:
  status: ('A' for Active; 'I' for Inactive)
    1  A    between atoms: C_10  and  C_38
    2  A    between atoms: N_15  and  N_20
    3  A    between atoms: C_18  and  C_26
    4  A    between atoms: C_34  and  C_35
                            x       y       z     vdW  Elec       q    Type
                         _______ _______ _______ _____ _____    ______ ____

>  <TORSDO>
F 4

$$$$
=
 OpenBabel11042416263D

 38 42  0  0  1  0  0  0  0  0999 V2000
  185.5660  176.9290  143.6520 O   0  0  0  0  0  1  0  0  0  0  0  0
  185.2940  177.4140  145.9910 C   0  0  2  0  0  3  0  0  0  0  0  0
  188.1320  177.3020  146.3650 C   0  0  2  0  0  3  0  0  0  0  0  0
  186.1490  176.7510  144.9090 C   0  0  2  0  0  3  0  0  0  0  0  0
  189.3630  175.3520  146.0700 C   0  0  2  0  0  3  0  0  0  0  0  0
  188.4920  176.5720  143.9660 C   0  0  0  0  0  2  0  0  0  0  0  0
  189.0370  175.3240  144.5990 C   0  0  0  0  0  0  0  0  0  0  0  0
  189.3170  174.2170  143.8910 C   0  0  0  0  0  3  0  0  0  0  0  0
  188.3570  175.9840  146.8400 O   0  0  0  0  0  0  0  0  0  0  0  0
  185.0210  178.7440  145.6590 O   0  0  0  0  0  1  0  0  0  0  0  0
  186.0390  177.3560  147.3260 C   0  0  0  0  0  2  0  0  0  0  0  0
  187.2860  178.0170  147.2440 O   0  0  0  0  0  0  0  0  0  0  0  0
  187.5680  177.3220  144.9270 C   0  0  2  0  0  3  0  0  0  0  0  0
  187.3910  172.6670  141.5320 C   0  0  0  0  0  1  0  0  0  0  0  0
  191.6710  173.4840  139.9850 N   0  0  0  0  0  2  0  0  0  0  0  0
  189.6390  172.2830  140.9980 C   0  0  0  0  0  2  0  0  0  0  0  0
  190.5500  173.4360  140.8640 C   0  0  0  0  0  0  0  0  0  0  0  0
  190.2580  174.4040  141.6480 N   0  0  0  0  0  0  0  0  0  0  0  0
  189.0790  174.0440  142.4130 C   0  0  1  0  0  3  0  0  0  0  0  0
  188.7340  172.6540  142.0850 N   0  0  0  0  0  0  0  0  0  0  0  0
  191.9920  172.3910  139.1710 N   0  0  0  0  0  2  0  0  0  0  0  0
  190.8280  173.2530  137.3570 O   0  0  0  0  0  0  0  0  0  0  0  0
  191.5440  172.3210  137.8170 C   0  0  0  0  0  0  0  0  0  0  0  0
  189.7850  169.8350  137.5350 C   0  0  0  0  0  1  0  0  0  0  0  0
  195.0090  170.2760  134.5310 Cl  0  0  0  0  0  0  0  0  0  0  0  0
  193.1010  171.2220  136.2380 C   0  0  0  0  0  3  0  0  0  0  0  0
  191.0710  170.0160  136.8030 C   0  0  0  0  0  0  0  0  0  0  0  0
  193.4950  170.1770  135.4010 C   0  0  0  0  0  0  0  0  0  0  0  0
  191.4780  168.9730  135.9620 C   0  0  0  0  0  3  0  0  0  0  0  0
  192.6820  169.0530  135.2620 C   0  0  0  0  0  3  0  0  0  0  0  0
  191.8890  171.1670  136.9480 C   0  0  0  0  0  0  0  0  0  0  0  0
  191.7350  175.9500  145.3950 C   0  0  0  0  0  3  0  0  0  0  0  0
  191.0440  176.2380  147.6970 C   0  0  0  0  0  3  0  0  0  0  0  0
  193.0080  176.4280  145.7160 C   0  0  0  0  0  0  0  0  0  0  0  0
  193.3000  176.8120  147.0270 C   0  0  0  0  0  3  0  0  0  0  0  0
  193.9570  176.5220  144.7540 F   0  0  0  0  0  0  0  0  0  0  0  0
  192.3180  176.7180  148.0170 C   0  0  0  0  0  3  0  0  0  0  0  0
  190.7480  175.8470  146.3870 C   0  0  0  0  0  0  0  0  0  0  0  0
  2 10  1  6  0  0  0
  2 11  1  0  0  0  0
  3  9  1  1  0  0  0
  3 12  1  0  0  0  0
  4  1  1  6  0  0  0
  4 13  1  0  0  0  0
  4  2  1  0  0  0  0
  5 38  1  6  0  0  0
  5  9  1  0  0  0  0
  6  7  1  0  0  0  0
  7  5  1  0  0  0  0
  8  7  2  0  0  0  0
 12 11  1  0  0  0  0
 13  6  1  6  0  0  0
 13  3  1  0  0  0  0
 14 20  1  0  0  0  0
 15 17  1  0  0  0  0
 16 20  1  0  0  0  0
 17 16  1  0  0  0  0
 17 18  2  0  0  0  0
 18 19  1  0  0  0  0
 19  8  1  1  0  0  0
 20 19  1  0  0  0  0
 21 15  1  0  0  0  0
 22 23  2  0  0  0  0
 23 21  1  0  0  0  0
 25 28  1  0  0  0  0
 26 31  1  0  0  0  0
 27 31  2  0  0  0  0
 27 24  1  0  0  0  0
 28 26  2  0  0  0  0
 29 27  1  0  0  0  0
 30 28  1  0  0  0  0
 30 29  2  0  0  0  0
 31 23  1  0  0  0  0
 32 34  2  0  0  0  0
 32 38  1  0  0  0  0
 33 37  1  0  0  0  0
 34 35  1  0  0  0  0
 35 37  2  0  0  0  0
 36 34  1  0  0  0  0
 38 33  2  0  0  0  0
M  END
>  <MODEL>
9

>  <REMARK>
 VINA RESULT:      -8.5      5.370      7.419
  Name = 
  4 active torsions:
  status: ('A' for Active; 'I' for Inactive)
    1  A    between atoms: C_10  and  C_38
    2  A    between atoms: N_15  and  N_20
    3  A    between atoms: C_18  and  C_26
    4  A    between atoms: C_34  and  C_35
                            x       y       z     vdW  Elec       q    Type
                         _______ _______ _______ _____ _____    ______ ____

>  <TORSDO>
F 4

$$$$
