=
 OpenBabel11042415023D

 33 37  0  0  1  0  0  0  0  0999 V2000
  194.7290  175.4460  144.7740 C   0  0  0  0  0  0  0  0  0  0  0  0
  195.9750  175.6080  144.7210 O   0  0  0  0  0  0  0  0  0  0  0  0
  194.1800  175.1420  145.9700 N   0  0  0  0  0  0  0  0  0  0  0  0
  191.7230  174.9170  145.5950 C   0  0  0  0  0  0  0  0  0  0  0  0
  194.0220  175.5930  143.5960 C   0  0  0  0  0  3  0  0  0  0  0  0
  192.6670  175.4750  143.3610 C   0  0  0  0  0  3  0  0  0  0  0  0
  192.9030  174.9110  146.3500 C   0  0  0  0  0  3  0  0  0  0  0  0
  190.4040  175.1290  143.7160 N   0  0  0  0  0  2  0  0  0  0  0  0
  191.6070  175.1770  144.2200 C   0  0  0  0  0  0  0  0  0  0  0  0
  189.6940  174.0720  141.6430 C   0  0  0  0  0  2  0  0  0  0  0  0
  190.0500  175.3790  142.3220 C   0  0  1  0  0  3  0  0  0  0  0  0
  188.5940  174.4110  140.6630 C   0  0  0  0  0  2  0  0  0  0  0  0
  188.8110  176.2600  142.2410 C   0  0  0  0  0  2  0  0  0  0  0  0
  187.8420  175.5600  141.3040 C   0  0  1  0  0  3  0  0  0  0  0  0
  187.2480  176.5120  140.2680 C   0  0  0  0  0  2  0  0  0  0  0  0
  187.0170  177.9140  140.8250 C   0  0  0  0  0  2  0  0  0  0  0  0
  184.6660  178.2430  140.2390 C   0  0  0  0  0  3  0  0  0  0  0  0
  185.8500  179.3520  143.2630 N   0  0  0  0  0  1  0  0  0  0  0  0
  183.2850  178.4140  140.5690 N   0  0  0  0  0  0  0  0  0  0  0  0
  185.5850  178.1000  141.2000 C   0  0  0  0  0  0  0  0  0  0  0  0
  183.7290  178.2550  142.9180 C   0  0  0  0  0  3  0  0  0  0  0  0
  185.2130  178.1910  142.6640 C   0  0  0  0  0  0  0  0  0  0  0  0
  182.8450  178.3760  141.9280 C   0  0  0  0  0  3  0  0  0  0  0  0
  190.5250  174.6370  146.2760 O   0  0  0  0  0  0  0  0  0  0  0  0
  188.6080  176.0070  146.5220 C   0  0  1  0  0  3  0  0  0  0  0  0
  189.8720  175.5590  147.1410 C   0  0  1  0  0  3  0  0  0  0  0  0
  188.6300  175.0270  147.5290 O   0  0  0  0  0  0  0  0  0  0  0  0
  188.1860  177.3300  147.1290 C   0  0  0  0  0  2  0  0  0  0  0  0
  184.7380  177.2760  146.2090 N   0  0  0  0  0  0  0  0  0  0  0  0
  186.7350  177.5570  146.8890 C   0  0  0  0  0  0  0  0  0  0  0  0
  185.9240  176.6930  146.2570 N   0  0  0  0  0  0  0  0  0  0  0  0
  184.7700  178.4730  146.7760 N   0  0  0  0  0  2  0  0  0  0  0  0
  186.0250  178.6900  147.2170 C   0  0  0  0  0  3  0  0  0  0  0  0
  1  3  1  0  0  0  0
  2  1  2  0  0  0  0
  3  7  2  0  0  0  0
  4 24  1  0  0  0  0
  4  7  1  0  0  0  0
  5  1  1  0  0  0  0
  6  5  2  0  0  0  0
  6  9  1  0  0  0  0
  8  9  1  0  0  0  0
  9  4  2  0  0  0  0
 10 11  1  0  0  0  0
 11  8  1  1  0  0  0
 12 14  1  0  0  0  0
 12 10  1  0  0  0  0
 13 11  1  0  0  0  0
 14 15  1  6  0  0  0
 14 13  1  0  0  0  0
 15 16  1  0  0  0  0
 16 20  1  0  0  0  0
 17 19  2  0  0  0  0
 17 20  1  0  0  0  0
 19 23  1  0  0  0  0
 20 22  2  0  0  0  0
 22 21  1  0  0  0  0
 22 18  1  0  0  0  0
 23 21  2  0  0  0  0
 25 28  1  1  0  0  0
 25 26  1  0  0  0  0
 25 27  1  0  0  0  0
 26 24  1  6  0  0  0
 26 27  1  0  0  0  0
 29 31  2  0  0  0  0
 29 32  1  0  0  0  0
 30 28  1  0  0  0  0
 30 33  2  0  0  0  0
 31 30  1  0  0  0  0
 32 33  1  0  0  0  0
M  END
>  <MODEL>
1

>  <REMARK>
 VINA RESULT:      -7.3      0.000      0.000
  Name = 
  8 active torsions:
  status: ('A' for Active; 'I' for Inactive)
    1  A    between atoms: C_6  and  C_25
    2  A    between atoms: C_9  and  C_29
    3  A    between atoms: C_11  and  O_22
    4  A    between atoms: C_13  and  O_22
    5  A    between atoms: C_14  and  C_25
    6  A    between atoms: C_15  and  C_29
    7  A    between atoms: C_15  and  C_32
    8  A    between atoms: C_17  and  N_31
                            x       y       z     vdW  Elec       q    Type
                         _______ _______ _______ _____ _____    ______ ____

>  <TORSDO>
F 8

$$$$
=
 OpenBabel11042415023D

 33 37  0  0  1  0  0  0  0  0999 V2000
  184.4460  178.2720  141.2200 C   0  0  0  0  0  0  0  0  0  0  0  0
  183.6590  178.3990  140.2470 O   0  0  0  0  0  0  0  0  0  0  0  0
  183.9200  178.2740  142.4630 N   0  0  0  0  0  0  0  0  0  0  0  0
  185.8280  178.0000  144.0490 C   0  0  0  0  0  0  0  0  0  0  0  0
  185.7910  178.1410  140.9310 C   0  0  0  0  0  3  0  0  0  0  0  0
  186.8640  177.9890  141.7870 C   0  0  0  0  0  3  0  0  0  0  0  0
  184.4840  178.1600  143.6870 C   0  0  0  0  0  3  0  0  0  0  0  0
  188.1000  177.7710  143.7340 N   0  0  0  0  0  2  0  0  0  0  0  0
  186.9280  177.9190  143.1800 C   0  0  0  0  0  0  0  0  0  0  0  0
  190.4500  178.4010  143.7790 C   0  0  0  0  0  2  0  0  0  0  0  0
  189.3720  177.6490  143.0260 C   0  0  1  0  0  3  0  0  0  0  0  0
  191.7140  177.5960  143.5890 C   0  0  0  0  0  2  0  0  0  0  0  0
  189.8130  176.1930  142.9790 C   0  0  0  0  0  2  0  0  0  0  0  0
  191.2470  176.1590  143.4780 C   0  0  1  0  0  3  0  0  0  0  0  0
  192.1540  175.3240  142.5770 C   0  0  0  0  0  2  0  0  0  0  0  0
  193.1420  174.4710  143.3680 C   0  0  0  0  0  2  0  0  0  0  0  0
  195.3450  174.1660  142.3540 C   0  0  0  0  0  3  0  0  0  0  0  0
  195.0220  176.0190  145.2230 N   0  0  0  0  0  1  0  0  0  0  0  0
  196.6890  174.5740  142.0850 N   0  0  0  0  0  0  0  0  0  0  0  0
  194.5430  174.9180  143.1140 C   0  0  0  0  0  0  0  0  0  0  0  0
  196.4290  176.5930  143.3490 C   0  0  0  0  0  3  0  0  0  0  0  0
  195.0450  176.1800  143.7790 C   0  0  0  0  0  0  0  0  0  0  0  0
  197.1880  175.8220  142.5710 C   0  0  0  0  0  3  0  0  0  0  0  0
  186.1150  177.9080  145.4220 O   0  0  0  0  0  0  0  0  0  0  0  0
  187.7500  176.8880  146.8000 C   0  0  1  0  0  3  0  0  0  0  0  0
  186.4770  176.6970  146.0760 C   0  0  1  0  0  3  0  0  0  0  0  0
  186.5120  176.9150  147.4640 O   0  0  0  0  0  0  0  0  0  0  0  0
  188.4080  175.5420  147.0350 C   0  0  0  0  0  2  0  0  0  0  0  0
  191.9550  175.2070  146.8420 N   0  0  0  0  0  0  0  0  0  0  0  0
  189.8880  175.6880  146.9940 C   0  0  0  0  0  0  0  0  0  0  0  0
  190.7440  174.6850  146.7460 N   0  0  0  0  0  0  0  0  0  0  0  0
  191.8980  176.4950  147.1490 N   0  0  0  0  0  2  0  0  0  0  0  0
  190.5990  176.8370  147.2590 C   0  0  0  0  0  3  0  0  0  0  0  0
  1  3  1  0  0  0  0
  2  1  2  0  0  0  0
  3  7  2  0  0  0  0
  4 24  1  0  0  0  0
  5  1  1  0  0  0  0
  5  6  2  0  0  0  0
  6  9  1  0  0  0  0
  7  4  1  0  0  0  0
  9  8  1  0  0  0  0
  9  4  2  0  0  0  0
 11  8  1  1  0  0  0
 11 10  1  0  0  0  0
 12 10  1  0  0  0  0
 13 11  1  0  0  0  0
 13 14  1  0  0  0  0
 14 15  1  6  0  0  0
 14 12  1  0  0  0  0
 15 16  1  0  0  0  0
 17 20  1  0  0  0  0
 19 17  2  0  0  0  0
 19 23  1  0  0  0  0
 20 16  1  0  0  0  0
 20 22  2  0  0  0  0
 21 22  1  0  0  0  0
 22 18  1  0  0  0  0
 23 21  2  0  0  0  0
 25 28  1  1  0  0  0
 25 27  1  0  0  0  0
 26 24  1  6  0  0  0
 26 25  1  0  0  0  0
 26 27  1  0  0  0  0
 29 32  1  0  0  0  0
 30 28  1  0  0  0  0
 30 33  2  0  0  0  0
 31 29  2  0  0  0  0
 31 30  1  0  0  0  0
 32 33  1  0  0  0  0
M  END
>  <MODEL>
2

>  <REMARK>
 VINA RESULT:      -7.1      2.833      8.047
  Name = 
  8 active torsions:
  status: ('A' for Active; 'I' for Inactive)
    1  A    between atoms: C_6  and  C_25
    2  A    between atoms: C_9  and  C_29
    3  A    between atoms: C_11  and  O_22
    4  A    between atoms: C_13  and  O_22
    5  A    between atoms: C_14  and  C_25
    6  A    between atoms: C_15  and  C_29
    7  A    between atoms: C_15  and  C_32
    8  A    between atoms: C_17  and  N_31
                            x       y       z     vdW  Elec       q    Type
                         _______ _______ _______ _____ _____    ______ ____

>  <TORSDO>
F 8

$$$$
=
 OpenBabel11042415023D

 33 37  0  0  1  0  0  0  0  0999 V2000
  189.1800  173.7690  138.7490 C   0  0  0  0  0  0  0  0  0  0  0  0
  188.4750  173.7210  137.7080 O   0  0  0  0  0  0  0  0  0  0  0  0
  190.5060  173.5490  138.6260 N   0  0  0  0  0  0  0  0  0  0  0  0
  191.4810  173.7420  140.9150 C   0  0  2  0  0  3  0  0  0  0  0  0
  188.5320  174.0430  139.9380 C   0  0  0  0  0  2  0  0  0  0  0  0
  189.0450  174.1550  141.2150 C   0  0  0  0  0  3  0  0  0  0  0  0
  191.5100  173.5310  139.5310 C   0  0  0  0  0  3  0  0  0  0  0  0
  190.5490  174.1890  142.9760 N   0  0  0  0  0  2  0  0  0  0  0  0
  190.3490  174.0310  141.6960 C   0  0  0  0  0  0  0  0  0  0  0  0
  189.7990  173.7460  145.2480 C   0  0  0  0  0  2  0  0  0  0  0  0
  189.5260  174.5090  143.9680 C   0  0  1  0  0  3  0  0  0  0  0  0
  189.3750  174.6680  146.3680 C   0  0  0  0  0  2  0  0  0  0  0  0
  189.5800  175.9870  144.3260 C   0  0  0  0  0  2  0  0  0  0  0  0
  189.6330  176.0650  145.8420 C   0  0  1  0  0  3  0  0  0  0  0  0
  188.6480  177.0860  146.4040 C   0  0  0  0  0  2  0  0  0  0  0  0
  187.2750  176.4820  146.6890 C   0  0  0  0  0  2  0  0  0  0  0  0
  186.1810  177.2500  144.6420 C   0  0  0  0  0  3  0  0  0  0  0  0
  185.9190  179.0970  147.5220 N   0  0  0  0  0  1  0  0  0  0  0  0
  185.1640  177.9660  143.9350 N   0  0  0  0  0  0  0  0  0  0  0  0
  186.2080  177.2460  145.9790 C   0  0  0  0  0  0  0  0  0  0  0  0
  184.1200  178.6810  145.9700 C   0  0  0  0  0  3  0  0  0  0  0  0
  185.2200  178.0560  146.7890 C   0  0  0  0  0  0  0  0  0  0  0  0
  184.1200  178.6430  144.6380 C   0  0  0  0  0  3  0  0  0  0  0  0
  192.7040  173.6590  141.6030 O   0  0  0  0  0  0  0  0  0  0  0  0
  194.2860  174.6370  143.0700 C   0  0  1  0  0  3  0  0  0  0  0  0
  193.5930  174.7570  141.7710 C   0  0  1  0  0  3  0  0  0  0  0  0
  194.9100  174.2730  141.8650 O   0  0  0  0  0  0  0  0  0  0  0  0
  194.7970  175.9980  143.5000 C   0  0  0  0  0  2  0  0  0  0  0  0
  194.1670  177.1720  146.8110 N   0  0  0  0  0  0  0  0  0  0  0  0
  194.3040  176.3150  144.8680 C   0  0  0  0  0  0  0  0  0  0  0  0
  194.8630  177.2190  145.6880 N   0  0  0  0  0  0  0  0  0  0  0  0
  193.1990  176.2700  146.7370 N   0  0  0  0  0  2  0  0  0  0  0  0
  193.2570  175.7000  145.5170 C   0  0  0  0  0  3  0  0  0  0  0  0
  1  5  1  0  0  0  0
  2  1  2  0  0  0  0
  3  1  1  0  0  0  0
  3  7  2  0  0  0  0
  4 24  1  6  0  0  0
  4  9  1  0  0  0  0
  5  6  1  0  0  0  0
  6  9  2  0  0  0  0
  7  4  1  0  0  0  0
  9  8  1  0  0  0  0
 10 12  1  0  0  0  0
 11  8  1  6  0  0  0
 11 13  1  0  0  0  0
 11 10  1  0  0  0  0
 13 14  1  0  0  0  0
 14 12  1  0  0  0  0
 14 15  1  1  0  0  0
 15 16  1  0  0  0  0
 17 20  1  0  0  0  0
 19 23  1  0  0  0  0
 19 17  2  0  0  0  0
 20 16  1  0  0  0  0
 20 22  2  0  0  0  0
 21 22  1  0  0  0  0
 22 18  1  0  0  0  0
 23 21  2  0  0  0  0
 25 28  1  6  0  0  0
 26 24  1  1  0  0  0
 26 27  1  0  0  0  0
 26 25  1  0  0  0  0
 27 25  1  0  0  0  0
 28 30  1  0  0  0  0
 30 33  2  0  0  0  0
 30 31  1  0  0  0  0
 31 29  2  0  0  0  0
 32 29  1  0  0  0  0
 33 32  1  0  0  0  0
M  END
>  <MODEL>
3

>  <REMARK>
 VINA RESULT:      -7.1      2.673      6.253
  Name = 
  8 active torsions:
  status: ('A' for Active; 'I' for Inactive)
    1  A    between atoms: C_6  and  C_25
    2  A    between atoms: C_9  and  C_29
    3  A    between atoms: C_11  and  O_22
    4  A    between atoms: C_13  and  O_22
    5  A    between atoms: C_14  and  C_25
    6  A    between atoms: C_15  and  C_29
    7  A    between atoms: C_15  and  C_32
    8  A    between atoms: C_17  and  N_31
                            x       y       z     vdW  Elec       q    Type
                         _______ _______ _______ _____ _____    ______ ____

>  <TORSDO>
F 8

$$$$
=
 OpenBabel11042415023D

 33 37  0  0  1  0  0  0  0  0999 V2000
  184.8400  178.4450  145.1600 C   0  0  0  0  0  0  0  0  0  0  0  0
  183.7770  178.8800  145.6730 O   0  0  0  0  0  0  0  0  0  0  0  0
  184.8550  178.2220  143.8290 N   0  0  0  0  0  0  0  0  0  0  0  0
  187.1360  177.3760  143.2690 C   0  0  2  0  0  3  0  0  0  0  0  0
  185.9080  178.2290  146.0090 C   0  0  0  0  0  2  0  0  0  0  0  0
  187.1770  177.7630  145.7270 C   0  0  0  0  0  3  0  0  0  0  0  0
  185.8190  177.7680  142.9960 C   0  0  0  0  0  3  0  0  0  0  0  0
  189.0070  176.9660  144.5520 N   0  0  0  0  0  2  0  0  0  0  0  0
  187.7680  177.3730  144.5230 C   0  0  0  0  0  0  0  0  0  0  0  0
  189.7490  175.5200  146.3630 C   0  0  0  0  0  2  0  0  0  0  0  0
  189.8580  176.8960  145.7370 C   0  0  1  0  0  3  0  0  0  0  0  0
  191.1240  175.2150  146.9100 C   0  0  0  0  0  2  0  0  0  0  0  0
  191.3180  177.0810  145.3510 C   0  0  0  0  0  2  0  0  0  0  0  0
  192.0820  175.9280  145.9790 C   0  0  1  0  0  3  0  0  0  0  0  0
  193.3480  176.3930  146.6950 C   0  0  0  0  0  2  0  0  0  0  0  0
  194.4180  176.8940  145.7300 C   0  0  0  0  0  2  0  0  0  0  0  0
  195.5870  174.7650  146.0040 C   0  0  0  0  0  3  0  0  0  0  0  0
  196.5020  176.9100  143.4870 N   0  0  0  0  0  1  0  0  0  0  0  0
  196.3390  173.6540  145.5090 N   0  0  0  0  0  0  0  0  0  0  0  0
  195.2100  175.7530  145.1860 C   0  0  0  0  0  0  0  0  0  0  0  0
  196.3170  174.5140  143.2730 C   0  0  0  0  0  3  0  0  0  0  0  0
  195.6290  175.7740  143.7330 C   0  0  0  0  0  0  0  0  0  0  0  0
  196.6550  173.5430  144.1200 C   0  0  0  0  0  3  0  0  0  0  0  0
  187.9140  176.9420  142.1820 O   0  0  0  0  0  0  0  0  0  0  0  0
  188.6910  174.7660  141.6570 C   0  0  1  0  0  3  0  0  0  0  0  0
  187.6330  175.7700  141.4250 C   0  0  1  0  0  3  0  0  0  0  0  0
  187.4450  174.6880  142.3020 O   0  0  0  0  0  0  0  0  0  0  0  0
  188.7150  173.7780  140.5070 C   0  0  0  0  0  2  0  0  0  0  0  0
  190.6450  170.7880  140.7760 N   0  0  0  0  0  0  0  0  0  0  0  0
  189.4720  172.5600  140.9020 C   0  0  0  0  0  0  0  0  0  0  0  0
  190.1570  171.7800  140.0500 N   0  0  0  0  0  0  0  0  0  0  0  0
  190.2890  170.9050  142.0470 N   0  0  0  0  0  2  0  0  0  0  0  0
  189.5370  172.0180  142.1660 C   0  0  0  0  0  3  0  0  0  0  0  0
  1  2  2  0  0  0  0
  1  5  1  0  0  0  0
  3  1  1  0  0  0  0
  4 24  1  6  0  0  0
  4  9  1  0  0  0  0
  6  5  1  0  0  0  0
  7  4  1  0  0  0  0
  7  3  2  0  0  0  0
  9  8  1  0  0  0  0
  9  6  2  0  0  0  0
 10 12  1  0  0  0  0
 11  8  1  6  0  0  0
 11 10  1  0  0  0  0
 13 11  1  0  0  0  0
 13 14  1  0  0  0  0
 14 15  1  1  0  0  0
 14 12  1  0  0  0  0
 16 15  1  0  0  0  0
 18 22  1  0  0  0  0
 19 17  1  0  0  0  0
 20 16  1  0  0  0  0
 20 17  2  0  0  0  0
 21 22  2  0  0  0  0
 21 23  1  0  0  0  0
 22 20  1  0  0  0  0
 23 19  2  0  0  0  0
 25 28  1  6  0  0  0
 25 27  1  0  0  0  0
 26 25  1  0  0  0  0
 26 24  1  1  0  0  0
 26 27  1  0  0  0  0
 28 30  1  0  0  0  0
 29 32  1  0  0  0  0
 30 33  2  0  0  0  0
 31 29  2  0  0  0  0
 31 30  1  0  0  0  0
 32 33  1  0  0  0  0
M  END
>  <MODEL>
4

>  <REMARK>
 VINA RESULT:      -6.9      2.834      8.983
  Name = 
  8 active torsions:
  status: ('A' for Active; 'I' for Inactive)
    1  A    between atoms: C_6  and  C_25
    2  A    between atoms: C_9  and  C_29
    3  A    between atoms: C_11  and  O_22
    4  A    between atoms: C_13  and  O_22
    5  A    between atoms: C_14  and  C_25
    6  A    between atoms: C_15  and  C_29
    7  A    between atoms: C_15  and  C_32
    8  A    between atoms: C_17  and  N_31
                            x       y       z     vdW  Elec       q    Type
                         _______ _______ _______ _____ _____    ______ ____

>  <TORSDO>
F 8

$$$$
=
 OpenBabel11042415023D

 33 37  0  0  1  0  0  0  0  0999 V2000
  185.0410  178.4270  146.7360 C   0  0  0  0  0  0  0  0  0  0  0  0
  184.4560  178.5440  147.8440 O   0  0  0  0  0  0  0  0  0  0  0  0
  184.3780  178.8180  145.6270 N   0  0  0  0  0  0  0  0  0  0  0  0
  185.9060  178.4080  143.6970 C   0  0  2  0  0  3  0  0  0  0  0  0
  186.3190  177.9050  146.7490 C   0  0  0  0  0  3  0  0  0  0  0  0
  187.1840  177.6680  145.6990 C   0  0  0  0  0  3  0  0  0  0  0  0
  184.7220  178.8220  144.3190 C   0  0  0  0  0  3  0  0  0  0  0  0
  188.0430  177.5540  143.5510 N   0  0  0  0  0  0  0  0  0  0  0  0
  187.0440  177.8770  144.3260 C   0  0  0  0  0  0  0  0  0  0  0  0
  189.2810  175.4910  143.9120 C   0  0  0  0  0  2  0  0  0  0  0  0
  189.3230  177.0030  143.9890 C   0  0  1  0  0  3  0  0  0  0  0  0
  190.6750  175.0670  143.5090 C   0  0  0  0  0  2  0  0  0  0  0  0
  190.4390  177.4540  143.0580 C   0  0  0  0  0  2  0  0  0  0  0  0
  191.1920  176.2010  142.6470 C   0  0  1  0  0  3  0  0  0  0  0  0
  192.7050  176.3710  142.7620 C   0  0  0  0  0  2  0  0  0  0  0  0
  193.1610  176.6050  144.2000 C   0  0  0  0  0  2  0  0  0  0  0  0
  195.4980  176.0860  143.7040 C   0  0  0  0  0  3  0  0  0  0  0  0
  193.5230  173.7630  145.2770 N   0  0  0  0  0  1  0  0  0  0  0  0
  196.7290  175.4000  143.9510 N   0  0  0  0  0  0  0  0  0  0  0  0
  194.4280  175.8670  144.4760 C   0  0  0  0  0  0  0  0  0  0  0  0
  195.8170  174.2490  145.8450 C   0  0  0  0  0  3  0  0  0  0  0  0
  194.4530  174.8360  145.5820 C   0  0  0  0  0  0  0  0  0  0  0  0
  196.8630  174.5110  145.0620 C   0  0  0  0  0  3  0  0  0  0  0  0
  185.9740  178.5340  142.2980 O   0  0  0  0  0  0  0  0  0  0  0  0
  184.2050  178.6250  140.7250 C   0  0  1  0  0  3  0  0  0  0  0  0
  185.1960  177.7570  141.3950 C   0  0  1  0  0  3  0  0  0  0  0  0
  185.3950  178.2340  140.0870 O   0  0  0  0  0  0  0  0  0  0  0  0
  183.0620  177.7790  140.2010 C   0  0  0  0  0  2  0  0  0  0  0  0
  179.7140  178.7390  140.9800 N   0  0  0  0  0  0  0  0  0  0  0  0
  181.7750  178.2490  140.7830 C   0  0  0  0  0  0  0  0  0  0  0  0
  180.5890  178.1870  140.1570 N   0  0  0  0  0  0  0  0  0  0  0  0
  180.3000  179.1540  142.0930 N   0  0  0  0  0  2  0  0  0  0  0  0
  181.6130  178.8640  142.0040 C   0  0  0  0  0  3  0  0  0  0  0  0
  1  5  1  0  0  0  0
  1  2  2  0  0  0  0
  3  1  1  0  0  0  0
  4 24  1  1  0  0  0
  4  7  1  0  0  0  0
  4  9  1  0  0  0  0
  6  5  2  0  0  0  0
  7  3  2  0  0  0  0
  8  9  2  0  0  0  0
  9  6  1  0  0  0  0
 10 11  1  0  0  0  0
 11  8  1  6  0  0  0
 12 10  1  0  0  0  0
 13 11  1  0  0  0  0
 14 15  1  1  0  0  0
 14 13  1  0  0  0  0
 14 12  1  0  0  0  0
 15 16  1  0  0  0  0
 16 20  1  0  0  0  0
 17 19  2  0  0  0  0
 17 20  1  0  0  0  0
 18 22  1  0  0  0  0
 19 23  1  0  0  0  0
 20 22  2  0  0  0  0
 22 21  1  0  0  0  0
 23 21  2  0  0  0  0
 25 28  1  6  0  0  0
 25 26  1  0  0  0  0
 26 24  1  1  0  0  0
 27 25  1  0  0  0  0
 27 26  1  0  0  0  0
 28 30  1  0  0  0  0
 29 32  1  0  0  0  0
 30 33  2  0  0  0  0
 31 30  1  0  0  0  0
 31 29  2  0  0  0  0
 33 32  1  0  0  0  0
M  END
>  <MODEL>
5

>  <REMARK>
 VINA RESULT:      -6.8      3.118      8.538
  Name = 
  8 active torsions:
  status: ('A' for Active; 'I' for Inactive)
    1  A    between atoms: C_6  and  C_25
    2  A    between atoms: C_9  and  C_29
    3  A    between atoms: C_11  and  O_22
    4  A    between atoms: C_13  and  O_22
    5  A    between atoms: C_14  and  C_25
    6  A    between atoms: C_15  and  C_29
    7  A    between atoms: C_15  and  C_32
    8  A    between atoms: C_17  and  N_31
                            x       y       z     vdW  Elec       q    Type
                         _______ _______ _______ _____ _____    ______ ____

>  <TORSDO>
F 8

$$$$
=
 OpenBabel11042415023D

 33 37  0  0  1  0  0  0  0  0999 V2000
  196.3820  173.8240  145.7180 C   0  0  0  0  0  0  0  0  0  0  0  0
  197.2150  173.4860  146.5980 O   0  0  0  0  0  0  0  0  0  0  0  0
  196.4340  173.1970  144.5230 N   0  0  0  0  0  0  0  0  0  0  0  0
  194.6210  174.1800  143.1180 C   0  0  2  0  0  3  0  0  0  0  0  0
  195.4790  174.8160  146.0510 C   0  0  0  0  0  2  0  0  0  0  0  0
  194.4690  175.3760  145.2950 C   0  0  0  0  0  3  0  0  0  0  0  0
  195.6970  173.3280  143.3980 C   0  0  0  0  0  3  0  0  0  0  0  0
  193.0490  175.8180  143.5180 N   0  0  0  0  0  2  0  0  0  0  0  0
  194.0500  175.1240  143.9870 C   0  0  0  0  0  0  0  0  0  0  0  0
  191.7030  177.8310  143.2710 C   0  0  0  0  0  2  0  0  0  0  0  0
  192.2980  176.8370  144.2480 C   0  0  1  0  0  3  0  0  0  0  0  0
  190.3720  178.2330  143.8620 C   0  0  0  0  0  2  0  0  0  0  0  0
  191.1290  176.2040  144.9870 C   0  0  0  0  0  2  0  0  0  0  0  0
  189.8950  177.0080  144.6160 C   0  0  1  0  0  3  0  0  0  0  0  0
  189.0520  177.3720  145.8360 C   0  0  0  0  0  2  0  0  0  0  0  0
  187.7780  176.5370  145.9390 C   0  0  0  0  0  2  0  0  0  0  0  0
  186.5240  178.2400  144.7130 C   0  0  0  0  0  3  0  0  0  0  0  0
  185.9510  177.7690  148.0630 N   0  0  0  0  0  1  0  0  0  0  0  0
  185.3760  179.0660  144.4990 N   0  0  0  0  0  0  0  0  0  0  0  0
  186.5720  177.3940  145.7470 C   0  0  0  0  0  0  0  0  0  0  0  0
  184.2440  178.1500  146.4010 C   0  0  0  0  0  3  0  0  0  0  0  0
  185.4570  177.3340  146.7680 C   0  0  0  0  0  0  0  0  0  0  0  0
  184.2310  178.9660  145.3490 C   0  0  0  0  0  3  0  0  0  0  0  0
  194.0450  174.0880  141.8390 O   0  0  0  0  0  0  0  0  0  0  0  0
  192.0460  173.6160  140.6580 C   0  0  1  0  0  3  0  0  0  0  0  0
  193.1610  173.0460  141.4420 C   0  0  1  0  0  3  0  0  0  0  0  0
  193.1330  172.9740  140.0380 O   0  0  0  0  0  0  0  0  0  0  0  0
  190.8650  172.6660  140.6910 C   0  0  0  0  0  2  0  0  0  0  0  0
  187.7200  173.6910  142.0310 N   0  0  0  0  0  0  0  0  0  0  0  0
  189.6900  173.3410  141.3060 C   0  0  0  0  0  0  0  0  0  0  0  0
  188.4990  172.7560  141.5130 N   0  0  0  0  0  0  0  0  0  0  0  0
  188.3670  174.8410  142.1510 N   0  0  0  0  0  2  0  0  0  0  0  0
  189.6230  174.6600  141.6960 C   0  0  0  0  0  3  0  0  0  0  0  0
  1  5  1  0  0  0  0
  1  2  2  0  0  0  0
  3  1  1  0  0  0  0
  4 24  1  1  0  0  0
  4  7  1  0  0  0  0
  4  9  1  0  0  0  0
  6  5  1  0  0  0  0
  7  3  2  0  0  0  0
  8  9  1  0  0  0  0
  9  6  2  0  0  0  0
 10 12  1  0  0  0  0
 10 11  1  0  0  0  0
 11  8  1  6  0  0  0
 11 13  1  0  0  0  0
 12 14  1  0  0  0  0
 14 13  1  0  0  0  0
 14 15  1  1  0  0  0
 15 16  1  0  0  0  0
 17 20  1  0  0  0  0
 19 17  2  0  0  0  0
 19 23  1  0  0  0  0
 20 16  1  0  0  0  0
 20 22  2  0  0  0  0
 21 22  1  0  0  0  0
 22 18  1  0  0  0  0
 23 21  2  0  0  0  0
 25 28  1  1  0  0  0
 25 26  1  0  0  0  0
 26 24  1  6  0  0  0
 27 25  1  0  0  0  0
 27 26  1  0  0  0  0
 28 30  1  0  0  0  0
 29 32  1  0  0  0  0
 30 31  1  0  0  0  0
 30 33  2  0  0  0  0
 31 29  2  0  0  0  0
 33 32  1  0  0  0  0
M  END
>  <MODEL>
6

>  <REMARK>
 VINA RESULT:      -6.7      2.910      5.259
  Name = 
  8 active torsions:
  status: ('A' for Active; 'I' for Inactive)
    1  A    between atoms: C_6  and  C_25
    2  A    between atoms: C_9  and  C_29
    3  A    between atoms: C_11  and  O_22
    4  A    between atoms: C_13  and  O_22
    5  A    between atoms: C_14  and  C_25
    6  A    between atoms: C_15  and  C_29
    7  A    between atoms: C_15  and  C_32
    8  A    between atoms: C_17  and  N_31
                            x       y       z     vdW  Elec       q    Type
                         _______ _______ _______ _____ _____    ______ ____

>  <TORSDO>
F 8

$$$$
=
 OpenBabel11042415023D

 33 37  0  0  1  0  0  0  0  0999 V2000
  184.2850  178.1780  141.0830 C   0  0  0  0  0  0  0  0  0  0  0  0
  183.4540  178.2920  140.1450 O   0  0  0  0  0  0  0  0  0  0  0  0
  183.8330  178.3150  142.3480 N   0  0  0  0  0  0  0  0  0  0  0  0
  185.8050  178.0140  143.8490 C   0  0  0  0  0  0  0  0  0  0  0  0
  185.5970  177.9220  140.7350 C   0  0  0  0  0  3  0  0  0  0  0  0
  186.7040  177.7510  141.5430 C   0  0  0  0  0  3  0  0  0  0  0  0
  184.4580  178.2500  143.5450 C   0  0  0  0  0  3  0  0  0  0  0  0
  188.0320  177.5860  143.4340 N   0  0  0  0  0  2  0  0  0  0  0  0
  186.8440  177.7830  142.9320 C   0  0  0  0  0  0  0  0  0  0  0  0
  190.4600  177.7320  143.4780 C   0  0  0  0  0  2  0  0  0  0  0  0
  189.2480  177.3130  142.6720 C   0  0  1  0  0  3  0  0  0  0  0  0
  191.5370  176.7270  143.1430 C   0  0  0  0  0  2  0  0  0  0  0  0
  189.3900  175.8180  142.4230 C   0  0  0  0  0  2  0  0  0  0  0  0
  190.7930  175.4370  142.8630 C   0  0  1  0  0  3  0  0  0  0  0  0
  191.5080  174.5680  141.8310 C   0  0  0  0  0  2  0  0  0  0  0  0
  190.5480  173.9490  140.8190 C   0  0  0  0  0  2  0  0  0  0  0  0
  190.8310  171.8160  139.6600 C   0  0  0  0  0  3  0  0  0  0  0  0
  189.2240  171.9200  142.6900 N   0  0  0  0  0  1  0  0  0  0  0  0
  190.9630  170.3920  139.6300 N   0  0  0  0  0  0  0  0  0  0  0  0
  190.6720  172.4620  140.8190 C   0  0  0  0  0  0  0  0  0  0  0  0
  190.8130  170.2340  142.0170 C   0  0  0  0  0  3  0  0  0  0  0  0
  190.5480  171.7140  142.1280 C   0  0  0  0  0  0  0  0  0  0  0  0
  190.9880  169.6320  140.8410 C   0  0  0  0  0  3  0  0  0  0  0  0
  186.1640  178.0040  145.2080 O   0  0  0  0  0  0  0  0  0  0  0  0
  187.8050  177.0150  146.6000 C   0  0  1  0  0  3  0  0  0  0  0  0
  186.5040  176.8250  145.9280 C   0  0  1  0  0  3  0  0  0  0  0  0
  186.5910  177.1310  147.2980 O   0  0  0  0  0  0  0  0  0  0  0  0
  188.4220  175.6640  146.9030 C   0  0  0  0  0  2  0  0  0  0  0  0
  191.9390  175.2420  146.4620 N   0  0  0  0  0  0  0  0  0  0  0  0
  189.9060  175.7560  146.8240 C   0  0  0  0  0  0  0  0  0  0  0  0
  190.7000  174.8060  146.3060 N   0  0  0  0  0  0  0  0  0  0  0  0
  191.9580  176.4220  147.0650 N   0  0  0  0  0  2  0  0  0  0  0  0
  190.6830  176.7800  147.3160 C   0  0  0  0  0  3  0  0  0  0  0  0
  1  3  1  0  0  0  0
  2  1  2  0  0  0  0
  3  7  2  0  0  0  0
  4 24  1  0  0  0  0
  5  1  1  0  0  0  0
  5  6  2  0  0  0  0
  6  9  1  0  0  0  0
  7  4  1  0  0  0  0
  9  8  1  0  0  0  0
  9  4  2  0  0  0  0
 11  8  1  1  0  0  0
 11 10  1  0  0  0  0
 12 10  1  0  0  0  0
 13 11  1  0  0  0  0
 13 14  1  0  0  0  0
 14 15  1  6  0  0  0
 14 12  1  0  0  0  0
 16 15  1  0  0  0  0
 17 20  1  0  0  0  0
 19 17  2  0  0  0  0
 19 23  1  0  0  0  0
 20 16  1  0  0  0  0
 20 22  2  0  0  0  0
 21 22  1  0  0  0  0
 22 18  1  0  0  0  0
 23 21  2  0  0  0  0
 25 28  1  1  0  0  0
 25 27  1  0  0  0  0
 26 24  1  6  0  0  0
 26 25  1  0  0  0  0
 26 27  1  0  0  0  0
 29 32  1  0  0  0  0
 30 28  1  0  0  0  0
 30 33  2  0  0  0  0
 31 29  2  0  0  0  0
 31 30  1  0  0  0  0
 32 33  1  0  0  0  0
M  END
>  <MODEL>
7

>  <REMARK>
 VINA RESULT:      -6.7      2.977      7.294
  Name = 
  8 active torsions:
  status: ('A' for Active; 'I' for Inactive)
    1  A    between atoms: C_6  and  C_25
    2  A    between atoms: C_9  and  C_29
    3  A    between atoms: C_11  and  O_22
    4  A    between atoms: C_13  and  O_22
    5  A    between atoms: C_14  and  C_25
    6  A    between atoms: C_15  and  C_29
    7  A    between atoms: C_15  and  C_32
    8  A    between atoms: C_17  and  N_31
                            x       y       z     vdW  Elec       q    Type
                         _______ _______ _______ _____ _____    ______ ____

>  <TORSDO>
F 8

$$$$
=
 OpenBabel11042415023D

 33 37  0  0  1  0  0  0  0  0999 V2000
  196.2680  173.8240  145.7420 C   0  0  0  0  0  0  0  0  0  0  0  0
  197.3900  173.7860  146.3100 O   0  0  0  0  0  0  0  0  0  0  0  0
  196.0300  172.9380  144.7520 N   0  0  0  0  0  0  0  0  0  0  0  0
  193.7140  173.3820  143.9350 C   0  0  2  0  0  3  0  0  0  0  0  0
  195.3700  174.7760  146.1830 C   0  0  0  0  0  2  0  0  0  0  0  0
  194.0860  175.0420  145.7510 C   0  0  0  0  0  3  0  0  0  0  0  0
  194.9510  172.7260  143.9650 C   0  0  0  0  0  3  0  0  0  0  0  0
  192.1050  174.9130  144.5570 N   0  0  0  0  0  2  0  0  0  0  0  0
  193.3080  174.4480  144.7550 C   0  0  0  0  0  0  0  0  0  0  0  0
  191.2860  177.1980  144.3900 C   0  0  0  0  0  2  0  0  0  0  0  0
  191.4750  176.0000  145.3000 C   0  0  1  0  0  3  0  0  0  0  0  0
  189.9900  177.8390  144.8290 C   0  0  0  0  0  2  0  0  0  0  0  0
  190.0860  175.5880  145.7650 C   0  0  0  0  0  2  0  0  0  0  0  0
  189.1370  176.6910  145.3290 C   0  0  1  0  0  3  0  0  0  0  0  0
  188.1920  177.1180  146.4500 C   0  0  0  0  0  2  0  0  0  0  0  0
  186.8230  176.4510  146.3480 C   0  0  0  0  0  2  0  0  0  0  0  0
  184.8060  177.8230  146.5080 C   0  0  0  0  0  3  0  0  0  0  0  0
  185.8080  176.5960  143.4640 N   0  0  0  0  0  1  0  0  0  0  0  0
  183.8390  178.7300  145.9710 N   0  0  0  0  0  0  0  0  0  0  0  0
  185.8240  177.3890  145.7580 C   0  0  0  0  0  0  0  0  0  0  0  0
  184.9590  178.8200  143.8550 C   0  0  0  0  0  3  0  0  0  0  0  0
  185.9500  177.7750  144.3010 C   0  0  0  0  0  0  0  0  0  0  0  0
  183.9710  179.2410  144.6430 C   0  0  0  0  0  3  0  0  0  0  0  0
  192.7720  172.9330  142.9920 O   0  0  0  0  0  0  0  0  0  0  0  0
  191.7990  173.7520  140.9940 C   0  0  1  0  0  3  0  0  0  0  0  0
  192.9500  173.0390  141.5840 C   0  0  1  0  0  3  0  0  0  0  0  0
  193.0240  174.3970  141.2300 O   0  0  0  0  0  0  0  0  0  0  0  0
  191.6940  173.4140  139.5200 C   0  0  0  0  0  2  0  0  0  0  0  0
  188.1850  172.8670  139.1630 N   0  0  0  0  0  0  0  0  0  0  0  0
  190.2630  173.3260  139.1210 C   0  0  0  0  0  0  0  0  0  0  0  0
  189.2920  172.8000  139.8840 N   0  0  0  0  0  2  0  0  0  0  0  0
  188.4200  173.4050  137.9760 N   0  0  0  0  0  0  0  0  0  0  0  0
  189.7320  173.7060  137.9090 C   0  0  0  0  0  3  0  0  0  0  0  0
  1  5  1  0  0  0  0
  1  2  2  0  0  0  0
  3  1  1  0  0  0  0
  4 24  1  1  0  0  0
  4  7  1  0  0  0  0
  4  9  1  0  0  0  0
  6  5  1  0  0  0  0
  7  3  2  0  0  0  0
  8  9  1  0  0  0  0
  9  6  2  0  0  0  0
 10 12  1  0  0  0  0
 10 11  1  0  0  0  0
 11  8  1  6  0  0  0
 11 13  1  0  0  0  0
 12 14  1  0  0  0  0
 14 13  1  0  0  0  0
 14 15  1  1  0  0  0
 16 15  1  0  0  0  0
 18 22  1  0  0  0  0
 19 17  1  0  0  0  0
 20 16  1  0  0  0  0
 20 17  2  0  0  0  0
 21 22  2  0  0  0  0
 21 23  1  0  0  0  0
 22 20  1  0  0  0  0
 23 19  2  0  0  0  0
 25 28  1  6  0  0  0
 25 27  1  0  0  0  0
 25 26  1  0  0  0  0
 26 24  1  1  0  0  0
 27 26  1  0  0  0  0
 29 31  1  0  0  0  0
 30 28  1  0  0  0  0
 30 31  1  0  0  0  0
 32 29  2  0  0  0  0
 33 32  1  0  0  0  0
 33 30  2  0  0  0  0
M  END
>  <MODEL>
8

>  <REMARK>
 VINA RESULT:      -6.5      2.822      5.747
  Name = 
  8 active torsions:
  status: ('A' for Active; 'I' for Inactive)
    1  A    between atoms: C_6  and  C_25
    2  A    between atoms: C_9  and  C_29
    3  A    between atoms: C_11  and  O_22
    4  A    between atoms: C_13  and  O_22
    5  A    between atoms: C_14  and  C_25
    6  A    between atoms: C_15  and  C_29
    7  A    between atoms: C_15  and  C_32
    8  A    between atoms: C_17  and  N_31
                            x       y       z     vdW  Elec       q    Type
                         _______ _______ _______ _____ _____    ______ ____

>  <TORSDO>
F 8

$$$$
=
 OpenBabel11042415023D

 33 37  0  0  1  0  0  0  0  0999 V2000
  195.4640  170.9160  145.2940 C   0  0  0  0  0  0  0  0  0  0  0  0
  195.6570  169.6760  145.3930 O   0  0  0  0  0  0  0  0  0  0  0  0
  196.5210  171.6980  144.9880 N   0  0  0  0  0  0  0  0  0  0  0  0
  195.6750  174.0440  144.9010 C   0  0  2  0  0  3  0  0  0  0  0  0
  194.1790  171.3740  145.5100 C   0  0  0  0  0  2  0  0  0  0  0  0
  193.6850  172.6630  145.4680 C   0  0  0  0  0  3  0  0  0  0  0  0
  196.6410  173.0330  144.8140 C   0  0  0  0  0  3  0  0  0  0  0  0
  193.5870  174.9650  145.2310 N   0  0  0  0  0  2  0  0  0  0  0  0
  194.3130  173.8800  145.2010 C   0  0  0  0  0  0  0  0  0  0  0  0
  191.9260  175.4530  146.9400 C   0  0  0  0  0  2  0  0  0  0  0  0
  192.1540  175.0280  145.5040 C   0  0  1  0  0  3  0  0  0  0  0  0
  190.6750  176.3010  146.9180 C   0  0  0  0  0  2  0  0  0  0  0  0
  191.4950  176.0840  144.6300 C   0  0  0  0  0  2  0  0  0  0  0  0
  190.6820  176.9700  145.5580 C   0  0  1  0  0  3  0  0  0  0  0  0
  189.2720  177.2230  145.0300 C   0  0  0  0  0  2  0  0  0  0  0  0
  188.2170  176.3910  145.7550 C   0  0  0  0  0  2  0  0  0  0  0  0
  186.3440  177.3110  147.0280 C   0  0  0  0  0  3  0  0  0  0  0  0
  185.9290  176.4870  143.7230 N   0  0  0  0  0  1  0  0  0  0  0  0
  185.1120  178.0300  147.1390 N   0  0  0  0  0  0  0  0  0  0  0  0
  186.9270  177.1370  145.8380 C   0  0  0  0  0  0  0  0  0  0  0  0
  185.0450  178.4650  144.7840 C   0  0  0  0  0  3  0  0  0  0  0  0
  186.2740  177.6220  144.5620 C   0  0  0  0  0  0  0  0  0  0  0  0
  184.5070  178.6300  145.9920 C   0  0  0  0  0  3  0  0  0  0  0  0
  196.1030  175.3620  144.6650 O   0  0  0  0  0  0  0  0  0  0  0  0
  196.0570  176.4140  142.5430 C   0  0  1  0  0  3  0  0  0  0  0  0
  196.9040  175.7470  143.5530 C   0  0  1  0  0  3  0  0  0  0  0  0
  196.8720  177.1470  143.4240 O   0  0  0  0  0  0  0  0  0  0  0  0
  196.7330  176.3450  141.1880 C   0  0  0  0  0  2  0  0  0  0  0  0
  195.1460  174.7300  138.4280 N   0  0  0  0  0  0  0  0  0  0  0  0
  195.8440  175.6550  140.2140 C   0  0  0  0  0  0  0  0  0  0  0  0
  196.2240  175.2520  138.9900 N   0  0  0  0  0  0  0  0  0  0  0  0
  194.1030  174.7950  139.2420 N   0  0  0  0  0  2  0  0  0  0  0  0
  194.5060  175.3820  140.3870 C   0  0  0  0  0  3  0  0  0  0  0  0
  1  2  2  0  0  0  0
  1  5  1  0  0  0  0
  3  1  1  0  0  0  0
  4 24  1  6  0  0  0
  4  9  1  0  0  0  0
  6  5  1  0  0  0  0
  7  4  1  0  0  0  0
  7  3  2  0  0  0  0
  9  8  1  0  0  0  0
  9  6  2  0  0  0  0
 11  8  1  6  0  0  0
 11 10  1  0  0  0  0
 12 10  1  0  0  0  0
 13 11  1  0  0  0  0
 13 14  1  0  0  0  0
 14 15  1  6  0  0  0
 14 12  1  0  0  0  0
 15 16  1  0  0  0  0
 16 20  1  0  0  0  0
 17 19  1  0  0  0  0
 18 22  1  0  0  0  0
 20 17  2  0  0  0  0
 21 23  1  0  0  0  0
 22 21  2  0  0  0  0
 22 20  1  0  0  0  0
 23 19  2  0  0  0  0
 25 28  1  6  0  0  0
 25 27  1  0  0  0  0
 25 26  1  0  0  0  0
 26 24  1  1  0  0  0
 27 26  1  0  0  0  0
 29 31  2  0  0  0  0
 29 32  1  0  0  0  0
 30 33  2  0  0  0  0
 30 28  1  0  0  0  0
 31 30  1  0  0  0  0
 32 33  1  0  0  0  0
M  END
>  <MODEL>
9

>  <REMARK>
 VINA RESULT:      -6.5      3.221      7.055
  Name = 
  8 active torsions:
  status: ('A' for Active; 'I' for Inactive)
    1  A    between atoms: C_6  and  C_25
    2  A    between atoms: C_9  and  C_29
    3  A    between atoms: C_11  and  O_22
    4  A    between atoms: C_13  and  O_22
    5  A    between atoms: C_14  and  C_25
    6  A    between atoms: C_15  and  C_29
    7  A    between atoms: C_15  and  C_32
    8  A    between atoms: C_17  and  N_31
                            x       y       z     vdW  Elec       q    Type
                         _______ _______ _______ _____ _____    ______ ____

>  <TORSDO>
F 8

$$$$
