=
 OpenBabel11042418203D

 35 39  0  0  1  0  0  0  0  0999 V2000
  190.2420  176.5210  145.2360 C   0  0  0  0  0  0  0  0  0  0  0  0
  188.1610  176.0900  142.1980 N   0  0  0  0  0  0  0  0  0  0  0  0
  187.0730  176.7490  141.7580 C   0  0  0  0  0  3  0  0  0  0  0  0
  189.7870  177.6220  146.1340 C   0  0  0  0  0  1  0  0  0  0  0  0
  189.9700  174.5090  142.2720 C   0  0  0  0  0  0  0  0  0  0  0  0
  186.7760  177.7260  142.6970 C   0  0  0  0  0  0  0  0  0  0  0  0
  188.8290  175.0430  141.6140 C   0  0  2  0  0  3  0  0  0  0  0  0
  188.4200  174.5320  140.4480 C   0  0  0  0  0  3  0  0  0  0  0  0
  190.9130  171.6890  139.7390 C   0  0  0  0  0  2  0  0  0  0  0  0
  190.7420  173.3490  141.6940 C   0  0  0  0  0  3  0  0  0  0  0  0
  188.5340  176.6460  143.3710 C   0  0  0  0  0  0  0  0  0  0  0  0
  189.4390  172.3360  136.2150 C   0  0  0  0  0  1  0  0  0  0  0  0
  189.6480  176.1490  144.0420 C   0  0  0  0  0  0  0  0  0  0  0  0
  191.6390  171.1430  137.5320 O   0  0  0  0  0  0  0  0  0  0  0  0
  190.2140  172.8620  140.3700 C   0  0  0  0  0  0  0  0  0  0  0  0
  188.5750  172.8870  138.5020 C   0  0  0  0  0  2  0  0  0  0  0  0
  191.3930  174.8020  144.3510 C   0  0  0  0  0  0  0  0  0  0  0  0
  189.1250  173.4170  139.7970 C   0  0  0  0  0  0  0  0  0  0  0  0
  191.3390  175.6780  145.4350 C   0  0  0  0  0  0  0  0  0  0  0  0
  190.7730  171.7110  138.2480 C   0  0  0  0  0  0  0  0  0  0  0  0
  192.3370  173.7990  144.1590 O   0  0  0  0  0  1  0  0  0  0  0  0
  187.6990  177.6840  143.7330 C   0  0  0  0  0  3  0  0  0  0  0  0
  190.3490  175.0960  143.4950 C   0  0  0  0  0  0  0  0  0  0  0  0
  189.6360  172.3540  137.6540 N   0  0  0  0  0  0  0  0  0  0  0  0
  191.9410  175.1940  147.6850 O   0  0  0  0  0  0  0  0  0  0  0  0
  192.2710  175.7100  146.5850 C   0  0  0  0  0  0  0  0  0  0  0  0
  193.6130  176.3460  146.4730 C   0  0  0  0  0  1  0  0  0  0  0  0
  185.6660  178.7110  142.5820 C   0  0  0  0  0  2  0  0  0  0  0  0
  185.5910  179.7580  144.0690 S   0  0  0  0  0  0  0  0  0  0  0  0
  184.0560  178.9890  144.6770 C   0  0  0  0  0  2  0  0  0  0  0  0
  184.1990  178.5490  146.1260 C   0  0  0  0  0  2  0  0  0  0  0  0
  184.9550  177.2300  146.2280 C   0  0  0  0  0  2  0  0  0  0  0  0
  186.9120  176.3530  147.1580 C   0  0  0  0  0  1  0  0  0  0  0  0
  186.2690  178.5370  147.6410 C   0  0  0  0  0  1  0  0  0  0  0  0
  185.7600  177.1930  147.4380 N   0  0  0  0  0  0  0  0  0  0  0  0
  1 19  1  0  0  0  0
  1  4  1  0  0  0  0
  2 11  1  0  0  0  0
  3  2  1  0  0  0  0
  3  6  2  0  0  0  0
  5 23  2  0  0  0  0
  6 22  1  0  0  0  0
  7  8  1  6  0  0  0
  7  2  1  0  0  0  0
  7  5  1  0  0  0  0
  9 15  1  0  0  0  0
 10  5  1  0  0  0  0
 11 22  2  0  0  0  0
 11 13  1  0  0  0  0
 12 24  1  0  0  0  0
 13  1  2  0  0  0  0
 14 20  2  0  0  0  0
 15 10  2  0  0  0  0
 16 18  1  0  0  0  0
 17 19  2  0  0  0  0
 18 15  1  0  0  0  0
 18  8  2  0  0  0  0
 19 26  1  0  0  0  0
 20  9  1  0  0  0  0
 21 17  1  0  0  0  0
 23 13  1  0  0  0  0
 23 17  1  0  0  0  0
 24 20  1  0  0  0  0
 24 16  1  0  0  0  0
 26 25  2  0  0  0  0
 27 26  1  0  0  0  0
 28  6  1  0  0  0  0
 28 29  1  0  0  0  0
 29 30  1  0  0  0  0
 30 31  1  0  0  0  0
 31 32  1  0  0  0  0
 32 35  1  0  0  0  0
 33 35  1  0  0  0  0
 35 34  1  0  0  0  0
M  END
>  <MODEL>
1

>  <REMARK>
 VINA RESULT:      -7.6      0.000      0.000
  Name = 
  7 active torsions:
  status: ('A' for Active; 'I' for Inactive)
    1  A    between atoms: C_3  and  S_9
    2  A    between atoms: C_3  and  C_13
    3  A    between atoms: C_8  and  C_24
    4  A    between atoms: S_9  and  C_24
    5  A    between atoms: C_11  and  C_30
    6  A    between atoms: C_13  and  C_29
    7  A    between atoms: N_27  and  C_29
                            x       y       z     vdW  Elec       q    Type
                         _______ _______ _______ _____ _____    ______ ____

>  <TORSDO>
F 7

$$$$
=
 OpenBabel11042418203D

 35 39  0  0  1  0  0  0  0  0999 V2000
  187.3900  177.4260  145.9380 C   0  0  0  0  0  0  0  0  0  0  0  0
  190.4680  175.8400  144.6150 N   0  0  0  0  0  0  0  0  0  0  0  0
  191.7050  175.7180  145.1330 C   0  0  0  0  0  3  0  0  0  0  0  0
  187.5550  178.0440  147.2860 C   0  0  0  0  0  1  0  0  0  0  0  0
  188.6280  175.6320  143.0830 C   0  0  0  0  0  0  0  0  0  0  0  0
  191.6970  176.3420  146.3710 C   0  0  0  0  0  0  0  0  0  0  0  0
  189.9880  175.3840  143.4130 C   0  0  0  0  0  0  0  0  0  0  0  0
  190.7790  174.7180  142.5650 C   0  0  0  0  0  3  0  0  0  0  0  0
  188.5030  173.9430  139.5630 C   0  0  0  0  0  2  0  0  0  0  0  0
  188.0390  175.1720  141.7730 C   0  0  0  0  0  3  0  0  0  0  0  0
  189.7120  176.5130  145.5090 C   0  0  0  0  0  0  0  0  0  0  0  0
  191.3440  171.3540  139.0800 C   0  0  0  0  0  1  0  0  0  0  0  0
  188.3750  176.7710  145.2200 C   0  0  2  0  0  3  0  0  0  0  0  0
  188.6840  171.9240  138.3050 O   0  0  0  0  0  0  0  0  0  0  0  0
  189.0050  174.4140  140.9000 C   0  0  0  0  0  0  0  0  0  0  0  0
  191.2550  173.5000  140.3740 C   0  0  0  0  0  2  0  0  0  0  0  0
  186.5220  176.7180  143.9870 C   0  0  0  0  0  0  0  0  0  0  0  0
  190.2850  174.2110  141.2760 C   0  0  0  0  0  0  0  0  0  0  0  0
  186.2230  177.3960  145.1690 C   0  0  0  0  0  0  0  0  0  0  0  0
  189.2390  172.7230  139.1040 C   0  0  0  0  0  0  0  0  0  0  0  0
  185.6370  176.4670  142.9440 O   0  0  0  0  0  1  0  0  0  0  0  0
  190.4330  176.8520  146.6370 C   0  0  0  0  0  3  0  0  0  0  0  0
  187.8490  176.3350  144.0230 C   0  0  0  0  0  0  0  0  0  0  0  0
  190.5810  172.4950  139.5570 N   0  0  0  0  0  0  0  0  0  0  0  0
  184.2530  177.4930  146.4990 O   0  0  0  0  0  0  0  0  0  0  0  0
  184.9130  177.9760  145.5410 C   0  0  0  0  0  0  0  0  0  0  0  0
  184.3440  179.1360  144.8010 C   0  0  0  0  0  1  0  0  0  0  0  0
  192.8560  176.4060  147.3030 C   0  0  0  0  0  2  0  0  0  0  0  0
  194.3280  177.0400  146.4400 S   0  0  0  0  0  0  0  0  0  0  0  0
  195.0220  175.3790  146.1550 C   0  0  0  0  0  2  0  0  0  0  0  0
  195.6660  175.2810  144.7810 C   0  0  0  0  0  2  0  0  0  0  0  0
  195.6470  176.6270  144.0680 C   0  0  0  0  0  2  0  0  0  0  0  0
  197.5680  175.5360  143.3020 C   0  0  0  0  0  1  0  0  0  0  0  0
  196.1710  176.6320  141.7970 C   0  0  0  0  0  1  0  0  0  0  0  0
  196.7500  176.7230  143.1250 N   0  0  0  0  0  0  0  0  0  0  0  0
  1  4  1  0  0  0  0
  2  3  1  0  0  0  0
  2 11  1  0  0  0  0
  3  6  2  0  0  0  0
  5  7  1  0  0  0  0
  5 23  1  0  0  0  0
  6 22  1  0  0  0  0
  6 28  1  0  0  0  0
  7  2  1  0  0  0  0
  8  7  2  0  0  0  0
  9 15  1  0  0  0  0
 10  5  2  0  0  0  0
 11 22  2  0  0  0  0
 12 24  1  0  0  0  0
 13 23  1  6  0  0  0
 13 11  1  0  0  0  0
 13  1  1  0  0  0  0
 14 20  2  0  0  0  0
 15 18  2  0  0  0  0
 15 10  1  0  0  0  0
 16 18  1  0  0  0  0
 17 23  2  0  0  0  0
 17 19  1  0  0  0  0
 18  8  1  0  0  0  0
 19 26  1  0  0  0  0
 19  1  2  0  0  0  0
 20 24  1  0  0  0  0
 20  9  1  0  0  0  0
 21 17  1  0  0  0  0
 24 16  1  0  0  0  0
 26 25  2  0  0  0  0
 27 26  1  0  0  0  0
 29 28  1  0  0  0  0
 30 29  1  0  0  0  0
 31 30  1  0  0  0  0
 32 31  1  0  0  0  0
 34 35  1  0  0  0  0
 35 33  1  0  0  0  0
 35 32  1  0  0  0  0
M  END
>  <MODEL>
2

>  <REMARK>
 VINA RESULT:      -7.4      3.436      6.613
  Name = 
  7 active torsions:
  status: ('A' for Active; 'I' for Inactive)
    1  A    between atoms: C_3  and  S_9
    2  A    between atoms: C_3  and  C_13
    3  A    between atoms: C_8  and  C_24
    4  A    between atoms: S_9  and  C_24
    5  A    between atoms: C_11  and  C_30
    6  A    between atoms: C_13  and  C_29
    7  A    between atoms: N_27  and  C_29
                            x       y       z     vdW  Elec       q    Type
                         _______ _______ _______ _____ _____    ______ ____

>  <TORSDO>
F 7

$$$$
=
 OpenBabel11042418203D

 35 39  0  0  1  0  0  0  0  0999 V2000
  187.3240  177.4550  145.9250 C   0  0  0  0  0  0  0  0  0  0  0  0
  190.4010  175.8700  144.5960 N   0  0  0  0  0  0  0  0  0  0  0  0
  191.6360  175.7400  145.1160 C   0  0  0  0  0  3  0  0  0  0  0  0
  187.4880  178.0620  147.2780 C   0  0  0  0  0  1  0  0  0  0  0  0
  188.5640  175.6820  143.0570 C   0  0  0  0  0  0  0  0  0  0  0  0
  191.6270  176.3530  146.3600 C   0  0  0  0  0  0  0  0  0  0  0  0
  189.9230  175.4270  143.3890 C   0  0  0  0  0  0  0  0  0  0  0  0
  190.7140  174.7650  142.5370 C   0  0  0  0  0  3  0  0  0  0  0  0
  188.4430  174.0240  139.5230 C   0  0  0  0  0  2  0  0  0  0  0  0
  187.9770  175.2350  141.7410 C   0  0  0  0  0  3  0  0  0  0  0  0
  189.6450  176.5390  145.4940 C   0  0  0  0  0  0  0  0  0  0  0  0
  191.2770  171.4300  139.0250 C   0  0  0  0  0  1  0  0  0  0  0  0
  188.3100  176.8030  145.2030 C   0  0  2  0  0  3  0  0  0  0  0  0
  188.6210  172.0140  138.2480 O   0  0  0  0  0  0  0  0  0  0  0  0
  188.9430  174.4810  140.8650 C   0  0  0  0  0  0  0  0  0  0  0  0
  191.1910  173.5640  140.3370 C   0  0  0  0  0  2  0  0  0  0  0  0
  186.4600  176.7680  143.9650 C   0  0  0  0  0  0  0  0  0  0  0  0
  190.2220  174.2700  141.2420 C   0  0  0  0  0  0  0  0  0  0  0  0
  186.1600  177.4360  145.1520 C   0  0  0  0  0  0  0  0  0  0  0  0
  189.1760  172.8050  139.0550 C   0  0  0  0  0  0  0  0  0  0  0  0
  185.5760  176.5280  142.9180 O   0  0  0  0  0  1  0  0  0  0  0  0
  190.3640  176.8650  146.6260 C   0  0  0  0  0  3  0  0  0  0  0  0
  187.7850  176.3790  144.0010 C   0  0  0  0  0  0  0  0  0  0  0  0
  190.5160  172.5690  139.5100 N   0  0  0  0  0  0  0  0  0  0  0  0
  184.2020  177.5490  146.4980 O   0  0  0  0  0  0  0  0  0  0  0  0
  184.8510  178.0170  145.5250 C   0  0  0  0  0  0  0  0  0  0  0  0
  184.2700  179.1610  144.7690 C   0  0  0  0  0  1  0  0  0  0  0  0
  192.7840  176.4050  147.2950 C   0  0  0  0  0  2  0  0  0  0  0  0
  194.2720  176.9960  146.4290 S   0  0  0  0  0  0  0  0  0  0  0  0
  194.9810  175.3260  146.2600 C   0  0  0  0  0  2  0  0  0  0  0  0
  195.5110  175.0950  144.8540 C   0  0  0  0  0  2  0  0  0  0  0  0
  195.4770  173.6160  144.4910 C   0  0  0  0  0  2  0  0  0  0  0  0
  194.5820  171.7010  145.4890 C   0  0  0  0  0  1  0  0  0  0  0  0
  196.8430  172.1960  145.7360 C   0  0  0  0  0  1  0  0  0  0  0  0
  195.5200  172.7920  145.6880 N   0  0  0  0  0  0  0  0  0  0  0  0
  1  4  1  0  0  0  0
  2  3  1  0  0  0  0
  2 11  1  0  0  0  0
  3  6  2  0  0  0  0
  5  7  1  0  0  0  0
  5 23  1  0  0  0  0
  6 22  1  0  0  0  0
  6 28  1  0  0  0  0
  7  2  1  0  0  0  0
  8  7  2  0  0  0  0
  9 15  1  0  0  0  0
 10  5  2  0  0  0  0
 11 22  2  0  0  0  0
 12 24  1  0  0  0  0
 13 23  1  6  0  0  0
 13 11  1  0  0  0  0
 13  1  1  0  0  0  0
 14 20  2  0  0  0  0
 15 18  2  0  0  0  0
 15 10  1  0  0  0  0
 16 18  1  0  0  0  0
 17 23  2  0  0  0  0
 17 19  1  0  0  0  0
 18  8  1  0  0  0  0
 19 26  1  0  0  0  0
 19  1  2  0  0  0  0
 20 24  1  0  0  0  0
 20  9  1  0  0  0  0
 21 17  1  0  0  0  0
 24 16  1  0  0  0  0
 26 25  2  0  0  0  0
 27 26  1  0  0  0  0
 29 28  1  0  0  0  0
 30 29  1  0  0  0  0
 31 30  1  0  0  0  0
 32 31  1  0  0  0  0
 32 35  1  0  0  0  0
 33 35  1  0  0  0  0
 35 34  1  0  0  0  0
M  END
>  <MODEL>
3

>  <REMARK>
 VINA RESULT:      -7.1      3.444      6.527
  Name = 
  7 active torsions:
  status: ('A' for Active; 'I' for Inactive)
    1  A    between atoms: C_3  and  S_9
    2  A    between atoms: C_3  and  C_13
    3  A    between atoms: C_8  and  C_24
    4  A    between atoms: S_9  and  C_24
    5  A    between atoms: C_11  and  C_30
    6  A    between atoms: C_13  and  C_29
    7  A    between atoms: N_27  and  C_29
                            x       y       z     vdW  Elec       q    Type
                         _______ _______ _______ _____ _____    ______ ____

>  <TORSDO>
F 7

$$$$
=
 OpenBabel11042418203D

 35 39  0  0  1  0  0  0  0  0999 V2000
  194.1580  175.3800  145.2920 C   0  0  0  0  0  0  0  0  0  0  0  0
  190.6520  175.6140  144.1130 N   0  0  0  0  0  0  0  0  0  0  0  0
  189.5540  176.1580  144.6710 C   0  0  0  0  0  3  0  0  0  0  0  0
  194.3920  175.9960  146.6310 C   0  0  0  0  0  1  0  0  0  0  0  0
  192.0560  174.4880  142.5190 C   0  0  0  0  0  0  0  0  0  0  0  0
  189.9320  176.6780  145.9000 C   0  0  0  0  0  0  0  0  0  0  0  0
  190.7780  174.9810  142.9020 C   0  0  0  0  0  0  0  0  0  0  0  0
  189.7250  174.8300  142.0920 C   0  0  0  0  0  3  0  0  0  0  0  0
  191.1380  172.9460  139.0500 C   0  0  0  0  0  2  0  0  0  0  0  0
  192.2630  173.7700  141.2090 C   0  0  0  0  0  3  0  0  0  0  0  0
  191.6820  175.7970  144.9660 C   0  0  0  0  0  0  0  0  0  0  0  0
  187.8810  174.4560  137.5930 C   0  0  0  0  0  1  0  0  0  0  0  0
  192.9480  175.3290  144.6220 C   0  0  2  0  0  3  0  0  0  0  0  0
  190.3640  173.3390  136.8270 O   0  0  0  0  0  0  0  0  0  0  0  0
  191.0210  173.6710  140.3620 C   0  0  0  0  0  0  0  0  0  0  0  0
  188.5940  174.0130  139.9550 C   0  0  0  0  0  2  0  0  0  0  0  0
  194.4540  174.3260  143.3270 C   0  0  0  0  0  0  0  0  0  0  0  0
  189.8380  174.1650  140.7840 C   0  0  0  0  0  0  0  0  0  0  0  0
  195.1090  174.7510  144.4830 C   0  0  0  0  0  0  0  0  0  0  0  0
  190.1330  173.4470  138.0600 C   0  0  0  0  0  0  0  0  0  0  0  0
  195.0390  173.6540  142.2580 O   0  0  0  0  0  1  0  0  0  0  0  0
  191.2890  176.4650  146.1080 C   0  0  0  0  0  3  0  0  0  0  0  0
  193.1230  174.6850  143.4170 C   0  0  0  0  0  0  0  0  0  0  0  0
  188.9030  174.0190  138.5280 N   0  0  0  0  0  0  0  0  0  0  0  0
  197.4220  175.1750  144.1250 O   0  0  0  0  0  0  0  0  0  0  0  0
  196.5440  174.5700  144.7960 C   0  0  0  0  0  0  0  0  0  0  0  0
  196.9870  173.6760  145.9010 C   0  0  0  0  0  1  0  0  0  0  0  0
  189.0300  177.4050  146.8340 C   0  0  0  0  0  2  0  0  0  0  0  0
  187.3190  176.8110  146.6540 S   0  0  0  0  0  0  0  0  0  0  0  0
  186.5980  178.2860  147.4440 C   0  0  0  0  0  2  0  0  0  0  0  0
  185.5990  178.9680  146.5230 C   0  0  0  0  0  2  0  0  0  0  0  0
  184.8150  177.9480  145.7080 C   0  0  0  0  0  2  0  0  0  0  0  0
  185.2920  179.7000  144.2360 C   0  0  0  0  0  1  0  0  0  0  0  0
  185.2710  177.5030  143.4660 C   0  0  0  0  0  1  0  0  0  0  0  0
  184.5950  178.4310  144.3540 N   0  0  0  0  0  0  0  0  0  0  0  0
  1  4  1  0  0  0  0
  2  3  1  0  0  0  0
  2 11  1  0  0  0  0
  3  6  2  0  0  0  0
  5  7  1  0  0  0  0
  5 23  1  0  0  0  0
  6 22  1  0  0  0  0
  6 28  1  0  0  0  0
  7  2  1  0  0  0  0
  8  7  2  0  0  0  0
  9 15  1  0  0  0  0
 10  5  2  0  0  0  0
 11 22  2  0  0  0  0
 12 24  1  0  0  0  0
 13 23  1  1  0  0  0
 13 11  1  0  0  0  0
 13  1  1  0  0  0  0
 14 20  2  0  0  0  0
 15 18  2  0  0  0  0
 15 10  1  0  0  0  0
 16 18  1  0  0  0  0
 17 23  2  0  0  0  0
 17 19  1  0  0  0  0
 18  8  1  0  0  0  0
 19 26  1  0  0  0  0
 19  1  2  0  0  0  0
 20 24  1  0  0  0  0
 20  9  1  0  0  0  0
 21 17  1  0  0  0  0
 24 16  1  0  0  0  0
 25 26  2  0  0  0  0
 26 27  1  0  0  0  0
 29 28  1  0  0  0  0
 29 30  1  0  0  0  0
 31 30  1  0  0  0  0
 32 31  1  0  0  0  0
 33 35  1  0  0  0  0
 34 35  1  0  0  0  0
 35 32  1  0  0  0  0
M  END
>  <MODEL>
4

>  <REMARK>
 VINA RESULT:      -7.0      2.294      3.516
  Name = 
  7 active torsions:
  status: ('A' for Active; 'I' for Inactive)
    1  A    between atoms: C_3  and  S_9
    2  A    between atoms: C_3  and  C_13
    3  A    between atoms: C_8  and  C_24
    4  A    between atoms: S_9  and  C_24
    5  A    between atoms: C_11  and  C_30
    6  A    between atoms: C_13  and  C_29
    7  A    between atoms: N_27  and  C_29
                            x       y       z     vdW  Elec       q    Type
                         _______ _______ _______ _____ _____    ______ ____

>  <TORSDO>
F 7

$$$$
=
 OpenBabel11042418203D

 35 39  0  0  1  0  0  0  0  0999 V2000
  191.0400  174.3190  141.4230 C   0  0  0  0  0  0  0  0  0  0  0  0
  191.1790  176.3080  144.5490 N   0  0  0  0  0  0  0  0  0  0  0  0
  192.2170  176.7970  145.2530 C   0  0  0  0  0  3  0  0  0  0  0  0
  192.3780  174.0010  140.8450 C   0  0  0  0  0  1  0  0  0  0  0  0
  188.9150  175.8200  143.9020 C   0  0  0  0  0  0  0  0  0  0  0  0
  193.3760  176.4140  144.5960 C   0  0  0  0  0  0  0  0  0  0  0  0
  189.8350  176.4250  144.8020 C   0  0  0  0  0  0  0  0  0  0  0  0
  189.3920  177.0940  145.8720 C   0  0  0  0  0  3  0  0  0  0  0  0
  185.5640  176.7920  145.6560 C   0  0  0  0  0  2  0  0  0  0  0  0
  187.4260  175.8960  144.1270 C   0  0  0  0  0  3  0  0  0  0  0  0
  191.6780  175.6470  143.4830 C   0  0  0  0  0  0  0  0  0  0  0  0
  185.9770  179.8340  148.0190 C   0  0  0  0  0  1  0  0  0  0  0  0
  190.8070  175.0450  142.5790 C   0  0  2  0  0  3  0  0  0  0  0  0
  184.0990  178.5470  146.3400 O   0  0  0  0  0  0  0  0  0  0  0  0
  187.0310  176.6900  145.3460 C   0  0  0  0  0  0  0  0  0  0  0  0
  187.5530  177.9850  147.4010 C   0  0  0  0  0  2  0  0  0  0  0  0
  188.8200  174.4580  141.7650 C   0  0  0  0  0  0  0  0  0  0  0  0
  187.9570  177.2420  146.1590 C   0  0  0  0  0  0  0  0  0  0  0  0
  189.7950  173.9480  140.9070 C   0  0  0  0  0  0  0  0  0  0  0  0
  185.2530  178.0480  146.4090 C   0  0  0  0  0  0  0  0  0  0  0  0
  187.4450  174.3140  141.6140 O   0  0  0  0  0  1  0  0  0  0  0  0
  193.0580  175.6840  143.4580 C   0  0  0  0  0  3  0  0  0  0  0  0
  189.4480  175.1340  142.7930 C   0  0  0  0  0  0  0  0  0  0  0  0
  186.2660  178.6510  147.2260 N   0  0  0  0  0  0  0  0  0  0  0  0
  189.8410  171.9330  139.6440 O   0  0  0  0  0  0  0  0  0  0  0  0
  189.5560  173.1590  139.6780 C   0  0  0  0  0  0  0  0  0  0  0  0
  188.9780  173.7870  138.4570 C   0  0  0  0  0  1  0  0  0  0  0  0
  194.7570  176.7800  145.0170 C   0  0  0  0  0  2  0  0  0  0  0  0
  195.9570  175.5740  144.3720 S   0  0  0  0  0  0  0  0  0  0  0  0
  195.7290  174.4230  145.7650 C   0  0  0  0  0  2  0  0  0  0  0  0
  195.3570  173.0330  145.2740 C   0  0  0  0  0  2  0  0  0  0  0  0
  193.8690  172.7640  145.4590 C   0  0  0  0  0  2  0  0  0  0  0  0
  192.0380  171.9440  144.2580 C   0  0  0  0  0  1  0  0  0  0  0  0
  194.1780  171.8210  143.3500 C   0  0  0  0  0  1  0  0  0  0  0  0
  193.4300  171.6870  144.5860 N   0  0  0  0  0  0  0  0  0  0  0  0
  2  7  1  0  0  0  0
  2  3  1  0  0  0  0
  4  1  1  0  0  0  0
  5 10  2  0  0  0  0
  5  7  1  0  0  0  0
  6 28  1  0  0  0  0
  6  3  2  0  0  0  0
  7  8  2  0  0  0  0
  8 18  1  0  0  0  0
  9 20  1  0  0  0  0
 10 15  1  0  0  0  0
 11  2  1  0  0  0  0
 13  1  1  1  0  0  0
 13 23  1  0  0  0  0
 13 11  1  0  0  0  0
 14 20  2  0  0  0  0
 15  9  1  0  0  0  0
 15 18  2  0  0  0  0
 17 23  2  0  0  0  0
 18 16  1  0  0  0  0
 19  1  2  0  0  0  0
 19 17  1  0  0  0  0
 20 24  1  0  0  0  0
 21 17  1  0  0  0  0
 22 11  2  0  0  0  0
 22  6  1  0  0  0  0
 23  5  1  0  0  0  0
 24 16  1  0  0  0  0
 24 12  1  0  0  0  0
 25 26  2  0  0  0  0
 26 19  1  0  0  0  0
 27 26  1  0  0  0  0
 29 28  1  0  0  0  0
 29 30  1  0  0  0  0
 31 32  1  0  0  0  0
 31 30  1  0  0  0  0
 33 35  1  0  0  0  0
 34 35  1  0  0  0  0
 35 32  1  0  0  0  0
M  END
>  <MODEL>
5

>  <REMARK>
 VINA RESULT:      -6.9      3.426      8.434
  Name = 
  7 active torsions:
  status: ('A' for Active; 'I' for Inactive)
    1  A    between atoms: C_3  and  S_9
    2  A    between atoms: C_3  and  C_13
    3  A    between atoms: C_8  and  C_24
    4  A    between atoms: S_9  and  C_24
    5  A    between atoms: C_11  and  C_30
    6  A    between atoms: C_13  and  C_29
    7  A    between atoms: N_27  and  C_29
                            x       y       z     vdW  Elec       q    Type
                         _______ _______ _______ _____ _____    ______ ____

>  <TORSDO>
F 7

$$$$
=
 OpenBabel11042418203D

 35 39  0  0  1  0  0  0  0  0999 V2000
  191.0500  173.3850  140.7180 C   0  0  0  0  0  0  0  0  0  0  0  0
  190.5490  174.5070  144.2150 N   0  0  0  0  0  0  0  0  0  0  0  0
  191.3090  174.3670  145.3180 C   0  0  0  0  0  3  0  0  0  0  0  0
  192.3230  172.6380  140.4950 C   0  0  0  0  0  1  0  0  0  0  0  0
  188.7220  175.1620  142.7970 C   0  0  0  0  0  0  0  0  0  0  0  0
  192.4400  173.6540  144.9500 C   0  0  0  0  0  0  0  0  0  0  0  0
  189.3380  175.1380  144.0780 C   0  0  0  0  0  0  0  0  0  0  0  0
  188.7450  175.7220  145.1250 C   0  0  0  0  0  3  0  0  0  0  0  0
  185.4670  177.1310  143.6860 C   0  0  0  0  0  2  0  0  0  0  0  0
  187.3840  175.8250  142.5790 C   0  0  0  0  0  3  0  0  0  0  0  0
  191.1930  173.9060  143.1920 C   0  0  0  0  0  0  0  0  0  0  0  0
  185.8550  179.2100  146.9320 C   0  0  0  0  0  1  0  0  0  0  0  0
  190.6190  173.9130  141.9230 C   0  0  2  0  0  3  0  0  0  0  0  0
  184.5140  179.1840  144.4420 O   0  0  0  0  0  0  0  0  0  0  0  0
  186.8120  176.4700  143.8140 C   0  0  0  0  0  0  0  0  0  0  0  0
  186.8460  177.0140  146.2380 C   0  0  0  0  0  2  0  0  0  0  0  0
  189.0640  174.3920  140.4050 C   0  0  0  0  0  0  0  0  0  0  0  0
  187.4520  176.4130  145.0010 C   0  0  0  0  0  0  0  0  0  0  0  0
  190.0770  173.6830  139.7610 C   0  0  0  0  0  0  0  0  0  0  0  0
  185.3070  178.2360  144.6830 C   0  0  0  0  0  0  0  0  0  0  0  0
  187.9040  174.8810  139.8110 O   0  0  0  0  0  1  0  0  0  0  0  0
  192.3920  173.3540  143.5950 C   0  0  0  0  0  3  0  0  0  0  0  0
  189.4020  174.5320  141.7370 C   0  0  0  0  0  0  0  0  0  0  0  0
  186.0370  178.1860  145.9170 N   0  0  0  0  0  0  0  0  0  0  0  0
  190.7260  174.0410  137.5000 O   0  0  0  0  0  0  0  0  0  0  0  0
  190.1150  173.3140  138.3270 C   0  0  0  0  0  0  0  0  0  0  0  0
  189.4380  172.0850  137.8280 C   0  0  0  0  0  1  0  0  0  0  0  0
  193.5660  173.3100  145.8610 C   0  0  0  0  0  2  0  0  0  0  0  0
  195.1400  173.9230  145.1830 S   0  0  0  0  0  0  0  0  0  0  0  0
  194.9500  175.5770  145.9210 C   0  0  0  0  0  2  0  0  0  0  0  0
  195.0240  176.6630  144.8590 C   0  0  0  0  0  2  0  0  0  0  0  0
  195.2970  176.0700  143.4830 C   0  0  0  0  0  2  0  0  0  0  0  0
  197.5880  175.9440  143.0380 C   0  0  0  0  0  1  0  0  0  0  0  0
  196.1270  176.7440  141.4120 C   0  0  0  0  0  1  0  0  0  0  0  0
  196.4030  176.7580  142.8370 N   0  0  0  0  0  0  0  0  0  0  0  0
  2  3  1  0  0  0  0
  4  1  1  0  0  0  0
  5  7  1  0  0  0  0
  6  3  2  0  0  0  0
  6 28  1  0  0  0  0
  7  2  1  0  0  0  0
  7  8  2  0  0  0  0
  9 15  1  0  0  0  0
  9 20  1  0  0  0  0
 10  5  2  0  0  0  0
 10 15  1  0  0  0  0
 11 22  2  0  0  0  0
 11  2  1  0  0  0  0
 13  1  1  1  0  0  0
 13 11  1  0  0  0  0
 14 20  2  0  0  0  0
 15 18  2  0  0  0  0
 17 23  2  0  0  0  0
 18  8  1  0  0  0  0
 18 16  1  0  0  0  0
 19 17  1  0  0  0  0
 19  1  2  0  0  0  0
 20 24  1  0  0  0  0
 21 17  1  0  0  0  0
 22  6  1  0  0  0  0
 23 13  1  0  0  0  0
 23  5  1  0  0  0  0
 24 16  1  0  0  0  0
 24 12  1  0  0  0  0
 25 26  2  0  0  0  0
 26 19  1  0  0  0  0
 27 26  1  0  0  0  0
 29 28  1  0  0  0  0
 29 30  1  0  0  0  0
 31 30  1  0  0  0  0
 32 31  1  0  0  0  0
 34 35  1  0  0  0  0
 35 33  1  0  0  0  0
 35 32  1  0  0  0  0
M  END
>  <MODEL>
6

>  <REMARK>
 VINA RESULT:      -6.9      3.635      8.471
  Name = 
  7 active torsions:
  status: ('A' for Active; 'I' for Inactive)
    1  A    between atoms: C_3  and  S_9
    2  A    between atoms: C_3  and  C_13
    3  A    between atoms: C_8  and  C_24
    4  A    between atoms: S_9  and  C_24
    5  A    between atoms: C_11  and  C_30
    6  A    between atoms: C_13  and  C_29
    7  A    between atoms: N_27  and  C_29
                            x       y       z     vdW  Elec       q    Type
                         _______ _______ _______ _____ _____    ______ ____

>  <TORSDO>
F 7

$$$$
=
 OpenBabel11042418203D

 35 39  0  0  1  0  0  0  0  0999 V2000
  191.5910  174.9410  144.5620 C   0  0  0  0  0  0  0  0  0  0  0  0
  189.1240  175.1520  141.8030 N   0  0  0  0  0  0  0  0  0  0  0  0
  189.0400  174.5030  140.6260 C   0  0  0  0  0  3  0  0  0  0  0  0
  192.6920  173.9640  144.3200 C   0  0  0  0  0  1  0  0  0  0  0  0
  188.5750  176.6430  143.6070 C   0  0  0  0  0  0  0  0  0  0  0  0
  190.1270  173.6450  140.5510 C   0  0  0  0  0  0  0  0  0  0  0  0
  188.2790  176.0980  142.3270 C   0  0  1  0  0  3  0  0  0  0  0  0
  187.1980  176.5040  141.6530 C   0  0  0  0  0  3  0  0  0  0  0  0
  185.5850  179.1330  143.9510 C   0  0  0  0  0  2  0  0  0  0  0  0
  187.6980  177.6980  144.2360 C   0  0  0  0  0  3  0  0  0  0  0  0
  190.2260  174.7040  142.4430 C   0  0  0  0  0  0  0  0  0  0  0  0
  182.6230  178.1920  141.6380 C   0  0  0  0  0  1  0  0  0  0  0  0
  190.5430  175.2140  143.6990 C   0  0  0  0  0  0  0  0  0  0  0  0
  183.2210  179.4090  144.1200 O   0  0  0  0  0  0  0  0  0  0  0  0
  186.4960  178.0680  143.4060 C   0  0  0  0  0  0  0  0  0  0  0  0
  185.1000  177.9260  141.3560 C   0  0  0  0  0  2  0  0  0  0  0  0
  190.2640  176.5010  145.4930 C   0  0  0  0  0  0  0  0  0  0  0  0
  186.2730  177.5090  142.1980 C   0  0  0  0  0  0  0  0  0  0  0  0
  191.4200  175.7460  145.6910 C   0  0  0  0  0  0  0  0  0  0  0  0
  184.1860  178.9620  143.4460 C   0  0  0  0  0  0  0  0  0  0  0  0
  189.7340  177.4310  146.3810 O   0  0  0  0  0  1  0  0  0  0  0  0
  190.8950  173.7510  141.7020 C   0  0  0  0  0  3  0  0  0  0  0  0
  189.7270  176.1690  144.2640 C   0  0  0  0  0  0  0  0  0  0  0  0
  183.9630  178.3160  142.1850 N   0  0  0  0  0  0  0  0  0  0  0  0
  191.9350  175.2710  147.9650 O   0  0  0  0  0  0  0  0  0  0  0  0
  192.3040  175.7900  146.8780 C   0  0  0  0  0  0  0  0  0  0  0  0
  193.6410  176.4430  146.8220 C   0  0  0  0  0  1  0  0  0  0  0  0
  190.3980  172.7080  139.4260 C   0  0  0  0  0  2  0  0  0  0  0  0
  192.1800  172.3550  139.3120 S   0  0  0  0  0  0  0  0  0  0  0  0
  192.5560  173.9160  138.4520 C   0  0  0  0  0  2  0  0  0  0  0  0
  193.8450  174.5320  138.9700 C   0  0  0  0  0  2  0  0  0  0  0  0
  194.3010  173.8540  140.2560 C   0  0  0  0  0  2  0  0  0  0  0  0
  196.0680  175.3830  140.1880 C   0  0  0  0  0  1  0  0  0  0  0  0
  194.1910  175.8270  141.4910 C   0  0  0  0  0  1  0  0  0  0  0  0
  195.0880  174.7680  141.0670 N   0  0  0  0  0  0  0  0  0  0  0  0
  1 19  1  0  0  0  0
  2  7  1  0  0  0  0
  2 11  1  0  0  0  0
  3  2  1  0  0  0  0
  4  1  1  0  0  0  0
  5 10  1  0  0  0  0
  5 23  2  0  0  0  0
  6  3  2  0  0  0  0
  6 22  1  0  0  0  0
  7  8  1  6  0  0  0
  7  5  1  0  0  0  0
  8 18  2  0  0  0  0
 11 13  1  0  0  0  0
 12 24  1  0  0  0  0
 13 23  1  0  0  0  0
 13  1  2  0  0  0  0
 15  9  1  0  0  0  0
 15 10  2  0  0  0  0
 16 24  1  0  0  0  0
 16 18  1  0  0  0  0
 17 19  2  0  0  0  0
 17 21  1  0  0  0  0
 18 15  1  0  0  0  0
 19 26  1  0  0  0  0
 20  9  1  0  0  0  0
 20 14  2  0  0  0  0
 22 11  2  0  0  0  0
 23 17  1  0  0  0  0
 24 20  1  0  0  0  0
 26 25  2  0  0  0  0
 27 26  1  0  0  0  0
 28  6  1  0  0  0  0
 29 28  1  0  0  0  0
 30 31  1  0  0  0  0
 30 29  1  0  0  0  0
 31 32  1  0  0  0  0
 32 35  1  0  0  0  0
 33 35  1  0  0  0  0
 35 34  1  0  0  0  0
M  END
>  <MODEL>
7

>  <REMARK>
 VINA RESULT:      -6.7      3.496      7.418
  Name = 
  7 active torsions:
  status: ('A' for Active; 'I' for Inactive)
    1  A    between atoms: C_3  and  S_9
    2  A    between atoms: C_3  and  C_13
    3  A    between atoms: C_8  and  C_24
    4  A    between atoms: S_9  and  C_24
    5  A    between atoms: C_11  and  C_30
    6  A    between atoms: C_13  and  C_29
    7  A    between atoms: N_27  and  C_29
                            x       y       z     vdW  Elec       q    Type
                         _______ _______ _______ _____ _____    ______ ____

>  <TORSDO>
F 7

$$$$
=
 OpenBabel11042418203D

 35 39  0  0  1  0  0  0  0  0999 V2000
  185.6720  178.1530  145.5510 C   0  0  0  0  0  0  0  0  0  0  0  0
  186.2870  176.9570  142.0960 N   0  0  0  0  0  0  0  0  0  0  0  0
  185.6560  177.2140  140.9350 C   0  0  0  0  0  3  0  0  0  0  0  0
  184.5130  179.0830  145.6760 C   0  0  0  0  0  1  0  0  0  0  0  0
  187.8760  176.0450  143.6520 C   0  0  0  0  0  0  0  0  0  0  0  0
  184.6100  178.0790  141.2180 C   0  0  0  0  0  0  0  0  0  0  0  0
  187.3790  176.1580  142.3250 C   0  0  2  0  0  3  0  0  0  0  0  0
  187.9690  175.4970  141.3230 C   0  0  0  0  0  3  0  0  0  0  0  0
  190.8400  173.5810  143.0200 C   0  0  0  0  0  2  0  0  0  0  0  0
  189.0640  175.1730  143.9770 C   0  0  0  0  0  3  0  0  0  0  0  0
  185.6560  177.6480  143.0700 C   0  0  0  0  0  0  0  0  0  0  0  0
  191.9800  173.5820  139.3170 C   0  0  0  0  0  1  0  0  0  0  0  0
  186.1180  177.5630  144.3800 C   0  0  0  0  0  0  0  0  0  0  0  0
  192.9420  173.2110  141.9510 O   0  0  0  0  0  0  0  0  0  0  0  0
  189.6680  174.4900  142.7770 C   0  0  0  0  0  0  0  0  0  0  0  0
  189.7250  173.9150  140.3600 C   0  0  0  0  0  2  0  0  0  0  0  0
  187.4550  176.8610  146.0150 C   0  0  0  0  0  0  0  0  0  0  0  0
  189.1470  174.6430  141.5410 C   0  0  0  0  0  0  0  0  0  0  0  0
  186.5090  177.7160  146.5820 C   0  0  0  0  0  0  0  0  0  0  0  0
  191.7230  173.4980  141.8140 C   0  0  0  0  0  0  0  0  0  0  0  0
  188.4760  176.2080  146.6980 O   0  0  0  0  0  1  0  0  0  0  0  0
  184.5930  178.3770  142.5740 C   0  0  0  0  0  3  0  0  0  0  0  0
  187.2100  176.7710  144.6590 C   0  0  0  0  0  0  0  0  0  0  0  0
  191.1630  173.7180  140.5110 N   0  0  0  0  0  0  0  0  0  0  0  0
  185.7730  177.3600  148.8160 O   0  0  0  0  0  0  0  0  0  0  0  0
  186.4080  178.0900  148.0100 C   0  0  0  0  0  0  0  0  0  0  0  0
  187.0510  179.3290  148.5310 C   0  0  0  0  0  1  0  0  0  0  0  0
  183.6770  178.6500  140.2070 C   0  0  0  0  0  2  0  0  0  0  0  0
  182.0640  177.8100  140.2880 S   0  0  0  0  0  0  0  0  0  0  0  0
  181.3590  179.0200  141.4530 C   0  0  0  0  0  2  0  0  0  0  0  0
  179.9440  179.4070  141.0520 C   0  0  0  0  0  2  0  0  0  0  0  0
  179.9450  180.6300  140.1430 C   0  0  0  0  0  2  0  0  0  0  0  0
  178.7690  181.6730  138.4140 C   0  0  0  0  0  1  0  0  0  0  0  0
  178.0760  179.5980  139.2080 C   0  0  0  0  0  1  0  0  0  0  0  0
  178.6120  180.8820  139.6220 N   0  0  0  0  0  0  0  0  0  0  0  0
  1  4  1  0  0  0  0
  1 19  1  0  0  0  0
  2  7  1  0  0  0  0
  2 11  1  0  0  0  0
  3  6  2  0  0  0  0
  3  2  1  0  0  0  0
  5 10  1  0  0  0  0
  5 23  2  0  0  0  0
  6 22  1  0  0  0  0
  7  8  1  6  0  0  0
  7  5  1  0  0  0  0
  8 18  2  0  0  0  0
 11 13  1  0  0  0  0
 12 24  1  0  0  0  0
 13 23  1  0  0  0  0
 13  1  2  0  0  0  0
 15  9  1  0  0  0  0
 15 10  2  0  0  0  0
 16 24  1  0  0  0  0
 16 18  1  0  0  0  0
 17 19  2  0  0  0  0
 17 21  1  0  0  0  0
 18 15  1  0  0  0  0
 19 26  1  0  0  0  0
 20 14  2  0  0  0  0
 20  9  1  0  0  0  0
 22 11  2  0  0  0  0
 23 17  1  0  0  0  0
 24 20  1  0  0  0  0
 26 27  1  0  0  0  0
 26 25  2  0  0  0  0
 28 29  1  0  0  0  0
 28  6  1  0  0  0  0
 29 30  1  0  0  0  0
 31 30  1  0  0  0  0
 32 31  1  0  0  0  0
 33 35  1  0  0  0  0
 34 35  1  0  0  0  0
 35 32  1  0  0  0  0
M  END
>  <MODEL>
8

>  <REMARK>
 VINA RESULT:      -6.6      3.796      5.560
  Name = 
  7 active torsions:
  status: ('A' for Active; 'I' for Inactive)
    1  A    between atoms: C_3  and  S_9
    2  A    between atoms: C_3  and  C_13
    3  A    between atoms: C_8  and  C_24
    4  A    between atoms: S_9  and  C_24
    5  A    between atoms: C_11  and  C_30
    6  A    between atoms: C_13  and  C_29
    7  A    between atoms: N_27  and  C_29
                            x       y       z     vdW  Elec       q    Type
                         _______ _______ _______ _____ _____    ______ ____

>  <TORSDO>
F 7

$$$$
=
 OpenBabel11042418203D

 35 39  0  0  1  0  0  0  0  0999 V2000
  191.6110  174.7260  144.2760 C   0  0  0  0  0  0  0  0  0  0  0  0
  189.0300  175.0410  141.6340 N   0  0  0  0  0  0  0  0  0  0  0  0
  188.8760  174.4120  140.4540 C   0  0  0  0  0  3  0  0  0  0  0  0
  192.6740  173.7240  143.9720 C   0  0  0  0  0  1  0  0  0  0  0  0
  188.6010  176.5190  143.4810 C   0  0  0  0  0  0  0  0  0  0  0  0
  189.9360  173.5270  140.3180 C   0  0  0  0  0  0  0  0  0  0  0  0
  188.2350  176.0010  142.2080 C   0  0  2  0  0  3  0  0  0  0  0  0
  187.1360  176.4440  141.5890 C   0  0  0  0  0  3  0  0  0  0  0  0
  185.6970  179.0800  143.9930 C   0  0  0  0  0  2  0  0  0  0  0  0
  187.7820  177.5870  144.1630 C   0  0  0  0  0  3  0  0  0  0  0  0
  190.1470  174.5560  142.2180 C   0  0  0  0  0  0  0  0  0  0  0  0
  182.6110  178.2510  141.8020 C   0  0  0  0  0  1  0  0  0  0  0  0
  190.5340  175.0390  143.4650 C   0  0  0  0  0  0  0  0  0  0  0  0
  183.3510  179.4160  144.2710 O   0  0  0  0  0  0  0  0  0  0  0  0
  186.5550  178.0010  143.3930 C   0  0  0  0  0  0  0  0  0  0  0  0
  185.0650  177.9250  141.4060 C   0  0  0  0  0  2  0  0  0  0  0  0
  190.3690  176.3060  145.2870 C   0  0  0  0  0  0  0  0  0  0  0  0
  186.2630  177.4650  142.1890 C   0  0  0  0  0  0  0  0  0  0  0  0
  191.5120  175.5190  145.4230 C   0  0  0  0  0  0  0  0  0  0  0  0
  184.2730  178.9530  143.5490 C   0  0  0  0  0  0  0  0  0  0  0  0
  189.9040  177.2370  146.2100 O   0  0  0  0  0  1  0  0  0  0  0  0
  190.7580  173.5960  141.4350 C   0  0  0  0  0  3  0  0  0  0  0  0
  189.7690  176.0060  144.0790 C   0  0  0  0  0  0  0  0  0  0  0  0
  183.9780  178.3320  142.2900 N   0  0  0  0  0  0  0  0  0  0  0  0
  192.1450  174.9320  147.6390 O   0  0  0  0  0  0  0  0  0  0  0  0
  192.4490  175.5230  146.5700 C   0  0  0  0  0  0  0  0  0  0  0  0
  193.7640  176.2170  146.4910 C   0  0  0  0  0  1  0  0  0  0  0  0
  190.1320  172.6000  139.1700 C   0  0  0  0  0  2  0  0  0  0  0  0
  191.3660  173.2750  138.0140 S   0  0  0  0  0  0  0  0  0  0  0  0
  190.1120  174.0320  136.9310 C   0  0  0  0  0  2  0  0  0  0  0  0
  190.7570  174.7010  135.7280 C   0  0  0  0  0  2  0  0  0  0  0  0
  192.2340  174.9770  135.9790 C   0  0  0  0  0  2  0  0  0  0  0  0
  193.9060  176.5790  135.6540 C   0  0  0  0  0  1  0  0  0  0  0  0
  191.7550  176.9590  134.8500 C   0  0  0  0  0  1  0  0  0  0  0  0
  192.4980  176.4070  135.9680 N   0  0  0  0  0  0  0  0  0  0  0  0
  1 19  1  0  0  0  0
  2  7  1  0  0  0  0
  2 11  1  0  0  0  0
  3  2  1  0  0  0  0
  4  1  1  0  0  0  0
  5 23  2  0  0  0  0
  5 10  1  0  0  0  0
  6  3  2  0  0  0  0
  6 22  1  0  0  0  0
  7  8  1  1  0  0  0
  7  5  1  0  0  0  0
  8 18  2  0  0  0  0
 11 13  1  0  0  0  0
 12 24  1  0  0  0  0
 13 23  1  0  0  0  0
 13  1  2  0  0  0  0
 15  9  1  0  0  0  0
 15 10  2  0  0  0  0
 16 18  1  0  0  0  0
 16 24  1  0  0  0  0
 17 19  2  0  0  0  0
 17 21  1  0  0  0  0
 18 15  1  0  0  0  0
 19 26  1  0  0  0  0
 20  9  1  0  0  0  0
 20 14  2  0  0  0  0
 22 11  2  0  0  0  0
 23 17  1  0  0  0  0
 24 20  1  0  0  0  0
 26 25  2  0  0  0  0
 27 26  1  0  0  0  0
 28  6  1  0  0  0  0
 29 28  1  0  0  0  0
 30 29  1  0  0  0  0
 31 32  1  0  0  0  0
 31 30  1  0  0  0  0
 33 35  1  0  0  0  0
 34 35  1  0  0  0  0
 35 32  1  0  0  0  0
M  END
>  <MODEL>
9

>  <REMARK>
 VINA RESULT:      -6.6      3.364      7.778
  Name = 
  7 active torsions:
  status: ('A' for Active; 'I' for Inactive)
    1  A    between atoms: C_3  and  S_9
    2  A    between atoms: C_3  and  C_13
    3  A    between atoms: C_8  and  C_24
    4  A    between atoms: S_9  and  C_24
    5  A    between atoms: C_11  and  C_30
    6  A    between atoms: C_13  and  C_29
    7  A    between atoms: N_27  and  C_29
                            x       y       z     vdW  Elec       q    Type
                         _______ _______ _______ _____ _____    ______ ____

>  <TORSDO>
F 7

$$$$
