=
 OpenBabel11042414183D

 45 48  0  0  1  0  0  0  0  0999 V2000
  193.3310  173.3180  143.8660 C   0  0  1  0  0  3  0  0  0  0  0  0
  194.0180  173.9570  146.0810 O   0  0  0  0  0  1  0  0  0  0  0  0
  194.4010  174.0040  144.7350 C   0  0  2  0  0  3  0  0  0  0  0  0
  196.0110  175.7950  144.2500 N   0  0  0  0  0  1  0  0  0  0  0  0
  194.5970  175.4670  144.3040 C   0  0  2  0  0  3  0  0  0  0  0  0
  193.8980  176.4230  145.2690 C   0  0  0  0  0  2  0  0  0  0  0  0
  192.7040  177.0790  144.5950 C   0  0  0  0  0  2  0  0  0  0  0  0
  188.6720  175.8440  146.0810 C   0  0  0  0  0  3  0  0  0  0  0  0
  189.0280  177.2350  145.6810 C   0  0  0  0  0  2  0  0  0  0  0  0
  191.6370  176.2940  146.7680 C   0  0  0  0  0  3  0  0  0  0  0  0
  189.4350  175.0880  146.8760 C   0  0  0  0  0  0  0  0  0  0  0  0
  188.9560  173.8850  147.2660 F   0  0  0  0  0  0  0  0  0  0  0  0
  190.3110  177.2800  144.9180 C   0  0  0  0  0  3  0  0  0  0  0  0
  191.4810  176.8840  145.4220 C   0  0  0  0  0  0  0  0  0  0  0  0
  190.7480  175.5140  147.3990 C   0  0  0  0  0  3  0  0  0  0  0  0
  193.7490  171.9380  143.4360 C   0  0  0  0  0  0  0  0  0  0  0  0
  193.9340  171.0780  144.2860 O   0  0  0  0  0  0  0  0  0  0  0  0
  191.5040  172.8960  139.4330 C   0  0  0  0  0  0  0  0  0  0  0  0
  193.8920  175.1220  138.0130 C   0  0  0  0  0  1  0  0  0  0  0  0
  193.5150  173.5230  139.9050 C   0  0  0  0  0  0  0  0  0  0  0  0
  192.5290  172.7170  140.2920 C   0  0  2  0  0  3  0  0  0  0  0  0
  190.3840  171.0700  140.5040 C   0  0  0  0  0  3  0  0  0  0  0  0
  190.3800  172.0800  139.5030 C   0  0  0  0  0  3  0  0  0  0  0  0
  193.9430  171.6140  141.9800 C   0  0  0  0  0  0  0  0  0  0  0  0
  191.8540  173.8200  138.5070 N   0  0  0  0  0  0  0  0  0  0  0  0
  193.1010  174.1960  138.8100 N   0  0  0  0  0  0  0  0  0  0  0  0
  195.0550  172.5060  141.3790 C   0  0  0  0  0  3  0  0  0  0  0  0
  194.8390  173.3850  140.4310 N   0  0  0  0  0  0  0  0  0  0  0  0
  192.6270  171.7260  141.2270 C   0  0  0  0  0  0  0  0  0  0  0  0
  191.5090  170.8820  141.3570 C   0  0  0  0  0  3  0  0  0  0  0  0
  191.9800  173.2510  144.5670 C   0  0  0  0  0  2  0  0  0  0  0  0
  190.9340  173.8430  143.6820 C   0  0  0  0  0  3  0  0  0  0  0  0
  189.7630  173.2300  143.5360 C   0  0  0  0  0  3  0  0  0  0  0  0
  188.6870  173.8090  142.6710 C   0  0  0  0  0  2  0  0  0  0  0  0
  189.2310  174.9140  141.7790 C   0  0  0  0  0  2  0  0  0  0  0  0
  188.4680  176.2010  142.0160 C   0  0  0  0  0  2  0  0  0  0  0  0
  187.1050  175.9300  142.1110 O   0  0  0  0  0  0  0  0  0  0  0  0
  186.4760  177.1470  141.8370 C   0  0  0  0  0  2  0  0  0  0  0  0
  185.9150  179.0410  143.1460 O   0  0  0  0  0  0  0  0  0  0  0  0
  185.2710  177.4520  145.5280 C   0  0  0  0  0  0  0  0  0  0  0  0
  184.9810  176.6130  146.4210 O   0  0  0  0  0  0  0  0  0  0  0  0
  185.9960  177.7850  143.0960 C   0  0  0  0  0  0  0  0  0  0  0  0
  185.6880  176.9810  144.2410 N   0  0  0  0  0  2  0  0  0  0  0  0
  185.2020  178.9050  145.8590 C   0  0  0  0  0  2  0  0  0  0  0  0
  185.8140  179.1530  147.2230 C   0  0  0  0  0  1  0  0  0  0  0  0
  1 31  1  1  0  0  0
  1  3  1  0  0  0  0
  3  2  1  1  0  0  0
  5  4  1  1  0  0  0
  5  3  1  0  0  0  0
  5  6  1  0  0  0  0
  7  6  1  0  0  0  0
  7 14  1  0  0  0  0
  8 11  2  0  0  0  0
  9  8  1  0  0  0  0
 10 15  2  0  0  0  0
 11 12  1  0  0  0  0
 11 15  1  0  0  0  0
 13 14  2  0  0  0  0
 13  9  1  0  0  0  0
 14 10  1  0  0  0  0
 16  1  1  0  0  0  0
 16 17  2  0  0  0  0
 18 23  1  0  0  0  0
 19 26  1  0  0  0  0
 20 21  1  0  0  0  0
 20 28  2  0  0  0  0
 21 18  1  6  0  0  0
 21 29  1  0  0  0  0
 22 30  1  0  0  0  0
 23 22  2  0  0  0  0
 24 16  1  0  0  0  0
 25 26  1  0  0  0  0
 25 18  2  0  0  0  0
 26 20  1  0  0  0  0
 27 24  2  0  0  0  0
 28 27  1  0  0  0  0
 29 30  2  0  0  0  0
 29 24  1  0  0  0  0
 32 31  1  0  0  0  0
 33 32  2  0  0  0  0
 34 33  1  0  0  0  0
 35 36  1  0  0  0  0
 35 34  1  0  0  0  0
 36 37  1  0  0  0  0
 38 37  1  0  0  0  0
 38 42  1  0  0  0  0
 40 44  1  0  0  0  0
 40 41  2  0  0  0  0
 42 39  2  0  0  0  0
 42 43  1  0  0  0  0
 43 40  1  0  0  0  0
 44 45  1  0  0  0  0
M  END
>  <MODEL>
1

>  <REMARK>
 VINA RESULT:      -6.4      0.000      0.000
  Name = 
  16 active torsions:
  status: ('A' for Active; 'I' for Inactive)
    1  A    between atoms: C_1  and  C_22
    2  A    between atoms: C_1  and  C_24
    3  A    between atoms: C_3  and  C_18
    4  A    between atoms: C_3  and  C_40
    5  A    between atoms: C_7  and  C_32
    6  A    between atoms: C_7  and  O_36
    7  A    between atoms: C_11  and  C_31
    8  A    between atoms: C_16  and  C_20
    9  A    between atoms: C_16  and  C_38
   10  A    between atoms: C_19  and  C_40
   11  A    between atoms: C_19  and  C_41
   12  A    between atoms: C_20  and  C_41
   13  A    between atoms: C_21  and  C_22
   14  A    between atoms: C_21  and  O_36
   15  A    between atoms: C_23  and  C_29
   16  A    between atoms: C_29  and  C_40
                            x       y       z     vdW  Elec       q    Type
                         _______ _______ _______ _____ _____    ______ ____

>  <TORSDO>
F 16

$$$$
=
 OpenBabel11042414183D

 45 48  0  0  1  0  0  0  0  0999 V2000
  194.2030  173.5510  144.3460 C   0  0  1  0  0  3  0  0  0  0  0  0
  194.9570  174.9050  146.1850 O   0  0  0  0  0  1  0  0  0  0  0  0
  195.0640  174.7440  144.7990 C   0  0  2  0  0  3  0  0  0  0  0  0
  195.7760  176.8100  143.6790 N   0  0  0  0  0  1  0  0  0  0  0  0
  194.6200  176.0350  144.0920 C   0  0  2  0  0  3  0  0  0  0  0  0
  193.7450  176.8900  145.0070 C   0  0  0  0  0  2  0  0  0  0  0  0
  192.4310  177.2270  144.3220 C   0  0  0  0  0  2  0  0  0  0  0  0
  188.5750  175.9340  146.1820 C   0  0  0  0  0  3  0  0  0  0  0  0
  188.8760  177.3320  145.7600 C   0  0  0  0  0  2  0  0  0  0  0  0
  191.5880  176.4140  146.5820 C   0  0  0  0  0  3  0  0  0  0  0  0
  189.4210  175.1820  146.8920 C   0  0  0  0  0  0  0  0  0  0  0  0
  188.9940  173.9700  147.3170 F   0  0  0  0  0  0  0  0  0  0  0  0
  190.0780  177.3980  144.8770 C   0  0  0  0  0  3  0  0  0  0  0  0
  191.2960  177.0120  145.2630 C   0  0  0  0  0  0  0  0  0  0  0  0
  190.7730  175.6200  147.2900 C   0  0  0  0  0  3  0  0  0  0  0  0
  195.0410  172.3790  143.9100 C   0  0  0  0  0  0  0  0  0  0  0  0
  195.6580  171.7410  144.7510 O   0  0  0  0  0  0  0  0  0  0  0  0
  192.2220  172.6500  140.1720 C   0  0  0  0  0  0  0  0  0  0  0  0
  193.9900  175.1560  138.3650 C   0  0  0  0  0  1  0  0  0  0  0  0
  194.1260  173.6510  140.3630 C   0  0  0  0  0  0  0  0  0  0  0  0
  193.3530  172.7130  140.9060 C   0  0  2  0  0  3  0  0  0  0  0  0
  191.5820  170.7350  141.4590 C   0  0  0  0  0  3  0  0  0  0  0  0
  191.2810  171.6560  140.4190 C   0  0  0  0  0  3  0  0  0  0  0  0
  195.1250  171.9950  142.4580 C   0  0  0  0  0  0  0  0  0  0  0  0
  192.2920  173.5540  139.1670 N   0  0  0  0  0  0  0  0  0  0  0  0
  193.4760  174.1630  139.2960 N   0  0  0  0  0  0  0  0  0  0  0  0
  195.9810  173.0240  141.6830 C   0  0  0  0  0  3  0  0  0  0  0  0
  195.5030  173.7830  140.7280 N   0  0  0  0  0  0  0  0  0  0  0  0
  193.7350  171.8220  141.8680 C   0  0  0  0  0  0  0  0  0  0  0  0
  192.8110  170.8060  142.1750 C   0  0  0  0  0  3  0  0  0  0  0  0
  193.2230  173.1080  145.4250 C   0  0  0  0  0  2  0  0  0  0  0  0
  191.8380  173.1170  144.8690 C   0  0  0  0  0  3  0  0  0  0  0  0
  191.5570  173.8540  143.7980 C   0  0  0  0  0  3  0  0  0  0  0  0
  190.1820  173.8700  143.2060 C   0  0  0  0  0  2  0  0  0  0  0  0
  190.0090  175.0340  142.2440 C   0  0  0  0  0  2  0  0  0  0  0  0
  188.9780  174.6920  141.1880 C   0  0  0  0  0  2  0  0  0  0  0  0
  187.7130  175.0840  141.6200 O   0  0  0  0  0  0  0  0  0  0  0  0
  187.7970  176.4710  141.7690 C   0  0  0  0  0  2  0  0  0  0  0  0
  186.0330  176.1170  143.3090 O   0  0  0  0  0  0  0  0  0  0  0  0
  185.6390  178.9800  143.8230 C   0  0  0  0  0  0  0  0  0  0  0  0
  185.6570  180.2300  143.9630 O   0  0  0  0  0  0  0  0  0  0  0  0
  186.7740  176.9580  142.7380 C   0  0  0  0  0  0  0  0  0  0  0  0
  186.6090  178.3630  142.9670 N   0  0  0  0  0  2  0  0  0  0  0  0
  184.5840  178.1930  144.5260 C   0  0  0  0  0  2  0  0  0  0  0  0
  184.3630  178.7540  145.9160 C   0  0  0  0  0  1  0  0  0  0  0  0
  1  3  1  0  0  0  0
  1 31  1  1  0  0  0
  3  2  1  1  0  0  0
  5  4  1  1  0  0  0
  5  3  1  0  0  0  0
  5  6  1  0  0  0  0
  7  6  1  0  0  0  0
  7 14  1  0  0  0  0
  8 11  2  0  0  0  0
  9  8  1  0  0  0  0
 10 15  2  0  0  0  0
 11 15  1  0  0  0  0
 11 12  1  0  0  0  0
 13 14  2  0  0  0  0
 13  9  1  0  0  0  0
 14 10  1  0  0  0  0
 16  1  1  0  0  0  0
 16 17  2  0  0  0  0
 18 23  1  0  0  0  0
 19 26  1  0  0  0  0
 20 28  2  0  0  0  0
 20 21  1  0  0  0  0
 21 18  1  6  0  0  0
 21 29  1  0  0  0  0
 22 30  1  0  0  0  0
 23 22  2  0  0  0  0
 24 16  1  0  0  0  0
 25 26  1  0  0  0  0
 25 18  2  0  0  0  0
 26 20  1  0  0  0  0
 27 24  2  0  0  0  0
 28 27  1  0  0  0  0
 29 30  2  0  0  0  0
 29 24  1  0  0  0  0
 32 31  1  0  0  0  0
 33 32  2  0  0  0  0
 34 33  1  0  0  0  0
 35 34  1  0  0  0  0
 36 37  1  0  0  0  0
 36 35  1  0  0  0  0
 37 38  1  0  0  0  0
 38 42  1  0  0  0  0
 40 41  2  0  0  0  0
 40 44  1  0  0  0  0
 42 43  1  0  0  0  0
 42 39  2  0  0  0  0
 43 40  1  0  0  0  0
 44 45  1  0  0  0  0
M  END
>  <MODEL>
2

>  <REMARK>
 VINA RESULT:      -6.4      1.095      1.437
  Name = 
  16 active torsions:
  status: ('A' for Active; 'I' for Inactive)
    1  A    between atoms: C_1  and  C_22
    2  A    between atoms: C_1  and  C_24
    3  A    between atoms: C_3  and  C_18
    4  A    between atoms: C_3  and  C_40
    5  A    between atoms: C_7  and  C_32
    6  A    between atoms: C_7  and  O_36
    7  A    between atoms: C_11  and  C_31
    8  A    between atoms: C_16  and  C_20
    9  A    between atoms: C_16  and  C_38
   10  A    between atoms: C_19  and  C_40
   11  A    between atoms: C_19  and  C_41
   12  A    between atoms: C_20  and  C_41
   13  A    between atoms: C_21  and  C_22
   14  A    between atoms: C_21  and  O_36
   15  A    between atoms: C_23  and  C_29
   16  A    between atoms: C_29  and  C_40
                            x       y       z     vdW  Elec       q    Type
                         _______ _______ _______ _____ _____    ______ ____

>  <TORSDO>
F 16

$$$$
=
 OpenBabel11042414183D

 45 48  0  0  1  0  0  0  0  0999 V2000
  190.4260  176.0920  143.7530 C   0  0  1  0  0  3  0  0  0  0  0  0
  191.5540  177.3030  145.4980 O   0  0  0  0  0  1  0  0  0  0  0  0
  190.5300  176.3770  145.2620 C   0  0  2  0  0  3  0  0  0  0  0  0
  189.8380  174.9090  147.1060 N   0  0  0  0  0  1  0  0  0  0  0  0
  190.8120  175.0830  146.0420 C   0  0  2  0  0  3  0  0  0  0  0  0
  192.2150  175.1000  146.6470 C   0  0  0  0  0  2  0  0  0  0  0  0
  193.0830  174.0300  146.0050 C   0  0  0  0  0  2  0  0  0  0  0  0
  196.8580  175.0660  143.8450 C   0  0  0  0  0  3  0  0  0  0  0  0
  196.7960  174.2030  145.0590 C   0  0  0  0  0  2  0  0  0  0  0  0
  194.5440  176.0750  145.6050 C   0  0  0  0  0  3  0  0  0  0  0  0
  196.2210  176.2370  143.7410 C   0  0  0  0  0  0  0  0  0  0  0  0
  196.4430  176.9890  142.6390 F   0  0  0  0  0  0  0  0  0  0  0  0
  195.4010  173.7600  145.3530 C   0  0  0  0  0  3  0  0  0  0  0  0
  194.4030  174.6040  145.6250 C   0  0  0  0  0  0  0  0  0  0  0  0
  195.3340  176.7840  144.7860 C   0  0  0  0  0  3  0  0  0  0  0  0
  189.2900  176.8410  143.1110 C   0  0  0  0  0  0  0  0  0  0  0  0
  189.4700  177.9900  142.7330 O   0  0  0  0  0  0  0  0  0  0  0  0
  184.8300  178.0210  143.9530 C   0  0  0  0  0  0  0  0  0  0  0  0
  183.7430  178.3940  140.5840 C   0  0  0  0  0  1  0  0  0  0  0  0
  185.6550  177.6110  142.0000 C   0  0  0  0  0  0  0  0  0  0  0  0
  185.8990  177.5130  143.3050 C   0  0  0  0  0  0  0  0  0  0  0  0
  185.8080  177.2680  146.0040 C   0  0  0  0  0  3  0  0  0  0  0  0
  184.7390  177.9240  145.3370 C   0  0  0  0  0  3  0  0  0  0  0  0
  187.9450  176.1910  142.9360 C   0  0  2  0  0  3  0  0  0  0  0  0
  183.9160  178.4380  143.0450 N   0  0  0  0  0  0  0  0  0  0  0  0
  184.4390  178.1750  141.8420 N   0  0  0  0  0  0  0  0  0  0  0  0
  187.5110  176.2550  141.4520 C   0  0  0  0  0  3  0  0  0  0  0  0
  186.4590  176.9200  141.0390 N   0  0  0  0  0  0  0  0  0  0  0  0
  186.9240  176.8120  143.8750 C   0  0  0  0  0  0  0  0  0  0  0  0
  186.8940  176.7000  145.2780 C   0  0  0  0  0  3  0  0  0  0  0  0
  191.7250  176.4010  143.0190 C   0  0  0  0  0  2  0  0  0  0  0  0
  192.4030  175.1220  142.6530 C   0  0  0  0  0  3  0  0  0  0  0  0
  193.4530  175.1380  141.8370 C   0  0  0  0  0  3  0  0  0  0  0  0
  194.1650  173.8740  141.4660 C   0  0  0  0  0  2  0  0  0  0  0  0
  194.5900  173.8890  140.0060 C   0  0  0  0  0  2  0  0  0  0  0  0
  193.4160  174.2620  139.1230 C   0  0  0  0  0  2  0  0  0  0  0  0
  192.7380  173.1100  138.7310 O   0  0  0  0  0  0  0  0  0  0  0  0
  191.3920  173.4840  138.6810 C   0  0  0  0  0  2  0  0  0  0  0  0
  189.8710  174.0200  140.4170 O   0  0  0  0  0  0  0  0  0  0  0  0
  190.5620  171.6630  142.0230 C   0  0  0  0  0  0  0  0  0  0  0  0
  190.9380  170.5790  142.5390 O   0  0  0  0  0  0  0  0  0  0  0  0
  190.7200  173.1990  139.9810 C   0  0  0  0  0  0  0  0  0  0  0  0
  191.0790  172.0380  140.7400 N   0  0  0  0  0  2  0  0  0  0  0  0
  189.6200  172.5340  142.7860 C   0  0  0  0  0  2  0  0  0  0  0  0
  189.6880  172.1970  144.2630 C   0  0  0  0  0  1  0  0  0  0  0  0
  1 31  1  6  0  0  0
  1  3  1  0  0  0  0
  3  2  1  6  0  0  0
  3  5  1  0  0  0  0
  5  6  1  0  0  0  0
  5  4  1  1  0  0  0
  7  6  1  0  0  0  0
  8  9  1  0  0  0  0
  9 13  1  0  0  0  0
 10 14  1  0  0  0  0
 11  8  2  0  0  0  0
 11 15  1  0  0  0  0
 12 11  1  0  0  0  0
 13 14  2  0  0  0  0
 14  7  1  0  0  0  0
 15 10  2  0  0  0  0
 16  1  1  0  0  0  0
 17 16  2  0  0  0  0
 18 23  1  0  0  0  0
 19 26  1  0  0  0  0
 20 21  2  0  0  0  0
 21 29  1  0  0  0  0
 21 18  1  0  0  0  0
 23 22  2  0  0  0  0
 24 16  1  6  0  0  0
 24 29  1  0  0  0  0
 25 18  2  0  0  0  0
 26 20  1  0  0  0  0
 26 25  1  0  0  0  0
 27 24  1  0  0  0  0
 28 27  2  0  0  0  0
 28 20  1  0  0  0  0
 29 30  2  0  0  0  0
 30 22  1  0  0  0  0
 32 31  1  0  0  0  0
 33 32  2  0  0  0  0
 34 33  1  0  0  0  0
 35 34  1  0  0  0  0
 36 35  1  0  0  0  0
 37 36  1  0  0  0  0
 38 37  1  0  0  0  0
 38 42  1  0  0  0  0
 40 41  2  0  0  0  0
 40 44  1  0  0  0  0
 42 39  2  0  0  0  0
 42 43  1  0  0  0  0
 43 40  1  0  0  0  0
 44 45  1  0  0  0  0
M  END
>  <MODEL>
3

>  <REMARK>
 VINA RESULT:      -6.4      2.818      7.377
  Name = 
  16 active torsions:
  status: ('A' for Active; 'I' for Inactive)
    1  A    between atoms: C_1  and  C_22
    2  A    between atoms: C_1  and  C_24
    3  A    between atoms: C_3  and  C_18
    4  A    between atoms: C_3  and  C_40
    5  A    between atoms: C_7  and  C_32
    6  A    between atoms: C_7  and  O_36
    7  A    between atoms: C_11  and  C_31
    8  A    between atoms: C_16  and  C_20
    9  A    between atoms: C_16  and  C_38
   10  A    between atoms: C_19  and  C_40
   11  A    between atoms: C_19  and  C_41
   12  A    between atoms: C_20  and  C_41
   13  A    between atoms: C_21  and  C_22
   14  A    between atoms: C_21  and  O_36
   15  A    between atoms: C_23  and  C_29
   16  A    between atoms: C_29  and  C_40
                            x       y       z     vdW  Elec       q    Type
                         _______ _______ _______ _____ _____    ______ ____

>  <TORSDO>
F 16

$$$$
=
 OpenBabel11042414183D

 45 48  0  0  1  0  0  0  0  0999 V2000
  191.1730  175.9390  145.9530 C   0  0  1  0  0  3  0  0  0  0  0  0
  189.8820  177.9390  145.6020 O   0  0  0  0  0  1  0  0  0  0  0  0
  190.9180  177.1680  145.0600 C   0  0  2  0  0  3  0  0  0  0  0  0
  191.5390  177.2130  142.6850 N   0  0  0  0  0  1  0  0  0  0  0  0
  190.5480  176.7340  143.6320 C   0  0  2  0  0  3  0  0  0  0  0  0
  189.1750  177.2720  143.2320 C   0  0  0  0  0  2  0  0  0  0  0  0
  188.1580  176.1430  143.1790 C   0  0  0  0  0  2  0  0  0  0  0  0
  185.0940  178.2580  145.6530 C   0  0  0  0  0  3  0  0  0  0  0  0
  185.5840  176.8770  145.9260 C   0  0  0  0  0  2  0  0  0  0  0  0
  185.7520  176.9400  142.9520 C   0  0  0  0  0  3  0  0  0  0  0  0
  184.7230  178.6820  144.4410 C   0  0  0  0  0  0  0  0  0  0  0  0
  184.1850  179.9190  144.3350 F   0  0  0  0  0  0  0  0  0  0  0  0
  186.8260  176.5680  145.1580 C   0  0  0  0  0  3  0  0  0  0  0  0
  186.8860  176.5710  143.8240 C   0  0  0  0  0  0  0  0  0  0  0  0
  184.8120  177.8570  143.2210 C   0  0  0  0  0  3  0  0  0  0  0  0
  192.3040  176.1660  146.9200 C   0  0  0  0  0  0  0  0  0  0  0  0
  192.0670  176.6680  148.0090 O   0  0  0  0  0  0  0  0  0  0  0  0
  194.3820  173.8940  143.3820 C   0  0  0  0  0  0  0  0  0  0  0  0
  196.0270  176.6670  141.8740 C   0  0  0  0  0  1  0  0  0  0  0  0
  194.7190  175.9650  143.8920 C   0  0  0  0  0  0  0  0  0  0  0  0
  194.1750  174.8310  144.3310 C   0  0  2  0  0  3  0  0  0  0  0  0
  193.4940  172.2690  144.9010 C   0  0  0  0  0  3  0  0  0  0  0  0
  194.0450  172.5670  143.6250 C   0  0  0  0  0  3  0  0  0  0  0  0
  193.7120  175.7840  146.5540 C   0  0  0  0  0  0  0  0  0  0  0  0
  195.0570  174.4480  142.3480 N   0  0  0  0  0  0  0  0  0  0  0  0
  195.2610  175.7270  142.6790 N   0  0  0  0  0  0  0  0  0  0  0  0
  194.4690  177.0120  145.9950 C   0  0  0  0  0  3  0  0  0  0  0  0
  194.9180  177.0810  144.7650 N   0  0  0  0  0  0  0  0  0  0  0  0
  193.7160  174.6030  145.5970 C   0  0  0  0  0  0  0  0  0  0  0  0
  193.3400  173.2800  145.8930 C   0  0  0  0  0  3  0  0  0  0  0  0
  189.9230  175.5150  146.7140 C   0  0  0  0  0  2  0  0  0  0  0  0
  189.5580  174.1200  146.3260 C   0  0  0  0  0  3  0  0  0  0  0  0
  189.9350  173.6400  145.1450 C   0  0  0  0  0  3  0  0  0  0  0  0
  189.6010  172.2390  144.7350 C   0  0  0  0  0  2  0  0  0  0  0  0
  189.6350  172.0840  143.2230 C   0  0  0  0  0  2  0  0  0  0  0  0
  190.6000  173.0810  142.6160 C   0  0  0  0  0  2  0  0  0  0  0  0
  189.9740  173.7720  141.5800 O   0  0  0  0  0  0  0  0  0  0  0  0
  189.2280  172.8040  140.9010 C   0  0  0  0  0  2  0  0  0  0  0  0
  188.1470  172.8510  138.7940 O   0  0  0  0  0  0  0  0  0  0  0  0
  190.5140  173.8590  137.3790 C   0  0  0  0  0  0  0  0  0  0  0  0
  191.5950  174.3440  136.9570 O   0  0  0  0  0  0  0  0  0  0  0  0
  189.2010  173.0930  139.4390 C   0  0  0  0  0  0  0  0  0  0  0  0
  190.3730  173.5870  138.7790 N   0  0  0  0  0  2  0  0  0  0  0  0
  189.4330  173.5510  136.3970 C   0  0  0  0  0  2  0  0  0  0  0  0
  188.9070  174.8370  135.7900 C   0  0  0  0  0  1  0  0  0  0  0  0
  1 31  1  1  0  0  0
  1 16  1  0  0  0  0
  3  2  1  1  0  0  0
  3  1  1  0  0  0  0
  5  4  1  6  0  0  0
  5  3  1  0  0  0  0
  6  5  1  0  0  0  0
  7  6  1  0  0  0  0
  7 14  1  0  0  0  0
  8  9  1  0  0  0  0
 10 15  2  0  0  0  0
 10 14  1  0  0  0  0
 11  8  2  0  0  0  0
 12 11  1  0  0  0  0
 13  9  1  0  0  0  0
 14 13  2  0  0  0  0
 15 11  1  0  0  0  0
 16 17  2  0  0  0  0
 18 23  1  0  0  0  0
 19 26  1  0  0  0  0
 20 21  1  0  0  0  0
 20 28  2  0  0  0  0
 21 18  1  1  0  0  0
 21 29  1  0  0  0  0
 22 30  1  0  0  0  0
 23 22  2  0  0  0  0
 24 16  1  0  0  0  0
 25 26  1  0  0  0  0
 25 18  2  0  0  0  0
 26 20  1  0  0  0  0
 27 24  2  0  0  0  0
 28 27  1  0  0  0  0
 29 30  2  0  0  0  0
 29 24  1  0  0  0  0
 32 31  1  0  0  0  0
 33 32  2  0  0  0  0
 34 33  1  0  0  0  0
 35 34  1  0  0  0  0
 36 35  1  0  0  0  0
 37 36  1  0  0  0  0
 38 37  1  0  0  0  0
 39 42  2  0  0  0  0
 40 43  1  0  0  0  0
 41 40  2  0  0  0  0
 42 38  1  0  0  0  0
 43 42  1  0  0  0  0
 44 40  1  0  0  0  0
 45 44  1  0  0  0  0
M  END
>  <MODEL>
4

>  <REMARK>
 VINA RESULT:      -6.3      2.764      6.169
  Name = 
  16 active torsions:
  status: ('A' for Active; 'I' for Inactive)
    1  A    between atoms: C_1  and  C_22
    2  A    between atoms: C_1  and  C_24
    3  A    between atoms: C_3  and  C_18
    4  A    between atoms: C_3  and  C_40
    5  A    between atoms: C_7  and  C_32
    6  A    between atoms: C_7  and  O_36
    7  A    between atoms: C_11  and  C_31
    8  A    between atoms: C_16  and  C_20
    9  A    between atoms: C_16  and  C_38
   10  A    between atoms: C_19  and  C_40
   11  A    between atoms: C_19  and  C_41
   12  A    between atoms: C_20  and  C_41
   13  A    between atoms: C_21  and  C_22
   14  A    between atoms: C_21  and  O_36
   15  A    between atoms: C_23  and  C_29
   16  A    between atoms: C_29  and  C_40
                            x       y       z     vdW  Elec       q    Type
                         _______ _______ _______ _____ _____    ______ ____

>  <TORSDO>
F 16

$$$$
=
 OpenBabel11042414183D

 45 48  0  0  1  0  0  0  0  0999 V2000
  188.1410  176.2230  142.5440 C   0  0  1  0  0  3  0  0  0  0  0  0
  188.3880  178.2920  141.3430 O   0  0  0  0  0  1  0  0  0  0  0  0
  187.6400  177.1090  141.3890 C   0  0  2  0  0  3  0  0  0  0  0  0
  185.5960  177.9650  140.3300 N   0  0  0  0  0  1  0  0  0  0  0  0
  186.1500  177.4450  141.5680 C   0  0  2  0  0  3  0  0  0  0  0  0
  185.9480  178.4750  142.6780 C   0  0  0  0  0  2  0  0  0  0  0  0
  184.6670  178.1850  143.4430 C   0  0  0  0  0  2  0  0  0  0  0  0
  186.7690  177.5300  147.3350 C   0  0  0  0  0  3  0  0  0  0  0  0
  186.1250  176.4480  146.5380 C   0  0  0  0  0  2  0  0  0  0  0  0
  184.3280  178.7380  145.9050 C   0  0  0  0  0  3  0  0  0  0  0  0
  186.1790  178.6990  147.6030 C   0  0  0  0  0  0  0  0  0  0  0  0
  186.8120  179.5590  148.4330 F   0  0  0  0  0  0  0  0  0  0  0  0
  185.8090  176.8960  145.1490 C   0  0  0  0  0  3  0  0  0  0  0  0
  184.9800  177.9050  144.8720 C   0  0  0  0  0  0  0  0  0  0  0  0
  184.8480  179.0820  147.0900 C   0  0  0  0  0  3  0  0  0  0  0  0
  188.3780  174.8020  142.1080 C   0  0  0  0  0  0  0  0  0  0  0  0
  187.4650  173.9930  142.1880 O   0  0  0  0  0  0  0  0  0  0  0  0
  191.1280  171.0270  142.5240 C   0  0  0  0  0  0  0  0  0  0  0  0
  190.7770  169.7570  139.2170 C   0  0  0  0  0  1  0  0  0  0  0  0
  190.2530  171.7240  140.6770 C   0  0  0  0  0  0  0  0  0  0  0  0
  190.4890  172.0630  141.9430 C   0  0  0  0  0  0  0  0  0  0  0  0
  191.4400  172.4010  144.4600 C   0  0  0  0  0  3  0  0  0  0  0  0
  191.6310  171.1490  143.8150 C   0  0  0  0  0  3  0  0  0  0  0  0
  189.7210  174.3760  141.5820 C   0  0  2  0  0  3  0  0  0  0  0  0
  191.2900  170.0360  141.6150 N   0  0  0  0  0  0  0  0  0  0  0  0
  190.7460  170.4830  140.4770 N   0  0  0  0  0  0  0  0  0  0  0  0
  189.5960  173.9210  140.1090 C   0  0  0  0  0  3  0  0  0  0  0  0
  189.8370  172.6940  139.7120 N   0  0  0  0  0  0  0  0  0  0  0  0
  190.3330  173.3110  142.4770 C   0  0  0  0  0  0  0  0  0  0  0  0
  190.8050  173.4870  143.7910 C   0  0  0  0  0  3  0  0  0  0  0  0
  189.4050  176.7800  143.1880 C   0  0  0  0  0  2  0  0  0  0  0  0
  189.3080  176.6380  144.6710 C   0  0  0  0  0  3  0  0  0  0  0  0
  190.4150  176.5930  145.4070 C   0  0  0  0  0  3  0  0  0  0  0  0
  190.3510  176.4710  146.8980 C   0  0  0  0  0  2  0  0  0  0  0  0
  191.7400  176.4990  147.5140 C   0  0  0  0  0  2  0  0  0  0  0  0
  192.6750  175.5930  146.7390 C   0  0  0  0  0  2  0  0  0  0  0  0
  193.7440  176.3350  146.2420 O   0  0  0  0  0  0  0  0  0  0  0  0
  194.7670  175.4040  146.0420 C   0  0  0  0  0  2  0  0  0  0  0  0
  194.7670  173.3880  144.7980 O   0  0  0  0  0  0  0  0  0  0  0  0
  193.8790  174.6850  142.3190 C   0  0  0  0  0  0  0  0  0  0  0  0
  193.4390  175.3940  141.3770 O   0  0  0  0  0  0  0  0  0  0  0  0
  194.5310  174.6250  144.7930 C   0  0  0  0  0  0  0  0  0  0  0  0
  194.0950  175.2880  143.6010 N   0  0  0  0  0  2  0  0  0  0  0  0
  194.1920  173.2500  142.0520 C   0  0  0  0  0  2  0  0  0  0  0  0
  193.8260  172.8990  140.6240 C   0  0  0  0  0  1  0  0  0  0  0  0
  1 31  1  6  0  0  0
  3  2  1  1  0  0  0
  3  5  1  0  0  0  0
  3  1  1  0  0  0  0
  5  4  1  6  0  0  0
  5  6  1  0  0  0  0
  6  7  1  0  0  0  0
  7 14  1  0  0  0  0
  8 11  2  0  0  0  0
  9  8  1  0  0  0  0
 10 15  2  0  0  0  0
 11 12  1  0  0  0  0
 13  9  1  0  0  0  0
 14 13  2  0  0  0  0
 14 10  1  0  0  0  0
 15 11  1  0  0  0  0
 16 17  2  0  0  0  0
 16  1  1  0  0  0  0
 18 23  1  0  0  0  0
 19 26  1  0  0  0  0
 20 21  2  0  0  0  0
 21 29  1  0  0  0  0
 21 18  1  0  0  0  0
 23 22  2  0  0  0  0
 24 16  1  1  0  0  0
 24 29  1  0  0  0  0
 25 18  2  0  0  0  0
 26 20  1  0  0  0  0
 26 25  1  0  0  0  0
 27 24  1  0  0  0  0
 28 27  2  0  0  0  0
 28 20  1  0  0  0  0
 29 30  2  0  0  0  0
 30 22  1  0  0  0  0
 31 32  1  0  0  0  0
 32 33  2  0  0  0  0
 33 34  1  0  0  0  0
 34 35  1  0  0  0  0
 36 35  1  0  0  0  0
 37 36  1  0  0  0  0
 38 37  1  0  0  0  0
 40 43  1  0  0  0  0
 41 40  2  0  0  0  0
 42 39  2  0  0  0  0
 42 38  1  0  0  0  0
 43 42  1  0  0  0  0
 44 40  1  0  0  0  0
 45 44  1  0  0  0  0
M  END
>  <MODEL>
5

>  <REMARK>
 VINA RESULT:      -6.1      2.180      6.974
  Name = 
  16 active torsions:
  status: ('A' for Active; 'I' for Inactive)
    1  A    between atoms: C_1  and  C_22
    2  A    between atoms: C_1  and  C_24
    3  A    between atoms: C_3  and  C_18
    4  A    between atoms: C_3  and  C_40
    5  A    between atoms: C_7  and  C_32
    6  A    between atoms: C_7  and  O_36
    7  A    between atoms: C_11  and  C_31
    8  A    between atoms: C_16  and  C_20
    9  A    between atoms: C_16  and  C_38
   10  A    between atoms: C_19  and  C_40
   11  A    between atoms: C_19  and  C_41
   12  A    between atoms: C_20  and  C_41
   13  A    between atoms: C_21  and  C_22
   14  A    between atoms: C_21  and  O_36
   15  A    between atoms: C_23  and  C_29
   16  A    between atoms: C_29  and  C_40
                            x       y       z     vdW  Elec       q    Type
                         _______ _______ _______ _____ _____    ______ ____

>  <TORSDO>
F 16

$$$$
=
 OpenBabel11042414183D

 45 48  0  0  1  0  0  0  0  0999 V2000
  188.0690  175.8400  142.3890 C   0  0  1  0  0  3  0  0  0  0  0  0
  188.5470  178.0930  141.6950 O   0  0  0  0  0  1  0  0  0  0  0  0
  187.7760  176.9670  141.3820 C   0  0  2  0  0  3  0  0  0  0  0  0
  185.8780  177.8670  140.1080 N   0  0  0  0  0  1  0  0  0  0  0  0
  186.2850  177.3400  141.3990 C   0  0  2  0  0  3  0  0  0  0  0  0
  185.9900  178.3800  142.4790 C   0  0  0  0  0  2  0  0  0  0  0  0
  184.7130  178.0260  143.2220 C   0  0  0  0  0  2  0  0  0  0  0  0
  186.7080  177.8460  147.2190 C   0  0  0  0  0  3  0  0  0  0  0  0
  186.2960  176.6490  146.4340 C   0  0  0  0  0  2  0  0  0  0  0  0
  184.1670  178.5790  145.6460 C   0  0  0  0  0  3  0  0  0  0  0  0
  185.9160  178.9040  147.4210 C   0  0  0  0  0  0  0  0  0  0  0  0
  186.3540  179.8810  148.2470 F   0  0  0  0  0  0  0  0  0  0  0  0
  185.9740  176.9990  145.0180 C   0  0  0  0  0  3  0  0  0  0  0  0
  185.0000  177.8420  144.6720 C   0  0  0  0  0  0  0  0  0  0  0  0
  184.5650  179.0390  146.8400 C   0  0  0  0  0  3  0  0  0  0  0  0
  188.2090  174.5010  141.7180 C   0  0  0  0  0  0  0  0  0  0  0  0
  187.4330  173.6030  142.0090 O   0  0  0  0  0  0  0  0  0  0  0  0
  191.1350  170.9940  140.6540 C   0  0  0  0  0  0  0  0  0  0  0  0
  189.6830  170.0250  137.5520 C   0  0  0  0  0  1  0  0  0  0  0  0
  189.6120  171.7780  139.3400 C   0  0  0  0  0  0  0  0  0  0  0  0
  190.2700  172.0140  140.4730 C   0  0  2  0  0  3  0  0  0  0  0  0
  192.0470  172.1950  142.5130 C   0  0  0  0  0  3  0  0  0  0  0  0
  192.0620  171.0380  141.6890 C   0  0  0  0  0  3  0  0  0  0  0  0
  189.2930  174.2630  140.7030 C   0  0  0  0  0  0  0  0  0  0  0  0
  191.0120  170.1180  139.6290 N   0  0  0  0  0  0  0  0  0  0  0  0
  190.0690  170.6180  138.8230 N   0  0  0  0  0  0  0  0  0  0  0  0
  188.6700  173.9450  139.3230 C   0  0  0  0  0  3  0  0  0  0  0  0
  188.8200  172.7930  138.7140 N   0  0  0  0  0  0  0  0  0  0  0  0
  190.2480  173.1810  141.1810 C   0  0  0  0  0  0  0  0  0  0  0  0
  191.1520  173.2740  142.2550 C   0  0  0  0  0  3  0  0  0  0  0  0
  189.3080  176.1280  143.2270 C   0  0  0  0  0  2  0  0  0  0  0  0
  189.2740  175.2930  144.4640 C   0  0  0  0  0  3  0  0  0  0  0  0
  189.6600  175.8120  145.6260 C   0  0  0  0  0  3  0  0  0  0  0  0
  189.6190  175.0060  146.8870 C   0  0  0  0  0  2  0  0  0  0  0  0
  190.8210  175.3030  147.7710 C   0  0  0  0  0  2  0  0  0  0  0  0
  191.6540  176.4140  147.1660 C   0  0  0  0  0  2  0  0  0  0  0  0
  192.9860  176.0150  147.0890 O   0  0  0  0  0  0  0  0  0  0  0  0
  193.1390  175.5190  145.7910 C   0  0  0  0  0  2  0  0  0  0  0  0
  195.3860  174.7800  145.9280 O   0  0  0  0  0  0  0  0  0  0  0  0
  194.7100  171.9810  145.3610 C   0  0  0  0  0  0  0  0  0  0  0  0
  194.2300  170.8330  145.1690 O   0  0  0  0  0  0  0  0  0  0  0  0
  194.1820  174.4540  145.7560 C   0  0  0  0  0  0  0  0  0  0  0  0
  193.8180  173.0960  145.4790 N   0  0  0  0  0  2  0  0  0  0  0  0
  196.1920  172.1380  145.4220 C   0  0  0  0  0  2  0  0  0  0  0  0
  196.8090  170.9470  146.1290 C   0  0  0  0  0  1  0  0  0  0  0  0
  1 31  1  6  0  0  0
  3  5  1  0  0  0  0
  3  2  1  1  0  0  0
  3  1  1  0  0  0  0
  5  4  1  6  0  0  0
  5  6  1  0  0  0  0
  6  7  1  0  0  0  0
  7 14  1  0  0  0  0
  8 11  2  0  0  0  0
  9  8  1  0  0  0  0
 10 15  2  0  0  0  0
 11 12  1  0  0  0  0
 13  9  1  0  0  0  0
 14 13  2  0  0  0  0
 14 10  1  0  0  0  0
 15 11  1  0  0  0  0
 16 17  2  0  0  0  0
 16  1  1  0  0  0  0
 18 23  1  0  0  0  0
 19 26  1  0  0  0  0
 21 20  1  6  0  0  0
 21 18  1  0  0  0  0
 21 29  1  0  0  0  0
 23 22  2  0  0  0  0
 24 29  1  0  0  0  0
 24 16  1  0  0  0  0
 25 18  2  0  0  0  0
 26 20  1  0  0  0  0
 26 25  1  0  0  0  0
 27 24  2  0  0  0  0
 28 27  1  0  0  0  0
 28 20  2  0  0  0  0
 29 30  2  0  0  0  0
 30 22  1  0  0  0  0
 31 32  1  0  0  0  0
 32 33  2  0  0  0  0
 33 34  1  0  0  0  0
 34 35  1  0  0  0  0
 36 35  1  0  0  0  0
 37 36  1  0  0  0  0
 38 37  1  0  0  0  0
 40 44  1  0  0  0  0
 40 43  1  0  0  0  0
 41 40  2  0  0  0  0
 42 38  1  0  0  0  0
 42 39  2  0  0  0  0
 43 42  1  0  0  0  0
 44 45  1  0  0  0  0
M  END
>  <MODEL>
6

>  <REMARK>
 VINA RESULT:      -6.1      2.563      7.087
  Name = 
  16 active torsions:
  status: ('A' for Active; 'I' for Inactive)
    1  A    between atoms: C_1  and  C_22
    2  A    between atoms: C_1  and  C_24
    3  A    between atoms: C_3  and  C_18
    4  A    between atoms: C_3  and  C_40
    5  A    between atoms: C_7  and  C_32
    6  A    between atoms: C_7  and  O_36
    7  A    between atoms: C_11  and  C_31
    8  A    between atoms: C_16  and  C_20
    9  A    between atoms: C_16  and  C_38
   10  A    between atoms: C_19  and  C_40
   11  A    between atoms: C_19  and  C_41
   12  A    between atoms: C_20  and  C_41
   13  A    between atoms: C_21  and  C_22
   14  A    between atoms: C_21  and  O_36
   15  A    between atoms: C_23  and  C_29
   16  A    between atoms: C_29  and  C_40
                            x       y       z     vdW  Elec       q    Type
                         _______ _______ _______ _____ _____    ______ ____

>  <TORSDO>
F 16

$$$$
=
 OpenBabel11042414183D

 45 48  0  0  1  0  0  0  0  0999 V2000
  195.0790  173.5810  144.8750 C   0  0  1  0  0  3  0  0  0  0  0  0
  195.1960  175.4110  146.4330 O   0  0  0  0  0  1  0  0  0  0  0  0
  195.4930  175.0450  145.1140 C   0  0  2  0  0  3  0  0  0  0  0  0
  195.7180  176.7440  143.3550 N   0  0  0  0  0  1  0  0  0  0  0  0
  194.7620  175.9830  144.1400 C   0  0  2  0  0  3  0  0  0  0  0  0
  193.8470  176.9510  144.8890 C   0  0  0  0  0  2  0  0  0  0  0  0
  192.4750  176.9970  144.2370 C   0  0  0  0  0  2  0  0  0  0  0  0
  188.6730  176.1070  146.4160 C   0  0  0  0  0  3  0  0  0  0  0  0
  189.1090  177.4750  146.0130 C   0  0  0  0  0  2  0  0  0  0  0  0
  191.7470  176.1950  146.5400 C   0  0  0  0  0  3  0  0  0  0  0  0
  189.4780  175.2250  147.0170 C   0  0  0  0  0  0  0  0  0  0  0  0
  188.9430  174.0580  147.4420 F   0  0  0  0  0  0  0  0  0  0  0  0
  190.2230  177.4310  145.0210 C   0  0  0  0  0  3  0  0  0  0  0  0
  191.4130  176.8810  145.2750 C   0  0  0  0  0  0  0  0  0  0  0  0
  190.9060  175.4760  147.2970 C   0  0  0  0  0  3  0  0  0  0  0  0
  196.2320  172.6300  145.0490 C   0  0  0  0  0  0  0  0  0  0  0  0
  197.1890  172.9700  145.7290 O   0  0  0  0  0  0  0  0  0  0  0  0
  193.6790  168.7160  145.4400 C   0  0  0  0  0  0  0  0  0  0  0  0
  191.9500  168.9070  142.3350 C   0  0  0  0  0  1  0  0  0  0  0  0
  193.7990  169.9440  143.6680 C   0  0  0  0  0  0  0  0  0  0  0  0
  194.3590  169.7250  144.8560 C   0  0  0  0  0  0  0  0  0  0  0  0
  195.3160  168.7230  147.1870 C   0  0  0  0  0  3  0  0  0  0  0  0
  194.1280  168.1700  146.6380 C   0  0  0  0  0  3  0  0  0  0  0  0
  196.2140  171.2770  144.3930 C   0  0  2  0  0  3  0  0  0  0  0  0
  192.6910  168.3050  144.6100 N   0  0  0  0  0  0  0  0  0  0  0  0
  192.7800  169.0720  143.5180 N   0  0  0  0  0  0  0  0  0  0  0  0
  195.5580  171.3710  142.9950 C   0  0  0  0  0  3  0  0  0  0  0  0
  194.4420  170.7570  142.6820 N   0  0  0  0  0  0  0  0  0  0  0  0
  195.5400  170.2540  145.2920 C   0  0  0  0  0  0  0  0  0  0  0  0
  196.0320  169.7540  146.5120 C   0  0  0  0  0  3  0  0  0  0  0  0
  193.9240  173.1580  145.7750 C   0  0  0  0  0  2  0  0  0  0  0  0
  192.6690  173.0920  144.9690 C   0  0  0  0  0  3  0  0  0  0  0  0
  192.6650  173.5190  143.7100 C   0  0  0  0  0  3  0  0  0  0  0  0
  191.4270  173.4490  142.8700 C   0  0  0  0  0  2  0  0  0  0  0  0
  190.1930  173.8280  143.6740 C   0  0  0  0  0  2  0  0  0  0  0  0
  188.9820  173.9070  142.7670 C   0  0  0  0  0  2  0  0  0  0  0  0
  188.8490  175.2030  142.2720 O   0  0  0  0  0  0  0  0  0  0  0  0
  187.4830  175.3490  142.0120 C   0  0  0  0  0  2  0  0  0  0  0  0
  187.8580  177.5550  142.7920 O   0  0  0  0  0  0  0  0  0  0  0  0
  184.9980  178.1820  142.9960 C   0  0  0  0  0  0  0  0  0  0  0  0
  183.7440  178.2910  142.9600 O   0  0  0  0  0  0  0  0  0  0  0  0
  187.0060  176.6910  142.4540 C   0  0  0  0  0  0  0  0  0  0  0  0
  185.6030  176.9660  142.5400 N   0  0  0  0  0  2  0  0  0  0  0  0
  185.8010  179.3130  143.5460 C   0  0  0  0  0  2  0  0  0  0  0  0
  185.7430  179.2980  145.0600 C   0  0  0  0  0  1  0  0  0  0  0  0
  1 16  1  0  0  0  0
  1  3  1  0  0  0  0
  1 31  1  1  0  0  0
  3  2  1  1  0  0  0
  5  4  1  1  0  0  0
  5  6  1  0  0  0  0
  5  3  1  0  0  0  0
  7  6  1  0  0  0  0
  7 14  1  0  0  0  0
  8 11  2  0  0  0  0
  9  8  1  0  0  0  0
 10 15  2  0  0  0  0
 11 15  1  0  0  0  0
 11 12  1  0  0  0  0
 13 14  2  0  0  0  0
 13  9  1  0  0  0  0
 14 10  1  0  0  0  0
 16 17  2  0  0  0  0
 18 23  1  0  0  0  0
 19 26  1  0  0  0  0
 20 21  2  0  0  0  0
 21 29  1  0  0  0  0
 21 18  1  0  0  0  0
 23 22  2  0  0  0  0
 24 16  1  1  0  0  0
 24 29  1  0  0  0  0
 25 18  2  0  0  0  0
 26 20  1  0  0  0  0
 26 25  1  0  0  0  0
 27 24  1  0  0  0  0
 28 27  2  0  0  0  0
 28 20  1  0  0  0  0
 29 30  2  0  0  0  0
 30 22  1  0  0  0  0
 32 31  1  0  0  0  0
 33 32  2  0  0  0  0
 34 35  1  0  0  0  0
 34 33  1  0  0  0  0
 36 35  1  0  0  0  0
 37 36  1  0  0  0  0
 38 37  1  0  0  0  0
 38 42  1  0  0  0  0
 40 44  1  0  0  0  0
 41 40  2  0  0  0  0
 42 43  1  0  0  0  0
 42 39  2  0  0  0  0
 43 40  1  0  0  0  0
 44 45  1  0  0  0  0
M  END
>  <MODEL>
7

>  <REMARK>
 VINA RESULT:      -6.0      2.441      3.902
  Name = 
  16 active torsions:
  status: ('A' for Active; 'I' for Inactive)
    1  A    between atoms: C_1  and  C_22
    2  A    between atoms: C_1  and  C_24
    3  A    between atoms: C_3  and  C_18
    4  A    between atoms: C_3  and  C_40
    5  A    between atoms: C_7  and  C_32
    6  A    between atoms: C_7  and  O_36
    7  A    between atoms: C_11  and  C_31
    8  A    between atoms: C_16  and  C_20
    9  A    between atoms: C_16  and  C_38
   10  A    between atoms: C_19  and  C_40
   11  A    between atoms: C_19  and  C_41
   12  A    between atoms: C_20  and  C_41
   13  A    between atoms: C_21  and  C_22
   14  A    between atoms: C_21  and  O_36
   15  A    between atoms: C_23  and  C_29
   16  A    between atoms: C_29  and  C_40
                            x       y       z     vdW  Elec       q    Type
                         _______ _______ _______ _____ _____    ______ ____

>  <TORSDO>
F 16

$$$$
=
 OpenBabel11042414183D

 45 48  0  0  1  0  0  0  0  0999 V2000
  195.3630  174.7860  144.8190 C   0  0  1  0  0  3  0  0  0  0  0  0
  196.2170  176.9030  144.0610 O   0  0  0  0  0  1  0  0  0  0  0  0
  196.1130  175.5510  143.7130 C   0  0  2  0  0  3  0  0  0  0  0  0
  196.2170  175.9100  141.2860 N   0  0  0  0  0  1  0  0  0  0  0  0
  195.3820  175.4170  142.3670 C   0  0  2  0  0  3  0  0  0  0  0  0
  194.0670  176.1940  142.3760 C   0  0  0  0  0  2  0  0  0  0  0  0
  192.8860  175.2400  142.2910 C   0  0  0  0  0  2  0  0  0  0  0  0
  189.3970  177.8890  143.1850 C   0  0  0  0  0  3  0  0  0  0  0  0
  190.6540  177.8590  143.9860 C   0  0  0  0  0  2  0  0  0  0  0  0
  190.4900  175.0130  143.1180 C   0  0  0  0  0  3  0  0  0  0  0  0
  188.7410  176.7890  142.8020 C   0  0  0  0  0  0  0  0  0  0  0  0
  187.5500  176.9400  142.1790 F   0  0  0  0  0  0  0  0  0  0  0  0
  191.7510  177.1450  143.2680 C   0  0  0  0  0  3  0  0  0  0  0  0
  191.6820  175.8620  142.9080 C   0  0  0  0  0  0  0  0  0  0  0  0
  189.2130  175.4170  143.0730 C   0  0  0  0  0  3  0  0  0  0  0  0
  196.1670  173.6340  145.3580 C   0  0  0  0  0  0  0  0  0  0  0  0
  196.9970  173.8410  146.2310 O   0  0  0  0  0  0  0  0  0  0  0  0
  193.3450  171.5960  142.2150 C   0  0  0  0  0  0  0  0  0  0  0  0
  195.7760  170.8810  139.7150 C   0  0  0  0  0  1  0  0  0  0  0  0
  195.4970  171.6890  142.0700 C   0  0  0  0  0  0  0  0  0  0  0  0
  194.4730  171.8820  142.8980 C   0  0  2  0  0  3  0  0  0  0  0  0
  192.1290  171.8530  144.2620 C   0  0  0  0  0  3  0  0  0  0  0  0
  192.1180  171.5720  142.8690 C   0  0  0  0  0  3  0  0  0  0  0  0
  195.9580  172.2410  144.8300 C   0  0  0  0  0  0  0  0  0  0  0  0
  193.6690  171.2230  140.9550 N   0  0  0  0  0  0  0  0  0  0  0  0
  195.0030  171.2820  140.8810 N   0  0  0  0  0  0  0  0  0  0  0  0
  197.0730  171.8820  143.8190 C   0  0  0  0  0  3  0  0  0  0  0  0
  196.8440  171.6390  142.5510 N   0  0  0  0  0  0  0  0  0  0  0  0
  194.5630  172.0920  144.2450 C   0  0  0  0  0  0  0  0  0  0  0  0
  193.3490  172.1000  144.9550 C   0  0  0  0  0  3  0  0  0  0  0  0
  194.9420  175.6990  145.9640 C   0  0  0  0  0  2  0  0  0  0  0  0
  193.4830  175.5250  146.2260 C   0  0  0  0  0  3  0  0  0  0  0  0
  192.8090  176.4660  146.8800 C   0  0  0  0  0  3  0  0  0  0  0  0
  191.3410  176.3290  147.1420 C   0  0  0  0  0  2  0  0  0  0  0  0
  190.8620  174.9120  146.8670 C   0  0  0  0  0  2  0  0  0  0  0  0
  189.3710  174.8070  147.1140 C   0  0  0  0  0  2  0  0  0  0  0  0
  188.7040  175.7980  146.3960 O   0  0  0  0  0  0  0  0  0  0  0  0
  187.5330  176.0400  147.1200 C   0  0  0  0  0  2  0  0  0  0  0  0
  186.5560  178.1980  147.0500 O   0  0  0  0  0  0  0  0  0  0  0  0
  185.2340  177.7330  144.4710 C   0  0  0  0  0  0  0  0  0  0  0  0
  184.7990  177.3800  143.3440 O   0  0  0  0  0  0  0  0  0  0  0  0
  186.7170  177.0980  146.4580 C   0  0  0  0  0  0  0  0  0  0  0  0
  186.0870  176.8400  145.1980 N   0  0  0  0  0  2  0  0  0  0  0  0
  184.8140  179.0550  145.0200 C   0  0  0  0  0  2  0  0  0  0  0  0
  185.4900  180.1720  144.2510 C   0  0  0  0  0  1  0  0  0  0  0  0
  1 16  1  0  0  0  0
  1 31  1  1  0  0  0
  3  2  1  1  0  0  0
  3  1  1  0  0  0  0
  5  4  1  6  0  0  0
  5  6  1  0  0  0  0
  5  3  1  0  0  0  0
  7  6  1  0  0  0  0
  7 14  1  0  0  0  0
  8  9  1  0  0  0  0
 11 15  1  0  0  0  0
 11  8  2  0  0  0  0
 12 11  1  0  0  0  0
 13  9  1  0  0  0  0
 14 10  1  0  0  0  0
 14 13  2  0  0  0  0
 15 10  2  0  0  0  0
 16 17  2  0  0  0  0
 18 23  1  0  0  0  0
 18 21  1  0  0  0  0
 19 26  1  0  0  0  0
 20 28  2  0  0  0  0
 21 20  1  1  0  0  0
 21 29  1  0  0  0  0
 22 30  1  0  0  0  0
 23 22  2  0  0  0  0
 24 16  1  0  0  0  0
 25 18  2  0  0  0  0
 26 25  1  0  0  0  0
 26 20  1  0  0  0  0
 27 24  2  0  0  0  0
 28 27  1  0  0  0  0
 29 24  1  0  0  0  0
 29 30  2  0  0  0  0
 31 32  1  0  0  0  0
 32 33  2  0  0  0  0
 33 34  1  0  0  0  0
 35 36  1  0  0  0  0
 35 34  1  0  0  0  0
 37 36  1  0  0  0  0
 37 38  1  0  0  0  0
 40 44  1  0  0  0  0
 40 43  1  0  0  0  0
 41 40  2  0  0  0  0
 42 39  2  0  0  0  0
 42 38  1  0  0  0  0
 43 42  1  0  0  0  0
 45 44  1  0  0  0  0
M  END
>  <MODEL>
8

>  <REMARK>
 VINA RESULT:      -6.0      2.409      3.854
  Name = 
  16 active torsions:
  status: ('A' for Active; 'I' for Inactive)
    1  A    between atoms: C_1  and  C_22
    2  A    between atoms: C_1  and  C_24
    3  A    between atoms: C_3  and  C_18
    4  A    between atoms: C_3  and  C_40
    5  A    between atoms: C_7  and  C_32
    6  A    between atoms: C_7  and  O_36
    7  A    between atoms: C_11  and  C_31
    8  A    between atoms: C_16  and  C_20
    9  A    between atoms: C_16  and  C_38
   10  A    between atoms: C_19  and  C_40
   11  A    between atoms: C_19  and  C_41
   12  A    between atoms: C_20  and  C_41
   13  A    between atoms: C_21  and  C_22
   14  A    between atoms: C_21  and  O_36
   15  A    between atoms: C_23  and  C_29
   16  A    between atoms: C_29  and  C_40
                            x       y       z     vdW  Elec       q    Type
                         _______ _______ _______ _____ _____    ______ ____

>  <TORSDO>
F 16

$$$$
=
 OpenBabel11042414183D

 45 48  0  0  1  0  0  0  0  0999 V2000
  189.8780  175.4320  145.4020 C   0  0  1  0  0  3  0  0  0  0  0  0
  189.3490  174.6530  147.6150 O   0  0  0  0  0  1  0  0  0  0  0  0
  190.4110  174.8490  146.7240 C   0  0  2  0  0  3  0  0  0  0  0  0
  190.7980  176.9600  147.9180 N   0  0  0  0  0  1  0  0  0  0  0  0
  191.4500  175.7920  147.3540 C   0  0  2  0  0  3  0  0  0  0  0  0
  192.4800  176.2440  146.3220 C   0  0  0  0  0  2  0  0  0  0  0  0
  193.8860  176.1320  146.8900 C   0  0  0  0  0  2  0  0  0  0  0  0
  196.2020  173.9290  143.7640 C   0  0  0  0  0  3  0  0  0  0  0  0
  196.7610  174.3520  145.0800 C   0  0  0  0  0  2  0  0  0  0  0  0
  194.8340  176.5650  144.5680 C   0  0  0  0  0  3  0  0  0  0  0  0
  195.4880  174.7360  142.9740 C   0  0  0  0  0  0  0  0  0  0  0  0
  195.1310  174.2810  141.7510 F   0  0  0  0  0  0  0  0  0  0  0  0
  195.6860  174.7540  146.0350 C   0  0  0  0  0  3  0  0  0  0  0  0
  194.8450  175.7650  145.8110 C   0  0  0  0  0  0  0  0  0  0  0  0
  195.1140  176.1180  143.3360 C   0  0  0  0  0  3  0  0  0  0  0  0
  190.1730  174.5380  144.2280 C   0  0  0  0  0  0  0  0  0  0  0  0
  189.3150  173.7560  143.8430 O   0  0  0  0  0  0  0  0  0  0  0  0
  193.3120  171.4250  142.6630 C   0  0  0  0  0  0  0  0  0  0  0  0
  192.8300  171.9080  139.1690 C   0  0  0  0  0  1  0  0  0  0  0  0
  192.2290  172.8220  141.4230 C   0  0  0  0  0  0  0  0  0  0  0  0
  192.5280  172.5230  142.6850 C   0  0  2  0  0  3  0  0  0  0  0  0
  193.6360  171.6990  145.0190 C   0  0  0  0  0  3  0  0  0  0  0  0
  193.9000  170.9600  143.8340 C   0  0  0  0  0  3  0  0  0  0  0  0
  191.5060  174.5970  143.5350 C   0  0  0  0  0  0  0  0  0  0  0  0
  193.5000  171.0370  141.3790 N   0  0  0  0  0  0  0  0  0  0  0  0
  192.8260  171.9120  140.6240 N   0  0  0  0  0  0  0  0  0  0  0  0
  191.3120  174.9120  142.0330 C   0  0  0  0  0  3  0  0  0  0  0  0
  191.6430  174.0800  141.0750 N   0  0  0  0  0  0  0  0  0  0  0  0
  192.2910  173.3170  143.7710 C   0  0  0  0  0  0  0  0  0  0  0  0
  192.8450  172.8840  144.9900 C   0  0  0  0  0  3  0  0  0  0  0  0
  188.3840  175.7230  145.4640 C   0  0  0  0  0  2  0  0  0  0  0  0
  188.1560  176.9740  146.2450 C   0  0  0  0  0  3  0  0  0  0  0  0
  186.9750  177.1950  146.8150 C   0  0  0  0  0  3  0  0  0  0  0  0
  186.7210  178.4310  147.6210 C   0  0  0  0  0  2  0  0  0  0  0  0
  185.3670  179.0380  147.2890 C   0  0  0  0  0  2  0  0  0  0  0  0
  185.2090  179.1780  145.7880 C   0  0  0  0  0  2  0  0  0  0  0  0
  184.1810  178.3480  145.3440 O   0  0  0  0  0  0  0  0  0  0  0  0
  184.0640  178.6220  143.9780 C   0  0  0  0  0  2  0  0  0  0  0  0
  186.0470  179.4160  142.9530 O   0  0  0  0  0  0  0  0  0  0  0  0
  187.0020  176.7280  142.2590 C   0  0  0  0  0  0  0  0  0  0  0  0
  187.2780  175.5110  142.1010 O   0  0  0  0  0  0  0  0  0  0  0  0
  185.3680  178.4090  143.2870 C   0  0  0  0  0  0  0  0  0  0  0  0
  185.8060  177.0840  142.9640 N   0  0  0  0  0  2  0  0  0  0  0  0
  187.9140  177.7530  141.6730 C   0  0  0  0  0  2  0  0  0  0  0  0
  189.1520  177.8960  142.5360 C   0  0  0  0  0  1  0  0  0  0  0  0
  1 31  1  1  0  0  0
  1  3  1  0  0  0  0
  3  5  1  0  0  0  0
  3  2  1  1  0  0  0
  5  4  1  6  0  0  0
  6  7  1  0  0  0  0
  6  5  1  0  0  0  0
  8  9  1  0  0  0  0
  9 13  1  0  0  0  0
 10 14  1  0  0  0  0
 11 15  1  0  0  0  0
 11  8  2  0  0  0  0
 12 11  1  0  0  0  0
 14 13  2  0  0  0  0
 14  7  1  0  0  0  0
 15 10  2  0  0  0  0
 16  1  1  0  0  0  0
 17 16  2  0  0  0  0
 18 21  1  0  0  0  0
 18 23  1  0  0  0  0
 19 26  1  0  0  0  0
 21 20  1  6  0  0  0
 21 29  1  0  0  0  0
 23 22  2  0  0  0  0
 24 29  1  0  0  0  0
 24 16  1  0  0  0  0
 25 18  2  0  0  0  0
 26 25  1  0  0  0  0
 26 20  1  0  0  0  0
 27 24  2  0  0  0  0
 28 20  2  0  0  0  0
 28 27  1  0  0  0  0
 29 30  2  0  0  0  0
 30 22  1  0  0  0  0
 31 32  1  0  0  0  0
 32 33  2  0  0  0  0
 33 34  1  0  0  0  0
 35 34  1  0  0  0  0
 36 35  1  0  0  0  0
 37 36  1  0  0  0  0
 38 37  1  0  0  0  0
 39 42  2  0  0  0  0
 40 43  1  0  0  0  0
 41 40  2  0  0  0  0
 42 38  1  0  0  0  0
 43 42  1  0  0  0  0
 44 40  1  0  0  0  0
 44 45  1  0  0  0  0
M  END
>  <MODEL>
9

>  <REMARK>
 VINA RESULT:      -5.8      2.453      4.969
  Name = 
  16 active torsions:
  status: ('A' for Active; 'I' for Inactive)
    1  A    between atoms: C_1  and  C_22
    2  A    between atoms: C_1  and  C_24
    3  A    between atoms: C_3  and  C_18
    4  A    between atoms: C_3  and  C_40
    5  A    between atoms: C_7  and  C_32
    6  A    between atoms: C_7  and  O_36
    7  A    between atoms: C_11  and  C_31
    8  A    between atoms: C_16  and  C_20
    9  A    between atoms: C_16  and  C_38
   10  A    between atoms: C_19  and  C_40
   11  A    between atoms: C_19  and  C_41
   12  A    between atoms: C_20  and  C_41
   13  A    between atoms: C_21  and  C_22
   14  A    between atoms: C_21  and  O_36
   15  A    between atoms: C_23  and  C_29
   16  A    between atoms: C_29  and  C_40
                            x       y       z     vdW  Elec       q    Type
                         _______ _______ _______ _____ _____    ______ ____

>  <TORSDO>
F 16

$$$$
