=
 OpenBabel11042416503D

 29 30  0  0  1  0  0  0  0  0999 V2000
  189.4510  175.9790  142.5800 C   0  0  0  0  0  3  0  0  0  0  0  0
  188.2220  175.4090  142.6730 N   0  0  0  0  0  0  0  0  0  0  0  0
  187.2970  175.8800  143.5110 N   0  0  0  0  0  0  0  0  0  0  0  0
  189.7650  177.0830  143.3770 C   0  0  0  0  0  0  0  0  0  0  0  0
  187.5370  176.9530  144.3140 C   0  0  0  0  0  0  0  0  0  0  0  0
  188.7920  177.5670  144.2540 C   0  0  0  0  0  3  0  0  0  0  0  0
  186.5040  177.0810  146.6020 C   0  0  0  0  0  0  0  0  0  0  0  0
  184.4940  178.3680  147.0080 C   0  0  0  0  0  3  0  0  0  0  0  0
  185.5140  177.5420  147.4730 C   0  0  0  0  0  3  0  0  0  0  0  0
  185.4400  178.2860  144.7700 C   0  0  0  0  0  0  0  0  0  0  0  0
  187.5140  176.2740  147.1130 O   0  0  0  0  0  1  0  0  0  0  0  0
  186.4840  177.4490  145.2380 C   0  0  0  0  0  0  0  0  0  0  0  0
  184.4580  178.7380  145.6660 C   0  0  0  0  0  3  0  0  0  0  0  0
  185.3800  178.6440  143.4170 O   0  0  0  0  0  0  0  0  0  0  0  0
  184.2350  178.4240  142.6050 C   0  0  0  0  0  2  0  0  0  0  0  0
  184.6670  177.9710  141.2250 C   0  0  1  0  0  3  0  0  0  0  0  0
  183.9750  178.6960  140.2540 O   0  0  0  0  0  1  0  0  0  0  0  0
  186.1590  178.1990  141.0670 C   0  0  0  0  0  2  0  0  0  0  0  0
  186.7030  177.2630  140.0990 N   0  0  0  0  0  1  0  0  0  0  0  0
  191.2200  178.9430  143.6170 O   0  0  0  0  0  0  0  0  0  0  0  0
  191.0890  177.7300  143.2970 C   0  0  0  0  0  0  0  0  0  0  0  0
  192.2870  176.9820  142.8070 C   0  0  0  0  0  2  0  0  0  0  0  0
  192.8160  176.6710  145.2540 N   0  0  0  0  0  2  0  0  0  0  0  0
  192.8860  176.1840  143.9140 C   0  0  0  0  0  0  0  0  0  0  0  0
  193.4260  175.0740  143.6610 O   0  0  0  0  0  0  0  0  0  0  0  0
  193.3690  175.9270  146.3750 C   0  0  0  0  0  2  0  0  0  0  0  0
  192.2820  175.0970  147.0360 C   0  0  0  0  0  2  0  0  0  0  0  0
  190.1950  174.6450  145.9630 O   0  0  0  0  0  1  0  0  0  0  0  0
  190.9010  175.6180  146.6710 C   0  0  0  0  0  2  0  0  0  0  0  0
  1  2  2  0  0  0  0
  1  4  1  0  0  0  0
  2  3  1  0  0  0  0
  3  5  2  0  0  0  0
  4  6  2  0  0  0  0
  5 12  1  0  0  0  0
  6  5  1  0  0  0  0
  7 11  1  0  0  0  0
  7  9  1  0  0  0  0
  8  9  2  0  0  0  0
 10 12  1  0  0  0  0
 10 13  2  0  0  0  0
 12  7  2  0  0  0  0
 13  8  1  0  0  0  0
 14 10  1  0  0  0  0
 15 14  1  0  0  0  0
 16 17  1  6  0  0  0
 16 15  1  0  0  0  0
 18 16  1  0  0  0  0
 19 18  1  0  0  0  0
 21  4  1  0  0  0  0
 21 20  2  0  0  0  0
 22 21  1  0  0  0  0
 22 24  1  0  0  0  0
 23 26  1  0  0  0  0
 24 23  1  0  0  0  0
 25 24  2  0  0  0  0
 26 27  1  0  0  0  0
 28 29  1  0  0  0  0
 29 27  1  0  0  0  0
M  END
>  <MODEL>
1

>  <REMARK>
 VINA RESULT:      -6.2      0.000      0.000
  Name = 
  11 active torsions:
  status: ('A' for Active; 'I' for Inactive)
    1  A    between atoms: C_3  and  C_19
    2  A    between atoms: C_5  and  O_6
    3  A    between atoms: C_5  and  C_9
    4  A    between atoms: O_6  and  C_14
    5  A    between atoms: C_9  and  C_25
    6  A    between atoms: C_11  and  C_18
    7  A    between atoms: C_11  and  C_24
    8  A    between atoms: C_13  and  N_17
    9  A    between atoms: C_13  and  C_19
   10  A    between atoms: C_15  and  C_24
   11  A    between atoms: C_20  and  C_22
                            x       y       z     vdW  Elec       q    Type
                         _______ _______ _______ _____ _____    ______ ____

>  <TORSDO>
F 11

$$$$
=
 OpenBabel11042416503D

 29 30  0  0  1  0  0  0  0  0999 V2000
  190.1520  176.2560  142.6000 C   0  0  0  0  0  3  0  0  0  0  0  0
  189.7990  177.5670  142.5720 N   0  0  0  0  0  0  0  0  0  0  0  0
  188.5420  177.9450  142.3330 N   0  0  0  0  0  0  0  0  0  0  0  0
  189.1850  175.2730  142.3720 C   0  0  0  0  0  0  0  0  0  0  0  0
  187.5520  177.0390  142.1050 C   0  0  0  0  0  0  0  0  0  0  0  0
  187.8730  175.6780  142.1180 C   0  0  0  0  0  3  0  0  0  0  0  0
  185.7330  177.7290  140.5130 C   0  0  0  0  0  0  0  0  0  0  0  0
  183.5390  178.3740  141.3070 C   0  0  0  0  0  3  0  0  0  0  0  0
  184.4300  178.1630  140.2580 C   0  0  0  0  0  3  0  0  0  0  0  0
  185.2530  177.7190  142.9020 C   0  0  0  0  0  0  0  0  0  0  0  0
  186.5830  177.5130  139.4340 O   0  0  0  0  0  1  0  0  0  0  0  0
  186.1630  177.4970  141.8390 C   0  0  0  0  0  0  0  0  0  0  0  0
  183.9480  178.1520  142.6200 C   0  0  0  0  0  3  0  0  0  0  0  0
  185.6620  177.5230  144.2270 O   0  0  0  0  0  0  0  0  0  0  0  0
  185.5500  178.5230  145.2310 C   0  0  0  0  0  2  0  0  0  0  0  0
  184.9880  177.9130  146.4990 C   0  0  1  0  0  3  0  0  0  0  0  0
  184.8890  176.5280  146.3500 O   0  0  0  0  0  1  0  0  0  0  0  0
  185.9070  178.2380  147.6620 C   0  0  0  0  0  2  0  0  0  0  0  0
  186.0450  179.6780  147.7940 N   0  0  0  0  0  1  0  0  0  0  0  0
  188.9390  173.0290  141.6380 O   0  0  0  0  0  0  0  0  0  0  0  0
  189.5330  173.8390  142.4010 C   0  0  0  0  0  0  0  0  0  0  0  0
  190.5630  173.3120  143.3490 C   0  0  0  0  0  2  0  0  0  0  0  0
  190.0450  174.3530  145.5870 N   0  0  0  0  0  2  0  0  0  0  0  0
  189.9980  173.2180  144.7250 C   0  0  0  0  0  0  0  0  0  0  0  0
  189.4580  172.1440  145.1050 O   0  0  0  0  0  0  0  0  0  0  0  0
  189.4950  174.3230  146.9330 C   0  0  0  0  0  2  0  0  0  0  0  0
  188.5010  175.4580  147.1150 C   0  0  0  0  0  2  0  0  0  0  0  0
  189.0080  177.5080  145.9970 O   0  0  0  0  0  1  0  0  0  0  0  0
  188.3690  176.2770  145.8410 C   0  0  0  0  0  2  0  0  0  0  0  0
  2  1  1  0  0  0  0
  3  2  2  0  0  0  0
  4 21  1  0  0  0  0
  4  1  2  0  0  0  0
  5  6  2  0  0  0  0
  5  3  1  0  0  0  0
  6  4  1  0  0  0  0
  7 12  1  0  0  0  0
  8 13  2  0  0  0  0
  9  7  2  0  0  0  0
  9  8  1  0  0  0  0
 10 14  1  0  0  0  0
 11  7  1  0  0  0  0
 12  5  1  0  0  0  0
 12 10  2  0  0  0  0
 13 10  1  0  0  0  0
 14 15  1  0  0  0  0
 15 16  1  0  0  0  0
 16 17  1  6  0  0  0
 16 18  1  0  0  0  0
 18 19  1  0  0  0  0
 20 21  2  0  0  0  0
 21 22  1  0  0  0  0
 22 24  1  0  0  0  0
 23 26  1  0  0  0  0
 24 25  2  0  0  0  0
 24 23  1  0  0  0  0
 26 27  1  0  0  0  0
 29 28  1  0  0  0  0
 29 27  1  0  0  0  0
M  END
>  <MODEL>
2

>  <REMARK>
 VINA RESULT:      -6.2      2.407      4.630
  Name = 
  11 active torsions:
  status: ('A' for Active; 'I' for Inactive)
    1  A    between atoms: C_3  and  C_19
    2  A    between atoms: C_5  and  O_6
    3  A    between atoms: C_5  and  C_9
    4  A    between atoms: O_6  and  C_14
    5  A    between atoms: C_9  and  C_25
    6  A    between atoms: C_11  and  C_18
    7  A    between atoms: C_11  and  C_24
    8  A    between atoms: C_13  and  N_17
    9  A    between atoms: C_13  and  C_19
   10  A    between atoms: C_15  and  C_24
   11  A    between atoms: C_20  and  C_22
                            x       y       z     vdW  Elec       q    Type
                         _______ _______ _______ _____ _____    ______ ____

>  <TORSDO>
F 11

$$$$
=
 OpenBabel11042416503D

 29 30  0  0  1  0  0  0  0  0999 V2000
  190.3970  175.2830  146.7340 C   0  0  0  0  0  3  0  0  0  0  0  0
  189.1900  174.9050  147.2280 N   0  0  0  0  0  0  0  0  0  0  0  0
  188.0750  175.5750  146.9310 N   0  0  0  0  0  0  0  0  0  0  0  0
  190.4840  176.3970  145.8960 C   0  0  0  0  0  0  0  0  0  0  0  0
  188.0900  176.6680  146.1190 C   0  0  0  0  0  0  0  0  0  0  0  0
  189.3130  177.0950  145.5940 C   0  0  0  0  0  3  0  0  0  0  0  0
  186.2790  178.2910  146.7530 C   0  0  0  0  0  0  0  0  0  0  0  0
  184.4340  178.7700  145.2600 C   0  0  0  0  0  3  0  0  0  0  0  0
  185.0910  178.9710  146.4710 C   0  0  0  0  0  3  0  0  0  0  0  0
  186.1520  177.1870  144.5840 C   0  0  0  0  0  0  0  0  0  0  0  0
  186.9110  178.5370  147.9670 O   0  0  0  0  0  1  0  0  0  0  0  0
  186.8280  177.3920  145.8130 C   0  0  0  0  0  0  0  0  0  0  0  0
  184.9620  177.8850  144.3230 C   0  0  0  0  0  3  0  0  0  0  0  0
  186.6600  176.2810  143.6460 O   0  0  0  0  0  0  0  0  0  0  0  0
  186.7910  176.5850  142.2630 C   0  0  0  0  0  2  0  0  0  0  0  0
  188.2280  176.3750  141.8280 C   0  0  1  0  0  3  0  0  0  0  0  0
  188.9750  177.5210  142.1060 O   0  0  0  0  0  1  0  0  0  0  0  0
  188.8090  175.1900  142.5770 C   0  0  0  0  0  2  0  0  0  0  0  0
  190.2330  175.0880  142.3120 N   0  0  0  0  0  1  0  0  0  0  0  0
  191.8140  177.4990  144.2670 O   0  0  0  0  0  0  0  0  0  0  0  0
  191.7790  176.8310  145.3360 C   0  0  0  0  0  0  0  0  0  0  0  0
  193.0690  176.4650  145.9980 C   0  0  0  0  0  2  0  0  0  0  0  0
  195.2620  176.3370  144.7560 N   0  0  0  0  0  2  0  0  0  0  0  0
  193.9730  175.7870  145.0260 C   0  0  0  0  0  0  0  0  0  0  0  0
  193.6020  174.7170  144.4720 O   0  0  0  0  0  0  0  0  0  0  0  0
  196.1900  175.7090  143.8300 C   0  0  0  0  0  2  0  0  0  0  0  0
  196.7970  176.7560  142.9100 C   0  0  0  0  0  2  0  0  0  0  0  0
  195.3330  175.5870  141.4260 O   0  0  0  0  0  1  0  0  0  0  0  0
  196.1510  176.7120  141.5350 C   0  0  0  0  0  2  0  0  0  0  0  0
  1  2  1  0  0  0  0
  3  2  2  0  0  0  0
  4  1  2  0  0  0  0
  5  3  1  0  0  0  0
  6  4  1  0  0  0  0
  6  5  2  0  0  0  0
  7 11  1  0  0  0  0
  8  9  2  0  0  0  0
  9  7  1  0  0  0  0
 10 12  1  0  0  0  0
 12  5  1  0  0  0  0
 12  7  2  0  0  0  0
 13 10  2  0  0  0  0
 13  8  1  0  0  0  0
 14 10  1  0  0  0  0
 15 14  1  0  0  0  0
 16 17  1  1  0  0  0
 16 15  1  0  0  0  0
 16 18  1  0  0  0  0
 19 18  1  0  0  0  0
 20 21  2  0  0  0  0
 21  4  1  0  0  0  0
 21 22  1  0  0  0  0
 23 24  1  0  0  0  0
 24 22  1  0  0  0  0
 25 24  2  0  0  0  0
 26 23  1  0  0  0  0
 27 26  1  0  0  0  0
 28 29  1  0  0  0  0
 29 27  1  0  0  0  0
M  END
>  <MODEL>
3

>  <REMARK>
 VINA RESULT:      -6.1      2.265      3.597
  Name = 
  11 active torsions:
  status: ('A' for Active; 'I' for Inactive)
    1  A    between atoms: C_3  and  C_19
    2  A    between atoms: C_5  and  O_6
    3  A    between atoms: C_5  and  C_9
    4  A    between atoms: O_6  and  C_14
    5  A    between atoms: C_9  and  C_25
    6  A    between atoms: C_11  and  C_18
    7  A    between atoms: C_11  and  C_24
    8  A    between atoms: C_13  and  N_17
    9  A    between atoms: C_13  and  C_19
   10  A    between atoms: C_15  and  C_24
   11  A    between atoms: C_20  and  C_22
                            x       y       z     vdW  Elec       q    Type
                         _______ _______ _______ _____ _____    ______ ____

>  <TORSDO>
F 11

$$$$
=
 OpenBabel11042416503D

 29 30  0  0  1  0  0  0  0  0999 V2000
  189.7900  176.4990  142.6360 C   0  0  0  0  0  3  0  0  0  0  0  0
  189.4280  177.7910  142.8430 N   0  0  0  0  0  0  0  0  0  0  0  0
  188.4920  178.1170  143.7370 N   0  0  0  0  0  0  0  0  0  0  0  0
  189.1750  175.4810  143.3680 C   0  0  0  0  0  0  0  0  0  0  0  0
  187.8560  177.1740  144.4850 C   0  0  0  0  0  0  0  0  0  0  0  0
  188.1950  175.8310  144.2990 C   0  0  0  0  0  3  0  0  0  0  0  0
  187.1650  177.7890  146.8220 C   0  0  0  0  0  0  0  0  0  0  0  0
  184.8660  178.3270  147.3580 C   0  0  0  0  0  3  0  0  0  0  0  0
  186.1920  178.1630  147.7520 C   0  0  0  0  0  3  0  0  0  0  0  0
  185.4650  177.7380  145.0770 C   0  0  0  0  0  0  0  0  0  0  0  0
  188.4800  177.6560  147.2560 O   0  0  0  0  0  1  0  0  0  0  0  0
  186.8170  177.5740  145.4700 C   0  0  0  0  0  0  0  0  0  0  0  0
  184.5060  178.1160  146.0290 C   0  0  0  0  0  3  0  0  0  0  0  0
  185.0880  177.5050  143.7480 O   0  0  0  0  0  0  0  0  0  0  0  0
  184.7740  178.5480  142.8350 C   0  0  0  0  0  2  0  0  0  0  0  0
  185.4330  178.2710  141.4980 C   0  0  1  0  0  3  0  0  0  0  0  0
  186.0990  177.0440  141.5480 O   0  0  0  0  0  1  0  0  0  0  0  0
  184.3720  178.2330  140.4150 C   0  0  0  0  0  2  0  0  0  0  0  0
  183.0510  178.1820  141.0190 N   0  0  0  0  0  1  0  0  0  0  0  0
  189.4890  173.5500  142.0240 O   0  0  0  0  0  0  0  0  0  0  0  0
  189.5500  174.0670  143.1720 C   0  0  0  0  0  0  0  0  0  0  0  0
  189.9750  173.2130  144.3240 C   0  0  0  0  0  2  0  0  0  0  0  0
  191.3710  174.4740  146.0040 N   0  0  0  0  0  2  0  0  0  0  0  0
  191.3020  173.6580  144.8360 C   0  0  0  0  0  0  0  0  0  0  0  0
  192.3530  173.2870  144.2470 O   0  0  0  0  0  0  0  0  0  0  0  0
  192.6390  174.9240  146.5560 C   0  0  0  0  0  2  0  0  0  0  0  0
  192.7750  176.4280  146.3880 C   0  0  0  0  0  2  0  0  0  0  0  0
  194.7100  177.5130  145.4990 O   0  0  0  0  0  1  0  0  0  0  0  0
  194.2070  176.8770  146.6340 C   0  0  0  0  0  2  0  0  0  0  0  0
  1  2  2  0  0  0  0
  1  4  1  0  0  0  0
  2  3  1  0  0  0  0
  3  5  2  0  0  0  0
  4  6  2  0  0  0  0
  5 12  1  0  0  0  0
  6  5  1  0  0  0  0
  7 11  1  0  0  0  0
  7  9  1  0  0  0  0
  8  9  2  0  0  0  0
 10 12  1  0  0  0  0
 10 13  2  0  0  0  0
 12  7  2  0  0  0  0
 13  8  1  0  0  0  0
 14 10  1  0  0  0  0
 15 14  1  0  0  0  0
 16 17  1  1  0  0  0
 16 15  1  0  0  0  0
 18 19  1  0  0  0  0
 18 16  1  0  0  0  0
 20 21  2  0  0  0  0
 21  4  1  0  0  0  0
 21 22  1  0  0  0  0
 22 24  1  0  0  0  0
 23 26  1  0  0  0  0
 24 23  1  0  0  0  0
 25 24  2  0  0  0  0
 27 26  1  0  0  0  0
 27 29  1  0  0  0  0
 28 29  1  0  0  0  0
M  END
>  <MODEL>
4

>  <REMARK>
 VINA RESULT:      -6.1      1.977      2.602
  Name = 
  11 active torsions:
  status: ('A' for Active; 'I' for Inactive)
    1  A    between atoms: C_3  and  C_19
    2  A    between atoms: C_5  and  O_6
    3  A    between atoms: C_5  and  C_9
    4  A    between atoms: O_6  and  C_14
    5  A    between atoms: C_9  and  C_25
    6  A    between atoms: C_11  and  C_18
    7  A    between atoms: C_11  and  C_24
    8  A    between atoms: C_13  and  N_17
    9  A    between atoms: C_13  and  C_19
   10  A    between atoms: C_15  and  C_24
   11  A    between atoms: C_20  and  C_22
                            x       y       z     vdW  Elec       q    Type
                         _______ _______ _______ _____ _____    ______ ____

>  <TORSDO>
F 11

$$$$
=
 OpenBabel11042416503D

 29 30  0  0  1  0  0  0  0  0999 V2000
  190.3520  175.0960  147.0390 C   0  0  0  0  0  3  0  0  0  0  0  0
  189.1250  174.7290  147.4920 N   0  0  0  0  0  0  0  0  0  0  0  0
  188.0350  175.4440  147.2070 N   0  0  0  0  0  0  0  0  0  0  0  0
  190.4860  176.2470  146.2570 C   0  0  0  0  0  0  0  0  0  0  0  0
  188.0960  176.5740  146.4500 C   0  0  0  0  0  0  0  0  0  0  0  0
  189.3410  176.9910  145.9680 C   0  0  0  0  0  3  0  0  0  0  0  0
  186.3920  178.3130  147.0730 C   0  0  0  0  0  0  0  0  0  0  0  0
  184.5180  178.8190  145.6250 C   0  0  0  0  0  3  0  0  0  0  0  0
  185.2300  179.0390  146.8020 C   0  0  0  0  0  3  0  0  0  0  0  0
  186.1300  177.1240  144.9620 C   0  0  0  0  0  0  0  0  0  0  0  0
  187.0800  178.5790  148.2520 O   0  0  0  0  0  1  0  0  0  0  0  0
  186.8610  177.3470  146.1550 C   0  0  0  0  0  0  0  0  0  0  0  0
  184.9670  177.8680  144.7110 C   0  0  0  0  0  3  0  0  0  0  0  0
  186.5580  176.1530  144.0480 O   0  0  0  0  0  0  0  0  0  0  0  0
  186.7380  176.4150  142.6630 C   0  0  0  0  0  2  0  0  0  0  0  0
  188.1050  175.9280  142.2250 C   0  0  1  0  0  3  0  0  0  0  0  0
  188.0560  175.5310  140.8880 O   0  0  0  0  0  1  0  0  0  0  0  0
  189.1120  177.0510  142.3880 C   0  0  0  0  0  2  0  0  0  0  0  0
  188.5590  178.2910  141.8730 N   0  0  0  0  0  1  0  0  0  0  0  0
  191.8910  177.2340  144.6180 O   0  0  0  0  0  0  0  0  0  0  0  0
  191.8030  176.6700  145.7430 C   0  0  0  0  0  0  0  0  0  0  0  0
  193.0550  176.4130  146.5190 C   0  0  0  0  0  2  0  0  0  0  0  0
  195.2800  175.7050  145.5640 N   0  0  0  0  0  2  0  0  0  0  0  0
  193.9050  175.4140  145.8120 C   0  0  0  0  0  0  0  0  0  0  0  0
  193.4090  174.3090  145.4620 O   0  0  0  0  0  0  0  0  0  0  0  0
  196.1590  174.7610  144.8920 C   0  0  0  0  0  2  0  0  0  0  0  0
  196.7340  173.7780  145.8990 C   0  0  0  0  0  2  0  0  0  0  0  0
  196.8110  171.4010  146.1380 O   0  0  0  0  0  1  0  0  0  0  0  0
  197.0470  172.4440  145.2410 C   0  0  0  0  0  2  0  0  0  0  0  0
  1  2  1  0  0  0  0
  3  2  2  0  0  0  0
  4  1  2  0  0  0  0
  5  3  1  0  0  0  0
  6  4  1  0  0  0  0
  6  5  2  0  0  0  0
  7 11  1  0  0  0  0
  8  9  2  0  0  0  0
  9  7  1  0  0  0  0
 10 12  1  0  0  0  0
 12  5  1  0  0  0  0
 12  7  2  0  0  0  0
 13 10  2  0  0  0  0
 13  8  1  0  0  0  0
 14 10  1  0  0  0  0
 15 14  1  0  0  0  0
 16 17  1  6  0  0  0
 16 18  1  0  0  0  0
 16 15  1  0  0  0  0
 19 18  1  0  0  0  0
 20 21  2  0  0  0  0
 21  4  1  0  0  0  0
 21 22  1  0  0  0  0
 23 24  1  0  0  0  0
 24 22  1  0  0  0  0
 25 24  2  0  0  0  0
 26 23  1  0  0  0  0
 26 27  1  0  0  0  0
 29 27  1  0  0  0  0
 29 28  1  0  0  0  0
M  END
>  <MODEL>
5

>  <REMARK>
 VINA RESULT:      -6.0      2.651      3.522
  Name = 
  11 active torsions:
  status: ('A' for Active; 'I' for Inactive)
    1  A    between atoms: C_3  and  C_19
    2  A    between atoms: C_5  and  O_6
    3  A    between atoms: C_5  and  C_9
    4  A    between atoms: O_6  and  C_14
    5  A    between atoms: C_9  and  C_25
    6  A    between atoms: C_11  and  C_18
    7  A    between atoms: C_11  and  C_24
    8  A    between atoms: C_13  and  N_17
    9  A    between atoms: C_13  and  C_19
   10  A    between atoms: C_15  and  C_24
   11  A    between atoms: C_20  and  C_22
                            x       y       z     vdW  Elec       q    Type
                         _______ _______ _______ _____ _____    ______ ____

>  <TORSDO>
F 11

$$$$
=
 OpenBabel11042416503D

 29 30  0  0  1  0  0  0  0  0999 V2000
  189.8220  176.5000  142.7560 C   0  0  0  0  0  3  0  0  0  0  0  0
  189.7100  177.7570  143.2560 N   0  0  0  0  0  0  0  0  0  0  0  0
  188.7010  178.1000  144.0590 N   0  0  0  0  0  0  0  0  0  0  0  0
  188.8650  175.5360  143.0830 C   0  0  0  0  0  0  0  0  0  0  0  0
  187.7360  177.2080  144.4180 C   0  0  0  0  0  0  0  0  0  0  0  0
  187.8110  175.9040  143.9210 C   0  0  0  0  0  3  0  0  0  0  0  0
  186.6670  177.3150  146.6910 C   0  0  0  0  0  0  0  0  0  0  0  0
  184.5300  178.4000  147.0300 C   0  0  0  0  0  3  0  0  0  0  0  0
  185.6250  177.7030  147.5360 C   0  0  0  0  0  3  0  0  0  0  0  0
  185.5060  178.3310  144.8040 C   0  0  0  0  0  0  0  0  0  0  0  0
  187.7500  176.6370  147.2420 O   0  0  0  0  0  1  0  0  0  0  0  0
  186.6250  177.6260  145.3130 C   0  0  0  0  0  0  0  0  0  0  0  0
  184.4720  178.7130  145.6740 C   0  0  0  0  0  3  0  0  0  0  0  0
  185.4260  178.6290  143.4380 O   0  0  0  0  0  0  0  0  0  0  0  0
  184.3030  178.2950  142.6350 C   0  0  0  0  0  2  0  0  0  0  0  0
  184.7650  177.9230  141.2400 C   0  0  1  0  0  3  0  0  0  0  0  0
  184.0750  178.6870  140.2970 O   0  0  0  0  0  1  0  0  0  0  0  0
  186.2540  178.1870  141.1200 C   0  0  0  0  0  2  0  0  0  0  0  0
  186.9150  177.0320  140.5370 N   0  0  0  0  0  1  0  0  0  0  0  0
  187.9910  173.6490  141.9380 O   0  0  0  0  0  0  0  0  0  0  0  0
  188.9610  174.1580  142.5620 C   0  0  0  0  0  0  0  0  0  0  0  0
  190.1850  173.3290  142.7890 C   0  0  0  0  0  2  0  0  0  0  0  0
  191.9380  174.1300  144.4160 N   0  0  0  0  0  2  0  0  0  0  0  0
  190.6770  173.5050  144.1840 C   0  0  0  0  0  0  0  0  0  0  0  0
  189.9610  173.1250  145.1500 O   0  0  0  0  0  0  0  0  0  0  0  0
  192.4600  174.3420  145.7570 C   0  0  0  0  0  2  0  0  0  0  0  0
  192.4620  175.8260  146.0860 C   0  0  0  0  0  2  0  0  0  0  0  0
  190.8080  175.2760  147.7200 O   0  0  0  0  0  1  0  0  0  0  0  0
  191.1690  176.2340  146.7730 C   0  0  0  0  0  2  0  0  0  0  0  0
  1  4  2  0  0  0  0
  1  2  1  0  0  0  0
  2  3  2  0  0  0  0
  3  5  1  0  0  0  0
  4  6  1  0  0  0  0
  5 12  1  0  0  0  0
  6  5  2  0  0  0  0
  7 11  1  0  0  0  0
  7  9  1  0  0  0  0
  8  9  2  0  0  0  0
 10 12  1  0  0  0  0
 10 13  2  0  0  0  0
 12  7  2  0  0  0  0
 13  8  1  0  0  0  0
 14 10  1  0  0  0  0
 15 14  1  0  0  0  0
 16 17  1  6  0  0  0
 16 15  1  0  0  0  0
 18 16  1  0  0  0  0
 19 18  1  0  0  0  0
 20 21  2  0  0  0  0
 21 22  1  0  0  0  0
 21  4  1  0  0  0  0
 22 24  1  0  0  0  0
 23 26  1  0  0  0  0
 24 23  1  0  0  0  0
 24 25  2  0  0  0  0
 26 27  1  0  0  0  0
 27 29  1  0  0  0  0
 29 28  1  0  0  0  0
M  END
>  <MODEL>
6

>  <REMARK>
 VINA RESULT:      -6.0      1.816      2.260
  Name = 
  11 active torsions:
  status: ('A' for Active; 'I' for Inactive)
    1  A    between atoms: C_3  and  C_19
    2  A    between atoms: C_5  and  O_6
    3  A    between atoms: C_5  and  C_9
    4  A    between atoms: O_6  and  C_14
    5  A    between atoms: C_9  and  C_25
    6  A    between atoms: C_11  and  C_18
    7  A    between atoms: C_11  and  C_24
    8  A    between atoms: C_13  and  N_17
    9  A    between atoms: C_13  and  C_19
   10  A    between atoms: C_15  and  C_24
   11  A    between atoms: C_20  and  C_22
                            x       y       z     vdW  Elec       q    Type
                         _______ _______ _______ _____ _____    ______ ____

>  <TORSDO>
F 11

$$$$
=
 OpenBabel11042416503D

 29 30  0  0  1  0  0  0  0  0999 V2000
  189.7940  174.0320  142.3130 C   0  0  0  0  0  3  0  0  0  0  0  0
  188.5060  173.6240  142.1690 N   0  0  0  0  0  0  0  0  0  0  0  0
  187.4950  174.4950  142.1790 N   0  0  0  0  0  0  0  0  0  0  0  0
  190.0760  175.3910  142.4770 C   0  0  0  0  0  0  0  0  0  0  0  0
  187.7010  175.8320  142.3330 C   0  0  0  0  0  0  0  0  0  0  0  0
  189.0120  176.2940  142.4900 C   0  0  0  0  0  3  0  0  0  0  0  0
  186.1340  177.3980  141.1450 C   0  0  0  0  0  0  0  0  0  0  0  0
  184.3740  178.5620  142.3310 C   0  0  0  0  0  3  0  0  0  0  0  0
  185.0540  178.2840  141.1480 C   0  0  0  0  0  3  0  0  0  0  0  0
  185.8570  177.0630  143.5430 C   0  0  0  0  0  0  0  0  0  0  0  0
  186.7720  177.1340  139.9370 O   0  0  0  0  0  1  0  0  0  0  0  0
  186.5500  176.7720  142.3410 C   0  0  0  0  0  0  0  0  0  0  0  0
  184.7730  177.9550  143.5200 C   0  0  0  0  0  3  0  0  0  0  0  0
  186.2640  176.4770  144.7480 O   0  0  0  0  0  0  0  0  0  0  0  0
  185.6730  176.7870  146.0020 C   0  0  0  0  0  2  0  0  0  0  0  0
  186.7550  177.1360  147.0050 C   0  0  1  0  0  3  0  0  0  0  0  0
  187.9140  177.5220  146.3290 O   0  0  0  0  0  1  0  0  0  0  0  0
  186.2730  178.2720  147.8860 C   0  0  0  0  0  2  0  0  0  0  0  0
  185.2660  179.0490  147.1850 N   0  0  0  0  0  1  0  0  0  0  0  0
  192.4250  175.1640  142.2140 O   0  0  0  0  0  0  0  0  0  0  0  0
  191.4640  175.8680  142.6300 C   0  0  0  0  0  0  0  0  0  0  0  0
  191.7650  177.1680  143.3050 C   0  0  0  0  0  2  0  0  0  0  0  0
  191.4420  176.6690  145.7570 N   0  0  0  0  0  2  0  0  0  0  0  0
  192.3240  176.9270  144.6650 C   0  0  0  0  0  0  0  0  0  0  0  0
  193.5740  176.9250  144.8340 O   0  0  0  0  0  0  0  0  0  0  0  0
  191.9330  176.4110  147.1010 C   0  0  0  0  0  2  0  0  0  0  0  0
  191.0740  175.3550  147.7750 C   0  0  0  0  0  2  0  0  0  0  0  0
  188.9410  174.2890  147.6210 O   0  0  0  0  0  1  0  0  0  0  0  0
  189.9310  174.9230  146.8700 C   0  0  0  0  0  2  0  0  0  0  0  0
  1  4  1  0  0  0  0
  2  3  1  0  0  0  0
  2  1  2  0  0  0  0
  3  5  2  0  0  0  0
  4  6  2  0  0  0  0
  4 21  1  0  0  0  0
  5 12  1  0  0  0  0
  5  6  1  0  0  0  0
  7  9  2  0  0  0  0
  7 12  1  0  0  0  0
  8 13  2  0  0  0  0
  9  8  1  0  0  0  0
 10 14  1  0  0  0  0
 11  7  1  0  0  0  0
 12 10  2  0  0  0  0
 13 10  1  0  0  0  0
 14 15  1  0  0  0  0
 15 16  1  0  0  0  0
 16 17  1  6  0  0  0
 16 18  1  0  0  0  0
 19 18  1  0  0  0  0
 20 21  2  0  0  0  0
 21 22  1  0  0  0  0
 22 24  1  0  0  0  0
 23 26  1  0  0  0  0
 24 25  2  0  0  0  0
 24 23  1  0  0  0  0
 26 27  1  0  0  0  0
 29 28  1  0  0  0  0
 29 27  1  0  0  0  0
M  END
>  <MODEL>
7

>  <REMARK>
 VINA RESULT:      -6.0      1.819      3.927
  Name = 
  11 active torsions:
  status: ('A' for Active; 'I' for Inactive)
    1  A    between atoms: C_3  and  C_19
    2  A    between atoms: C_5  and  O_6
    3  A    between atoms: C_5  and  C_9
    4  A    between atoms: O_6  and  C_14
    5  A    between atoms: C_9  and  C_25
    6  A    between atoms: C_11  and  C_18
    7  A    between atoms: C_11  and  C_24
    8  A    between atoms: C_13  and  N_17
    9  A    between atoms: C_13  and  C_19
   10  A    between atoms: C_15  and  C_24
   11  A    between atoms: C_20  and  C_22
                            x       y       z     vdW  Elec       q    Type
                         _______ _______ _______ _____ _____    ______ ____

>  <TORSDO>
F 11

$$$$
=
 OpenBabel11042416503D

 29 30  0  0  1  0  0  0  0  0999 V2000
  190.4590  176.0440  146.5500 C   0  0  0  0  0  3  0  0  0  0  0  0
  190.0790  177.1720  147.2030 N   0  0  0  0  0  0  0  0  0  0  0  0
  188.8740  177.7130  147.0170 N   0  0  0  0  0  0  0  0  0  0  0  0
  189.5760  175.4280  145.6590 C   0  0  0  0  0  0  0  0  0  0  0  0
  187.9650  177.1620  146.1660 C   0  0  0  0  0  0  0  0  0  0  0  0
  188.3180  176.0030  145.4680 C   0  0  0  0  0  3  0  0  0  0  0  0
  185.6650  177.7230  147.0090 C   0  0  0  0  0  0  0  0  0  0  0  0
  184.0960  178.9760  145.6550 C   0  0  0  0  0  3  0  0  0  0  0  0
  184.4100  178.3130  146.8390 C   0  0  0  0  0  3  0  0  0  0  0  0
  186.3050  178.4650  144.7770 C   0  0  0  0  0  0  0  0  0  0  0  0
  185.9410  177.0880  148.2150 O   0  0  0  0  0  1  0  0  0  0  0  0
  186.6320  177.7930  145.9810 C   0  0  0  0  0  0  0  0  0  0  0  0
  185.0380  179.0510  144.6320 C   0  0  0  0  0  3  0  0  0  0  0  0
  187.2350  178.5250  143.7320 O   0  0  0  0  0  0  0  0  0  0  0  0
  186.8870  178.3260  142.3690 C   0  0  0  0  0  2  0  0  0  0  0  0
  188.0840  177.7880  141.6100 C   0  0  1  0  0  3  0  0  0  0  0  0
  189.1770  177.6820  142.4720 O   0  0  0  0  0  1  0  0  0  0  0  0
  187.7450  176.4230  141.0420 C   0  0  0  0  0  2  0  0  0  0  0  0
  187.5800  175.4660  142.1220 N   0  0  0  0  0  1  0  0  0  0  0  0
  189.7030  173.0680  145.4400 O   0  0  0  0  0  0  0  0  0  0  0  0
  189.9540  174.1970  144.9380 C   0  0  0  0  0  0  0  0  0  0  0  0
  190.6670  174.2590  143.6250 C   0  0  0  0  0  2  0  0  0  0  0  0
  192.9350  174.0980  144.7180 N   0  0  0  0  0  2  0  0  0  0  0  0
  192.0560  174.7660  143.8140 C   0  0  0  0  0  0  0  0  0  0  0  0
  192.4500  175.7660  143.1550 O   0  0  0  0  0  0  0  0  0  0  0  0
  194.3040  174.5400  144.9300 C   0  0  0  0  0  2  0  0  0  0  0  0
  194.3850  175.4050  146.1760 C   0  0  0  0  0  2  0  0  0  0  0  0
  195.3790  176.9950  144.6960 O   0  0  0  0  0  1  0  0  0  0  0  0
  194.5510  176.8720  145.8120 C   0  0  0  0  0  2  0  0  0  0  0  0
  1  2  1  0  0  0  0
  3  2  2  0  0  0  0
  4  1  2  0  0  0  0
  5  3  1  0  0  0  0
  6  4  1  0  0  0  0
  6  5  2  0  0  0  0
  7 11  1  0  0  0  0
  8  9  2  0  0  0  0
  9  7  1  0  0  0  0
 10 12  1  0  0  0  0
 12  5  1  0  0  0  0
 12  7  2  0  0  0  0
 13 10  2  0  0  0  0
 13  8  1  0  0  0  0
 14 10  1  0  0  0  0
 15 14  1  0  0  0  0
 16 15  1  0  0  0  0
 16 17  1  1  0  0  0
 18 16  1  0  0  0  0
 18 19  1  0  0  0  0
 21 20  2  0  0  0  0
 21  4  1  0  0  0  0
 22 24  1  0  0  0  0
 22 21  1  0  0  0  0
 23 26  1  0  0  0  0
 24 23  1  0  0  0  0
 25 24  2  0  0  0  0
 26 27  1  0  0  0  0
 28 29  1  0  0  0  0
 29 27  1  0  0  0  0
M  END
>  <MODEL>
8

>  <REMARK>
 VINA RESULT:      -6.0      2.040      3.209
  Name = 
  11 active torsions:
  status: ('A' for Active; 'I' for Inactive)
    1  A    between atoms: C_3  and  C_19
    2  A    between atoms: C_5  and  O_6
    3  A    between atoms: C_5  and  C_9
    4  A    between atoms: O_6  and  C_14
    5  A    between atoms: C_9  and  C_25
    6  A    between atoms: C_11  and  C_18
    7  A    between atoms: C_11  and  C_24
    8  A    between atoms: C_13  and  N_17
    9  A    between atoms: C_13  and  C_19
   10  A    between atoms: C_15  and  C_24
   11  A    between atoms: C_20  and  C_22
                            x       y       z     vdW  Elec       q    Type
                         _______ _______ _______ _____ _____    ______ ____

>  <TORSDO>
F 11

$$$$
=
 OpenBabel11042416503D

 29 30  0  0  1  0  0  0  0  0999 V2000
  190.3270  176.3090  142.7850 C   0  0  0  0  0  3  0  0  0  0  0  0
  189.9820  177.6060  142.5790 N   0  0  0  0  0  0  0  0  0  0  0  0
  188.7170  177.9620  142.3470 N   0  0  0  0  0  0  0  0  0  0  0  0
  189.3430  175.3170  142.7540 C   0  0  0  0  0  0  0  0  0  0  0  0
  187.7110  177.0460  142.3070 C   0  0  0  0  0  0  0  0  0  0  0  0
  188.0230  175.6980  142.5080 C   0  0  0  0  0  3  0  0  0  0  0  0
  185.8940  177.7640  140.7250 C   0  0  0  0  0  0  0  0  0  0  0  0
  183.6730  178.3100  141.5180 C   0  0  0  0  0  3  0  0  0  0  0  0
  184.5830  178.1750  140.4720 C   0  0  0  0  0  3  0  0  0  0  0  0
  185.3840  177.6240  143.1040 C   0  0  0  0  0  0  0  0  0  0  0  0
  186.7640  177.6250  139.6480 O   0  0  0  0  0  1  0  0  0  0  0  0
  186.3130  177.4790  142.0430 C   0  0  0  0  0  0  0  0  0  0  0  0
  184.0710  178.0350  142.8240 C   0  0  0  0  0  3  0  0  0  0  0  0
  185.7800  177.3740  144.4230 O   0  0  0  0  0  0  0  0  0  0  0  0
  186.0220  178.4060  145.3700 C   0  0  0  0  0  2  0  0  0  0  0  0
  186.7990  177.8470  146.5460 C   0  0  1  0  0  3  0  0  0  0  0  0
  185.9160  177.2660  147.4580 O   0  0  0  0  0  1  0  0  0  0  0  0
  187.7800  176.8030  146.0470 C   0  0  0  0  0  2  0  0  0  0  0  0
  189.1240  177.3540  146.0340 N   0  0  0  0  0  1  0  0  0  0  0  0
  189.8580  173.1260  141.9990 O   0  0  0  0  0  0  0  0  0  0  0  0
  189.6830  173.8980  142.9800 C   0  0  0  0  0  0  0  0  0  0  0  0
  189.7910  173.3400  144.3630 C   0  0  0  0  0  2  0  0  0  0  0  0
  191.3510  174.6250  145.8730 N   0  0  0  0  0  2  0  0  0  0  0  0
  191.1540  173.5880  144.9140 C   0  0  0  0  0  0  0  0  0  0  0  0
  192.1160  172.8600  144.5480 O   0  0  0  0  0  0  0  0  0  0  0  0
  192.6550  174.9000  146.4550 C   0  0  0  0  0  2  0  0  0  0  0  0
  192.8080  176.3910  146.7100 C   0  0  0  0  0  2  0  0  0  0  0  0
  194.9400  175.9780  145.7120 O   0  0  0  0  0  1  0  0  0  0  0  0
  194.2630  176.8160  146.5990 C   0  0  0  0  0  2  0  0  0  0  0  0
  2  1  2  0  0  0  0
  3  2  1  0  0  0  0
  4  1  1  0  0  0  0
  4 21  1  0  0  0  0
  5  3  2  0  0  0  0
  5  6  1  0  0  0  0
  6  4  2  0  0  0  0
  7 12  1  0  0  0  0
  8 13  2  0  0  0  0
  9  7  2  0  0  0  0
  9  8  1  0  0  0  0
 10 14  1  0  0  0  0
 11  7  1  0  0  0  0
 12  5  1  0  0  0  0
 12 10  2  0  0  0  0
 13 10  1  0  0  0  0
 14 15  1  0  0  0  0
 15 16  1  0  0  0  0
 16 17  1  1  0  0  0
 18 16  1  0  0  0  0
 19 18  1  0  0  0  0
 20 21  2  0  0  0  0
 21 22  1  0  0  0  0
 22 24  1  0  0  0  0
 23 26  1  0  0  0  0
 24 23  1  0  0  0  0
 25 24  2  0  0  0  0
 26 27  1  0  0  0  0
 28 29  1  0  0  0  0
 29 27  1  0  0  0  0
M  END
>  <MODEL>
9

>  <REMARK>
 VINA RESULT:      -5.8      2.144      4.337
  Name = 
  11 active torsions:
  status: ('A' for Active; 'I' for Inactive)
    1  A    between atoms: C_3  and  C_19
    2  A    between atoms: C_5  and  O_6
    3  A    between atoms: C_5  and  C_9
    4  A    between atoms: O_6  and  C_14
    5  A    between atoms: C_9  and  C_25
    6  A    between atoms: C_11  and  C_18
    7  A    between atoms: C_11  and  C_24
    8  A    between atoms: C_13  and  N_17
    9  A    between atoms: C_13  and  C_19
   10  A    between atoms: C_15  and  C_24
   11  A    between atoms: C_20  and  C_22
                            x       y       z     vdW  Elec       q    Type
                         _______ _______ _______ _____ _____    ______ ____

>  <TORSDO>
F 11

$$$$
