=
 OpenBabel11042415333D

 47 52  0  0  1  0  0  0  0  0999 V2000
  189.0910  174.2810  143.7800 C   0  0  0  0  0  3  0  0  0  0  0  0
  187.5970  176.2730  141.9950 C   0  0  0  0  0  0  0  0  0  0  0  0
  190.1570  173.4970  140.2890 C   0  0  1  0  0  3  0  0  0  0  0  0
  187.6640  176.7320  143.2590 C   0  0  0  0  0  3  0  0  0  0  0  0
  186.9090  176.6800  139.7150 N   0  0  0  0  0  0  0  0  0  0  0  0
  191.4210  173.2690  142.4940 C   0  0  0  0  0  2  0  0  0  0  0  0
  185.5440  179.3570  144.6600 C   0  0  2  0  0  3  0  0  0  0  0  0
  188.4970  174.9350  140.1810 N   0  0  1  0  0  0  0  0  0  0  0  0
  188.0300  174.8750  141.5820 C   0  0  1  0  0  3  0  0  0  0  0  0
  190.1410  173.6140  144.5790 C   0  0  0  0  0  0  0  0  0  0  0  0
  191.2270  173.1100  143.9790 C   0  0  0  0  0  3  0  0  0  0  0  0
  188.8600  173.6850  139.7770 O   0  0  0  0  0  0  0  0  0  0  0  0
  189.0970  174.2070  142.4420 C   0  0  0  0  0  0  0  0  0  0  0  0
  186.9690  177.1120  140.9380 C   0  0  0  0  0  0  0  0  0  0  0  0
  185.3770  179.3590  143.2190 N   0  0  0  0  0  0  0  0  0  0  0  0
  186.6130  178.2940  144.9420 C   0  0  0  0  0  2  0  0  0  0  0  0
  187.3320  178.1550  143.6120 C   0  0  2  0  0  3  0  0  0  0  0  0
  186.3520  178.7300  142.6650 C   0  0  0  0  0  0  0  0  0  0  0  0
  186.3310  178.3400  141.2910 N   0  0  0  0  0  2  0  0  0  0  0  0
  190.0600  173.2310  141.7920 C   0  0  1  0  0  3  0  0  0  0  0  0
  187.3780  175.3470  139.3330 C   0  0  0  0  0  2  0  0  0  0  0  0
  192.1730  172.2250  137.5270 C   0  0  0  0  0  2  0  0  0  0  0  0
  190.0470  171.7830  138.4260 C   0  0  0  0  0  2  0  0  0  0  0  0
  190.9380  171.4770  137.3120 N   0  0  0  0  0  0  0  0  0  0  0  0
  192.1320  172.8760  138.8930 C   0  0  0  0  0  2  0  0  0  0  0  0
  190.8780  172.3680  139.5510 C   0  0  1  0  0  3  0  0  0  0  0  0
  192.5470  169.5440  138.1980 O   0  0  0  0  0  0  0  0  0  0  0  0
  190.1630  169.0220  137.9530 O   0  0  0  0  0  0  0  0  0  0  0  0
  191.3200  169.7810  137.3620 S   0  0  0  0  0  0  0  0  0  0  0  0
  191.6090  169.1990  135.7060 C   0  0  0  0  0  2  0  0  0  0  0  0
  191.0300  170.1250  134.7470 N   0  0  0  0  0  1  0  0  0  0  0  0
  184.2290  178.9910  145.3340 C   0  0  0  0  0  2  0  0  0  0  0  0
  184.4460  177.9150  146.3870 C   0  0  0  0  0  2  0  0  0  0  0  0
  184.5840  178.5060  147.6430 O   0  0  0  0  0  1  0  0  0  0  0  0
  189.9890  173.5320  146.0630 C   0  0  0  0  0  2  0  0  0  0  0  0
  189.2760  174.7610  146.6140 C   0  0  0  0  0  2  0  0  0  0  0  0
  190.2540  175.7360  147.2590 C   0  0  1  0  0  3  0  0  0  0  0  0
  191.0660  175.0600  148.1710 O   0  0  0  0  0  1  0  0  0  0  0  0
  193.4180  176.8020  145.2850 C   0  0  0  0  0  0  0  0  0  0  0  0
  192.4940  176.2090  146.2040 N   0  0  0  0  0  2  0  0  0  0  0  0
  193.0090  177.5240  144.3380 O   0  0  0  0  0  0  0  0  0  0  0  0
  190.5250  177.1100  145.3160 O   0  0  0  0  0  0  0  0  0  0  0  0
  191.0750  176.3970  146.1990 C   0  0  0  0  0  0  0  0  0  0  0  0
  194.7870  176.6050  145.4410 O   0  0  0  0  0  0  0  0  0  0  0  0
  195.4470  175.4820  144.8740 C   0  0  0  0  0  2  0  0  0  0  0  0
  195.9550  175.8270  143.4890 C   0  0  0  0  0  2  0  0  0  0  0  0
  196.6470  177.0360  143.5280 O   0  0  0  0  0  1  0  0  0  0  0  0
  1 10  1  0  0  0  0
  2  4  2  0  0  0  0
  3 12  1  6  0  0  0
  3 20  1  0  0  0  0
  5 14  2  0  0  0  0
  6 11  1  0  0  0  0
  7 16  1  0  0  0  0
  7 32  1  1  0  0  0
  8 21  1  6  0  0  0
  8  9  1  0  0  0  0
  9  2  1  1  0  0  0
  9 13  1  0  0  0  0
 10 35  1  0  0  0  0
 11 10  2  0  0  0  0
 12  8  1  0  0  0  0
 13  1  2  0  0  0  0
 14 19  1  0  0  0  0
 14  2  1  0  0  0  0
 15  7  1  0  0  0  0
 17  4  1  6  0  0  0
 17 16  1  0  0  0  0
 18 15  2  0  0  0  0
 18 17  1  0  0  0  0
 19 18  1  0  0  0  0
 20 13  1  0  0  0  0
 20  6  1  1  0  0  0
 21  5  1  0  0  0  0
 22 25  1  0  0  0  0
 24 29  1  0  0  0  0
 24 22  1  0  0  0  0
 24 23  1  0  0  0  0
 25 26  1  0  0  0  0
 26 23  1  6  0  0  0
 26  3  1  0  0  0  0
 29 28  2  0  0  0  0
 29 27  2  0  0  0  0
 30 29  1  0  0  0  0
 31 30  1  0  0  0  0
 32 33  1  0  0  0  0
 33 34  1  0  0  0  0
 35 36  1  0  0  0  0
 36 37  1  0  0  0  0
 37 38  1  1  0  0  0
 39 44  1  0  0  0  0
 39 40  1  0  0  0  0
 41 39  2  0  0  0  0
 42 43  2  0  0  0  0
 43 40  1  0  0  0  0
 43 37  1  0  0  0  0
 45 44  1  0  0  0  0
 46 47  1  0  0  0  0
 46 45  1  0  0  0  0
M  END
>  <MODEL>
1

>  <REMARK>
 VINA RESULT:      -7.4      0.000      0.000
  Name = 
  12 active torsions:
  status: ('A' for Active; 'I' for Inactive)
    1  A    between atoms: C_1  and  O_14
    2  A    between atoms: C_4  and  C_28
    3  A    between atoms: C_4  and  C_35
    4  A    between atoms: C_6  and  C_39
    5  A    between atoms: C_8  and  C_30
    6  A    between atoms: C_12  and  C_16
    7  A    between atoms: O_14  and  C_30
    8  A    between atoms: C_16  and  C_19
    9  A    between atoms: C_23  and  C_33
   10  A    between atoms: C_28  and  C_33
   11  A    between atoms: N_31  and  S_32
   12  A    between atoms: S_32  and  C_43
                            x       y       z     vdW  Elec       q    Type
                         _______ _______ _______ _____ _____    ______ ____

>  <TORSDO>
F 12

$$$$
=
 OpenBabel11042415333D

 47 52  0  0  1  0  0  0  0  0999 V2000
  190.4960  173.5220  144.1210 C   0  0  0  0  0  3  0  0  0  0  0  0
  192.7820  174.8790  145.6450 C   0  0  0  0  0  0  0  0  0  0  0  0
  189.1260  176.7930  145.2840 C   0  0  1  0  0  3  0  0  0  0  0  0
  193.2660  173.9430  144.8070 C   0  0  0  0  0  3  0  0  0  0  0  0
  193.2650  176.6230  147.2450 N   0  0  0  0  0  0  0  0  0  0  0  0
  188.5810  175.4190  143.2050 C   0  0  0  0  0  2  0  0  0  0  0  0
  196.5930  172.4490  145.0140 C   0  0  2  0  0  3  0  0  0  0  0  0
  191.0790  176.5000  146.2480 N   0  0  1  0  0  0  0  0  0  0  0  0
  191.3000  175.0740  145.9240 C   0  0  1  0  0  3  0  0  0  0  0  0
  189.5340  173.1430  143.0650 C   0  0  0  0  0  0  0  0  0  0  0  0
  188.6110  174.0200  142.6480 C   0  0  0  0  0  3  0  0  0  0  0  0
  189.7620  176.6940  146.5350 O   0  0  0  0  0  0  0  0  0  0  0  0
  190.3340  174.6510  144.8240 C   0  0  0  0  0  0  0  0  0  0  0  0
  193.7230  175.7120  146.4420 C   0  0  0  0  0  0  0  0  0  0  0  0
  196.5600  173.6080  145.8860 N   0  0  0  0  0  0  0  0  0  0  0  0
  195.2230  172.4220  144.3250 C   0  0  0  0  0  2  0  0  0  0  0  0
  194.7270  173.8490  144.4690 C   0  0  2  0  0  3  0  0  0  0  0  0
  195.5690  174.3630  145.5720 C   0  0  0  0  0  0  0  0  0  0  0  0
  195.1240  175.4310  146.4090 N   0  0  0  0  0  2  0  0  0  0  0  0
  189.0210  175.3960  144.6720 C   0  0  1  0  0  3  0  0  0  0  0  0
  191.8310  176.8250  147.4610 C   0  0  0  0  0  2  0  0  0  0  0  0
  185.5300  176.6900  145.9000 C   0  0  0  0  0  2  0  0  0  0  0  0
  186.9380  177.3780  144.1480 C   0  0  0  0  0  2  0  0  0  0  0  0
  185.5440  177.1600  144.5180 N   0  0  0  0  0  0  0  0  0  0  0  0
  186.9290  176.7830  146.4730 C   0  0  0  0  0  2  0  0  0  0  0  0
  187.7580  177.4660  145.4190 C   0  0  1  0  0  3  0  0  0  0  0  0
  184.0060  178.9500  145.7620 O   0  0  0  0  0  0  0  0  0  0  0  0
  185.7060  179.7900  144.2060 O   0  0  0  0  0  0  0  0  0  0  0  0
  184.7140  178.6880  144.4620 S   0  0  0  0  0  0  0  0  0  0  0  0
  183.5270  178.6590  143.1370 C   0  0  0  0  0  2  0  0  0  0  0  0
  184.1540  178.1710  141.9200 N   0  0  0  0  0  1  0  0  0  0  0  0
  196.8080  171.1870  145.8370 C   0  0  0  0  0  2  0  0  0  0  0  0
  195.5160  170.3920  145.9490 C   0  0  0  0  0  2  0  0  0  0  0  0
  195.7680  169.0440  145.6890 O   0  0  0  0  0  1  0  0  0  0  0  0
  189.6190  171.7840  142.4520 C   0  0  0  0  0  2  0  0  0  0  0  0
  190.2160  171.8460  141.0520 C   0  0  0  0  0  2  0  0  0  0  0  0
  191.7250  171.6360  141.0740 C   0  0  1  0  0  3  0  0  0  0  0  0
  192.0820  170.6580  140.1430 O   0  0  0  0  0  1  0  0  0  0  0  0
  194.6200  174.2050  140.8180 C   0  0  0  0  0  0  0  0  0  0  0  0
  193.8250  173.0290  141.0110 N   0  0  0  0  0  2  0  0  0  0  0  0
  194.1070  175.2610  140.3650 O   0  0  0  0  0  0  0  0  0  0  0  0
  191.7640  173.9150  140.3420 O   0  0  0  0  0  0  0  0  0  0  0  0
  192.4160  172.9290  140.7810 C   0  0  0  0  0  0  0  0  0  0  0  0
  195.9710  174.2000  141.1510 O   0  0  0  0  0  0  0  0  0  0  0  0
  196.7790  175.3600  141.0040 C   0  0  0  0  0  2  0  0  0  0  0  0
  197.1770  175.8860  142.3680 C   0  0  0  0  0  2  0  0  0  0  0  0
  196.1430  176.6570  142.8970 O   0  0  0  0  0  1  0  0  0  0  0  0
  1 13  2  0  0  0  0
  2  9  1  0  0  0  0
  2 14  1  0  0  0  0
  3 26  1  0  0  0  0
  3 12  1  1  0  0  0
  4  2  2  0  0  0  0
  5 21  1  0  0  0  0
  7 32  1  1  0  0  0
  7 15  1  0  0  0  0
  8 12  1  0  0  0  0
  8 21  1  1  0  0  0
  9 13  1  6  0  0  0
  9  8  1  0  0  0  0
 10  1  1  0  0  0  0
 11 10  2  0  0  0  0
 11  6  1  0  0  0  0
 14  5  2  0  0  0  0
 16  7  1  0  0  0  0
 17 16  1  1  0  0  0
 17  4  1  0  0  0  0
 17 18  1  0  0  0  0
 18 15  2  0  0  0  0
 18 19  1  0  0  0  0
 19 14  1  0  0  0  0
 20  6  1  6  0  0  0
 20 13  1  0  0  0  0
 20  3  1  0  0  0  0
 22 25  1  0  0  0  0
 23 24  1  0  0  0  0
 24 22  1  0  0  0  0
 26 23  1  6  0  0  0
 26 25  1  0  0  0  0
 28 29  2  0  0  0  0
 29 24  1  0  0  0  0
 29 27  2  0  0  0  0
 30 29  1  0  0  0  0
 31 30  1  0  0  0  0
 32 33  1  0  0  0  0
 34 33  1  0  0  0  0
 35 10  1  0  0  0  0
 36 37  1  0  0  0  0
 36 35  1  0  0  0  0
 37 38  1  6  0  0  0
 39 40  1  0  0  0  0
 39 44  1  0  0  0  0
 41 39  2  0  0  0  0
 42 43  2  0  0  0  0
 43 40  1  0  0  0  0
 43 37  1  0  0  0  0
 45 44  1  0  0  0  0
 45 46  1  0  0  0  0
 46 47  1  0  0  0  0
M  END
>  <MODEL>
2

>  <REMARK>
 VINA RESULT:      -7.3      3.340      8.955
  Name = 
  12 active torsions:
  status: ('A' for Active; 'I' for Inactive)
    1  A    between atoms: C_1  and  O_14
    2  A    between atoms: C_4  and  C_28
    3  A    between atoms: C_4  and  C_35
    4  A    between atoms: C_6  and  C_39
    5  A    between atoms: C_8  and  C_30
    6  A    between atoms: C_12  and  C_16
    7  A    between atoms: O_14  and  C_30
    8  A    between atoms: C_16  and  C_19
    9  A    between atoms: C_23  and  C_33
   10  A    between atoms: C_28  and  C_33
   11  A    between atoms: N_31  and  S_32
   12  A    between atoms: S_32  and  C_43
                            x       y       z     vdW  Elec       q    Type
                         _______ _______ _______ _____ _____    ______ ____

>  <TORSDO>
F 12

$$$$
=
 OpenBabel11042415333D

 47 52  0  0  1  0  0  0  0  0999 V2000
  192.4970  175.1000  145.0340 C   0  0  0  0  0  3  0  0  0  0  0  0
  191.3090  172.7890  143.4100 C   0  0  0  0  0  0  0  0  0  0  0  0
  188.7970  175.5740  145.1700 C   0  0  1  0  0  3  0  0  0  0  0  0
  192.5560  172.4850  143.8190 C   0  0  0  0  0  3  0  0  0  0  0  0
  189.3080  172.0630  142.2680 N   0  0  0  0  0  0  0  0  0  0  0  0
  190.6030  176.1670  146.8720 C   0  0  0  0  0  2  0  0  0  0  0  0
  194.6550  169.8550  142.3970 C   0  0  2  0  0  3  0  0  0  0  0  0
  189.2200  173.9890  143.7070 N   0  0  1  0  0  0  0  0  0  0  0  0
  190.6820  174.1650  143.5720 C   0  0  1  0  0  3  0  0  0  0  0  0
  192.9570  175.9470  146.1550 C   0  0  0  0  0  0  0  0  0  0  0  0
  192.0700  176.4760  147.0080 C   0  0  0  0  0  3  0  0  0  0  0  0
  188.6310  175.2110  143.8200 O   0  0  0  0  0  0  0  0  0  0  0  0
  191.1960  175.0210  144.7230 C   0  0  0  0  0  0  0  0  0  0  0  0
  190.5140  171.7820  142.6580 C   0  0  0  0  0  0  0  0  0  0  0  0
  193.3020  169.6730  141.9040 N   0  0  0  0  0  0  0  0  0  0  0  0
  194.5750  171.0360  143.3720 C   0  0  0  0  0  2  0  0  0  0  0  0
  193.1040  171.0880  143.7440 C   0  0  2  0  0  3  0  0  0  0  0  0
  192.4760  170.3210  142.6460 C   0  0  0  0  0  0  0  0  0  0  0  0
  191.1190  170.5480  142.2640 N   0  0  0  0  0  2  0  0  0  0  0  0
  190.2490  176.0000  145.3910 C   0  0  1  0  0  3  0  0  0  0  0  0
  188.7070  173.3820  142.4790 C   0  0  0  0  0  2  0  0  0  0  0  0
  185.7580  176.7330  146.8250 C   0  0  0  0  0  2  0  0  0  0  0  0
  186.6140  176.7460  144.6360 C   0  0  0  0  0  2  0  0  0  0  0  0
  185.4300  177.0410  145.4360 N   0  0  0  0  0  0  0  0  0  0  0  0
  187.2330  176.4070  146.9300 C   0  0  0  0  0  2  0  0  0  0  0  0
  187.8090  176.6730  145.5650 C   0  0  1  0  0  3  0  0  0  0  0  0
  183.6350  179.0110  145.5190 O   0  0  0  0  0  0  0  0  0  0  0  0
  185.8820  179.4770  146.3830 O   0  0  0  0  0  0  0  0  0  0  0  0
  185.1020  178.7450  145.3260 S   0  0  0  0  0  0  0  0  0  0  0  0
  185.6040  179.3340  143.7240 C   0  0  0  0  0  2  0  0  0  0  0  0
  184.7420  178.7730  142.6970 N   0  0  0  0  0  1  0  0  0  0  0  0
  195.5900  170.1730  141.2400 C   0  0  0  0  0  2  0  0  0  0  0  0
  196.4030  171.4240  141.5340 C   0  0  0  0  0  2  0  0  0  0  0  0
  197.7430  171.0820  141.7210 O   0  0  0  0  0  1  0  0  0  0  0  0
  194.4200  176.1830  146.3400 C   0  0  0  0  0  2  0  0  0  0  0  0
  195.0160  176.9220  145.1490 C   0  0  0  0  0  2  0  0  0  0  0  0
  196.0050  176.0520  144.3830 C   0  0  1  0  0  3  0  0  0  0  0  0
  195.9810  174.7500  144.8880 O   0  0  0  0  0  1  0  0  0  0  0  0
  194.1210  175.1760  141.1080 C   0  0  0  0  0  0  0  0  0  0  0  0
  194.5490  175.2960  142.4690 N   0  0  0  0  0  2  0  0  0  0  0  0
  194.7020  175.8150  140.1920 O   0  0  0  0  0  0  0  0  0  0  0  0
  196.3520  176.7470  142.1190 O   0  0  0  0  0  0  0  0  0  0  0  0
  195.6640  176.0670  142.9280 C   0  0  0  0  0  0  0  0  0  0  0  0
  193.0660  174.3310  140.7760 O   0  0  0  0  0  0  0  0  0  0  0  0
  193.2900  173.0490  140.2060 C   0  0  0  0  0  2  0  0  0  0  0  0
  192.1330  172.6780  139.3020 C   0  0  0  0  0  2  0  0  0  0  0  0
  192.1240  171.3000  139.0880 O   0  0  0  0  0  1  0  0  0  0  0  0
  1 10  1  0  0  0  0
  2  4  2  0  0  0  0
  3 12  1  6  0  0  0
  3 20  1  0  0  0  0
  3 26  1  0  0  0  0
  5 21  1  0  0  0  0
  5 14  2  0  0  0  0
  6 11  1  0  0  0  0
  7 32  1  6  0  0  0
  7 16  1  0  0  0  0
  8 21  1  6  0  0  0
  8 12  1  0  0  0  0
  9  2  1  1  0  0  0
  9  8  1  0  0  0  0
  9 13  1  0  0  0  0
 10 35  1  0  0  0  0
 10 11  2  0  0  0  0
 13  1  2  0  0  0  0
 13 20  1  0  0  0  0
 14  2  1  0  0  0  0
 15  7  1  0  0  0  0
 15 18  2  0  0  0  0
 17 16  1  6  0  0  0
 17  4  1  0  0  0  0
 18 17  1  0  0  0  0
 19 18  1  0  0  0  0
 19 14  1  0  0  0  0
 20  6  1  1  0  0  0
 22 25  1  0  0  0  0
 23 24  1  0  0  0  0
 24 22  1  0  0  0  0
 26 23  1  6  0  0  0
 26 25  1  0  0  0  0
 29 24  1  0  0  0  0
 29 27  2  0  0  0  0
 29 28  2  0  0  0  0
 30 29  1  0  0  0  0
 31 30  1  0  0  0  0
 32 33  1  0  0  0  0
 33 34  1  0  0  0  0
 36 35  1  0  0  0  0
 37 38  1  1  0  0  0
 37 36  1  0  0  0  0
 39 40  1  0  0  0  0
 40 43  1  0  0  0  0
 41 39  2  0  0  0  0
 42 43  2  0  0  0  0
 43 37  1  0  0  0  0
 44 39  1  0  0  0  0
 45 44  1  0  0  0  0
 46 45  1  0  0  0  0
 47 46  1  0  0  0  0
M  END
>  <MODEL>
3

>  <REMARK>
 VINA RESULT:      -7.1      3.468      8.912
  Name = 
  12 active torsions:
  status: ('A' for Active; 'I' for Inactive)
    1  A    between atoms: C_1  and  O_14
    2  A    between atoms: C_4  and  C_28
    3  A    between atoms: C_4  and  C_35
    4  A    between atoms: C_6  and  C_39
    5  A    between atoms: C_8  and  C_30
    6  A    between atoms: C_12  and  C_16
    7  A    between atoms: O_14  and  C_30
    8  A    between atoms: C_16  and  C_19
    9  A    between atoms: C_23  and  C_33
   10  A    between atoms: C_28  and  C_33
   11  A    between atoms: N_31  and  S_32
   12  A    between atoms: S_32  and  C_43
                            x       y       z     vdW  Elec       q    Type
                         _______ _______ _______ _____ _____    ______ ____

>  <TORSDO>
F 12

$$$$
=
 OpenBabel11042415333D

 47 52  0  0  1  0  0  0  0  0999 V2000
  192.0270  175.2830  144.4220 C   0  0  0  0  0  3  0  0  0  0  0  0
  191.8220  173.3620  142.0430 C   0  0  0  0  0  0  0  0  0  0  0  0
  188.4620  175.4190  143.3230 C   0  0  1  0  0  3  0  0  0  0  0  0
  192.8970  173.0640  142.7970 C   0  0  0  0  0  3  0  0  0  0  0  0
  190.4490  172.7890  140.1390 N   0  0  0  0  0  0  0  0  0  0  0  0
  189.4900  175.7090  145.6410 C   0  0  0  0  0  2  0  0  0  0  0  0
  195.7370  171.0410  141.7090 C   0  0  2  0  0  3  0  0  0  0  0  0
  189.5880  174.2840  141.8160 N   0  0  1  0  0  0  0  0  0  0  0  0
  190.9660  174.6010  142.2490 C   0  0  1  0  0  3  0  0  0  0  0  0
  191.9530  175.8580  145.7810 C   0  0  0  0  0  0  0  0  0  0  0  0
  190.7620  176.0890  146.3510 C   0  0  0  0  0  3  0  0  0  0  0  0
  188.8080  175.3910  141.9600 O   0  0  0  0  0  0  0  0  0  0  0  0
  190.9300  175.1830  143.6580 C   0  0  0  0  0  0  0  0  0  0  0  0
  191.4890  172.5140  140.8660 C   0  0  0  0  0  0  0  0  0  0  0  0
  194.6690  170.8820  140.7400 N   0  0  0  0  0  0  0  0  0  0  0  0
  195.1550  171.9330  142.8110 C   0  0  0  0  0  2  0  0  0  0  0  0
  193.6550  171.7760  142.6370 C   0  0  2  0  0  3  0  0  0  0  0  0
  193.5530  171.2590  141.2550 C   0  0  0  0  0  0  0  0  0  0  0  0
  192.3780  171.4680  140.4700 N   0  0  0  0  0  2  0  0  0  0  0  0
  189.6730  175.8880  144.1300 C   0  0  1  0  0  3  0  0  0  0  0  0
  189.6100  173.9630  140.3880 C   0  0  0  0  0  2  0  0  0  0  0  0
  185.8850  177.7290  142.1640 C   0  0  0  0  0  2  0  0  0  0  0  0
  187.6010  177.7600  143.7700 C   0  0  0  0  0  2  0  0  0  0  0  0
  186.5940  178.5840  143.1110 N   0  0  0  0  0  0  0  0  0  0  0  0
  186.3320  176.2950  142.3550 C   0  0  0  0  0  2  0  0  0  0  0  0
  187.2370  176.3050  143.5580 C   0  0  1  0  0  3  0  0  0  0  0  0
  185.3620  180.6210  144.3130 O   0  0  0  0  0  0  0  0  0  0  0  0
  184.0970  178.5420  144.0080 O   0  0  0  0  0  0  0  0  0  0  0  0
  185.4530  179.1210  144.3090 S   0  0  0  0  0  0  0  0  0  0  0  0
  185.9800  178.5570  145.9120 C   0  0  0  0  0  2  0  0  0  0  0  0
  185.0320  177.5850  146.4320 N   0  0  0  0  0  1  0  0  0  0  0  0
  196.9370  171.7080  141.0520 C   0  0  0  0  0  2  0  0  0  0  0  0
  197.2880  173.0050  141.7660 C   0  0  0  0  0  2  0  0  0  0  0  0
  197.9410  173.8670  140.8840 O   0  0  0  0  0  1  0  0  0  0  0  0
  193.2160  176.1540  146.5200 C   0  0  0  0  0  2  0  0  0  0  0  0
  194.1640  176.9990  145.6770 C   0  0  0  0  0  2  0  0  0  0  0  0
  195.4390  176.2400  145.3330 C   0  0  1  0  0  3  0  0  0  0  0  0
  195.2650  174.8780  145.5890 O   0  0  0  0  0  1  0  0  0  0  0  0
  195.1000  176.1340  141.4700 C   0  0  0  0  0  0  0  0  0  0  0  0
  194.8900  176.0210  142.8830 N   0  0  0  0  0  2  0  0  0  0  0  0
  196.1220  176.7130  141.0170 O   0  0  0  0  0  0  0  0  0  0  0  0
  196.8640  177.0590  143.5920 O   0  0  0  0  0  0  0  0  0  0  0  0
  195.7900  176.4740  143.8990 C   0  0  0  0  0  0  0  0  0  0  0  0
  194.1850  175.5840  140.5780 O   0  0  0  0  0  0  0  0  0  0  0  0
  194.5460  174.5310  139.6960 C   0  0  0  0  0  2  0  0  0  0  0  0
  194.0580  174.8410  138.2960 C   0  0  0  0  0  2  0  0  0  0  0  0
  192.7590  174.3620  138.1320 O   0  0  0  0  0  1  0  0  0  0  0  0
  1 10  1  0  0  0  0
  2  4  2  0  0  0  0
  3 12  1  6  0  0  0
  3 26  1  0  0  0  0
  3 20  1  0  0  0  0
  5 21  1  0  0  0  0
  5 14  2  0  0  0  0
  6 11  1  0  0  0  0
  7 32  1  6  0  0  0
  7 16  1  0  0  0  0
  8 21  1  6  0  0  0
  8 12  1  0  0  0  0
  8  9  1  0  0  0  0
  9  2  1  1  0  0  0
  9 13  1  0  0  0  0
 10 11  2  0  0  0  0
 10 35  1  0  0  0  0
 13 20  1  0  0  0  0
 13  1  2  0  0  0  0
 14  2  1  0  0  0  0
 15 18  2  0  0  0  0
 15  7  1  0  0  0  0
 17  4  1  6  0  0  0
 17 16  1  0  0  0  0
 18 17  1  0  0  0  0
 19 14  1  0  0  0  0
 19 18  1  0  0  0  0
 20  6  1  1  0  0  0
 22 25  1  0  0  0  0
 22 24  1  0  0  0  0
 24 23  1  0  0  0  0
 24 29  1  0  0  0  0
 26 25  1  6  0  0  0
 26 23  1  0  0  0  0
 28 29  2  0  0  0  0
 29 27  2  0  0  0  0
 29 30  1  0  0  0  0
 30 31  1  0  0  0  0
 32 33  1  0  0  0  0
 34 33  1  0  0  0  0
 36 35  1  0  0  0  0
 37 38  1  6  0  0  0
 37 36  1  0  0  0  0
 39 40  1  0  0  0  0
 40 43  1  0  0  0  0
 41 39  2  0  0  0  0
 42 43  2  0  0  0  0
 43 37  1  0  0  0  0
 44 39  1  0  0  0  0
 45 44  1  0  0  0  0
 46 45  1  0  0  0  0
 47 46  1  0  0  0  0
M  END
>  <MODEL>
4

>  <REMARK>
 VINA RESULT:      -7.1      3.313      8.521
  Name = 
  12 active torsions:
  status: ('A' for Active; 'I' for Inactive)
    1  A    between atoms: C_1  and  O_14
    2  A    between atoms: C_4  and  C_28
    3  A    between atoms: C_4  and  C_35
    4  A    between atoms: C_6  and  C_39
    5  A    between atoms: C_8  and  C_30
    6  A    between atoms: C_12  and  C_16
    7  A    between atoms: O_14  and  C_30
    8  A    between atoms: C_16  and  C_19
    9  A    between atoms: C_23  and  C_33
   10  A    between atoms: C_28  and  C_33
   11  A    between atoms: N_31  and  S_32
   12  A    between atoms: S_32  and  C_43
                            x       y       z     vdW  Elec       q    Type
                         _______ _______ _______ _____ _____    ______ ____

>  <TORSDO>
F 12

$$$$
=
 OpenBabel11042415333D

 47 52  0  0  1  0  0  0  0  0999 V2000
  191.1270  172.1310  143.3730 C   0  0  0  0  0  3  0  0  0  0  0  0
  193.1870  173.6890  145.0220 C   0  0  0  0  0  0  0  0  0  0  0  0
  189.5590  175.4470  144.0670 C   0  0  1  0  0  3  0  0  0  0  0  0
  193.7860  172.6990  144.3340 C   0  0  0  0  0  3  0  0  0  0  0  0
  193.4410  175.5820  146.5010 N   0  0  0  0  0  0  0  0  0  0  0  0
  189.2940  173.8780  142.0730 C   0  0  0  0  0  2  0  0  0  0  0  0
  197.0970  171.3350  145.0600 C   0  0  2  0  0  3  0  0  0  0  0  0
  191.3910  175.3020  145.2740 N   0  0  1  0  0  0  0  0  0  0  0  0
  191.6790  173.8610  145.1090 C   0  0  1  0  0  3  0  0  0  0  0  0
  190.3040  171.6300  142.2520 C   0  0  0  0  0  0  0  0  0  0  0  0
  189.4180  172.4370  141.6530 C   0  0  0  0  0  3  0  0  0  0  0  0
  190.0460  175.4790  145.3870 O   0  0  0  0  0  0  0  0  0  0  0  0
  190.8590  173.3120  143.9470 C   0  0  0  0  0  0  0  0  0  0  0  0
  194.0090  174.6190  145.8430 C   0  0  0  0  0  0  0  0  0  0  0  0
  196.9370  172.5650  145.8130 N   0  0  0  0  0  0  0  0  0  0  0  0
  195.8190  171.2040  144.2230 C   0  0  0  0  0  2  0  0  0  0  0  0
  195.2790  172.6220  144.1780 C   0  0  2  0  0  3  0  0  0  0  0  0
  195.9740  173.2580  145.3190 C   0  0  0  0  0  0  0  0  0  0  0  0
  195.4100  174.3810  145.9980 N   0  0  0  0  0  2  0  0  0  0  0  0
  189.5580  173.9990  143.5770 C   0  0  1  0  0  3  0  0  0  0  0  0
  191.9870  175.7570  146.5300 C   0  0  0  0  0  2  0  0  0  0  0  0
  187.3470  178.2740  143.4100 C   0  0  0  0  0  2  0  0  0  0  0  0
  187.8070  176.8610  145.2300 C   0  0  0  0  0  2  0  0  0  0  0  0
  187.0780  178.0590  144.8280 N   0  0  0  0  0  0  0  0  0  0  0  0
  188.1140  177.0900  142.8620 C   0  0  0  0  0  2  0  0  0  0  0  0
  188.1720  176.0850  143.9810 C   0  0  1  0  0  3  0  0  0  0  0  0
  184.6950  177.7450  143.6740 O   0  0  0  0  0  0  0  0  0  0  0  0
  185.1720  176.4260  145.6860 O   0  0  0  0  0  0  0  0  0  0  0  0
  185.3760  177.7560  145.0140 S   0  0  0  0  0  0  0  0  0  0  0  0
  184.6630  179.0330  146.0280 C   0  0  0  0  0  2  0  0  0  0  0  0
  185.3040  179.0440  147.3330 N   0  0  0  0  0  1  0  0  0  0  0  0
  197.2400  170.1580  146.0140 C   0  0  0  0  0  2  0  0  0  0  0  0
  195.9920  169.2880  145.9850 C   0  0  0  0  0  2  0  0  0  0  0  0
  195.3860  169.2930  147.2420 O   0  0  0  0  0  1  0  0  0  0  0  0
  190.4900  170.2260  141.7800 C   0  0  0  0  0  2  0  0  0  0  0  0
  191.9320  169.7690  141.9590 C   0  0  0  0  0  2  0  0  0  0  0  0
  192.6720  169.7050  140.6280 C   0  0  1  0  0  3  0  0  0  0  0  0
  191.7920  169.9920  139.5820 O   0  0  0  0  0  1  0  0  0  0  0  0
  194.5180  173.1160  140.6970 C   0  0  0  0  0  0  0  0  0  0  0  0
  193.5390  172.0710  140.7120 N   0  0  0  0  0  2  0  0  0  0  0  0
  195.7470  172.8450  140.6700 O   0  0  0  0  0  0  0  0  0  0  0  0
  195.0030  170.2480  140.5950 O   0  0  0  0  0  0  0  0  0  0  0  0
  193.8150  170.6680  140.6440 C   0  0  0  0  0  0  0  0  0  0  0  0
  194.1210  174.4490  140.6900 O   0  0  0  0  0  0  0  0  0  0  0  0
  192.9710  174.8880  141.4000 C   0  0  0  0  0  2  0  0  0  0  0  0
  193.3440  176.0160  142.3390 C   0  0  0  0  0  2  0  0  0  0  0  0
  194.7230  176.0230  142.5430 O   0  0  0  0  0  1  0  0  0  0  0  0
  1 13  2  0  0  0  0
  2  9  1  0  0  0  0
  2 14  1  0  0  0  0
  3 12  1  1  0  0  0
  4  2  2  0  0  0  0
  5 21  1  0  0  0  0
  7 15  1  0  0  0  0
  7 32  1  1  0  0  0
  8 12  1  0  0  0  0
  8 21  1  1  0  0  0
  9 13  1  6  0  0  0
  9  8  1  0  0  0  0
 10  1  1  0  0  0  0
 11  6  1  0  0  0  0
 11 10  2  0  0  0  0
 14 19  1  0  0  0  0
 14  5  2  0  0  0  0
 16  7  1  0  0  0  0
 17 16  1  1  0  0  0
 17  4  1  0  0  0  0
 17 18  1  0  0  0  0
 18 15  2  0  0  0  0
 18 19  1  0  0  0  0
 20  6  1  6  0  0  0
 20 13  1  0  0  0  0
 20  3  1  0  0  0  0
 22 24  1  0  0  0  0
 24 29  1  0  0  0  0
 24 23  1  0  0  0  0
 25 22  1  0  0  0  0
 26 25  1  6  0  0  0
 26  3  1  0  0  0  0
 26 23  1  0  0  0  0
 27 29  2  0  0  0  0
 29 28  2  0  0  0  0
 29 30  1  0  0  0  0
 30 31  1  0  0  0  0
 33 32  1  0  0  0  0
 33 34  1  0  0  0  0
 35 36  1  0  0  0  0
 35 10  1  0  0  0  0
 37 38  1  6  0  0  0
 37 43  1  0  0  0  0
 37 36  1  0  0  0  0
 39 40  1  0  0  0  0
 41 39  2  0  0  0  0
 42 43  2  0  0  0  0
 43 40  1  0  0  0  0
 44 39  1  0  0  0  0
 44 45  1  0  0  0  0
 45 46  1  0  0  0  0
 46 47  1  0  0  0  0
M  END
>  <MODEL>
5

>  <REMARK>
 VINA RESULT:      -6.9      3.646      9.221
  Name = 
  12 active torsions:
  status: ('A' for Active; 'I' for Inactive)
    1  A    between atoms: C_1  and  O_14
    2  A    between atoms: C_4  and  C_28
    3  A    between atoms: C_4  and  C_35
    4  A    between atoms: C_6  and  C_39
    5  A    between atoms: C_8  and  C_30
    6  A    between atoms: C_12  and  C_16
    7  A    between atoms: O_14  and  C_30
    8  A    between atoms: C_16  and  C_19
    9  A    between atoms: C_23  and  C_33
   10  A    between atoms: C_28  and  C_33
   11  A    between atoms: N_31  and  S_32
   12  A    between atoms: S_32  and  C_43
                            x       y       z     vdW  Elec       q    Type
                         _______ _______ _______ _____ _____    ______ ____

>  <TORSDO>
F 12

$$$$
=
 OpenBabel11042415333D

 47 52  0  0  1  0  0  0  0  0999 V2000
  192.4570  175.4000  143.5240 C   0  0  0  0  0  3  0  0  0  0  0  0
  190.9470  173.1180  142.1450 C   0  0  0  0  0  0  0  0  0  0  0  0
  188.9160  175.7000  144.6700 C   0  0  1  0  0  3  0  0  0  0  0  0
  192.2660  172.8510  142.1870 C   0  0  0  0  0  3  0  0  0  0  0  0
  188.7350  172.3580  141.5380 N   0  0  0  0  0  0  0  0  0  0  0  0
  191.0950  176.2910  145.8600 C   0  0  0  0  0  2  0  0  0  0  0  0
  193.9840  170.3890  140.1070 C   0  0  2  0  0  3  0  0  0  0  0  0
  188.9790  174.2070  143.0580 N   0  0  1  0  0  0  0  0  0  0  0  0
  190.3440  174.4550  142.5470 C   0  0  1  0  0  3  0  0  0  0  0  0
  193.1750  176.2120  144.5280 C   0  0  0  0  0  0  0  0  0  0  0  0
  192.5350  176.6600  145.6160 C   0  0  0  0  0  3  0  0  0  0  0  0
  188.4050  175.3950  143.3950 O   0  0  0  0  0  0  0  0  0  0  0  0
  191.1230  175.2780  143.5680 C   0  0  0  0  0  0  0  0  0  0  0  0
  190.0090  172.1130  141.5750 C   0  0  0  0  0  0  0  0  0  0  0  0
  192.5550  170.1700  139.9830 N   0  0  0  0  0  0  0  0  0  0  0  0
  194.1330  171.5170  141.1340 C   0  0  0  0  0  2  0  0  0  0  0  0
  192.8160  171.4850  141.8880 C   0  0  2  0  0  3  0  0  0  0  0  0
  191.9390  170.7440  140.9550 C   0  0  0  0  0  0  0  0  0  0  0  0
  190.5230  170.9280  140.9630 N   0  0  0  0  0  2  0  0  0  0  0  0
  190.3610  176.1800  144.5200 C   0  0  1  0  0  3  0  0  0  0  0  0
  188.1730  173.6370  141.9780 C   0  0  0  0  0  2  0  0  0  0  0  0
  186.4690  176.6560  147.2020 C   0  0  0  0  0  2  0  0  0  0  0  0
  186.6150  176.7440  144.8580 C   0  0  0  0  0  2  0  0  0  0  0  0
  185.7180  176.9590  145.9870 N   0  0  0  0  0  0  0  0  0  0  0  0
  187.9200  176.4180  146.8450 C   0  0  0  0  0  2  0  0  0  0  0  0
  188.0380  176.7340  145.3780 C   0  0  1  0  0  3  0  0  0  0  0  0
  183.7890  178.7940  146.1430 O   0  0  0  0  0  0  0  0  0  0  0  0
  185.9360  179.3020  147.2130 O   0  0  0  0  0  0  0  0  0  0  0  0
  185.2800  178.6420  146.0310 S   0  0  0  0  0  0  0  0  0  0  0  0
  185.8450  179.4310  144.5390 C   0  0  0  0  0  2  0  0  0  0  0  0
  184.7880  179.4170  143.5420 N   0  0  0  0  0  1  0  0  0  0  0  0
  194.5630  170.8040  138.7620 C   0  0  0  0  0  2  0  0  0  0  0  0
  194.3100  172.2810  138.5010 C   0  0  0  0  0  2  0  0  0  0  0  0
  193.3690  172.4250  137.4800 O   0  0  0  0  0  1  0  0  0  0  0  0
  194.6260  176.5040  144.3290 C   0  0  0  0  0  2  0  0  0  0  0  0
  195.1130  175.9950  142.9790 C   0  0  0  0  0  2  0  0  0  0  0  0
  196.5610  175.5260  143.0420 C   0  0  1  0  0  3  0  0  0  0  0  0
  197.3930  176.6000  143.3680 O   0  0  0  0  0  1  0  0  0  0  0  0
  195.8570  172.1390  144.7960 C   0  0  0  0  0  0  0  0  0  0  0  0
  195.8790  173.2560  143.9000 N   0  0  0  0  0  2  0  0  0  0  0  0
  196.6250  172.0980  145.7920 O   0  0  0  0  0  0  0  0  0  0  0  0
  197.4960  174.5340  145.0100 O   0  0  0  0  0  0  0  0  0  0  0  0
  196.6890  174.4270  144.0470 C   0  0  0  0  0  0  0  0  0  0  0  0
  194.9670  171.0900  144.5870 O   0  0  0  0  0  0  0  0  0  0  0  0
  194.5970  170.2070  145.6370 C   0  0  0  0  0  2  0  0  0  0  0  0
  194.0400  168.9220  145.0580 C   0  0  0  0  0  2  0  0  0  0  0  0
  192.7450  169.1390  144.5890 O   0  0  0  0  0  1  0  0  0  0  0  0
  1 13  2  0  0  0  0
  1 10  1  0  0  0  0
  2  4  2  0  0  0  0
  3 12  1  6  0  0  0
  3 26  1  0  0  0  0
  5 14  2  0  0  0  0
  5 21  1  0  0  0  0
  7 32  1  6  0  0  0
  7 16  1  0  0  0  0
  8 21  1  6  0  0  0
  8 12  1  0  0  0  0
  9  2  1  1  0  0  0
  9  8  1  0  0  0  0
  9 13  1  0  0  0  0
 10 11  2  0  0  0  0
 11  6  1  0  0  0  0
 13 20  1  0  0  0  0
 14  2  1  0  0  0  0
 15  7  1  0  0  0  0
 15 18  2  0  0  0  0
 17 16  1  6  0  0  0
 17  4  1  0  0  0  0
 18 19  1  0  0  0  0
 18 17  1  0  0  0  0
 19 14  1  0  0  0  0
 20  3  1  0  0  0  0
 20  6  1  1  0  0  0
 23 24  1  0  0  0  0
 24 29  1  0  0  0  0
 24 22  1  0  0  0  0
 25 22  1  0  0  0  0
 26 23  1  6  0  0  0
 26 25  1  0  0  0  0
 29 27  2  0  0  0  0
 29 28  2  0  0  0  0
 30 29  1  0  0  0  0
 31 30  1  0  0  0  0
 33 32  1  0  0  0  0
 34 33  1  0  0  0  0
 35 10  1  0  0  0  0
 36 37  1  0  0  0  0
 36 35  1  0  0  0  0
 37 38  1  1  0  0  0
 37 43  1  0  0  0  0
 39 41  2  0  0  0  0
 40 43  1  0  0  0  0
 40 39  1  0  0  0  0
 43 42  2  0  0  0  0
 44 39  1  0  0  0  0
 44 45  1  0  0  0  0
 46 45  1  0  0  0  0
 47 46  1  0  0  0  0
M  END
>  <MODEL>
6

>  <REMARK>
 VINA RESULT:      -6.8      3.458      8.909
  Name = 
  12 active torsions:
  status: ('A' for Active; 'I' for Inactive)
    1  A    between atoms: C_1  and  O_14
    2  A    between atoms: C_4  and  C_28
    3  A    between atoms: C_4  and  C_35
    4  A    between atoms: C_6  and  C_39
    5  A    between atoms: C_8  and  C_30
    6  A    between atoms: C_12  and  C_16
    7  A    between atoms: O_14  and  C_30
    8  A    between atoms: C_16  and  C_19
    9  A    between atoms: C_23  and  C_33
   10  A    between atoms: C_28  and  C_33
   11  A    between atoms: N_31  and  S_32
   12  A    between atoms: S_32  and  C_43
                            x       y       z     vdW  Elec       q    Type
                         _______ _______ _______ _____ _____    ______ ____

>  <TORSDO>
F 12

$$$$
=
 OpenBabel11042415333D

 47 52  0  0  1  0  0  0  0  0999 V2000
  191.2110  173.6690  142.8050 C   0  0  0  0  0  3  0  0  0  0  0  0
  190.0510  172.4470  140.2450 C   0  0  0  0  0  0  0  0  0  0  0  0
  187.9900  175.4590  142.2060 C   0  0  1  0  0  3  0  0  0  0  0  0
  190.9370  171.6050  140.8080 C   0  0  0  0  0  3  0  0  0  0  0  0
  188.4490  172.8320  138.4780 N   0  0  0  0  0  0  0  0  0  0  0  0
  189.1860  174.8930  144.3880 C   0  0  0  0  0  2  0  0  0  0  0  0
  192.5560  168.8050  139.1080 C   0  0  2  0  0  3  0  0  0  0  0  0
  188.4220  174.2370  140.4310 N   0  0  1  0  0  0  0  0  0  0  0  0
  189.8260  173.8740  140.7190 C   0  0  1  0  0  3  0  0  0  0  0  0
  191.4770  173.9790  144.2250 C   0  0  0  0  0  0  0  0  0  0  0  0
  190.5400  174.5810  144.9690 C   0  0  0  0  0  3  0  0  0  0  0  0
  188.2050  175.5250  140.8170 O   0  0  0  0  0  0  0  0  0  0  0  0
  190.1320  174.1660  142.1840 C   0  0  0  0  0  0  0  0  0  0  0  0
  189.3120  172.0300  139.0220 C   0  0  0  0  0  0  0  0  0  0  0  0
  191.4640  169.2740  138.2740 N   0  0  0  0  0  0  0  0  0  0  0  0
  192.4840  169.6550  140.3830 C   0  0  0  0  0  2  0  0  0  0  0  0
  191.0550  170.1670  140.3860 C   0  0  2  0  0  3  0  0  0  0  0  0
  190.6540  169.9860  138.9740 C   0  0  0  0  0  0  0  0  0  0  0  0
  189.6370  170.7950  138.3820 N   0  0  0  0  0  2  0  0  0  0  0  0
  189.3340  175.2370  142.9020 C   0  0  1  0  0  3  0  0  0  0  0  0
  188.2140  174.1870  138.9830 C   0  0  0  0  0  2  0  0  0  0  0  0
  187.4210  178.0520  144.7100 C   0  0  0  0  0  2  0  0  0  0  0  0
  186.1280  176.4070  143.6400 C   0  0  0  0  0  2  0  0  0  0  0  0
  186.1100  177.4100  144.6990 N   0  0  0  0  0  0  0  0  0  0  0  0
  188.2230  177.5710  143.5200 C   0  0  0  0  0  2  0  0  0  0  0  0
  187.2830  176.7190  142.7100 C   0  0  1  0  0  3  0  0  0  0  0  0
  185.5960  179.8900  143.8640 O   0  0  0  0  0  0  0  0  0  0  0  0
  184.0540  178.1110  143.1760 O   0  0  0  0  0  0  0  0  0  0  0  0
  184.9240  178.6160  144.2950 S   0  0  0  0  0  0  0  0  0  0  0  0
  183.9080  178.9360  145.7200 C   0  0  0  0  0  2  0  0  0  0  0  0
  184.4450  178.2390  146.8770 N   0  0  0  0  0  1  0  0  0  0  0  0
  193.8820  169.0170  138.3930 C   0  0  0  0  0  2  0  0  0  0  0  0
  194.3350  170.4640  138.5170 C   0  0  0  0  0  2  0  0  0  0  0  0
  194.2270  171.0980  137.2780 O   0  0  0  0  0  1  0  0  0  0  0  0
  192.7880  173.5920  144.8250 C   0  0  0  0  0  2  0  0  0  0  0  0
  193.1260  174.4660  146.0250 C   0  0  0  0  0  2  0  0  0  0  0  0
  193.5750  175.8590  145.5990 C   0  0  1  0  0  3  0  0  0  0  0  0
  193.5780  176.7150  146.7020 O   0  0  0  0  0  1  0  0  0  0  0  0
  196.3600  176.3020  142.9350 C   0  0  0  0  0  0  0  0  0  0  0  0
  195.1340  176.3330  143.6750 N   0  0  0  0  0  2  0  0  0  0  0  0
  197.4010  175.8030  143.4360 O   0  0  0  0  0  0  0  0  0  0  0  0
  195.8860  175.2310  145.5990 O   0  0  0  0  0  0  0  0  0  0  0  0
  194.9340  175.7800  144.9800 C   0  0  0  0  0  0  0  0  0  0  0  0
  196.4090  176.8070  141.6390 O   0  0  0  0  0  0  0  0  0  0  0  0
  196.8500  176.0120  140.5470 C   0  0  0  0  0  2  0  0  0  0  0  0
  195.6610  175.3580  139.8730 C   0  0  0  0  0  2  0  0  0  0  0  0
  195.9390  174.0140  139.6260 O   0  0  0  0  0  1  0  0  0  0  0  0
  1 10  1  0  0  0  0
  2  4  2  0  0  0  0
  3 12  1  6  0  0  0
  3 26  1  0  0  0  0
  3 20  1  0  0  0  0
  5 21  1  0  0  0  0
  5 14  2  0  0  0  0
  6 11  1  0  0  0  0
  7 32  1  6  0  0  0
  7 16  1  0  0  0  0
  8 21  1  6  0  0  0
  8  9  1  0  0  0  0
  8 12  1  0  0  0  0
  9  2  1  1  0  0  0
  9 13  1  0  0  0  0
 10 35  1  0  0  0  0
 10 11  2  0  0  0  0
 13  1  2  0  0  0  0
 13 20  1  0  0  0  0
 14  2  1  0  0  0  0
 15 18  2  0  0  0  0
 15  7  1  0  0  0  0
 17 16  1  6  0  0  0
 17  4  1  0  0  0  0
 18 17  1  0  0  0  0
 19 18  1  0  0  0  0
 19 14  1  0  0  0  0
 20  6  1  1  0  0  0
 23 24  1  0  0  0  0
 24 22  1  0  0  0  0
 25 22  1  0  0  0  0
 26 25  1  1  0  0  0
 26 23  1  0  0  0  0
 27 29  2  0  0  0  0
 28 29  2  0  0  0  0
 29 24  1  0  0  0  0
 29 30  1  0  0  0  0
 30 31  1  0  0  0  0
 32 33  1  0  0  0  0
 34 33  1  0  0  0  0
 35 36  1  0  0  0  0
 37 36  1  0  0  0  0
 37 38  1  1  0  0  0
 39 41  2  0  0  0  0
 39 40  1  0  0  0  0
 40 43  1  0  0  0  0
 43 42  2  0  0  0  0
 43 37  1  0  0  0  0
 44 39  1  0  0  0  0
 45 44  1  0  0  0  0
 46 45  1  0  0  0  0
 47 46  1  0  0  0  0
M  END
>  <MODEL>
7

>  <REMARK>
 VINA RESULT:      -6.8      2.960      8.338
  Name = 
  12 active torsions:
  status: ('A' for Active; 'I' for Inactive)
    1  A    between atoms: C_1  and  O_14
    2  A    between atoms: C_4  and  C_28
    3  A    between atoms: C_4  and  C_35
    4  A    between atoms: C_6  and  C_39
    5  A    between atoms: C_8  and  C_30
    6  A    between atoms: C_12  and  C_16
    7  A    between atoms: O_14  and  C_30
    8  A    between atoms: C_16  and  C_19
    9  A    between atoms: C_23  and  C_33
   10  A    between atoms: C_28  and  C_33
   11  A    between atoms: N_31  and  S_32
   12  A    between atoms: S_32  and  C_43
                            x       y       z     vdW  Elec       q    Type
                         _______ _______ _______ _____ _____    ______ ____

>  <TORSDO>
F 12

$$$$
=
 OpenBabel11042415333D

 47 52  0  0  1  0  0  0  0  0999 V2000
  188.7140  173.6540  142.5430 C   0  0  0  0  0  3  0  0  0  0  0  0
  187.3970  176.1970  141.4510 C   0  0  0  0  0  0  0  0  0  0  0  0
  189.4700  173.6880  138.8870 C   0  0  1  0  0  3  0  0  0  0  0  0
  187.5950  176.3020  142.7790 C   0  0  0  0  0  3  0  0  0  0  0  0
  186.6430  177.2570  139.4150 N   0  0  0  0  0  0  0  0  0  0  0  0
  190.8140  172.7550  140.8450 C   0  0  0  0  0  2  0  0  0  0  0  0
  185.9210  178.6960  144.9730 C   0  0  2  0  0  3  0  0  0  0  0  0
  188.0100  175.2820  139.2880 N   0  0  1  0  0  0  0  0  0  0  0  0
  187.6190  174.9140  140.6650 C   0  0  1  0  0  3  0  0  0  0  0  0
  189.7090  172.6890  143.0540 C   0  0  0  0  0  0  0  0  0  0  0  0
  190.6840  172.2390  142.2530 C   0  0  0  0  0  3  0  0  0  0  0  0
  188.1820  174.1480  138.5540 O   0  0  0  0  0  0  0  0  0  0  0  0
  188.6350  173.9300  141.2330 C   0  0  0  0  0  0  0  0  0  0  0  0
  186.8280  177.3470  140.6970 C   0  0  0  0  0  0  0  0  0  0  0  0
  185.6750  179.0910  143.5980 N   0  0  0  0  0  0  0  0  0  0  0  0
  186.8540  177.4830  144.8850 C   0  0  0  0  0  2  0  0  0  0  0  0
  187.4730  177.6130  143.5040 C   0  0  2  0  0  3  0  0  0  0  0  0
  186.5260  178.5210  142.8210 C   0  0  0  0  0  0  0  0  0  0  0  0
  186.3770  178.5060  141.4010 N   0  0  0  0  0  2  0  0  0  0  0  0
  189.4230  173.0540  140.2780 C   0  0  1  0  0  3  0  0  0  0  0  0
  186.9100  176.0240  138.6720 C   0  0  0  0  0  2  0  0  0  0  0  0
  190.8990  170.4850  137.8810 C   0  0  0  0  0  2  0  0  0  0  0  0
  191.5030  172.7490  137.7010 C   0  0  0  0  0  2  0  0  0  0  0  0
  191.9730  171.3860  137.4760 N   0  0  0  0  0  0  0  0  0  0  0  0
  189.6600  171.2950  138.1990 C   0  0  0  0  0  2  0  0  0  0  0  0
  189.9930  172.7150  137.8290 C   0  0  1  0  0  3  0  0  0  0  0  0
  191.9990  172.4590  135.0350 O   0  0  0  0  0  0  0  0  0  0  0  0
  193.6620  170.7280  135.5390 O   0  0  0  0  0  0  0  0  0  0  0  0
  192.2430  171.1710  135.7720 S   0  0  0  0  0  0  0  0  0  0  0  0
  191.1370  169.9200  135.1590 C   0  0  0  0  0  2  0  0  0  0  0  0
  191.8700  168.6890  134.9130 N   0  0  0  0  0  1  0  0  0  0  0  0
  184.6090  178.3190  145.6460 C   0  0  0  0  0  2  0  0  0  0  0  0
  184.7300  178.4290  147.1580 C   0  0  0  0  0  2  0  0  0  0  0  0
  185.7000  179.3770  147.4860 O   0  0  0  0  0  1  0  0  0  0  0  0
  189.6300  172.2430  144.4770 C   0  0  0  0  0  2  0  0  0  0  0  0
  190.4360  173.1600  145.3890 C   0  0  0  0  0  2  0  0  0  0  0  0
  189.6680  174.4300  145.7310 C   0  0  1  0  0  3  0  0  0  0  0  0
  189.3690  174.4510  147.0950 O   0  0  0  0  0  1  0  0  0  0  0  0
  192.5190  176.4790  144.0810 C   0  0  0  0  0  0  0  0  0  0  0  0
  191.6240  175.4450  144.5060 N   0  0  0  0  0  2  0  0  0  0  0  0
  192.3100  177.6790  144.3970 O   0  0  0  0  0  0  0  0  0  0  0  0
  190.1550  176.7740  145.7520 O   0  0  0  0  0  0  0  0  0  0  0  0
  190.4770  175.6260  145.3440 C   0  0  0  0  0  0  0  0  0  0  0  0
  193.6460  176.1650  143.3280 O   0  0  0  0  0  0  0  0  0  0  0  0
  194.9410  176.1160  143.9120 C   0  0  0  0  0  2  0  0  0  0  0  0
  195.9970  176.2840  142.8380 C   0  0  0  0  0  2  0  0  0  0  0  0
  197.0190  177.1080  143.3060 O   0  0  0  0  0  1  0  0  0  0  0  0
  1 10  1  0  0  0  0
  2  4  2  0  0  0  0
  3 12  1  6  0  0  0
  3 20  1  0  0  0  0
  5 14  2  0  0  0  0
  6 11  1  0  0  0  0
  7 32  1  6  0  0  0
  8 21  1  6  0  0  0
  8  9  1  0  0  0  0
  9 13  1  1  0  0  0
  9  2  1  0  0  0  0
 10 35  1  0  0  0  0
 11 10  2  0  0  0  0
 12  8  1  0  0  0  0
 13  1  2  0  0  0  0
 14 19  1  0  0  0  0
 14  2  1  0  0  0  0
 15  7  1  0  0  0  0
 16  7  1  0  0  0  0
 17  4  1  6  0  0  0
 17 16  1  0  0  0  0
 18 17  1  0  0  0  0
 18 15  2  0  0  0  0
 19 18  1  0  0  0  0
 20  6  1  1  0  0  0
 20 13  1  0  0  0  0
 21  5  1  0  0  0  0
 22 25  1  0  0  0  0
 24 23  1  0  0  0  0
 24 22  1  0  0  0  0
 26 23  1  1  0  0  0
 26 25  1  0  0  0  0
 26  3  1  0  0  0  0
 27 29  2  0  0  0  0
 28 29  2  0  0  0  0
 29 24  1  0  0  0  0
 30 29  1  0  0  0  0
 31 30  1  0  0  0  0
 32 33  1  0  0  0  0
 33 34  1  0  0  0  0
 35 36  1  0  0  0  0
 36 37  1  0  0  0  0
 37 38  1  1  0  0  0
 39 41  2  0  0  0  0
 39 40  1  0  0  0  0
 40 43  1  0  0  0  0
 43 37  1  0  0  0  0
 43 42  2  0  0  0  0
 44 45  1  0  0  0  0
 44 39  1  0  0  0  0
 46 47  1  0  0  0  0
 46 45  1  0  0  0  0
M  END
>  <MODEL>
8

>  <REMARK>
 VINA RESULT:      -6.7      1.428      1.725
  Name = 
  12 active torsions:
  status: ('A' for Active; 'I' for Inactive)
    1  A    between atoms: C_1  and  O_14
    2  A    between atoms: C_4  and  C_28
    3  A    between atoms: C_4  and  C_35
    4  A    between atoms: C_6  and  C_39
    5  A    between atoms: C_8  and  C_30
    6  A    between atoms: C_12  and  C_16
    7  A    between atoms: O_14  and  C_30
    8  A    between atoms: C_16  and  C_19
    9  A    between atoms: C_23  and  C_33
   10  A    between atoms: C_28  and  C_33
   11  A    between atoms: N_31  and  S_32
   12  A    between atoms: S_32  and  C_43
                            x       y       z     vdW  Elec       q    Type
                         _______ _______ _______ _____ _____    ______ ____

>  <TORSDO>
F 12

$$$$
=
 OpenBabel11042415333D

 47 52  0  0  1  0  0  0  0  0999 V2000
  190.3320  173.5460  143.8040 C   0  0  0  0  0  3  0  0  0  0  0  0
  192.7120  174.7230  145.3340 C   0  0  0  0  0  0  0  0  0  0  0  0
  189.2040  176.9000  144.9910 C   0  0  1  0  0  3  0  0  0  0  0  0
  193.1260  173.7600  144.4890 C   0  0  0  0  0  3  0  0  0  0  0  0
  193.3210  176.4160  146.9460 N   0  0  0  0  0  0  0  0  0  0  0  0
  188.5590  175.5830  142.9030 C   0  0  0  0  0  2  0  0  0  0  0  0
  196.3360  172.0260  144.6820 C   0  0  2  0  0  3  0  0  0  0  0  0
  191.1320  176.4590  145.9510 N   0  0  1  0  0  0  0  0  0  0  0  0
  191.2480  175.0240  145.6170 C   0  0  1  0  0  3  0  0  0  0  0  0
  189.3440  173.2450  142.7470 C   0  0  0  0  0  0  0  0  0  0  0  0
  188.4870  174.1890  142.3380 C   0  0  0  0  0  3  0  0  0  0  0  0
  189.8330  176.7460  146.2410 O   0  0  0  0  0  0  0  0  0  0  0  0
  190.2530  174.6790  144.5150 C   0  0  0  0  0  0  0  0  0  0  0  0
  193.7110  175.4800  146.1360 C   0  0  0  0  0  0  0  0  0  0  0  0
  196.3880  173.1790  145.5620 N   0  0  0  0  0  0  0  0  0  0  0  0
  194.9670  172.1040  143.9950 C   0  0  0  0  0  2  0  0  0  0  0  0
  194.5760  173.5630  144.1490 C   0  0  2  0  0  3  0  0  0  0  0  0
  195.4540  174.0070  145.2540 C   0  0  0  0  0  0  0  0  0  0  0  0
  195.0880  175.0990  146.0990 N   0  0  0  0  0  2  0  0  0  0  0  0
  188.9980  175.5180  144.3700 C   0  0  1  0  0  3  0  0  0  0  0  0
  191.9060  176.7210  147.1650 C   0  0  0  0  0  2  0  0  0  0  0  0
  185.8490  177.3240  146.3620 C   0  0  0  0  0  2  0  0  0  0  0  0
  186.8010  177.1360  144.2220 C   0  0  0  0  0  2  0  0  0  0  0  0
  185.5340  177.1920  144.9430 N   0  0  0  0  0  0  0  0  0  0  0  0
  187.3380  177.5350  146.5260 C   0  0  0  0  0  2  0  0  0  0  0  0
  187.8890  177.6690  145.1320 C   0  0  1  0  0  3  0  0  0  0  0  0
  183.6960  179.0410  145.5030 O   0  0  0  0  0  0  0  0  0  0  0  0
  185.6610  179.7390  144.2120 O   0  0  0  0  0  0  0  0  0  0  0  0
  184.6800  178.6230  144.4460 S   0  0  0  0  0  0  0  0  0  0  0  0
  183.8120  178.2870  142.9290 C   0  0  0  0  0  2  0  0  0  0  0  0
  184.6700  178.5810  141.7930 N   0  0  0  0  0  1  0  0  0  0  0  0
  196.4590  170.7470  145.4960 C   0  0  0  0  0  2  0  0  0  0  0  0
  195.0840  170.1850  145.8260 C   0  0  0  0  0  2  0  0  0  0  0  0
  195.1150  169.5720  147.0800 O   0  0  0  0  0  1  0  0  0  0  0  0
  189.3290  171.8870  142.1250 C   0  0  0  0  0  2  0  0  0  0  0  0
  190.6160  171.1290  142.4240 C   0  0  0  0  0  2  0  0  0  0  0  0
  191.3510  170.7400  141.1470 C   0  0  1  0  0  3  0  0  0  0  0  0
  190.4590  170.1560  140.2450 O   0  0  0  0  0  1  0  0  0  0  0  0
  191.9530  173.6550  138.6590 C   0  0  0  0  0  0  0  0  0  0  0  0
  191.4320  172.5250  139.3680 N   0  0  0  0  0  2  0  0  0  0  0  0
  192.9640  174.2720  139.0870 O   0  0  0  0  0  0  0  0  0  0  0  0
  193.0210  172.4540  141.0850 O   0  0  0  0  0  0  0  0  0  0  0  0
  191.9960  171.9510  140.5520 C   0  0  0  0  0  0  0  0  0  0  0  0
  191.3590  174.0730  137.4730 O   0  0  0  0  0  0  0  0  0  0  0  0
  190.2700  173.3670  136.8950 C   0  0  0  0  0  2  0  0  0  0  0  0
  188.9860  174.1450  137.0960 C   0  0  0  0  0  2  0  0  0  0  0  0
  188.7910  175.0190  136.0270 O   0  0  0  0  0  1  0  0  0  0  0  0
  1 13  2  0  0  0  0
  2  9  1  0  0  0  0
  2 14  1  0  0  0  0
  3 26  1  0  0  0  0
  3 12  1  1  0  0  0
  4  2  2  0  0  0  0
  5 21  1  0  0  0  0
  7 32  1  1  0  0  0
  7 15  1  0  0  0  0
  8 12  1  0  0  0  0
  8 21  1  1  0  0  0
  9 13  1  6  0  0  0
  9  8  1  0  0  0  0
 10  1  1  0  0  0  0
 11 10  2  0  0  0  0
 11  6  1  0  0  0  0
 14  5  2  0  0  0  0
 16  7  1  0  0  0  0
 17 16  1  1  0  0  0
 17  4  1  0  0  0  0
 17 18  1  0  0  0  0
 18 15  2  0  0  0  0
 18 19  1  0  0  0  0
 19 14  1  0  0  0  0
 20  6  1  6  0  0  0
 20 13  1  0  0  0  0
 20  3  1  0  0  0  0
 22 25  1  0  0  0  0
 23 24  1  0  0  0  0
 24 22  1  0  0  0  0
 26 23  1  6  0  0  0
 26 25  1  0  0  0  0
 28 29  2  0  0  0  0
 29 24  1  0  0  0  0
 29 27  2  0  0  0  0
 30 29  1  0  0  0  0
 31 30  1  0  0  0  0
 32 33  1  0  0  0  0
 33 34  1  0  0  0  0
 35 36  1  0  0  0  0
 35 10  1  0  0  0  0
 37 38  1  6  0  0  0
 37 36  1  0  0  0  0
 39 41  2  0  0  0  0
 39 40  1  0  0  0  0
 40 43  1  0  0  0  0
 43 42  2  0  0  0  0
 43 37  1  0  0  0  0
 44 39  1  0  0  0  0
 45 46  1  0  0  0  0
 45 44  1  0  0  0  0
 47 46  1  0  0  0  0
M  END
>  <MODEL>
9

>  <REMARK>
 VINA RESULT:      -6.6      3.326      9.386
  Name = 
  12 active torsions:
  status: ('A' for Active; 'I' for Inactive)
    1  A    between atoms: C_1  and  O_14
    2  A    between atoms: C_4  and  C_28
    3  A    between atoms: C_4  and  C_35
    4  A    between atoms: C_6  and  C_39
    5  A    between atoms: C_8  and  C_30
    6  A    between atoms: C_12  and  C_16
    7  A    between atoms: O_14  and  C_30
    8  A    between atoms: C_16  and  C_19
    9  A    between atoms: C_23  and  C_33
   10  A    between atoms: C_28  and  C_33
   11  A    between atoms: N_31  and  S_32
   12  A    between atoms: S_32  and  C_43
                            x       y       z     vdW  Elec       q    Type
                         _______ _______ _______ _____ _____    ______ ____

>  <TORSDO>
F 12

$$$$
