=
 OpenBabel11042413463D

 30 33  0  0  1  0  0  0  0  0999 V2000
  190.1500  175.8690  143.8070 C   0  0  0  0  0  0  0  0  0  0  0  0
  189.2250  176.3590  143.0270 N   0  0  0  0  0  0  0  0  0  0  0  0
  193.4040  172.9980  145.3590 C   0  0  0  0  0  1  0  0  0  0  0  0
  191.5270  175.6580  143.2530 C   0  0  1  0  0  3  0  0  0  0  0  0
  193.6280  175.5010  145.2220 C   0  0  0  0  0  0  0  0  0  0  0  0
  194.4930  175.4990  146.1830 N   0  0  0  0  0  2  0  0  0  0  0  0
  192.4270  176.8110  143.6180 C   0  0  0  0  0  3  0  0  0  0  0  0
  191.6750  173.2750  143.1490 O   0  0  0  0  0  0  0  0  0  0  0  0
  193.0290  174.2790  144.7730 N   0  0  0  0  0  0  0  0  0  0  0  0
  193.3470  176.7230  144.5320 N   0  0  0  0  0  0  0  0  0  0  0  0
  192.0820  174.3340  143.6980 C   0  0  0  0  0  0  0  0  0  0  0  0
  186.3810  178.5740  144.2960 C   0  0  1  0  0  3  0  0  0  0  0  0
  187.8040  178.1330  143.9190 C   0  0  0  0  0  2  0  0  0  0  0  0
  184.0290  178.2490  143.8550 O   0  0  0  0  0  1  0  0  0  0  0  0
  186.9420  176.5010  142.1950 C   0  0  0  0  0  2  0  0  0  0  0  0
  187.8600  176.6910  143.4080 C   0  0  1  0  0  3  0  0  0  0  0  0
  185.2820  177.6400  143.7620 C   0  0  1  0  0  3  0  0  0  0  0  0
  185.5710  177.1830  142.3210 C   0  0  1  0  0  3  0  0  0  0  0  0
  185.4980  178.3330  141.3180 C   0  0  0  0  0  2  0  0  0  0  0  0
  184.4530  178.0790  140.2810 C   0  0  0  0  0  3  0  0  0  0  0  0
  183.2110  178.2350  140.5580 N   0  0  0  0  0  2  0  0  0  0  0  0
  186.2480  178.8280  145.7950 C   0  0  0  0  0  2  0  0  0  0  0  0
  185.5410  177.6900  146.5140 C   0  0  0  0  0  3  0  0  0  0  0  0
  186.5780  176.7420  147.0790 C   0  0  0  0  0  2  0  0  0  0  0  0
  185.8930  177.7400  147.9860 C   0  0  0  0  0  2  0  0  0  0  0  0
  190.1870  176.2400  146.3600 C   0  0  0  0  0  3  0  0  0  0  0  0
  189.2890  174.3580  146.9060 N   0  0  0  0  0  0  0  0  0  0  0  0
  189.3720  174.3770  145.6110 O   0  0  0  0  0  0  0  0  0  0  0  0
  189.7800  175.4850  147.3990 N   0  0  0  0  0  0  0  0  0  0  0  0
  189.9180  175.5030  145.2230 C   0  0  0  0  0  0  0  0  0  0  0  0
  1 30  1  0  0  0  0
  2  1  2  0  0  0  0
  4  7  1  0  0  0  0
  4 11  1  0  0  0  0
  4  1  1  1  0  0  0
  5  6  2  0  0  0  0
  7 10  2  0  0  0  0
  8 11  2  0  0  0  0
  9  5  1  0  0  0  0
  9  3  1  0  0  0  0
 10  5  1  0  0  0  0
 11  9  1  0  0  0  0
 12 22  1  1  0  0  0
 13 12  1  0  0  0  0
 15 18  1  0  0  0  0
 15 16  1  0  0  0  0
 16  2  1  6  0  0  0
 16 13  1  0  0  0  0
 17 14  1  6  0  0  0
 17 12  1  0  0  0  0
 18 19  1  6  0  0  0
 18 17  1  0  0  0  0
 20 21  2  0  0  0  0
 20 19  1  0  0  0  0
 22 23  1  0  0  0  0
 23 24  1  0  0  0  0
 23 25  1  0  0  0  0
 24 25  1  0  0  0  0
 26 29  1  0  0  0  0
 27 29  2  0  0  0  0
 28 27  1  0  0  0  0
 30 28  1  0  0  0  0
 30 26  2  0  0  0  0
M  END
>  <MODEL>
1

>  <REMARK>
 VINA RESULT:      -7.0      0.000      0.000
  Name = 
  7 active torsions:
  status: ('A' for Active; 'I' for Inactive)
    1  A    between atoms: C_2  and  C_22
    2  A    between atoms: C_3  and  C_4
    3  A    between atoms: C_3  and  C_28
    4  A    between atoms: C_5  and  C_22
    5  A    between atoms: C_8  and  C_10
    6  A    between atoms: C_10  and  C_29
    7  A    between atoms: C_18  and  N_21
                            x       y       z     vdW  Elec       q    Type
                         _______ _______ _______ _____ _____    ______ ____

>  <TORSDO>
F 7

$$$$
=
 OpenBabel11042413463D

 30 33  0  0  1  0  0  0  0  0999 V2000
  192.3220  176.1440  144.3770 C   0  0  0  0  0  0  0  0  0  0  0  0
  191.3100  176.9700  144.3720 N   0  0  0  0  0  0  0  0  0  0  0  0
  196.3470  174.1860  143.2810 C   0  0  0  0  0  1  0  0  0  0  0  0
  193.7000  176.6900  144.6040 C   0  0  1  0  0  3  0  0  0  0  0  0
  195.6190  174.7890  145.6140 C   0  0  0  0  0  0  0  0  0  0  0  0
  196.3790  173.8690  146.1130 N   0  0  0  0  0  2  0  0  0  0  0  0
  194.0830  176.5710  146.0580 C   0  0  0  0  0  3  0  0  0  0  0  0
  194.7380  176.3580  142.4780 O   0  0  0  0  0  0  0  0  0  0  0  0
  195.5440  174.9870  144.1960 N   0  0  0  0  0  0  0  0  0  0  0  0
  194.9280  175.6830  146.4920 N   0  0  0  0  0  0  0  0  0  0  0  0
  194.6930  176.0250  143.6930 C   0  0  0  0  0  0  0  0  0  0  0  0
  187.5340  177.3740  144.7980 C   0  0  1  0  0  3  0  0  0  0  0  0
  189.0380  177.6560  144.9430 C   0  0  0  0  0  2  0  0  0  0  0  0
  185.8370  176.3720  143.4040 O   0  0  0  0  0  1  0  0  0  0  0  0
  189.5570  176.5300  142.7430 C   0  0  0  0  0  2  0  0  0  0  0  0
  189.9060  176.6130  144.2330 C   0  0  1  0  0  3  0  0  0  0  0  0
  187.2000  176.3460  143.7040 C   0  0  1  0  0  3  0  0  0  0  0  0
  188.0510  176.5620  142.4390 C   0  0  1  0  0  3  0  0  0  0  0  0
  187.7190  177.8720  141.7290 C   0  0  0  0  0  2  0  0  0  0  0  0
  187.0560  177.6210  140.4130 C   0  0  0  0  0  3  0  0  0  0  0  0
  185.7990  177.8230  140.2700 N   0  0  0  0  0  2  0  0  0  0  0  0
  186.8950  177.0220  146.1390 C   0  0  0  0  0  2  0  0  0  0  0  0
  186.2190  178.2190  146.7890 C   0  0  0  0  0  3  0  0  0  0  0  0
  185.5520  179.0530  145.7160 C   0  0  0  0  0  2  0  0  0  0  0  0
  184.7240  178.1220  146.5730 C   0  0  0  0  0  2  0  0  0  0  0  0
  192.0840  173.6830  145.1120 C   0  0  0  0  0  3  0  0  0  0  0  0
  191.9960  172.8320  143.1340 N   0  0  0  0  0  0  0  0  0  0  0  0
  192.1270  174.1150  142.9890 O   0  0  0  0  0  0  0  0  0  0  0  0
  191.9670  172.5310  144.4240 N   0  0  0  0  0  0  0  0  0  0  0  0
  192.1900  174.6850  144.1670 C   0  0  0  0  0  0  0  0  0  0  0  0
  2  1  2  0  0  0  0
  3  9  1  0  0  0  0
  4  1  1  1  0  0  0
  4  7  1  0  0  0  0
  5  6  2  0  0  0  0
  5 10  1  0  0  0  0
  7 10  2  0  0  0  0
  8 11  2  0  0  0  0
  9  5  1  0  0  0  0
 11  9  1  0  0  0  0
 11  4  1  0  0  0  0
 12 13  1  0  0  0  0
 12 22  1  1  0  0  0
 15 16  1  0  0  0  0
 16  2  1  6  0  0  0
 16 13  1  0  0  0  0
 17 14  1  6  0  0  0
 17 12  1  0  0  0  0
 18 19  1  1  0  0  0
 18 15  1  0  0  0  0
 18 17  1  0  0  0  0
 20 19  1  0  0  0  0
 21 20  2  0  0  0  0
 22 23  1  0  0  0  0
 24 25  1  0  0  0  0
 24 23  1  0  0  0  0
 25 23  1  0  0  0  0
 27 29  2  0  0  0  0
 28 27  1  0  0  0  0
 28 30  1  0  0  0  0
 29 26  1  0  0  0  0
 30  1  1  0  0  0  0
 30 26  2  0  0  0  0
M  END
>  <MODEL>
2

>  <REMARK>
 VINA RESULT:      -6.8      2.020      2.879
  Name = 
  7 active torsions:
  status: ('A' for Active; 'I' for Inactive)
    1  A    between atoms: C_2  and  C_22
    2  A    between atoms: C_3  and  C_4
    3  A    between atoms: C_3  and  C_28
    4  A    between atoms: C_5  and  C_22
    5  A    between atoms: C_8  and  C_10
    6  A    between atoms: C_10  and  C_29
    7  A    between atoms: C_18  and  N_21
                            x       y       z     vdW  Elec       q    Type
                         _______ _______ _______ _____ _____    ______ ____

>  <TORSDO>
F 7

$$$$
=
 OpenBabel11042413463D

 30 33  0  0  1  0  0  0  0  0999 V2000
  188.2820  174.8760  142.3950 C   0  0  0  0  0  0  0  0  0  0  0  0
  189.1520  174.8690  143.3680 N   0  0  0  0  0  0  0  0  0  0  0  0
  191.1790  171.2960  142.2120 C   0  0  0  0  0  1  0  0  0  0  0  0
  188.2420  173.7110  141.4520 C   0  0  1  0  0  3  0  0  0  0  0  0
  190.7930  172.9420  140.3470 C   0  0  0  0  0  0  0  0  0  0  0  0
  191.9760  172.7180  139.8750 N   0  0  0  0  0  2  0  0  0  0  0  0
  188.7260  174.1200  140.0840 C   0  0  0  0  0  3  0  0  0  0  0  0
  188.5080  171.8510  142.9280 O   0  0  0  0  0  0  0  0  0  0  0  0
  190.3380  172.2730  141.5310 N   0  0  0  0  0  0  0  0  0  0  0  0
  189.8940  173.7860  139.6210 N   0  0  0  0  0  0  0  0  0  0  0  0
  189.0150  172.5490  142.0100 C   0  0  0  0  0  0  0  0  0  0  0  0
  188.6280  176.4440  146.8110 C   0  0  1  0  0  3  0  0  0  0  0  0
  188.4900  175.4510  145.6450 C   0  0  0  0  0  2  0  0  0  0  0  0
  190.0590  178.0890  147.8480 O   0  0  0  0  0  1  0  0  0  0  0  0
  190.7760  176.0440  144.7480 C   0  0  0  0  0  2  0  0  0  0  0  0
  189.2900  175.8760  144.4100 C   0  0  1  0  0  3  0  0  0  0  0  0
  189.7870  177.4400  146.6420 C   0  0  1  0  0  3  0  0  0  0  0  0
  191.0480  176.7580  146.0810 C   0  0  1  0  0  3  0  0  0  0  0  0
  191.6560  175.7580  147.0620 C   0  0  0  0  0  2  0  0  0  0  0  0
  192.9170  175.1680  146.5210 C   0  0  0  0  0  3  0  0  0  0  0  0
  193.9990  175.8540  146.5030 N   0  0  0  0  0  2  0  0  0  0  0  0
  187.3040  177.1410  147.1160 C   0  0  0  0  0  2  0  0  0  0  0  0
  186.6040  177.6300  145.8580 C   0  0  0  0  0  3  0  0  0  0  0  0
  185.1230  177.3390  145.9710 C   0  0  0  0  0  2  0  0  0  0  0  0
  185.6400  178.7380  146.2260 C   0  0  0  0  0  2  0  0  0  0  0  0
  187.4330  177.0500  141.2950 C   0  0  0  0  0  3  0  0  0  0  0  0
  185.5480  177.1440  142.3360 N   0  0  0  0  0  0  0  0  0  0  0  0
  186.1630  176.0840  142.7610 O   0  0  0  0  0  0  0  0  0  0  0  0
  186.2980  177.7620  141.4350 N   0  0  0  0  0  0  0  0  0  0  0  0
  187.3230  175.9790  142.1610 C   0  0  0  0  0  0  0  0  0  0  0  0
  1  2  2  0  0  0  0
  4 11  1  0  0  0  0
  4  1  1  1  0  0  0
  5  9  1  0  0  0  0
  6  5  2  0  0  0  0
  7  4  1  0  0  0  0
  9 11  1  0  0  0  0
  9  3  1  0  0  0  0
 10  7  2  0  0  0  0
 10  5  1  0  0  0  0
 11  8  2  0  0  0  0
 12 22  1  6  0  0  0
 13 12  1  0  0  0  0
 15 18  1  0  0  0  0
 16  2  1  6  0  0  0
 16 15  1  0  0  0  0
 16 13  1  0  0  0  0
 17 12  1  0  0  0  0
 17 14  1  1  0  0  0
 18 17  1  0  0  0  0
 18 19  1  1  0  0  0
 20 19  1  0  0  0  0
 21 20  2  0  0  0  0
 23 24  1  0  0  0  0
 23 25  1  0  0  0  0
 23 22  1  0  0  0  0
 24 25  1  0  0  0  0
 26 29  1  0  0  0  0
 26 30  2  0  0  0  0
 27 28  1  0  0  0  0
 29 27  2  0  0  0  0
 30  1  1  0  0  0  0
 30 28  1  0  0  0  0
M  END
>  <MODEL>
3

>  <REMARK>
 VINA RESULT:      -6.7      2.720      5.707
  Name = 
  7 active torsions:
  status: ('A' for Active; 'I' for Inactive)
    1  A    between atoms: C_2  and  C_22
    2  A    between atoms: C_3  and  C_4
    3  A    between atoms: C_3  and  C_28
    4  A    between atoms: C_5  and  C_22
    5  A    between atoms: C_8  and  C_10
    6  A    between atoms: C_10  and  C_29
    7  A    between atoms: C_18  and  N_21
                            x       y       z     vdW  Elec       q    Type
                         _______ _______ _______ _____ _____    ______ ____

>  <TORSDO>
F 7

$$$$
=
 OpenBabel11042413463D

 30 33  0  0  1  0  0  0  0  0999 V2000
  189.3380  173.9900  142.1190 C   0  0  0  0  0  0  0  0  0  0  0  0
  190.1530  173.9830  143.1390 N   0  0  0  0  0  0  0  0  0  0  0  0
  191.8200  173.8060  138.2400 C   0  0  0  0  0  1  0  0  0  0  0  0
  189.4100  172.8670  141.1290 C   0  0  1  0  0  3  0  0  0  0  0  0
  189.3100  173.6680  138.3600 C   0  0  0  0  0  0  0  0  0  0  0  0
  189.2050  174.1340  137.1580 N   0  0  0  0  0  2  0  0  0  0  0  0
  188.1620  172.8250  140.2840 C   0  0  0  0  0  3  0  0  0  0  0  0
  191.7650  172.6260  140.8010 O   0  0  0  0  0  0  0  0  0  0  0  0
  190.5970  173.4960  138.9690 N   0  0  0  0  0  0  0  0  0  0  0  0
  188.1360  173.2210  139.0460 N   0  0  0  0  0  0  0  0  0  0  0  0
  190.6600  172.9680  140.3000 C   0  0  0  0  0  0  0  0  0  0  0  0
  189.6140  175.2700  146.6970 C   0  0  1  0  0  3  0  0  0  0  0  0
  189.5740  174.3240  145.4860 C   0  0  0  0  0  2  0  0  0  0  0  0
  190.7900  177.1080  147.7310 O   0  0  0  0  0  1  0  0  0  0  0  0
  191.6320  175.3820  144.4740 C   0  0  0  0  0  2  0  0  0  0  0  0
  190.1820  174.9490  144.2280 C   0  0  1  0  0  3  0  0  0  0  0  0
  190.5500  176.4760  146.5100 C   0  0  1  0  0  3  0  0  0  0  0  0
  191.8690  176.0730  145.8250 C   0  0  1  0  0  3  0  0  0  0  0  0
  192.7270  175.1630  146.7010 C   0  0  0  0  0  2  0  0  0  0  0  0
  194.0510  174.8890  146.0640 C   0  0  0  0  0  3  0  0  0  0  0  0
  194.9460  175.8040  146.0110 N   0  0  0  0  0  2  0  0  0  0  0  0
  188.2110  175.6870  147.1330 C   0  0  0  0  0  2  0  0  0  0  0  0
  187.6330  176.7820  146.2490 C   0  0  0  0  0  3  0  0  0  0  0  0
  186.1220  176.7380  146.3320 C   0  0  0  0  0  2  0  0  0  0  0  0
  186.8920  177.7780  147.1160 C   0  0  0  0  0  2  0  0  0  0  0  0
  187.1600  175.3010  142.5580 C   0  0  0  0  0  3  0  0  0  0  0  0
  187.4240  176.7650  140.9980 N   0  0  0  0  0  0  0  0  0  0  0  0
  188.4480  175.9700  140.9490 O   0  0  0  0  0  0  0  0  0  0  0  0
  186.6130  176.3850  141.9740 N   0  0  0  0  0  0  0  0  0  0  0  0
  188.3370  175.0530  141.8770 C   0  0  0  0  0  0  0  0  0  0  0  0
  1  2  2  0  0  0  0
  3  9  1  0  0  0  0
  4  1  1  1  0  0  0
  5  9  1  0  0  0  0
  5 10  1  0  0  0  0
  6  5  2  0  0  0  0
  7  4  1  0  0  0  0
  9 11  1  0  0  0  0
 10  7  2  0  0  0  0
 11  8  2  0  0  0  0
 11  4  1  0  0  0  0
 12 22  1  6  0  0  0
 13 12  1  0  0  0  0
 15 18  1  0  0  0  0
 16  2  1  6  0  0  0
 16 15  1  0  0  0  0
 16 13  1  0  0  0  0
 17 12  1  0  0  0  0
 17 14  1  1  0  0  0
 18 17  1  0  0  0  0
 18 19  1  1  0  0  0
 20 19  1  0  0  0  0
 21 20  2  0  0  0  0
 23 24  1  0  0  0  0
 23 25  1  0  0  0  0
 23 22  1  0  0  0  0
 24 25  1  0  0  0  0
 27 29  2  0  0  0  0
 28 27  1  0  0  0  0
 28 30  1  0  0  0  0
 29 26  1  0  0  0  0
 30  1  1  0  0  0  0
 30 26  2  0  0  0  0
M  END
>  <MODEL>
4

>  <REMARK>
 VINA RESULT:      -6.3      3.152      6.453
  Name = 
  7 active torsions:
  status: ('A' for Active; 'I' for Inactive)
    1  A    between atoms: C_2  and  C_22
    2  A    between atoms: C_3  and  C_4
    3  A    between atoms: C_3  and  C_28
    4  A    between atoms: C_5  and  C_22
    5  A    between atoms: C_8  and  C_10
    6  A    between atoms: C_10  and  C_29
    7  A    between atoms: C_18  and  N_21
                            x       y       z     vdW  Elec       q    Type
                         _______ _______ _______ _____ _____    ______ ____

>  <TORSDO>
F 7

$$$$
=
 OpenBabel11042413463D

 30 33  0  0  1  0  0  0  0  0999 V2000
  189.7530  174.1410  141.8320 C   0  0  0  0  0  0  0  0  0  0  0  0
  188.8230  175.0580  141.8650 N   0  0  0  0  0  0  0  0  0  0  0  0
  190.7210  170.0150  140.0230 C   0  0  0  0  0  1  0  0  0  0  0  0
  190.4340  173.8480  140.5300 C   0  0  1  0  0  3  0  0  0  0  0  0
  192.4250  171.7640  140.6310 C   0  0  0  0  0  0  0  0  0  0  0  0
  193.3290  170.8550  140.8030 N   0  0  0  0  0  2  0  0  0  0  0  0
  191.9160  174.1030  140.6390 C   0  0  0  0  0  3  0  0  0  0  0  0
  188.9990  172.2010  139.5620 O   0  0  0  0  0  0  0  0  0  0  0  0
  191.0880  171.4060  140.2570 N   0  0  0  0  0  0  0  0  0  0  0  0
  192.7910  173.1450  140.7140 N   0  0  0  0  0  0  0  0  0  0  0  0
  190.1250  172.4510  140.0700 C   0  0  0  0  0  0  0  0  0  0  0  0
  188.1590  177.2340  144.9360 C   0  0  1  0  0  3  0  0  0  0  0  0
  188.8820  176.6590  143.7070 C   0  0  0  0  0  2  0  0  0  0  0  0
  186.0100  177.6040  145.9720 O   0  0  0  0  0  1  0  0  0  0  0  0
  186.7030  175.9750  142.6290 C   0  0  0  0  0  2  0  0  0  0  0  0
  188.1050  175.5180  143.0450 C   0  0  1  0  0  3  0  0  0  0  0  0
  186.6840  176.8120  145.0400 C   0  0  1  0  0  3  0  0  0  0  0  0
  185.9830  176.8470  143.6700 C   0  0  1  0  0  3  0  0  0  0  0  0
  185.8490  178.2650  143.1190 C   0  0  0  0  0  2  0  0  0  0  0  0
  184.9800  178.2930  141.9040 C   0  0  0  0  0  3  0  0  0  0  0  0
  183.7080  178.1870  142.0130 N   0  0  0  0  0  2  0  0  0  0  0  0
  188.9330  176.9600  146.2230 C   0  0  0  0  0  2  0  0  0  0  0  0
  189.6740  175.6320  146.1810 C   0  0  0  0  0  3  0  0  0  0  0  0
  190.4480  175.4570  147.4710 C   0  0  0  0  0  2  0  0  0  0  0  0
  189.1360  174.7300  147.2720 C   0  0  0  0  0  2  0  0  0  0  0  0
  189.6180  172.2130  143.5410 C   0  0  0  0  0  3  0  0  0  0  0  0
  191.3360  172.7860  144.7110 N   0  0  0  0  0  0  0  0  0  0  0  0
  191.2140  173.6630  143.7610 O   0  0  0  0  0  0  0  0  0  0  0  0
  190.3740  171.8820  144.6070 N   0  0  0  0  0  0  0  0  0  0  0  0
  190.1770  173.3630  143.0180 C   0  0  0  0  0  0  0  0  0  0  0  0
  1  2  2  0  0  0  0
  1 30  1  0  0  0  0
  3  9  1  0  0  0  0
  4  7  1  0  0  0  0
  4  1  1  1  0  0  0
  5 10  1  0  0  0  0
  5  6  2  0  0  0  0
  7 10  2  0  0  0  0
  8 11  2  0  0  0  0
  9  5  1  0  0  0  0
 11  9  1  0  0  0  0
 11  4  1  0  0  0  0
 12 17  1  0  0  0  0
 12 22  1  1  0  0  0
 13 12  1  0  0  0  0
 15 16  1  0  0  0  0
 15 18  1  0  0  0  0
 16  2  1  6  0  0  0
 16 13  1  0  0  0  0
 17 14  1  1  0  0  0
 18 19  1  6  0  0  0
 18 17  1  0  0  0  0
 20 21  2  0  0  0  0
 20 19  1  0  0  0  0
 23 22  1  0  0  0  0
 23 25  1  0  0  0  0
 23 24  1  0  0  0  0
 25 24  1  0  0  0  0
 26 29  1  0  0  0  0
 28 27  1  0  0  0  0
 29 27  2  0  0  0  0
 30 26  2  0  0  0  0
 30 28  1  0  0  0  0
M  END
>  <MODEL>
5

>  <REMARK>
 VINA RESULT:      -6.1      2.984      3.878
  Name = 
  7 active torsions:
  status: ('A' for Active; 'I' for Inactive)
    1  A    between atoms: C_2  and  C_22
    2  A    between atoms: C_3  and  C_4
    3  A    between atoms: C_3  and  C_28
    4  A    between atoms: C_5  and  C_22
    5  A    between atoms: C_8  and  C_10
    6  A    between atoms: C_10  and  C_29
    7  A    between atoms: C_18  and  N_21
                            x       y       z     vdW  Elec       q    Type
                         _______ _______ _______ _____ _____    ______ ____

>  <TORSDO>
F 7

$$$$
=
 OpenBabel11042413463D

 30 33  0  0  1  0  0  0  0  0999 V2000
  191.3510  175.7540  144.4490 C   0  0  0  0  0  0  0  0  0  0  0  0
  190.5710  175.9340  143.4170 N   0  0  0  0  0  0  0  0  0  0  0  0
  193.6060  174.4500  140.6480 C   0  0  0  0  0  1  0  0  0  0  0  0
  192.8340  175.7030  144.2340 C   0  0  1  0  0  3  0  0  0  0  0  0
  193.7970  173.3370  142.8970 C   0  0  0  0  0  0  0  0  0  0  0  0
  194.1220  172.2160  142.3400 N   0  0  0  0  0  2  0  0  0  0  0  0
  193.4320  174.5170  144.9470 C   0  0  0  0  0  3  0  0  0  0  0  0
  193.0810  176.7950  142.1230 O   0  0  0  0  0  0  0  0  0  0  0  0
  193.5070  174.4930  142.1010 N   0  0  0  0  0  0  0  0  0  0  0  0
  193.8300  173.4490  144.3230 N   0  0  0  0  0  0  0  0  0  0  0  0
  193.1590  175.7140  142.7670 C   0  0  0  0  0  0  0  0  0  0  0  0
  187.2300  177.6710  144.0680 C   0  0  1  0  0  3  0  0  0  0  0  0
  188.7470  177.4280  144.0520 C   0  0  0  0  0  2  0  0  0  0  0  0
  185.1350  177.1650  142.9800 O   0  0  0  0  0  1  0  0  0  0  0  0
  188.5810  175.9430  142.0150 C   0  0  0  0  0  2  0  0  0  0  0  0
  189.1220  176.0740  143.4440 C   0  0  1  0  0  3  0  0  0  0  0  0
  186.4380  176.7030  143.1730 C   0  0  1  0  0  3  0  0  0  0  0  0
  187.1470  176.4600  141.8290 C   0  0  1  0  0  3  0  0  0  0  0  0
  187.1830  177.7120  140.9540 C   0  0  0  0  0  2  0  0  0  0  0  0
  186.3360  177.5450  139.7340 C   0  0  0  0  0  3  0  0  0  0  0  0
  186.6900  176.7370  138.8050 N   0  0  0  0  0  2  0  0  0  0  0  0
  186.6830  177.7230  145.4930 C   0  0  0  0  0  2  0  0  0  0  0  0
  185.8980  178.9960  145.7650 C   0  0  0  0  0  3  0  0  0  0  0  0
  184.4960  178.6290  146.2020 C   0  0  0  0  0  2  0  0  0  0  0  0
  185.5240  179.0430  147.2320 C   0  0  0  0  0  2  0  0  0  0  0  0
  189.9620  174.6590  146.3270 C   0  0  0  0  0  3  0  0  0  0  0  0
  190.6320  175.9440  147.9230 N   0  0  0  0  0  0  0  0  0  0  0  0
  191.2290  176.3410  146.8410 O   0  0  0  0  0  0  0  0  0  0  0  0
  189.8460  174.9150  147.6450 N   0  0  0  0  0  0  0  0  0  0  0  0
  190.8530  175.5930  145.8330 C   0  0  0  0  0  0  0  0  0  0  0  0
  1 30  1  0  0  0  0
  2  1  2  0  0  0  0
  3  9  1  0  0  0  0
  4  1  1  6  0  0  0
  4  7  1  0  0  0  0
  5 10  1  0  0  0  0
  6  5  2  0  0  0  0
  8 11  2  0  0  0  0
  9 11  1  0  0  0  0
  9  5  1  0  0  0  0
 10  7  2  0  0  0  0
 11  4  1  0  0  0  0
 12 22  1  1  0  0  0
 13 12  1  0  0  0  0
 15 16  1  0  0  0  0
 16  2  1  6  0  0  0
 16 13  1  0  0  0  0
 17 14  1  6  0  0  0
 17 12  1  0  0  0  0
 18 19  1  1  0  0  0
 18 15  1  0  0  0  0
 18 17  1  0  0  0  0
 20 19  1  0  0  0  0
 21 20  2  0  0  0  0
 22 23  1  0  0  0  0
 23 24  1  0  0  0  0
 23 25  1  0  0  0  0
 24 25  1  0  0  0  0
 26 29  1  0  0  0  0
 28 27  1  0  0  0  0
 29 27  2  0  0  0  0
 30 26  2  0  0  0  0
 30 28  1  0  0  0  0
M  END
>  <MODEL>
6

>  <REMARK>
 VINA RESULT:      -6.0      1.962      2.502
  Name = 
  7 active torsions:
  status: ('A' for Active; 'I' for Inactive)
    1  A    between atoms: C_2  and  C_22
    2  A    between atoms: C_3  and  C_4
    3  A    between atoms: C_3  and  C_28
    4  A    between atoms: C_5  and  C_22
    5  A    between atoms: C_8  and  C_10
    6  A    between atoms: C_10  and  C_29
    7  A    between atoms: C_18  and  N_21
                            x       y       z     vdW  Elec       q    Type
                         _______ _______ _______ _____ _____    ______ ____

>  <TORSDO>
F 7

$$$$
=
 OpenBabel11042413463D

 30 33  0  0  1  0  0  0  0  0999 V2000
  189.4390  175.6410  145.0940 C   0  0  0  0  0  0  0  0  0  0  0  0
  188.1700  175.8950  145.2640 N   0  0  0  0  0  0  0  0  0  0  0  0
  193.8760  174.6890  145.8960 C   0  0  0  0  0  1  0  0  0  0  0  0
  190.0150  174.3960  145.6990 C   0  0  1  0  0  3  0  0  0  0  0  0
  192.3640  173.3680  144.3790 C   0  0  0  0  0  0  0  0  0  0  0  0
  193.3770  172.9680  143.6800 N   0  0  0  0  0  2  0  0  0  0  0  0
  189.9940  173.2650  144.7020 C   0  0  0  0  0  3  0  0  0  0  0  0
  191.5210  175.2720  147.3340 O   0  0  0  0  0  0  0  0  0  0  0  0
  192.5460  174.2490  145.4950 N   0  0  0  0  0  0  0  0  0  0  0  0
  191.0640  172.8410  144.0970 N   0  0  0  0  0  0  0  0  0  0  0  0
  191.3920  174.6560  146.2420 C   0  0  0  0  0  0  0  0  0  0  0  0
  185.2500  177.6450  143.5270 C   0  0  1  0  0  3  0  0  0  0  0  0
  186.1140  176.5100  144.1000 C   0  0  0  0  0  2  0  0  0  0  0  0
  184.7030  179.9910  143.6940 O   0  0  0  0  0  1  0  0  0  0  0  0
  187.1730  178.0500  145.8000 C   0  0  0  0  0  2  0  0  0  0  0  0
  187.4300  177.0140  144.6990 C   0  0  1  0  0  3  0  0  0  0  0  0
  185.6930  179.0470  143.9760 C   0  0  1  0  0  3  0  0  0  0  0  0
  186.0780  179.0740  145.4660 C   0  0  1  0  0  3  0  0  0  0  0  0
  184.8800  178.8330  146.3820 C   0  0  0  0  0  2  0  0  0  0  0  0
  185.1250  177.6780  147.3000 C   0  0  0  0  0  3  0  0  0  0  0  0
  184.4760  176.5830  147.1520 N   0  0  0  0  0  2  0  0  0  0  0  0
  185.1150  177.5380  142.0100 C   0  0  0  0  0  2  0  0  0  0  0  0
  186.3450  178.0560  141.2810 C   0  0  0  0  0  3  0  0  0  0  0  0
  187.2200  176.8840  140.8920 C   0  0  0  0  0  2  0  0  0  0  0  0
  186.3320  177.5400  139.8580 C   0  0  0  0  0  2  0  0  0  0  0  0
  190.8580  177.7570  144.6870 C   0  0  0  0  0  3  0  0  0  0  0  0
  191.6370  177.1780  142.7630 N   0  0  0  0  0  0  0  0  0  0  0  0
  190.8620  176.2170  143.1630 O   0  0  0  0  0  0  0  0  0  0  0  0
  191.6580  178.1400  143.6730 N   0  0  0  0  0  0  0  0  0  0  0  0
  190.3550  176.5200  144.3330 C   0  0  0  0  0  0  0  0  0  0  0  0
  1  2  2  0  0  0  0
  4  1  1  6  0  0  0
  4 11  1  0  0  0  0
  5  9  1  0  0  0  0
  6  5  2  0  0  0  0
  7  4  1  0  0  0  0
  9  3  1  0  0  0  0
  9 11  1  0  0  0  0
 10  5  1  0  0  0  0
 10  7  2  0  0  0  0
 11  8  2  0  0  0  0
 12 22  1  6  0  0  0
 12 17  1  0  0  0  0
 12 13  1  0  0  0  0
 13 16  1  0  0  0  0
 16  2  1  1  0  0  0
 16 15  1  0  0  0  0
 17 14  1  1  0  0  0
 17 18  1  0  0  0  0
 18 15  1  0  0  0  0
 18 19  1  1  0  0  0
 19 20  1  0  0  0  0
 21 20  2  0  0  0  0
 23 22  1  0  0  0  0
 24 23  1  0  0  0  0
 25 24  1  0  0  0  0
 25 23  1  0  0  0  0
 27 28  1  0  0  0  0
 27 29  2  0  0  0  0
 28 30  1  0  0  0  0
 29 26  1  0  0  0  0
 30 26  2  0  0  0  0
 30  1  1  0  0  0  0
M  END
>  <MODEL>
7

>  <REMARK>
 VINA RESULT:      -6.0      2.114      4.106
  Name = 
  7 active torsions:
  status: ('A' for Active; 'I' for Inactive)
    1  A    between atoms: C_2  and  C_22
    2  A    between atoms: C_3  and  C_4
    3  A    between atoms: C_3  and  C_28
    4  A    between atoms: C_5  and  C_22
    5  A    between atoms: C_8  and  C_10
    6  A    between atoms: C_10  and  C_29
    7  A    between atoms: C_18  and  N_21
                            x       y       z     vdW  Elec       q    Type
                         _______ _______ _______ _____ _____    ______ ____

>  <TORSDO>
F 7

$$$$
=
 OpenBabel11042413463D

 30 33  0  0  1  0  0  0  0  0999 V2000
  189.6340  174.8490  142.7560 C   0  0  0  0  0  0  0  0  0  0  0  0
  190.9210  174.6830  142.6110 N   0  0  0  0  0  0  0  0  0  0  0  0
  190.4650  170.5160  141.4270 C   0  0  0  0  0  1  0  0  0  0  0  0
  188.7000  173.9100  142.0540 C   0  0  1  0  0  3  0  0  0  0  0  0
  189.8710  172.4140  139.8850 C   0  0  0  0  0  0  0  0  0  0  0  0
  190.4840  171.8370  138.9030 N   0  0  0  0  0  2  0  0  0  0  0  0
  188.5640  174.2870  140.6000 C   0  0  0  0  0  3  0  0  0  0  0  0
  188.9280  171.9080  143.3380 O   0  0  0  0  0  0  0  0  0  0  0  0
  189.8410  171.8100  141.1850 N   0  0  0  0  0  0  0  0  0  0  0  0
  189.1290  173.6130  139.6430 N   0  0  0  0  0  0  0  0  0  0  0  0
  189.1410  172.4850  142.2380 C   0  0  0  0  0  0  0  0  0  0  0  0
  193.5470  175.4710  145.2730 C   0  0  1  0  0  3  0  0  0  0  0  0
  192.4030  174.7420  144.5500 C   0  0  0  0  0  2  0  0  0  0  0  0
  195.4580  176.9200  144.9920 O   0  0  0  0  0  1  0  0  0  0  0  0
  193.1490  175.6110  142.2990 C   0  0  0  0  0  2  0  0  0  0  0  0
  191.9700  175.4520  143.2650 C   0  0  1  0  0  3  0  0  0  0  0  0
  194.2510  176.5300  144.4080 C   0  0  1  0  0  3  0  0  0  0  0  0
  194.4650  176.0390  142.9660 C   0  0  1  0  0  3  0  0  0  0  0  0
  195.4580  174.8810  142.8850 C   0  0  0  0  0  2  0  0  0  0  0  0
  195.2410  174.0670  141.6500 C   0  0  0  0  0  3  0  0  0  0  0  0
  196.0160  174.2050  140.6380 N   0  0  0  0  0  2  0  0  0  0  0  0
  193.0970  176.0280  146.6210 C   0  0  0  0  0  2  0  0  0  0  0  0
  191.5830  176.0500  146.7610 C   0  0  0  0  0  3  0  0  0  0  0  0
  191.1910  175.2900  148.0110 C   0  0  0  0  0  2  0  0  0  0  0  0
  191.2130  176.8030  148.0210 C   0  0  0  0  0  2  0  0  0  0  0  0
  188.7060  177.2130  143.2120 C   0  0  0  0  0  3  0  0  0  0  0  0
  188.1810  176.8890  145.2770 N   0  0  0  0  0  0  0  0  0  0  0  0
  188.6920  175.7800  144.8370 O   0  0  0  0  0  0  0  0  0  0  0  0
  188.1740  177.7910  144.3070 N   0  0  0  0  0  0  0  0  0  0  0  0
  189.0340  175.9230  143.5810 C   0  0  0  0  0  0  0  0  0  0  0  0
  1 30  1  0  0  0  0
  2  1  2  0  0  0  0
  4 11  1  0  0  0  0
  4  1  1  6  0  0  0
  5  9  1  0  0  0  0
  6  5  2  0  0  0  0
  7  4  1  0  0  0  0
  9  3  1  0  0  0  0
  9 11  1  0  0  0  0
 10  5  1  0  0  0  0
 10  7  2  0  0  0  0
 11  8  2  0  0  0  0
 12 22  1  1  0  0  0
 13 12  1  0  0  0  0
 15 18  1  0  0  0  0
 15 16  1  0  0  0  0
 16  2  1  6  0  0  0
 16 13  1  0  0  0  0
 17 14  1  1  0  0  0
 17 12  1  0  0  0  0
 18 19  1  1  0  0  0
 18 17  1  0  0  0  0
 20 19  1  0  0  0  0
 21 20  2  0  0  0  0
 22 23  1  0  0  0  0
 23 24  1  0  0  0  0
 23 25  1  0  0  0  0
 24 25  1  0  0  0  0
 26 30  2  0  0  0  0
 26 29  1  0  0  0  0
 28 27  1  0  0  0  0
 29 27  2  0  0  0  0
 30 28  1  0  0  0  0
M  END
>  <MODEL>
8

>  <REMARK>
 VINA RESULT:      -5.9      3.341      6.815
  Name = 
  7 active torsions:
  status: ('A' for Active; 'I' for Inactive)
    1  A    between atoms: C_2  and  C_22
    2  A    between atoms: C_3  and  C_4
    3  A    between atoms: C_3  and  C_28
    4  A    between atoms: C_5  and  C_22
    5  A    between atoms: C_8  and  C_10
    6  A    between atoms: C_10  and  C_29
    7  A    between atoms: C_18  and  N_21
                            x       y       z     vdW  Elec       q    Type
                         _______ _______ _______ _____ _____    ______ ____

>  <TORSDO>
F 7

$$$$
=
 OpenBabel11042413463D

 30 33  0  0  1  0  0  0  0  0999 V2000
  189.1630  173.2740  141.5750 C   0  0  0  0  0  0  0  0  0  0  0  0
  188.3280  174.2750  141.4900 N   0  0  0  0  0  0  0  0  0  0  0  0
  191.8520  174.1490  137.9370 C   0  0  0  0  0  1  0  0  0  0  0  0
  189.3830  172.4110  140.3690 C   0  0  1  0  0  3  0  0  0  0  0  0
  189.3600  173.8070  137.8460 C   0  0  0  0  0  0  0  0  0  0  0  0
  189.2790  174.5240  136.7720 N   0  0  0  0  0  2  0  0  0  0  0  0
  188.1890  172.4710  139.4500 C   0  0  0  0  0  3  0  0  0  0  0  0
  191.7640  172.4210  140.1630 O   0  0  0  0  0  0  0  0  0  0  0  0
  190.6230  173.5960  138.4910 N   0  0  0  0  0  0  0  0  0  0  0  0
  188.1950  173.1340  138.3320 N   0  0  0  0  0  0  0  0  0  0  0  0
  190.6620  172.7860  139.6740 C   0  0  0  0  0  0  0  0  0  0  0  0
  188.7310  177.5330  143.4470 C   0  0  1  0  0  3  0  0  0  0  0  0
  189.0050  176.4330  142.4090 C   0  0  0  0  0  2  0  0  0  0  0  0
  187.0420  178.5770  144.8210 O   0  0  0  0  0  1  0  0  0  0  0  0
  186.5850  175.7110  142.3970 C   0  0  0  0  0  2  0  0  0  0  0  0
  188.0410  175.2500  142.5320 C   0  0  1  0  0  3  0  0  0  0  0  0
  187.3650  177.4000  144.1420 C   0  0  1  0  0  3  0  0  0  0  0  0
  186.2560  177.0080  143.1500 C   0  0  1  0  0  3  0  0  0  0  0  0
  185.9660  178.1100  142.1330 C   0  0  0  0  0  2  0  0  0  0  0  0
  184.4970  178.2720  141.9140 C   0  0  0  0  0  3  0  0  0  0  0  0
  184.0170  178.2990  140.7260 N   0  0  0  0  0  2  0  0  0  0  0  0
  189.8790  177.6640  144.4440 C   0  0  0  0  0  2  0  0  0  0  0  0
  190.0540  176.4150  145.2930 C   0  0  0  0  0  3  0  0  0  0  0  0
  191.4610  176.3890  145.8520 C   0  0  0  0  0  2  0  0  0  0  0  0
  190.3080  176.8240  146.7290 C   0  0  0  0  0  2  0  0  0  0  0  0
  189.6820  171.9080  143.7020 C   0  0  0  0  0  3  0  0  0  0  0  0
  191.4090  173.0410  144.3180 N   0  0  0  0  0  0  0  0  0  0  0  0
  190.9700  173.5850  143.2250 O   0  0  0  0  0  0  0  0  0  0  0  0
  190.6430  172.0090  144.6410 N   0  0  0  0  0  0  0  0  0  0  0  0
  189.9120  172.9350  142.8060 C   0  0  0  0  0  0  0  0  0  0  0  0
  1 30  1  0  0  0  0
  2  1  2  0  0  0  0
  3  9  1  0  0  0  0
  4  1  1  1  0  0  0
  5 10  1  0  0  0  0
  5  9  1  0  0  0  0
  6  5  2  0  0  0  0
  7  4  1  0  0  0  0
  9 11  1  0  0  0  0
 10  7  2  0  0  0  0
 11  8  2  0  0  0  0
 11  4  1  0  0  0  0
 12 17  1  0  0  0  0
 12 22  1  1  0  0  0
 13 16  1  0  0  0  0
 13 12  1  0  0  0  0
 15 16  1  0  0  0  0
 15 18  1  0  0  0  0
 16  2  1  6  0  0  0
 17 14  1  6  0  0  0
 18 19  1  6  0  0  0
 18 17  1  0  0  0  0
 20 19  1  0  0  0  0
 21 20  2  0  0  0  0
 22 23  1  0  0  0  0
 23 24  1  0  0  0  0
 23 25  1  0  0  0  0
 24 25  1  0  0  0  0
 26 29  1  0  0  0  0
 27 29  2  0  0  0  0
 28 27  1  0  0  0  0
 30 28  1  0  0  0  0
 30 26  2  0  0  0  0
M  END
>  <MODEL>
9

>  <REMARK>
 VINA RESULT:      -5.9      3.322      4.859
  Name = 
  7 active torsions:
  status: ('A' for Active; 'I' for Inactive)
    1  A    between atoms: C_2  and  C_22
    2  A    between atoms: C_3  and  C_4
    3  A    between atoms: C_3  and  C_28
    4  A    between atoms: C_5  and  C_22
    5  A    between atoms: C_8  and  C_10
    6  A    between atoms: C_10  and  C_29
    7  A    between atoms: C_18  and  N_21
                            x       y       z     vdW  Elec       q    Type
                         _______ _______ _______ _____ _____    ______ ____

>  <TORSDO>
F 7

$$$$
