=
 OpenBabel11042416103D

 26 27  0  0  1  0  0  0  0  0999 V2000
  183.4350  178.4630  142.8290 N   0  0  0  0  0  2  0  0  0  0  0  0
  184.3800  178.3770  143.9010 C   0  0  0  0  0  0  0  0  0  0  0  0
  183.7170  178.1880  141.4500 C   0  0  0  0  0  0  0  0  0  0  0  0
  184.0100  178.6800  145.3320 C   0  0  0  0  0  2  0  0  0  0  0  0
  185.6920  178.5010  147.3120 C   0  0  0  0  0  3  0  0  0  0  0  0
  186.2170  178.0590  145.0070 C   0  0  0  0  0  0  0  0  0  0  0  0
  181.3320  178.6960  140.8220 C   0  0  0  0  0  1  0  0  0  0  0  0
  182.6860  178.3040  140.4710 N   0  0  0  0  0  2  0  0  0  0  0  0
  185.6190  178.0300  143.7240 N   0  0  0  0  0  0  0  0  0  0  0  0
  187.0220  178.1800  147.6330 C   0  0  0  0  0  3  0  0  0  0  0  0
  185.3240  178.4270  145.9710 C   0  0  0  0  0  0  0  0  0  0  0  0
  187.5350  177.7500  145.3370 C   0  0  0  0  0  0  0  0  0  0  0  0
  187.9030  177.8100  146.6520 N   0  0  0  0  0  0  0  0  0  0  0  0
  184.8730  177.8430  141.0860 O   0  0  0  0  0  0  0  0  0  0  0  0
  188.4990  177.3020  144.2840 C   0  0  1  0  0  3  0  0  0  0  0  0
  188.2770  177.9730  143.0780 O   0  0  0  0  0  1  0  0  0  0  0  0
  189.9510  177.4380  144.7590 C   0  0  2  0  0  3  0  0  0  0  0  0
  190.8120  178.3340  143.8660 C   0  0  0  0  0  2  0  0  0  0  0  0
  191.6150  177.5760  143.0120 O   0  0  0  0  0  1  0  0  0  0  0  0
  190.6020  176.0780  144.9820 C   0  0  0  0  0  2  0  0  0  0  0  0
  191.4310  176.0700  146.2640 C   0  0  1  0  0  3  0  0  0  0  0  0
  189.4360  174.6510  147.0850 C   0  0  0  0  0  1  0  0  0  0  0  0
  191.2320  175.2420  148.4770 O   0  0  0  0  0  0  0  0  0  0  0  0
  190.7370  175.3200  147.3630 C   0  0  0  0  0  0  0  0  0  0  0  0
  193.9080  176.5870  146.5290 C   0  0  0  0  0  1  0  0  0  0  0  0
  192.8690  175.5860  146.0430 C   0  0  0  0  0  2  0  0  0  0  0  0
  1  2  1  0  0  0  0
  2  4  1  0  0  0  0
  3  1  1  0  0  0  0
  4 11  1  0  0  0  0
  5 10  1  0  0  0  0
  6 12  2  0  0  0  0
  6 11  1  0  0  0  0
  8  7  1  0  0  0  0
  8  3  1  0  0  0  0
  9  2  2  0  0  0  0
  9  6  1  0  0  0  0
 11  5  2  0  0  0  0
 12 13  1  0  0  0  0
 13 10  2  0  0  0  0
 14  3  2  0  0  0  0
 15 16  1  6  0  0  0
 15 17  1  0  0  0  0
 15 12  1  0  0  0  0
 17 18  1  6  0  0  0
 17 20  1  0  0  0  0
 19 18  1  0  0  0  0
 21 20  1  6  0  0  0
 21 24  1  0  0  0  0
 22 24  1  0  0  0  0
 24 23  2  0  0  0  0
 26 21  1  0  0  0  0
 26 25  1  0  0  0  0
M  END
>  <MODEL>
1

>  <REMARK>
 VINA RESULT:      -7.2      0.000      0.000
  Name = 
  7 active torsions:
  status: ('A' for Active; 'I' for Inactive)
    1  A    between atoms: C_10  and  C_16
    2  A    between atoms: C_10  and  C_18
    3  A    between atoms: C_11  and  C_16
    4  A    between atoms: C_13  and  C_16
    5  A    between atoms: C_13  and  C_23
    6  A    between atoms: C_17  and  C_18
    7  A    between atoms: C_18  and  C_26
                            x       y       z     vdW  Elec       q    Type
                         _______ _______ _______ _____ _____    ______ ____

>  <TORSDO>
F 7

$$$$
=
 OpenBabel11042416103D

 26 27  0  0  1  0  0  0  0  0999 V2000
  193.0060  174.8340  144.5490 N   0  0  0  0  0  2  0  0  0  0  0  0
  191.7320  174.6970  143.9100 C   0  0  0  0  0  0  0  0  0  0  0  0
  193.5690  176.0650  145.0240 C   0  0  0  0  0  0  0  0  0  0  0  0
  191.2040  173.3660  143.4370 C   0  0  0  0  0  2  0  0  0  0  0  0
  188.8790  173.0740  142.3020 C   0  0  0  0  0  3  0  0  0  0  0  0
  189.7960  175.1640  143.0570 C   0  0  0  0  0  0  0  0  0  0  0  0
  195.6240  174.8560  145.8350 C   0  0  0  0  0  1  0  0  0  0  0  0
  194.8500  176.0710  145.6520 N   0  0  0  0  0  2  0  0  0  0  0  0
  190.9400  175.7030  143.6940 N   0  0  0  0  0  0  0  0  0  0  0  0
  187.7320  173.7740  141.8900 C   0  0  0  0  0  3  0  0  0  0  0  0
  189.9000  173.8140  142.8880 C   0  0  0  0  0  0  0  0  0  0  0  0
  188.6570  175.8490  142.6370 C   0  0  0  0  0  0  0  0  0  0  0  0
  187.6440  175.1290  142.0680 N   0  0  0  0  0  0  0  0  0  0  0  0
  192.9440  177.1510  144.8930 O   0  0  0  0  0  0  0  0  0  0  0  0
  188.5250  177.3210  142.8640 C   0  0  1  0  0  3  0  0  0  0  0  0
  188.7080  178.0340  141.6760 O   0  0  0  0  0  1  0  0  0  0  0  0
  187.1950  177.6680  143.5430 C   0  0  2  0  0  3  0  0  0  0  0  0
  186.3910  178.7470  142.8150 C   0  0  0  0  0  2  0  0  0  0  0  0
  185.5820  179.4600  143.7010 O   0  0  0  0  0  1  0  0  0  0  0  0
  187.3840  178.0090  145.0170 C   0  0  0  0  0  2  0  0  0  0  0  0
  187.3400  176.7510  145.8820 C   0  0  1  0  0  3  0  0  0  0  0  0
  188.9880  175.0180  146.8560 C   0  0  0  0  0  1  0  0  0  0  0  0
  189.5620  177.2710  146.5270 O   0  0  0  0  0  0  0  0  0  0  0  0
  188.6950  176.4160  146.4330 C   0  0  0  0  0  0  0  0  0  0  0  0
  184.8990  177.2120  146.4280 C   0  0  0  0  0  1  0  0  0  0  0  0
  186.2630  176.8120  146.9710 C   0  0  0  0  0  2  0  0  0  0  0  0
  1  3  1  0  0  0  0
  2  1  1  0  0  0  0
  3  8  1  0  0  0  0
  4  2  1  0  0  0  0
  5 11  1  0  0  0  0
  6  9  1  0  0  0  0
  8  7  1  0  0  0  0
  9  2  2  0  0  0  0
 10 13  1  0  0  0  0
 10  5  2  0  0  0  0
 11  6  2  0  0  0  0
 11  4  1  0  0  0  0
 12 15  1  0  0  0  0
 12  6  1  0  0  0  0
 13 12  2  0  0  0  0
 14  3  2  0  0  0  0
 15 16  1  6  0  0  0
 15 17  1  0  0  0  0
 17 18  1  6  0  0  0
 17 20  1  0  0  0  0
 18 19  1  0  0  0  0
 21 20  1  1  0  0  0
 21 24  1  0  0  0  0
 21 26  1  0  0  0  0
 24 23  2  0  0  0  0
 24 22  1  0  0  0  0
 25 26  1  0  0  0  0
M  END
>  <MODEL>
2

>  <REMARK>
 VINA RESULT:      -7.0      3.153      7.329
  Name = 
  7 active torsions:
  status: ('A' for Active; 'I' for Inactive)
    1  A    between atoms: C_10  and  C_16
    2  A    between atoms: C_10  and  C_18
    3  A    between atoms: C_11  and  C_16
    4  A    between atoms: C_13  and  C_16
    5  A    between atoms: C_13  and  C_23
    6  A    between atoms: C_17  and  C_18
    7  A    between atoms: C_18  and  C_26
                            x       y       z     vdW  Elec       q    Type
                         _______ _______ _______ _____ _____    ______ ____

>  <TORSDO>
F 7

$$$$
=
 OpenBabel11042416103D

 26 27  0  0  1  0  0  0  0  0999 V2000
  194.6470  176.0250  144.2380 N   0  0  0  0  0  2  0  0  0  0  0  0
  193.4040  175.7830  144.9040 C   0  0  0  0  0  0  0  0  0  0  0  0
  194.8060  176.2520  142.8300 C   0  0  0  0  0  0  0  0  0  0  0  0
  193.3140  175.5550  146.3920 C   0  0  0  0  0  2  0  0  0  0  0  0
  191.0670  175.1450  147.6420 C   0  0  0  0  0  3  0  0  0  0  0  0
  191.2880  175.4900  145.2730 C   0  0  0  0  0  0  0  0  0  0  0  0
  197.2940  176.5120  143.1130 C   0  0  0  0  0  1  0  0  0  0  0  0
  196.1020  176.4890  142.2840 N   0  0  0  0  0  2  0  0  0  0  0  0
  192.2650  175.7450  144.2810 N   0  0  0  0  0  0  0  0  0  0  0  0
  189.6790  175.0360  147.4550 C   0  0  0  0  0  3  0  0  0  0  0  0
  191.8470  175.3750  146.5130 C   0  0  0  0  0  0  0  0  0  0  0  0
  189.9110  175.3730  145.0980 C   0  0  0  0  0  0  0  0  0  0  0  0
  189.1360  175.1560  146.2030 N   0  0  0  0  0  0  0  0  0  0  0  0
  193.8080  176.2430  142.0610 O   0  0  0  0  0  0  0  0  0  0  0  0
  189.2970  175.5450  143.7450 C   0  0  1  0  0  3  0  0  0  0  0  0
  189.3100  174.3450  143.0290 O   0  0  0  0  0  1  0  0  0  0  0  0
  187.8870  176.1420  143.8400 C   0  0  2  0  0  3  0  0  0  0  0  0
  186.9890  175.8010  142.6500 C   0  0  0  0  0  2  0  0  0  0  0  0
  187.2920  176.5970  141.5430 O   0  0  0  0  0  1  0  0  0  0  0  0
  187.9260  177.6430  144.1020 C   0  0  0  0  0  2  0  0  0  0  0  0
  186.7720  178.0740  145.0030 C   0  0  1  0  0  3  0  0  0  0  0  0
  184.3510  178.9480  144.7930 C   0  0  0  0  0  1  0  0  0  0  0  0
  185.9950  179.3580  143.1680 O   0  0  0  0  0  0  0  0  0  0  0  0
  185.7270  178.8300  144.2360 C   0  0  0  0  0  0  0  0  0  0  0  0
  186.3230  177.1110  147.3150 C   0  0  0  0  0  1  0  0  0  0  0  0
  186.1790  176.9150  145.8120 C   0  0  0  0  0  2  0  0  0  0  0  0
  1  2  1  0  0  0  0
  2  4  1  0  0  0  0
  3  1  1  0  0  0  0
  4 11  1  0  0  0  0
  6 11  1  0  0  0  0
  8  3  1  0  0  0  0
  8  7  1  0  0  0  0
  9  2  2  0  0  0  0
  9  6  1  0  0  0  0
 10  5  1  0  0  0  0
 11  5  2  0  0  0  0
 12  6  2  0  0  0  0
 12 13  1  0  0  0  0
 13 10  2  0  0  0  0
 14  3  2  0  0  0  0
 15 16  1  1  0  0  0
 15 17  1  0  0  0  0
 15 12  1  0  0  0  0
 17 18  1  6  0  0  0
 17 20  1  0  0  0  0
 19 18  1  0  0  0  0
 21 20  1  6  0  0  0
 21 26  1  0  0  0  0
 23 24  2  0  0  0  0
 24 22  1  0  0  0  0
 24 21  1  0  0  0  0
 26 25  1  0  0  0  0
M  END
>  <MODEL>
3

>  <REMARK>
 VINA RESULT:      -7.0      3.359      7.787
  Name = 
  7 active torsions:
  status: ('A' for Active; 'I' for Inactive)
    1  A    between atoms: C_10  and  C_16
    2  A    between atoms: C_10  and  C_18
    3  A    between atoms: C_11  and  C_16
    4  A    between atoms: C_13  and  C_16
    5  A    between atoms: C_13  and  C_23
    6  A    between atoms: C_17  and  C_18
    7  A    between atoms: C_18  and  C_26
                            x       y       z     vdW  Elec       q    Type
                         _______ _______ _______ _____ _____    ______ ____

>  <TORSDO>
F 7

$$$$
=
 OpenBabel11042416103D

 26 27  0  0  1  0  0  0  0  0999 V2000
  183.5300  178.4790  142.8860 N   0  0  0  0  0  2  0  0  0  0  0  0
  184.4580  178.3990  143.9730 C   0  0  0  0  0  0  0  0  0  0  0  0
  183.8240  178.1650  141.5180 C   0  0  0  0  0  0  0  0  0  0  0  0
  184.0750  178.7450  145.3910 C   0  0  0  0  0  2  0  0  0  0  0  0
  185.7260  178.5780  147.3980 C   0  0  0  0  0  3  0  0  0  0  0  0
  186.2720  178.0690  145.1120 C   0  0  0  0  0  0  0  0  0  0  0  0
  181.4600  178.7090  140.8450 C   0  0  0  0  0  1  0  0  0  0  0  0
  182.8090  178.2790  140.5230 N   0  0  0  0  0  2  0  0  0  0  0  0
  185.6910  178.0220  143.8220 N   0  0  0  0  0  0  0  0  0  0  0  0
  187.0440  178.2370  147.7450 C   0  0  0  0  0  3  0  0  0  0  0  0
  185.3750  178.4800  146.0550 C   0  0  0  0  0  0  0  0  0  0  0  0
  187.5790  177.7400  145.4670 C   0  0  0  0  0  0  0  0  0  0  0  0
  187.9310  177.8250  146.7860 N   0  0  0  0  0  0  0  0  0  0  0  0
  184.9770  177.7870  141.1780 O   0  0  0  0  0  0  0  0  0  0  0  0
  188.5470  177.2470  144.4390 C   0  0  1  0  0  3  0  0  0  0  0  0
  188.2810  177.8060  143.1860 O   0  0  0  0  0  1  0  0  0  0  0  0
  189.9980  177.4810  144.8770 C   0  0  2  0  0  3  0  0  0  0  0  0
  190.8050  178.3460  143.9070 C   0  0  0  0  0  2  0  0  0  0  0  0
  191.7080  177.5760  143.1720 O   0  0  0  0  0  1  0  0  0  0  0  0
  190.7130  176.1710  145.1870 C   0  0  0  0  0  2  0  0  0  0  0  0
  189.8710  174.9710  144.7570 C   0  0  1  0  0  3  0  0  0  0  0  0
  189.4990  174.2720  142.3000 C   0  0  0  0  0  1  0  0  0  0  0  0
  191.5390  173.9480  143.4170 O   0  0  0  0  0  0  0  0  0  0  0  0
  190.3910  174.3600  143.4890 C   0  0  0  0  0  0  0  0  0  0  0  0
  189.3100  174.5670  147.2050 C   0  0  0  0  0  1  0  0  0  0  0  0
  189.6910  173.9360  145.8740 C   0  0  0  0  0  2  0  0  0  0  0  0
  1  2  1  0  0  0  0
  2  4  1  0  0  0  0
  3  1  1  0  0  0  0
  4 11  1  0  0  0  0
  5 10  1  0  0  0  0
  6 12  2  0  0  0  0
  6 11  1  0  0  0  0
  8  7  1  0  0  0  0
  8  3  1  0  0  0  0
  9  2  2  0  0  0  0
  9  6  1  0  0  0  0
 11  5  2  0  0  0  0
 12 13  1  0  0  0  0
 13 10  2  0  0  0  0
 14  3  2  0  0  0  0
 15 16  1  6  0  0  0
 15 17  1  0  0  0  0
 15 12  1  0  0  0  0
 17 18  1  6  0  0  0
 17 20  1  0  0  0  0
 19 18  1  0  0  0  0
 21 20  1  1  0  0  0
 21 26  1  0  0  0  0
 22 24  1  0  0  0  0
 23 24  2  0  0  0  0
 24 21  1  0  0  0  0
 26 25  1  0  0  0  0
M  END
>  <MODEL>
4

>  <REMARK>
 VINA RESULT:      -6.9      1.387      2.069
  Name = 
  7 active torsions:
  status: ('A' for Active; 'I' for Inactive)
    1  A    between atoms: C_10  and  C_16
    2  A    between atoms: C_10  and  C_18
    3  A    between atoms: C_11  and  C_16
    4  A    between atoms: C_13  and  C_16
    5  A    between atoms: C_13  and  C_23
    6  A    between atoms: C_17  and  C_18
    7  A    between atoms: C_18  and  C_26
                            x       y       z     vdW  Elec       q    Type
                         _______ _______ _______ _____ _____    ______ ____

>  <TORSDO>
F 7

$$$$
=
 OpenBabel11042416103D

 26 27  0  0  1  0  0  0  0  0999 V2000
  189.8330  173.7770  140.8950 N   0  0  0  0  0  2  0  0  0  0  0  0
  190.3230  174.4500  142.0600 C   0  0  0  0  0  0  0  0  0  0  0  0
  188.5140  173.2350  140.7430 C   0  0  0  0  0  0  0  0  0  0  0  0
  191.7260  174.9980  142.1470 C   0  0  0  0  0  2  0  0  0  0  0  0
  192.6410  176.2560  144.2350 C   0  0  0  0  0  3  0  0  0  0  0  0
  190.4290  175.3350  144.0350 C   0  0  0  0  0  0  0  0  0  0  0  0
  189.0610  172.4580  138.4110 C   0  0  0  0  0  1  0  0  0  0  0  0
  188.1410  172.5900  139.5260 N   0  0  0  0  0  2  0  0  0  0  0  0
  189.6000  174.6410  143.1210 N   0  0  0  0  0  0  0  0  0  0  0  0
  192.2930  176.7040  145.5210 C   0  0  0  0  0  3  0  0  0  0  0  0
  191.6690  175.5670  143.5160 C   0  0  0  0  0  0  0  0  0  0  0  0
  190.0980  175.7780  145.3140 C   0  0  0  0  0  0  0  0  0  0  0  0
  191.0430  176.4630  146.0250 N   0  0  0  0  0  0  0  0  0  0  0  0
  187.6720  173.3190  141.6760 O   0  0  0  0  0  0  0  0  0  0  0  0
  188.7230  175.5620  145.8630 C   0  0  1  0  0  3  0  0  0  0  0  0
  188.7730  175.1150  147.1870 O   0  0  0  0  0  1  0  0  0  0  0  0
  187.8560  176.8180  145.7140 C   0  0  2  0  0  3  0  0  0  0  0  0
  186.9620  177.1000  146.9230 C   0  0  0  0  0  2  0  0  0  0  0  0
  185.6310  176.7800  146.6540 O   0  0  0  0  0  1  0  0  0  0  0  0
  187.0540  176.7990  144.4170 C   0  0  0  0  0  2  0  0  0  0  0  0
  187.3190  178.0540  143.5890 C   0  0  1  0  0  3  0  0  0  0  0  0
  187.4990  176.9270  141.2730 C   0  0  0  0  0  1  0  0  0  0  0  0
  189.2560  178.1580  142.2260 O   0  0  0  0  0  0  0  0  0  0  0  0
  188.1160  177.7420  142.3560 C   0  0  0  0  0  0  0  0  0  0  0  0
  185.5480  179.6570  144.4650 C   0  0  0  0  0  1  0  0  0  0  0  0
  186.0430  178.8450  143.2770 C   0  0  0  0  0  2  0  0  0  0  0  0
  1  2  1  0  0  0  0
  2  4  1  0  0  0  0
  2  9  2  0  0  0  0
  3  1  1  0  0  0  0
  3 14  2  0  0  0  0
  4 11  1  0  0  0  0
  5 10  1  0  0  0  0
  6 12  2  0  0  0  0
  7  8  1  0  0  0  0
  8  3  1  0  0  0  0
  9  6  1  0  0  0  0
 10 13  2  0  0  0  0
 11  6  1  0  0  0  0
 11  5  2  0  0  0  0
 12 15  1  0  0  0  0
 12 13  1  0  0  0  0
 15 16  1  1  0  0  0
 17 20  1  6  0  0  0
 17 15  1  0  0  0  0
 17 18  1  0  0  0  0
 19 18  1  0  0  0  0
 21 26  1  6  0  0  0
 21 20  1  0  0  0  0
 22 24  1  0  0  0  0
 23 24  2  0  0  0  0
 24 21  1  0  0  0  0
 26 25  1  0  0  0  0
M  END
>  <MODEL>
5

>  <REMARK>
 VINA RESULT:      -6.9      3.619      6.535
  Name = 
  7 active torsions:
  status: ('A' for Active; 'I' for Inactive)
    1  A    between atoms: C_10  and  C_16
    2  A    between atoms: C_10  and  C_18
    3  A    between atoms: C_11  and  C_16
    4  A    between atoms: C_13  and  C_16
    5  A    between atoms: C_13  and  C_23
    6  A    between atoms: C_17  and  C_18
    7  A    between atoms: C_18  and  C_26
                            x       y       z     vdW  Elec       q    Type
                         _______ _______ _______ _____ _____    ______ ____

>  <TORSDO>
F 7

$$$$
=
 OpenBabel11042416103D

 26 27  0  0  1  0  0  0  0  0999 V2000
  183.8400  178.2940  142.8120 N   0  0  0  0  0  2  0  0  0  0  0  0
  184.6240  178.2870  144.0090 C   0  0  0  0  0  0  0  0  0  0  0  0
  184.3110  177.9210  141.5090 C   0  0  0  0  0  0  0  0  0  0  0  0
  184.0590  178.6920  145.3480 C   0  0  0  0  0  2  0  0  0  0  0  0
  185.4440  178.6600  147.5530 C   0  0  0  0  0  3  0  0  0  0  0  0
  186.2840  178.0540  145.3830 C   0  0  0  0  0  0  0  0  0  0  0  0
  182.0420  178.3770  140.5170 C   0  0  0  0  0  1  0  0  0  0  0  0
  183.4280  177.9630  140.3890 N   0  0  0  0  0  2  0  0  0  0  0  0
  185.8730  177.9310  144.0340 N   0  0  0  0  0  0  0  0  0  0  0  0
  186.7130  178.3660  148.0800 C   0  0  0  0  0  3  0  0  0  0  0  0
  185.2680  178.4890  146.1830 C   0  0  0  0  0  0  0  0  0  0  0  0
  187.5400  177.7730  145.9160 C   0  0  0  0  0  0  0  0  0  0  0  0
  187.7210  177.9290  147.2620 N   0  0  0  0  0  0  0  0  0  0  0  0
  185.5040  177.5540  141.3370 O   0  0  0  0  0  0  0  0  0  0  0  0
  188.6400  177.2530  145.0440 C   0  0  1  0  0  3  0  0  0  0  0  0
  189.8440  177.9140  145.3030 O   0  0  0  0  0  1  0  0  0  0  0  0
  188.7810  175.7310  145.1670 C   0  0  2  0  0  3  0  0  0  0  0  0
  189.6770  175.2850  146.3240 C   0  0  0  0  0  2  0  0  0  0  0  0
  188.9420  174.6180  147.3060 O   0  0  0  0  0  1  0  0  0  0  0  0
  189.2090  175.0960  143.8490 C   0  0  0  0  0  2  0  0  0  0  0  0
  190.2720  174.0230  144.0760 C   0  0  1  0  0  3  0  0  0  0  0  0
  189.1360  172.1930  142.6520 C   0  0  0  0  0  1  0  0  0  0  0  0
  189.6870  171.8830  144.9130 O   0  0  0  0  0  0  0  0  0  0  0  0
  189.6940  172.6430  143.9570 C   0  0  0  0  0  0  0  0  0  0  0  0
  191.6770  175.6500  142.7170 C   0  0  0  0  0  1  0  0  0  0  0  0
  191.5130  174.2150  143.1960 C   0  0  0  0  0  2  0  0  0  0  0  0
  1  2  1  0  0  0  0
  2  9  2  0  0  0  0
  2  4  1  0  0  0  0
  3  1  1  0  0  0  0
  4 11  1  0  0  0  0
  5 10  1  0  0  0  0
  6 12  2  0  0  0  0
  6 11  1  0  0  0  0
  8  7  1  0  0  0  0
  8  3  1  0  0  0  0
  9  6  1  0  0  0  0
 11  5  2  0  0  0  0
 12 13  1  0  0  0  0
 13 10  2  0  0  0  0
 14  3  2  0  0  0  0
 15 17  1  0  0  0  0
 15 16  1  1  0  0  0
 15 12  1  0  0  0  0
 17 20  1  6  0  0  0
 17 18  1  0  0  0  0
 18 19  1  0  0  0  0
 20 21  1  0  0  0  0
 21 26  1  6  0  0  0
 22 24  1  0  0  0  0
 24 21  1  0  0  0  0
 24 23  2  0  0  0  0
 25 26  1  0  0  0  0
M  END
>  <MODEL>
6

>  <REMARK>
 VINA RESULT:      -6.9      2.053      2.677
  Name = 
  7 active torsions:
  status: ('A' for Active; 'I' for Inactive)
    1  A    between atoms: C_10  and  C_16
    2  A    between atoms: C_10  and  C_18
    3  A    between atoms: C_11  and  C_16
    4  A    between atoms: C_13  and  C_16
    5  A    between atoms: C_13  and  C_23
    6  A    between atoms: C_17  and  C_18
    7  A    between atoms: C_18  and  C_26
                            x       y       z     vdW  Elec       q    Type
                         _______ _______ _______ _____ _____    ______ ____

>  <TORSDO>
F 7

$$$$
=
 OpenBabel11042416103D

 26 27  0  0  1  0  0  0  0  0999 V2000
  184.7750  177.9860  142.6900 N   0  0  0  0  0  2  0  0  0  0  0  0
  185.8380  177.8240  143.6350 C   0  0  0  0  0  0  0  0  0  0  0  0
  184.9410  178.1480  141.2740 C   0  0  0  0  0  0  0  0  0  0  0  0
  185.5860  177.6570  145.1130 C   0  0  0  0  0  2  0  0  0  0  0  0
  187.4910  177.3260  146.8580 C   0  0  0  0  0  3  0  0  0  0  0  0
  187.8170  177.6240  144.4940 C   0  0  0  0  0  0  0  0  0  0  0  0
  182.4460  178.2860  140.9600 C   0  0  0  0  0  1  0  0  0  0  0  0
  183.7990  178.2950  140.4310 N   0  0  0  0  0  2  0  0  0  0  0  0
  187.0900  177.8060  143.2930 N   0  0  0  0  0  0  0  0  0  0  0  0
  188.8860  177.2210  146.9940 C   0  0  0  0  0  3  0  0  0  0  0  0
  186.9900  177.5300  145.5750 C   0  0  0  0  0  0  0  0  0  0  0  0
  189.1990  177.5250  144.6430 C   0  0  0  0  0  0  0  0  0  0  0  0
  189.7000  177.3170  145.8980 N   0  0  0  0  0  0  0  0  0  0  0  0
  186.0900  178.1630  140.7580 O   0  0  0  0  0  0  0  0  0  0  0  0
  190.1010  177.5840  143.4510 C   0  0  1  0  0  3  0  0  0  0  0  0
  190.9510  178.6910  143.5150 O   0  0  0  0  0  1  0  0  0  0  0  0
  190.8760  176.2730  143.2700 C   0  0  2  0  0  3  0  0  0  0  0  0
  192.3080  176.4670  142.7680 C   0  0  0  0  0  2  0  0  0  0  0  0
  193.2370  176.2160  143.7790 O   0  0  0  0  0  1  0  0  0  0  0  0
  190.1090  175.2780  142.4070 C   0  0  0  0  0  2  0  0  0  0  0  0
  189.4510  174.2000  143.2650 C   0  0  1  0  0  3  0  0  0  0  0  0
  188.1920  173.3920  141.1610 C   0  0  0  0  0  1  0  0  0  0  0  0
  189.0790  171.9140  142.7560 O   0  0  0  0  0  0  0  0  0  0  0  0
  188.9160  173.0780  142.4240 C   0  0  0  0  0  0  0  0  0  0  0  0
  189.6940  173.7950  145.7650 C   0  0  0  0  0  1  0  0  0  0  0  0
  190.3560  173.7010  144.3980 C   0  0  0  0  0  2  0  0  0  0  0  0
  1  2  1  0  0  0  0
  2  4  1  0  0  0  0
  3  1  1  0  0  0  0
  4 11  1  0  0  0  0
  5 10  1  0  0  0  0
  6 12  2  0  0  0  0
  6 11  1  0  0  0  0
  8  7  1  0  0  0  0
  8  3  1  0  0  0  0
  9  2  2  0  0  0  0
  9  6  1  0  0  0  0
 11  5  2  0  0  0  0
 12 13  1  0  0  0  0
 13 10  2  0  0  0  0
 14  3  2  0  0  0  0
 15 16  1  1  0  0  0
 15 12  1  0  0  0  0
 17 20  1  6  0  0  0
 17 15  1  0  0  0  0
 18 17  1  0  0  0  0
 18 19  1  0  0  0  0
 21 20  1  6  0  0  0
 21 26  1  0  0  0  0
 22 24  1  0  0  0  0
 24 23  2  0  0  0  0
 24 21  1  0  0  0  0
 26 25  1  0  0  0  0
M  END
>  <MODEL>
7

>  <REMARK>
 VINA RESULT:      -6.9      2.385      3.100
  Name = 
  7 active torsions:
  status: ('A' for Active; 'I' for Inactive)
    1  A    between atoms: C_10  and  C_16
    2  A    between atoms: C_10  and  C_18
    3  A    between atoms: C_11  and  C_16
    4  A    between atoms: C_13  and  C_16
    5  A    between atoms: C_13  and  C_23
    6  A    between atoms: C_17  and  C_18
    7  A    between atoms: C_18  and  C_26
                            x       y       z     vdW  Elec       q    Type
                         _______ _______ _______ _____ _____    ______ ____

>  <TORSDO>
F 7

$$$$
=
 OpenBabel11042416103D

 26 27  0  0  1  0  0  0  0  0999 V2000
  181.6590  178.5480  140.9870 N   0  0  0  0  0  2  0  0  0  0  0  0
  183.0720  178.3790  141.1400 C   0  0  0  0  0  0  0  0  0  0  0  0
  180.7680  179.0410  141.9980 C   0  0  0  0  0  0  0  0  0  0  0  0
  183.9480  177.8560  140.0290 C   0  0  0  0  0  2  0  0  0  0  0  0
  186.5260  177.5670  140.2570 C   0  0  0  0  0  3  0  0  0  0  0  0
  185.0650  178.3690  141.9910 C   0  0  0  0  0  0  0  0  0  0  0  0
  178.8090  178.8180  140.4320 C   0  0  0  0  0  1  0  0  0  0  0  0
  179.3740  179.1710  141.7220 N   0  0  0  0  0  2  0  0  0  0  0  0
  183.7030  178.6640  142.2380 N   0  0  0  0  0  0  0  0  0  0  0  0
  187.6020  177.7330  141.1450 C   0  0  0  0  0  3  0  0  0  0  0  0
  185.2580  177.9000  140.7240 C   0  0  0  0  0  0  0  0  0  0  0  0
  186.1390  178.5220  142.8650 C   0  0  0  0  0  0  0  0  0  0  0  0
  187.3900  178.2060  142.4130 N   0  0  0  0  0  0  0  0  0  0  0  0
  181.2010  179.3620  143.1360 O   0  0  0  0  0  0  0  0  0  0  0  0
  185.9310  179.0790  144.2380 C   0  0  1  0  0  3  0  0  0  0  0  0
  184.8420  179.9540  144.2680 O   0  0  0  0  0  1  0  0  0  0  0  0
  185.8020  177.9640  145.2820 C   0  0  2  0  0  3  0  0  0  0  0  0
  184.5340  178.0570  146.1320 C   0  0  0  0  0  2  0  0  0  0  0  0
  184.8120  178.5670  147.4020 O   0  0  0  0  0  1  0  0  0  0  0  0
  187.0510  177.8530  146.1480 C   0  0  0  0  0  2  0  0  0  0  0  0
  187.6980  176.4770  146.0070 C   0  0  1  0  0  3  0  0  0  0  0  0
  189.8690  177.5330  145.0930 C   0  0  0  0  0  1  0  0  0  0  0  0
  188.8590  175.6550  144.1110 O   0  0  0  0  0  0  0  0  0  0  0  0
  188.8080  176.4920  144.9980 C   0  0  0  0  0  0  0  0  0  0  0  0
  188.9440  174.6020  147.1910 C   0  0  0  0  0  1  0  0  0  0  0  0
  188.1360  175.8820  147.3510 C   0  0  0  0  0  2  0  0  0  0  0  0
  1  2  1  0  0  0  0
  1  3  1  0  0  0  0
  2  9  2  0  0  0  0
  3 14  2  0  0  0  0
  4 11  1  0  0  0  0
  4  2  1  0  0  0  0
  5 11  2  0  0  0  0
  5 10  1  0  0  0  0
  6  9  1  0  0  0  0
  6 12  2  0  0  0  0
  7  8  1  0  0  0  0
  8  3  1  0  0  0  0
 10 13  2  0  0  0  0
 11  6  1  0  0  0  0
 12 15  1  0  0  0  0
 13 12  1  0  0  0  0
 15 16  1  6  0  0  0
 15 17  1  0  0  0  0
 17 18  1  1  0  0  0
 17 20  1  0  0  0  0
 18 19  1  0  0  0  0
 21 20  1  1  0  0  0
 21 26  1  0  0  0  0
 23 24  2  0  0  0  0
 24 22  1  0  0  0  0
 24 21  1  0  0  0  0
 25 26  1  0  0  0  0
M  END
>  <MODEL>
8

>  <REMARK>
 VINA RESULT:      -6.8      2.384      4.592
  Name = 
  7 active torsions:
  status: ('A' for Active; 'I' for Inactive)
    1  A    between atoms: C_10  and  C_16
    2  A    between atoms: C_10  and  C_18
    3  A    between atoms: C_11  and  C_16
    4  A    between atoms: C_13  and  C_16
    5  A    between atoms: C_13  and  C_23
    6  A    between atoms: C_17  and  C_18
    7  A    between atoms: C_18  and  C_26
                            x       y       z     vdW  Elec       q    Type
                         _______ _______ _______ _____ _____    ______ ____

>  <TORSDO>
F 7

$$$$
=
 OpenBabel11042416103D

 26 27  0  0  1  0  0  0  0  0999 V2000
  184.2740  178.0590  142.7480 N   0  0  0  0  0  2  0  0  0  0  0  0
  185.3650  177.9120  143.6640 C   0  0  0  0  0  0  0  0  0  0  0  0
  184.3940  178.1510  141.3220 C   0  0  0  0  0  0  0  0  0  0  0  0
  185.1610  177.8190  145.1560 C   0  0  0  0  0  2  0  0  0  0  0  0
  187.1170  177.5170  146.8480 C   0  0  0  0  0  3  0  0  0  0  0  0
  187.3670  177.6980  144.4630 C   0  0  0  0  0  0  0  0  0  0  0  0
  181.8940  178.3420  141.0870 C   0  0  0  0  0  1  0  0  0  0  0  0
  183.2270  178.2900  140.5130 N   0  0  0  0  0  2  0  0  0  0  0  0
  186.6040  177.8440  143.2810 N   0  0  0  0  0  0  0  0  0  0  0  0
  188.5130  177.3810  146.9420 C   0  0  0  0  0  3  0  0  0  0  0  0
  186.5770  177.6750  145.5750 C   0  0  0  0  0  0  0  0  0  0  0  0
  188.7510  177.5690  144.5700 C   0  0  0  0  0  0  0  0  0  0  0  0
  189.2900  177.4040  145.8150 N   0  0  0  0  0  0  0  0  0  0  0  0
  185.5240  178.1120  140.7670 O   0  0  0  0  0  0  0  0  0  0  0  0
  189.6110  177.5480  143.3460 C   0  0  1  0  0  3  0  0  0  0  0  0
  190.7880  178.2760  143.5440 O   0  0  0  0  0  1  0  0  0  0  0  0
  189.8940  176.1140  142.8840 C   0  0  2  0  0  3  0  0  0  0  0  0
  188.9090  175.5970  141.8340 C   0  0  0  0  0  2  0  0  0  0  0  0
  187.9950  174.7020  142.3930 O   0  0  0  0  0  1  0  0  0  0  0  0
  190.0130  175.1540  144.0620 C   0  0  0  0  0  2  0  0  0  0  0  0
  191.4290  174.5940  144.1750 C   0  0  1  0  0  3  0  0  0  0  0  0
  192.0890  175.2610  146.5800 C   0  0  0  0  0  1  0  0  0  0  0  0
  193.1090  176.1890  144.6800 O   0  0  0  0  0  0  0  0  0  0  0  0
  192.2700  175.4120  145.1100 C   0  0  0  0  0  0  0  0  0  0  0  0
  190.0640  172.4980  144.6380 C   0  0  0  0  0  1  0  0  0  0  0  0
  191.4570  173.1000  144.5170 C   0  0  0  0  0  2  0  0  0  0  0  0
  1  2  1  0  0  0  0
  2  4  1  0  0  0  0
  3  1  1  0  0  0  0
  4 11  1  0  0  0  0
  5 10  1  0  0  0  0
  6 12  2  0  0  0  0
  6 11  1  0  0  0  0
  8  7  1  0  0  0  0
  8  3  1  0  0  0  0
  9  2  2  0  0  0  0
  9  6  1  0  0  0  0
 11  5  2  0  0  0  0
 12 13  1  0  0  0  0
 13 10  2  0  0  0  0
 14  3  2  0  0  0  0
 15 16  1  1  0  0  0
 15 12  1  0  0  0  0
 17 18  1  6  0  0  0
 17 15  1  0  0  0  0
 17 20  1  0  0  0  0
 18 19  1  0  0  0  0
 21 20  1  1  0  0  0
 21 26  1  0  0  0  0
 21 24  1  0  0  0  0
 23 24  2  0  0  0  0
 24 22  1  0  0  0  0
 26 25  1  0  0  0  0
M  END
>  <MODEL>
9

>  <REMARK>
 VINA RESULT:      -6.7      1.748      2.496
  Name = 
  7 active torsions:
  status: ('A' for Active; 'I' for Inactive)
    1  A    between atoms: C_10  and  C_16
    2  A    between atoms: C_10  and  C_18
    3  A    between atoms: C_11  and  C_16
    4  A    between atoms: C_13  and  C_16
    5  A    between atoms: C_13  and  C_23
    6  A    between atoms: C_17  and  C_18
    7  A    between atoms: C_18  and  C_26
                            x       y       z     vdW  Elec       q    Type
                         _______ _______ _______ _____ _____    ______ ____

>  <TORSDO>
F 7

$$$$
