=
 OpenBabel11042413493D

 25 28  0  0  1  0  0  0  0  0999 V2000
  186.2350  177.0800  142.1700 N   0  0  0  0  0  0  0  0  0  0  0  0
  189.1170  178.0540  147.1490 C   0  0  0  0  0  3  0  0  0  0  0  0
  186.4970  178.4340  141.7090 C   0  0  0  0  0  1  0  0  0  0  0  0
  184.7040  178.4480  146.7700 C   0  0  0  0  0  3  0  0  0  0  0  0
  187.2730  176.5300  146.5590 C   0  0  1  0  0  3  0  0  0  0  0  0
  187.3870  179.4110  148.8620 O   0  0  0  0  0  0  0  0  0  0  0  0
  190.7590  174.2190  145.4130 C   0  0  0  0  0  2  0  0  0  0  0  0
  186.1610  176.8720  144.3510 C   0  0  0  0  0  0  0  0  0  0  0  0
  190.1730  175.3740  144.6090 C   0  0  0  0  0  2  0  0  0  0  0  0
  191.9890  174.6500  146.1540 C   0  0  0  0  0  0  0  0  0  0  0  0
  186.9150  178.7700  147.8860 C   0  0  0  0  0  0  0  0  0  0  0  0
  190.0790  177.1040  146.5100 C   0  0  1  0  0  3  0  0  0  0  0  0
  187.8020  177.8040  147.1880 C   0  0  0  0  0  0  0  0  0  0  0  0
  187.1700  176.8050  143.2330 C   0  0  0  0  0  2  0  0  0  0  0  0
  186.0880  176.7480  145.6820 C   0  0  0  0  0  0  0  0  0  0  0  0
  191.9420  175.5590  147.1380 C   0  0  0  0  0  3  0  0  0  0  0  0
  184.8160  177.0060  146.3950 C   0  0  0  0  0  2  0  0  0  0  0  0
  185.5970  179.1330  147.4270 N   0  0  0  0  0  0  0  0  0  0  0  0
  188.2240  175.6060  146.0430 O   0  0  0  0  0  0  0  0  0  0  0  0
  190.6690  176.2060  147.5960 C   0  0  0  0  0  2  0  0  0  0  0  0
  185.2310  177.1670  143.2000 C   0  0  0  0  0  2  0  0  0  0  0  0
  189.3030  176.3020  145.4570 C   0  0  2  0  0  3  0  0  0  0  0  0
  193.3050  174.0570  145.7590 C   0  0  0  0  0  2  0  0  0  0  0  0
  195.3150  175.2950  146.1400 O   0  0  0  0  0  1  0  0  0  0  0  0
  194.2610  175.1210  145.2420 C   0  0  0  0  0  2  0  0  0  0  0  0
  1 21  1  0  0  0  0
  1 14  1  0  0  0  0
  2 13  2  0  0  0  0
  3  1  1  0  0  0  0
  4 18  2  0  0  0  0
  5 15  1  6  0  0  0
  5 13  1  0  0  0  0
  7 10  1  0  0  0  0
  8 15  2  0  0  0  0
  9  7  1  0  0  0  0
 10 16  2  0  0  0  0
 11  6  2  0  0  0  0
 12  2  1  1  0  0  0
 12 20  1  0  0  0  0
 13 11  1  0  0  0  0
 14  8  1  0  0  0  0
 15 17  1  0  0  0  0
 16 20  1  0  0  0  0
 17  4  1  0  0  0  0
 18 11  1  0  0  0  0
 19  5  1  0  0  0  0
 21  8  1  0  0  0  0
 22  9  1  1  0  0  0
 22 19  1  0  0  0  0
 22 12  1  0  0  0  0
 23 10  1  0  0  0  0
 25 23  1  0  0  0  0
 25 24  1  0  0  0  0
M  END
>  <MODEL>
1

>  <REMARK>
 VINA RESULT:      -8.0      0.000      0.000
  Name = 
  2 active torsions:
  status: ('A' for Active; 'I' for Inactive)
    1  A    between atoms: C_10  and  C_21
    2  A    between atoms: C_19  and  C_21
                            x       y       z     vdW  Elec       q    Type
                         _______ _______ _______ _____ _____    ______ ____

>  <TORSDO>
F 2

$$$$
=
 OpenBabel11042413493D

 25 28  0  0  1  0  0  0  0  0999 V2000
  190.5860  174.3860  141.4020 N   0  0  0  0  0  0  0  0  0  0  0  0
  189.1680  175.6550  146.9180 C   0  0  0  0  0  3  0  0  0  0  0  0
  190.4000  172.9630  141.6410 C   0  0  0  0  0  1  0  0  0  0  0  0
  193.3650  175.1850  145.5270 C   0  0  0  0  0  3  0  0  0  0  0  0
  190.5940  176.7880  145.2580 C   0  0  1  0  0  3  0  0  0  0  0  0
  191.4290  175.2040  148.4850 O   0  0  0  0  0  0  0  0  0  0  0  0
  186.6610  178.3250  144.2720 C   0  0  0  0  0  2  0  0  0  0  0  0
  191.1660  175.5280  143.1810 C   0  0  0  0  0  0  0  0  0  0  0  0
  187.1780  176.9410  143.8950 C   0  0  0  0  0  2  0  0  0  0  0  0
  185.7170  178.2470  145.4350 C   0  0  0  0  0  0  0  0  0  0  0  0
  191.5590  175.3590  147.2410 C   0  0  0  0  0  0  0  0  0  0  0  0
  187.9630  176.2190  146.2360 C   0  0  1  0  0  3  0  0  0  0  0  0
  190.4080  175.9110  146.4810 C   0  0  0  0  0  0  0  0  0  0  0  0
  189.9140  175.0870  142.4670 C   0  0  0  0  0  2  0  0  0  0  0  0
  191.5450  176.2220  144.2610 C   0  0  0  0  0  0  0  0  0  0  0  0
  186.1240  177.8610  146.6530 C   0  0  0  0  0  3  0  0  0  0  0  0
  192.9760  176.3170  144.6310 C   0  0  0  0  0  2  0  0  0  0  0  0
  192.7600  174.8470  146.6300 N   0  0  0  0  0  0  0  0  0  0  0  0
  189.4320  177.3830  144.6910 O   0  0  0  0  0  0  0  0  0  0  0  0
  187.5440  177.4940  146.9650 C   0  0  0  0  0  2  0  0  0  0  0  0
  191.8150  174.7690  142.0500 C   0  0  0  0  0  2  0  0  0  0  0  0
  188.3440  176.4880  144.7740 C   0  0  2  0  0  3  0  0  0  0  0  0
  184.2790  178.5930  145.2110 C   0  0  0  0  0  2  0  0  0  0  0  0
  183.5820  178.2420  142.9510 O   0  0  0  0  0  1  0  0  0  0  0  0
  184.0630  179.2080  143.8360 C   0  0  0  0  0  2  0  0  0  0  0  0
  1  3  1  0  0  0  0
  1 21  1  0  0  0  0
  1 14  1  0  0  0  0
  4 18  2  0  0  0  0
  5 15  1  6  0  0  0
  5 13  1  0  0  0  0
  7 10  1  0  0  0  0
  8 15  2  0  0  0  0
  9  7  1  0  0  0  0
 10 16  2  0  0  0  0
 11  6  2  0  0  0  0
 12  2  1  1  0  0  0
 12 20  1  0  0  0  0
 13  2  2  0  0  0  0
 13 11  1  0  0  0  0
 14  8  1  0  0  0  0
 15 17  1  0  0  0  0
 16 20  1  0  0  0  0
 17  4  1  0  0  0  0
 18 11  1  0  0  0  0
 19 22  1  0  0  0  0
 19  5  1  0  0  0  0
 21  8  1  0  0  0  0
 22  9  1  6  0  0  0
 22 12  1  0  0  0  0
 23 10  1  0  0  0  0
 24 25  1  0  0  0  0
 25 23  1  0  0  0  0
M  END
>  <MODEL>
2

>  <REMARK>
 VINA RESULT:      -7.6      2.957      6.525
  Name = 
  2 active torsions:
  status: ('A' for Active; 'I' for Inactive)
    1  A    between atoms: C_10  and  C_21
    2  A    between atoms: C_19  and  C_21
                            x       y       z     vdW  Elec       q    Type
                         _______ _______ _______ _____ _____    ______ ____

>  <TORSDO>
F 2

$$$$
=
 OpenBabel11042413493D

 25 28  0  0  1  0  0  0  0  0999 V2000
  189.9570  173.0310  142.6000 N   0  0  0  0  0  0  0  0  0  0  0  0
  187.7870  177.2590  145.9860 C   0  0  0  0  0  3  0  0  0  0  0  0
  189.6720  172.0240  143.6100 C   0  0  0  0  0  1  0  0  0  0  0  0
  192.1200  176.2770  145.7880 C   0  0  0  0  0  3  0  0  0  0  0  0
  189.4970  177.2540  144.2110 C   0  0  1  0  0  3  0  0  0  0  0  0
  189.7640  177.9510  147.8250 O   0  0  0  0  0  0  0  0  0  0  0  0
  185.8310  177.6900  141.9360 C   0  0  0  0  0  2  0  0  0  0  0  0
  190.3150  175.0370  143.4090 C   0  0  0  0  0  0  0  0  0  0  0  0
  186.3350  176.3840  142.5400 C   0  0  0  0  0  2  0  0  0  0  0  0
  184.7210  178.2700  142.7610 C   0  0  0  0  0  0  0  0  0  0  0  0
  190.0860  177.3410  146.7710 C   0  0  0  0  0  0  0  0  0  0  0  0
  186.7250  177.2410  144.9340 C   0  0  1  0  0  3  0  0  0  0  0  0
  189.0890  177.2700  145.6720 C   0  0  0  0  0  0  0  0  0  0  0  0
  189.1650  174.1910  142.9230 C   0  0  0  0  0  2  0  0  0  0  0  0
  190.5600  176.2570  143.9030 C   0  0  0  0  0  0  0  0  0  0  0  0
  184.9230  178.7080  144.0120 C   0  0  0  0  0  3  0  0  0  0  0  0
  191.9210  176.6290  144.3500 C   0  0  0  0  0  2  0  0  0  0  0  0
  191.3400  176.6310  146.7710 N   0  0  0  0  0  0  0  0  0  0  0  0
  188.4620  177.3310  143.2380 O   0  0  0  0  0  0  0  0  0  0  0  0
  186.2610  178.6750  144.6860 C   0  0  0  0  0  2  0  0  0  0  0  0
  191.0900  173.7900  143.0650 C   0  0  0  0  0  2  0  0  0  0  0  0
  187.3340  176.6060  143.6770 C   0  0  2  0  0  3  0  0  0  0  0  0
  183.3500  178.3380  142.1660 C   0  0  0  0  0  2  0  0  0  0  0  0
  182.1620  177.8250  140.1550 O   0  0  0  0  0  1  0  0  0  0  0  0
  183.3990  178.2420  140.6480 C   0  0  0  0  0  2  0  0  0  0  0  0
  1 14  1  0  0  0  0
  1 21  1  0  0  0  0
  1  3  1  0  0  0  0
  4 18  2  0  0  0  0
  5 19  1  6  0  0  0
  5 13  1  0  0  0  0
  7  9  1  0  0  0  0
  7 10  1  0  0  0  0
  8 15  2  0  0  0  0
 10 16  2  0  0  0  0
 11  6  2  0  0  0  0
 12 20  1  6  0  0  0
 12  2  1  0  0  0  0
 13  2  2  0  0  0  0
 13 11  1  0  0  0  0
 14  8  1  0  0  0  0
 15  5  1  0  0  0  0
 15 17  1  0  0  0  0
 16 20  1  0  0  0  0
 17  4  1  0  0  0  0
 18 11  1  0  0  0  0
 19 22  1  0  0  0  0
 21  8  1  0  0  0  0
 22  9  1  6  0  0  0
 22 12  1  0  0  0  0
 23 10  1  0  0  0  0
 24 25  1  0  0  0  0
 25 23  1  0  0  0  0
M  END
>  <MODEL>
3

>  <REMARK>
 VINA RESULT:      -7.6      3.031      6.806
  Name = 
  2 active torsions:
  status: ('A' for Active; 'I' for Inactive)
    1  A    between atoms: C_10  and  C_21
    2  A    between atoms: C_19  and  C_21
                            x       y       z     vdW  Elec       q    Type
                         _______ _______ _______ _____ _____    ______ ____

>  <TORSDO>
F 2

$$$$
=
 OpenBabel11042413493D

 25 28  0  0  1  0  0  0  0  0999 V2000
  193.9370  176.4160  146.6730 N   0  0  0  0  0  0  0  0  0  0  0  0
  189.5260  176.0200  142.8750 C   0  0  0  0  0  3  0  0  0  0  0  0
  194.6670  177.3120  145.7900 C   0  0  0  0  0  1  0  0  0  0  0  0
  192.8270  173.0480  143.0960 C   0  0  0  0  0  3  0  0  0  0  0  0
  190.3820  174.4870  144.6040 C   0  0  1  0  0  3  0  0  0  0  0  0
  190.2650  174.1640  140.9300 O   0  0  0  0  0  0  0  0  0  0  0  0
  187.7120  177.0290  146.8880 C   0  0  0  0  0  2  0  0  0  0  0  0
  192.5880  175.0350  145.6360 C   0  0  0  0  0  0  0  0  0  0  0  0
  189.1110  177.4220  146.4260 C   0  0  0  0  0  2  0  0  0  0  0  0
  186.6640  177.6640  146.0250 C   0  0  0  0  0  0  0  0  0  0  0  0
  190.8610  174.1680  142.0400 C   0  0  0  0  0  0  0  0  0  0  0  0
  188.8370  176.8070  143.9430 C   0  0  1  0  0  3  0  0  0  0  0  0
  190.2490  174.9290  143.1600 C   0  0  0  0  0  0  0  0  0  0  0  0
  192.5630  176.4170  146.2370 C   0  0  0  0  0  2  0  0  0  0  0  0
  191.7830  174.1730  145.0030 C   0  0  0  0  0  0  0  0  0  0  0  0
  186.5270  177.3500  144.7290 C   0  0  0  0  0  3  0  0  0  0  0  0
  192.3100  172.8880  144.4890 C   0  0  0  0  0  2  0  0  0  0  0  0
  192.1660  173.5580  142.0950 N   0  0  0  0  0  0  0  0  0  0  0  0
  189.6390  175.2040  145.5830 O   0  0  0  0  0  0  0  0  0  0  0  0
  187.3870  176.3370  144.0360 C   0  0  0  0  0  2  0  0  0  0  0  0
  194.0200  175.0960  146.1040 C   0  0  0  0  0  2  0  0  0  0  0  0
  189.6040  176.5750  145.2520 C   0  0  2  0  0  3  0  0  0  0  0  0
  185.7620  178.6910  146.6370 C   0  0  0  0  0  2  0  0  0  0  0  0
  183.6800  179.0400  145.5160 O   0  0  0  0  0  1  0  0  0  0  0  0
  184.3000  178.2880  146.5140 C   0  0  0  0  0  2  0  0  0  0  0  0
  2 13  2  0  0  0  0
  3  1  1  0  0  0  0
  4 17  1  0  0  0  0
  5 13  1  6  0  0  0
  5 15  1  0  0  0  0
  5 19  1  0  0  0  0
  6 11  2  0  0  0  0
  8 21  1  0  0  0  0
  8 14  1  0  0  0  0
  9  7  1  0  0  0  0
 10 23  1  0  0  0  0
 10  7  1  0  0  0  0
 11 18  1  0  0  0  0
 11 13  1  0  0  0  0
 12  2  1  6  0  0  0
 12 20  1  0  0  0  0
 12 22  1  0  0  0  0
 14  1  1  0  0  0  0
 15  8  2  0  0  0  0
 16 10  2  0  0  0  0
 17 15  1  0  0  0  0
 18  4  2  0  0  0  0
 20 16  1  0  0  0  0
 21  1  1  0  0  0  0
 22 19  1  0  0  0  0
 22  9  1  1  0  0  0
 24 25  1  0  0  0  0
 25 23  1  0  0  0  0
M  END
>  <MODEL>
4

>  <REMARK>
 VINA RESULT:      -7.1      3.042      7.443
  Name = 
  2 active torsions:
  status: ('A' for Active; 'I' for Inactive)
    1  A    between atoms: C_10  and  C_21
    2  A    between atoms: C_19  and  C_21
                            x       y       z     vdW  Elec       q    Type
                         _______ _______ _______ _____ _____    ______ ____

>  <TORSDO>
F 2

$$$$
=
 OpenBabel11042413493D

 25 28  0  0  1  0  0  0  0  0999 V2000
  193.4600  175.8830  145.6120 N   0  0  0  0  0  0  0  0  0  0  0  0
  188.9140  175.2030  142.0170 C   0  0  0  0  0  3  0  0  0  0  0  0
  194.2780  176.4240  144.5370 C   0  0  0  0  0  1  0  0  0  0  0  0
  191.7790  171.9380  142.9680 C   0  0  0  0  0  3  0  0  0  0  0  0
  189.6070  174.0320  144.0720 C   0  0  1  0  0  3  0  0  0  0  0  0
  189.3260  172.8450  140.5890 O   0  0  0  0  0  0  0  0  0  0  0  0
  187.3900  177.4040  145.6570 C   0  0  0  0  0  2  0  0  0  0  0  0
  191.9000  174.4960  144.9420 C   0  0  0  0  0  0  0  0  0  0  0  0
  188.8140  177.4710  145.1150 C   0  0  0  0  0  2  0  0  0  0  0  0
  186.4110  177.9530  144.6620 C   0  0  0  0  0  0  0  0  0  0  0  0
  189.9530  173.0340  141.6650 C   0  0  0  0  0  0  0  0  0  0  0  0
  188.3760  176.3160  142.8590 C   0  0  1  0  0  3  0  0  0  0  0  0
  189.4890  174.1230  142.5630 C   0  0  0  0  0  0  0  0  0  0  0  0
  192.0860  175.9720  145.1860 C   0  0  0  0  0  2  0  0  0  0  0  0
  190.9640  173.6290  144.5380 C   0  0  0  0  0  0  0  0  0  0  0  0
  186.1900  177.3560  143.4820 C   0  0  0  0  0  3  0  0  0  0  0  0
  191.2920  172.1960  144.3560 C   0  0  0  0  0  2  0  0  0  0  0  0
  191.1630  172.2770  141.8710 N   0  0  0  0  0  0  0  0  0  0  0  0
  189.0030  175.0630  144.8430 O   0  0  0  0  0  0  0  0  0  0  0  0
  186.8790  176.0930  143.0610 C   0  0  0  0  0  2  0  0  0  0  0  0
  193.3420  174.4650  145.3840 C   0  0  0  0  0  2  0  0  0  0  0  0
  189.1460  176.3030  144.1850 C   0  0  2  0  0  3  0  0  0  0  0  0
  185.6800  179.2140  145.0000 C   0  0  0  0  0  2  0  0  0  0  0  0
  184.0500  178.2370  146.4500 O   0  0  0  0  0  1  0  0  0  0  0  0
  184.2050  178.9480  145.2600 C   0  0  0  0  0  2  0  0  0  0  0  0
  2 13  2  0  0  0  0
  3  1  1  0  0  0  0
  4 17  1  0  0  0  0
  5 13  1  6  0  0  0
  5 15  1  0  0  0  0
  5 19  1  0  0  0  0
  6 11  2  0  0  0  0
  8 14  1  0  0  0  0
  8 21  1  0  0  0  0
  9  7  1  0  0  0  0
 10 23  1  0  0  0  0
 10  7  1  0  0  0  0
 11 18  1  0  0  0  0
 11 13  1  0  0  0  0
 12  2  1  6  0  0  0
 12 20  1  0  0  0  0
 12 22  1  0  0  0  0
 14  1  1  0  0  0  0
 15  8  2  0  0  0  0
 16 10  2  0  0  0  0
 17 15  1  0  0  0  0
 18  4  2  0  0  0  0
 20 16  1  0  0  0  0
 21  1  1  0  0  0  0
 22 19  1  0  0  0  0
 22  9  1  1  0  0  0
 23 25  1  0  0  0  0
 25 24  1  0  0  0  0
M  END
>  <MODEL>
5

>  <REMARK>
 VINA RESULT:      -7.0      3.129      7.494
  Name = 
  2 active torsions:
  status: ('A' for Active; 'I' for Inactive)
    1  A    between atoms: C_10  and  C_21
    2  A    between atoms: C_19  and  C_21
                            x       y       z     vdW  Elec       q    Type
                         _______ _______ _______ _____ _____    ______ ____

>  <TORSDO>
F 2

$$$$
=
 OpenBabel11042413493D

 25 28  0  0  1  0  0  0  0  0999 V2000
  186.9670  177.8790  146.5710 N   0  0  0  0  0  0  0  0  0  0  0  0
  190.1080  174.6290  142.8810 C   0  0  0  0  0  3  0  0  0  0  0  0
  186.1150  176.7480  146.9020 C   0  0  0  0  0  1  0  0  0  0  0  0
  186.7180  177.1980  141.5860 C   0  0  0  0  0  3  0  0  0  0  0  0
  189.6110  177.0410  142.9730 C   0  0  1  0  0  3  0  0  0  0  0  0
  188.6860  174.4740  140.4890 O   0  0  0  0  0  0  0  0  0  0  0  0
  193.0410  176.7220  145.6070 C   0  0  0  0  0  2  0  0  0  0  0  0
  187.8380  177.7900  144.5620 C   0  0  0  0  0  0  0  0  0  0  0  0
  191.6150  176.3290  145.9780 C   0  0  0  0  0  2  0  0  0  0  0  0
  193.8710  175.5090  145.3070 C   0  0  0  0  0  0  0  0  0  0  0  0
  188.4200  175.3930  141.3090 C   0  0  0  0  0  0  0  0  0  0  0  0
  191.1370  174.8220  143.9490 C   0  0  1  0  0  3  0  0  0  0  0  0
  189.3860  175.6530  142.4060 C   0  0  0  0  0  0  0  0  0  0  0  0
  188.1620  177.3470  145.9660 C   0  0  0  0  0  2  0  0  0  0  0  0
  188.3490  177.7500  143.3250 C   0  0  0  0  0  0  0  0  0  0  0  0
  193.6160  174.7180  144.2560 C   0  0  0  0  0  3  0  0  0  0  0  0
  187.5770  178.2710  142.1740 C   0  0  0  0  0  2  0  0  0  0  0  0
  187.1260  176.0210  141.2060 N   0  0  0  0  0  0  0  0  0  0  0  0
  190.6610  177.2040  143.9200 O   0  0  0  0  0  0  0  0  0  0  0  0
  192.5040  174.9790  143.2850 C   0  0  0  0  0  2  0  0  0  0  0  0
  186.6010  178.3150  145.2480 C   0  0  0  0  0  2  0  0  0  0  0  0
  190.7380  176.0660  144.7530 C   0  0  2  0  0  3  0  0  0  0  0  0
  195.0020  175.1730  146.2290 C   0  0  0  0  0  2  0  0  0  0  0  0
  196.8710  173.6920  146.3930 O   0  0  0  0  0  1  0  0  0  0  0  0
  196.1190  174.4480  145.4930 C   0  0  0  0  0  2  0  0  0  0  0  0
  1  3  1  0  0  0  0
  4 17  1  0  0  0  0
  5 13  1  1  0  0  0
  5 15  1  0  0  0  0
  5 19  1  0  0  0  0
  6 11  2  0  0  0  0
  7  9  1  0  0  0  0
  8 21  1  0  0  0  0
  8 14  1  0  0  0  0
 10  7  1  0  0  0  0
 10 23  1  0  0  0  0
 11 13  1  0  0  0  0
 12  2  1  6  0  0  0
 12 22  1  0  0  0  0
 13  2  2  0  0  0  0
 14  1  1  0  0  0  0
 15  8  2  0  0  0  0
 16 10  2  0  0  0  0
 17 15  1  0  0  0  0
 18 11  1  0  0  0  0
 18  4  2  0  0  0  0
 19 22  1  0  0  0  0
 20 12  1  0  0  0  0
 20 16  1  0  0  0  0
 21  1  1  0  0  0  0
 22  9  1  1  0  0  0
 25 23  1  0  0  0  0
 25 24  1  0  0  0  0
M  END
>  <MODEL>
6

>  <REMARK>
 VINA RESULT:      -6.9      2.170      4.575
  Name = 
  2 active torsions:
  status: ('A' for Active; 'I' for Inactive)
    1  A    between atoms: C_10  and  C_21
    2  A    between atoms: C_19  and  C_21
                            x       y       z     vdW  Elec       q    Type
                         _______ _______ _______ _____ _____    ______ ____

>  <TORSDO>
F 2

$$$$
=
 OpenBabel11042413493D

 25 28  0  0  1  0  0  0  0  0999 V2000
  190.3860  173.1650  141.2840 N   0  0  0  0  0  0  0  0  0  0  0  0
  190.6280  175.9470  146.4080 C   0  0  0  0  0  3  0  0  0  0  0  0
  190.6960  171.8920  141.9170 C   0  0  0  0  0  1  0  0  0  0  0  0
  194.0590  175.7300  143.5870 C   0  0  0  0  0  3  0  0  0  0  0  0
  191.0320  176.6800  144.0900 C   0  0  1  0  0  3  0  0  0  0  0  0
  193.3170  176.4160  146.9750 O   0  0  0  0  0  0  0  0  0  0  0  0
  186.7350  177.1420  144.4500 C   0  0  0  0  0  2  0  0  0  0  0  0
  191.1920  174.9110  142.3360 C   0  0  0  0  0  0  0  0  0  0  0  0
  187.4580  175.8150  144.2450 C   0  0  0  0  0  2  0  0  0  0  0  0
  186.3040  177.3020  145.8770 C   0  0  0  0  0  0  0  0  0  0  0  0
  192.9690  176.1670  145.7900 C   0  0  0  0  0  0  0  0  0  0  0  0
  189.1570  176.0490  146.1610 C   0  0  1  0  0  3  0  0  0  0  0  0
  191.5230  176.2410  145.4550 C   0  0  0  0  0  0  0  0  0  0  0  0
  189.9470  174.0610  142.3250 C   0  0  0  0  0  2  0  0  0  0  0  0
  191.7060  175.9760  142.9620 C   0  0  0  0  0  0  0  0  0  0  0  0
  187.1890  177.4150  146.8770 C   0  0  0  0  0  3  0  0  0  0  0  0
  193.0910  176.4200  142.6820 C   0  0  0  0  0  2  0  0  0  0  0  0
  193.9830  175.6840  144.8870 N   0  0  0  0  0  0  0  0  0  0  0  0
  189.6300  176.8550  143.9190 O   0  0  0  0  0  0  0  0  0  0  0  0
  188.6730  177.4080  146.6630 C   0  0  0  0  0  2  0  0  0  0  0  0
  191.6030  173.9360  141.2610 C   0  0  0  0  0  2  0  0  0  0  0  0
  188.9300  175.8750  144.6540 C   0  0  2  0  0  3  0  0  0  0  0  0
  184.8380  177.3160  146.1820 C   0  0  0  0  0  2  0  0  0  0  0  0
  183.8700  179.0410  144.8400 O   0  0  0  0  0  1  0  0  0  0  0  0
  184.2760  178.7290  146.1380 C   0  0  0  0  0  2  0  0  0  0  0  0
  1  3  1  0  0  0  0
  1 14  1  0  0  0  0
  4 18  2  0  0  0  0
  5 15  1  6  0  0  0
  5 13  1  0  0  0  0
  7 10  1  0  0  0  0
  8 15  2  0  0  0  0
  9  7  1  0  0  0  0
 10 23  1  0  0  0  0
 10 16  2  0  0  0  0
 11  6  2  0  0  0  0
 12  2  1  6  0  0  0
 12 20  1  0  0  0  0
 13 11  1  0  0  0  0
 13  2  2  0  0  0  0
 14  8  1  0  0  0  0
 17 15  1  0  0  0  0
 17  4  1  0  0  0  0
 18 11  1  0  0  0  0
 19  5  1  0  0  0  0
 19 22  1  0  0  0  0
 20 16  1  0  0  0  0
 21  1  1  0  0  0  0
 21  8  1  0  0  0  0
 22  9  1  1  0  0  0
 22 12  1  0  0  0  0
 24 25  1  0  0  0  0
 25 23  1  0  0  0  0
M  END
>  <MODEL>
7

>  <REMARK>
 VINA RESULT:      -6.8      3.014      6.679
  Name = 
  2 active torsions:
  status: ('A' for Active; 'I' for Inactive)
    1  A    between atoms: C_10  and  C_21
    2  A    between atoms: C_19  and  C_21
                            x       y       z     vdW  Elec       q    Type
                         _______ _______ _______ _____ _____    ______ ____

>  <TORSDO>
F 2

$$$$
=
 OpenBabel11042413493D

 25 28  0  0  1  0  0  0  0  0999 V2000
  185.8390  177.8790  146.6490 N   0  0  0  0  0  0  0  0  0  0  0  0
  188.9600  175.1830  142.5220 C   0  0  0  0  0  3  0  0  0  0  0  0
  184.8850  176.7820  146.6980 C   0  0  0  0  0  1  0  0  0  0  0  0
  185.8610  178.2440  141.6250 C   0  0  0  0  0  3  0  0  0  0  0  0
  188.6400  177.5610  143.0860 C   0  0  1  0  0  3  0  0  0  0  0  0
  187.6870  175.6380  140.0840 O   0  0  0  0  0  0  0  0  0  0  0  0
  191.8590  176.4210  145.7580 C   0  0  0  0  0  2  0  0  0  0  0  0
  186.8280  178.1230  144.7090 C   0  0  0  0  0  0  0  0  0  0  0  0
  190.3870  176.0860  145.9710 C   0  0  0  0  0  2  0  0  0  0  0  0
  192.6140  175.2270  145.2550 C   0  0  0  0  0  0  0  0  0  0  0  0
  187.4380  176.3920  141.0620 C   0  0  0  0  0  0  0  0  0  0  0  0
  189.9290  175.0670  143.6540 C   0  0  1  0  0  3  0  0  0  0  0  0
  188.3490  176.3400  142.2350 C   0  0  0  0  0  0  0  0  0  0  0  0
  187.0270  177.3790  146.0050 C   0  0  0  0  0  2  0  0  0  0  0  0
  187.4130  178.2900  143.5170 C   0  0  0  0  0  0  0  0  0  0  0  0
  192.3680  174.6900  144.0510 C   0  0  0  0  0  3  0  0  0  0  0  0
  186.7590  179.0970  142.4620 C   0  0  0  0  0  2  0  0  0  0  0  0
  186.2040  177.1370  141.0300 N   0  0  0  0  0  0  0  0  0  0  0  0
  189.6350  177.4380  144.0960 O   0  0  0  0  0  0  0  0  0  0  0  0
  191.3440  175.2360  143.1030 C   0  0  0  0  0  2  0  0  0  0  0  0
  185.5920  178.6030  145.4280 C   0  0  0  0  0  2  0  0  0  0  0  0
  189.5740  176.1530  144.6780 C   0  0  2  0  0  3  0  0  0  0  0  0
  193.6540  174.6160  146.1390 C   0  0  0  0  0  2  0  0  0  0  0  0
  196.0040  174.6510  145.6990 O   0  0  0  0  0  1  0  0  0  0  0  0
  194.9360  175.4350  146.1370 C   0  0  0  0  0  2  0  0  0  0  0  0
  1  3  1  0  0  0  0
  4 17  1  0  0  0  0
  5 13  1  1  0  0  0
  5 15  1  0  0  0  0
  5 19  1  0  0  0  0
  6 11  2  0  0  0  0
  7  9  1  0  0  0  0
  8 21  1  0  0  0  0
  8 14  1  0  0  0  0
 10  7  1  0  0  0  0
 10 23  1  0  0  0  0
 11 13  1  0  0  0  0
 12  2  1  6  0  0  0
 12 22  1  0  0  0  0
 13  2  2  0  0  0  0
 14  1  1  0  0  0  0
 15  8  2  0  0  0  0
 16 10  2  0  0  0  0
 17 15  1  0  0  0  0
 18 11  1  0  0  0  0
 18  4  2  0  0  0  0
 19 22  1  0  0  0  0
 20 12  1  0  0  0  0
 20 16  1  0  0  0  0
 21  1  1  0  0  0  0
 22  9  1  1  0  0  0
 24 25  1  0  0  0  0
 25 23  1  0  0  0  0
M  END
>  <MODEL>
8

>  <REMARK>
 VINA RESULT:      -6.7      1.926      4.275
  Name = 
  2 active torsions:
  status: ('A' for Active; 'I' for Inactive)
    1  A    between atoms: C_10  and  C_21
    2  A    between atoms: C_19  and  C_21
                            x       y       z     vdW  Elec       q    Type
                         _______ _______ _______ _____ _____    ______ ____

>  <TORSDO>
F 2

$$$$
=
 OpenBabel11042413493D

 25 28  0  0  1  0  0  0  0  0999 V2000
  186.3320  177.0980  145.8550 N   0  0  0  0  0  0  0  0  0  0  0  0
  191.3380  175.6970  143.2040 C   0  0  0  0  0  3  0  0  0  0  0  0
  186.5410  178.5120  145.5860 C   0  0  0  0  0  1  0  0  0  0  0  0
  190.9850  176.2700  147.6000 C   0  0  0  0  0  3  0  0  0  0  0  0
  190.0460  174.6220  145.0070 C   0  0  1  0  0  3  0  0  0  0  0  0
  193.4010  176.1590  145.0210 O   0  0  0  0  0  0  0  0  0  0  0  0
  188.1360  173.0320  141.4530 C   0  0  0  0  0  2  0  0  0  0  0  0
  188.1810  175.9330  146.0240 C   0  0  0  0  0  0  0  0  0  0  0  0
  187.9120  174.4320  142.0140 C   0  0  0  0  0  2  0  0  0  0  0  0
  189.0450  173.0700  140.2600 C   0  0  0  0  0  0  0  0  0  0  0  0
  192.2210  176.0300  145.4440 C   0  0  0  0  0  0  0  0  0  0  0  0
  190.3820  175.1230  142.2070 C   0  0  1  0  0  3  0  0  0  0  0  0
  191.2030  175.4710  144.5180 C   0  0  0  0  0  0  0  0  0  0  0  0
  187.1970  176.3640  144.9660 C   0  0  0  0  0  2  0  0  0  0  0  0
  189.3100  175.2250  146.1540 C   0  0  0  0  0  0  0  0  0  0  0  0
  190.3290  173.4400  140.3590 C   0  0  0  0  0  3  0  0  0  0  0  0
  190.0070  175.1490  147.4580 C   0  0  0  0  0  2  0  0  0  0  0  0
  191.9180  176.5760  146.7430 N   0  0  0  0  0  0  0  0  0  0  0  0
  189.2120  174.0170  144.0260 O   0  0  0  0  0  0  0  0  0  0  0  0
  190.9730  173.8270  141.6560 C   0  0  0  0  0  2  0  0  0  0  0  0
  187.2470  176.7240  146.9040 C   0  0  0  0  0  2  0  0  0  0  0  0
  189.0490  174.8900  142.9290 C   0  0  2  0  0  3  0  0  0  0  0  0
  188.4820  172.7020  138.9230 C   0  0  0  0  0  2  0  0  0  0  0  0
  187.6860  174.8770  138.3300 O   0  0  0  0  0  1  0  0  0  0  0  0
  188.5670  173.8660  137.9460 C   0  0  0  0  0  2  0  0  0  0  0  0
  1 21  1  0  0  0  0
  2 13  2  0  0  0  0
  3  1  1  0  0  0  0
  5 19  1  6  0  0  0
  5 15  1  0  0  0  0
  6 11  2  0  0  0  0
  7  9  1  0  0  0  0
  8 15  2  0  0  0  0
  8 21  1  0  0  0  0
 10 16  2  0  0  0  0
 10  7  1  0  0  0  0
 11 18  1  0  0  0  0
 12 20  1  1  0  0  0
 12 22  1  0  0  0  0
 12  2  1  0  0  0  0
 13  5  1  0  0  0  0
 13 11  1  0  0  0  0
 14  1  1  0  0  0  0
 14  8  1  0  0  0  0
 15 17  1  0  0  0  0
 16 20  1  0  0  0  0
 17  4  1  0  0  0  0
 18  4  2  0  0  0  0
 22  9  1  6  0  0  0
 22 19  1  0  0  0  0
 23 10  1  0  0  0  0
 25 24  1  0  0  0  0
 25 23  1  0  0  0  0
M  END
>  <MODEL>
9

>  <REMARK>
 VINA RESULT:      -6.6      3.557      5.846
  Name = 
  2 active torsions:
  status: ('A' for Active; 'I' for Inactive)
    1  A    between atoms: C_10  and  C_21
    2  A    between atoms: C_19  and  C_21
                            x       y       z     vdW  Elec       q    Type
                         _______ _______ _______ _____ _____    ______ ____

>  <TORSDO>
F 2

$$$$
