=
 OpenBabel11042419443D

 40 46  0  0  1  0  0  0  0  0999 V2000
  189.0320  175.2220  145.4660 C   0  0  0  0  0  0  0  0  0  0  0  0
  185.3040  177.9710  140.7370 C   0  0  0  0  0  2  0  0  0  0  0  0
  188.9770  175.5980  146.8360 C   0  0  0  0  0  3  0  0  0  0  0  0
  186.2090  177.2960  143.0010 C   0  0  0  0  0  0  0  0  0  0  0  0
  186.1720  177.9900  146.5720 N   0  0  0  0  0  0  0  0  0  0  0  0
  187.0950  176.3770  142.3820 C   0  0  0  0  0  3  0  0  0  0  0  0
  184.5330  178.9190  145.1460 C   0  0  0  0  0  2  0  0  0  0  0  0
  190.1430  174.3210  145.0540 C   0  0  0  0  0  1  0  0  0  0  0  0
  184.1030  178.6640  142.6660 C   0  0  0  0  0  0  0  0  0  0  0  0
  187.1360  177.0610  146.3810 C   0  0  0  0  0  0  0  0  0  0  0  0
  183.1450  178.7780  141.5370 C   0  0  1  0  0  3  0  0  0  0  0  0
  188.0960  175.7790  144.5450 C   0  0  0  0  0  0  0  0  0  0  0  0
  187.1910  176.6790  145.0830 C   0  0  0  0  0  0  0  0  0  0  0  0
  188.0020  175.5790  143.1350 C   0  0  0  0  0  0  0  0  0  0  0  0
  185.6260  178.1750  145.3350 C   0  0  0  0  0  0  0  0  0  0  0  0
  183.9970  178.6100  140.2910 C   0  0  0  0  0  2  0  0  0  0  0  0
  185.4840  178.3470  142.2020 C   0  0  2  0  0  3  0  0  0  0  0  0
  188.0210  176.5250  147.3110 C   0  0  0  0  0  3  0  0  0  0  0  0
  183.7390  179.0130  143.9050 C   0  0  0  0  0  3  0  0  0  0  0  0
  186.2700  177.3840  144.3900 C   0  0  0  0  0  0  0  0  0  0  0  0
  189.5830  172.6890  141.0650 C   0  0  0  0  0  0  0  0  0  0  0  0
  190.4160  173.7500  140.9930 N   0  0  0  0  0  0  0  0  0  0  0  0
  188.2380  173.0180  142.0230 S   0  0  0  0  0  0  0  0  0  0  0  0
  188.7780  174.5690  142.4010 C   0  0  0  0  0  0  0  0  0  0  0  0
  189.9680  174.8070  141.7240 C   0  0  0  0  0  3  0  0  0  0  0  0
  189.8140  171.4250  140.3090 C   0  0  2  0  0  3  0  0  0  0  0  0
  190.3500  169.2940  138.7450 N   0  0  0  0  0  2  0  0  0  0  0  0
  191.3940  170.6580  140.8270 S   0  0  0  0  0  0  0  0  0  0  0  0
  189.6500  170.4320  138.1310 C   0  0  0  0  0  2  0  0  0  0  0  0
  191.6380  169.7290  139.2720 C   0  0  0  0  0  2  0  0  0  0  0  0
  189.8260  171.6870  138.8740 N   0  0  0  0  0  2  0  0  0  0  0  0
  182.1730  177.6960  141.6080 N   0  0  0  0  0  2  0  0  0  0  0  0
  180.5960  178.4060  141.7240 S   0  0  0  0  0  0  0  0  0  0  0  0
  180.5720  179.4070  142.8460 O   0  0  0  0  0  0  0  0  0  0  0  0
  179.5900  177.3270  142.0050 O   0  0  0  0  0  0  0  0  0  0  0  0
  180.1710  179.2200  140.1990 C   0  0  0  0  0  2  0  0  0  0  0  0
  180.3410  180.6210  140.3420 O   0  0  0  0  0  0  0  0  0  0  0  0
  178.2040  181.4360  140.4970 O   0  0  0  0  0  1  0  0  0  0  0  0
  179.3410  181.5150  139.9650 C   0  0  0  0  0  0  0  0  0  0  0  0
  179.5840  182.4890  139.0020 O   0  0  0  0  0  0  0  0  0  0  0  0
  1  3  1  0  0  0  0
  3 18  2  0  0  0  0
  4 20  2  0  0  0  0
  6  4  1  0  0  0  0
  6 14  2  0  0  0  0
  7 15  1  0  0  0  0
  8  1  1  0  0  0  0
  9 19  2  0  0  0  0
 10  5  1  0  0  0  0
 10 18  1  0  0  0  0
 11 32  1  1  0  0  0
 11  9  1  0  0  0  0
 12 13  1  0  0  0  0
 12  1  2  0  0  0  0
 13 10  2  0  0  0  0
 14 12  1  0  0  0  0
 15  5  2  0  0  0  0
 16  2  1  0  0  0  0
 16 11  1  0  0  0  0
 17  2  1  6  0  0  0
 17  9  1  0  0  0  0
 17  4  1  0  0  0  0
 19  7  1  0  0  0  0
 20 13  1  0  0  0  0
 20 15  1  0  0  0  0
 21 23  1  0  0  0  0
 22 21  2  0  0  0  0
 22 25  1  0  0  0  0
 23 24  1  0  0  0  0
 24 14  1  0  0  0  0
 25 24  2  0  0  0  0
 26 28  1  0  0  0  0
 26 21  1  1  0  0  0
 27 30  1  0  0  0  0
 29 27  1  0  0  0  0
 29 31  1  0  0  0  0
 30 28  1  0  0  0  0
 31 26  1  0  0  0  0
 32 33  1  0  0  0  0
 33 35  2  0  0  0  0
 33 34  2  0  0  0  0
 36 37  1  0  0  0  0
 36 33  1  0  0  0  0
 39 37  1  0  0  0  0
 39 38  1  0  0  0  0
 40 39  2  0  0  0  0
M  END
>  <MODEL>
1

>  <REMARK>
 VINA RESULT:      -8.1      0.000      0.000
  Name = 
  7 active torsions:
  status: ('A' for Active; 'I' for Inactive)
    1  A    between atoms: C_3  and  C_5
    2  A    between atoms: S_6  and  C_7
    3  A    between atoms: S_6  and  N_17
    4  A    between atoms: C_7  and  O_14
    5  A    between atoms: O_14  and  C_22
    6  A    between atoms: N_17  and  C_26
    7  A    between atoms: C_29  and  C_35
                            x       y       z     vdW  Elec       q    Type
                         _______ _______ _______ _____ _____    ______ ____

>  <TORSDO>
F 7

$$$$
=
 OpenBabel11042419443D

 40 46  0  0  1  0  0  0  0  0999 V2000
  192.6470  172.6030  143.4470 C   0  0  0  0  0  0  0  0  0  0  0  0
  188.2270  177.2030  141.6770 C   0  0  0  0  0  2  0  0  0  0  0  0
  193.3920  172.6460  144.6570 C   0  0  0  0  0  3  0  0  0  0  0  0
  189.8400  175.8150  143.0440 C   0  0  0  0  0  0  0  0  0  0  0  0
  191.7750  175.6290  146.1190 N   0  0  0  0  0  0  0  0  0  0  0  0
  189.9560  174.8850  141.9790 C   0  0  0  0  0  3  0  0  0  0  0  0
  190.0580  177.2330  145.8700 C   0  0  0  0  0  2  0  0  0  0  0  0
  193.0520  171.5880  142.4350 C   0  0  0  0  0  1  0  0  0  0  0  0
  188.4190  177.6840  143.9950 C   0  0  0  0  0  0  0  0  0  0  0  0
  192.1590  174.5700  145.3710 C   0  0  0  0  0  0  0  0  0  0  0  0
  187.1320  178.2880  143.5680 C   0  0  1  0  0  3  0  0  0  0  0  0
  191.6230  173.5700  143.2160 C   0  0  0  0  0  0  0  0  0  0  0  0
  191.4470  174.5060  144.2220 C   0  0  0  0  0  0  0  0  0  0  0  0
  190.7960  173.7380  142.0650 C   0  0  0  0  0  0  0  0  0  0  0  0
  190.7910  176.2280  145.3860 C   0  0  0  0  0  0  0  0  0  0  0  0
  187.1610  178.2210  142.0510 C   0  0  0  0  0  2  0  0  0  0  0  0
  189.2090  177.1660  142.8410 C   0  0  2  0  0  3  0  0  0  0  0  0
  193.1530  173.6340  145.6390 C   0  0  0  0  0  3  0  0  0  0  0  0
  188.8420  177.8060  145.2580 C   0  0  0  0  0  3  0  0  0  0  0  0
  190.5950  175.5530  144.1860 C   0  0  0  0  0  0  0  0  0  0  0  0
  191.1180  171.3800  138.9880 C   0  0  0  0  0  0  0  0  0  0  0  0
  190.3590  170.7510  139.9100 N   0  0  0  0  0  0  0  0  0  0  0  0
  191.5890  172.9110  139.5090 S   0  0  0  0  0  0  0  0  0  0  0  0
  190.7360  172.7760  140.9550 C   0  0  0  0  0  0  0  0  0  0  0  0
  190.1520  171.5160  141.0160 C   0  0  0  0  0  3  0  0  0  0  0  0
  191.5410  170.7370  137.7100 C   0  0  2  0  0  3  0  0  0  0  0  0
  192.0590  169.4470  135.3990 N   0  0  0  0  0  2  0  0  0  0  0  0
  191.1210  171.8150  136.2900 S   0  0  0  0  0  0  0  0  0  0  0  0
  191.6020  168.6430  136.5420 C   0  0  0  0  0  2  0  0  0  0  0  0
  191.0600  170.4560  135.0700 C   0  0  0  0  0  2  0  0  0  0  0  0
  190.9010  169.4350  137.5620 N   0  0  0  0  0  2  0  0  0  0  0  0
  186.0240  177.4840  144.0650 N   0  0  0  0  0  2  0  0  0  0  0  0
  184.8070  178.5650  144.6580 S   0  0  0  0  0  0  0  0  0  0  0  0
  183.6730  178.6410  143.6740 O   0  0  0  0  0  0  0  0  0  0  0  0
  185.4040  179.9330  144.8270 O   0  0  0  0  0  0  0  0  0  0  0  0
  184.1890  177.9990  146.2280 C   0  0  0  0  0  2  0  0  0  0  0  0
  184.9020  178.6320  147.2790 O   0  0  0  0  0  0  0  0  0  0  0  0
  186.3470  176.8860  147.6310 O   0  0  0  0  0  0  0  0  0  0  0  0
  186.1070  178.1160  147.7510 C   0  0  0  0  0  0  0  0  0  0  0  0
  187.0460  178.9430  148.3590 O   0  0  0  0  0  1  0  0  0  0  0  0
  1  3  1  0  0  0  0
  2 16  1  0  0  0  0
  3 18  2  0  0  0  0
  4 20  2  0  0  0  0
  6 14  2  0  0  0  0
  6  4  1  0  0  0  0
  8  1  1  0  0  0  0
  9 19  2  0  0  0  0
 10 18  1  0  0  0  0
 10  5  1  0  0  0  0
 11  9  1  0  0  0  0
 11 32  1  1  0  0  0
 12  1  2  0  0  0  0
 12 13  1  0  0  0  0
 13 10  2  0  0  0  0
 14 12  1  0  0  0  0
 15  7  1  0  0  0  0
 15  5  2  0  0  0  0
 16 11  1  0  0  0  0
 17  2  1  6  0  0  0
 17  4  1  0  0  0  0
 17  9  1  0  0  0  0
 19  7  1  0  0  0  0
 20 13  1  0  0  0  0
 20 15  1  0  0  0  0
 21 23  1  0  0  0  0
 21 22  2  0  0  0  0
 22 25  1  0  0  0  0
 23 24  1  0  0  0  0
 24 25  2  0  0  0  0
 24 14  1  0  0  0  0
 26 21  1  1  0  0  0
 27 29  1  0  0  0  0
 28 26  1  0  0  0  0
 29 31  1  0  0  0  0
 30 27  1  0  0  0  0
 30 28  1  0  0  0  0
 31 26  1  0  0  0  0
 32 33  1  0  0  0  0
 33 35  2  0  0  0  0
 33 36  1  0  0  0  0
 34 33  2  0  0  0  0
 36 37  1  0  0  0  0
 37 39  1  0  0  0  0
 38 39  2  0  0  0  0
 39 40  1  0  0  0  0
M  END
>  <MODEL>
2

>  <REMARK>
 VINA RESULT:      -7.6      3.501      5.587
  Name = 
  7 active torsions:
  status: ('A' for Active; 'I' for Inactive)
    1  A    between atoms: C_3  and  C_5
    2  A    between atoms: S_6  and  C_7
    3  A    between atoms: S_6  and  N_17
    4  A    between atoms: C_7  and  O_14
    5  A    between atoms: O_14  and  C_22
    6  A    between atoms: N_17  and  C_26
    7  A    between atoms: C_29  and  C_35
                            x       y       z     vdW  Elec       q    Type
                         _______ _______ _______ _____ _____    ______ ____

>  <TORSDO>
F 7

$$$$
=
 OpenBabel11042419443D

 40 46  0  0  1  0  0  0  0  0999 V2000
  194.6460  173.5940  143.2800 C   0  0  0  0  0  0  0  0  0  0  0  0
  189.2150  177.3390  142.7340 C   0  0  0  0  0  2  0  0  0  0  0  0
  195.4450  173.5250  144.4540 C   0  0  0  0  0  3  0  0  0  0  0  0
  191.1830  176.0810  143.7030 C   0  0  0  0  0  0  0  0  0  0  0  0
  193.3180  175.6370  146.6150 N   0  0  0  0  0  0  0  0  0  0  0  0
  191.4270  175.4740  142.4440 C   0  0  0  0  0  3  0  0  0  0  0  0
  191.2790  176.8180  146.7840 C   0  0  0  0  0  2  0  0  0  0  0  0
  195.1930  172.9610  142.0490 C   0  0  0  0  0  1  0  0  0  0  0  0
  189.4560  177.3020  145.0970 C   0  0  0  0  0  0  0  0  0  0  0  0
  193.8730  174.8960  145.6290 C   0  0  0  0  0  0  0  0  0  0  0  0
  188.0420  177.6770  144.8460 C   0  0  1  0  0  3  0  0  0  0  0  0
  193.4220  174.3260  143.3040 C   0  0  0  0  0  0  0  0  0  0  0  0
  193.1150  174.9380  144.5080 C   0  0  0  0  0  0  0  0  0  0  0  0
  192.5010  174.5620  142.2390 C   0  0  0  0  0  0  0  0  0  0  0  0
  192.1790  176.1470  146.0620 C   0  0  0  0  0  0  0  0  0  0  0  0
  187.9800  177.9720  143.3580 C   0  0  0  0  0  2  0  0  0  0  0  0
  190.2590  177.2610  143.8410 C   0  0  2  0  0  3  0  0  0  0  0  0
  195.0630  174.1770  145.6480 C   0  0  0  0  0  3  0  0  0  0  0  0
  189.9280  177.2220  146.3460 C   0  0  0  0  0  3  0  0  0  0  0  0
  192.0530  175.7410  144.7380 C   0  0  0  0  0  0  0  0  0  0  0  0
  192.2270  172.5880  138.8980 C   0  0  0  0  0  0  0  0  0  0  0  0
  192.9680  173.6930  138.6640 N   0  0  0  0  0  0  0  0  0  0  0  0
  191.7510  172.4890  140.5110 S   0  0  0  0  0  0  0  0  0  0  0  0
  192.5770  173.8950  140.9320 C   0  0  0  0  0  0  0  0  0  0  0  0
  193.1570  174.4350  139.7890 C   0  0  0  0  0  3  0  0  0  0  0  0
  191.8260  171.6370  137.8210 C   0  0  2  0  0  3  0  0  0  0  0  0
  190.8510  169.9160  135.9880 N   0  0  0  0  0  2  0  0  0  0  0  0
  191.2690  172.5590  136.3400 S   0  0  0  0  0  0  0  0  0  0  0  0
  190.6540  169.5860  137.4080 C   0  0  0  0  0  2  0  0  0  0  0  0
  190.2340  171.2020  135.6880 C   0  0  0  0  0  2  0  0  0  0  0  0
  190.7670  170.7530  138.2940 N   0  0  0  0  0  2  0  0  0  0  0  0
  187.1740  176.5480  145.1510 N   0  0  0  0  0  2  0  0  0  0  0  0
  186.1570  177.0030  146.4780 S   0  0  0  0  0  0  0  0  0  0  0  0
  186.7770  176.5510  147.7710 O   0  0  0  0  0  0  0  0  0  0  0  0
  184.8160  176.3470  146.3190 O   0  0  0  0  0  0  0  0  0  0  0  0
  185.9430  178.7710  146.5140 C   0  0  0  0  0  2  0  0  0  0  0  0
  184.7020  179.1130  145.9160 O   0  0  0  0  0  0  0  0  0  0  0  0
  183.7000  178.9320  143.8620 O   0  0  0  0  0  0  0  0  0  0  0  0
  184.6140  179.4370  144.5640 C   0  0  0  0  0  0  0  0  0  0  0  0
  185.5280  180.3080  143.9800 O   0  0  0  0  0  1  0  0  0  0  0  0
  1 12  2  0  0  0  0
  1  3  1  0  0  0  0
  2 16  1  0  0  0  0
  3 18  2  0  0  0  0
  4 17  1  0  0  0  0
  4 20  2  0  0  0  0
  6  4  1  0  0  0  0
  8  1  1  0  0  0  0
  9 19  2  0  0  0  0
 10 18  1  0  0  0  0
 10  5  1  0  0  0  0
 11  9  1  0  0  0  0
 11 32  1  6  0  0  0
 12 13  1  0  0  0  0
 13 20  1  0  0  0  0
 13 10  2  0  0  0  0
 14  6  2  0  0  0  0
 14 12  1  0  0  0  0
 15  5  2  0  0  0  0
 15  7  1  0  0  0  0
 16 11  1  0  0  0  0
 17  2  1  6  0  0  0
 17  9  1  0  0  0  0
 19  7  1  0  0  0  0
 20 15  1  0  0  0  0
 21 23  1  0  0  0  0
 22 21  2  0  0  0  0
 22 25  1  0  0  0  0
 23 24  1  0  0  0  0
 24 14  1  0  0  0  0
 25 24  2  0  0  0  0
 26 31  1  0  0  0  0
 26 21  1  1  0  0  0
 27 29  1  0  0  0  0
 28 26  1  0  0  0  0
 29 31  1  0  0  0  0
 30 27  1  0  0  0  0
 30 28  1  0  0  0  0
 32 33  1  0  0  0  0
 33 36  1  0  0  0  0
 33 34  2  0  0  0  0
 35 33  2  0  0  0  0
 37 36  1  0  0  0  0
 38 39  2  0  0  0  0
 39 37  1  0  0  0  0
 40 39  1  0  0  0  0
M  END
>  <MODEL>
3

>  <REMARK>
 VINA RESULT:      -7.5      3.776      5.909
  Name = 
  7 active torsions:
  status: ('A' for Active; 'I' for Inactive)
    1  A    between atoms: C_3  and  C_5
    2  A    between atoms: S_6  and  C_7
    3  A    between atoms: S_6  and  N_17
    4  A    between atoms: C_7  and  O_14
    5  A    between atoms: O_14  and  C_22
    6  A    between atoms: N_17  and  C_26
    7  A    between atoms: C_29  and  C_35
                            x       y       z     vdW  Elec       q    Type
                         _______ _______ _______ _____ _____    ______ ____

>  <TORSDO>
F 7

$$$$
=
 OpenBabel11042419443D

 40 46  0  0  1  0  0  0  0  0999 V2000
  193.0060  175.9010  146.2970 C   0  0  0  0  0  0  0  0  0  0  0  0
  190.3640  171.4770  142.1410 C   0  0  0  0  0  2  0  0  0  0  0  0
  194.4040  176.0440  146.5160 C   0  0  0  0  0  3  0  0  0  0  0  0
  192.0250  172.9620  143.3380 C   0  0  0  0  0  0  0  0  0  0  0  0
  195.5470  173.6080  143.9840 N   0  0  0  0  0  0  0  0  0  0  0  0
  190.9640  173.6290  144.0020 C   0  0  0  0  0  3  0  0  0  0  0  0
  194.8870  172.1600  142.2380 C   0  0  0  0  0  2  0  0  0  0  0  0
  192.0960  176.6350  147.2180 C   0  0  0  0  0  1  0  0  0  0  0  0
  192.6100  171.4820  141.3670 C   0  0  0  0  0  0  0  0  0  0  0  0
  194.8590  174.4430  144.7950 C   0  0  0  0  0  0  0  0  0  0  0  0
  191.8040  170.9280  140.2500 C   0  0  1  0  0  3  0  0  0  0  0  0
  192.5410  175.0100  145.2840 C   0  0  0  0  0  0  0  0  0  0  0  0
  193.5260  174.3300  144.5870 C   0  0  0  0  0  0  0  0  0  0  0  0
  191.1970  174.6830  144.9310 C   0  0  0  0  0  0  0  0  0  0  0  0
  194.5860  172.9650  143.2590 C   0  0  0  0  0  0  0  0  0  0  0  0
  190.4360  170.6680  140.8550 C   0  0  0  0  0  2  0  0  0  0  0  0
  191.8020  171.6650  142.6070 C   0  0  2  0  0  3  0  0  0  0  0  0
  195.3500  175.3150  145.7620 C   0  0  0  0  0  3  0  0  0  0  0  0
  193.9390  171.5900  141.2590 C   0  0  0  0  0  3  0  0  0  0  0  0
  193.3170  173.3860  143.6440 C   0  0  0  0  0  0  0  0  0  0  0  0
  187.9850  176.6910  145.8150 C   0  0  0  0  0  0  0  0  0  0  0  0
  188.1180  175.7050  146.7280 N   0  0  0  0  0  0  0  0  0  0  0  0
  189.2460  176.6800  144.7000 S   0  0  0  0  0  0  0  0  0  0  0  0
  190.0200  175.3890  145.4560 C   0  0  0  0  0  0  0  0  0  0  0  0
  189.2420  174.9650  146.5290 C   0  0  0  0  0  3  0  0  0  0  0  0
  186.8080  177.6070  145.7770 C   0  0  2  0  0  3  0  0  0  0  0  0
  184.5280  179.0410  145.6530 N   0  0  0  0  0  2  0  0  0  0  0  0
  186.1170  177.8190  147.4590 S   0  0  0  0  0  0  0  0  0  0  0  0
  184.8340  178.1470  144.5260 C   0  0  0  0  0  2  0  0  0  0  0  0
  184.4410  178.2710  146.8870 C   0  0  0  0  0  2  0  0  0  0  0  0
  185.7890  177.0850  144.8730 N   0  0  0  0  0  2  0  0  0  0  0  0
  191.6840  171.9210  139.1920 N   0  0  0  0  0  2  0  0  0  0  0  0
  191.4130  171.0800  137.7020 S   0  0  0  0  0  0  0  0  0  0  0  0
  191.8140  169.6390  137.8520 O   0  0  0  0  0  0  0  0  0  0  0  0
  192.2420  171.7120  136.6210 O   0  0  0  0  0  0  0  0  0  0  0  0
  189.6930  171.1690  137.2470 C   0  0  0  0  0  2  0  0  0  0  0  0
  189.3270  172.5220  137.0300 O   0  0  0  0  0  0  0  0  0  0  0  0
  188.1920  172.6530  139.0180 O   0  0  0  0  0  1  0  0  0  0  0  0
  188.5580  173.2220  137.9570 C   0  0  0  0  0  0  0  0  0  0  0  0
  188.1850  174.5420  137.7210 O   0  0  0  0  0  0  0  0  0  0  0  0
  1  3  1  0  0  0  0
  1  8  1  0  0  0  0
  4 20  2  0  0  0  0
  4  6  1  0  0  0  0
  5 10  1  0  0  0  0
  6 14  2  0  0  0  0
  7 15  1  0  0  0  0
  9 17  1  0  0  0  0
 10 18  1  0  0  0  0
 11 32  1  6  0  0  0
 11 16  1  0  0  0  0
 11  9  1  0  0  0  0
 12  1  2  0  0  0  0
 13 10  2  0  0  0  0
 13 12  1  0  0  0  0
 14 12  1  0  0  0  0
 14 24  1  0  0  0  0
 15 20  1  0  0  0  0
 15  5  2  0  0  0  0
 16  2  1  0  0  0  0
 17  2  1  6  0  0  0
 17  4  1  0  0  0  0
 18  3  2  0  0  0  0
 19  9  2  0  0  0  0
 19  7  1  0  0  0  0
 20 13  1  0  0  0  0
 21 22  2  0  0  0  0
 23 24  1  0  0  0  0
 23 21  1  0  0  0  0
 24 25  2  0  0  0  0
 25 22  1  0  0  0  0
 26 21  1  1  0  0  0
 26 28  1  0  0  0  0
 27 30  1  0  0  0  0
 29 31  1  0  0  0  0
 29 27  1  0  0  0  0
 30 28  1  0  0  0  0
 31 26  1  0  0  0  0
 33 34  2  0  0  0  0
 33 32  1  0  0  0  0
 35 33  2  0  0  0  0
 36 33  1  0  0  0  0
 37 36  1  0  0  0  0
 37 39  1  0  0  0  0
 39 38  1  0  0  0  0
 40 39  2  0  0  0  0
M  END
>  <MODEL>
4

>  <REMARK>
 VINA RESULT:      -7.3      5.440      9.967
  Name = 
  7 active torsions:
  status: ('A' for Active; 'I' for Inactive)
    1  A    between atoms: C_3  and  C_5
    2  A    between atoms: S_6  and  C_7
    3  A    between atoms: S_6  and  N_17
    4  A    between atoms: C_7  and  O_14
    5  A    between atoms: O_14  and  C_22
    6  A    between atoms: N_17  and  C_26
    7  A    between atoms: C_29  and  C_35
                            x       y       z     vdW  Elec       q    Type
                         _______ _______ _______ _____ _____    ______ ____

>  <TORSDO>
F 7

$$$$
=
 OpenBabel11042419443D

 40 46  0  0  1  0  0  0  0  0999 V2000
  188.8640  175.2990  145.3950 C   0  0  0  0  0  0  0  0  0  0  0  0
  185.1060  177.8880  140.5990 C   0  0  0  0  0  2  0  0  0  0  0  0
  188.8190  175.7230  146.7510 C   0  0  0  0  0  3  0  0  0  0  0  0
  186.0260  177.2910  142.8780 C   0  0  0  0  0  0  0  0  0  0  0  0
  186.0160  178.1080  146.4230 N   0  0  0  0  0  0  0  0  0  0  0  0
  186.9070  176.3500  142.2850 C   0  0  0  0  0  3  0  0  0  0  0  0
  184.3680  178.9900  144.9780 C   0  0  0  0  0  2  0  0  0  0  0  0
  189.9710  174.3830  145.0060 C   0  0  0  0  0  1  0  0  0  0  0  0
  183.9200  178.6490  142.5110 C   0  0  0  0  0  0  0  0  0  0  0  0
  186.9780  177.1710  146.2580 C   0  0  0  0  0  0  0  0  0  0  0  0
  182.9540  178.7260  141.3850 C   0  0  1  0  0  3  0  0  0  0  0  0
  187.9220  175.8250  144.4610 C   0  0  0  0  0  0  0  0  0  0  0  0
  187.0220  176.7450  144.9740 C   0  0  0  0  0  0  0  0  0  0  0  0
  187.8180  175.5760  143.0590 C   0  0  0  0  0  0  0  0  0  0  0  0
  185.4610  178.2510  145.1840 C   0  0  0  0  0  0  0  0  0  0  0  0
  183.7980  178.5130  140.1400 C   0  0  0  0  0  2  0  0  0  0  0  0
  185.2980  178.3140  142.0490 C   0  0  2  0  0  3  0  0  0  0  0  0
  187.8680  176.6670  147.2000 C   0  0  0  0  0  3  0  0  0  0  0  0
  183.5650  179.0420  143.7390 C   0  0  0  0  0  3  0  0  0  0  0  0
  186.0980  177.4260  144.2630 C   0  0  0  0  0  0  0  0  0  0  0  0
  190.2880  173.1060  141.3480 C   0  0  0  0  0  0  0  0  0  0  0  0
  189.1910  172.4060  141.7090 N   0  0  0  0  0  0  0  0  0  0  0  0
  190.1450  174.7360  141.7450 S   0  0  0  0  0  0  0  0  0  0  0  0
  188.5870  174.5400  142.3560 C   0  0  0  0  0  0  0  0  0  0  0  0
  188.2420  173.1950  142.2830 C   0  0  0  0  0  3  0  0  0  0  0  0
  191.4960  172.4670  140.7500 C   0  0  2  0  0  3  0  0  0  0  0  0
  193.6640  171.1250  139.8710 N   0  0  0  0  0  2  0  0  0  0  0  0
  191.0040  171.2830  139.4430 S   0  0  0  0  0  0  0  0  0  0  0  0
  193.6310  171.5130  141.2890 C   0  0  0  0  0  2  0  0  0  0  0  0
  192.5220  170.2730  139.5630 C   0  0  0  0  0  2  0  0  0  0  0  0
  192.2730  171.7880  141.7810 N   0  0  0  0  0  2  0  0  0  0  0  0
  181.9810  177.6490  141.5000 N   0  0  0  0  0  2  0  0  0  0  0  0
  180.4010  178.3590  141.5010 S   0  0  0  0  0  0  0  0  0  0  0  0
  180.4760  179.7640  142.0310 O   0  0  0  0  0  0  0  0  0  0  0  0
  179.4970  177.5480  142.3850 O   0  0  0  0  0  0  0  0  0  0  0  0
  179.7350  178.3860  139.8500 C   0  0  0  0  0  2  0  0  0  0  0  0
  179.0670  177.1620  139.5850 O   0  0  0  0  0  0  0  0  0  0  0  0
  178.0220  177.8960  137.6800 O   0  0  0  0  0  0  0  0  0  0  0  0
  178.4480  176.9260  138.3590 C   0  0  0  0  0  0  0  0  0  0  0  0
  178.2900  175.6290  137.8800 O   0  0  0  0  0  1  0  0  0  0  0  0
  1  3  1  0  0  0  0
  3 18  2  0  0  0  0
  4 20  2  0  0  0  0
  6  4  1  0  0  0  0
  6 14  2  0  0  0  0
  7 15  1  0  0  0  0
  8  1  1  0  0  0  0
  9 19  2  0  0  0  0
 10  5  1  0  0  0  0
 10 18  1  0  0  0  0
 11 32  1  1  0  0  0
 11  9  1  0  0  0  0
 12 13  1  0  0  0  0
 12  1  2  0  0  0  0
 13 10  2  0  0  0  0
 14 12  1  0  0  0  0
 15  5  2  0  0  0  0
 16  2  1  0  0  0  0
 16 11  1  0  0  0  0
 17  2  1  6  0  0  0
 17  9  1  0  0  0  0
 17  4  1  0  0  0  0
 19  7  1  0  0  0  0
 20 13  1  0  0  0  0
 20 15  1  0  0  0  0
 21 22  2  0  0  0  0
 21 23  1  0  0  0  0
 22 25  1  0  0  0  0
 23 24  1  0  0  0  0
 24 14  1  0  0  0  0
 25 24  2  0  0  0  0
 26 21  1  1  0  0  0
 26 31  1  0  0  0  0
 27 29  1  0  0  0  0
 28 30  1  0  0  0  0
 28 26  1  0  0  0  0
 29 31  1  0  0  0  0
 30 27  1  0  0  0  0
 32 33  1  0  0  0  0
 33 34  2  0  0  0  0
 33 35  2  0  0  0  0
 36 33  1  0  0  0  0
 37 36  1  0  0  0  0
 38 39  2  0  0  0  0
 39 37  1  0  0  0  0
 40 39  1  0  0  0  0
M  END
>  <MODEL>
5

>  <REMARK>
 VINA RESULT:      -7.1      1.718      2.203
  Name = 
  7 active torsions:
  status: ('A' for Active; 'I' for Inactive)
    1  A    between atoms: C_3  and  C_5
    2  A    between atoms: S_6  and  C_7
    3  A    between atoms: S_6  and  N_17
    4  A    between atoms: C_7  and  O_14
    5  A    between atoms: O_14  and  C_22
    6  A    between atoms: N_17  and  C_26
    7  A    between atoms: C_29  and  C_35
                            x       y       z     vdW  Elec       q    Type
                         _______ _______ _______ _____ _____    ______ ____

>  <TORSDO>
F 7

$$$$
=
 OpenBabel11042419443D

 40 46  0  0  1  0  0  0  0  0999 V2000
  192.9790  175.8580  146.2450 C   0  0  0  0  0  0  0  0  0  0  0  0
  190.3530  172.0410  141.5170 C   0  0  0  0  0  2  0  0  0  0  0  0
  194.3730  175.9390  146.5130 C   0  0  0  0  0  3  0  0  0  0  0  0
  192.0130  173.3270  142.9260 C   0  0  0  0  0  0  0  0  0  0  0  0
  195.5300  173.8040  143.7280 N   0  0  0  0  0  0  0  0  0  0  0  0
  190.9490  173.9340  143.6410 C   0  0  0  0  0  3  0  0  0  0  0  0
  194.8850  172.5970  141.8020 C   0  0  0  0  0  2  0  0  0  0  0  0
  192.0610  176.4960  147.2280 C   0  0  0  0  0  1  0  0  0  0  0  0
  192.6180  172.0860  140.8020 C   0  0  0  0  0  0  0  0  0  0  0  0
  194.8390  174.5500  144.6190 C   0  0  0  0  0  0  0  0  0  0  0  0
  191.8300  171.6920  139.6060 C   0  0  1  0  0  3  0  0  0  0  0  0
  192.5220  175.1090  145.1200 C   0  0  0  0  0  0  0  0  0  0  0  0
  193.5100  174.4960  144.3680 C   0  0  0  0  0  0  0  0  0  0  0  0
  191.1800  174.8600  144.6980 C   0  0  0  0  0  0  0  0  0  0  0  0
  194.5740  173.2780  142.9070 C   0  0  0  0  0  0  0  0  0  0  0  0
  190.4410  171.3940  140.1430 C   0  0  0  0  0  2  0  0  0  0  0  0
  191.7820  172.1350  142.0360 C   0  0  2  0  0  3  0  0  0  0  0  0
  195.3230  175.2850  145.6970 C   0  0  0  0  0  3  0  0  0  0  0  0
  193.9510  172.1750  140.7390 C   0  0  0  0  0  3  0  0  0  0  0  0
  193.3050  173.6800  143.3110 C   0  0  0  0  0  0  0  0  0  0  0  0
  187.9650  176.7860  145.7380 C   0  0  0  0  0  0  0  0  0  0  0  0
  188.1210  175.7530  146.5950 N   0  0  0  0  0  0  0  0  0  0  0  0
  189.2080  176.8470  144.6050 S   0  0  0  0  0  0  0  0  0  0  0  0
  190.0060  175.5250  145.2790 C   0  0  0  0  0  0  0  0  0  0  0  0
  189.2490  175.0360  146.3380 C   0  0  0  0  0  3  0  0  0  0  0  0
  186.7790  177.6900  145.7670 C   0  0  2  0  0  3  0  0  0  0  0  0
  184.4830  179.1050  145.7620 N   0  0  0  0  0  2  0  0  0  0  0  0
  186.1370  177.8360  147.4760 S   0  0  0  0  0  0  0  0  0  0  0  0
  184.7630  178.2550  144.5960 C   0  0  0  0  0  2  0  0  0  0  0  0
  184.4410  178.2910  146.9710 C   0  0  0  0  0  2  0  0  0  0  0  0
  185.7380  177.1910  144.8770 N   0  0  0  0  0  2  0  0  0  0  0  0
  191.7590  172.8100  138.6760 N   0  0  0  0  0  2  0  0  0  0  0  0
  192.5120  172.3180  137.1960 S   0  0  0  0  0  0  0  0  0  0  0  0
  191.4660  172.1300  136.1320 O   0  0  0  0  0  0  0  0  0  0  0  0
  193.2280  171.0170  137.4170 O   0  0  0  0  0  0  0  0  0  0  0  0
  193.6840  173.5470  136.6600 C   0  0  0  0  0  2  0  0  0  0  0  0
  194.7910  173.5690  137.5470 O   0  0  0  0  0  0  0  0  0  0  0  0
  194.2860  175.2570  139.0140 O   0  0  0  0  0  1  0  0  0  0  0  0
  195.1320  174.7210  138.2520 C   0  0  0  0  0  0  0  0  0  0  0  0
  196.3940  175.2900  138.1190 O   0  0  0  0  0  0  0  0  0  0  0  0
  1  3  1  0  0  0  0
  1  8  1  0  0  0  0
  4 20  2  0  0  0  0
  4  6  1  0  0  0  0
  5 10  1  0  0  0  0
  6 14  2  0  0  0  0
  7 15  1  0  0  0  0
  9 17  1  0  0  0  0
 10 18  1  0  0  0  0
 11 32  1  6  0  0  0
 11 16  1  0  0  0  0
 11  9  1  0  0  0  0
 12  1  2  0  0  0  0
 13 10  2  0  0  0  0
 13 12  1  0  0  0  0
 14 12  1  0  0  0  0
 14 24  1  0  0  0  0
 15 20  1  0  0  0  0
 15  5  2  0  0  0  0
 16  2  1  0  0  0  0
 17  2  1  6  0  0  0
 17  4  1  0  0  0  0
 18  3  2  0  0  0  0
 19  9  2  0  0  0  0
 19  7  1  0  0  0  0
 20 13  1  0  0  0  0
 21 22  2  0  0  0  0
 23 24  1  0  0  0  0
 23 21  1  0  0  0  0
 24 25  2  0  0  0  0
 25 22  1  0  0  0  0
 26 21  1  1  0  0  0
 26 28  1  0  0  0  0
 27 30  1  0  0  0  0
 29 31  1  0  0  0  0
 29 27  1  0  0  0  0
 30 28  1  0  0  0  0
 31 26  1  0  0  0  0
 33 35  2  0  0  0  0
 33 32  1  0  0  0  0
 34 33  2  0  0  0  0
 36 33  1  0  0  0  0
 36 37  1  0  0  0  0
 37 39  1  0  0  0  0
 39 38  1  0  0  0  0
 40 39  2  0  0  0  0
M  END
>  <MODEL>
6

>  <REMARK>
 VINA RESULT:      -7.0      6.463     10.666
  Name = 
  7 active torsions:
  status: ('A' for Active; 'I' for Inactive)
    1  A    between atoms: C_3  and  C_5
    2  A    between atoms: S_6  and  C_7
    3  A    between atoms: S_6  and  N_17
    4  A    between atoms: C_7  and  O_14
    5  A    between atoms: O_14  and  C_22
    6  A    between atoms: N_17  and  C_26
    7  A    between atoms: C_29  and  C_35
                            x       y       z     vdW  Elec       q    Type
                         _______ _______ _______ _____ _____    ______ ____

>  <TORSDO>
F 7

$$$$
=
 OpenBabel11042419443D

 40 46  0  0  1  0  0  0  0  0999 V2000
  196.8080  173.6810  142.8680 C   0  0  0  0  0  0  0  0  0  0  0  0
  191.3880  177.4810  142.9390 C   0  0  0  0  0  2  0  0  0  0  0  0
  197.5580  173.3500  144.0300 C   0  0  0  0  0  3  0  0  0  0  0  0
  193.3200  176.0290  143.6860 C   0  0  0  0  0  0  0  0  0  0  0  0
  195.3330  174.9420  146.5140 N   0  0  0  0  0  0  0  0  0  0  0  0
  193.6180  175.7160  142.3350 C   0  0  0  0  0  3  0  0  0  0  0  0
  193.2840  176.0650  146.8550 C   0  0  0  0  0  2  0  0  0  0  0  0
  197.4090  173.3340  141.5510 C   0  0  0  0  0  1  0  0  0  0  0  0
  191.5300  176.9200  145.2430 C   0  0  0  0  0  0  0  0  0  0  0  0
  195.9320  174.4350  145.4130 C   0  0  0  0  0  0  0  0  0  0  0  0
  190.1260  177.3480  145.0230 C   0  0  1  0  0  3  0  0  0  0  0  0
  195.5810  174.3960  143.0020 C   0  0  0  0  0  0  0  0  0  0  0  0
  195.2210  174.7280  144.2980 C   0  0  0  0  0  0  0  0  0  0  0  0
  194.7040  174.8660  141.9790 C   0  0  0  0  0  0  0  0  0  0  0  0
  194.2160  175.5670  146.0410 C   0  0  0  0  0  0  0  0  0  0  0  0
  190.1250  177.9650  143.6350 C   0  0  0  0  0  2  0  0  0  0  0  0
  192.3850  177.1540  144.0430 C   0  0  2  0  0  3  0  0  0  0  0  0
  197.1240  173.7230  145.3220 C   0  0  0  0  0  3  0  0  0  0  0  0
  191.9500  176.5630  146.4620 C   0  0  0  0  0  3  0  0  0  0  0  0
  194.1470  175.4650  144.6550 C   0  0  0  0  0  0  0  0  0  0  0  0
  195.5310  174.1610  138.2440 C   0  0  0  0  0  0  0  0  0  0  0  0
  194.7470  173.1550  138.6890 N   0  0  0  0  0  0  0  0  0  0  0  0
  195.8090  175.3090  139.4430 S   0  0  0  0  0  0  0  0  0  0  0  0
  194.8380  174.5050  140.5610 C   0  0  0  0  0  0  0  0  0  0  0  0
  194.3660  173.3310  139.9830 C   0  0  0  0  0  3  0  0  0  0  0  0
  196.1290  174.1780  136.8780 C   0  0  2  0  0  3  0  0  0  0  0  0
  197.4570  174.2240  134.5310 N   0  0  0  0  0  2  0  0  0  0  0  0
  196.3920  172.4670  136.2810 S   0  0  0  0  0  0  0  0  0  0  0  0
  197.7710  175.2730  135.5130 C   0  0  0  0  0  2  0  0  0  0  0  0
  197.7200  172.9110  135.1060 C   0  0  0  0  0  2  0  0  0  0  0  0
  197.3900  174.9110  136.8860 N   0  0  0  0  0  2  0  0  0  0  0  0
  189.2510  176.1840  145.0340 N   0  0  0  0  0  2  0  0  0  0  0  0
  188.0110  176.4630  146.2110 S   0  0  0  0  0  0  0  0  0  0  0  0
  188.2680  177.7630  146.9210 O   0  0  0  0  0  0  0  0  0  0  0  0
  188.0220  175.3440  147.2130 O   0  0  0  0  0  0  0  0  0  0  0  0
  186.4150  176.5270  145.4230 C   0  0  0  0  0  2  0  0  0  0  0  0
  185.4140  176.7920  146.3930 O   0  0  0  0  0  0  0  0  0  0  0  0
  184.0650  178.4990  145.6690 O   0  0  0  0  0  0  0  0  0  0  0  0
  184.8650  178.0640  146.5380 C   0  0  0  0  0  0  0  0  0  0  0  0
  185.1950  178.8620  147.6290 O   0  0  0  0  0  1  0  0  0  0  0  0
  1 12  2  0  0  0  0
  1  3  1  0  0  0  0
  2 16  1  0  0  0  0
  3 18  2  0  0  0  0
  4 17  1  0  0  0  0
  4 20  2  0  0  0  0
  6  4  1  0  0  0  0
  8  1  1  0  0  0  0
  9 19  2  0  0  0  0
 10  5  1  0  0  0  0
 11 32  1  6  0  0  0
 11  9  1  0  0  0  0
 12 13  1  0  0  0  0
 13 20  1  0  0  0  0
 13 10  2  0  0  0  0
 14  6  2  0  0  0  0
 14 12  1  0  0  0  0
 15  5  2  0  0  0  0
 15  7  1  0  0  0  0
 16 11  1  0  0  0  0
 17  2  1  6  0  0  0
 17  9  1  0  0  0  0
 18 10  1  0  0  0  0
 19  7  1  0  0  0  0
 20 15  1  0  0  0  0
 21 22  2  0  0  0  0
 21 23  1  0  0  0  0
 22 25  1  0  0  0  0
 23 24  1  0  0  0  0
 24 14  1  0  0  0  0
 25 24  2  0  0  0  0
 26 31  1  0  0  0  0
 26 21  1  1  0  0  0
 27 30  1  0  0  0  0
 27 29  1  0  0  0  0
 28 26  1  0  0  0  0
 29 31  1  0  0  0  0
 30 28  1  0  0  0  0
 32 33  1  0  0  0  0
 33 34  2  0  0  0  0
 33 35  2  0  0  0  0
 36 33  1  0  0  0  0
 36 37  1  0  0  0  0
 37 39  1  0  0  0  0
 38 39  2  0  0  0  0
 39 40  1  0  0  0  0
M  END
>  <MODEL>
7

>  <REMARK>
 VINA RESULT:      -7.0      5.888      8.274
  Name = 
  7 active torsions:
  status: ('A' for Active; 'I' for Inactive)
    1  A    between atoms: C_3  and  C_5
    2  A    between atoms: S_6  and  C_7
    3  A    between atoms: S_6  and  N_17
    4  A    between atoms: C_7  and  O_14
    5  A    between atoms: O_14  and  C_22
    6  A    between atoms: N_17  and  C_26
    7  A    between atoms: C_29  and  C_35
                            x       y       z     vdW  Elec       q    Type
                         _______ _______ _______ _____ _____    ______ ____

>  <TORSDO>
F 7

$$$$
=
 OpenBabel11042419443D

 40 46  0  0  1  0  0  0  0  0999 V2000
  195.8480  173.8220  142.9860 C   0  0  0  0  0  0  0  0  0  0  0  0
  190.2930  177.4220  142.9150 C   0  0  0  0  0  2  0  0  0  0  0  0
  196.6840  173.6790  144.1270 C   0  0  0  0  0  3  0  0  0  0  0  0
  192.3270  176.1500  143.7170 C   0  0  0  0  0  0  0  0  0  0  0  0
  194.5610  175.5290  146.5200 N   0  0  0  0  0  0  0  0  0  0  0  0
  192.5500  175.6620  142.4040 C   0  0  0  0  0  3  0  0  0  0  0  0
  192.4940  176.6240  146.8460 C   0  0  0  0  0  2  0  0  0  0  0  0
  196.3760  173.3140  141.6900 C   0  0  0  0  0  1  0  0  0  0  0  0
  190.6070  177.1920  145.2580 C   0  0  0  0  0  0  0  0  0  0  0  0
  195.1070  174.8930  145.4590 C   0  0  0  0  0  0  0  0  0  0  0  0
  189.1750  177.5410  145.0790 C   0  0  1  0  0  3  0  0  0  0  0  0
  194.6040  174.5100  143.1060 C   0  0  0  0  0  0  0  0  0  0  0  0
  194.3150  175.0060  144.3670 C   0  0  0  0  0  0  0  0  0  0  0  0
  193.6440  174.8050  142.0920 C   0  0  0  0  0  0  0  0  0  0  0  0
  193.3910  176.0470  146.0440 C   0  0  0  0  0  0  0  0  0  0  0  0
  189.0600  177.9590  143.6240 C   0  0  0  0  0  2  0  0  0  0  0  0
  191.3720  177.2840  143.9810 C   0  0  2  0  0  3  0  0  0  0  0  0
  196.3190  174.2140  145.3830 C   0  0  0  0  0  3  0  0  0  0  0  0
  191.1180  177.0210  146.4820 C   0  0  0  0  0  3  0  0  0  0  0  0
  193.2370  175.7520  144.6940 C   0  0  0  0  0  0  0  0  0  0  0  0
  193.3380  173.1000  138.6090 C   0  0  0  0  0  0  0  0  0  0  0  0
  193.9970  174.2670  138.4390 N   0  0  0  0  0  0  0  0  0  0  0  0
  192.9450  172.8380  140.2250 S   0  0  0  0  0  0  0  0  0  0  0  0
  193.7010  174.2560  140.7300 C   0  0  0  0  0  0  0  0  0  0  0  0
  194.1920  174.9250  139.6140 C   0  0  0  0  0  3  0  0  0  0  0  0
  192.9470  172.2180  137.4720 C   0  0  2  0  0  3  0  0  0  0  0  0
  192.0310  170.5370  135.5720 N   0  0  0  0  0  2  0  0  0  0  0  0
  191.8670  173.1290  136.3060 S   0  0  0  0  0  0  0  0  0  0  0  0
  192.2430  169.9920  136.9210 C   0  0  0  0  0  2  0  0  0  0  0  0
  191.0710  171.6320  135.6240 C   0  0  0  0  0  2  0  0  0  0  0  0
  192.2670  171.0260  137.9650 N   0  0  0  0  0  2  0  0  0  0  0  0
  188.3510  176.3620  145.3100 N   0  0  0  0  0  2  0  0  0  0  0  0
  187.2380  176.7340  146.5850 S   0  0  0  0  0  0  0  0  0  0  0  0
  187.6140  178.0430  147.2210 O   0  0  0  0  0  0  0  0  0  0  0  0
  187.2950  175.6480  147.6200 O   0  0  0  0  0  0  0  0  0  0  0  0
  185.5800  176.8450  145.9440 C   0  0  0  0  0  2  0  0  0  0  0  0
  185.6160  177.3140  144.6060 O   0  0  0  0  0  0  0  0  0  0  0  0
  185.7680  179.5990  144.5020 O   0  0  0  0  0  1  0  0  0  0  0  0
  185.1000  178.5610  144.2610 C   0  0  0  0  0  0  0  0  0  0  0  0
  183.8510  178.6720  143.6580 O   0  0  0  0  0  0  0  0  0  0  0  0
  1 12  2  0  0  0  0
  1  3  1  0  0  0  0
  2 16  1  0  0  0  0
  3 18  2  0  0  0  0
  4 17  1  0  0  0  0
  4 20  2  0  0  0  0
  6  4  1  0  0  0  0
  8  1  1  0  0  0  0
  9 19  2  0  0  0  0
 10  5  1  0  0  0  0
 11  9  1  0  0  0  0
 11 32  1  6  0  0  0
 12 13  1  0  0  0  0
 13 20  1  0  0  0  0
 13 10  2  0  0  0  0
 14  6  2  0  0  0  0
 14 12  1  0  0  0  0
 15  5  2  0  0  0  0
 15  7  1  0  0  0  0
 16 11  1  0  0  0  0
 17  2  1  6  0  0  0
 17  9  1  0  0  0  0
 18 10  1  0  0  0  0
 19  7  1  0  0  0  0
 20 15  1  0  0  0  0
 21 23  1  0  0  0  0
 22 21  2  0  0  0  0
 22 25  1  0  0  0  0
 23 24  1  0  0  0  0
 24 14  1  0  0  0  0
 25 24  2  0  0  0  0
 26 31  1  0  0  0  0
 26 21  1  1  0  0  0
 27 30  1  0  0  0  0
 27 29  1  0  0  0  0
 28 26  1  0  0  0  0
 29 31  1  0  0  0  0
 30 28  1  0  0  0  0
 32 33  1  0  0  0  0
 33 34  2  0  0  0  0
 33 35  2  0  0  0  0
 36 33  1  0  0  0  0
 37 36  1  0  0  0  0
 39 38  1  0  0  0  0
 39 37  1  0  0  0  0
 40 39  2  0  0  0  0
M  END
>  <MODEL>
8

>  <REMARK>
 VINA RESULT:      -6.8      4.537      6.848
  Name = 
  7 active torsions:
  status: ('A' for Active; 'I' for Inactive)
    1  A    between atoms: C_3  and  C_5
    2  A    between atoms: S_6  and  C_7
    3  A    between atoms: S_6  and  N_17
    4  A    between atoms: C_7  and  O_14
    5  A    between atoms: O_14  and  C_22
    6  A    between atoms: N_17  and  C_26
    7  A    between atoms: C_29  and  C_35
                            x       y       z     vdW  Elec       q    Type
                         _______ _______ _______ _____ _____    ______ ____

>  <TORSDO>
F 7

$$$$
=
 OpenBabel11042419443D

 40 46  0  0  1  0  0  0  0  0999 V2000
  192.2240  176.3940  145.6070 C   0  0  0  0  0  0  0  0  0  0  0  0
  193.2290  173.5080  139.7360 C   0  0  0  0  0  2  0  0  0  0  0  0
  193.2460  176.5970  146.5750 C   0  0  0  0  0  3  0  0  0  0  0  0
  193.6320  174.6300  141.9660 C   0  0  0  0  0  0  0  0  0  0  0  0
  196.0830  175.3730  144.5490 N   0  0  0  0  0  0  0  0  0  0  0  0
  192.2440  174.8970  142.0920 C   0  0  0  0  0  3  0  0  0  0  0  0
  196.7670  174.5890  142.4280 C   0  0  0  0  0  2  0  0  0  0  0  0
  190.8210  176.6460  146.0380 C   0  0  0  0  0  1  0  0  0  0  0  0
  195.4690  174.0300  140.3280 C   0  0  0  0  0  0  0  0  0  0  0  0
  194.8900  175.7810  145.0380 C   0  0  0  0  0  0  0  0  0  0  0  0
  195.4820  173.8330  138.8570 C   0  0  1  0  0  3  0  0  0  0  0  0
  192.5650  175.8840  144.3200 C   0  0  0  0  0  0  0  0  0  0  0  0
  193.9080  175.6100  144.1220 C   0  0  0  0  0  0  0  0  0  0  0  0
  191.7020  175.5630  143.2280 C   0  0  0  0  0  0  0  0  0  0  0  0
  195.8050  174.9350  143.2860 C   0  0  0  0  0  0  0  0  0  0  0  0
  194.1260  173.2280  138.5390 C   0  0  0  0  0  2  0  0  0  0  0  0
  194.1550  173.6680  140.9340 C   0  0  2  0  0  3  0  0  0  0  0  0
  194.5980  176.2940  146.2970 C   0  0  0  0  0  3  0  0  0  0  0  0
  196.5990  174.3120  140.9870 C   0  0  0  0  0  3  0  0  0  0  0  0
  194.4460  175.0520  143.0160 C   0  0  0  0  0  0  0  0  0  0  0  0
  188.0550  176.8340  142.7700 C   0  0  0  0  0  0  0  0  0  0  0  0
  187.9960  175.5260  143.0990 N   0  0  0  0  0  0  0  0  0  0  0  0
  189.6420  177.3920  142.7190 S   0  0  0  0  0  0  0  0  0  0  0  0
  190.2730  175.9030  143.1910 C   0  0  0  0  0  0  0  0  0  0  0  0
  189.2290  174.9940  143.3220 C   0  0  0  0  0  3  0  0  0  0  0  0
  186.8470  177.6370  142.4190 C   0  0  2  0  0  3  0  0  0  0  0  0
  184.5700  178.8630  141.6560 N   0  0  0  0  0  2  0  0  0  0  0  0
  185.6090  177.5360  143.7640 S   0  0  0  0  0  0  0  0  0  0  0  0
  185.3550  178.1760  140.6200 C   0  0  0  0  0  2  0  0  0  0  0  0
  184.1780  177.9150  142.6920 C   0  0  0  0  0  2  0  0  0  0  0  0
  186.2720  177.1650  141.1650 N   0  0  0  0  0  2  0  0  0  0  0  0
  195.6050  175.1220  138.1900 N   0  0  0  0  0  2  0  0  0  0  0  0
  196.4290  174.8660  136.6880 S   0  0  0  0  0  0  0  0  0  0  0  0
  195.4530  174.3870  135.6490 O   0  0  0  0  0  0  0  0  0  0  0  0
  197.4920  173.8240  136.8810 O   0  0  0  0  0  0  0  0  0  0  0  0
  197.1860  176.3790  136.1330 C   0  0  0  0  0  2  0  0  0  0  0  0
  196.6340  176.7580  134.8820 O   0  0  0  0  0  0  0  0  0  0  0  0
  194.4630  177.4910  134.9440 O   0  0  0  0  0  1  0  0  0  0  0  0
  195.6800  177.7680  134.7870 C   0  0  0  0  0  0  0  0  0  0  0  0
  196.0570  179.0800  134.5140 O   0  0  0  0  0  0  0  0  0  0  0  0
  1  8  1  0  0  0  0
  1  3  1  0  0  0  0
  4  6  1  0  0  0  0
  4 20  2  0  0  0  0
  5 10  1  0  0  0  0
  6 14  2  0  0  0  0
  7 15  1  0  0  0  0
  9 17  1  0  0  0  0
  9 19  2  0  0  0  0
 10 18  1  0  0  0  0
 11 32  1  6  0  0  0
 11  9  1  0  0  0  0
 12  1  2  0  0  0  0
 13 12  1  0  0  0  0
 13 10  2  0  0  0  0
 14 12  1  0  0  0  0
 15  5  2  0  0  0  0
 16 11  1  0  0  0  0
 16  2  1  0  0  0  0
 17  2  1  6  0  0  0
 17  4  1  0  0  0  0
 18  3  2  0  0  0  0
 19  7  1  0  0  0  0
 20 15  1  0  0  0  0
 20 13  1  0  0  0  0
 21 22  2  0  0  0  0
 22 25  1  0  0  0  0
 23 21  1  0  0  0  0
 23 24  1  0  0  0  0
 24 14  1  0  0  0  0
 24 25  2  0  0  0  0
 26 21  1  1  0  0  0
 26 28  1  0  0  0  0
 27 30  1  0  0  0  0
 29 31  1  0  0  0  0
 29 27  1  0  0  0  0
 30 28  1  0  0  0  0
 31 26  1  0  0  0  0
 33 35  2  0  0  0  0
 33 32  1  0  0  0  0
 34 33  2  0  0  0  0
 36 33  1  0  0  0  0
 37 36  1  0  0  0  0
 39 37  1  0  0  0  0
 39 38  1  0  0  0  0
 40 39  2  0  0  0  0
M  END
>  <MODEL>
9

>  <REMARK>
 VINA RESULT:      -6.7      7.563     11.120
  Name = 
  7 active torsions:
  status: ('A' for Active; 'I' for Inactive)
    1  A    between atoms: C_3  and  C_5
    2  A    between atoms: S_6  and  C_7
    3  A    between atoms: S_6  and  N_17
    4  A    between atoms: C_7  and  O_14
    5  A    between atoms: O_14  and  C_22
    6  A    between atoms: N_17  and  C_26
    7  A    between atoms: C_29  and  C_35
                            x       y       z     vdW  Elec       q    Type
                         _______ _______ _______ _____ _____    ______ ____

>  <TORSDO>
F 7

$$$$
