=
 OpenBabel11042415523D

 50 57  0  0  1  0  0  0  0  0999 V2000
  191.8330  168.4550  137.6360 N   0  0  0  0  0  1  0  0  0  0  0  0
  193.2990  173.8940  145.5480 C   0  0  1  0  0  3  0  0  0  0  0  0
  191.5650  174.1970  143.8200 N   0  0  0  0  0  0  0  0  0  0  0  0
  193.0560  175.4060  145.6750 C   0  0  1  0  0  3  0  0  0  0  0  0
  191.6760  175.6700  145.6900 O   0  0  0  0  0  0  0  0  0  0  0  0
  191.4810  172.7430  141.7850 C   0  0  0  0  0  0  0  0  0  0  0  0
  195.2270  174.1090  143.7430 C   0  0  2  0  0  3  0  0  0  0  0  0
  191.2060  175.5180  144.3670 C   0  0  2  0  0  3  0  0  0  0  0  0
  194.2590  173.9240  142.5850 C   0  0  0  0  0  2  0  0  0  0  0  0
  192.2140  173.2230  144.7000 C   0  0  0  0  0  2  0  0  0  0  0  0
  189.4920  172.6870  140.4440 N   0  0  0  0  0  0  0  0  0  0  0  0
  190.9490  173.7630  142.5950 C   0  0  0  0  0  0  0  0  0  0  0  0
  193.8690  170.2370  140.3340 C   0  0  0  0  0  3  0  0  0  0  0  0
  194.6770  173.5660  145.0390 C   0  0  0  0  0  0  0  0  0  0  0  0
  194.0150  172.5110  142.3410 N   0  0  0  0  0  2  0  0  0  0  0  0
  190.7120  172.2000  140.7780 C   0  0  0  0  0  0  0  0  0  0  0  0
  189.1380  175.5040  142.9260 C   0  0  0  0  0  2  0  0  0  0  0  0
  192.1700  169.3640  138.6770 C   0  0  0  0  0  0  0  0  0  0  0  0
  195.3820  172.8270  145.7060 O   0  0  0  0  0  0  0  0  0  0  0  0
  193.3930  169.2990  139.2390 C   0  0  0  0  0  3  0  0  0  0  0  0
  192.7900  172.0470  141.7680 C   0  0  0  0  0  0  0  0  0  0  0  0
  188.9840  173.7440  141.1440 C   0  0  0  0  0  3  0  0  0  0  0  0
  191.4590  171.1270  140.1640 C   0  0  1  0  0  3  0  0  0  0  0  0
  191.1610  170.3490  139.1300 C   0  0  0  0  0  3  0  0  0  0  0  0
  192.7400  171.0800  140.8480 C   0  0  0  0  0  0  0  0  0  0  0  0
  189.6830  175.6720  144.3450 C   0  0  2  0  0  3  0  0  0  0  0  0
  189.6930  174.2980  142.2280 C   0  0  0  0  0  0  0  0  0  0  0  0
  193.7120  175.9680  146.9290 C   0  0  0  0  0  2  0  0  0  0  0  0
  194.3350  177.1870  146.6550 O   0  0  0  0  0  1  0  0  0  0  0  0
  195.5380  175.4680  143.8780 O   0  0  0  0  0  0  0  0  0  0  0  0
  197.6930  174.8830  143.5910 C   0  0  0  0  0  1  0  0  0  0  0  0
  196.5980  175.6740  143.0580 N   0  0  0  0  0  0  0  0  0  0  0  0
  196.9840  177.0680  143.2030 C   0  0  0  0  0  1  0  0  0  0  0  0
  189.2740  177.0380  144.8800 C   0  0  0  0  0  2  0  0  0  0  0  0
  186.8430  177.4730  144.9840 C   0  0  2  0  0  3  0  0  0  0  0  0
  186.9070  178.0900  147.2320 O   0  0  0  0  0  0  0  0  0  0  0  0
  188.1490  177.7870  146.8620 O   0  0  0  0  0  0  0  0  0  0  0  0
  186.3610  179.6840  145.6980 O   0  0  0  0  0  1  0  0  0  0  0  0
  188.0260  176.9440  145.7490 C   0  0  2  0  0  0  0  0  0  0  0  0
  186.1920  178.3420  146.0480 C   0  0  1  0  0  0  0  0  0  0  0  0
  187.8290  175.6370  146.1800 F   0  0  0  0  0  0  0  0  0  0  0  0
  184.7270  178.0660  146.2800 C   0  0  0  0  0  0  0  0  0  0  0  0
  184.3730  177.1110  147.0220 O   0  0  0  0  0  0  0  0  0  0  0  0
  183.7340  178.8450  145.6210 N   0  0  0  0  0  1  0  0  0  0  0  0
  185.9860  176.3580  144.3660 C   0  0  0  0  0  2  0  0  0  0  0  0
  185.7970  176.5770  142.8730 C   0  0  0  0  0  2  0  0  0  0  0  0
  186.0080  178.0400  142.5230 C   0  0  0  0  0  2  0  0  0  0  0  0
  186.9020  176.8000  140.5860 C   0  0  0  0  0  2  0  0  0  0  0  0
  186.8800  178.1420  141.2900 C   0  0  0  0  0  3  0  0  0  0  0  0
  186.0260  177.9160  140.0590 C   0  0  0  0  0  2  0  0  0  0  0  0
  1 18  1  0  0  0  0
  2 10  1  6  0  0  0
  2  4  1  0  0  0  0
  3  8  1  0  0  0  0
  3 10  1  0  0  0  0
  4  5  1  0  0  0  0
  4 28  1  1  0  0  0
  6 12  2  0  0  0  0
  7 30  1  1  0  0  0
  7 14  1  0  0  0  0
  8  5  1  1  0  0  0
  9  7  1  0  0  0  0
 11 16  2  0  0  0  0
 11 22  1  0  0  0  0
 12  3  1  0  0  0  0
 13 25  1  0  0  0  0
 14  2  1  0  0  0  0
 14 19  2  0  0  0  0
 15  9  1  0  0  0  0
 16  6  1  0  0  0  0
 17 26  1  0  0  0  0
 18 24  2  0  0  0  0
 18 20  1  0  0  0  0
 20 13  2  0  0  0  0
 21  6  1  0  0  0  0
 21 15  1  0  0  0  0
 22 27  2  0  0  0  0
 23 24  1  6  0  0  0
 23 16  1  0  0  0  0
 23 25  1  0  0  0  0
 25 21  2  0  0  0  0
 26  8  1  0  0  0  0
 26 34  1  6  0  0  0
 27 12  1  0  0  0  0
 27 17  1  0  0  0  0
 29 28  1  0  0  0  0
 32 33  1  0  0  0  0
 32 31  1  0  0  0  0
 32 30  1  0  0  0  0
 34 39  1  0  0  0  0
 35 45  1  1  0  0  0
 35 39  1  0  0  0  0
 35 40  1  0  0  0  0
 37 36  1  0  0  0  0
 39 41  1  1  0  0  0
 39 37  1  0  0  0  0
 40 38  1  6  0  0  0
 40 42  1  0  0  0  0
 40 36  1  0  0  0  0
 42 43  2  0  0  0  0
 44 42  1  0  0  0  0
 46 45  1  0  0  0  0
 47 46  1  0  0  0  0
 48 49  1  0  0  0  0
 49 47  1  0  0  0  0
 50 48  1  0  0  0  0
 50 49  1  0  0  0  0
M  END
>  <MODEL>
1

>  <REMARK>
 VINA RESULT:      -7.7      0.000      0.000
  Name = 
  10 active torsions:
  status: ('A' for Active; 'I' for Inactive)
    1  A    between atoms: C_4  and  C_19
    2  A    between atoms: O_7  and  C_8
    3  A    between atoms: O_7  and  N_41
    4  A    between atoms: C_9  and  C_14
    5  A    between atoms: C_12  and  C_38
    6  A    between atoms: C_12  and  C_47
    7  A    between atoms: C_13  and  C_27
    8  A    between atoms: C_13  and  C_50
    9  A    between atoms: C_14  and  C_50
   10  A    between atoms: C_15  and  C_43
                            x       y       z     vdW  Elec       q    Type
                         _______ _______ _______ _____ _____    ______ ____

>  <TORSDO>
F 10

$$$$
=
 OpenBabel11042415523D

 50 57  0  0  1  0  0  0  0  0999 V2000
  191.3580  169.1240  135.2680 N   0  0  0  0  0  1  0  0  0  0  0  0
  192.7370  173.6100  143.7710 C   0  0  1  0  0  3  0  0  0  0  0  0
  190.9910  174.0800  142.0930 N   0  0  0  0  0  0  0  0  0  0  0  0
  192.4630  175.0900  144.0780 C   0  0  1  0  0  3  0  0  0  0  0  0
  191.0780  175.3210  144.1260 O   0  0  0  0  0  0  0  0  0  0  0  0
  190.9310  172.8780  139.9000 C   0  0  0  0  0  0  0  0  0  0  0  0
  194.6540  174.0800  142.0030 C   0  0  2  0  0  3  0  0  0  0  0  0
  190.6060  175.3180  142.7940 C   0  0  2  0  0  3  0  0  0  0  0  0
  193.6870  174.0140  140.8320 C   0  0  0  0  0  2  0  0  0  0  0  0
  191.6640  173.0220  142.8500 C   0  0  0  0  0  2  0  0  0  0  0  0
  188.9390  172.9400  138.5640 N   0  0  0  0  0  0  0  0  0  0  0  0
  190.3800  173.7820  140.8260 C   0  0  0  0  0  0  0  0  0  0  0  0
  193.3660  170.6150  138.1570 C   0  0  0  0  0  3  0  0  0  0  0  0
  194.1210  173.3750  143.2250 C   0  0  0  0  0  0  0  0  0  0  0  0
  193.4710  172.6360  140.4220 N   0  0  0  0  0  2  0  0  0  0  0  0
  190.1700  172.4430  138.8360 C   0  0  0  0  0  0  0  0  0  0  0  0
  188.5340  175.4320  141.3650 C   0  0  0  0  0  2  0  0  0  0  0  0
  191.6800  169.9090  136.4090 C   0  0  0  0  0  0  0  0  0  0  0  0
  194.8440  172.5760  143.7980 O   0  0  0  0  0  0  0  0  0  0  0  0
  192.9060  169.8040  136.9580 C   0  0  0  0  0  3  0  0  0  0  0  0
  192.2540  172.2170  139.7980 C   0  0  0  0  0  0  0  0  0  0  0  0
  188.4100  173.8940  139.3850 C   0  0  0  0  0  3  0  0  0  0  0  0
  190.9370  171.4660  138.0980 C   0  0  1  0  0  3  0  0  0  0  0  0
  190.6520  170.8120  136.9780 C   0  0  0  0  0  3  0  0  0  0  0  0
  192.2220  171.3650  138.7700 C   0  0  0  0  0  0  0  0  0  0  0  0
  189.0800  175.4410  142.7940 C   0  0  2  0  0  3  0  0  0  0  0  0
  189.1110  174.3300  140.5270 C   0  0  0  0  0  0  0  0  0  0  0  0
  193.1120  175.5120  145.3900 C   0  0  0  0  0  2  0  0  0  0  0  0
  193.1380  174.4450  146.2910 O   0  0  0  0  0  1  0  0  0  0  0  0
  194.9360  175.4200  142.2990 O   0  0  0  0  0  0  0  0  0  0  0  0
  196.4950  176.7850  143.1790 C   0  0  0  0  0  1  0  0  0  0  0  0
  196.1970  175.4160  142.7990 N   0  0  0  0  0  0  0  0  0  0  0  0
  197.0900  175.0850  141.7010 C   0  0  0  0  0  1  0  0  0  0  0  0
  188.6450  176.7240  143.4880 C   0  0  0  0  0  2  0  0  0  0  0  0
  187.3690  177.7250  145.3540 C   0  0  2  0  0  3  0  0  0  0  0  0
  187.9540  176.0330  146.8470 O   0  0  0  0  0  0  0  0  0  0  0  0
  188.5340  175.7590  145.6810 O   0  0  0  0  0  0  0  0  0  0  0  0
  188.7350  178.1360  147.2500 O   0  0  0  0  0  1  0  0  0  0  0  0
  187.7810  176.4300  144.7080 C   0  0  2  0  0  0  0  0  0  0  0  0
  187.6290  177.4000  146.8160 C   0  0  1  0  0  0  0  0  0  0  0  0
  186.6860  175.6510  144.3540 F   0  0  0  0  0  0  0  0  0  0  0  0
  186.4640  177.6590  147.7370 C   0  0  0  0  0  0  0  0  0  0  0  0
  185.7250  176.7070  148.1070 O   0  0  0  0  0  0  0  0  0  0  0  0
  186.1540  178.9860  148.1530 N   0  0  0  0  0  1  0  0  0  0  0  0
  185.9460  178.1560  144.9710 C   0  0  0  0  0  2  0  0  0  0  0  0
  185.9510  179.5110  144.2820 C   0  0  0  0  0  2  0  0  0  0  0  0
  185.9750  179.3370  142.7740 C   0  0  0  0  0  2  0  0  0  0  0  0
  184.5180  178.2960  141.0760 C   0  0  0  0  0  2  0  0  0  0  0  0
  185.2220  178.0780  142.4000 C   0  0  0  0  0  3  0  0  0  0  0  0
  185.8100  177.5080  141.1250 C   0  0  0  0  0  2  0  0  0  0  0  0
  1 18  1  0  0  0  0
  2 10  1  6  0  0  0
  2  4  1  0  0  0  0
  3  8  1  0  0  0  0
  3 10  1  0  0  0  0
  4  5  1  0  0  0  0
  4 28  1  1  0  0  0
  6 12  2  0  0  0  0
  7 30  1  1  0  0  0
  7 14  1  0  0  0  0
  8  5  1  1  0  0  0
  9  7  1  0  0  0  0
 11 16  2  0  0  0  0
 11 22  1  0  0  0  0
 12  3  1  0  0  0  0
 13 25  1  0  0  0  0
 14  2  1  0  0  0  0
 14 19  2  0  0  0  0
 15  9  1  0  0  0  0
 16  6  1  0  0  0  0
 17 26  1  0  0  0  0
 18 20  1  0  0  0  0
 18 24  2  0  0  0  0
 20 13  2  0  0  0  0
 21  6  1  0  0  0  0
 21 15  1  0  0  0  0
 22 27  2  0  0  0  0
 23 24  1  6  0  0  0
 23 25  1  0  0  0  0
 23 16  1  0  0  0  0
 25 21  2  0  0  0  0
 26  8  1  0  0  0  0
 26 34  1  6  0  0  0
 27 12  1  0  0  0  0
 27 17  1  0  0  0  0
 28 29  1  0  0  0  0
 30 32  1  0  0  0  0
 32 31  1  0  0  0  0
 33 32  1  0  0  0  0
 34 39  1  0  0  0  0
 35 45  1  1  0  0  0
 35 40  1  0  0  0  0
 37 36  1  0  0  0  0
 39 41  1  6  0  0  0
 39 35  1  0  0  0  0
 39 37  1  0  0  0  0
 40 36  1  0  0  0  0
 40 38  1  1  0  0  0
 40 42  1  0  0  0  0
 42 43  2  0  0  0  0
 42 44  1  0  0  0  0
 46 45  1  0  0  0  0
 47 46  1  0  0  0  0
 48 50  1  0  0  0  0
 48 49  1  0  0  0  0
 49 47  1  0  0  0  0
 50 49  1  0  0  0  0
M  END
>  <MODEL>
2

>  <REMARK>
 VINA RESULT:      -7.4      1.683      2.087
  Name = 
  10 active torsions:
  status: ('A' for Active; 'I' for Inactive)
    1  A    between atoms: C_4  and  C_19
    2  A    between atoms: O_7  and  C_8
    3  A    between atoms: O_7  and  N_41
    4  A    between atoms: C_9  and  C_14
    5  A    between atoms: C_12  and  C_38
    6  A    between atoms: C_12  and  C_47
    7  A    between atoms: C_13  and  C_27
    8  A    between atoms: C_13  and  C_50
    9  A    between atoms: C_14  and  C_50
   10  A    between atoms: C_15  and  C_43
                            x       y       z     vdW  Elec       q    Type
                         _______ _______ _______ _____ _____    ______ ____

>  <TORSDO>
F 10

$$$$
=
 OpenBabel11042415523D

 50 57  0  0  1  0  0  0  0  0999 V2000
  185.3370  179.1990  147.8500 N   0  0  0  0  0  1  0  0  0  0  0  0
  190.2740  172.3610  143.0350 C   0  0  1  0  0  3  0  0  0  0  0  0
  191.1910  174.1250  144.4950 N   0  0  0  0  0  0  0  0  0  0  0  0
  191.6800  172.5040  142.4310 C   0  0  1  0  0  3  0  0  0  0  0  0
  192.6400  172.5430  143.4570 O   0  0  0  0  0  0  0  0  0  0  0  0
  189.7190  175.8720  145.5140 C   0  0  0  0  0  0  0  0  0  0  0  0
  189.1480  174.1650  141.4540 C   0  0  2  0  0  3  0  0  0  0  0  0
  192.5640  173.8210  144.0530 C   0  0  2  0  0  3  0  0  0  0  0  0
  189.3360  175.2780  142.4730 C   0  0  0  0  0  2  0  0  0  0  0  0
  190.1680  173.0840  144.3810 C   0  0  0  0  0  2  0  0  0  0  0  0
  190.5330  177.1930  147.3450 N   0  0  0  0  0  0  0  0  0  0  0  0
  190.9740  175.2580  145.3540 C   0  0  0  0  0  0  0  0  0  0  0  0
  186.1390  176.8470  144.9480 C   0  0  0  0  0  2  0  0  0  0  0  0
  189.1870  172.7970  142.0880 C   0  0  0  0  0  0  0  0  0  0  0  0
  188.2550  175.2700  143.4460 N   0  0  0  0  0  2  0  0  0  0  0  0
  189.5260  176.7720  146.5410 C   0  0  0  0  0  0  0  0  0  0  0  0
  193.4400  175.2480  145.9370 C   0  0  0  0  0  2  0  0  0  0  0  0
  186.0700  178.3330  146.9930 C   0  0  0  0  0  0  0  0  0  0  0  0
  188.2970  172.0060  141.8230 O   0  0  0  0  0  0  0  0  0  0  0  0
  185.4470  177.7620  145.9430 C   0  0  0  0  0  3  0  0  0  0  0  0
  188.4380  175.7600  144.7770 C   0  0  0  0  0  0  0  0  0  0  0  0
  191.7890  176.6940  147.1550 C   0  0  0  0  0  3  0  0  0  0  0  0
  188.1410  177.1830  146.5310 C   0  0  0  0  0  0  0  0  0  0  0  0
  187.4970  178.0660  147.2850 C   0  0  0  0  0  3  0  0  0  0  0  0
  187.5200  176.4950  145.4120 C   0  0  0  0  0  0  0  0  0  0  0  0
  193.5030  173.8780  145.2600 C   0  0  2  0  0  3  0  0  0  0  0  0
  192.0350  175.7200  146.1660 C   0  0  0  0  0  0  0  0  0  0  0  0
  191.9860  171.3640  141.4680 C   0  0  0  0  0  2  0  0  0  0  0  0
  191.7130  170.1310  142.0640 O   0  0  0  0  0  1  0  0  0  0  0  0
  190.1320  174.2690  140.4630 O   0  0  0  0  0  0  0  0  0  0  0  0
  190.7730  173.4380  138.4710 C   0  0  0  0  0  1  0  0  0  0  0  0
  189.6970  173.4850  139.4450 N   0  0  0  0  0  0  0  0  0  0  0  0
  188.5930  174.1850  138.8100 C   0  0  0  0  0  1  0  0  0  0  0  0
  194.9380  173.5940  144.8380 C   0  0  0  0  0  2  0  0  0  0  0  0
  195.9750  171.3920  144.4050 C   0  0  2  0  0  3  0  0  0  0  0  0
  194.7870  170.3390  146.1120 O   0  0  0  0  0  0  0  0  0  0  0  0
  194.4150  171.6170  146.0910 O   0  0  0  0  0  0  0  0  0  0  0  0
  194.3570  169.7140  143.9630 O   0  0  0  0  0  1  0  0  0  0  0  0
  195.4640  172.3150  145.4770 C   0  0  2  0  0  0  0  0  0  0  0  0
  195.3670  170.0750  144.8580 C   0  0  1  0  0  0  0  0  0  0  0  0
  196.4380  172.6080  146.4240 F   0  0  0  0  0  0  0  0  0  0  0  0
  196.3490  168.9380  144.9900 C   0  0  0  0  0  0  0  0  0  0  0  0
  196.8890  168.6940  146.1020 O   0  0  0  0  0  0  0  0  0  0  0  0
  196.7140  168.1660  143.8510 N   0  0  0  0  0  1  0  0  0  0  0  0
  197.5030  171.4460  144.2510 C   0  0  0  0  0  2  0  0  0  0  0  0
  197.8990  171.6900  142.8040 C   0  0  0  0  0  2  0  0  0  0  0  0
  196.6890  172.1100  141.9880 C   0  0  0  0  0  2  0  0  0  0  0  0
  196.4960  173.7090  140.1190 C   0  0  0  0  0  2  0  0  0  0  0  0
  196.8300  173.5640  141.5900 C   0  0  0  0  0  3  0  0  0  0  0  0
  195.4750  174.0960  141.1670 C   0  0  0  0  0  2  0  0  0  0  0  0
  2 10  1  1  0  0  0
  3 12  1  0  0  0  0
  4 28  1  6  0  0  0
  4  2  1  0  0  0  0
  4  5  1  0  0  0  0
  6 16  1  0  0  0  0
  7 30  1  6  0  0  0
  7 14  1  0  0  0  0
  7  9  1  0  0  0  0
  8  5  1  1  0  0  0
  8  3  1  0  0  0  0
  8 26  1  0  0  0  0
  9 15  1  0  0  0  0
 10  3  1  0  0  0  0
 12  6  2  0  0  0  0
 12 27  1  0  0  0  0
 13 25  1  0  0  0  0
 13 20  1  0  0  0  0
 14  2  1  0  0  0  0
 15 21  1  0  0  0  0
 16 11  2  0  0  0  0
 17 27  1  0  0  0  0
 18 24  1  0  0  0  0
 18  1  1  0  0  0  0
 19 14  2  0  0  0  0
 20 18  2  0  0  0  0
 21 25  2  0  0  0  0
 21  6  1  0  0  0  0
 22 11  1  0  0  0  0
 23 16  1  0  0  0  0
 23 24  2  0  0  0  0
 25 23  1  0  0  0  0
 26 34  1  6  0  0  0
 26 17  1  0  0  0  0
 27 22  2  0  0  0  0
 28 29  1  0  0  0  0
 31 32  1  0  0  0  0
 32 30  1  0  0  0  0
 33 32  1  0  0  0  0
 34 39  1  0  0  0  0
 35 45  1  1  0  0  0
 35 40  1  0  0  0  0
 35 39  1  0  0  0  0
 37 36  1  0  0  0  0
 39 37  1  0  0  0  0
 39 41  1  1  0  0  0
 40 38  1  6  0  0  0
 40 42  1  0  0  0  0
 40 36  1  0  0  0  0
 42 43  2  0  0  0  0
 44 42  1  0  0  0  0
 46 45  1  0  0  0  0
 47 46  1  0  0  0  0
 48 50  1  0  0  0  0
 48 49  1  0  0  0  0
 49 47  1  0  0  0  0
 50 49  1  0  0  0  0
M  END
>  <MODEL>
3

>  <REMARK>
 VINA RESULT:      -7.3      3.615      9.446
  Name = 
  10 active torsions:
  status: ('A' for Active; 'I' for Inactive)
    1  A    between atoms: C_4  and  C_19
    2  A    between atoms: O_7  and  C_8
    3  A    between atoms: O_7  and  N_41
    4  A    between atoms: C_9  and  C_14
    5  A    between atoms: C_12  and  C_38
    6  A    between atoms: C_12  and  C_47
    7  A    between atoms: C_13  and  C_27
    8  A    between atoms: C_13  and  C_50
    9  A    between atoms: C_14  and  C_50
   10  A    between atoms: C_15  and  C_43
                            x       y       z     vdW  Elec       q    Type
                         _______ _______ _______ _____ _____    ______ ____

>  <TORSDO>
F 10

$$$$
=
 OpenBabel11042415523D

 50 57  0  0  1  0  0  0  0  0999 V2000
  184.3430  179.6460  145.4830 N   0  0  0  0  0  1  0  0  0  0  0  0
  189.3720  172.3460  141.5150 C   0  0  1  0  0  3  0  0  0  0  0  0
  190.2070  174.0750  143.0630 N   0  0  0  0  0  0  0  0  0  0  0  0
  190.8550  172.3700  141.1140 C   0  0  1  0  0  3  0  0  0  0  0  0
  191.6630  172.3660  142.2640 O   0  0  0  0  0  0  0  0  0  0  0  0
  188.7440  175.9500  143.8380 C   0  0  0  0  0  0  0  0  0  0  0  0
  188.6170  174.1850  139.7640 C   0  0  2  0  0  3  0  0  0  0  0  0
  191.6020  173.6610  142.8230 C   0  0  2  0  0  3  0  0  0  0  0  0
  188.7440  175.3070  140.7820 C   0  0  0  0  0  2  0  0  0  0  0  0
  189.1340  173.1080  142.8220 C   0  0  0  0  0  2  0  0  0  0  0  0
  189.3920  177.2550  145.7450 N   0  0  0  0  0  0  0  0  0  0  0  0
  189.9590  175.2420  143.8650 C   0  0  0  0  0  0  0  0  0  0  0  0
  185.3610  177.1670  142.7590 C   0  0  0  0  0  2  0  0  0  0  0  0
  188.4640  172.8350  140.4190 C   0  0  0  0  0  0  0  0  0  0  0  0
  187.5410  175.4030  141.5940 N   0  0  0  0  0  2  0  0  0  0  0  0
  188.4780  176.8880  144.8130 C   0  0  0  0  0  0  0  0  0  0  0  0
  192.3120  175.0680  144.7900 C   0  0  0  0  0  2  0  0  0  0  0  0
  185.1210  178.7070  144.7500 C   0  0  0  0  0  0  0  0  0  0  0  0
  187.5610  172.1040  140.0420 O   0  0  0  0  0  0  0  0  0  0  0  0
  184.6090  178.1560  143.6320 C   0  0  0  0  0  3  0  0  0  0  0  0
  187.5730  175.9120  142.9300 C   0  0  0  0  0  0  0  0  0  0  0  0
  190.6210  176.6610  145.7410 C   0  0  0  0  0  3  0  0  0  0  0  0
  187.1430  177.3980  144.6030 C   0  0  0  0  0  0  0  0  0  0  0  0
  186.4690  178.3450  145.2450 C   0  0  0  0  0  3  0  0  0  0  0  0
  186.6340  176.7280  143.4180 C   0  0  0  0  0  0  0  0  0  0  0  0
  192.3650  173.6800  144.1500 C   0  0  2  0  0  3  0  0  0  0  0  0
  190.9280  175.6470  144.8120 C   0  0  0  0  0  0  0  0  0  0  0  0
  191.2050  171.1870  140.2210 C   0  0  0  0  0  2  0  0  0  0  0  0
  191.9600  171.6060  139.1230 O   0  0  0  0  0  1  0  0  0  0  0  0
  189.7340  174.1930  138.9200 O   0  0  0  0  0  0  0  0  0  0  0  0
  190.4070  173.7670  136.8140 C   0  0  0  0  0  1  0  0  0  0  0  0
  189.2950  173.6780  137.7440 N   0  0  0  0  0  0  0  0  0  0  0  0
  188.2640  174.5730  137.2460 C   0  0  0  0  0  1  0  0  0  0  0  0
  193.8190  173.2830  143.9380 C   0  0  0  0  0  2  0  0  0  0  0  0
  195.7320  171.9810  144.8100 C   0  0  2  0  0  3  0  0  0  0  0  0
  194.4810  170.0270  145.0350 O   0  0  0  0  0  0  0  0  0  0  0  0
  193.6750  170.9670  144.5480 O   0  0  0  0  0  0  0  0  0  0  0  0
  196.1680  170.0500  143.5040 O   0  0  0  0  0  1  0  0  0  0  0  0
  194.2460  172.1930  144.9150 C   0  0  2  0  0  0  0  0  0  0  0  0
  195.7940  170.4620  144.7840 C   0  0  1  0  0  0  0  0  0  0  0  0
  193.8530  172.5170  146.2080 F   0  0  0  0  0  0  0  0  0  0  0  0
  196.7260  169.8520  145.8000 C   0  0  0  0  0  0  0  0  0  0  0  0
  197.9410  169.6730  145.5170 O   0  0  0  0  0  0  0  0  0  0  0  0
  196.2330  169.4230  147.0650 N   0  0  0  0  0  1  0  0  0  0  0  0
  196.5160  172.6990  145.9190 C   0  0  0  0  0  2  0  0  0  0  0  0
  197.5980  173.5920  145.3350 C   0  0  0  0  0  2  0  0  0  0  0  0
  197.3130  173.8780  143.8710 C   0  0  0  0  0  2  0  0  0  0  0  0
  196.9760  175.7000  142.2410 C   0  0  0  0  0  2  0  0  0  0  0  0
  197.5820  175.3400  143.5820 C   0  0  0  0  0  3  0  0  0  0  0  0
  196.2640  176.0840  143.5200 C   0  0  0  0  0  2  0  0  0  0  0  0
  2 10  1  1  0  0  0
  3 12  1  0  0  0  0
  4 28  1  6  0  0  0
  4  2  1  0  0  0  0
  4  5  1  0  0  0  0
  6 12  2  0  0  0  0
  6 16  1  0  0  0  0
  7 30  1  1  0  0  0
  7 14  1  0  0  0  0
  7  9  1  0  0  0  0
  8  5  1  1  0  0  0
  8  3  1  0  0  0  0
  8 26  1  0  0  0  0
  9 15  1  0  0  0  0
 10  3  1  0  0  0  0
 12 27  1  0  0  0  0
 13 25  1  0  0  0  0
 13 20  1  0  0  0  0
 14  2  1  0  0  0  0
 15 21  1  0  0  0  0
 16 11  2  0  0  0  0
 17 27  1  0  0  0  0
 18 24  1  0  0  0  0
 18  1  1  0  0  0  0
 19 14  2  0  0  0  0
 20 18  2  0  0  0  0
 21 25  2  0  0  0  0
 21  6  1  0  0  0  0
 22 11  1  0  0  0  0
 23 16  1  0  0  0  0
 23 24  2  0  0  0  0
 25 23  1  0  0  0  0
 26 34  1  6  0  0  0
 26 17  1  0  0  0  0
 27 22  2  0  0  0  0
 29 28  1  0  0  0  0
 31 32  1  0  0  0  0
 32 30  1  0  0  0  0
 33 32  1  0  0  0  0
 34 39  1  0  0  0  0
 35 39  1  0  0  0  0
 35 45  1  1  0  0  0
 37 39  1  0  0  0  0
 37 36  1  0  0  0  0
 39 41  1  1  0  0  0
 40 38  1  6  0  0  0
 40 35  1  0  0  0  0
 40 36  1  0  0  0  0
 40 42  1  0  0  0  0
 42 44  1  0  0  0  0
 43 42  2  0  0  0  0
 46 45  1  0  0  0  0
 47 46  1  0  0  0  0
 48 50  1  0  0  0  0
 48 49  1  0  0  0  0
 49 47  1  0  0  0  0
 50 49  1  0  0  0  0
M  END
>  <MODEL>
4

>  <REMARK>
 VINA RESULT:      -7.2      3.618      9.447
  Name = 
  10 active torsions:
  status: ('A' for Active; 'I' for Inactive)
    1  A    between atoms: C_4  and  C_19
    2  A    between atoms: O_7  and  C_8
    3  A    between atoms: O_7  and  N_41
    4  A    between atoms: C_9  and  C_14
    5  A    between atoms: C_12  and  C_38
    6  A    between atoms: C_12  and  C_47
    7  A    between atoms: C_13  and  C_27
    8  A    between atoms: C_13  and  C_50
    9  A    between atoms: C_14  and  C_50
   10  A    between atoms: C_15  and  C_43
                            x       y       z     vdW  Elec       q    Type
                         _______ _______ _______ _____ _____    ______ ____

>  <TORSDO>
F 10

$$$$
=
 OpenBabel11042415523D

 50 57  0  0  1  0  0  0  0  0999 V2000
  185.5240  179.4610  147.6870 N   0  0  0  0  0  1  0  0  0  0  0  0
  189.4210  172.2060  142.5380 C   0  0  1  0  0  3  0  0  0  0  0  0
  190.5610  173.6770  144.1580 N   0  0  0  0  0  0  0  0  0  0  0  0
  190.8570  172.1400  141.9950 C   0  0  1  0  0  3  0  0  0  0  0  0
  191.7600  171.9390  143.0530 O   0  0  0  0  0  0  0  0  0  0  0  0
  189.3670  175.5820  145.2560 C   0  0  0  0  0  0  0  0  0  0  0  0
  188.6990  174.2840  141.0610 C   0  0  2  0  0  3  0  0  0  0  0  0
  191.8790  173.1670  143.7400 C   0  0  2  0  0  3  0  0  0  0  0  0
  189.0280  175.2740  142.1660 C   0  0  0  0  0  2  0  0  0  0  0  0
  189.3790  172.8420  143.9300 C   0  0  0  0  0  2  0  0  0  0  0  0
  190.3120  176.6110  147.2070 N   0  0  0  0  0  0  0  0  0  0  0  0
  190.5030  174.7690  145.0910 C   0  0  0  0  0  0  0  0  0  0  0  0
  186.0400  177.2080  144.6440 C   0  0  0  0  0  2  0  0  0  0  0  0
  188.4710  172.8900  141.5910 C   0  0  0  0  0  0  0  0  0  0  0  0
  187.9190  175.3900  143.0990 N   0  0  0  0  0  2  0  0  0  0  0  0
  189.2860  176.4290  146.3400 C   0  0  0  0  0  0  0  0  0  0  0  0
  192.9010  174.2850  145.7550 C   0  0  0  0  0  2  0  0  0  0  0  0
  186.1350  178.5400  146.7920 C   0  0  0  0  0  0  0  0  0  0  0  0
  187.4700  172.2890  141.2360 O   0  0  0  0  0  0  0  0  0  0  0  0
  185.4720  178.1600  145.6810 C   0  0  0  0  0  3  0  0  0  0  0  0
  188.1220  175.7470  144.4690 C   0  0  0  0  0  0  0  0  0  0  0  0
  191.4700  175.9120  147.0220 C   0  0  0  0  0  3  0  0  0  0  0  0
  187.9950  177.0770  146.3140 C   0  0  0  0  0  0  0  0  0  0  0  0
  187.4790  178.0060  147.1110 C   0  0  0  0  0  3  0  0  0  0  0  0
  187.3170  176.5870  145.1260 C   0  0  0  0  0  0  0  0  0  0  0  0
  192.7570  172.9750  144.9790 C   0  0  2  0  0  3  0  0  0  0  0  0
  191.5890  174.9800  145.9720 C   0  0  0  0  0  0  0  0  0  0  0  0
  191.0050  171.0330  140.9590 C   0  0  0  0  0  2  0  0  0  0  0  0
  192.1820  171.2000  140.2260 O   0  0  0  0  0  1  0  0  0  0  0  0
  189.7310  174.2810  140.1140 O   0  0  0  0  0  0  0  0  0  0  0  0
  190.2980  173.5520  138.0610 C   0  0  0  0  0  1  0  0  0  0  0  0
  189.2350  173.6030  139.0490 N   0  0  0  0  0  0  0  0  0  0  0  0
  188.1770  174.4200  138.4780 C   0  0  0  0  0  1  0  0  0  0  0  0
  194.1390  172.4730  144.5850 C   0  0  0  0  0  2  0  0  0  0  0  0
  196.0120  173.9460  143.9250 C   0  0  2  0  0  3  0  0  0  0  0  0
  194.6550  175.3220  142.6210 O   0  0  0  0  0  0  0  0  0  0  0  0
  193.8810  174.3770  143.1490 O   0  0  0  0  0  0  0  0  0  0  0  0
  195.6060  176.2140  144.4900 O   0  0  0  0  0  1  0  0  0  0  0  0
  194.7330  173.3070  143.4560 C   0  0  2  0  0  0  0  0  0  0  0  0
  195.8220  175.3610  143.4050 C   0  0  1  0  0  0  0  0  0  0  0  0
  194.9220  172.5270  142.3220 F   0  0  0  0  0  0  0  0  0  0  0  0
  196.9650  175.8870  142.5740 C   0  0  0  0  0  0  0  0  0  0  0  0
  197.9400  176.4610  143.1300 O   0  0  0  0  0  0  0  0  0  0  0  0
  196.9290  175.7890  141.1540 N   0  0  0  0  0  1  0  0  0  0  0  0
  197.2630  173.1870  143.4590 C   0  0  0  0  0  2  0  0  0  0  0  0
  197.9020  172.4250  144.6080 C   0  0  0  0  0  2  0  0  0  0  0  0
  197.3150  171.0280  144.7080 C   0  0  0  0  0  2  0  0  0  0  0  0
  195.7630  169.7030  146.0940 C   0  0  0  0  0  2  0  0  0  0  0  0
  196.8170  170.7910  146.1180 C   0  0  0  0  0  3  0  0  0  0  0  0
  197.1730  169.3800  146.5390 C   0  0  0  0  0  2  0  0  0  0  0  0
  2 10  1  1  0  0  0
  3 12  1  0  0  0  0
  4 28  1  6  0  0  0
  4  2  1  0  0  0  0
  4  5  1  0  0  0  0
  6 16  1  0  0  0  0
  7 30  1  6  0  0  0
  7 14  1  0  0  0  0
  7  9  1  0  0  0  0
  8  5  1  1  0  0  0
  8  3  1  0  0  0  0
  8 26  1  0  0  0  0
  9 15  1  0  0  0  0
 10  3  1  0  0  0  0
 12  6  2  0  0  0  0
 12 27  1  0  0  0  0
 13 25  1  0  0  0  0
 13 20  1  0  0  0  0
 14  2  1  0  0  0  0
 15 21  1  0  0  0  0
 16 11  2  0  0  0  0
 17 27  1  0  0  0  0
 18 24  1  0  0  0  0
 18  1  1  0  0  0  0
 19 14  2  0  0  0  0
 20 18  2  0  0  0  0
 21 25  2  0  0  0  0
 21  6  1  0  0  0  0
 22 11  1  0  0  0  0
 23 16  1  0  0  0  0
 23 24  2  0  0  0  0
 25 23  1  0  0  0  0
 26 34  1  6  0  0  0
 26 17  1  0  0  0  0
 27 22  2  0  0  0  0
 29 28  1  0  0  0  0
 31 32  1  0  0  0  0
 32 30  1  0  0  0  0
 33 32  1  0  0  0  0
 35 45  1  6  0  0  0
 36 37  1  0  0  0  0
 36 40  1  0  0  0  0
 37 39  1  0  0  0  0
 39 41  1  6  0  0  0
 39 35  1  0  0  0  0
 39 34  1  0  0  0  0
 40 35  1  0  0  0  0
 40 38  1  1  0  0  0
 42 43  2  0  0  0  0
 42 40  1  0  0  0  0
 44 42  1  0  0  0  0
 45 46  1  0  0  0  0
 46 47  1  0  0  0  0
 47 49  1  0  0  0  0
 48 49  1  0  0  0  0
 48 50  1  0  0  0  0
 49 50  1  0  0  0  0
M  END
>  <MODEL>
5

>  <REMARK>
 VINA RESULT:      -6.9      3.358      9.421
  Name = 
  10 active torsions:
  status: ('A' for Active; 'I' for Inactive)
    1  A    between atoms: C_4  and  C_19
    2  A    between atoms: O_7  and  C_8
    3  A    between atoms: O_7  and  N_41
    4  A    between atoms: C_9  and  C_14
    5  A    between atoms: C_12  and  C_38
    6  A    between atoms: C_12  and  C_47
    7  A    between atoms: C_13  and  C_27
    8  A    between atoms: C_13  and  C_50
    9  A    between atoms: C_14  and  C_50
   10  A    between atoms: C_15  and  C_43
                            x       y       z     vdW  Elec       q    Type
                         _______ _______ _______ _____ _____    ______ ____

>  <TORSDO>
F 10

$$$$
=
 OpenBabel11042415523D

 50 57  0  0  1  0  0  0  0  0999 V2000
  184.5130  179.7860  144.5400 N   0  0  0  0  0  1  0  0  0  0  0  0
  189.7510  172.6010  140.6350 C   0  0  1  0  0  3  0  0  0  0  0  0
  190.5910  174.6270  141.7630 N   0  0  0  0  0  0  0  0  0  0  0  0
  191.1230  172.7350  139.9560 C   0  0  1  0  0  3  0  0  0  0  0  0
  192.1110  172.9960  140.9210 O   0  0  0  0  0  0  0  0  0  0  0  0
  189.0360  176.4160  142.5610 C   0  0  0  0  0  0  0  0  0  0  0  0
  188.4520  174.0570  138.8430 C   0  0  2  0  0  3  0  0  0  0  0  0
  191.9670  174.3450  141.3140 C   0  0  2  0  0  3  0  0  0  0  0  0
  188.5950  175.3260  139.6680 C   0  0  0  0  0  2  0  0  0  0  0  0
  189.6390  173.5180  141.8560 C   0  0  0  0  0  2  0  0  0  0  0  0
  189.8160  178.0580  144.1280 N   0  0  0  0  0  0  0  0  0  0  0  0
  190.3250  175.8650  142.4440 C   0  0  0  0  0  0  0  0  0  0  0  0
  185.3800  177.0600  142.0070 C   0  0  0  0  0  2  0  0  0  0  0  0
  188.6070  172.8110  139.6800 C   0  0  0  0  0  0  0  0  0  0  0  0
  187.5500  175.4040  140.6770 N   0  0  0  0  0  2  0  0  0  0  0  0
  188.8150  177.4520  143.4430 C   0  0  0  0  0  0  0  0  0  0  0  0
  192.8030  176.1030  142.9140 C   0  0  0  0  0  2  0  0  0  0  0  0
  185.2750  178.8430  143.7970 C   0  0  0  0  0  0  0  0  0  0  0  0
  187.7640  171.9340  139.5790 O   0  0  0  0  0  0  0  0  0  0  0  0
  184.6600  178.0750  142.8760 C   0  0  0  0  0  3  0  0  0  0  0  0
  187.7420  176.1080  141.9070 C   0  0  0  0  0  0  0  0  0  0  0  0
  191.0970  177.6150  143.9630 C   0  0  0  0  0  3  0  0  0  0  0  0
  187.4050  177.7680  143.4300 C   0  0  0  0  0  0  0  0  0  0  0  0
  186.7270  178.7170  144.0650 C   0  0  0  0  0  3  0  0  0  0  0  0
  186.7970  176.8740  142.4590 C   0  0  0  0  0  0  0  0  0  0  0  0
  192.9390  174.6500  142.4560 C   0  0  2  0  0  3  0  0  0  0  0  0
  191.3770  176.5160  143.1280 C   0  0  0  0  0  0  0  0  0  0  0  0
  191.4760  171.4790  139.1690 C   0  0  0  0  0  2  0  0  0  0  0  0
  191.8830  170.4570  140.0300 O   0  0  0  0  0  1  0  0  0  0  0  0
  189.3930  174.0660  137.8060 O   0  0  0  0  0  0  0  0  0  0  0  0
  189.3020  172.5510  136.1430 C   0  0  0  0  0  1  0  0  0  0  0  0
  188.6930  173.7520  136.6880 N   0  0  0  0  0  0  0  0  0  0  0  0
  188.9320  174.8120  135.7230 C   0  0  0  0  0  1  0  0  0  0  0  0
  194.3750  174.3950  142.0210 C   0  0  0  0  0  2  0  0  0  0  0  0
  195.2910  173.9870  144.2810 C   0  0  2  0  0  3  0  0  0  0  0  0
  197.0480  172.6770  143.4860 O   0  0  0  0  0  0  0  0  0  0  0  0
  196.3360  173.0760  142.4350 O   0  0  0  0  0  0  0  0  0  0  0  0
  197.5560  174.6720  144.4640 O   0  0  0  0  0  1  0  0  0  0  0  0
  195.0580  173.3760  142.9260 C   0  0  2  0  0  0  0  0  0  0  0  0
  196.7250  173.5520  144.5390 C   0  0  1  0  0  0  0  0  0  0  0  0
  194.3070  172.2100  143.0000 F   0  0  0  0  0  0  0  0  0  0  0  0
  196.9450  172.8520  145.8560 C   0  0  0  0  0  0  0  0  0  0  0  0
  197.1730  173.5230  146.8990 O   0  0  0  0  0  0  0  0  0  0  0  0
  196.9500  171.4290  145.9250 N   0  0  0  0  0  1  0  0  0  0  0  0
  194.2330  173.5700  145.3130 C   0  0  0  0  0  2  0  0  0  0  0  0
  193.8020  174.7540  146.1650 C   0  0  0  0  0  2  0  0  0  0  0  0
  192.2870  174.8480  146.2100 C   0  0  0  0  0  2  0  0  0  0  0  0
  191.2460  176.6580  147.5240 C   0  0  0  0  0  2  0  0  0  0  0  0
  191.8510  175.2710  147.5970 C   0  0  0  0  0  3  0  0  0  0  0  0
  190.3460  175.4440  147.6110 C   0  0  0  0  0  2  0  0  0  0  0  0
  2 10  1  1  0  0  0
  3 10  1  0  0  0  0
  3 12  1  0  0  0  0
  4 28  1  1  0  0  0
  4  2  1  0  0  0  0
  4  5  1  0  0  0  0
  6 16  1  0  0  0  0
  7 30  1  6  0  0  0
  7  9  1  0  0  0  0
  7 14  1  0  0  0  0
  8  5  1  1  0  0  0
  8  3  1  0  0  0  0
  8 26  1  0  0  0  0
  9 15  1  0  0  0  0
 12  6  2  0  0  0  0
 12 27  1  0  0  0  0
 13 25  1  0  0  0  0
 13 20  1  0  0  0  0
 14  2  1  0  0  0  0
 15 21  1  0  0  0  0
 16 11  2  0  0  0  0
 17 27  1  0  0  0  0
 18 24  1  0  0  0  0
 18  1  1  0  0  0  0
 19 14  2  0  0  0  0
 20 18  2  0  0  0  0
 21 25  2  0  0  0  0
 21  6  1  0  0  0  0
 22 11  1  0  0  0  0
 23 16  1  0  0  0  0
 23 24  2  0  0  0  0
 25 23  1  0  0  0  0
 26 34  1  6  0  0  0
 26 17  1  0  0  0  0
 27 22  2  0  0  0  0
 28 29  1  0  0  0  0
 31 32  1  0  0  0  0
 32 30  1  0  0  0  0
 33 32  1  0  0  0  0
 34 39  1  0  0  0  0
 35 40  1  0  0  0  0
 35 45  1  1  0  0  0
 36 40  1  0  0  0  0
 37 39  1  0  0  0  0
 37 36  1  0  0  0  0
 39 41  1  1  0  0  0
 39 35  1  0  0  0  0
 40 38  1  6  0  0  0
 40 42  1  0  0  0  0
 42 44  1  0  0  0  0
 42 43  2  0  0  0  0
 45 46  1  0  0  0  0
 46 47  1  0  0  0  0
 47 49  1  0  0  0  0
 48 49  1  0  0  0  0
 48 50  1  0  0  0  0
 49 50  1  0  0  0  0
M  END
>  <MODEL>
6

>  <REMARK>
 VINA RESULT:      -6.9      3.744      9.020
  Name = 
  10 active torsions:
  status: ('A' for Active; 'I' for Inactive)
    1  A    between atoms: C_4  and  C_19
    2  A    between atoms: O_7  and  C_8
    3  A    between atoms: O_7  and  N_41
    4  A    between atoms: C_9  and  C_14
    5  A    between atoms: C_12  and  C_38
    6  A    between atoms: C_12  and  C_47
    7  A    between atoms: C_13  and  C_27
    8  A    between atoms: C_13  and  C_50
    9  A    between atoms: C_14  and  C_50
   10  A    between atoms: C_15  and  C_43
                            x       y       z     vdW  Elec       q    Type
                         _______ _______ _______ _____ _____    ______ ____

>  <TORSDO>
F 10

$$$$
=
 OpenBabel11042415523D

 50 57  0  0  1  0  0  0  0  0999 V2000
  185.4020  178.9010  147.6050 N   0  0  0  0  0  1  0  0  0  0  0  0
  189.5990  172.6410  141.4790 C   0  0  1  0  0  3  0  0  0  0  0  0
  190.7090  174.3370  142.8840 N   0  0  0  0  0  0  0  0  0  0  0  0
  190.8680  172.8870  140.6490 C   0  0  1  0  0  3  0  0  0  0  0  0
  191.9950  172.8970  141.4880 O   0  0  0  0  0  0  0  0  0  0  0  0
  189.3920  175.9420  144.2800 C   0  0  0  0  0  0  0  0  0  0  0  0
  188.1510  174.4990  140.2670 C   0  0  2  0  0  3  0  0  0  0  0  0
  191.9890  174.1260  142.1830 C   0  0  2  0  0  3  0  0  0  0  0  0
  188.4850  175.5450  141.3180 C   0  0  0  0  0  2  0  0  0  0  0  0
  189.7140  173.2620  142.8740 C   0  0  0  0  0  2  0  0  0  0  0  0
  190.4810  177.1660  146.0320 N   0  0  0  0  0  0  0  0  0  0  0  0
  190.6160  175.3960  143.8520 C   0  0  0  0  0  0  0  0  0  0  0  0
  185.7400  176.7940  144.4350 C   0  0  0  0  0  2  0  0  0  0  0  0
  188.3460  173.0930  140.7770 C   0  0  0  0  0  0  0  0  0  0  0  0
  187.5980  175.4220  142.4640 N   0  0  0  0  0  2  0  0  0  0  0  0
  189.3590  176.7590  145.3900 C   0  0  0  0  0  0  0  0  0  0  0  0
  193.1460  175.4550  143.9850 C   0  0  0  0  0  2  0  0  0  0  0  0
  185.9950  178.1300  146.5670 C   0  0  0  0  0  0  0  0  0  0  0  0
  187.4470  172.2840  140.6140 O   0  0  0  0  0  0  0  0  0  0  0  0
  185.2110  177.6070  145.6040 C   0  0  0  0  0  3  0  0  0  0  0  0
  188.0030  175.8250  143.7750 C   0  0  0  0  0  0  0  0  0  0  0  0
  191.6970  176.7370  145.5850 C   0  0  0  0  0  3  0  0  0  0  0  0
  187.9830  177.1080  145.6580 C   0  0  0  0  0  0  0  0  0  0  0  0
  187.4590  177.9070  146.5800 C   0  0  0  0  0  3  0  0  0  0  0  0
  187.1920  176.4720  144.6170 C   0  0  0  0  0  0  0  0  0  0  0  0
  193.1280  174.1390  143.2050 C   0  0  2  0  0  3  0  0  0  0  0  0
  191.7910  175.8470  144.4970 C   0  0  0  0  0  0  0  0  0  0  0  0
  191.0300  171.8320  139.5620 C   0  0  0  0  0  2  0  0  0  0  0  0
  190.5630  170.5930  140.0060 O   0  0  0  0  0  1  0  0  0  0  0  0
  188.9360  174.7160  139.1270 O   0  0  0  0  0  0  0  0  0  0  0  0
  189.1900  173.8210  137.0770 C   0  0  0  0  0  1  0  0  0  0  0  0
  188.2270  174.1860  138.0990 N   0  0  0  0  0  0  0  0  0  0  0  0
  187.4170  175.2580  137.5430 C   0  0  0  0  0  1  0  0  0  0  0  0
  194.4710  173.9500  142.5140 C   0  0  0  0  0  2  0  0  0  0  0  0
  194.7460  171.8900  143.8540 C   0  0  2  0  0  3  0  0  0  0  0  0
  196.0790  172.9390  145.4530 O   0  0  0  0  0  0  0  0  0  0  0  0
  195.7450  173.8530  144.5450 O   0  0  0  0  0  0  0  0  0  0  0  0
  194.0290  172.1800  146.0970 O   0  0  0  0  0  1  0  0  0  0  0  0
  195.4320  173.1420  143.3790 C   0  0  2  0  0  0  0  0  0  0  0  0
  195.1520  171.8910  145.3190 C   0  0  1  0  0  0  0  0  0  0  0  0
  196.6010  172.8650  142.6790 F   0  0  0  0  0  0  0  0  0  0  0  0
  195.7770  170.6060  145.8010 C   0  0  0  0  0  0  0  0  0  0  0  0
  195.0600  169.7070  146.3170 O   0  0  0  0  0  0  0  0  0  0  0  0
  197.1870  170.4180  145.7280 N   0  0  0  0  0  1  0  0  0  0  0  0
  195.1180  170.6540  143.0210 C   0  0  0  0  0  2  0  0  0  0  0  0
  193.8760  169.9660  142.4780 C   0  0  0  0  0  2  0  0  0  0  0  0
  193.8690  170.0100  140.9600 C   0  0  0  0  0  2  0  0  0  0  0  0
  195.2910  170.3910  138.9800 C   0  0  0  0  0  2  0  0  0  0  0  0
  195.1550  170.6400  140.4690 C   0  0  0  0  0  3  0  0  0  0  0  0
  194.8220  171.7400  139.4810 C   0  0  0  0  0  2  0  0  0  0  0  0
  2 10  1  1  0  0  0
  3 12  1  0  0  0  0
  4 28  1  6  0  0  0
  4  2  1  0  0  0  0
  4  5  1  0  0  0  0
  6 16  1  0  0  0  0
  7 30  1  6  0  0  0
  7 14  1  0  0  0  0
  7  9  1  0  0  0  0
  8  5  1  1  0  0  0
  8  3  1  0  0  0  0
  8 26  1  0  0  0  0
  9 15  1  0  0  0  0
 10  3  1  0  0  0  0
 12  6  2  0  0  0  0
 12 27  1  0  0  0  0
 13 25  1  0  0  0  0
 13 20  1  0  0  0  0
 14  2  1  0  0  0  0
 15 21  1  0  0  0  0
 16 23  1  0  0  0  0
 16 11  2  0  0  0  0
 17 27  1  0  0  0  0
 18 24  1  0  0  0  0
 18  1  1  0  0  0  0
 19 14  2  0  0  0  0
 20 18  2  0  0  0  0
 21  6  1  0  0  0  0
 21 25  2  0  0  0  0
 22 11  1  0  0  0  0
 23 24  2  0  0  0  0
 25 23  1  0  0  0  0
 26 34  1  6  0  0  0
 26 17  1  0  0  0  0
 27 22  2  0  0  0  0
 28 29  1  0  0  0  0
 31 32  1  0  0  0  0
 32 30  1  0  0  0  0
 33 32  1  0  0  0  0
 34 39  1  0  0  0  0
 35 45  1  6  0  0  0
 35 40  1  0  0  0  0
 37 36  1  0  0  0  0
 39 41  1  6  0  0  0
 39 35  1  0  0  0  0
 39 37  1  0  0  0  0
 40 36  1  0  0  0  0
 40 42  1  0  0  0  0
 40 38  1  1  0  0  0
 42 43  2  0  0  0  0
 44 42  1  0  0  0  0
 46 45  1  0  0  0  0
 47 46  1  0  0  0  0
 48 50  1  0  0  0  0
 48 49  1  0  0  0  0
 49 47  1  0  0  0  0
 50 49  1  0  0  0  0
M  END
>  <MODEL>
7

>  <REMARK>
 VINA RESULT:      -6.8      3.631      9.270
  Name = 
  10 active torsions:
  status: ('A' for Active; 'I' for Inactive)
    1  A    between atoms: C_4  and  C_19
    2  A    between atoms: O_7  and  C_8
    3  A    between atoms: O_7  and  N_41
    4  A    between atoms: C_9  and  C_14
    5  A    between atoms: C_12  and  C_38
    6  A    between atoms: C_12  and  C_47
    7  A    between atoms: C_13  and  C_27
    8  A    between atoms: C_13  and  C_50
    9  A    between atoms: C_14  and  C_50
   10  A    between atoms: C_15  and  C_43
                            x       y       z     vdW  Elec       q    Type
                         _______ _______ _______ _____ _____    ______ ____

>  <TORSDO>
F 10

$$$$
=
 OpenBabel11042415523D

 50 57  0  0  1  0  0  0  0  0999 V2000
  185.5250  179.4500  147.7450 N   0  0  0  0  0  1  0  0  0  0  0  0
  189.9280  172.1730  143.0580 C   0  0  1  0  0  3  0  0  0  0  0  0
  190.9520  173.7950  144.6100 N   0  0  0  0  0  0  0  0  0  0  0  0
  191.3750  172.1630  142.5390 C   0  0  1  0  0  3  0  0  0  0  0  0
  192.2700  172.0740  143.6190 O   0  0  0  0  0  0  0  0  0  0  0  0
  189.6310  175.6820  145.5850 C   0  0  0  0  0  0  0  0  0  0  0  0
  189.1110  174.1200  141.4590 C   0  0  2  0  0  3  0  0  0  0  0  0
  192.3050  173.3430  144.2390 C   0  0  2  0  0  3  0  0  0  0  0  0
  189.3630  175.1870  142.5130 C   0  0  0  0  0  2  0  0  0  0  0  0
  189.8250  172.8800  144.4130 C   0  0  0  0  0  2  0  0  0  0  0  0
  190.4790  176.8690  147.4890 N   0  0  0  0  0  0  0  0  0  0  0  0
  190.8150  174.9300  145.4810 C   0  0  0  0  0  0  0  0  0  0  0  0
  186.2240  177.0710  144.8390 C   0  0  0  0  0  2  0  0  0  0  0  0
  188.9560  172.7460  142.0620 C   0  0  0  0  0  0  0  0  0  0  0  0
  188.2330  175.2870  143.4230 N   0  0  0  0  0  2  0  0  0  0  0  0
  189.4810  176.5800  146.6190 C   0  0  0  0  0  0  0  0  0  0  0  0
  193.2250  174.6270  146.2030 C   0  0  0  0  0  2  0  0  0  0  0  0
  186.2040  178.5210  146.9110 C   0  0  0  0  0  0  0  0  0  0  0  0
  187.9990  172.0680  141.7280 O   0  0  0  0  0  0  0  0  0  0  0  0
  185.5830  178.0420  145.8140 C   0  0  0  0  0  3  0  0  0  0  0  0
  188.3910  175.7300  144.7730 C   0  0  0  0  0  0  0  0  0  0  0  0
  191.6800  176.2320  147.3590 C   0  0  0  0  0  3  0  0  0  0  0  0
  188.1550  177.1480  146.5410 C   0  0  0  0  0  0  0  0  0  0  0  0
  187.5720  178.0860  147.2780 C   0  0  0  0  0  3  0  0  0  0  0  0
  187.5270  176.5540  145.3720 C   0  0  0  0  0  0  0  0  0  0  0  0
  193.1720  173.2700  145.4990 C   0  0  2  0  0  3  0  0  0  0  0  0
  191.8710  175.2540  146.3630 C   0  0  0  0  0  0  0  0  0  0  0  0
  191.6060  171.0120  141.5690 C   0  0  0  0  0  2  0  0  0  0  0  0
  191.2030  169.8020  142.1360 O   0  0  0  0  0  1  0  0  0  0  0  0
  190.1570  174.1280  140.5280 O   0  0  0  0  0  0  0  0  0  0  0  0
  190.7950  173.3310  138.5210 C   0  0  0  0  0  1  0  0  0  0  0  0
  189.7050  173.3960  139.4790 N   0  0  0  0  0  0  0  0  0  0  0  0
  188.6440  174.1640  138.8490 C   0  0  0  0  0  1  0  0  0  0  0  0
  194.5880  172.8310  145.1520 C   0  0  0  0  0  2  0  0  0  0  0  0
  195.6340  174.1880  143.3700 C   0  0  2  0  0  3  0  0  0  0  0  0
  197.5900  174.5380  144.5890 O   0  0  0  0  0  0  0  0  0  0  0  0
  196.7820  173.7850  145.3320 O   0  0  0  0  0  0  0  0  0  0  0  0
  197.7230  173.3000  142.6810 O   0  0  0  0  0  1  0  0  0  0  0  0
  195.4850  174.0280  144.8590 C   0  0  2  0  0  0  0  0  0  0  0  0
  197.1320  174.4230  143.2650 C   0  0  1  0  0  0  0  0  0  0  0  0
  194.9810  175.1740  145.4610 F   0  0  0  0  0  0  0  0  0  0  0  0
  197.5250  175.6560  142.4910 C   0  0  0  0  0  0  0  0  0  0  0  0
  197.8470  175.5650  141.2760 O   0  0  0  0  0  0  0  0  0  0  0  0
  197.5880  176.9230  143.1380 N   0  0  0  0  0  1  0  0  0  0  0  0
  194.7100  175.2710  142.7920 C   0  0  0  0  0  2  0  0  0  0  0  0
  193.9150  174.7390  141.6110 C   0  0  0  0  0  2  0  0  0  0  0  0
  194.5630  173.4800  141.0620 C   0  0  0  0  0  2  0  0  0  0  0  0
  194.7200  174.8960  139.0470 C   0  0  0  0  0  2  0  0  0  0  0  0
  194.4770  173.4880  139.5500 C   0  0  0  0  0  3  0  0  0  0  0  0
  195.8280  173.8670  138.9780 C   0  0  0  0  0  2  0  0  0  0  0  0
  2 10  1  1  0  0  0
  3 12  1  0  0  0  0
  4 28  1  6  0  0  0
  4  2  1  0  0  0  0
  4  5  1  0  0  0  0
  6 16  1  0  0  0  0
  7 30  1  6  0  0  0
  7 14  1  0  0  0  0
  7  9  1  0  0  0  0
  8  5  1  1  0  0  0
  8  3  1  0  0  0  0
  8 26  1  0  0  0  0
  9 15  1  0  0  0  0
 10  3  1  0  0  0  0
 12  6  2  0  0  0  0
 12 27  1  0  0  0  0
 13 25  1  0  0  0  0
 13 20  1  0  0  0  0
 14  2  1  0  0  0  0
 15 21  1  0  0  0  0
 16 11  2  0  0  0  0
 17 27  1  0  0  0  0
 18 24  1  0  0  0  0
 18  1  1  0  0  0  0
 19 14  2  0  0  0  0
 20 18  2  0  0  0  0
 21 25  2  0  0  0  0
 21  6  1  0  0  0  0
 22 11  1  0  0  0  0
 23 16  1  0  0  0  0
 23 24  2  0  0  0  0
 25 23  1  0  0  0  0
 26 34  1  6  0  0  0
 26 17  1  0  0  0  0
 27 22  2  0  0  0  0
 28 29  1  0  0  0  0
 31 32  1  0  0  0  0
 32 30  1  0  0  0  0
 33 32  1  0  0  0  0
 35 45  1  1  0  0  0
 35 39  1  0  0  0  0
 36 37  1  0  0  0  0
 39 34  1  0  0  0  0
 39 37  1  0  0  0  0
 39 41  1  1  0  0  0
 40 38  1  6  0  0  0
 40 35  1  0  0  0  0
 40 36  1  0  0  0  0
 42 44  1  0  0  0  0
 42 40  1  0  0  0  0
 43 42  2  0  0  0  0
 46 45  1  0  0  0  0
 47 46  1  0  0  0  0
 48 49  1  0  0  0  0
 49 47  1  0  0  0  0
 50 48  1  0  0  0  0
 50 49  1  0  0  0  0
M  END
>  <MODEL>
8

>  <REMARK>
 VINA RESULT:      -6.8      3.326      8.966
  Name = 
  10 active torsions:
  status: ('A' for Active; 'I' for Inactive)
    1  A    between atoms: C_4  and  C_19
    2  A    between atoms: O_7  and  C_8
    3  A    between atoms: O_7  and  N_41
    4  A    between atoms: C_9  and  C_14
    5  A    between atoms: C_12  and  C_38
    6  A    between atoms: C_12  and  C_47
    7  A    between atoms: C_13  and  C_27
    8  A    between atoms: C_13  and  C_50
    9  A    between atoms: C_14  and  C_50
   10  A    between atoms: C_15  and  C_43
                            x       y       z     vdW  Elec       q    Type
                         _______ _______ _______ _____ _____    ______ ____

>  <TORSDO>
F 10

$$$$
=
 OpenBabel11042415523D

 50 57  0  0  1  0  0  0  0  0999 V2000
  186.7700  177.6610  147.3930 N   0  0  0  0  0  1  0  0  0  0  0  0
  194.7350  175.8480  142.1400 C   0  0  1  0  0  3  0  0  0  0  0  0
  192.5270  174.7680  141.9380 N   0  0  0  0  0  0  0  0  0  0  0  0
  195.1550  174.4910  141.5560 C   0  0  1  0  0  3  0  0  0  0  0  0
  194.3120  174.1490  140.4850 O   0  0  0  0  0  0  0  0  0  0  0  0
  190.6610  175.3060  143.5140 C   0  0  0  0  0  0  0  0  0  0  0  0
  194.9440  175.0970  144.6720 C   0  0  2  0  0  3  0  0  0  0  0  0
  193.0780  173.7390  141.0370 C   0  0  2  0  0  3  0  0  0  0  0  0
  193.4680  174.7440  144.7620 C   0  0  0  0  0  2  0  0  0  0  0  0
  193.2210  176.0530  142.0470 C   0  0  0  0  0  2  0  0  0  0  0  0
  188.4120  174.6860  142.9510 N   0  0  0  0  0  0  0  0  0  0  0  0
  191.1650  174.6430  142.3800 C   0  0  0  0  0  0  0  0  0  0  0  0
  190.5090  177.2260  146.7360 C   0  0  0  0  0  3  0  0  0  0  0  0
  195.2340  176.0570  143.5460 C   0  0  0  0  0  0  0  0  0  0  0  0
  192.6730  175.9280  145.0470 N   0  0  0  0  0  2  0  0  0  0  0  0
  189.3000  175.3550  143.7270 C   0  0  0  0  0  0  0  0  0  0  0  0
  190.7250  173.0350  140.4720 C   0  0  0  0  0  2  0  0  0  0  0  0
  187.9800  177.2550  146.7660 C   0  0  0  0  0  0  0  0  0  0  0  0
  195.9040  177.0490  143.7840 O   0  0  0  0  0  0  0  0  0  0  0  0
  189.1590  177.6260  147.3040 C   0  0  0  0  0  3  0  0  0  0  0  0
  191.3100  176.0380  144.6280 C   0  0  0  0  0  0  0  0  0  0  0  0
  188.8730  173.9480  141.8990 C   0  0  0  0  0  3  0  0  0  0  0  0
  189.0510  176.1600  144.9010 C   0  0  1  0  0  3  0  0  0  0  0  0
  187.9160  176.4500  145.5240 C   0  0  0  0  0  3  0  0  0  0  0  0
  190.3550  176.5660  145.3980 C   0  0  0  0  0  0  0  0  0  0  0  0
  192.0780  173.4740  139.9090 C   0  0  2  0  0  3  0  0  0  0  0  0
  190.2470  173.9140  141.5900 C   0  0  0  0  0  0  0  0  0  0  0  0
  196.6070  174.5120  141.0960 C   0  0  0  0  0  2  0  0  0  0  0  0
  196.9400  175.7650  140.5760 O   0  0  0  0  0  1  0  0  0  0  0  0
  195.6950  173.9250  144.5190 O   0  0  0  0  0  0  0  0  0  0  0  0
  197.9350  174.1470  144.5870 C   0  0  0  0  0  1  0  0  0  0  0  0
  196.7280  174.0480  145.3890 N   0  0  0  0  0  0  0  0  0  0  0  0
  196.8190  172.7960  146.1230 C   0  0  0  0  0  1  0  0  0  0  0  0
  192.6020  172.3960  138.9700 C   0  0  0  0  0  2  0  0  0  0  0  0
  191.3380  173.7940  137.3700 C   0  0  2  0  0  3  0  0  0  0  0  0
  189.8680  172.0730  136.8110 O   0  0  0  0  0  0  0  0  0  0  0  0
  190.7180  171.5970  137.7170 O   0  0  0  0  0  0  0  0  0  0  0  0
  189.0270  173.8900  137.9000 O   0  0  0  0  0  1  0  0  0  0  0  0
  191.8590  172.4090  137.6390 C   0  0  2  0  0  0  0  0  0  0  0  0
  189.9240  173.4740  136.9120 C   0  0  1  0  0  0  0  0  0  0  0  0
  192.6820  171.9510  136.6170 F   0  0  0  0  0  0  0  0  0  0  0  0
  189.5340  174.0880  135.5910 C   0  0  0  0  0  0  0  0  0  0  0  0
  189.7460  173.4650  134.5170 O   0  0  0  0  0  0  0  0  0  0  0  0
  188.9740  175.3970  135.5420 N   0  0  0  0  0  1  0  0  0  0  0  0
  192.2280  174.5880  136.4020 C   0  0  0  0  0  2  0  0  0  0  0  0
  193.1660  175.5150  137.1570 C   0  0  0  0  0  2  0  0  0  0  0  0
  194.5750  175.4090  136.6000 C   0  0  0  0  0  2  0  0  0  0  0  0
  195.7690  173.2500  136.5850 C   0  0  0  0  0  2  0  0  0  0  0  0
  195.3770  174.4380  137.4400 C   0  0  0  0  0  3  0  0  0  0  0  0
  196.7810  174.3370  136.8780 C   0  0  0  0  0  2  0  0  0  0  0  0
  2 10  1  1  0  0  0
  2 14  1  0  0  0  0
  3 10  1  0  0  0  0
  3 12  1  0  0  0  0
  4 28  1  6  0  0  0
  4  2  1  0  0  0  0
  5  4  1  0  0  0  0
  6 16  2  0  0  0  0
  6 21  1  0  0  0  0
  7 30  1  6  0  0  0
  7  9  1  0  0  0  0
  8  5  1  6  0  0  0
  8  3  1  0  0  0  0
  9 15  1  0  0  0  0
 11 16  1  0  0  0  0
 12  6  1  0  0  0  0
 13 20  2  0  0  0  0
 14 19  2  0  0  0  0
 14  7  1  0  0  0  0
 16 23  1  0  0  0  0
 17 27  1  0  0  0  0
 18 20  1  0  0  0  0
 18  1  1  0  0  0  0
 21 15  1  0  0  0  0
 21 25  2  0  0  0  0
 22 11  2  0  0  0  0
 23 25  1  0  0  0  0
 23 24  1  1  0  0  0
 24 18  2  0  0  0  0
 25 13  1  0  0  0  0
 26 34  1  6  0  0  0
 26 17  1  0  0  0  0
 26  8  1  0  0  0  0
 27 22  1  0  0  0  0
 27 12  2  0  0  0  0
 29 28  1  0  0  0  0
 30 32  1  0  0  0  0
 31 32  1  0  0  0  0
 32 33  1  0  0  0  0
 35 45  1  6  0  0  0
 35 39  1  0  0  0  0
 36 40  1  0  0  0  0
 36 37  1  0  0  0  0
 39 41  1  6  0  0  0
 39 37  1  0  0  0  0
 39 34  1  0  0  0  0
 40 35  1  0  0  0  0
 40 38  1  1  0  0  0
 42 40  1  0  0  0  0
 43 42  2  0  0  0  0
 44 42  1  0  0  0  0
 45 46  1  0  0  0  0
 47 46  1  0  0  0  0
 47 49  1  0  0  0  0
 48 50  1  0  0  0  0
 48 49  1  0  0  0  0
 50 49  1  0  0  0  0
M  END
>  <MODEL>
9

>  <REMARK>
 VINA RESULT:      -6.7      4.292      8.080
  Name = 
  10 active torsions:
  status: ('A' for Active; 'I' for Inactive)
    1  A    between atoms: C_4  and  C_19
    2  A    between atoms: O_7  and  C_8
    3  A    between atoms: O_7  and  N_41
    4  A    between atoms: C_9  and  C_14
    5  A    between atoms: C_12  and  C_38
    6  A    between atoms: C_12  and  C_47
    7  A    between atoms: C_13  and  C_27
    8  A    between atoms: C_13  and  C_50
    9  A    between atoms: C_14  and  C_50
   10  A    between atoms: C_15  and  C_43
                            x       y       z     vdW  Elec       q    Type
                         _______ _______ _______ _____ _____    ______ ____

>  <TORSDO>
F 10

$$$$
