=
 OpenBabel11042414203D

 27 29  0  0  1  0  0  0  0  0999 V2000
  184.4430  177.9960  141.0720 C   0  0  0  0  0  2  0  0  0  0  0  0
  189.0560  175.7910  145.5800 C   0  0  0  0  0  0  0  0  0  0  0  0
  187.2930  177.4800  143.5720 N   0  0  0  0  0  0  0  0  0  0  0  0
  185.7770  177.6050  141.6650 C   0  0  0  0  0  0  0  0  0  0  0  0
  186.7760  177.1500  140.7350 N   0  0  0  0  0  2  0  0  0  0  0  0
  185.1190  178.3020  145.1580 N   0  0  0  0  0  0  0  0  0  0  0  0
  181.9880  178.5820  141.5810 C   0  0  0  0  0  1  0  0  0  0  0  0
  187.9710  175.2420  141.6760 C   0  0  0  0  0  2  0  0  0  0  0  0
  189.9960  177.9310  144.6490 C   0  0  0  0  0  1  0  0  0  0  0  0
  183.6110  178.4170  143.3440 N   0  0  0  0  0  0  0  0  0  0  0  0
  186.0090  177.7480  142.9880 C   0  0  0  0  0  0  0  0  0  0  0  0
  183.3630  178.3150  142.0750 C   0  0  0  0  0  0  0  0  0  0  0  0
  186.4080  178.0430  145.7300 C   0  0  0  0  0  0  0  0  0  0  0  0
  189.1830  175.0100  144.5310 C   0  0  0  0  0  0  0  0  0  0  0  0
  184.9120  178.1790  143.8810 C   0  0  0  0  0  0  0  0  0  0  0  0
  188.8590  177.2750  145.4190 C   0  0  1  0  0  3  0  0  0  0  0  0
  187.5130  177.6140  144.8470 C   0  0  0  0  0  0  0  0  0  0  0  0
  186.5860  178.1760  146.9690 O   0  0  0  0  0  0  0  0  0  0  0  0
  189.3460  174.7550  142.1080 C   0  0  1  0  0  3  0  0  0  0  0  0
  188.0950  176.6180  141.0510 C   0  0  0  0  0  2  0  0  0  0  0  0
  189.3180  174.2170  143.5030 C   0  0  0  0  0  3  0  0  0  0  0  0
  190.1270  175.7050  147.6830 F   0  0  0  0  0  0  0  0  0  0  0  0
  189.2330  173.8100  146.8490 F   0  0  0  0  0  0  0  0  0  0  0  0
  187.8930  175.4420  147.6230 F   0  0  0  0  0  0  0  0  0  0  0  0
  189.0740  175.1810  146.9520 C   0  0  0  0  0  0  0  0  0  0  0  0
  189.8870  173.7150  141.1310 C   0  0  0  0  0  2  0  0  0  0  0  0
  188.8210  172.8700  140.6140 N   0  0  0  0  0  1  0  0  0  0  0  0
  1  4  1  0  0  0  0
  1 12  1  0  0  0  0
  2 25  1  0  0  0  0
  3 17  2  0  0  0  0
  4 11  2  0  0  0  0
  5 20  1  0  0  0  0
  5  4  1  0  0  0  0
  6 13  1  0  0  0  0
  7 12  1  0  0  0  0
  8 19  1  0  0  0  0
 10 15  1  0  0  0  0
 11  3  1  0  0  0  0
 11 15  1  0  0  0  0
 12 10  2  0  0  0  0
 13 18  2  0  0  0  0
 14  2  2  0  0  0  0
 15  6  2  0  0  0  0
 16  9  1  6  0  0  0
 16  2  1  0  0  0  0
 17 16  1  0  0  0  0
 17 13  1  0  0  0  0
 19 26  1  6  0  0  0
 19 21  1  0  0  0  0
 20  8  1  0  0  0  0
 21 14  2  0  0  0  0
 23 25  1  0  0  0  0
 25 24  1  0  0  0  0
 25 22  1  0  0  0  0
 27 26  1  0  0  0  0
M  END
>  <MODEL>
1

>  <REMARK>
 VINA RESULT:      -8.4      0.000      0.000
  Name = 
  2 active torsions:
  status: ('A' for Active; 'I' for Inactive)
    1  A    between atoms: C_2  and  C_26
    2  A    between atoms: C_18  and  C_24
                            x       y       z     vdW  Elec       q    Type
                         _______ _______ _______ _____ _____    ______ ____

>  <TORSDO>
F 2

$$$$
=
 OpenBabel11042414203D

 27 29  0  0  1  0  0  0  0  0999 V2000
  185.4500  178.3160  144.3220 C   0  0  0  0  0  2  0  0  0  0  0  0
  190.1800  173.4480  143.7070 C   0  0  0  0  0  0  0  0  0  0  0  0
  188.5960  176.1460  144.1520 N   0  0  0  0  0  0  0  0  0  0  0  0
  186.6290  177.5400  143.7820 C   0  0  0  0  0  0  0  0  0  0  0  0
  186.8890  177.6800  142.3740 N   0  0  0  0  0  2  0  0  0  0  0  0
  187.7840  175.9810  146.8400 N   0  0  0  0  0  0  0  0  0  0  0  0
  183.8750  178.6530  146.3310 C   0  0  0  0  0  1  0  0  0  0  0  0
  187.4860  175.5120  141.4270 C   0  0  0  0  0  2  0  0  0  0  0  0
  191.4340  175.6230  143.5650 C   0  0  0  0  0  1  0  0  0  0  0  0
  185.8560  177.3080  146.5250 N   0  0  0  0  0  0  0  0  0  0  0  0
  187.4130  176.8170  144.6110 C   0  0  0  0  0  0  0  0  0  0  0  0
  185.0970  178.0310  145.7600 C   0  0  0  0  0  0  0  0  0  0  0  0
  188.9700  175.3240  146.3750 C   0  0  0  0  0  0  0  0  0  0  0  0
  189.5460  173.4740  142.5570 C   0  0  0  0  0  0  0  0  0  0  0  0
  187.0460  176.6890  146.0380 C   0  0  0  0  0  0  0  0  0  0  0  0
  190.5490  174.7230  144.4150 C   0  0  1  0  0  3  0  0  0  0  0  0
  189.3470  175.4470  144.9510 C   0  0  0  0  0  0  0  0  0  0  0  0
  189.6720  174.6490  147.1730 O   0  0  0  0  0  0  0  0  0  0  0  0
  188.5960  174.7560  140.7090 C   0  0  1  0  0  3  0  0  0  0  0  0
  187.8880  176.9660  141.5890 C   0  0  0  0  0  2  0  0  0  0  0  0
  188.9210  173.4770  141.4100 C   0  0  0  0  0  3  0  0  0  0  0  0
  191.7750  172.1630  144.8840 F   0  0  0  0  0  0  0  0  0  0  0  0
  190.4660  171.1300  143.3670 F   0  0  0  0  0  0  0  0  0  0  0  0
  189.5980  171.8090  145.3270 F   0  0  0  0  0  0  0  0  0  0  0  0
  190.5070  172.1210  144.3320 C   0  0  0  0  0  0  0  0  0  0  0  0
  188.2270  174.5040  139.2500 C   0  0  0  0  0  2  0  0  0  0  0  0
  188.2370  173.0820  138.9410 N   0  0  0  0  0  1  0  0  0  0  0  0
  1 12  1  0  0  0  0
  2 25  1  0  0  0  0
  2 16  1  0  0  0  0
  3 11  1  0  0  0  0
  3 17  2  0  0  0  0
  4  1  1  0  0  0  0
  4 11  2  0  0  0  0
  5  4  1  0  0  0  0
  8 20  1  0  0  0  0
 11 15  1  0  0  0  0
 12  7  1  0  0  0  0
 12 10  2  0  0  0  0
 13  6  1  0  0  0  0
 13 18  2  0  0  0  0
 14  2  2  0  0  0  0
 15 10  1  0  0  0  0
 15  6  2  0  0  0  0
 16  9  1  6  0  0  0
 16 17  1  0  0  0  0
 17 13  1  0  0  0  0
 19 26  1  6  0  0  0
 19 21  1  0  0  0  0
 19  8  1  0  0  0  0
 20  5  1  0  0  0  0
 21 14  2  0  0  0  0
 23 25  1  0  0  0  0
 25 22  1  0  0  0  0
 25 24  1  0  0  0  0
 27 26  1  0  0  0  0
M  END
>  <MODEL>
2

>  <REMARK>
 VINA RESULT:      -7.4      2.434      3.318
  Name = 
  2 active torsions:
  status: ('A' for Active; 'I' for Inactive)
    1  A    between atoms: C_2  and  C_26
    2  A    between atoms: C_18  and  C_24
                            x       y       z     vdW  Elec       q    Type
                         _______ _______ _______ _____ _____    ______ ____

>  <TORSDO>
F 2

$$$$
=
 OpenBabel11042414203D

 27 29  0  0  1  0  0  0  0  0999 V2000
  194.8660  175.4660  142.8190 C   0  0  0  0  0  2  0  0  0  0  0  0
  188.7860  176.1330  145.8260 C   0  0  0  0  0  0  0  0  0  0  0  0
  191.6560  175.2040  144.8840 N   0  0  0  0  0  0  0  0  0  0  0  0
  193.4390  175.1730  143.2190 C   0  0  0  0  0  0  0  0  0  0  0  0
  192.6540  174.4260  142.2720 N   0  0  0  0  0  2  0  0  0  0  0  0
  193.3880  176.7380  146.4850 N   0  0  0  0  0  0  0  0  0  0  0  0
  196.9820  176.8290  143.3620 C   0  0  0  0  0  1  0  0  0  0  0  0
  190.4010  175.3520  142.1520 C   0  0  0  0  0  2  0  0  0  0  0  0
  189.4860  173.7540  146.2480 C   0  0  0  0  0  1  0  0  0  0  0  0
  195.1330  176.7530  144.8940 N   0  0  0  0  0  0  0  0  0  0  0  0
  192.9730  175.5490  144.4300 C   0  0  0  0  0  0  0  0  0  0  0  0
  195.6180  176.3850  143.7480 C   0  0  0  0  0  0  0  0  0  0  0  0
  192.0750  176.3780  146.9340 C   0  0  0  0  0  0  0  0  0  0  0  0
  188.5400  176.0740  144.5380 C   0  0  0  0  0  0  0  0  0  0  0  0
  193.8320  176.3560  145.3250 C   0  0  0  0  0  0  0  0  0  0  0  0
  189.8070  175.2270  146.4610 C   0  0  1  0  0  3  0  0  0  0  0  0
  191.2090  175.5700  146.0490 C   0  0  0  0  0  0  0  0  0  0  0  0
  191.6710  176.7550  148.0650 O   0  0  0  0  0  0  0  0  0  0  0  0
  188.9310  175.0220  142.3690 C   0  0  1  0  0  3  0  0  0  0  0  0
  191.2360  174.1040  142.3630 C   0  0  0  0  0  2  0  0  0  0  0  0
  188.2750  176.0270  143.2600 C   0  0  0  0  0  3  0  0  0  0  0  0
  187.1960  176.5010  147.5340 F   0  0  0  0  0  0  0  0  0  0  0  0
  187.3270  177.9870  145.8440 F   0  0  0  0  0  0  0  0  0  0  0  0
  188.9490  177.9070  147.4000 F   0  0  0  0  0  0  0  0  0  0  0  0
  188.0580  177.1460  146.6640 C   0  0  0  0  0  0  0  0  0  0  0  0
  188.1970  174.9070  141.0360 C   0  0  0  0  0  2  0  0  0  0  0  0
  187.6360  176.1870  140.6310 N   0  0  0  0  0  1  0  0  0  0  0  0
  1  4  1  0  0  0  0
  1 12  1  0  0  0  0
  2 16  1  0  0  0  0
  2 25  1  0  0  0  0
  3 17  2  0  0  0  0
  4 11  2  0  0  0  0
  5 20  1  0  0  0  0
  5  4  1  0  0  0  0
  6 13  1  0  0  0  0
  7 12  1  0  0  0  0
  8 20  1  0  0  0  0
  8 19  1  0  0  0  0
 10 15  1  0  0  0  0
 11  3  1  0  0  0  0
 11 15  1  0  0  0  0
 12 10  2  0  0  0  0
 13 18  2  0  0  0  0
 14  2  2  0  0  0  0
 15  6  2  0  0  0  0
 16  9  1  6  0  0  0
 17 16  1  0  0  0  0
 17 13  1  0  0  0  0
 19 26  1  6  0  0  0
 19 21  1  0  0  0  0
 21 14  2  0  0  0  0
 23 25  1  0  0  0  0
 25 24  1  0  0  0  0
 25 22  1  0  0  0  0
 27 26  1  0  0  0  0
M  END
>  <MODEL>
3

>  <REMARK>
 VINA RESULT:      -7.3      3.866      6.656
  Name = 
  2 active torsions:
  status: ('A' for Active; 'I' for Inactive)
    1  A    between atoms: C_2  and  C_26
    2  A    between atoms: C_18  and  C_24
                            x       y       z     vdW  Elec       q    Type
                         _______ _______ _______ _____ _____    ______ ____

>  <TORSDO>
F 2

$$$$
=
 OpenBabel11042414203D

 27 29  0  0  1  0  0  0  0  0999 V2000
  185.6070  177.7780  144.4780 C   0  0  0  0  0  2  0  0  0  0  0  0
  191.8570  175.0660  144.6780 C   0  0  0  0  0  0  0  0  0  0  0  0
  189.3480  176.9810  144.5030 N   0  0  0  0  0  0  0  0  0  0  0  0
  186.9830  177.3460  144.0300 C   0  0  0  0  0  0  0  0  0  0  0  0
  187.1370  177.0710  142.6260 N   0  0  0  0  0  2  0  0  0  0  0  0
  188.7280  177.4790  147.2010 N   0  0  0  0  0  0  0  0  0  0  0  0
  184.0720  178.1970  146.5030 C   0  0  0  0  0  1  0  0  0  0  0  0
  188.5180  175.0830  142.3190 C   0  0  0  0  0  2  0  0  0  0  0  0
  192.1490  177.3530  143.6720 C   0  0  0  0  0  1  0  0  0  0  0  0
  186.4260  177.8180  146.7940 N   0  0  0  0  0  0  0  0  0  0  0  0
  188.0080  177.2920  144.9090 C   0  0  0  0  0  0  0  0  0  0  0  0
  185.4270  177.9030  145.9700 C   0  0  0  0  0  0  0  0  0  0  0  0
  190.0660  177.1780  146.7840 C   0  0  0  0  0  0  0  0  0  0  0  0
  191.2380  174.4590  143.6920 C   0  0  0  0  0  0  0  0  0  0  0  0
  187.7530  177.5450  146.3440 C   0  0  0  0  0  0  0  0  0  0  0  0
  191.7090  176.5490  144.8870 C   0  0  1  0  0  3  0  0  0  0  0  0
  190.3320  176.9260  145.3520 C   0  0  0  0  0  0  0  0  0  0  0  0
  190.9940  177.1260  147.6330 O   0  0  0  0  0  0  0  0  0  0  0  0
  189.8180  174.5820  141.7090 C   0  0  1  0  0  3  0  0  0  0  0  0
  188.3180  176.5420  141.9560 C   0  0  0  0  0  2  0  0  0  0  0  0
  190.6370  173.8370  142.7130 C   0  0  0  0  0  3  0  0  0  0  0  0
  192.5530  172.9080  145.3390 F   0  0  0  0  0  0  0  0  0  0  0  0
  192.2780  174.4850  146.9260 F   0  0  0  0  0  0  0  0  0  0  0  0
  194.0300  174.5960  145.5200 F   0  0  0  0  0  0  0  0  0  0  0  0
  192.6930  174.2540  145.6260 C   0  0  0  0  0  0  0  0  0  0  0  0
  189.5460  173.7230  140.4770 C   0  0  0  0  0  2  0  0  0  0  0  0
  188.2620  173.0460  140.5790 N   0  0  0  0  0  1  0  0  0  0  0  0
  1 12  1  0  0  0  0
  2 16  1  0  0  0  0
  2 25  1  0  0  0  0
  3 11  1  0  0  0  0
  3 17  2  0  0  0  0
  4  1  1  0  0  0  0
  4 11  2  0  0  0  0
  5  4  1  0  0  0  0
 11 15  1  0  0  0  0
 12  7  1  0  0  0  0
 12 10  2  0  0  0  0
 13  6  1  0  0  0  0
 13 18  2  0  0  0  0
 14  2  2  0  0  0  0
 15 10  1  0  0  0  0
 15  6  2  0  0  0  0
 16  9  1  6  0  0  0
 16 17  1  0  0  0  0
 17 13  1  0  0  0  0
 19 26  1  6  0  0  0
 19  8  1  0  0  0  0
 19 21  1  0  0  0  0
 20  8  1  0  0  0  0
 20  5  1  0  0  0  0
 21 14  2  0  0  0  0
 22 25  1  0  0  0  0
 24 25  1  0  0  0  0
 25 23  1  0  0  0  0
 26 27  1  0  0  0  0
M  END
>  <MODEL>
4

>  <REMARK>
 VINA RESULT:      -7.2      2.445      3.361
  Name = 
  2 active torsions:
  status: ('A' for Active; 'I' for Inactive)
    1  A    between atoms: C_2  and  C_26
    2  A    between atoms: C_18  and  C_24
                            x       y       z     vdW  Elec       q    Type
                         _______ _______ _______ _____ _____    ______ ____

>  <TORSDO>
F 2

$$$$
=
 OpenBabel11042414203D

 27 29  0  0  1  0  0  0  0  0999 V2000
  191.6770  171.6420  143.0340 C   0  0  0  0  0  2  0  0  0  0  0  0
  188.3750  177.4680  144.3050 C   0  0  0  0  0  0  0  0  0  0  0  0
  190.2920  175.2030  143.2140 N   0  0  0  0  0  0  0  0  0  0  0  0
  191.4190  173.0580  143.4920 C   0  0  0  0  0  0  0  0  0  0  0  0
  192.2520  173.5410  144.5620 N   0  0  0  0  0  2  0  0  0  0  0  0
  188.7480  173.9590  141.2190 N   0  0  0  0  0  0  0  0  0  0  0  0
  190.7950  169.6780  141.6220 C   0  0  0  0  0  1  0  0  0  0  0  0
  190.9080  174.8320  146.1370 C   0  0  0  0  0  2  0  0  0  0  0  0
  190.4940  178.1400  143.1280 C   0  0  0  0  0  1  0  0  0  0  0  0
  189.7970  171.8570  141.4690 N   0  0  0  0  0  0  0  0  0  0  0  0
  190.4970  173.8250  142.8710 C   0  0  0  0  0  0  0  0  0  0  0  0
  190.6920  171.1030  142.0280 C   0  0  0  0  0  0  0  0  0  0  0  0
  188.5590  175.3380  141.5600 C   0  0  0  0  0  0  0  0  0  0  0  0
  188.8670  177.0800  145.4590 C   0  0  0  0  0  0  0  0  0  0  0  0
  189.6510  173.2350  141.8100 C   0  0  0  0  0  0  0  0  0  0  0  0
  189.1880  177.3630  143.0430 C   0  0  1  0  0  3  0  0  0  0  0  0
  189.4000  175.9380  142.6170 C   0  0  0  0  0  0  0  0  0  0  0  0
  187.6820  176.0190  140.9670 O   0  0  0  0  0  0  0  0  0  0  0  0
  190.7440  176.2110  146.7590 C   0  0  1  0  0  3  0  0  0  0  0  0
  192.1420  174.8180  145.2560 C   0  0  0  0  0  2  0  0  0  0  0  0
  189.3410  176.7060  146.6180 C   0  0  0  0  0  3  0  0  0  0  0  0
  186.6840  178.6980  145.4040 F   0  0  0  0  0  0  0  0  0  0  0  0
  186.0840  176.9310  144.1410 F   0  0  0  0  0  0  0  0  0  0  0  0
  186.7950  178.8250  143.1600 F   0  0  0  0  0  0  0  0  0  0  0  0
  186.9670  177.9900  144.2490 C   0  0  0  0  0  0  0  0  0  0  0  0
  191.1790  176.2040  148.2210 C   0  0  0  0  0  2  0  0  0  0  0  0
  191.4950  177.5460  148.6850 N   0  0  0  0  0  1  0  0  0  0  0  0
  1  4  1  0  0  0  0
  2 14  2  0  0  0  0
  4  5  1  0  0  0  0
  5 20  1  0  0  0  0
  6 13  1  0  0  0  0
  6 15  2  0  0  0  0
  7 12  1  0  0  0  0
  8 19  1  0  0  0  0
 10 15  1  0  0  0  0
 10 12  2  0  0  0  0
 11  3  1  0  0  0  0
 11  4  2  0  0  0  0
 12  1  1  0  0  0  0
 13 17  1  0  0  0  0
 14 21  2  0  0  0  0
 15 11  1  0  0  0  0
 16  9  1  1  0  0  0
 16  2  1  0  0  0  0
 17 16  1  0  0  0  0
 17  3  2  0  0  0  0
 18 13  2  0  0  0  0
 19 26  1  1  0  0  0
 20  8  1  0  0  0  0
 21 19  1  0  0  0  0
 23 25  1  0  0  0  0
 24 25  1  0  0  0  0
 25  2  1  0  0  0  0
 25 22  1  0  0  0  0
 26 27  1  0  0  0  0
M  END
>  <MODEL>
5

>  <REMARK>
 VINA RESULT:      -7.1      3.527      6.589
  Name = 
  2 active torsions:
  status: ('A' for Active; 'I' for Inactive)
    1  A    between atoms: C_2  and  C_26
    2  A    between atoms: C_18  and  C_24
                            x       y       z     vdW  Elec       q    Type
                         _______ _______ _______ _____ _____    ______ ____

>  <TORSDO>
F 2

$$$$
=
 OpenBabel11042414203D

 27 29  0  0  1  0  0  0  0  0999 V2000
  192.0490  175.3800  144.5970 C   0  0  0  0  0  2  0  0  0  0  0  0
  185.9580  178.4390  144.6100 C   0  0  0  0  0  0  0  0  0  0  0  0
  188.4090  176.4840  145.0100 N   0  0  0  0  0  0  0  0  0  0  0  0
  190.5880  175.6390  144.3100 C   0  0  0  0  0  0  0  0  0  0  0  0
  190.0720  175.0820  143.0880 N   0  0  0  0  0  2  0  0  0  0  0  0
  189.7150  177.5410  147.2670 N   0  0  0  0  0  0  0  0  0  0  0  0
  194.0640  176.0100  146.0720 C   0  0  0  0  0  1  0  0  0  0  0  0
  188.5850  176.6890  142.0120 C   0  0  0  0  0  2  0  0  0  0  0  0
  185.5060  176.0400  145.2160 C   0  0  0  0  0  1  0  0  0  0  0  0
  191.8480  176.7610  146.6180 N   0  0  0  0  0  0  0  0  0  0  0  0
  189.8200  176.3040  145.2010 C   0  0  0  0  0  0  0  0  0  0  0  0
  192.6070  176.1060  145.7950 C   0  0  0  0  0  0  0  0  0  0  0  0
  188.3050  177.7060  147.0720 C   0  0  0  0  0  0  0  0  0  0  0  0
  186.2820  178.2990  143.3460 C   0  0  0  0  0  0  0  0  0  0  0  0
  190.4410  176.8840  146.4120 C   0  0  0  0  0  0  0  0  0  0  0  0
  186.2100  177.3330  145.6000 C   0  0  1  0  0  3  0  0  0  0  0  0
  187.6730  177.1280  145.8670 C   0  0  0  0  0  0  0  0  0  0  0  0
  187.6220  178.3400  147.9180 O   0  0  0  0  0  0  0  0  0  0  0  0
  187.1530  176.9030  141.5410 C   0  0  1  0  0  3  0  0  0  0  0  0
  188.7400  175.2710  142.5280 C   0  0  0  0  0  2  0  0  0  0  0  0
  186.5900  178.1770  142.0820 C   0  0  0  0  0  3  0  0  0  0  0  0
  184.0000  179.5810  145.2740 F   0  0  0  0  0  0  0  0  0  0  0  0
  185.5660  180.7120  144.1120 F   0  0  0  0  0  0  0  0  0  0  0  0
  185.9420  180.1530  146.2580 F   0  0  0  0  0  0  0  0  0  0  0  0
  185.3600  179.7370  145.0730 C   0  0  0  0  0  0  0  0  0  0  0  0
  187.0710  176.8700  140.0180 C   0  0  0  0  0  2  0  0  0  0  0  0
  185.8710  177.5400  139.5390 N   0  0  0  0  0  1  0  0  0  0  0  0
  1 12  1  0  0  0  0
  2 25  1  0  0  0  0
  2 16  1  0  0  0  0
  3 11  1  0  0  0  0
  3 17  2  0  0  0  0
  4  1  1  0  0  0  0
  4 11  2  0  0  0  0
  5  4  1  0  0  0  0
  8 20  1  0  0  0  0
 11 15  1  0  0  0  0
 12  7  1  0  0  0  0
 12 10  2  0  0  0  0
 13  6  1  0  0  0  0
 13 18  2  0  0  0  0
 14  2  2  0  0  0  0
 15 10  1  0  0  0  0
 15  6  2  0  0  0  0
 16  9  1  6  0  0  0
 16 17  1  0  0  0  0
 17 13  1  0  0  0  0
 19 26  1  6  0  0  0
 19  8  1  0  0  0  0
 19 21  1  0  0  0  0
 20  5  1  0  0  0  0
 21 14  2  0  0  0  0
 23 25  1  0  0  0  0
 25 22  1  0  0  0  0
 25 24  1  0  0  0  0
 27 26  1  0  0  0  0
M  END
>  <MODEL>
6

>  <REMARK>
 VINA RESULT:      -7.1      3.070      5.914
  Name = 
  2 active torsions:
  status: ('A' for Active; 'I' for Inactive)
    1  A    between atoms: C_2  and  C_26
    2  A    between atoms: C_18  and  C_24
                            x       y       z     vdW  Elec       q    Type
                         _______ _______ _______ _____ _____    ______ ____

>  <TORSDO>
F 2

$$$$
=
 OpenBabel11042414203D

 27 29  0  0  1  0  0  0  0  0999 V2000
  186.5240  178.3320  145.5650 C   0  0  0  0  0  2  0  0  0  0  0  0
  191.3370  174.3070  142.9030 C   0  0  0  0  0  0  0  0  0  0  0  0
  188.7610  175.5030  144.2900 N   0  0  0  0  0  0  0  0  0  0  0  0
  187.6340  177.3110  145.4780 C   0  0  0  0  0  0  0  0  0  0  0  0
  188.4550  177.1630  146.6510 N   0  0  0  0  0  2  0  0  0  0  0  0
  187.0710  176.0840  142.1170 N   0  0  0  0  0  0  0  0  0  0  0  0
  184.7640  179.6680  144.2430 C   0  0  0  0  0  1  0  0  0  0  0  0
  190.7930  176.9230  145.9980 C   0  0  0  0  0  2  0  0  0  0  0  0
  189.9590  172.8150  144.3860 C   0  0  0  0  0  1  0  0  0  0  0  0
  185.9670  177.8570  143.2210 N   0  0  0  0  0  0  0  0  0  0  0  0
  187.7820  176.5500  144.3720 C   0  0  0  0  0  0  0  0  0  0  0  0
  185.7830  178.5870  144.2770 C   0  0  0  0  0  0  0  0  0  0  0  0
  188.0440  175.0340  142.0490 C   0  0  0  0  0  0  0  0  0  0  0  0
  191.9460  175.0350  143.8110 C   0  0  0  0  0  0  0  0  0  0  0  0
  186.9250  176.7990  143.1930 C   0  0  0  0  0  0  0  0  0  0  0  0
  189.9750  173.7230  143.1650 C   0  0  1  0  0  3  0  0  0  0  0  0
  188.9040  174.7740  143.2220 C   0  0  0  0  0  0  0  0  0  0  0  0
  188.1610  174.3510  140.9970 O   0  0  0  0  0  0  0  0  0  0  0  0
  191.9890  175.9830  146.0610 C   0  0  1  0  0  3  0  0  0  0  0  0
  189.6440  176.3340  146.7940 C   0  0  0  0  0  2  0  0  0  0  0  0
  192.5710  175.7540  144.7040 C   0  0  0  0  0  3  0  0  0  0  0  0
  192.7580  172.9310  141.6120 F   0  0  0  0  0  0  0  0  0  0  0  0
  192.8330  175.1610  141.2900 F   0  0  0  0  0  0  0  0  0  0  0  0
  191.0640  173.9780  140.5640 F   0  0  0  0  0  0  0  0  0  0  0  0
  192.0030  174.0900  141.5740 C   0  0  0  0  0  0  0  0  0  0  0  0
  193.0440  176.5100  147.0290 C   0  0  0  0  0  2  0  0  0  0  0  0
  194.2530  176.9100  146.3260 N   0  0  0  0  0  1  0  0  0  0  0  0
  2 16  1  0  0  0  0
  2 14  2  0  0  0  0
  3 11  1  0  0  0  0
  4  1  1  0  0  0  0
  4  5  1  0  0  0  0
  5 20  1  0  0  0  0
  6 15  2  0  0  0  0
  7 12  1  0  0  0  0
  8 19  1  0  0  0  0
  8 20  1  0  0  0  0
 10 12  2  0  0  0  0
 11  4  2  0  0  0  0
 12  1  1  0  0  0  0
 13  6  1  0  0  0  0
 13 17  1  0  0  0  0
 14 21  2  0  0  0  0
 15 10  1  0  0  0  0
 15 11  1  0  0  0  0
 16 17  1  0  0  0  0
 16  9  1  1  0  0  0
 17  3  2  0  0  0  0
 18 13  2  0  0  0  0
 19 26  1  1  0  0  0
 21 19  1  0  0  0  0
 23 25  1  0  0  0  0
 24 25  1  0  0  0  0
 25 22  1  0  0  0  0
 25  2  1  0  0  0  0
 27 26  1  0  0  0  0
M  END
>  <MODEL>
7

>  <REMARK>
 VINA RESULT:      -6.9      3.508      5.241
  Name = 
  2 active torsions:
  status: ('A' for Active; 'I' for Inactive)
    1  A    between atoms: C_2  and  C_26
    2  A    between atoms: C_18  and  C_24
                            x       y       z     vdW  Elec       q    Type
                         _______ _______ _______ _____ _____    ______ ____

>  <TORSDO>
F 2

$$$$
=
 OpenBabel11042414203D

 27 29  0  0  1  0  0  0  0  0999 V2000
  191.8270  172.6890  140.7470 C   0  0  0  0  0  2  0  0  0  0  0  0
  188.9100  176.6870  145.4320 C   0  0  0  0  0  0  0  0  0  0  0  0
  190.1580  175.4460  142.8070 N   0  0  0  0  0  0  0  0  0  0  0  0
  191.6250  173.8360  141.7080 C   0  0  0  0  0  0  0  0  0  0  0  0
  192.8190  174.4310  142.2480 N   0  0  0  0  0  2  0  0  0  0  0  0
  188.0080  174.0230  141.6820 N   0  0  0  0  0  0  0  0  0  0  0  0
  190.6870  170.7580  139.4800 C   0  0  0  0  0  1  0  0  0  0  0  0
  192.5020  174.9130  144.6180 C   0  0  0  0  0  2  0  0  0  0  0  0
  189.6610  178.2380  143.6000 C   0  0  0  0  0  1  0  0  0  0  0  0
  189.3880  172.4290  140.6180 N   0  0  0  0  0  0  0  0  0  0  0  0
  190.3840  174.2970  141.9760 C   0  0  0  0  0  0  0  0  0  0  0  0
  190.5680  171.9780  140.3200 C   0  0  0  0  0  0  0  0  0  0  0  0
  187.7940  175.1780  142.5030 C   0  0  0  0  0  0  0  0  0  0  0  0
  190.0750  176.3440  145.9340 C   0  0  0  0  0  0  0  0  0  0  0  0
  189.2070  173.5980  141.4160 C   0  0  0  0  0  0  0  0  0  0  0  0
  188.7730  177.0620  143.9810 C   0  0  1  0  0  3  0  0  0  0  0  0
  188.9620  175.8850  143.0670 C   0  0  0  0  0  0  0  0  0  0  0  0
  186.6220  175.5730  142.7410 O   0  0  0  0  0  0  0  0  0  0  0  0
  192.4800  176.0370  145.6440 C   0  0  1  0  0  3  0  0  0  0  0  0
  192.9030  175.4700  143.2650 C   0  0  0  0  0  2  0  0  0  0  0  0
  191.2240  176.0070  146.4540 C   0  0  0  0  0  3  0  0  0  0  0  0
  187.7930  175.6210  147.2200 F   0  0  0  0  0  0  0  0  0  0  0  0
  186.5610  176.4990  145.5490 F   0  0  0  0  0  0  0  0  0  0  0  0
  187.5840  177.8530  147.0240 F   0  0  0  0  0  0  0  0  0  0  0  0
  187.6980  176.6680  146.3200 C   0  0  0  0  0  0  0  0  0  0  0  0
  193.7130  175.9810  146.5410 C   0  0  0  0  0  2  0  0  0  0  0  0
  194.5290  177.1760  146.3920 N   0  0  0  0  0  1  0  0  0  0  0  0
  1  4  1  0  0  0  0
  2 14  2  0  0  0  0
  2 25  1  0  0  0  0
  3 17  2  0  0  0  0
  4 11  2  0  0  0  0
  4  5  1  0  0  0  0
  5 20  1  0  0  0  0
  6 13  1  0  0  0  0
  7 12  1  0  0  0  0
  8 19  1  0  0  0  0
 10 15  1  0  0  0  0
 11  3  1  0  0  0  0
 12 10  2  0  0  0  0
 12  1  1  0  0  0  0
 13 18  2  0  0  0  0
 13 17  1  0  0  0  0
 14 21  2  0  0  0  0
 15  6  2  0  0  0  0
 15 11  1  0  0  0  0
 16  9  1  6  0  0  0
 16  2  1  0  0  0  0
 17 16  1  0  0  0  0
 19 21  1  0  0  0  0
 19 26  1  1  0  0  0
 20  8  1  0  0  0  0
 23 25  1  0  0  0  0
 25 24  1  0  0  0  0
 25 22  1  0  0  0  0
 27 26  1  0  0  0  0
M  END
>  <MODEL>
8

>  <REMARK>
 VINA RESULT:      -6.9      3.333      5.920
  Name = 
  2 active torsions:
  status: ('A' for Active; 'I' for Inactive)
    1  A    between atoms: C_2  and  C_26
    2  A    between atoms: C_18  and  C_24
                            x       y       z     vdW  Elec       q    Type
                         _______ _______ _______ _____ _____    ______ ____

>  <TORSDO>
F 2

$$$$
=
 OpenBabel11042414203D

 27 29  0  0  1  0  0  0  0  0999 V2000
  185.3570  177.7450  145.4470 C   0  0  0  0  0  2  0  0  0  0  0  0
  191.4040  175.1560  143.6600 C   0  0  0  0  0  0  0  0  0  0  0  0
  188.3770  175.6220  144.4460 N   0  0  0  0  0  0  0  0  0  0  0  0
  186.6440  176.9570  145.5230 C   0  0  0  0  0  0  0  0  0  0  0  0
  187.1710  176.7280  146.8420 N   0  0  0  0  0  2  0  0  0  0  0  0
  187.1750  176.3150  141.9990 N   0  0  0  0  0  0  0  0  0  0  0  0
  183.7260  178.9950  143.8950 C   0  0  0  0  0  1  0  0  0  0  0  0
  189.5940  177.0090  146.8240 C   0  0  0  0  0  2  0  0  0  0  0  0
  190.0550  173.2010  144.4870 C   0  0  0  0  0  1  0  0  0  0  0  0
  185.4910  177.6360  142.9970 N   0  0  0  0  0  0  0  0  0  0  0  0
  187.2100  176.4550  144.4040 C   0  0  0  0  0  0  0  0  0  0  0  0
  184.9100  178.1120  144.0540 C   0  0  0  0  0  0  0  0  0  0  0  0
  188.3350  175.4740  142.0520 C   0  0  0  0  0  0  0  0  0  0  0  0
  191.6090  175.7890  144.7920 C   0  0  0  0  0  0  0  0  0  0  0  0
  186.6280  176.7780  143.0830 C   0  0  0  0  0  0  0  0  0  0  0  0
  190.1720  174.3150  143.4570 C   0  0  1  0  0  3  0  0  0  0  0  0
  188.9230  175.1430  143.3660 C   0  0  0  0  0  0  0  0  0  0  0  0
  188.8420  175.0320  140.9870 O   0  0  0  0  0  0  0  0  0  0  0  0
  190.9090  176.2870  147.0790 C   0  0  1  0  0  3  0  0  0  0  0  0
  188.4380  176.0960  147.1870 C   0  0  0  0  0  2  0  0  0  0  0  0
  191.8350  176.4200  145.9130 C   0  0  0  0  0  3  0  0  0  0  0  0
  192.7240  176.6460  142.3890 F   0  0  0  0  0  0  0  0  0  0  0  0
  191.8540  174.8350  141.3660 F   0  0  0  0  0  0  0  0  0  0  0  0
  193.5550  174.5990  142.8170 F   0  0  0  0  0  0  0  0  0  0  0  0
  192.4000  175.3100  142.5460 C   0  0  0  0  0  0  0  0  0  0  0  0
  191.5660  176.7880  148.3620 C   0  0  0  0  0  2  0  0  0  0  0  0
  190.9220  177.9990  148.8470 N   0  0  0  0  0  1  0  0  0  0  0  0
  1  4  1  0  0  0  0
  2 14  2  0  0  0  0
  4  5  1  0  0  0  0
  5 20  1  0  0  0  0
  6 13  1  0  0  0  0
  6 15  2  0  0  0  0
  7 12  1  0  0  0  0
  8 19  1  0  0  0  0
  8 20  1  0  0  0  0
 10 15  1  0  0  0  0
 10 12  2  0  0  0  0
 11  3  1  0  0  0  0
 11  4  2  0  0  0  0
 12  1  1  0  0  0  0
 13 17  1  0  0  0  0
 14 21  2  0  0  0  0
 15 11  1  0  0  0  0
 16  2  1  0  0  0  0
 16  9  1  1  0  0  0
 17 16  1  0  0  0  0
 17  3  2  0  0  0  0
 18 13  2  0  0  0  0
 19 26  1  1  0  0  0
 21 19  1  0  0  0  0
 22 25  1  0  0  0  0
 23 25  1  0  0  0  0
 25 24  1  0  0  0  0
 25  2  1  0  0  0  0
 26 27  1  0  0  0  0
M  END
>  <MODEL>
9

>  <REMARK>
 VINA RESULT:      -6.9      3.235      5.109
  Name = 
  2 active torsions:
  status: ('A' for Active; 'I' for Inactive)
    1  A    between atoms: C_2  and  C_26
    2  A    between atoms: C_18  and  C_24
                            x       y       z     vdW  Elec       q    Type
                         _______ _______ _______ _____ _____    ______ ____

>  <TORSDO>
F 2

$$$$
