=
 OpenBabel11042413443D

 30 34  0  0  1  0  0  0  0  0999 V2000
  189.5150  173.7170  140.9370 C   0  0  0  0  0  0  0  0  0  0  0  0
  188.2190  174.1650  138.8170 C   0  0  0  0  0  0  0  0  0  0  0  0
  186.5160  177.7070  143.3450 C   0  0  2  0  0  3  0  0  0  0  0  0
  188.9610  174.6970  147.6070 C   0  0  0  0  0  1  0  0  0  0  0  0
  187.3250  176.1960  139.4780 N   0  0  0  0  0  0  0  0  0  0  0  0
  188.8620  175.3230  142.7860 C   0  0  1  0  0  3  0  0  0  0  0  0
  188.6000  174.4230  140.0500 C   0  0  2  0  0  3  0  0  0  0  0  0
  187.3320  175.2700  138.3410 C   0  0  0  0  0  3  0  0  0  0  0  0
  189.7400  174.2770  142.2340 N   0  0  0  0  0  2  0  0  0  0  0  0
  191.5110  176.5830  145.3650 C   0  0  0  0  0  2  0  0  0  0  0  0
  189.6890  175.0410  146.3190 C   0  0  2  0  0  3  0  0  0  0  0  0
  191.0260  175.9540  144.0620 C   0  0  0  0  0  2  0  0  0  0  0  0
  186.0530  176.6600  144.3450 C   0  0  0  0  0  2  0  0  0  0  0  0
  190.9640  175.8550  146.6000 C   0  0  1  0  0  3  0  0  0  0  0  0
  188.0160  175.6720  140.4380 C   0  0  0  0  0  0  0  0  0  0  0  0
  189.4950  176.0380  143.9830 C   0  0  2  0  0  3  0  0  0  0  0  0
  191.9500  175.0150  147.1180 O   0  0  0  0  0  1  0  0  0  0  0  0
  188.1180  176.9820  145.8180 C   0  0  0  0  0  2  0  0  0  0  0  0
  188.5970  173.0550  138.0750 O   0  0  0  0  0  1  0  0  0  0  0  0
  185.8150  177.5590  142.1430 C   0  0  0  0  0  0  0  0  0  0  0  0
  187.1610  177.0570  142.2870 C   0  0  0  0  0  0  0  0  0  0  0  0
  190.1270  172.6790  140.5700 O   0  0  0  0  0  0  0  0  0  0  0  0
  188.3600  176.3490  141.7370 C   0  0  1  0  0  3  0  0  0  0  0  0
  186.5920  176.9300  145.7480 C   0  0  0  0  0  2  0  0  0  0  0  0
  188.7600  175.7020  145.2870 C   0  0  2  0  0  3  0  0  0  0  0  0
  184.6400  177.7420  141.3560 N   0  0  0  0  0  2  0  0  0  0  0  0
  182.2860  178.4030  141.0580 N   0  0  0  0  0  2  0  0  0  0  0  0
  181.0190  178.9110  141.5550 C   0  0  0  0  0  1  0  0  0  0  0  0
  183.3520  178.5510  143.1280 O   0  0  0  0  0  0  0  0  0  0  0  0
  183.4230  178.2470  141.9060 C   0  0  0  0  0  0  0  0  0  0  0  0
  1  9  1  0  0  0  0
  3 13  1  1  0  0  0
  5 15  2  0  0  0  0
  6  9  1  6  0  0  0
  6 16  1  0  0  0  0
  7  2  1  6  0  0  0
  7 15  1  0  0  0  0
  7  1  1  0  0  0  0
  8  2  2  0  0  0  0
  8  5  1  0  0  0  0
 10 14  1  0  0  0  0
 11 14  1  0  0  0  0
 11  4  1  1  0  0  0
 12 10  1  0  0  0  0
 13 24  1  0  0  0  0
 14 17  1  6  0  0  0
 16 12  1  1  0  0  0
 16 25  1  0  0  0  0
 19  2  1  0  0  0  0
 20 21  2  0  0  0  0
 20  3  1  0  0  0  0
 21  3  1  0  0  0  0
 22  1  2  0  0  0  0
 23 15  1  6  0  0  0
 23 21  1  0  0  0  0
 23  6  1  0  0  0  0
 24 18  1  0  0  0  0
 25 18  1  1  0  0  0
 25 11  1  0  0  0  0
 26 30  1  0  0  0  0
 26 20  1  0  0  0  0
 27 28  1  0  0  0  0
 27 30  1  0  0  0  0
 30 29  2  0  0  0  0
M  END
>  <MODEL>
1

>  <REMARK>
 VINA RESULT:      -8.4      0.000      0.000
  Name = 
  1 active torsions:
  status: ('A' for Active; 'I' for Inactive)
    1  A    between atoms: N_2  and  C_24
                            x       y       z     vdW  Elec       q    Type
                         _______ _______ _______ _____ _____    ______ ____

>  <TORSDO>
F 1

$$$$
=
 OpenBabel11042413443D

 30 34  0  0  1  0  0  0  0  0999 V2000
  188.1810  175.7420  141.0900 C   0  0  0  0  0  0  0  0  0  0  0  0
  186.5400  176.8770  139.5430 C   0  0  0  0  0  0  0  0  0  0  0  0
  185.9570  178.6770  145.2330 C   0  0  2  0  0  3  0  0  0  0  0  0
  188.9600  174.4070  147.6760 C   0  0  0  0  0  1  0  0  0  0  0  0
  185.9220  178.5630  141.0040 N   0  0  0  0  0  0  0  0  0  0  0  0
  187.9940  176.6260  143.4590 C   0  0  1  0  0  3  0  0  0  0  0  0
  187.1630  176.7040  140.6900 C   0  0  2  0  0  3  0  0  0  0  0  0
  185.6540  178.0760  139.6480 C   0  0  0  0  0  3  0  0  0  0  0  0
  188.6820  175.8310  142.4270 N   0  0  0  0  0  2  0  0  0  0  0  0
  191.1590  176.9470  145.7250 C   0  0  0  0  0  2  0  0  0  0  0  0
  189.4530  175.1680  146.4580 C   0  0  2  0  0  3  0  0  0  0  0  0
  190.3970  176.7940  144.4120 C   0  0  0  0  0  2  0  0  0  0  0  0
  185.6240  177.3520  145.9000 C   0  0  0  0  0  2  0  0  0  0  0  0
  190.8080  175.8420  146.7320 C   0  0  1  0  0  3  0  0  0  0  0  0
  186.7460  177.7470  141.5780 C   0  0  0  0  0  0  0  0  0  0  0  0
  188.8870  176.8960  144.6720 C   0  0  2  0  0  3  0  0  0  0  0  0
  191.8170  174.8790  146.7340 O   0  0  0  0  0  1  0  0  0  0  0  0
  187.9460  177.1610  146.9530 C   0  0  0  0  0  2  0  0  0  0  0  0
  186.6980  176.0840  138.4150 O   0  0  0  0  0  1  0  0  0  0  0  0
  185.0340  178.9410  144.2150 C   0  0  0  0  0  0  0  0  0  0  0  0
  186.3480  178.4240  143.9130 C   0  0  0  0  0  0  0  0  0  0  0  0
  188.6440  174.8910  140.2850 O   0  0  0  0  0  0  0  0  0  0  0  0
  187.3720  177.9450  142.9320 C   0  0  1  0  0  3  0  0  0  0  0  0
  186.4340  177.1330  147.1760 C   0  0  0  0  0  2  0  0  0  0  0  0
  188.3910  176.1370  145.9110 C   0  0  2  0  0  3  0  0  0  0  0  0
  183.7470  179.3770  143.7850 N   0  0  0  0  0  2  0  0  0  0  0  0
  181.7080  179.1660  142.4180 N   0  0  0  0  0  2  0  0  0  0  0  0
  180.8890  178.4950  141.4230 C   0  0  0  0  0  1  0  0  0  0  0  0
  183.4500  177.6200  142.2750 O   0  0  0  0  0  0  0  0  0  0  0  0
  182.9900  178.6700  142.8010 C   0  0  0  0  0  0  0  0  0  0  0  0
  1  9  1  0  0  0  0
  2  8  2  0  0  0  0
  3 13  1  1  0  0  0
  5 15  2  0  0  0  0
  6  9  1  6  0  0  0
  6 16  1  0  0  0  0
  7  2  1  6  0  0  0
  7  1  1  0  0  0  0
  7 15  1  0  0  0  0
  8  5  1  0  0  0  0
 10 14  1  0  0  0  0
 11 14  1  0  0  0  0
 11  4  1  1  0  0  0
 12 10  1  0  0  0  0
 13 24  1  0  0  0  0
 14 17  1  6  0  0  0
 16 12  1  6  0  0  0
 16 25  1  0  0  0  0
 18 24  1  0  0  0  0
 19  2  1  0  0  0  0
 20  3  1  0  0  0  0
 21 20  2  0  0  0  0
 21  3  1  0  0  0  0
 22  1  2  0  0  0  0
 23 15  1  6  0  0  0
 23  6  1  0  0  0  0
 23 21  1  0  0  0  0
 25 11  1  0  0  0  0
 25 18  1  1  0  0  0
 26 20  1  0  0  0  0
 27 30  1  0  0  0  0
 28 27  1  0  0  0  0
 29 30  2  0  0  0  0
 30 26  1  0  0  0  0
M  END
>  <MODEL>
2

>  <REMARK>
 VINA RESULT:      -8.3      1.600      2.066
  Name = 
  1 active torsions:
  status: ('A' for Active; 'I' for Inactive)
    1  A    between atoms: N_2  and  C_24
                            x       y       z     vdW  Elec       q    Type
                         _______ _______ _______ _____ _____    ______ ____

>  <TORSDO>
F 1

$$$$
=
 OpenBabel11042413443D

 30 34  0  0  1  0  0  0  0  0999 V2000
  190.5950  173.7890  141.5410 C   0  0  0  0  0  0  0  0  0  0  0  0
  188.7190  173.9230  139.8560 C   0  0  0  0  0  0  0  0  0  0  0  0
  187.8430  177.5330  144.5620 C   0  0  2  0  0  3  0  0  0  0  0  0
  191.7530  175.1550  148.0640 C   0  0  0  0  0  1  0  0  0  0  0  0
  187.7670  175.8680  140.6740 N   0  0  0  0  0  0  0  0  0  0  0  0
  190.2540  175.4260  143.4460 C   0  0  1  0  0  3  0  0  0  0  0  0
  189.3830  174.3110  140.9240 C   0  0  2  0  0  3  0  0  0  0  0  0
  187.5920  174.8730  139.6110 C   0  0  0  0  0  3  0  0  0  0  0  0
  191.0850  174.4610  142.7040 N   0  0  0  0  0  2  0  0  0  0  0  0
  193.3050  177.1830  145.1370 C   0  0  0  0  0  2  0  0  0  0  0  0
  192.0470  175.4960  146.6130 C   0  0  2  0  0  3  0  0  0  0  0  0
  192.5760  176.4090  144.0430 C   0  0  0  0  0  2  0  0  0  0  0  0
  187.8210  176.5090  145.6850 C   0  0  0  0  0  2  0  0  0  0  0  0
  193.2230  176.4800  146.5000 C   0  0  1  0  0  3  0  0  0  0  0  0
  188.7600  175.5030  141.4190 C   0  0  0  0  0  0  0  0  0  0  0  0
  191.0850  176.2960  144.3930 C   0  0  2  0  0  3  0  0  0  0  0  0
  194.4200  175.8080  146.7470 O   0  0  0  0  0  1  0  0  0  0  0  0
  190.1440  177.1870  146.5100 C   0  0  0  0  0  2  0  0  0  0  0  0
  189.0310  172.8200  139.0730 O   0  0  0  0  0  1  0  0  0  0  0  0
  186.8680  177.2150  143.6100 C   0  0  0  0  0  0  0  0  0  0  0  0
  188.2590  176.8960  143.3870 C   0  0  0  0  0  0  0  0  0  0  0  0
  191.2210  172.8120  141.0510 O   0  0  0  0  0  0  0  0  0  0  0  0
  189.3480  176.3060  142.5470 C   0  0  1  0  0  3  0  0  0  0  0  0
  188.6790  176.9410  146.8720 C   0  0  0  0  0  2  0  0  0  0  0  0
  190.7880  175.9630  145.8620 C   0  0  2  0  0  3  0  0  0  0  0  0
  185.5090  177.1950  143.1780 N   0  0  0  0  0  2  0  0  0  0  0  0
  183.6880  177.8430  141.6510 N   0  0  0  0  0  2  0  0  0  0  0  0
  183.1710  178.5450  140.4890 C   0  0  0  0  0  1  0  0  0  0  0  0
  185.8760  178.5900  141.3410 O   0  0  0  0  0  0  0  0  0  0  0  0
  185.0640  177.9080  142.0240 C   0  0  0  0  0  0  0  0  0  0  0  0
  1  9  1  0  0  0  0
  3 13  1  1  0  0  0
  5 15  2  0  0  0  0
  6  9  1  6  0  0  0
  6 16  1  0  0  0  0
  7  2  1  6  0  0  0
  7 15  1  0  0  0  0
  7  1  1  0  0  0  0
  8  2  2  0  0  0  0
  8  5  1  0  0  0  0
 10 14  1  0  0  0  0
 11  4  1  1  0  0  0
 12 10  1  0  0  0  0
 13 24  1  0  0  0  0
 14 11  1  0  0  0  0
 14 17  1  6  0  0  0
 16 12  1  6  0  0  0
 16 25  1  0  0  0  0
 18 24  1  0  0  0  0
 19  2  1  0  0  0  0
 20  3  1  0  0  0  0
 21 20  2  0  0  0  0
 21  3  1  0  0  0  0
 22  1  2  0  0  0  0
 23 15  1  6  0  0  0
 23 21  1  0  0  0  0
 23  6  1  0  0  0  0
 25 18  1  1  0  0  0
 25 11  1  0  0  0  0
 26 20  1  0  0  0  0
 27 30  1  0  0  0  0
 28 27  1  0  0  0  0
 29 30  2  0  0  0  0
 30 26  1  0  0  0  0
M  END
>  <MODEL>
3

>  <REMARK>
 VINA RESULT:      -8.0      1.451      1.895
  Name = 
  1 active torsions:
  status: ('A' for Active; 'I' for Inactive)
    1  A    between atoms: N_2  and  C_24
                            x       y       z     vdW  Elec       q    Type
                         _______ _______ _______ _____ _____    ______ ____

>  <TORSDO>
F 1

$$$$
=
 OpenBabel11042413443D

 30 34  0  0  1  0  0  0  0  0999 V2000
  191.0660  173.4360  141.4530 C   0  0  0  0  0  0  0  0  0  0  0  0
  188.5560  173.6910  141.3770 C   0  0  0  0  0  0  0  0  0  0  0  0
  191.0430  176.7550  145.8910 C   0  0  2  0  0  3  0  0  0  0  0  0
  196.1760  174.1360  145.8300 C   0  0  0  0  0  1  0  0  0  0  0  0
  188.4320  175.5090  142.8050 N   0  0  0  0  0  0  0  0  0  0  0  0
  192.0930  174.8500  143.2890 C   0  0  1  0  0  3  0  0  0  0  0  0
  189.7640  173.9840  141.8080 C   0  0  0  0  0  0  0  0  0  0  0  0
  187.5750  174.6280  142.0060 C   0  0  0  0  0  2  0  0  0  0  0  0
  192.2150  173.9950  142.0960 N   0  0  0  0  0  2  0  0  0  0  0  0
  195.5960  176.5090  142.8090 C   0  0  0  0  0  2  0  0  0  0  0  0
  195.4930  174.6380  144.5700 C   0  0  2  0  0  3  0  0  0  0  0  0
  194.3030  175.8340  142.3620 C   0  0  0  0  0  2  0  0  0  0  0  0
  191.6960  175.6170  146.6590 C   0  0  0  0  0  2  0  0  0  0  0  0
  196.3700  175.6630  143.8310 C   0  0  1  0  0  3  0  0  0  0  0  0
  189.6540  175.0970  142.7030 C   0  0  0  0  0  0  0  0  0  0  0  0
  193.3740  175.6390  143.5690 C   0  0  2  0  0  3  0  0  0  0  0  0
  197.4180  175.0040  143.1880 O   0  0  0  0  0  1  0  0  0  0  0  0
  194.0390  176.2730  145.8750 C   0  0  0  0  0  2  0  0  0  0  0  0
  188.2480  172.6860  140.4710 O   0  0  0  0  0  1  0  0  0  0  0  0
  189.6720  176.5100  145.7550 C   0  0  0  0  0  0  0  0  0  0  0  0
  190.5860  176.2580  144.6650 C   0  0  0  0  0  0  0  0  0  0  0  0
  191.1920  172.5350  140.5810 O   0  0  0  0  0  0  0  0  0  0  0  0
  190.8620  175.7930  143.2700 C   0  0  1  0  0  3  0  0  0  0  0  0
  193.1320  175.9460  147.0610 C   0  0  0  0  0  2  0  0  0  0  0  0
  194.0670  175.1440  144.8470 C   0  0  2  0  0  3  0  0  0  0  0  0
  188.3510  176.4950  146.2900 N   0  0  0  0  0  2  0  0  0  0  0  0
  186.0010  177.2330  146.3400 N   0  0  0  0  0  2  0  0  0  0  0  0
  184.8880  178.0230  145.8400 C   0  0  0  0  0  1  0  0  0  0  0  0
  187.5150  178.0570  144.7680 O   0  0  0  0  0  0  0  0  0  0  0  0
  187.2990  177.2980  145.7520 C   0  0  0  0  0  0  0  0  0  0  0  0
  1  7  1  0  0  0  0
  1  9  1  0  0  0  0
  2  7  2  0  0  0  0
  2  8  1  0  0  0  0
  3 13  1  1  0  0  0
  6  9  1  6  0  0  0
  6 16  1  0  0  0  0
  7 15  1  0  0  0  0
  8  5  1  0  0  0  0
 10 14  1  0  0  0  0
 11 25  1  0  0  0  0
 11  4  1  1  0  0  0
 12 10  1  0  0  0  0
 13 24  1  0  0  0  0
 14 17  1  6  0  0  0
 14 11  1  0  0  0  0
 15  5  2  0  0  0  0
 16 12  1  6  0  0  0
 16 25  1  0  0  0  0
 18 24  1  0  0  0  0
 19  2  1  0  0  0  0
 20  3  1  0  0  0  0
 20 26  1  0  0  0  0
 21 20  2  0  0  0  0
 21  3  1  0  0  0  0
 22  1  2  0  0  0  0
 23 15  1  1  0  0  0
 23  6  1  0  0  0  0
 23 21  1  0  0  0  0
 25 18  1  1  0  0  0
 28 27  1  0  0  0  0
 29 30  2  0  0  0  0
 30 26  1  0  0  0  0
 30 27  1  0  0  0  0
M  END
>  <MODEL>
4

>  <REMARK>
 VINA RESULT:      -7.8      3.100      4.830
  Name = 
  1 active torsions:
  status: ('A' for Active; 'I' for Inactive)
    1  A    between atoms: N_2  and  C_24
                            x       y       z     vdW  Elec       q    Type
                         _______ _______ _______ _____ _____    ______ ____

>  <TORSDO>
F 1

$$$$
=
 OpenBabel11042413443D

 30 34  0  0  1  0  0  0  0  0999 V2000
  190.3400  172.1970  144.2340 C   0  0  0  0  0  0  0  0  0  0  0  0
  192.6510  171.2020  144.0320 C   0  0  0  0  0  0  0  0  0  0  0  0
  192.7600  177.1660  144.6420 C   0  0  2  0  0  3  0  0  0  0  0  0
  187.2110  178.1400  143.4290 C   0  0  0  0  0  1  0  0  0  0  0  0
  193.8070  173.0690  144.7650 N   0  0  0  0  0  0  0  0  0  0  0  0
  190.4320  174.7000  144.6250 C   0  0  1  0  0  3  0  0  0  0  0  0
  191.7960  172.1740  144.2660 C   0  0  0  0  0  0  0  0  0  0  0  0
  194.0360  171.6980  144.3000 C   0  0  0  0  0  2  0  0  0  0  0  0
  189.6910  173.4270  144.5670 N   0  0  0  0  0  2  0  0  0  0  0  0
  187.7840  176.4660  146.8880 C   0  0  0  0  0  2  0  0  0  0  0  0
  187.6650  177.0520  144.3880 C   0  0  2  0  0  3  0  0  0  0  0  0
  188.5710  175.2840  146.3300 C   0  0  0  0  0  2  0  0  0  0  0  0
  191.9680  177.5750  143.4100 C   0  0  0  0  0  2  0  0  0  0  0  0
  187.0590  177.2530  145.7870 C   0  0  1  0  0  3  0  0  0  0  0  0
  192.5400  173.3200  144.6970 C   0  0  0  0  0  0  0  0  0  0  0  0
  189.6520  175.7900  145.3630 C   0  0  2  0  0  3  0  0  0  0  0  0
  185.7120  176.8920  145.7690 O   0  0  0  0  0  1  0  0  0  0  0  0
  189.9080  178.1920  144.7930 C   0  0  0  0  0  2  0  0  0  0  0  0
  192.3170  169.9190  143.6210 O   0  0  0  0  0  1  0  0  0  0  0  0
  193.8570  176.3840  144.2630 C   0  0  0  0  0  0  0  0  0  0  0  0
  192.6580  175.7790  144.7940 C   0  0  0  0  0  0  0  0  0  0  0  0
  189.6650  171.1660  143.9700 O   0  0  0  0  0  0  0  0  0  0  0  0
  191.8680  174.5720  145.1950 C   0  0  1  0  0  3  0  0  0  0  0  0
  190.9150  178.6340  143.7310 C   0  0  0  0  0  2  0  0  0  0  0  0
  189.1960  176.8980  144.4030 C   0  0  2  0  0  3  0  0  0  0  0  0
  195.1730  176.2610  143.7290 N   0  0  0  0  0  2  0  0  0  0  0  0
  196.7610  175.9090  141.8790 N   0  0  0  0  0  2  0  0  0  0  0  0
  197.0760  175.6660  140.4820 C   0  0  0  0  0  1  0  0  0  0  0  0
  194.4530  175.9100  141.5350 O   0  0  0  0  0  0  0  0  0  0  0  0
  195.4160  176.0220  142.3420 C   0  0  0  0  0  0  0  0  0  0  0  0
  1  7  1  0  0  0  0
  1  9  1  0  0  0  0
  2  7  2  0  0  0  0
  2  8  1  0  0  0  0
  3 13  1  6  0  0  0
  3 21  1  0  0  0  0
  6  9  1  1  0  0  0
  6 23  1  0  0  0  0
  6 16  1  0  0  0  0
  7 15  1  0  0  0  0
  8  5  1  0  0  0  0
 11  4  1  6  0  0  0
 11 25  1  0  0  0  0
 11 14  1  0  0  0  0
 12 10  1  0  0  0  0
 13 24  1  0  0  0  0
 14 17  1  6  0  0  0
 14 10  1  0  0  0  0
 15  5  2  0  0  0  0
 16 12  1  6  0  0  0
 19  2  1  0  0  0  0
 20  3  1  0  0  0  0
 20 21  2  0  0  0  0
 21 23  1  0  0  0  0
 22  1  2  0  0  0  0
 23 15  1  6  0  0  0
 24 18  1  0  0  0  0
 25 18  1  1  0  0  0
 25 16  1  0  0  0  0
 26 20  1  0  0  0  0
 27 30  1  0  0  0  0
 28 27  1  0  0  0  0
 29 30  2  0  0  0  0
 30 26  1  0  0  0  0
M  END
>  <MODEL>
5

>  <REMARK>
 VINA RESULT:      -7.4      4.133      7.462
  Name = 
  1 active torsions:
  status: ('A' for Active; 'I' for Inactive)
    1  A    between atoms: N_2  and  C_24
                            x       y       z     vdW  Elec       q    Type
                         _______ _______ _______ _____ _____    ______ ____

>  <TORSDO>
F 1

$$$$
=
 OpenBabel11042413443D

 30 34  0  0  1  0  0  0  0  0999 V2000
  189.6790  177.9010  147.6630 C   0  0  0  0  0  0  0  0  0  0  0  0
  187.1780  178.2430  147.6060 C   0  0  0  0  0  0  0  0  0  0  0  0
  189.1510  174.9410  143.0070 C   0  0  2  0  0  3  0  0  0  0  0  0
  194.7410  176.2620  143.4850 C   0  0  0  0  0  1  0  0  0  0  0  0
  186.7210  176.5910  146.0510 N   0  0  0  0  0  0  0  0  0  0  0  0
  190.4570  176.3910  145.7810 C   0  0  1  0  0  3  0  0  0  0  0  0
  188.3090  177.6980  147.2110 C   0  0  2  0  0  3  0  0  0  0  0  0
  186.0460  177.6030  146.8690 C   0  0  0  0  0  3  0  0  0  0  0  0
  190.7020  177.1230  147.0360 N   0  0  0  0  0  2  0  0  0  0  0  0
  193.4410  173.9250  146.3030 C   0  0  0  0  0  2  0  0  0  0  0  0
  193.8840  175.8650  144.6750 C   0  0  2  0  0  3  0  0  0  0  0  0
  192.3160  174.8610  146.7370 C   0  0  0  0  0  2  0  0  0  0  0  0
  190.0970  175.9330  142.3510 C   0  0  0  0  0  2  0  0  0  0  0  0
  194.4510  174.6210  145.3800 C   0  0  1  0  0  3  0  0  0  0  0  0
  187.9970  176.6950  146.2370 C   0  0  0  0  0  0  0  0  0  0  0  0
  191.5330  175.3380  145.5050 C   0  0  2  0  0  3  0  0  0  0  0  0
  195.5830  174.9750  146.1140 O   0  0  0  0  0  1  0  0  0  0  0  0
  192.1710  174.6970  143.1940 C   0  0  0  0  0  2  0  0  0  0  0  0
  187.0580  179.2390  148.5650 O   0  0  0  0  0  1  0  0  0  0  0  0
  187.8700  175.4950  143.0980 C   0  0  0  0  0  0  0  0  0  0  0  0
  188.7490  175.4600  144.2430 C   0  0  0  0  0  0  0  0  0  0  0  0
  189.9580  178.6950  148.6000 O   0  0  0  0  0  0  0  0  0  0  0  0
  189.0410  175.7670  145.6780 C   0  0  1  0  0  3  0  0  0  0  0  0
  191.4390  175.2970  141.9930 C   0  0  0  0  0  2  0  0  0  0  0  0
  192.3990  175.7280  144.2980 C   0  0  2  0  0  3  0  0  0  0  0  0
  186.6230  175.8520  142.5050 N   0  0  0  0  0  2  0  0  0  0  0  0
  185.1580  177.3760  141.2410 N   0  0  0  0  0  2  0  0  0  0  0  0
  184.8990  178.6120  140.5210 C   0  0  0  0  0  1  0  0  0  0  0  0
  187.3830  177.9070  141.6970 O   0  0  0  0  0  0  0  0  0  0  0  0
  186.4340  177.0840  141.8090 C   0  0  0  0  0  0  0  0  0  0  0  0
  1 22  2  0  0  0  0
  2 19  1  0  0  0  0
  3 13  1  6  0  0  0
  3 20  1  0  0  0  0
  3 21  1  0  0  0  0
  5 15  2  0  0  0  0
  5  8  1  0  0  0  0
  6  9  1  1  0  0  0
  7 15  1  1  0  0  0
  7  2  1  0  0  0  0
  7  1  1  0  0  0  0
  8  2  2  0  0  0  0
  9  1  1  0  0  0  0
 10 12  1  0  0  0  0
 11  4  1  6  0  0  0
 11 14  1  0  0  0  0
 14 17  1  1  0  0  0
 14 10  1  0  0  0  0
 16  6  1  0  0  0  0
 16 12  1  1  0  0  0
 20 21  2  0  0  0  0
 23 21  1  6  0  0  0
 23  6  1  0  0  0  0
 23 15  1  0  0  0  0
 24 13  1  0  0  0  0
 24 18  1  0  0  0  0
 25 18  1  6  0  0  0
 25 11  1  0  0  0  0
 25 16  1  0  0  0  0
 26 20  1  0  0  0  0
 27 30  1  0  0  0  0
 28 27  1  0  0  0  0
 29 30  2  0  0  0  0
 30 26  1  0  0  0  0
M  END
>  <MODEL>
6

>  <REMARK>
 VINA RESULT:      -7.4      2.894      5.839
  Name = 
  1 active torsions:
  status: ('A' for Active; 'I' for Inactive)
    1  A    between atoms: N_2  and  C_24
                            x       y       z     vdW  Elec       q    Type
                         _______ _______ _______ _____ _____    ______ ____

>  <TORSDO>
F 1

$$$$
=
 OpenBabel11042413443D

 30 34  0  0  1  0  0  0  0  0999 V2000
  185.9520  178.4110  146.0080 C   0  0  0  0  0  0  0  0  0  0  0  0
  184.1280  178.8460  144.3170 C   0  0  0  0  0  0  0  0  0  0  0  0
  188.7060  175.7380  142.0100 C   0  0  2  0  0  3  0  0  0  0  0  0
  192.5260  176.8270  146.1850 C   0  0  0  0  0  1  0  0  0  0  0  0
  184.8460  177.3020  142.7500 N   0  0  0  0  0  0  0  0  0  0  0  0
  187.8050  176.9820  145.0330 C   0  0  1  0  0  3  0  0  0  0  0  0
  185.2380  178.2840  144.7440 C   0  0  2  0  0  3  0  0  0  0  0  0
  183.7870  178.2900  142.9730 C   0  0  0  0  0  3  0  0  0  0  0  0
  187.1400  177.6340  146.1750 N   0  0  0  0  0  2  0  0  0  0  0  0
  189.6990  174.3840  147.2520 C   0  0  0  0  0  2  0  0  0  0  0  0
  191.0980  176.3950  146.4690 C   0  0  2  0  0  3  0  0  0  0  0  0
  188.5630  175.3340  146.8830 C   0  0  0  0  0  2  0  0  0  0  0  0
  189.8380  176.7310  142.2210 C   0  0  0  0  0  2  0  0  0  0  0  0
  191.0600  175.0940  147.2880 C   0  0  1  0  0  3  0  0  0  0  0  0
  185.6690  177.3500  143.7470 C   0  0  0  0  0  0  0  0  0  0  0  0
  188.8010  175.9080  145.4780 C   0  0  2  0  0  3  0  0  0  0  0  0
  191.4070  175.3640  148.6110 O   0  0  0  0  0  1  0  0  0  0  0  0
  190.8280  175.3750  144.1490 C   0  0  0  0  0  2  0  0  0  0  0  0
  183.3870  179.7910  145.0140 O   0  0  0  0  0  1  0  0  0  0  0  0
  187.6870  176.3320  141.2570 C   0  0  0  0  0  0  0  0  0  0  0  0
  187.5750  176.2020  142.6910 C   0  0  0  0  0  0  0  0  0  0  0  0
  185.5240  179.1410  146.9410 O   0  0  0  0  0  0  0  0  0  0  0  0
  186.8280  176.4160  143.9700 C   0  0  1  0  0  3  0  0  0  0  0  0
  191.0810  176.0670  142.8100 C   0  0  0  0  0  2  0  0  0  0  0  0
  190.2470  176.3330  145.1880 C   0  0  2  0  0  3  0  0  0  0  0  0
  187.1540  176.7670  140.0090 N   0  0  0  0  0  2  0  0  0  0  0  0
  186.6920  176.4800  137.6060 N   0  0  0  0  0  2  0  0  0  0  0  0
  186.7540  175.7280  136.3640 C   0  0  0  0  0  1  0  0  0  0  0  0
  187.8170  174.8540  138.8450 O   0  0  0  0  0  0  0  0  0  0  0  0
  187.2480  175.9790  138.8210 C   0  0  0  0  0  0  0  0  0  0  0  0
  1  9  1  0  0  0  0
  1 22  2  0  0  0  0
  2  7  1  0  0  0  0
  2 19  1  0  0  0  0
  3 13  1  1  0  0  0
  3 21  1  0  0  0  0
  5  8  1  0  0  0  0
  5 15  2  0  0  0  0
  6 16  1  0  0  0  0
  6  9  1  1  0  0  0
  7 15  1  1  0  0  0
  7  1  1  0  0  0  0
  8  2  2  0  0  0  0
 10 14  1  0  0  0  0
 11  4  1  6  0  0  0
 11 14  1  0  0  0  0
 12 10  1  0  0  0  0
 13 24  1  0  0  0  0
 14 17  1  1  0  0  0
 15 23  1  0  0  0  0
 16 12  1  1  0  0  0
 20  3  1  0  0  0  0
 20 21  2  0  0  0  0
 23 21  1  6  0  0  0
 23  6  1  0  0  0  0
 24 18  1  0  0  0  0
 25 18  1  6  0  0  0
 25 16  1  0  0  0  0
 25 11  1  0  0  0  0
 26 20  1  0  0  0  0
 27 30  1  0  0  0  0
 28 27  1  0  0  0  0
 30 29  2  0  0  0  0
 30 26  1  0  0  0  0
M  END
>  <MODEL>
7

>  <REMARK>
 VINA RESULT:      -7.3      1.857      5.367
  Name = 
  1 active torsions:
  status: ('A' for Active; 'I' for Inactive)
    1  A    between atoms: N_2  and  C_24
                            x       y       z     vdW  Elec       q    Type
                         _______ _______ _______ _____ _____    ______ ____

>  <TORSDO>
F 1

$$$$
=
 OpenBabel11042413443D

 30 34  0  0  1  0  0  0  0  0999 V2000
  193.2990  174.7840  144.4620 C   0  0  0  0  0  0  0  0  0  0  0  0
  192.8720  176.1990  146.5090 C   0  0  0  0  0  0  0  0  0  0  0  0
  187.9560  175.4630  143.1560 C   0  0  2  0  0  3  0  0  0  0  0  0
  190.5840  173.5790  138.3850 C   0  0  0  0  0  1  0  0  0  0  0  0
  190.5610  176.0870  146.4290 N   0  0  0  0  0  0  0  0  0  0  0  0
  191.1710  174.3840  143.1440 C   0  0  1  0  0  3  0  0  0  0  0  0
  192.5100  175.5120  145.4460 C   0  0  0  0  0  0  0  0  0  0  0  0
  191.6470  176.6650  147.2270 C   0  0  0  0  0  2  0  0  0  0  0  0
  192.5920  174.1080  143.4190 N   0  0  0  0  0  2  0  0  0  0  0  0
  190.5790  170.9980  141.2890 C   0  0  0  0  0  2  0  0  0  0  0  0
  190.9090  173.0450  139.7690 C   0  0  2  0  0  3  0  0  0  0  0  0
  191.2370  171.9370  142.2960 C   0  0  0  0  0  2  0  0  0  0  0  0
  188.4260  176.0860  141.8510 C   0  0  0  0  0  2  0  0  0  0  0  0
  190.6780  171.5280  139.8510 C   0  0  1  0  0  3  0  0  0  0  0  0
  191.0780  175.4770  145.4130 C   0  0  0  0  0  0  0  0  0  0  0  0
  190.5280  173.2990  142.2760 C   0  0  2  0  0  3  0  0  0  0  0  0
  191.7040  170.8610  139.1820 O   0  0  0  0  0  1  0  0  0  0  0  0
  188.6700  173.8090  140.7130 C   0  0  0  0  0  2  0  0  0  0  0  0
  194.1810  176.4360  146.9050 O   0  0  0  0  0  1  0  0  0  0  0  0
  188.0790  176.3910  144.1960 C   0  0  0  0  0  0  0  0  0  0  0  0
  189.0560  175.3430  144.0120 C   0  0  0  0  0  0  0  0  0  0  0  0
  194.5540  174.7070  144.5430 O   0  0  0  0  0  0  0  0  0  0  0  0
  190.3190  174.6470  144.4130 C   0  0  1  0  0  3  0  0  0  0  0  0
  188.0790  175.2180  140.6430 C   0  0  0  0  0  2  0  0  0  0  0  0
  190.1880  173.8320  140.8770 C   0  0  2  0  0  3  0  0  0  0  0  0
  187.6090  177.5340  144.9060 N   0  0  0  0  0  2  0  0  0  0  0  0
  186.0180  178.6870  146.3910 N   0  0  0  0  0  2  0  0  0  0  0  0
  184.8270  178.7220  147.2230 C   0  0  0  0  0  1  0  0  0  0  0  0
  185.7560  176.4410  145.8150 O   0  0  0  0  0  0  0  0  0  0  0  0
  186.4290  177.5030  145.7090 C   0  0  0  0  0  0  0  0  0  0  0  0
  1 22  2  0  0  0  0
  1  7  1  0  0  0  0
  2 19  1  0  0  0  0
  2  8  1  0  0  0  0
  3 13  1  6  0  0  0
  3 21  1  0  0  0  0
  3 20  1  0  0  0  0
  5  8  1  0  0  0  0
  6  9  1  1  0  0  0
  6 23  1  0  0  0  0
  7  2  2  0  0  0  0
  9  1  1  0  0  0  0
 10 12  1  0  0  0  0
 11  4  1  6  0  0  0
 11 14  1  0  0  0  0
 11 25  1  0  0  0  0
 14 17  1  1  0  0  0
 14 10  1  0  0  0  0
 15  7  1  0  0  0  0
 15  5  2  0  0  0  0
 16 12  1  6  0  0  0
 16  6  1  0  0  0  0
 20 26  1  0  0  0  0
 21 20  2  0  0  0  0
 23 21  1  6  0  0  0
 23 15  1  0  0  0  0
 24 18  1  0  0  0  0
 24 13  1  0  0  0  0
 25 18  1  6  0  0  0
 25 16  1  0  0  0  0
 26 30  1  0  0  0  0
 27 28  1  0  0  0  0
 30 29  2  0  0  0  0
 30 27  1  0  0  0  0
M  END
>  <MODEL>
8

>  <REMARK>
 VINA RESULT:      -7.3      3.049      6.289
  Name = 
  1 active torsions:
  status: ('A' for Active; 'I' for Inactive)
    1  A    between atoms: N_2  and  C_24
                            x       y       z     vdW  Elec       q    Type
                         _______ _______ _______ _____ _____    ______ ____

>  <TORSDO>
F 1

$$$$
=
 OpenBabel11042413443D

 30 34  0  0  1  0  0  0  0  0999 V2000
  187.7870  177.6830  142.9800 C   0  0  0  0  0  0  0  0  0  0  0  0
  186.9020  177.1820  140.6700 C   0  0  0  0  0  0  0  0  0  0  0  0
  191.5250  173.6720  142.1700 C   0  0  2  0  0  3  0  0  0  0  0  0
  193.4060  176.7860  146.6390 C   0  0  0  0  0  1  0  0  0  0  0  0
  187.9700  175.1450  140.4130 N   0  0  0  0  0  0  0  0  0  0  0  0
  189.6500  176.0910  143.6300 C   0  0  1  0  0  3  0  0  0  0  0  0
  187.6450  176.9490  141.7300 C   0  0  2  0  0  3  0  0  0  0  0  0
  187.0660  176.0550  139.7020 C   0  0  0  0  0  3  0  0  0  0  0  0
  188.6770  177.1460  143.9630 N   0  0  0  0  0  2  0  0  0  0  0  0
  190.0720  174.9160  147.3310 C   0  0  0  0  0  2  0  0  0  0  0  0
  191.9410  176.4370  146.4370 C   0  0  2  0  0  3  0  0  0  0  0  0
  189.3370  175.5180  146.1370 C   0  0  0  0  0  2  0  0  0  0  0  0
  192.6000  174.7240  142.3910 C   0  0  0  0  0  2  0  0  0  0  0  0
  191.3840  175.6510  147.6360 C   0  0  1  0  0  3  0  0  0  0  0  0
  188.3080  175.6940  141.5340 C   0  0  0  0  0  0  0  0  0  0  0  0
  190.2100  175.4050  144.8780 C   0  0  2  0  0  3  0  0  0  0  0  0
  191.1910  176.5160  148.7130 O   0  0  0  0  0  1  0  0  0  0  0  0
  192.5040  174.4600  144.9320 C   0  0  0  0  0  2  0  0  0  0  0  0
  186.0840  178.2890  140.4900 O   0  0  0  0  0  1  0  0  0  0  0  0
  191.0020  173.7910  140.8770 C   0  0  0  0  0  0  0  0  0  0  0  0
  190.2930  174.3190  142.0200 C   0  0  0  0  0  0  0  0  0  0  0  0
  187.1230  178.7270  143.2160 O   0  0  0  0  0  0  0  0  0  0  0  0
  189.1260  175.0420  142.6160 C   0  0  1  0  0  3  0  0  0  0  0  0
  193.3810  174.4830  143.6800 C   0  0  0  0  0  2  0  0  0  0  0  0
  191.6920  175.7450  145.0860 C   0  0  2  0  0  3  0  0  0  0  0  0
  191.0970  173.5750  139.4710 N   0  0  0  0  0  2  0  0  0  0  0  0
  190.4600  172.4330  137.3840 N   0  0  0  0  0  2  0  0  0  0  0  0
  189.6910  171.4530  136.6360 C   0  0  0  0  0  1  0  0  0  0  0  0
  189.4950  171.8760  139.4340 O   0  0  0  0  0  0  0  0  0  0  0  0
  190.3110  172.5940  138.7940 C   0  0  0  0  0  0  0  0  0  0  0  0
  1 22  2  0  0  0  0
  1  9  1  0  0  0  0
  3 13  1  6  0  0  0
  5 15  2  0  0  0  0
  6  9  1  1  0  0  0
  6 16  1  0  0  0  0
  7  2  1  1  0  0  0
  7  1  1  0  0  0  0
  8  5  1  0  0  0  0
  8  2  2  0  0  0  0
 10 14  1  0  0  0  0
 11  4  1  1  0  0  0
 11 14  1  0  0  0  0
 12 10  1  0  0  0  0
 13 24  1  0  0  0  0
 14 17  1  1  0  0  0
 15  7  1  0  0  0  0
 16 25  1  0  0  0  0
 16 12  1  1  0  0  0
 19  2  1  0  0  0  0
 20 21  2  0  0  0  0
 20  3  1  0  0  0  0
 21  3  1  0  0  0  0
 21 23  1  0  0  0  0
 23 15  1  6  0  0  0
 23  6  1  0  0  0  0
 24 18  1  0  0  0  0
 25 18  1  1  0  0  0
 25 11  1  0  0  0  0
 26 20  1  0  0  0  0
 27 30  1  0  0  0  0
 28 27  1  0  0  0  0
 30 29  2  0  0  0  0
 30 26  1  0  0  0  0
M  END
>  <MODEL>
9

>  <REMARK>
 VINA RESULT:      -7.1      2.574      5.724
  Name = 
  1 active torsions:
  status: ('A' for Active; 'I' for Inactive)
    1  A    between atoms: N_2  and  C_24
                            x       y       z     vdW  Elec       q    Type
                         _______ _______ _______ _____ _____    ______ ____

>  <TORSDO>
F 1

$$$$
