=
 OpenBabel11042415163D

 45 50  0  0  1  0  0  0  0  0999 V2000
  191.7010  173.8720  142.5470 C   0  0  0  0  0  0  0  0  0  0  0  0
  192.3080  171.7790  141.2290 C   0  0  1  0  0  3  0  0  0  0  0  0
  193.7100  175.7270  144.9450 O   0  0  0  0  0  0  0  0  0  0  0  0
  194.3710  168.2110  140.2980 C   0  0  0  0  0  2  0  0  0  0  0  0
  191.1100  169.6920  141.8180 C   0  0  0  0  0  2  0  0  0  0  0  0
  194.3020  173.7440  143.7640 C   0  0  0  0  0  2  0  0  0  0  0  0
  194.4380  170.6340  140.8370 N   0  0  0  0  0  0  0  0  0  0  0  0
  190.6580  174.2150  141.6620 O   0  0  0  0  0  0  0  0  0  0  0  0
  190.9430  171.0640  141.1710 C   0  0  1  0  0  3  0  0  0  0  0  0
  189.9370  171.8010  141.8160 O   0  0  0  0  0  0  0  0  0  0  0  0
  192.5900  169.3460  141.7250 C   0  0  2  0  0  3  0  0  0  0  0  0
  192.4470  172.7380  142.4160 C   0  0  0  0  0  0  0  0  0  0  0  0
  193.3450  174.8230  144.1450 C   0  0  0  0  0  0  0  0  0  0  0  0
  193.2400  170.6210  141.3100 C   0  0  0  0  0  0  0  0  0  0  0  0
  195.2110  169.4050  140.8160 C   0  0  2  0  0  3  0  0  0  0  0  0
  192.0120  174.8060  143.6090 N   0  0  0  0  0  0  0  0  0  0  0  0
  193.5240  172.4680  143.4490 C   0  0  2  0  0  3  0  0  0  0  0  0
  192.8690  168.3030  140.6410 C   0  0  0  0  0  2  0  0  0  0  0  0
  190.3530  173.5050  140.5640 O   0  0  0  0  0  0  0  0  0  0  0  0
  189.4130  172.6270  140.9110 O   0  0  0  0  0  0  0  0  0  0  0  0
  197.8130  169.4450  140.7190 C   0  0  0  0  0  2  0  0  0  0  0  0
  197.2480  170.6920  140.3630 O   0  0  0  0  0  0  0  0  0  0  0  0
  196.5270  169.2750  138.5350 C   0  0  0  0  0  1  0  0  0  0  0  0
  196.5150  169.5430  140.0260 C   0  0  2  0  0  0  0  0  0  0  0  0
  190.0150  175.7540  144.6740 C   0  0  0  0  0  0  0  0  0  0  0  0
  191.1210  175.8890  143.9250 C   0  0  0  0  0  3  0  0  0  0  0  0
  189.1060  176.8490  144.8550 N   0  0  0  0  0  2  0  0  0  0  0  0
  188.4250  177.1780  142.6380 O   0  0  0  0  0  0  0  0  0  0  0  0
  188.2280  177.3910  143.8620 C   0  0  0  0  0  0  0  0  0  0  0  0
  185.9130  178.4650  142.8420 S   0  0  0  0  0  0  0  0  0  0  0  0
  185.6690  176.4580  145.1950 O   0  0  0  0  0  1  0  0  0  0  0  0
  185.3560  178.7170  146.1140 C   0  0  0  0  0  0  0  0  0  0  0  0
  186.3200  177.6630  145.5000 C   0  0  2  0  0  3  0  0  0  0  0  0
  187.0470  178.2070  144.2610 C   0  0  1  0  0  3  0  0  0  0  0  0
  184.0860  178.0820  146.6780 C   0  0  0  0  0  1  0  0  0  0  0  0
  184.5120  179.1990  143.7750 C   0  0  0  0  0  2  0  0  0  0  0  0
  186.0710  179.3980  147.2660 C   0  0  0  0  0  1  0  0  0  0  0  0
  184.9530  179.8070  145.1050 C   0  0  0  0  0  2  0  0  0  0  0  0
  189.6850  174.4550  145.3320 C   0  0  0  0  0  2  0  0  0  0  0  0
  189.2970  174.6780  146.7830 C   0  0  0  0  0  2  0  0  0  0  0  0
  191.4260  175.5590  148.1320 C   0  0  0  0  0  3  0  0  0  0  0  0
  190.4620  175.1590  147.5240 C   0  0  0  0  0  0  0  0  0  0  0  0
  192.9460  171.9570  144.6150 O   0  0  0  0  0  0  0  0  0  0  0  0
  194.2670  170.0000  144.9150 C   0  0  0  0  0  1  0  0  0  0  0  0
  194.0140  171.4300  145.3440 C   0  0  0  0  0  2  0  0  0  0  0  0
  1 16  1  0  0  0  0
  2 14  1  1  0  0  0
  2 12  1  0  0  0  0
  4 18  1  0  0  0  0
  6 13  1  0  0  0  0
  7 14  2  0  0  0  0
  8  1  1  0  0  0  0
  9  2  1  0  0  0  0
  9 10  1  0  0  0  0
  9  5  1  1  0  0  0
 11 18  1  6  0  0  0
 11  5  1  0  0  0  0
 12  1  2  0  0  0  0
 12 17  1  0  0  0  0
 13  3  2  0  0  0  0
 14 11  1  0  0  0  0
 15  4  1  6  0  0  0
 15  7  1  0  0  0  0
 16 26  1  0  0  0  0
 16 13  1  0  0  0  0
 17  6  1  0  0  0  0
 17 43  1  1  0  0  0
 19 20  1  0  0  0  0
 19  8  1  0  0  0  0
 20 10  1  0  0  0  0
 22 21  1  0  0  0  0
 24 23  1  6  0  0  0
 24 22  1  0  0  0  0
 24 21  1  0  0  0  0
 24 15  1  0  0  0  0
 25 27  1  0  0  0  0
 25 39  1  0  0  0  0
 26 25  2  0  0  0  0
 28 29  2  0  0  0  0
 29 27  1  0  0  0  0
 30 36  1  0  0  0  0
 30 34  1  0  0  0  0
 32 35  1  0  0  0  0
 32 37  1  0  0  0  0
 33 31  1  6  0  0  0
 33 32  1  0  0  0  0
 34 29  1  6  0  0  0
 34 33  1  0  0  0  0
 36 38  1  0  0  0  0
 38 32  1  0  0  0  0
 39 40  1  0  0  0  0
 40 42  1  0  0  0  0
 42 41  3  0  0  0  0
 43 45  1  0  0  0  0
 44 45  1  0  0  0  0
M  END
>  <MODEL>
1

>  <REMARK>
 VINA RESULT:      -6.9      0.000      0.000
  Name = 
  9 active torsions:
  status: ('A' for Active; 'I' for Inactive)
    1  A    between atoms: C_6  and  N_7
    2  A    between atoms: C_6  and  C_10
    3  A    between atoms: C_8  and  C_10
    4  A    between atoms: C_8  and  C_36
    5  A    between atoms: C_23  and  C_31
    6  A    between atoms: C_26  and  C_34
    7  A    between atoms: C_29  and  O_41
    8  A    between atoms: N_37  and  C_45
    9  A    between atoms: C_39  and  O_41
                            x       y       z     vdW  Elec       q    Type
                         _______ _______ _______ _____ _____    ______ ____

>  <TORSDO>
F 9

$$$$
=
 OpenBabel11042415163D

 45 50  0  0  1  0  0  0  0  0999 V2000
  191.7890  174.2160  145.0700 C   0  0  0  0  0  0  0  0  0  0  0  0
  194.0860  173.3730  145.7780 C   0  0  1  0  0  3  0  0  0  0  0  0
  189.1740  172.4680  143.2450 O   0  0  0  0  0  0  0  0  0  0  0  0
  197.5490  170.9540  145.7100 C   0  0  0  0  0  2  0  0  0  0  0  0
  196.0500  174.3860  144.6580 C   0  0  0  0  0  2  0  0  0  0  0  0
  191.3300  171.6550  143.8500 C   0  0  0  0  0  2  0  0  0  0  0  0
  195.0770  171.1330  145.8380 N   0  0  0  0  0  0  0  0  0  0  0  0
  191.7990  175.2590  146.0200 O   0  0  0  0  0  0  0  0  0  0  0  0
  194.9230  174.6620  145.6490 C   0  0  1  0  0  3  0  0  0  0  0  0
  194.1450  175.7530  145.2290 O   0  0  0  0  0  0  0  0  0  0  0  0
  196.2590  172.8780  144.6480 C   0  0  2  0  0  3  0  0  0  0  0  0
  192.8370  173.3620  144.8890 C   0  0  0  0  0  0  0  0  0  0  0  0
  190.2890  172.7200  143.7760 C   0  0  0  0  0  0  0  0  0  0  0  0
  195.0820  172.3390  145.3850 C   0  0  0  0  0  0  0  0  0  0  0  0
  196.1830  170.2470  145.5260 C   0  0  2  0  0  3  0  0  0  0  0  0
  190.5800  174.0280  144.2950 N   0  0  0  0  0  0  0  0  0  0  0  0
  192.7150  172.2980  143.8160 C   0  0  2  0  0  3  0  0  0  0  0  0
  197.5200  172.4680  145.4120 C   0  0  0  0  0  2  0  0  0  0  0  0
  192.8020  175.4600  146.8900 O   0  0  0  0  0  0  0  0  0  0  0  0
  193.6450  176.3240  146.3250 O   0  0  0  0  0  0  0  0  0  0  0  0
  194.8760  168.1670  146.3900 C   0  0  0  0  0  2  0  0  0  0  0  0
  195.2980  169.0070  147.4460 O   0  0  0  0  0  0  0  0  0  0  0  0
  197.4080  168.1720  146.5960 C   0  0  0  0  0  1  0  0  0  0  0  0
  196.1320  168.9380  146.3180 C   0  0  2  0  0  0  0  0  0  0  0  0
  189.5250  176.0720  143.4430 C   0  0  0  0  0  0  0  0  0  0  0  0
  189.5470  175.0270  144.2850 C   0  0  0  0  0  3  0  0  0  0  0  0
  188.5280  177.0970  143.5620 N   0  0  0  0  0  2  0  0  0  0  0  0
  186.7770  176.0970  142.3680 O   0  0  0  0  0  0  0  0  0  0  0  0
  187.1540  176.9880  143.1720 C   0  0  0  0  0  0  0  0  0  0  0  0
  184.6630  178.0170  142.6360 S   0  0  0  0  0  0  0  0  0  0  0  0
  185.0370  176.4190  145.2690 O   0  0  0  0  0  1  0  0  0  0  0  0
  185.0110  178.8080  145.8510 C   0  0  0  0  0  0  0  0  0  0  0  0
  185.7610  177.6180  145.1870 C   0  0  2  0  0  3  0  0  0  0  0  0
  186.1330  177.9210  143.7290 C   0  0  1  0  0  3  0  0  0  0  0  0
  183.9320  178.3400  146.8270 C   0  0  0  0  0  1  0  0  0  0  0  0
  183.5730  178.9660  143.7710 C   0  0  0  0  0  2  0  0  0  0  0  0
  186.0180  179.6190  146.6450 C   0  0  0  0  0  1  0  0  0  0  0  0
  184.3630  179.7470  144.8190 C   0  0  0  0  0  2  0  0  0  0  0  0
  190.5470  176.2130  142.3620 C   0  0  0  0  0  2  0  0  0  0  0  0
  191.6680  177.1340  142.8080 C   0  0  0  0  0  2  0  0  0  0  0  0
  194.0010  176.1340  141.9820 C   0  0  0  0  0  3  0  0  0  0  0  0
  192.9470  176.5880  142.3580 C   0  0  0  0  0  0  0  0  0  0  0  0
  192.9530  172.8610  142.5590 O   0  0  0  0  0  0  0  0  0  0  0  0
  194.8680  172.4750  141.2010 C   0  0  0  0  0  1  0  0  0  0  0  0
  193.6380  171.8750  141.8480 C   0  0  0  0  0  2  0  0  0  0  0  0
  1  8  1  0  0  0  0
  2 12  1  6  0  0  0
  3 13  2  0  0  0  0
  8 19  1  0  0  0  0
  9  5  1  6  0  0  0
  9  2  1  0  0  0  0
 10  9  1  0  0  0  0
 10 20  1  0  0  0  0
 11  5  1  1  0  0  0
 11 14  1  0  0  0  0
 11 18  1  0  0  0  0
 12  1  2  0  0  0  0
 13  6  1  0  0  0  0
 13 16  1  0  0  0  0
 14  2  1  0  0  0  0
 14  7  2  0  0  0  0
 15  4  1  1  0  0  0
 15  7  1  0  0  0  0
 15 24  1  0  0  0  0
 16  1  1  0  0  0  0
 17 43  1  6  0  0  0
 17  6  1  0  0  0  0
 17 12  1  0  0  0  0
 18  4  1  0  0  0  0
 20 19  1  0  0  0  0
 21 22  1  0  0  0  0
 24 21  1  0  0  0  0
 24 23  1  1  0  0  0
 24 22  1  0  0  0  0
 25 27  1  0  0  0  0
 25 26  2  0  0  0  0
 26 16  1  0  0  0  0
 28 29  2  0  0  0  0
 29 27  1  0  0  0  0
 30 34  1  0  0  0  0
 30 36  1  0  0  0  0
 32 37  1  0  0  0  0
 32 35  1  0  0  0  0
 33 31  1  6  0  0  0
 33 32  1  0  0  0  0
 34 29  1  6  0  0  0
 34 33  1  0  0  0  0
 36 38  1  0  0  0  0
 38 32  1  0  0  0  0
 39 40  1  0  0  0  0
 39 25  1  0  0  0  0
 41 42  3  0  0  0  0
 42 40  1  0  0  0  0
 44 45  1  0  0  0  0
 45 43  1  0  0  0  0
M  END
>  <MODEL>
2

>  <REMARK>
 VINA RESULT:      -6.9      2.463      4.675
  Name = 
  9 active torsions:
  status: ('A' for Active; 'I' for Inactive)
    1  A    between atoms: C_6  and  N_7
    2  A    between atoms: C_6  and  C_10
    3  A    between atoms: C_8  and  C_10
    4  A    between atoms: C_8  and  C_36
    5  A    between atoms: C_23  and  C_31
    6  A    between atoms: C_26  and  C_34
    7  A    between atoms: C_29  and  O_41
    8  A    between atoms: N_37  and  C_45
    9  A    between atoms: C_39  and  O_41
                            x       y       z     vdW  Elec       q    Type
                         _______ _______ _______ _____ _____    ______ ____

>  <TORSDO>
F 9

$$$$
=
 OpenBabel11042415163D

 45 50  0  0  1  0  0  0  0  0999 V2000
  189.7110  173.7670  142.8020 C   0  0  0  0  0  0  0  0  0  0  0  0
  187.8190  175.4670  142.9340 C   0  0  1  0  0  3  0  0  0  0  0  0
  192.3500  173.0920  145.2100 O   0  0  0  0  0  0  0  0  0  0  0  0
  185.7670  178.9360  144.2030 C   0  0  0  0  0  2  0  0  0  0  0  0
  187.9050  177.3730  141.3530 C   0  0  0  0  0  2  0  0  0  0  0  0
  190.6210  174.7250  145.3540 C   0  0  0  0  0  2  0  0  0  0  0  0
  186.9470  176.8290  144.7750 N   0  0  0  0  0  0  0  0  0  0  0  0
  189.0460  172.9960  141.8260 O   0  0  0  0  0  0  0  0  0  0  0  0
  187.6800  175.8670  141.4510 C   0  0  1  0  0  3  0  0  0  0  0  0
  188.5860  175.1720  140.6340 O   0  0  0  0  0  0  0  0  0  0  0  0
  187.5960  177.9480  142.7290 C   0  0  2  0  0  3  0  0  0  0  0  0
  189.2090  174.9350  143.2980 C   0  0  0  0  0  0  0  0  0  0  0  0
  191.3650  173.6420  144.6470 C   0  0  0  0  0  0  0  0  0  0  0  0
  187.4970  176.7530  143.6130 C   0  0  0  0  0  0  0  0  0  0  0  0
  186.5230  178.1210  145.2820 C   0  0  2  0  0  3  0  0  0  0  0  0
  190.9590  173.2540  143.3250 N   0  0  0  0  0  0  0  0  0  0  0  0
  190.0320  175.6870  144.3250 C   0  0  2  0  0  3  0  0  0  0  0  0
  186.2460  178.6680  142.7600 C   0  0  0  0  0  2  0  0  0  0  0  0
  187.8240  173.2890  141.3540 O   0  0  0  0  0  0  0  0  0  0  0  0
  187.9930  174.0380  140.2650 O   0  0  0  0  0  0  0  0  0  0  0  0
  186.3510  178.1200  147.8800 C   0  0  0  0  0  2  0  0  0  0  0  0
  186.0030  176.8670  147.3230 O   0  0  0  0  0  0  0  0  0  0  0  0
  184.2050  178.2860  146.5290 C   0  0  0  0  0  1  0  0  0  0  0  0
  185.6940  178.0080  146.5640 C   0  0  2  0  0  0  0  0  0  0  0  0
  192.6130  172.3170  141.7740 C   0  0  0  0  0  0  0  0  0  0  0  0
  191.6370  172.1610  142.6810 C   0  0  0  0  0  3  0  0  0  0  0  0
  193.1670  171.1880  141.0830 N   0  0  0  0  0  2  0  0  0  0  0  0
  191.6340  171.0000  139.3210 O   0  0  0  0  0  0  0  0  0  0  0  0
  192.7550  170.6960  139.8020 C   0  0  0  0  0  0  0  0  0  0  0  0
  192.7240  168.9090  137.7140 S   0  0  0  0  0  0  0  0  0  0  0  0
  194.4720  171.4560  137.4200 O   0  0  0  0  0  1  0  0  0  0  0  0
  195.9770  169.5810  137.9410 C   0  0  0  0  0  0  0  0  0  0  0  0
  194.8740  170.5650  138.4270 C   0  0  2  0  0  3  0  0  0  0  0  0
  193.6590  169.8220  139.0020 C   0  0  1  0  0  3  0  0  0  0  0  0
  196.6940  170.0880  136.6910 C   0  0  0  0  0  1  0  0  0  0  0  0
  194.1640  168.2330  136.7960 C   0  0  0  0  0  2  0  0  0  0  0  0
  197.0160  169.4540  139.0400 C   0  0  0  0  0  1  0  0  0  0  0  0
  195.4260  168.1730  137.6530 C   0  0  0  0  0  2  0  0  0  0  0  0
  193.1460  173.6710  141.4400 C   0  0  0  0  0  2  0  0  0  0  0  0
  194.5470  173.8440  142.0000 C   0  0  0  0  0  2  0  0  0  0  0  0
  194.5170  175.7430  143.8760 C   0  0  0  0  0  3  0  0  0  0  0  0
  194.5290  174.8820  143.0300 C   0  0  0  0  0  0  0  0  0  0  0  0
  191.0560  176.3950  143.6870 O   0  0  0  0  0  0  0  0  0  0  0  0
  191.1640  178.7710  143.7160 C   0  0  0  0  0  1  0  0  0  0  0  0
  191.3020  177.4920  144.5130 C   0  0  0  0  0  2  0  0  0  0  0  0
  1 12  2  0  0  0  0
  1 16  1  0  0  0  0
  2 12  1  6  0  0  0
  2 14  1  0  0  0  0
  7 15  1  0  0  0  0
  8  1  1  0  0  0  0
  9  5  1  1  0  0  0
  9  2  1  0  0  0  0
 10  9  1  0  0  0  0
 11  5  1  6  0  0  0
 11 18  1  0  0  0  0
 11 14  1  0  0  0  0
 12 17  1  0  0  0  0
 13  3  2  0  0  0  0
 13  6  1  0  0  0  0
 14  7  2  0  0  0  0
 15  4  1  6  0  0  0
 15 24  1  0  0  0  0
 16 13  1  0  0  0  0
 17 43  1  6  0  0  0
 17  6  1  0  0  0  0
 18  4  1  0  0  0  0
 19  8  1  0  0  0  0
 20 10  1  0  0  0  0
 20 19  1  0  0  0  0
 22 21  1  0  0  0  0
 24 23  1  6  0  0  0
 24 22  1  0  0  0  0
 24 21  1  0  0  0  0
 25 26  2  0  0  0  0
 26 16  1  0  0  0  0
 27 25  1  0  0  0  0
 28 29  2  0  0  0  0
 29 27  1  0  0  0  0
 30 34  1  0  0  0  0
 32 33  1  0  0  0  0
 32 37  1  0  0  0  0
 33 31  1  6  0  0  0
 33 34  1  0  0  0  0
 34 29  1  6  0  0  0
 35 32  1  0  0  0  0
 36 38  1  0  0  0  0
 36 30  1  0  0  0  0
 38 32  1  0  0  0  0
 39 25  1  0  0  0  0
 39 40  1  0  0  0  0
 40 42  1  0  0  0  0
 42 41  3  0  0  0  0
 43 45  1  0  0  0  0
 44 45  1  0  0  0  0
M  END
>  <MODEL>
3

>  <REMARK>
 VINA RESULT:      -6.8      2.739     10.208
  Name = 
  9 active torsions:
  status: ('A' for Active; 'I' for Inactive)
    1  A    between atoms: C_6  and  N_7
    2  A    between atoms: C_6  and  C_10
    3  A    between atoms: C_8  and  C_10
    4  A    between atoms: C_8  and  C_36
    5  A    between atoms: C_23  and  C_31
    6  A    between atoms: C_26  and  C_34
    7  A    between atoms: C_29  and  O_41
    8  A    between atoms: N_37  and  C_45
    9  A    between atoms: C_39  and  O_41
                            x       y       z     vdW  Elec       q    Type
                         _______ _______ _______ _____ _____    ______ ____

>  <TORSDO>
F 9

$$$$
=
 OpenBabel11042415163D

 45 50  0  0  1  0  0  0  0  0999 V2000
  187.0280  176.4240  144.1100 C   0  0  0  0  0  0  0  0  0  0  0  0
  188.9820  175.7360  145.5930 C   0  0  1  0  0  3  0  0  0  0  0  0
  186.8930  176.6920  140.4860 O   0  0  0  0  0  0  0  0  0  0  0  0
  193.0070  175.0760  146.6910 C   0  0  0  0  0  2  0  0  0  0  0  0
  189.9780  177.4930  147.0280 C   0  0  0  0  0  2  0  0  0  0  0  0
  188.7570  176.0850  141.8400 C   0  0  0  0  0  2  0  0  0  0  0  0
  191.1420  174.6910  145.1000 N   0  0  0  0  0  0  0  0  0  0  0  0
  186.0760  176.1520  145.1140 O   0  0  0  0  0  0  0  0  0  0  0  0
  188.7380  176.6260  146.8290 C   0  0  1  0  0  3  0  0  0  0  0  0
  187.5900  177.4220  146.6840 O   0  0  0  0  0  0  0  0  0  0  0  0
  191.1300  176.7650  146.3490 C   0  0  2  0  0  3  0  0  0  0  0  0
  188.3730  176.2990  144.3040 C   0  0  0  0  0  0  0  0  0  0  0  0
  187.3480  176.5360  141.6510 C   0  0  0  0  0  0  0  0  0  0  0  0
  190.4690  175.6900  145.5560 C   0  0  0  0  0  0  0  0  0  0  0  0
  192.5840  174.6690  145.2580 C   0  0  2  0  0  3  0  0  0  0  0  0
  186.5340  176.8060  142.8040 N   0  0  0  0  0  0  0  0  0  0  0  0
  189.2970  176.6470  143.1530 C   0  0  2  0  0  3  0  0  0  0  0  0
  192.0620  176.0950  147.3620 C   0  0  0  0  0  2  0  0  0  0  0  0
  186.3920  175.6660  146.3250 O   0  0  0  0  0  0  0  0  0  0  0  0
  186.5590  176.7100  147.1360 O   0  0  0  0  0  0  0  0  0  0  0  0
  193.1910  172.8900  143.4550 C   0  0  0  0  0  2  0  0  0  0  0  0
  192.2530  172.3990  144.3930 O   0  0  0  0  0  0  0  0  0  0  0  0
  194.2330  172.6740  145.7630 C   0  0  0  0  0  1  0  0  0  0  0  0
  193.2000  173.3230  144.8660 C   0  0  2  0  0  0  0  0  0  0  0  0
  184.6670  178.3970  142.8530 C   0  0  0  0  0  0  0  0  0  0  0  0
  185.1560  177.1700  142.6130 C   0  0  0  0  0  3  0  0  0  0  0  0
  183.2600  178.6640  142.7540 N   0  0  0  0  0  2  0  0  0  0  0  0
  182.9720  178.4570  140.4390 O   0  0  0  0  0  0  0  0  0  0  0  0
  182.4520  178.5100  141.5830 C   0  0  0  0  0  0  0  0  0  0  0  0
  180.3780  179.0410  143.3060 S   0  0  0  0  0  0  0  0  0  0  0  0
  180.3310  180.3980  140.5170 O   0  0  0  0  0  1  0  0  0  0  0  0
  178.7350  178.5290  140.4570 C   0  0  0  0  0  0  0  0  0  0  0  0
  180.2160  179.0000  140.5060 C   0  0  2  0  0  3  0  0  0  0  0  0
  180.9700  178.3900  141.6960 C   0  0  1  0  0  3  0  0  0  0  0  0
  177.7940  179.6270  139.9630 C   0  0  0  0  0  1  0  0  0  0  0  0
  178.5790  179.0080  142.9390 C   0  0  0  0  0  2  0  0  0  0  0  0
  178.6370  177.3740  139.4770 C   0  0  0  0  0  1  0  0  0  0  0  0
  178.2300  178.0280  141.8220 C   0  0  0  0  0  2  0  0  0  0  0  0
  185.5660  179.5220  143.2460 C   0  0  0  0  0  2  0  0  0  0  0  0
  185.9410  179.4160  144.7130 C   0  0  0  0  0  2  0  0  0  0  0  0
  183.7740  178.7740  146.1330 C   0  0  0  0  0  3  0  0  0  0  0  0
  184.7530  179.0670  145.4900 C   0  0  0  0  0  0  0  0  0  0  0  0
  189.4370  178.0360  143.0610 O   0  0  0  0  0  0  0  0  0  0  0  0
  191.7140  177.4150  142.7630 C   0  0  0  0  0  1  0  0  0  0  0  0
  190.7330  178.2960  143.5060 C   0  0  0  0  0  2  0  0  0  0  0  0
  1 12  2  0  0  0  0
  1  8  1  0  0  0  0
  2 12  1  6  0  0  0
  2  9  1  0  0  0  0
  3 13  2  0  0  0  0
  4 18  1  0  0  0  0
  6 17  1  0  0  0  0
  7 15  1  0  0  0  0
  7 14  2  0  0  0  0
  8 19  1  0  0  0  0
  9  5  1  6  0  0  0
 10  9  1  0  0  0  0
 10 20  1  0  0  0  0
 11  5  1  1  0  0  0
 11 18  1  0  0  0  0
 13  6  1  0  0  0  0
 13 16  1  0  0  0  0
 14  2  1  0  0  0  0
 14 11  1  0  0  0  0
 15  4  1  1  0  0  0
 16  1  1  0  0  0  0
 17 43  1  6  0  0  0
 17 12  1  0  0  0  0
 19 20  1  0  0  0  0
 21 22  1  0  0  0  0
 21 24  1  0  0  0  0
 22 24  1  0  0  0  0
 24 15  1  0  0  0  0
 24 23  1  1  0  0  0
 25 39  1  0  0  0  0
 26 16  1  0  0  0  0
 26 25  2  0  0  0  0
 27 25  1  0  0  0  0
 28 29  2  0  0  0  0
 29 27  1  0  0  0  0
 32 33  1  0  0  0  0
 32 38  1  0  0  0  0
 33 31  1  1  0  0  0
 33 34  1  0  0  0  0
 34 29  1  6  0  0  0
 34 30  1  0  0  0  0
 35 32  1  0  0  0  0
 36 30  1  0  0  0  0
 37 32  1  0  0  0  0
 38 36  1  0  0  0  0
 39 40  1  0  0  0  0
 40 42  1  0  0  0  0
 42 41  3  0  0  0  0
 43 45  1  0  0  0  0
 44 45  1  0  0  0  0
M  END
>  <MODEL>
4

>  <REMARK>
 VINA RESULT:      -6.8      3.587      7.453
  Name = 
  9 active torsions:
  status: ('A' for Active; 'I' for Inactive)
    1  A    between atoms: C_6  and  N_7
    2  A    between atoms: C_6  and  C_10
    3  A    between atoms: C_8  and  C_10
    4  A    between atoms: C_8  and  C_36
    5  A    between atoms: C_23  and  C_31
    6  A    between atoms: C_26  and  C_34
    7  A    between atoms: C_29  and  O_41
    8  A    between atoms: N_37  and  C_45
    9  A    between atoms: C_39  and  O_41
                            x       y       z     vdW  Elec       q    Type
                         _______ _______ _______ _____ _____    ______ ____

>  <TORSDO>
F 9

$$$$
=
 OpenBabel11042415163D

 45 50  0  0  1  0  0  0  0  0999 V2000
  190.5460  173.7420  140.3130 C   0  0  0  0  0  0  0  0  0  0  0  0
  191.1420  172.1180  138.4440 C   0  0  1  0  0  3  0  0  0  0  0  0
  192.7060  175.2020  142.8490 O   0  0  0  0  0  0  0  0  0  0  0  0
  193.3610  169.1600  136.4000 C   0  0  0  0  0  2  0  0  0  0  0  0
  190.2360  169.8190  138.6200 C   0  0  0  0  0  2  0  0  0  0  0  0
  193.2960  173.6480  141.1410 C   0  0  0  0  0  2  0  0  0  0  0  0
  193.2870  171.3720  137.5250 N   0  0  0  0  0  0  0  0  0  0  0  0
  189.3590  174.1560  139.6730 O   0  0  0  0  0  0  0  0  0  0  0  0
  189.8530  171.2740  138.3670 C   0  0  1  0  0  3  0  0  0  0  0  0
  188.8890  171.7050  139.2940 O   0  0  0  0  0  0  0  0  0  0  0  0
  191.7110  169.6910  138.2680 C   0  0  2  0  0  3  0  0  0  0  0  0
  191.3650  172.7730  139.8110 C   0  0  0  0  0  0  0  0  0  0  0  0
  192.3120  174.4780  141.8940 C   0  0  0  0  0  0  0  0  0  0  0  0
  192.1760  171.0980  138.1170 C   0  0  0  0  0  0  0  0  0  0  0  0
  194.1570  170.2900  137.1010 C   0  0  2  0  0  3  0  0  0  0  0  0
  190.9220  174.4260  141.5330 N   0  0  0  0  0  0  0  0  0  0  0  0
  192.6000  172.3990  140.6060 C   0  0  2  0  0  3  0  0  0  0  0  0
  191.9230  168.9800  136.9290 C   0  0  0  0  0  2  0  0  0  0  0  0
  188.9630  173.6980  138.4750 O   0  0  0  0  0  0  0  0  0  0  0  0
  188.1670  172.6530  138.6970 O   0  0  0  0  0  0  0  0  0  0  0  0
  196.6970  170.7260  136.7330 C   0  0  0  0  0  2  0  0  0  0  0  0
  195.9440  171.9240  136.7230 O   0  0  0  0  0  0  0  0  0  0  0  0
  195.1530  170.8170  134.7180 C   0  0  0  0  0  1  0  0  0  0  0  0
  195.3140  170.7730  136.2230 C   0  0  2  0  0  0  0  0  0  0  0  0
  189.2900  174.9110  143.2990 C   0  0  0  0  0  0  0  0  0  0  0  0
  189.9920  175.2820  142.2170 C   0  0  0  0  0  3  0  0  0  0  0  0
  188.2920  175.7740  143.8640 N   0  0  0  0  0  2  0  0  0  0  0  0
  189.6690  177.3980  144.8410 O   0  0  0  0  0  0  0  0  0  0  0  0
  188.5220  177.0590  144.4520 C   0  0  0  0  0  0  0  0  0  0  0  0
  186.6100  178.3790  142.9840 S   0  0  0  0  0  0  0  0  0  0  0  0
  185.6530  176.5100  145.2690 O   0  0  0  0  0  1  0  0  0  0  0  0
  185.4690  178.8250  146.0790 C   0  0  0  0  0  0  0  0  0  0  0  0
  186.3860  177.6340  145.6800 C   0  0  2  0  0  3  0  0  0  0  0  0
  187.4040  178.0340  144.6010 C   0  0  1  0  0  3  0  0  0  0  0  0
  184.0420  178.3770  146.3910 C   0  0  0  0  0  1  0  0  0  0  0  0
  185.1640  179.3200  143.6140 C   0  0  0  0  0  2  0  0  0  0  0  0
  186.0320  179.4530  147.3410 C   0  0  0  0  0  1  0  0  0  0  0  0
  185.4160  179.9170  144.9970 C   0  0  0  0  0  2  0  0  0  0  0  0
  189.5120  173.5830  143.9430 C   0  0  0  0  0  2  0  0  0  0  0  0
  190.4660  173.7130  145.1160 C   0  0  0  0  0  2  0  0  0  0  0  0
  189.1110  174.5510  147.2570 C   0  0  0  0  0  3  0  0  0  0  0  0
  189.7260  174.1720  146.2910 C   0  0  0  0  0  0  0  0  0  0  0  0
  192.2460  171.5560  141.6640 O   0  0  0  0  0  0  0  0  0  0  0  0
  193.6910  170.5410  143.2590 C   0  0  0  0  0  1  0  0  0  0  0  0
  193.3210  170.6770  141.7970 C   0  0  0  0  0  2  0  0  0  0  0  0
  1 16  1  0  0  0  0
  2 14  1  1  0  0  0
  2 12  1  0  0  0  0
  4 18  1  0  0  0  0
  6 13  1  0  0  0  0
  7 14  2  0  0  0  0
  8  1  1  0  0  0  0
  9  2  1  0  0  0  0
  9  5  1  1  0  0  0
  9 10  1  0  0  0  0
 11 18  1  6  0  0  0
 11  5  1  0  0  0  0
 12  1  2  0  0  0  0
 12 17  1  0  0  0  0
 13  3  2  0  0  0  0
 14 11  1  0  0  0  0
 15  4  1  6  0  0  0
 15  7  1  0  0  0  0
 16 13  1  0  0  0  0
 16 26  1  0  0  0  0
 17  6  1  0  0  0  0
 17 43  1  1  0  0  0
 19 20  1  0  0  0  0
 19  8  1  0  0  0  0
 20 10  1  0  0  0  0
 22 21  1  0  0  0  0
 24 23  1  6  0  0  0
 24 22  1  0  0  0  0
 24 21  1  0  0  0  0
 24 15  1  0  0  0  0
 25 27  1  0  0  0  0
 25 39  1  0  0  0  0
 26 25  2  0  0  0  0
 27 29  1  0  0  0  0
 29 28  2  0  0  0  0
 30 36  1  0  0  0  0
 30 34  1  0  0  0  0
 32 35  1  0  0  0  0
 32 37  1  0  0  0  0
 33 31  1  6  0  0  0
 33 32  1  0  0  0  0
 34 29  1  6  0  0  0
 34 33  1  0  0  0  0
 36 38  1  0  0  0  0
 38 32  1  0  0  0  0
 39 40  1  0  0  0  0
 40 42  1  0  0  0  0
 42 41  3  0  0  0  0
 43 45  1  0  0  0  0
 45 44  1  0  0  0  0
M  END
>  <MODEL>
5

>  <REMARK>
 VINA RESULT:      -6.8      2.236      2.684
  Name = 
  9 active torsions:
  status: ('A' for Active; 'I' for Inactive)
    1  A    between atoms: C_6  and  N_7
    2  A    between atoms: C_6  and  C_10
    3  A    between atoms: C_8  and  C_10
    4  A    between atoms: C_8  and  C_36
    5  A    between atoms: C_23  and  C_31
    6  A    between atoms: C_26  and  C_34
    7  A    between atoms: C_29  and  O_41
    8  A    between atoms: N_37  and  C_45
    9  A    between atoms: C_39  and  O_41
                            x       y       z     vdW  Elec       q    Type
                         _______ _______ _______ _____ _____    ______ ____

>  <TORSDO>
F 9

$$$$
=
 OpenBabel11042415163D

 45 50  0  0  1  0  0  0  0  0999 V2000
  191.4140  173.8670  140.9730 C   0  0  0  0  0  0  0  0  0  0  0  0
  192.3320  172.0680  139.4210 C   0  0  1  0  0  3  0  0  0  0  0  0
  193.2280  176.2920  142.9870 O   0  0  0  0  0  0  0  0  0  0  0  0
  195.1440  169.3460  137.8300 C   0  0  0  0  0  2  0  0  0  0  0  0
  192.0220  169.7120  140.1210 C   0  0  0  0  0  2  0  0  0  0  0  0
  194.1280  174.5940  141.5780 C   0  0  0  0  0  2  0  0  0  0  0  0
  194.5650  171.6660  138.4970 N   0  0  0  0  0  0  0  0  0  0  0  0
  190.1430  173.8470  140.3630 O   0  0  0  0  0  0  0  0  0  0  0  0
  191.2870  170.9510  139.6170 C   0  0  1  0  0  3  0  0  0  0  0  0
  190.2750  171.3310  140.5150 O   0  0  0  0  0  0  0  0  0  0  0  0
  193.4720  169.8600  139.6830 C   0  0  2  0  0  3  0  0  0  0  0  0
  192.4290  173.0320  140.6080 C   0  0  0  0  0  0  0  0  0  0  0  0
  192.9930  175.3110  142.2300 C   0  0  0  0  0  0  0  0  0  0  0  0
  193.5740  171.2730  139.2200 C   0  0  0  0  0  0  0  0  0  0  0  0
  195.6600  170.7520  138.2280 C   0  0  2  0  0  3  0  0  0  0  0  0
  191.6490  174.8610  141.9990 N   0  0  0  0  0  0  0  0  0  0  0  0
  193.7420  173.1320  141.3600 C   0  0  2  0  0  3  0  0  0  0  0  0
  193.8100  168.9520  138.4990 C   0  0  0  0  0  2  0  0  0  0  0  0
  189.8340  173.0670  139.3140 O   0  0  0  0  0  0  0  0  0  0  0  0
  189.3250  171.9360  139.8020 O   0  0  0  0  0  0  0  0  0  0  0  0
  197.9400  171.8410  137.6010 C   0  0  0  0  0  2  0  0  0  0  0  0
  196.8450  172.6790  137.2850 O   0  0  0  0  0  0  0  0  0  0  0  0
  196.5300  170.8380  135.7400 C   0  0  0  0  0  1  0  0  0  0  0  0
  196.6360  171.2940  137.1810 C   0  0  2  0  0  0  0  0  0  0  0  0
  189.8110  175.1610  143.5970 C   0  0  0  0  0  0  0  0  0  0  0  0
  190.5590  175.6020  142.5730 C   0  0  0  0  0  3  0  0  0  0  0  0
  188.6650  175.8980  144.0460 N   0  0  0  0  0  2  0  0  0  0  0  0
  189.7160  177.5020  145.3920 O   0  0  0  0  0  0  0  0  0  0  0  0
  188.6850  177.1300  144.7750 C   0  0  0  0  0  0  0  0  0  0  0  0
  186.6950  178.1080  143.1510 S   0  0  0  0  0  0  0  0  0  0  0  0
  185.8580  176.4190  145.6150 O   0  0  0  0  0  1  0  0  0  0  0  0
  185.4560  178.7810  146.1660 C   0  0  0  0  0  0  0  0  0  0  0  0
  186.4820  177.6410  145.9090 C   0  0  2  0  0  3  0  0  0  0  0  0
  187.4830  178.0120  144.8050 C   0  0  1  0  0  3  0  0  0  0  0  0
  184.0670  178.2440  146.5080 C   0  0  0  0  0  1  0  0  0  0  0  0
  185.1600  178.9790  143.6580 C   0  0  0  0  0  2  0  0  0  0  0  0
  185.9350  179.5890  147.3580 C   0  0  0  0  0  1  0  0  0  0  0  0
  185.3300  179.7420  144.9700 C   0  0  0  0  0  2  0  0  0  0  0  0
  190.1380  173.8820  144.2950 C   0  0  0  0  0  2  0  0  0  0  0  0
  190.3750  174.1290  145.7740 C   0  0  0  0  0  2  0  0  0  0  0  0
  192.8990  174.9130  146.1450 C   0  0  0  0  0  3  0  0  0  0  0  0
  191.7570  174.5610  145.9750 C   0  0  0  0  0  0  0  0  0  0  0  0
  193.6380  172.4730  142.5890 O   0  0  0  0  0  0  0  0  0  0  0  0
  194.9930  172.2040  144.5260 C   0  0  0  0  0  1  0  0  0  0  0  0
  194.9550  172.3000  143.0150 C   0  0  0  0  0  2  0  0  0  0  0  0
  1 16  1  0  0  0  0
  2 14  1  1  0  0  0
  2  9  1  0  0  0  0
  2 12  1  0  0  0  0
  4 18  1  0  0  0  0
  6 13  1  0  0  0  0
  7 14  2  0  0  0  0
  8  1  1  0  0  0  0
  9  5  1  1  0  0  0
  9 10  1  0  0  0  0
 11 18  1  6  0  0  0
 11  5  1  0  0  0  0
 12  1  2  0  0  0  0
 12 17  1  0  0  0  0
 13  3  2  0  0  0  0
 14 11  1  0  0  0  0
 15  4  1  6  0  0  0
 15  7  1  0  0  0  0
 16 13  1  0  0  0  0
 16 26  1  0  0  0  0
 17  6  1  0  0  0  0
 17 43  1  1  0  0  0
 19 20  1  0  0  0  0
 19  8  1  0  0  0  0
 20 10  1  0  0  0  0
 22 21  1  0  0  0  0
 24 23  1  6  0  0  0
 24 22  1  0  0  0  0
 24 21  1  0  0  0  0
 24 15  1  0  0  0  0
 25 27  1  0  0  0  0
 25 39  1  0  0  0  0
 26 25  2  0  0  0  0
 27 29  1  0  0  0  0
 29 28  2  0  0  0  0
 30 36  1  0  0  0  0
 30 34  1  0  0  0  0
 32 35  1  0  0  0  0
 32 37  1  0  0  0  0
 33 31  1  6  0  0  0
 33 32  1  0  0  0  0
 34 29  1  6  0  0  0
 34 33  1  0  0  0  0
 36 38  1  0  0  0  0
 38 32  1  0  0  0  0
 39 40  1  0  0  0  0
 40 42  1  0  0  0  0
 42 41  3  0  0  0  0
 43 45  1  0  0  0  0
 45 44  1  0  0  0  0
M  END
>  <MODEL>
6

>  <REMARK>
 VINA RESULT:      -6.5      1.771      2.031
  Name = 
  9 active torsions:
  status: ('A' for Active; 'I' for Inactive)
    1  A    between atoms: C_6  and  N_7
    2  A    between atoms: C_6  and  C_10
    3  A    between atoms: C_8  and  C_10
    4  A    between atoms: C_8  and  C_36
    5  A    between atoms: C_23  and  C_31
    6  A    between atoms: C_26  and  C_34
    7  A    between atoms: C_29  and  O_41
    8  A    between atoms: N_37  and  C_45
    9  A    between atoms: C_39  and  O_41
                            x       y       z     vdW  Elec       q    Type
                         _______ _______ _______ _____ _____    ______ ____

>  <TORSDO>
F 9

$$$$
=
 OpenBabel11042415163D

 45 50  0  0  1  0  0  0  0  0999 V2000
  192.3620  174.5300  141.8150 C   0  0  0  0  0  0  0  0  0  0  0  0
  194.7520  173.7750  141.3590 C   0  0  1  0  0  3  0  0  0  0  0  0
  189.2430  173.0970  140.6130 O   0  0  0  0  0  0  0  0  0  0  0  0
  197.9230  171.8650  139.3220 C   0  0  0  0  0  2  0  0  0  0  0  0
  196.1590  175.2710  139.9730 C   0  0  0  0  0  2  0  0  0  0  0  0
  191.4650  172.3850  140.1270 C   0  0  0  0  0  2  0  0  0  0  0  0
  195.6800  171.7320  140.3780 N   0  0  0  0  0  0  0  0  0  0  0  0
  192.7340  175.2560  142.9660 O   0  0  0  0  0  0  0  0  0  0  0  0
  195.4880  175.1310  141.3360 C   0  0  1  0  0  3  0  0  0  0  0  0
  194.6150  176.2050  141.5760 O   0  0  0  0  0  0  0  0  0  0  0  0
  196.3400  173.8600  139.4320 C   0  0  2  0  0  3  0  0  0  0  0  0
  193.2610  173.8820  141.0200 C   0  0  0  0  0  0  0  0  0  0  0  0
  190.4780  173.3080  140.7580 C   0  0  0  0  0  0  0  0  0  0  0  0
  195.5220  173.0090  140.3410 C   0  0  0  0  0  0  0  0  0  0  0  0
  196.5830  171.0960  139.4360 C   0  0  2  0  0  3  0  0  0  0  0  0
  190.9500  174.4390  141.5080 N   0  0  0  0  0  0  0  0  0  0  0  0
  192.7390  173.1580  139.7940 C   0  0  2  0  0  3  0  0  0  0  0  0
  197.7930  173.3900  139.5290 C   0  0  0  0  0  2  0  0  0  0  0  0
  193.9910  175.3100  143.4350 O   0  0  0  0  0  0  0  0  0  0  0  0
  194.5650  176.3850  142.8950 O   0  0  0  0  0  0  0  0  0  0  0  0
  196.6650  168.5980  138.7030 C   0  0  0  0  0  2  0  0  0  0  0  0
  195.6610  168.8370  139.6710 O   0  0  0  0  0  0  0  0  0  0  0  0
  197.6870  169.2330  140.9410 C   0  0  0  0  0  1  0  0  0  0  0  0
  196.8250  169.6190  139.7570 C   0  0  2  0  0  0  0  0  0  0  0  0
  189.3850  174.9590  143.3250 C   0  0  0  0  0  0  0  0  0  0  0  0
  189.9940  175.2820  142.1730 C   0  0  0  0  0  3  0  0  0  0  0  0
  188.3540  175.7920  143.8740 N   0  0  0  0  0  2  0  0  0  0  0  0
  189.6680  177.4390  144.8970 O   0  0  0  0  0  0  0  0  0  0  0  0
  188.5390  177.0760  144.4790 C   0  0  0  0  0  0  0  0  0  0  0  0
  186.5770  178.2990  142.9920 S   0  0  0  0  0  0  0  0  0  0  0  0
  185.6930  176.4680  145.3360 O   0  0  0  0  0  1  0  0  0  0  0  0
  185.4490  178.7970  146.0850 C   0  0  0  0  0  0  0  0  0  0  0  0
  186.3970  177.6230  145.7090 C   0  0  2  0  0  3  0  0  0  0  0  0
  187.3940  178.0220  144.6120 C   0  0  1  0  0  3  0  0  0  0  0  0
  184.0380  178.3180  146.4210 C   0  0  0  0  0  1  0  0  0  0  0  0
  185.1100  179.2160  143.6090 C   0  0  0  0  0  2  0  0  0  0  0  0
  186.0040  179.4760  147.3230 C   0  0  0  0  0  1  0  0  0  0  0  0
  185.3550  179.8580  144.9730 C   0  0  0  0  0  2  0  0  0  0  0  0
  189.7480  173.7140  144.0660 C   0  0  0  0  0  2  0  0  0  0  0  0
  190.6140  174.0450  145.2680 C   0  0  0  0  0  2  0  0  0  0  0  0
  189.0450  174.5860  147.3580 C   0  0  0  0  0  3  0  0  0  0  0  0
  189.7560  174.3390  146.4140 C   0  0  0  0  0  0  0  0  0  0  0  0
  192.4910  174.0760  138.7700 O   0  0  0  0  0  0  0  0  0  0  0  0
  193.7020  172.9090  137.0870 C   0  0  0  0  0  1  0  0  0  0  0  0
  192.3400  173.3000  137.6200 C   0  0  0  0  0  2  0  0  0  0  0  0
  1  8  1  0  0  0  0
  2 14  1  6  0  0  0
  3 13  2  0  0  0  0
  4 18  1  0  0  0  0
  6 13  1  0  0  0  0
  8 19  1  0  0  0  0
  9  5  1  6  0  0  0
  9  2  1  0  0  0  0
  9 10  1  0  0  0  0
 10 20  1  0  0  0  0
 11 18  1  1  0  0  0
 11  5  1  0  0  0  0
 11 14  1  0  0  0  0
 12  2  1  0  0  0  0
 12  1  2  0  0  0  0
 13 16  1  0  0  0  0
 14  7  2  0  0  0  0
 15  4  1  1  0  0  0
 15 24  1  0  0  0  0
 15  7  1  0  0  0  0
 16  1  1  0  0  0  0
 16 26  1  0  0  0  0
 17 43  1  6  0  0  0
 17  6  1  0  0  0  0
 17 12  1  0  0  0  0
 20 19  1  0  0  0  0
 21 22  1  0  0  0  0
 21 24  1  0  0  0  0
 22 24  1  0  0  0  0
 24 23  1  1  0  0  0
 25 27  1  0  0  0  0
 25 39  1  0  0  0  0
 26 25  2  0  0  0  0
 27 29  1  0  0  0  0
 29 28  2  0  0  0  0
 30 36  1  0  0  0  0
 30 34  1  0  0  0  0
 32 35  1  0  0  0  0
 32 37  1  0  0  0  0
 33 31  1  6  0  0  0
 33 32  1  0  0  0  0
 34 29  1  6  0  0  0
 34 33  1  0  0  0  0
 36 38  1  0  0  0  0
 38 32  1  0  0  0  0
 39 40  1  0  0  0  0
 40 42  1  0  0  0  0
 42 41  3  0  0  0  0
 44 45  1  0  0  0  0
 45 43  1  0  0  0  0
M  END
>  <MODEL>
7

>  <REMARK>
 VINA RESULT:      -6.5      2.205      3.974
  Name = 
  9 active torsions:
  status: ('A' for Active; 'I' for Inactive)
    1  A    between atoms: C_6  and  N_7
    2  A    between atoms: C_6  and  C_10
    3  A    between atoms: C_8  and  C_10
    4  A    between atoms: C_8  and  C_36
    5  A    between atoms: C_23  and  C_31
    6  A    between atoms: C_26  and  C_34
    7  A    between atoms: C_29  and  O_41
    8  A    between atoms: N_37  and  C_45
    9  A    between atoms: C_39  and  O_41
                            x       y       z     vdW  Elec       q    Type
                         _______ _______ _______ _____ _____    ______ ____

>  <TORSDO>
F 9

$$$$
=
 OpenBabel11042415163D

 45 50  0  0  1  0  0  0  0  0999 V2000
  190.2640  173.2950  140.8250 C   0  0  0  0  0  0  0  0  0  0  0  0
  190.9730  171.9260  138.7980 C   0  0  1  0  0  3  0  0  0  0  0  0
  191.7400  173.3970  144.1470 O   0  0  0  0  0  0  0  0  0  0  0  0
  192.8130  168.7800  136.6610 C   0  0  0  0  0  2  0  0  0  0  0  0
  189.4430  170.1190  138.0690 C   0  0  0  0  0  2  0  0  0  0  0  0
  192.4100  172.0660  142.2880 C   0  0  0  0  0  2  0  0  0  0  0  0
  192.9930  170.6310  138.3060 N   0  0  0  0  0  0  0  0  0  0  0  0
  189.5410  174.2170  140.0400 O   0  0  0  0  0  0  0  0  0  0  0  0
  189.6060  171.6340  138.1480 C   0  0  1  0  0  3  0  0  0  0  0  0
  188.5480  172.2130  138.8700 O   0  0  0  0  0  0  0  0  0  0  0  0
  190.8470  169.5310  138.0980 C   0  0  2  0  0  3  0  0  0  0  0  0
  190.8900  172.2020  140.3040 C   0  0  0  0  0  0  0  0  0  0  0  0
  191.5090  173.0480  142.9580 C   0  0  0  0  0  0  0  0  0  0  0  0
  191.7190  170.6770  138.4810 C   0  0  0  0  0  0  0  0  0  0  0  0
  193.6070  169.4010  137.8380 C   0  0  2  0  0  3  0  0  0  0  0  0
  190.3760  173.5670  142.2430 N   0  0  0  0  0  0  0  0  0  0  0  0
  191.6130  171.2700  141.2560 C   0  0  2  0  0  3  0  0  0  0  0  0
  191.2930  169.0420  136.7180 C   0  0  0  0  0  2  0  0  0  0  0  0
  189.4680  174.1550  138.7010 O   0  0  0  0  0  0  0  0  0  0  0  0
  188.3800  173.4480  138.3980 O   0  0  0  0  0  0  0  0  0  0  0  0
  196.1280  169.3680  138.4900 C   0  0  0  0  0  2  0  0  0  0  0  0
  195.6880  170.6630  138.1290 O   0  0  0  0  0  0  0  0  0  0  0  0
  195.5200  169.4730  136.0250 C   0  0  0  0  0  1  0  0  0  0  0  0
  195.0820  169.5800  137.4710 C   0  0  2  0  0  0  0  0  0  0  0  0
  189.9550  175.8260  143.1040 C   0  0  0  0  0  0  0  0  0  0  0  0
  189.5550  174.5660  142.8710 C   0  0  0  0  0  3  0  0  0  0  0  0
  189.1290  176.7400  143.8400 N   0  0  0  0  0  2  0  0  0  0  0  0
  188.3300  178.0670  142.0830 O   0  0  0  0  0  0  0  0  0  0  0  0
  188.2250  177.6990  143.2810 C   0  0  0  0  0  0  0  0  0  0  0  0
  185.8040  178.9780  143.0480 S   0  0  0  0  0  0  0  0  0  0  0  0
  185.8700  176.2530  144.5300 O   0  0  0  0  0  1  0  0  0  0  0  0
  185.7230  178.0190  146.2340 C   0  0  0  0  0  0  0  0  0  0  0  0
  186.5750  177.2930  145.1540 C   0  0  2  0  0  3  0  0  0  0  0  0
  187.1250  178.2730  144.1070 C   0  0  1  0  0  3  0  0  0  0  0  0
  184.5390  177.1750  146.7010 C   0  0  0  0  0  1  0  0  0  0  0  0
  184.5610  179.2750  144.3670 C   0  0  0  0  0  2  0  0  0  0  0  0
  186.6060  178.2690  147.4440 C   0  0  0  0  0  1  0  0  0  0  0  0
  185.1960  179.3820  145.7520 C   0  0  0  0  0  2  0  0  0  0  0  0
  191.2800  176.3160  142.6180 C   0  0  0  0  0  2  0  0  0  0  0  0
  191.8380  177.3640  143.5630 C   0  0  0  0  0  2  0  0  0  0  0  0
  193.5050  176.1890  145.2850 C   0  0  0  0  0  3  0  0  0  0  0  0
  192.7510  176.7230  144.5080 C   0  0  0  0  0  0  0  0  0  0  0  0
  190.6910  170.4390  141.8990 O   0  0  0  0  0  0  0  0  0  0  0  0
  190.7940  168.1710  141.1880 C   0  0  0  0  0  1  0  0  0  0  0  0
  191.3700  169.2360  142.0970 C   0  0  0  0  0  2  0  0  0  0  0  0
  1 16  1  0  0  0  0
  2 14  1  1  0  0  0
  2 12  1  0  0  0  0
  4 18  1  0  0  0  0
  5 11  1  0  0  0  0
  6 13  1  0  0  0  0
  7 14  2  0  0  0  0
  8  1  1  0  0  0  0
  9  5  1  1  0  0  0
  9  2  1  0  0  0  0
  9 10  1  0  0  0  0
 11 18  1  6  0  0  0
 11 14  1  0  0  0  0
 12  1  2  0  0  0  0
 12 17  1  0  0  0  0
 13  3  2  0  0  0  0
 15  4  1  6  0  0  0
 15  7  1  0  0  0  0
 16 26  1  0  0  0  0
 16 13  1  0  0  0  0
 17 43  1  1  0  0  0
 17  6  1  0  0  0  0
 19  8  1  0  0  0  0
 20 19  1  0  0  0  0
 20 10  1  0  0  0  0
 22 21  1  0  0  0  0
 24 23  1  6  0  0  0
 24 15  1  0  0  0  0
 24 22  1  0  0  0  0
 24 21  1  0  0  0  0
 25 27  1  0  0  0  0
 26 25  2  0  0  0  0
 28 29  2  0  0  0  0
 29 27  1  0  0  0  0
 30 34  1  0  0  0  0
 30 36  1  0  0  0  0
 32 35  1  0  0  0  0
 32 37  1  0  0  0  0
 33 31  1  6  0  0  0
 33 32  1  0  0  0  0
 34 29  1  6  0  0  0
 34 33  1  0  0  0  0
 36 38  1  0  0  0  0
 38 32  1  0  0  0  0
 39 25  1  0  0  0  0
 39 40  1  0  0  0  0
 40 42  1  0  0  0  0
 42 41  3  0  0  0  0
 43 45  1  0  0  0  0
 44 45  1  0  0  0  0
M  END
>  <MODEL>
8

>  <REMARK>
 VINA RESULT:      -6.3      2.054      2.905
  Name = 
  9 active torsions:
  status: ('A' for Active; 'I' for Inactive)
    1  A    between atoms: C_6  and  N_7
    2  A    between atoms: C_6  and  C_10
    3  A    between atoms: C_8  and  C_10
    4  A    between atoms: C_8  and  C_36
    5  A    between atoms: C_23  and  C_31
    6  A    between atoms: C_26  and  C_34
    7  A    between atoms: C_29  and  O_41
    8  A    between atoms: N_37  and  C_45
    9  A    between atoms: C_39  and  O_41
                            x       y       z     vdW  Elec       q    Type
                         _______ _______ _______ _____ _____    ______ ____

>  <TORSDO>
F 9

$$$$
=
 OpenBabel11042415163D

 45 50  0  0  1  0  0  0  0  0999 V2000
  187.4490  175.9920  143.6890 C   0  0  0  0  0  0  0  0  0  0  0  0
  189.6630  174.7620  143.4170 C   0  0  1  0  0  3  0  0  0  0  0  0
  186.5750  178.6350  146.0300 O   0  0  0  0  0  0  0  0  0  0  0  0
  193.4630  173.2730  144.5070 C   0  0  0  0  0  2  0  0  0  0  0  0
  189.7060  172.3690  144.0560 C   0  0  0  0  0  2  0  0  0  0  0  0
  188.6490  177.4780  145.8370 C   0  0  0  0  0  2  0  0  0  0  0  0
  191.9120  175.1980  144.2830 N   0  0  0  0  0  0  0  0  0  0  0  0
  187.0080  175.6340  142.3990 O   0  0  0  0  0  0  0  0  0  0  0  0
  189.1690  173.3550  143.0220 C   0  0  1  0  0  3  0  0  0  0  0  0
  187.7670  173.2920  142.9530 O   0  0  0  0  0  0  0  0  0  0  0  0
  190.9330  173.0200  144.6800 C   0  0  2  0  0  3  0  0  0  0  0  0
  188.6350  175.5710  144.2160 C   0  0  0  0  0  0  0  0  0  0  0  0
  187.2270  177.7200  145.4580 C   0  0  0  0  0  0  0  0  0  0  0  0
  190.8790  174.4330  144.2080 C   0  0  0  0  0  0  0  0  0  0  0  0
  193.1120  174.7170  144.9440 C   0  0  2  0  0  3  0  0  0  0  0  0
  186.6130  176.8910  144.4570 N   0  0  0  0  0  0  0  0  0  0  0  0
  188.9850  176.0030  145.6260 C   0  0  2  0  0  3  0  0  0  0  0  0
  192.2350  172.4020  144.1650 C   0  0  0  0  0  2  0  0  0  0  0  0
  187.7440  174.9160  141.5350 O   0  0  0  0  0  0  0  0  0  0  0  0
  187.4200  173.6350  141.7130 O   0  0  0  0  0  0  0  0  0  0  0  0
  194.9220  176.3180  145.9150 C   0  0  0  0  0  2  0  0  0  0  0  0
  194.0170  176.9920  145.0620 O   0  0  0  0  0  0  0  0  0  0  0  0
  195.1720  175.5300  143.5130 C   0  0  0  0  0  1  0  0  0  0  0  0
  194.3070  175.6540  144.7500 C   0  0  2  0  0  0  0  0  0  0  0  0
  184.9130  178.2630  143.3400 C   0  0  0  0  0  0  0  0  0  0  0  0
  185.2650  177.1780  144.0470 C   0  0  0  0  0  3  0  0  0  0  0  0
  183.5340  178.5490  143.0640 N   0  0  0  0  0  2  0  0  0  0  0  0
  183.4820  178.1070  140.7640 O   0  0  0  0  0  0  0  0  0  0  0  0
  182.8480  178.2910  141.8340 C   0  0  0  0  0  0  0  0  0  0  0  0
  180.6270  178.9580  143.3110 S   0  0  0  0  0  0  0  0  0  0  0  0
  180.9080  180.1870  140.4760 O   0  0  0  0  0  1  0  0  0  0  0  0
  179.2660  178.3610  140.3320 C   0  0  0  0  0  0  0  0  0  0  0  0
  180.7500  178.7930  140.5130 C   0  0  2  0  0  3  0  0  0  0  0  0
  181.3590  178.2180  141.8000 C   0  0  1  0  0  3  0  0  0  0  0  0
  178.4170  179.4610  139.6970 C   0  0  0  0  0  1  0  0  0  0  0  0
  178.8740  178.9580  142.7630 C   0  0  0  0  0  2  0  0  0  0  0  0
  179.2320  177.1660  139.3980 C   0  0  0  0  0  1  0  0  0  0  0  0
  178.6100  177.9380  141.6580 C   0  0  0  0  0  2  0  0  0  0  0  0
  185.9410  179.2170  142.8280 C   0  0  0  0  0  2  0  0  0  0  0  0
  186.6020  178.6660  141.5780 C   0  0  0  0  0  2  0  0  0  0  0  0
  189.2280  178.4300  141.9950 C   0  0  0  0  0  3  0  0  0  0  0  0
  188.0400  178.5390  141.8080 C   0  0  0  0  0  0  0  0  0  0  0  0
  188.2910  175.2160  146.5500 O   0  0  0  0  0  0  0  0  0  0  0  0
  190.4000  175.5000  147.6130 C   0  0  0  0  0  1  0  0  0  0  0  0
  189.2830  174.5410  147.2630 C   0  0  0  0  0  2  0  0  0  0  0  0
  1 12  2  0  0  0  0
  1 16  1  0  0  0  0
  2 14  1  1  0  0  0
  2 12  1  0  0  0  0
  7 15  1  0  0  0  0
  8  1  1  0  0  0  0
  9  2  1  0  0  0  0
  9  5  1  1  0  0  0
 10  9  1  0  0  0  0
 11  5  1  6  0  0  0
 12 17  1  0  0  0  0
 13  6  1  0  0  0  0
 13  3  2  0  0  0  0
 14  7  2  0  0  0  0
 14 11  1  0  0  0  0
 15  4  1  6  0  0  0
 16 13  1  0  0  0  0
 17  6  1  0  0  0  0
 17 43  1  1  0  0  0
 18  4  1  0  0  0  0
 18 11  1  0  0  0  0
 19 20  1  0  0  0  0
 19  8  1  0  0  0  0
 20 10  1  0  0  0  0
 22 21  1  0  0  0  0
 24 23  1  6  0  0  0
 24 15  1  0  0  0  0
 24 22  1  0  0  0  0
 24 21  1  0  0  0  0
 25 26  2  0  0  0  0
 26 16  1  0  0  0  0
 27 25  1  0  0  0  0
 28 29  2  0  0  0  0
 29 27  1  0  0  0  0
 32 33  1  0  0  0  0
 32 38  1  0  0  0  0
 33 31  1  1  0  0  0
 33 34  1  0  0  0  0
 34 29  1  6  0  0  0
 34 30  1  0  0  0  0
 35 32  1  0  0  0  0
 36 30  1  0  0  0  0
 37 32  1  0  0  0  0
 38 36  1  0  0  0  0
 39 25  1  0  0  0  0
 40 42  1  0  0  0  0
 40 39  1  0  0  0  0
 42 41  3  0  0  0  0
 43 45  1  0  0  0  0
 45 44  1  0  0  0  0
M  END
>  <MODEL>
9

>  <REMARK>
 VINA RESULT:      -6.2      3.638      6.487
  Name = 
  9 active torsions:
  status: ('A' for Active; 'I' for Inactive)
    1  A    between atoms: C_6  and  N_7
    2  A    between atoms: C_6  and  C_10
    3  A    between atoms: C_8  and  C_10
    4  A    between atoms: C_8  and  C_36
    5  A    between atoms: C_23  and  C_31
    6  A    between atoms: C_26  and  C_34
    7  A    between atoms: C_29  and  O_41
    8  A    between atoms: N_37  and  C_45
    9  A    between atoms: C_39  and  O_41
                            x       y       z     vdW  Elec       q    Type
                         _______ _______ _______ _____ _____    ______ ____

>  <TORSDO>
F 9

$$$$
