=
 OpenBabel11042414093D

 49 53  0  0  1  0  0  0  0  0999 V2000
  190.4550  172.0090  139.9400 N   0  0  0  0  0  0  0  0  0  0  0  0
  191.0080  170.9560  140.5290 C   0  0  0  0  0  0  0  0  0  0  0  0
  191.0850  170.8320  141.9760 N   0  0  0  0  0  0  0  0  0  0  0  0
  188.8130  173.4620  141.4270 C   0  0  2  0  0  0  0  0  0  0  0  0
  190.0010  172.8390  142.0120 N   0  0  0  0  0  0  0  0  0  0  0  0
  190.5730  171.7660  142.7130 C   0  0  0  0  0  0  0  0  0  0  0  0
  191.4780  169.8860  139.7260 N   0  0  0  0  0  1  0  0  0  0  0  0
  188.2610  173.1780  139.7530 S   0  0  0  0  0  0  0  0  0  0  0  0
  189.9080  173.2410  140.5710 C   0  0  2  0  0  0  0  0  0  0  0  0
  187.6910  175.5400  141.0820 O   0  0  0  0  0  0  0  0  0  0  0  0
  188.7620  174.9420  141.7670 C   0  0  1  0  0  3  0  0  0  0  0  0
  187.4860  175.2840  142.4490 C   0  0  1  0  0  3  0  0  0  0  0  0
  188.3370  176.2110  144.5740 C   0  0  0  0  0  1  0  0  0  0  0  0
  187.6800  176.5690  143.2500 C   0  0  2  0  0  3  0  0  0  0  0  0
  186.3790  177.3290  143.5400 C   0  0  2  0  0  3  0  0  0  0  0  0
  185.6850  177.8260  142.3110 C   0  0  0  0  0  0  0  0  0  0  0  0
  184.0360  178.9530  140.2060 O   0  0  0  0  0  0  0  0  0  0  0  0
  186.3710  178.3140  141.3840 O   0  0  0  0  0  0  0  0  0  0  0  0
  184.2670  177.7060  142.1830 N   0  0  0  0  0  2  0  0  0  0  0  0
  183.4850  178.2760  141.1250 C   0  0  0  0  0  0  0  0  0  0  0  0
  182.0120  178.0700  141.1030 C   0  0  0  0  0  1  0  0  0  0  0  0
  186.6840  178.4990  144.4700 C   0  0  0  0  0  2  0  0  0  0  0  0
  185.4570  178.8570  145.3040 C   0  0  0  0  0  2  0  0  0  0  0  0
  185.8750  179.1540  146.6650 N   0  0  0  0  0  2  0  0  0  0  0  0
  186.1630  176.9070  147.5320 C   0  0  0  0  0  2  0  0  0  0  0  0
  185.8170  178.1760  147.7170 C   0  0  0  0  0  3  0  0  0  0  0  0
  190.5720  171.7020  144.2030 C   0  0  0  0  0  2  0  0  0  0  0  0
  192.0070  173.4610  145.0650 C   0  0  0  0  0  0  0  0  0  0  0  0
  190.8020  173.0570  144.7660 C   0  0  0  0  0  3  0  0  0  0  0  0
  193.1990  173.9010  145.3790 C   0  0  0  0  0  3  0  0  0  0  0  0
  194.4320  173.0810  145.1770 C   0  0  1  0  0  3  0  0  0  0  0  0
  194.3190  172.2260  143.9830 C   0  0  0  0  0  0  0  0  0  0  0  0
  194.2380  171.4980  143.0180 C   0  0  0  0  0  3  0  0  0  0  0  0
  196.2480  174.3260  146.0550 O   0  0  0  0  0  0  0  0  0  0  0  0
  195.6180  173.9960  145.0620 C   0  0  0  0  0  0  0  0  0  0  0  0
  196.0770  174.4410  143.7120 C   0  0  0  0  0  2  0  0  0  0  0  0
  196.5140  176.7730  143.9320 O   0  0  0  0  0  0  0  0  0  0  0  0
  195.7490  175.8850  143.4810 C   0  0  0  0  0  0  0  0  0  0  0  0
  194.5660  176.2740  142.7730 N   0  0  0  0  0  2  0  0  0  0  0  0
  193.6940  175.3190  142.0870 C   0  0  1  0  0  3  0  0  0  0  0  0
  192.3210  175.5820  142.3110 O   0  0  0  0  0  0  0  0  0  0  0  0
  192.1810  176.6120  143.2610 C   0  0  0  0  0  2  0  0  0  0  0  0
  190.9700  178.6170  143.7630 O   0  0  0  0  0  1  0  0  0  0  0  0
  191.1550  177.6310  142.7910 C   0  0  0  0  0  2  0  0  0  0  0  0
  194.0650  175.1210  140.6080 C   0  0  0  0  0  2  0  0  0  0  0  0
  194.5910  173.7890  140.3500 N   0  0  0  0  0  2  0  0  0  0  0  0
  195.1890  172.5620  138.3710 C   0  0  0  0  0  2  0  0  0  0  0  0
  194.1470  173.3910  139.0270 C   0  0  1  0  0  3  0  0  0  0  0  0
  194.0570  171.9890  138.9750 O   0  0  0  0  0  0  0  0  0  0  0  0
  1  2  2  0  0  0  0
  1  9  1  0  0  0  0
  2  3  1  0  0  0  0
  3  6  2  0  0  0  0
  4  8  1  6  0  0  0
  4 11  1  0  0  0  0
  4  5  1  0  0  0  0
  5  6  1  0  0  0  0
  6 27  1  0  0  0  0
  7  2  1  0  0  0  0
  9  8  1  1  0  0  0
  9  4  1  0  0  0  0
  9  5  1  0  0  0  0
 10 12  1  0  0  0  0
 11 10  1  6  0  0  0
 11 12  1  0  0  0  0
 12 14  1  1  0  0  0
 14 15  1  0  0  0  0
 14 13  1  1  0  0  0
 15 22  1  1  0  0  0
 16 15  1  0  0  0  0
 17 20  2  0  0  0  0
 18 16  2  0  0  0  0
 19 16  1  0  0  0  0
 20 19  1  0  0  0  0
 21 20  1  0  0  0  0
 22 23  1  0  0  0  0
 23 24  1  0  0  0  0
 24 26  1  0  0  0  0
 25 26  2  0  0  0  0
 27 29  1  0  0  0  0
 28 30  2  0  0  0  0
 29 28  2  0  0  0  0
 31 32  1  6  0  0  0
 31 30  1  0  0  0  0
 33 32  3  0  0  0  0
 35 31  1  0  0  0  0
 35 34  2  0  0  0  0
 36 35  1  0  0  0  0
 38 36  1  0  0  0  0
 38 37  2  0  0  0  0
 39 38  1  0  0  0  0
 40 45  1  6  0  0  0
 40 41  1  0  0  0  0
 40 39  1  0  0  0  0
 41 42  1  0  0  0  0
 44 42  1  0  0  0  0
 44 43  1  0  0  0  0
 46 45  1  0  0  0  0
 47 49  1  0  0  0  0
 47 48  1  0  0  0  0
 48 46  1  1  0  0  0
 49 48  1  0  0  0  0
M  END
>  <MODEL>
1

>  <REMARK>
 VINA RESULT:      -5.4      0.000      0.000
  Name = 
  22 active torsions:
  status: ('A' for Active; 'I' for Inactive)
    1  A    between atoms: C_3  and  C_36
    2  A    between atoms: C_5  and  O_37
    3  A    between atoms: C_5  and  N_39
    4  A    between atoms: C_5  and  C_46
    5  A    between atoms: C_7  and  C_8
    6  A    between atoms: C_7  and  O_37
    7  A    between atoms: C_10  and  C_41
    8  A    between atoms: N_12  and  C_18
    9  A    between atoms: N_12  and  C_20
   10  A    between atoms: C_15  and  C_24
   11  A    between atoms: C_17  and  C_23
   12  A    between atoms: C_18  and  C_44
   13  A    between atoms: C_22  and  C_26
   14  A    between atoms: C_23  and  C_28
   15  A    between atoms: C_23  and  C_43
   16  A    between atoms: C_26  and  C_43
   17  A    between atoms: C_27  and  C_47
   18  A    between atoms: N_29  and  C_42
   19  A    between atoms: N_29  and  C_46
   20  A    between atoms: C_31  and  C_36
   21  A    between atoms: C_41  and  C_44
   22  A    between atoms: C_41  and  C_47
                            x       y       z     vdW  Elec       q    Type
                         _______ _______ _______ _____ _____    ______ ____

>  <TORSDO>
F 22

$$$$
=
 OpenBabel11042414093D

 49 53  0  0  1  0  0  0  0  0999 V2000
  186.1400  177.7800  144.7010 N   0  0  0  0  0  0  0  0  0  0  0  0
  186.1360  177.9250  146.0200 C   0  0  0  0  0  0  0  0  0  0  0  0
  186.9250  177.0720  146.8940 N   0  0  0  0  0  0  0  0  0  0  0  0
  188.1930  176.4620  143.6690 C   0  0  2  0  0  0  0  0  0  0  0  0
  187.6320  176.0790  144.9660 N   0  0  0  0  0  0  0  0  0  0  0  0
  187.6790  176.1610  146.3650 C   0  0  0  0  0  0  0  0  0  0  0  0
  185.3900  178.9870  146.5940 N   0  0  0  0  0  1  0  0  0  0  0  0
  187.6930  177.9120  142.7550 S   0  0  0  0  0  0  0  0  0  0  0  0
  186.8310  176.7440  143.8860 C   0  0  2  0  0  0  0  0  0  0  0  0
  188.8780  175.6420  141.5350 O   0  0  0  0  0  0  0  0  0  0  0  0
  188.2910  175.2550  142.7500 C   0  0  1  0  0  3  0  0  0  0  0  0
  189.7100  174.9490  142.4300 C   0  0  1  0  0  3  0  0  0  0  0  0
  190.3910  172.6940  143.1730 C   0  0  0  0  0  1  0  0  0  0  0  0
  189.8200  173.4860  142.0080 C   0  0  2  0  0  3  0  0  0  0  0  0
  190.7050  173.2540  140.7770 C   0  0  2  0  0  3  0  0  0  0  0  0
  190.3360  172.0370  139.9890 C   0  0  0  0  0  0  0  0  0  0  0  0
  189.8860  169.8400  138.1470 O   0  0  0  0  0  0  0  0  0  0  0  0
  190.2560  170.9350  140.5790 O   0  0  0  0  0  0  0  0  0  0  0  0
  190.0390  172.1410  138.5960 N   0  0  0  0  0  2  0  0  0  0  0  0
  189.8200  171.0300  137.7160 C   0  0  0  0  0  0  0  0  0  0  0  0
  189.5090  171.2750  136.2820 C   0  0  0  0  0  1  0  0  0  0  0  0
  192.1610  173.1580  141.2240 C   0  0  0  0  0  2  0  0  0  0  0  0
  193.0740  173.8890  140.2430 C   0  0  0  0  0  2  0  0  0  0  0  0
  194.4100  173.3200  140.3200 N   0  0  0  0  0  2  0  0  0  0  0  0
  195.7190  175.2500  139.6530 C   0  0  0  0  0  2  0  0  0  0  0  0
  195.5920  174.1380  140.3670 C   0  0  0  0  0  3  0  0  0  0  0  0
  188.5520  175.2690  147.1820 C   0  0  0  0  0  2  0  0  0  0  0  0
  190.6740  174.9640  146.0400 C   0  0  0  0  0  0  0  0  0  0  0  0
  189.4740  174.5160  146.2940 C   0  0  0  0  0  3  0  0  0  0  0  0
  191.8830  175.3820  145.7610 C   0  0  0  0  0  3  0  0  0  0  0  0
  192.4430  176.6450  146.3310 C   0  0  1  0  0  3  0  0  0  0  0  0
  191.9060  176.9110  147.6760 C   0  0  0  0  0  0  0  0  0  0  0  0
  191.4570  177.1600  148.7740 C   0  0  0  0  0  3  0  0  0  0  0  0
  194.6230  177.5140  146.6650 O   0  0  0  0  0  0  0  0  0  0  0  0
  193.9410  176.5450  146.3690 C   0  0  0  0  0  0  0  0  0  0  0  0
  194.5970  175.2270  146.1190 C   0  0  0  0  0  2  0  0  0  0  0  0
  195.7240  176.3190  144.3260 O   0  0  0  0  0  0  0  0  0  0  0  0
  195.3310  175.2300  144.8110 C   0  0  0  0  0  0  0  0  0  0  0  0
  195.5740  174.0150  144.0930 N   0  0  0  0  0  2  0  0  0  0  0  0
  195.2850  172.6890  144.6420 C   0  0  1  0  0  3  0  0  0  0  0  0
  194.1500  172.0900  144.0440 O   0  0  0  0  0  0  0  0  0  0  0  0
  194.5550  171.0470  143.1900 C   0  0  0  0  0  2  0  0  0  0  0  0
  192.9350  169.9180  144.5450 O   0  0  0  0  0  1  0  0  0  0  0  0
  193.6240  169.8530  143.3320 C   0  0  0  0  0  2  0  0  0  0  0  0
  196.5230  171.7790  144.6950 C   0  0  0  0  0  2  0  0  0  0  0  0
  196.7780  171.2790  146.0390 N   0  0  0  0  0  2  0  0  0  0  0  0
  196.7800  169.1650  147.1800 C   0  0  0  0  0  2  0  0  0  0  0  0
  197.1290  169.8770  145.9260 C   0  0  1  0  0  3  0  0  0  0  0  0
  195.9640  169.1000  146.0390 O   0  0  0  0  0  0  0  0  0  0  0  0
  1  2  2  0  0  0  0
  2  7  1  0  0  0  0
  2  3  1  0  0  0  0
  4  8  1  6  0  0  0
  4  9  1  0  0  0  0
  4  5  1  0  0  0  0
  5  6  1  0  0  0  0
  6  3  2  0  0  0  0
  6 27  1  0  0  0  0
  9  8  1  1  0  0  0
  9  1  1  0  0  0  0
  9  5  1  0  0  0  0
 10 12  1  0  0  0  0
 11 10  1  6  0  0  0
 11  4  1  0  0  0  0
 12 14  1  6  0  0  0
 12 11  1  0  0  0  0
 14 13  1  1  0  0  0
 15 22  1  1  0  0  0
 15 14  1  0  0  0  0
 16 18  2  0  0  0  0
 16 15  1  0  0  0  0
 19 16  1  0  0  0  0
 20 17  2  0  0  0  0
 20 19  1  0  0  0  0
 21 20  1  0  0  0  0
 23 24  1  0  0  0  0
 23 22  1  0  0  0  0
 24 26  1  0  0  0  0
 25 26  2  0  0  0  0
 28 29  2  0  0  0  0
 29 27  1  0  0  0  0
 30 28  2  0  0  0  0
 31 30  1  1  0  0  0
 31 35  1  0  0  0  0
 31 32  1  0  0  0  0
 32 33  3  0  0  0  0
 35 34  2  0  0  0  0
 36 35  1  0  0  0  0
 37 38  2  0  0  0  0
 38 36  1  0  0  0  0
 39 40  1  0  0  0  0
 39 38  1  0  0  0  0
 40 45  1  6  0  0  0
 41 40  1  0  0  0  0
 42 44  1  0  0  0  0
 42 41  1  0  0  0  0
 44 43  1  0  0  0  0
 45 46  1  0  0  0  0
 48 46  1  1  0  0  0
 48 49  1  0  0  0  0
 48 47  1  0  0  0  0
 49 47  1  0  0  0  0
M  END
>  <MODEL>
2

>  <REMARK>
 VINA RESULT:      -5.2      2.983      7.278
  Name = 
  22 active torsions:
  status: ('A' for Active; 'I' for Inactive)
    1  A    between atoms: C_3  and  C_36
    2  A    between atoms: C_5  and  O_37
    3  A    between atoms: C_5  and  N_39
    4  A    between atoms: C_5  and  C_46
    5  A    between atoms: C_7  and  C_8
    6  A    between atoms: C_7  and  O_37
    7  A    between atoms: C_10  and  C_41
    8  A    between atoms: N_12  and  C_18
    9  A    between atoms: N_12  and  C_20
   10  A    between atoms: C_15  and  C_24
   11  A    between atoms: C_17  and  C_23
   12  A    between atoms: C_18  and  C_44
   13  A    between atoms: C_22  and  C_26
   14  A    between atoms: C_23  and  C_28
   15  A    between atoms: C_23  and  C_43
   16  A    between atoms: C_26  and  C_43
   17  A    between atoms: C_27  and  C_47
   18  A    between atoms: N_29  and  C_42
   19  A    between atoms: N_29  and  C_46
   20  A    between atoms: C_31  and  C_36
   21  A    between atoms: C_41  and  C_44
   22  A    between atoms: C_41  and  C_47
                            x       y       z     vdW  Elec       q    Type
                         _______ _______ _______ _____ _____    ______ ____

>  <TORSDO>
F 22

$$$$
=
 OpenBabel11042414093D

 49 53  0  0  1  0  0  0  0  0999 V2000
  185.6400  177.7560  145.1080 N   0  0  0  0  0  0  0  0  0  0  0  0
  186.0970  177.9220  146.3440 C   0  0  0  0  0  0  0  0  0  0  0  0
  187.2530  177.1960  146.8440 N   0  0  0  0  0  0  0  0  0  0  0  0
  187.3300  176.7040  143.3610 C   0  0  2  0  0  0  0  0  0  0  0  0
  187.3330  176.2720  144.7600 N   0  0  0  0  0  0  0  0  0  0  0  0
  187.8740  176.3830  146.0490 C   0  0  0  0  0  0  0  0  0  0  0  0
  185.4800  178.8860  147.1820 N   0  0  0  0  0  1  0  0  0  0  0  0
  186.3490  178.0590  142.7380 S   0  0  0  0  0  0  0  0  0  0  0  0
  186.1160  176.8070  144.0660 C   0  0  2  0  0  0  0  0  0  0  0  0
  187.8380  175.8270  141.2000 O   0  0  0  0  0  0  0  0  0  0  0  0
  187.2430  175.5050  142.4310 C   0  0  1  0  0  3  0  0  0  0  0  0
  188.6000  175.0210  142.0640 C   0  0  1  0  0  3  0  0  0  0  0  0
  188.5350  172.6890  142.8720 C   0  0  0  0  0  1  0  0  0  0  0  0
  188.5060  173.5620  141.6270 C   0  0  2  0  0  3  0  0  0  0  0  0
  189.6340  173.1140  140.6900 C   0  0  2  0  0  3  0  0  0  0  0  0
  189.3280  173.3140  139.2380 C   0  0  0  0  0  0  0  0  0  0  0  0
  189.1390  173.5410  136.3520 O   0  0  0  0  0  0  0  0  0  0  0  0
  188.1850  173.0230  138.8160 O   0  0  0  0  0  0  0  0  0  0  0  0
  190.3100  173.8670  138.3620 N   0  0  0  0  0  2  0  0  0  0  0  0
  190.1800  173.9640  136.9370 C   0  0  0  0  0  0  0  0  0  0  0  0
  191.2770  174.5710  136.1360 C   0  0  0  0  0  1  0  0  0  0  0  0
  189.9470  171.6450  140.9540 C   0  0  0  0  0  2  0  0  0  0  0  0
  190.4480  170.9640  139.6830 C   0  0  0  0  0  2  0  0  0  0  0  0
  190.8530  169.6040  139.9980 N   0  0  0  0  0  2  0  0  0  0  0  0
  190.3260  168.6960  137.8110 C   0  0  0  0  0  2  0  0  0  0  0  0
  190.6500  168.5110  139.0860 C   0  0  0  0  0  3  0  0  0  0  0  0
  189.0920  175.6290  146.4650 C   0  0  0  0  0  2  0  0  0  0  0  0
  191.4240  176.2230  146.7890 C   0  0  0  0  0  0  0  0  0  0  0  0
  190.1700  176.5810  146.8390 C   0  0  0  0  0  3  0  0  0  0  0  0
  192.6930  175.9010  146.7540 C   0  0  0  0  0  3  0  0  0  0  0  0
  193.1630  174.5520  146.3130 C   0  0  1  0  0  3  0  0  0  0  0  0
  192.2380  173.9550  145.3350 C   0  0  0  0  0  0  0  0  0  0  0  0
  191.4670  173.4430  144.5520 C   0  0  0  0  0  3  0  0  0  0  0  0
  195.4820  175.0290  146.4270 O   0  0  0  0  0  0  0  0  0  0  0  0
  194.5420  174.6770  145.7320 C   0  0  0  0  0  0  0  0  0  0  0  0
  194.7780  174.2910  144.3080 C   0  0  0  0  0  2  0  0  0  0  0  0
  196.2300  176.0850  143.7130 O   0  0  0  0  0  0  0  0  0  0  0  0
  195.1510  175.4850  143.4820 C   0  0  0  0  0  0  0  0  0  0  0  0
  194.2900  175.9690  142.4440 N   0  0  0  0  0  2  0  0  0  0  0  0
  193.0890  175.2560  142.0040 C   0  0  1  0  0  3  0  0  0  0  0  0
  191.9000  175.9710  142.2880 O   0  0  0  0  0  0  0  0  0  0  0  0
  192.1910  177.0680  143.1230 C   0  0  0  0  0  2  0  0  0  0  0  0
  190.1500  178.0610  142.3590 O   0  0  0  0  0  1  0  0  0  0  0  0
  190.9130  177.8000  143.4990 C   0  0  0  0  0  2  0  0  0  0  0  0
  193.1890  174.7490  140.5560 C   0  0  0  0  0  2  0  0  0  0  0  0
  193.1910  173.2950  140.4840 N   0  0  0  0  0  2  0  0  0  0  0  0
  194.8930  171.6550  140.0550 C   0  0  0  0  0  2  0  0  0  0  0  0
  194.5130  172.8380  140.8660 C   0  0  1  0  0  3  0  0  0  0  0  0
  195.3730  172.9410  139.7580 O   0  0  0  0  0  0  0  0  0  0  0  0
  1  2  2  0  0  0  0
  2  3  1  0  0  0  0
  2  7  1  0  0  0  0
  4  8  1  6  0  0  0
  4  9  1  0  0  0  0
  4  5  1  0  0  0  0
  5  6  1  0  0  0  0
  6 27  1  0  0  0  0
  6  3  2  0  0  0  0
  9  8  1  1  0  0  0
  9  5  1  0  0  0  0
  9  1  1  0  0  0  0
 10 12  1  0  0  0  0
 11 10  1  6  0  0  0
 11  4  1  0  0  0  0
 12 14  1  6  0  0  0
 12 11  1  0  0  0  0
 14 13  1  1  0  0  0
 15 22  1  6  0  0  0
 15 14  1  0  0  0  0
 16 15  1  0  0  0  0
 17 20  2  0  0  0  0
 18 16  2  0  0  0  0
 19 16  1  0  0  0  0
 20 19  1  0  0  0  0
 21 20  1  0  0  0  0
 23 24  1  0  0  0  0
 23 22  1  0  0  0  0
 25 26  2  0  0  0  0
 26 24  1  0  0  0  0
 27 29  1  0  0  0  0
 28 29  2  0  0  0  0
 30 28  2  0  0  0  0
 31 32  1  6  0  0  0
 31 30  1  0  0  0  0
 33 32  3  0  0  0  0
 35 31  1  0  0  0  0
 35 34  2  0  0  0  0
 36 35  1  0  0  0  0
 38 37  2  0  0  0  0
 38 36  1  0  0  0  0
 39 38  1  0  0  0  0
 40 45  1  6  0  0  0
 40 41  1  0  0  0  0
 40 39  1  0  0  0  0
 41 42  1  0  0  0  0
 42 44  1  0  0  0  0
 43 44  1  0  0  0  0
 46 45  1  0  0  0  0
 47 48  1  0  0  0  0
 48 46  1  6  0  0  0
 49 47  1  0  0  0  0
 49 48  1  0  0  0  0
M  END
>  <MODEL>
3

>  <REMARK>
 VINA RESULT:      -5.1      2.170      6.257
  Name = 
  22 active torsions:
  status: ('A' for Active; 'I' for Inactive)
    1  A    between atoms: C_3  and  C_36
    2  A    between atoms: C_5  and  O_37
    3  A    between atoms: C_5  and  N_39
    4  A    between atoms: C_5  and  C_46
    5  A    between atoms: C_7  and  C_8
    6  A    between atoms: C_7  and  O_37
    7  A    between atoms: C_10  and  C_41
    8  A    between atoms: N_12  and  C_18
    9  A    between atoms: N_12  and  C_20
   10  A    between atoms: C_15  and  C_24
   11  A    between atoms: C_17  and  C_23
   12  A    between atoms: C_18  and  C_44
   13  A    between atoms: C_22  and  C_26
   14  A    between atoms: C_23  and  C_28
   15  A    between atoms: C_23  and  C_43
   16  A    between atoms: C_26  and  C_43
   17  A    between atoms: C_27  and  C_47
   18  A    between atoms: N_29  and  C_42
   19  A    between atoms: N_29  and  C_46
   20  A    between atoms: C_31  and  C_36
   21  A    between atoms: C_41  and  C_44
   22  A    between atoms: C_41  and  C_47
                            x       y       z     vdW  Elec       q    Type
                         _______ _______ _______ _____ _____    ______ ____

>  <TORSDO>
F 22

$$$$
=
 OpenBabel11042414093D

 49 53  0  0  1  0  0  0  0  0999 V2000
  190.3030  171.2650  139.6180 N   0  0  0  0  0  0  0  0  0  0  0  0
  191.4320  171.0860  138.9440 C   0  0  0  0  0  0  0  0  0  0  0  0
  192.4050  172.1520  138.7700 N   0  0  0  0  0  0  0  0  0  0  0  0
  190.2420  173.3230  141.2850 C   0  0  2  0  0  0  0  0  0  0  0  0
  190.9660  173.4080  140.0160 N   0  0  0  0  0  0  0  0  0  0  0  0
  192.1770  173.3050  139.3150 C   0  0  0  0  0  0  0  0  0  0  0  0
  191.7320  169.7970  138.4330 N   0  0  0  0  0  1  0  0  0  0  0  0
  189.4980  171.8250  141.9100 S   0  0  0  0  0  0  0  0  0  0  0  0
  189.7780  172.5170  140.2280 C   0  0  2  0  0  0  0  0  0  0  0  0
  188.6140  174.3910  142.6660 O   0  0  0  0  0  0  0  0  0  0  0  0
  189.2930  174.5000  141.4410 C   0  0  1  0  0  3  0  0  0  0  0  0
  189.6640  175.3250  142.6220 C   0  0  1  0  0  3  0  0  0  0  0  0
  189.9880  177.7030  143.2000 C   0  0  0  0  0  1  0  0  0  0  0  0
  189.0980  176.7310  142.4420 C   0  0  2  0  0  3  0  0  0  0  0  0
  187.6580  176.8950  142.9420 C   0  0  2  0  0  3  0  0  0  0  0  0
  186.7240  177.4600  141.9180 C   0  0  0  0  0  0  0  0  0  0  0  0
  184.7210  178.7610  140.2700 O   0  0  0  0  0  0  0  0  0  0  0  0
  187.1900  177.8350  140.8170 O   0  0  0  0  0  0  0  0  0  0  0  0
  185.3220  177.5280  142.1780 N   0  0  0  0  0  2  0  0  0  0  0  0
  184.3600  178.1800  141.3370 C   0  0  0  0  0  0  0  0  0  0  0  0
  182.9220  178.1730  141.7190 C   0  0  0  0  0  1  0  0  0  0  0  0
  187.6600  177.7820  144.1830 C   0  0  0  0  0  2  0  0  0  0  0  0
  187.3200  176.9670  145.4280 C   0  0  0  0  0  2  0  0  0  0  0  0
  185.8920  176.6920  145.4440 N   0  0  0  0  0  2  0  0  0  0  0  0
  184.4960  178.1340  146.8050 C   0  0  0  0  0  2  0  0  0  0  0  0
  184.9110  177.7300  145.6100 C   0  0  0  0  0  3  0  0  0  0  0  0
  193.1380  174.4410  139.2220 C   0  0  0  0  0  2  0  0  0  0  0  0
  194.3560  173.2180  140.9310 C   0  0  0  0  0  0  0  0  0  0  0  0
  194.3700  174.1220  139.9890 C   0  0  0  0  0  3  0  0  0  0  0  0
  194.3800  172.3190  141.8830 C   0  0  0  0  0  3  0  0  0  0  0  0
  193.1730  171.5250  142.2640 C   0  0  1  0  0  3  0  0  0  0  0  0
  193.3470  170.0980  141.9450 C   0  0  0  0  0  0  0  0  0  0  0  0
  193.4970  168.9310  141.6530 C   0  0  0  0  0  3  0  0  0  0  0  0
  192.7150  170.7500  144.4560 O   0  0  0  0  0  0  0  0  0  0  0  0
  192.9030  171.7120  143.7290 C   0  0  0  0  0  0  0  0  0  0  0  0
  192.9450  173.0850  144.3160 C   0  0  0  0  0  2  0  0  0  0  0  0
  194.6110  172.1630  145.7490 O   0  0  0  0  0  0  0  0  0  0  0  0
  194.0390  173.2020  145.3340 C   0  0  0  0  0  0  0  0  0  0  0  0
  194.4330  174.4750  145.8590 N   0  0  0  0  0  2  0  0  0  0  0  0
  193.9320  175.7470  145.3350 C   0  0  1  0  0  3  0  0  0  0  0  0
  193.2320  176.4960  146.3110 O   0  0  0  0  0  0  0  0  0  0  0  0
  192.2780  175.6780  146.9480 C   0  0  0  0  0  2  0  0  0  0  0  0
  190.3050  174.5490  146.1960 O   0  0  0  0  0  1  0  0  0  0  0  0
  190.9310  175.7960  146.2540 C   0  0  0  0  0  2  0  0  0  0  0  0
  195.0020  176.5460  144.5740 C   0  0  0  0  0  2  0  0  0  0  0  0
  195.2580  175.9950  143.2510 N   0  0  0  0  0  2  0  0  0  0  0  0
  197.1280  175.7210  141.7670 C   0  0  0  0  0  2  0  0  0  0  0  0
  196.4630  176.6210  142.7400 C   0  0  1  0  0  3  0  0  0  0  0  0
  196.3340  176.8030  141.3520 O   0  0  0  0  0  0  0  0  0  0  0  0
  2  1  2  0  0  0  0
  3  2  1  0  0  0  0
  3  6  2  0  0  0  0
  4 11  1  0  0  0  0
  4  8  1  1  0  0  0
  5  9  1  0  0  0  0
  5  4  1  0  0  0  0
  6  5  1  0  0  0  0
  7  2  1  0  0  0  0
  9  1  1  6  0  0  0
  9  4  1  0  0  0  0
  9  8  1  0  0  0  0
 11 12  1  0  0  0  0
 11 10  1  1  0  0  0
 12 14  1  6  0  0  0
 12 10  1  0  0  0  0
 14 15  1  0  0  0  0
 14 13  1  1  0  0  0
 15 22  1  1  0  0  0
 16 19  1  0  0  0  0
 16 15  1  0  0  0  0
 17 20  2  0  0  0  0
 18 16  2  0  0  0  0
 20 21  1  0  0  0  0
 20 19  1  0  0  0  0
 22 23  1  0  0  0  0
 23 24  1  0  0  0  0
 24 26  1  0  0  0  0
 26 25  2  0  0  0  0
 27  6  1  0  0  0  0
 27 29  1  0  0  0  0
 28 30  2  0  0  0  0
 29 28  2  0  0  0  0
 31 30  1  1  0  0  0
 31 35  1  0  0  0  0
 32 31  1  0  0  0  0
 33 32  3  0  0  0  0
 35 36  1  0  0  0  0
 35 34  2  0  0  0  0
 36 38  1  0  0  0  0
 38 37  2  0  0  0  0
 38 39  1  0  0  0  0
 40 45  1  1  0  0  0
 40 39  1  0  0  0  0
 40 41  1  0  0  0  0
 41 42  1  0  0  0  0
 43 44  1  0  0  0  0
 44 42  1  0  0  0  0
 46 45  1  0  0  0  0
 47 48  1  0  0  0  0
 48 46  1  6  0  0  0
 49 47  1  0  0  0  0
 49 48  1  0  0  0  0
M  END
>  <MODEL>
4

>  <REMARK>
 VINA RESULT:      -5.1      2.063      3.388
  Name = 
  22 active torsions:
  status: ('A' for Active; 'I' for Inactive)
    1  A    between atoms: C_3  and  C_36
    2  A    between atoms: C_5  and  O_37
    3  A    between atoms: C_5  and  N_39
    4  A    between atoms: C_5  and  C_46
    5  A    between atoms: C_7  and  C_8
    6  A    between atoms: C_7  and  O_37
    7  A    between atoms: C_10  and  C_41
    8  A    between atoms: N_12  and  C_18
    9  A    between atoms: N_12  and  C_20
   10  A    between atoms: C_15  and  C_24
   11  A    between atoms: C_17  and  C_23
   12  A    between atoms: C_18  and  C_44
   13  A    between atoms: C_22  and  C_26
   14  A    between atoms: C_23  and  C_28
   15  A    between atoms: C_23  and  C_43
   16  A    between atoms: C_26  and  C_43
   17  A    between atoms: C_27  and  C_47
   18  A    between atoms: N_29  and  C_42
   19  A    between atoms: N_29  and  C_46
   20  A    between atoms: C_31  and  C_36
   21  A    between atoms: C_41  and  C_44
   22  A    between atoms: C_41  and  C_47
                            x       y       z     vdW  Elec       q    Type
                         _______ _______ _______ _____ _____    ______ ____

>  <TORSDO>
F 22

$$$$
=
 OpenBabel11042414093D

 49 53  0  0  1  0  0  0  0  0999 V2000
  190.2930  171.7430  138.6040 N   0  0  0  0  0  0  0  0  0  0  0  0
  191.0910  170.7000  138.7990 C   0  0  0  0  0  0  0  0  0  0  0  0
  191.8160  170.5040  140.0440 N   0  0  0  0  0  0  0  0  0  0  0  0
  189.4460  172.9990  140.7770 C   0  0  2  0  0  0  0  0  0  0  0  0
  190.7920  172.4280  140.7190 N   0  0  0  0  0  0  0  0  0  0  0  0
  191.6570  171.3600  141.0030 C   0  0  0  0  0  0  0  0  0  0  0  0
  191.1870  169.7090  137.7890 N   0  0  0  0  0  1  0  0  0  0  0  0
  188.2100  172.7690  139.5100 S   0  0  0  0  0  0  0  0  0  0  0  0
  190.0450  172.9000  139.5080 C   0  0  2  0  0  0  0  0  0  0  0  0
  188.2070  174.8820  141.5600 O   0  0  0  0  0  0  0  0  0  0  0  0
  189.4990  174.4520  141.2200 C   0  0  1  0  0  3  0  0  0  0  0  0
  189.0650  174.5900  142.6350 C   0  0  1  0  0  3  0  0  0  0  0  0
  190.9120  175.5490  143.9630 C   0  0  0  0  0  1  0  0  0  0  0  0
  189.6370  175.8850  143.2060 C   0  0  2  0  0  3  0  0  0  0  0  0
  188.6860  176.6260  144.1540 C   0  0  2  0  0  3  0  0  0  0  0  0
  187.6770  177.4780  143.4500 C   0  0  0  0  0  0  0  0  0  0  0  0
  185.6350  179.3010  142.4860 O   0  0  0  0  0  0  0  0  0  0  0  0
  187.9710  177.9690  142.3360 O   0  0  0  0  0  0  0  0  0  0  0  0
  186.3850  177.6910  144.0230 N   0  0  0  0  0  2  0  0  0  0  0  0
  185.4000  178.6010  143.5150 C   0  0  0  0  0  0  0  0  0  0  0  0
  184.0860  178.7240  144.2020 C   0  0  0  0  0  1  0  0  0  0  0  0
  189.5060  177.4820  145.1120 C   0  0  0  0  0  2  0  0  0  0  0  0
  188.9900  177.3360  146.5410 C   0  0  0  0  0  2  0  0  0  0  0  0
  188.3050  176.0600  146.6740 N   0  0  0  0  0  2  0  0  0  0  0  0
  190.1990  174.7970  147.5110 C   0  0  0  0  0  2  0  0  0  0  0  0
  188.8870  174.9440  147.3690 C   0  0  0  0  0  3  0  0  0  0  0  0
  192.3300  171.2160  142.3260 C   0  0  0  0  0  2  0  0  0  0  0  0
  194.0010  169.7660  143.3300 C   0  0  0  0  0  0  0  0  0  0  0  0
  193.2660  170.0630  142.2920 C   0  0  0  0  0  3  0  0  0  0  0  0
  194.7540  169.4390  144.3500 C   0  0  0  0  0  3  0  0  0  0  0  0
  194.7180  170.1890  145.6420 C   0  0  1  0  0  3  0  0  0  0  0  0
  194.8150  169.2770  146.7940 C   0  0  0  0  0  0  0  0  0  0  0  0
  194.8860  168.5500  147.7620 C   0  0  0  0  0  3  0  0  0  0  0  0
  196.8890  170.9360  146.2310 O   0  0  0  0  0  0  0  0  0  0  0  0
  195.8390  171.1880  145.6620 C   0  0  0  0  0  0  0  0  0  0  0  0
  195.6940  172.4710  144.9110 C   0  0  0  0  0  2  0  0  0  0  0  0
  197.2950  171.4900  143.4440 O   0  0  0  0  0  0  0  0  0  0  0  0
  196.5590  172.4780  143.6870 C   0  0  0  0  0  0  0  0  0  0  0  0
  196.5790  173.6000  142.7970 N   0  0  0  0  0  2  0  0  0  0  0  0
  195.6550  174.7310  142.9130 C   0  0  1  0  0  3  0  0  0  0  0  0
  194.2990  174.3320  142.8340 O   0  0  0  0  0  0  0  0  0  0  0  0
  193.6890  174.9360  141.7180 C   0  0  0  0  0  2  0  0  0  0  0  0
  194.3570  175.1200  139.4250 O   0  0  0  0  0  1  0  0  0  0  0  0
  194.0770  174.2050  140.4420 C   0  0  0  0  0  2  0  0  0  0  0  0
  195.9750  175.6460  144.1060 C   0  0  0  0  0  2  0  0  0  0  0  0
  194.7790  176.2720  144.6510 N   0  0  0  0  0  2  0  0  0  0  0  0
  193.5260  176.5810  146.6780 C   0  0  0  0  0  2  0  0  0  0  0  0
  194.7180  175.9480  146.0640 C   0  0  1  0  0  3  0  0  0  0  0  0
  193.5420  175.2230  146.3200 O   0  0  0  0  0  0  0  0  0  0  0  0
  1  2  2  0  0  0  0
  2  3  1  0  0  0  0
  3  6  2  0  0  0  0
  4  8  1  1  0  0  0
  4 11  1  0  0  0  0
  5  4  1  0  0  0  0
  5  6  1  0  0  0  0
  6 27  1  0  0  0  0
  7  2  1  0  0  0  0
  9  1  1  6  0  0  0
  9  8  1  0  0  0  0
  9  5  1  0  0  0  0
  9  4  1  0  0  0  0
 10 12  1  0  0  0  0
 11 10  1  6  0  0  0
 11 12  1  0  0  0  0
 12 14  1  1  0  0  0
 14 13  1  1  0  0  0
 14 15  1  0  0  0  0
 15 22  1  1  0  0  0
 16 19  1  0  0  0  0
 16 15  1  0  0  0  0
 17 20  2  0  0  0  0
 18 16  2  0  0  0  0
 20 19  1  0  0  0  0
 20 21  1  0  0  0  0
 22 23  1  0  0  0  0
 23 24  1  0  0  0  0
 24 26  1  0  0  0  0
 26 25  2  0  0  0  0
 28 30  2  0  0  0  0
 29 27  1  0  0  0  0
 29 28  2  0  0  0  0
 31 30  1  6  0  0  0
 31 35  1  0  0  0  0
 31 32  1  0  0  0  0
 32 33  3  0  0  0  0
 35 34  2  0  0  0  0
 36 35  1  0  0  0  0
 37 38  2  0  0  0  0
 38 36  1  0  0  0  0
 39 40  1  0  0  0  0
 39 38  1  0  0  0  0
 40 45  1  1  0  0  0
 41 40  1  0  0  0  0
 42 41  1  0  0  0  0
 43 44  1  0  0  0  0
 44 42  1  0  0  0  0
 45 46  1  0  0  0  0
 48 46  1  6  0  0  0
 48 49  1  0  0  0  0
 48 47  1  0  0  0  0
 49 47  1  0  0  0  0
M  END
>  <MODEL>
5

>  <REMARK>
 VINA RESULT:      -4.9      2.263      3.831
  Name = 
  22 active torsions:
  status: ('A' for Active; 'I' for Inactive)
    1  A    between atoms: C_3  and  C_36
    2  A    between atoms: C_5  and  O_37
    3  A    between atoms: C_5  and  N_39
    4  A    between atoms: C_5  and  C_46
    5  A    between atoms: C_7  and  C_8
    6  A    between atoms: C_7  and  O_37
    7  A    between atoms: C_10  and  C_41
    8  A    between atoms: N_12  and  C_18
    9  A    between atoms: N_12  and  C_20
   10  A    between atoms: C_15  and  C_24
   11  A    between atoms: C_17  and  C_23
   12  A    between atoms: C_18  and  C_44
   13  A    between atoms: C_22  and  C_26
   14  A    between atoms: C_23  and  C_28
   15  A    between atoms: C_23  and  C_43
   16  A    between atoms: C_26  and  C_43
   17  A    between atoms: C_27  and  C_47
   18  A    between atoms: N_29  and  C_42
   19  A    between atoms: N_29  and  C_46
   20  A    between atoms: C_31  and  C_36
   21  A    between atoms: C_41  and  C_44
   22  A    between atoms: C_41  and  C_47
                            x       y       z     vdW  Elec       q    Type
                         _______ _______ _______ _____ _____    ______ ____

>  <TORSDO>
F 22

$$$$
=
 OpenBabel11042414093D

 49 53  0  0  1  0  0  0  0  0999 V2000
  189.3030  172.1320  139.6720 N   0  0  0  0  0  0  0  0  0  0  0  0
  190.5080  171.6030  139.5000 C   0  0  0  0  0  0  0  0  0  0  0  0
  191.7050  172.2130  140.0530 N   0  0  0  0  0  0  0  0  0  0  0  0
  189.0440  173.8410  141.6800 C   0  0  2  0  0  0  0  0  0  0  0  0
  190.2820  173.7810  140.9010 N   0  0  0  0  0  0  0  0  0  0  0  0
  191.5900  173.2930  140.7600 C   0  0  0  0  0  0  0  0  0  0  0  0
  190.6250  170.3680  138.8120 N   0  0  0  0  0  1  0  0  0  0  0  0
  187.6890  172.6940  141.4880 S   0  0  0  0  0  0  0  0  0  0  0  0
  188.9400  173.4100  140.3440 C   0  0  2  0  0  0  0  0  0  0  0  0
  187.1770  175.2570  142.1310 O   0  0  0  0  0  0  0  0  0  0  0  0
  188.5320  175.2700  141.7620 C   0  0  1  0  0  3  0  0  0  0  0  0
  188.0910  175.5940  143.1450 C   0  0  1  0  0  3  0  0  0  0  0  0
  189.2240  177.4440  144.3220 C   0  0  0  0  0  1  0  0  0  0  0  0
  188.1190  177.1080  143.3330 C   0  0  2  0  0  3  0  0  0  0  0  0
  186.8030  177.7000  143.8500 C   0  0  2  0  0  3  0  0  0  0  0  0
  186.5990  177.5260  145.3220 C   0  0  0  0  0  0  0  0  0  0  0  0
  185.9430  177.5420  148.1490 O   0  0  0  0  0  0  0  0  0  0  0  0
  186.4570  176.3680  145.7800 O   0  0  0  0  0  0  0  0  0  0  0  0
  186.6110  178.6580  146.1920 N   0  0  0  0  0  2  0  0  0  0  0  0
  186.2820  178.6260  147.5880 C   0  0  0  0  0  0  0  0  0  0  0  0
  186.3420  179.8790  148.3880 C   0  0  0  0  0  1  0  0  0  0  0  0
  185.6410  177.0680  143.0900 C   0  0  0  0  0  2  0  0  0  0  0  0
  184.5070  178.0730  142.9050 C   0  0  0  0  0  2  0  0  0  0  0  0
  184.6110  178.6730  141.5850 N   0  0  0  0  0  2  0  0  0  0  0  0
  182.4210  178.2210  140.6440 C   0  0  0  0  0  2  0  0  0  0  0  0
  183.7390  178.3040  140.5020 C   0  0  0  0  0  3  0  0  0  0  0  0
  192.7590  173.9630  141.3980 C   0  0  0  0  0  2  0  0  0  0  0  0
  192.4690  173.8020  143.8040 C   0  0  0  0  0  0  0  0  0  0  0  0
  192.3630  174.5190  142.7180 C   0  0  0  0  0  3  0  0  0  0  0  0
  192.5590  173.1150  144.9150 C   0  0  0  0  0  3  0  0  0  0  0  0
  193.0900  171.7180  144.9490 C   0  0  1  0  0  3  0  0  0  0  0  0
  192.6440  170.9460  143.7770 C   0  0  0  0  0  0  0  0  0  0  0  0
  192.2970  170.3270  142.7940 C   0  0  0  0  0  3  0  0  0  0  0  0
  195.2010  171.0350  145.7810 O   0  0  0  0  0  0  0  0  0  0  0  0
  194.5900  171.7630  145.0150 C   0  0  0  0  0  0  0  0  0  0  0  0
  195.3410  172.6500  144.0780 C   0  0  0  0  0  2  0  0  0  0  0  0
  197.6200  172.6000  144.7750 O   0  0  0  0  0  0  0  0  0  0  0  0
  196.5430  173.2460  144.7480 C   0  0  0  0  0  0  0  0  0  0  0  0
  196.4810  174.5300  145.3790 N   0  0  0  0  0  2  0  0  0  0  0  0
  195.3210  175.4180  145.2760 C   0  0  1  0  0  3  0  0  0  0  0  0
  194.5830  175.4870  146.4830 O   0  0  0  0  0  0  0  0  0  0  0  0
  193.8700  176.6990  146.5370 C   0  0  0  0  0  2  0  0  0  0  0  0
  191.9160  175.7570  147.5510 O   0  0  0  0  0  1  0  0  0  0  0  0
  192.3760  176.4410  146.4240 C   0  0  0  0  0  2  0  0  0  0  0  0
  195.6660  176.7870  144.6680 C   0  0  0  0  0  2  0  0  0  0  0  0
  196.4830  176.6630  143.4700 N   0  0  0  0  0  2  0  0  0  0  0  0
  196.2840  176.4090  141.0890 C   0  0  0  0  0  2  0  0  0  0  0  0
  195.6270  176.1880  142.4010 C   0  0  1  0  0  3  0  0  0  0  0  0
  196.2810  175.1510  141.7140 O   0  0  0  0  0  0  0  0  0  0  0  0
  2  1  2  0  0  0  0
  2  3  1  0  0  0  0
  3  6  2  0  0  0  0
  4  8  1  1  0  0  0
  4 11  1  0  0  0  0
  5  4  1  0  0  0  0
  6  5  1  0  0  0  0
  6 27  1  0  0  0  0
  7  2  1  0  0  0  0
  9  1  1  6  0  0  0
  9  5  1  0  0  0  0
  9  8  1  0  0  0  0
  9  4  1  0  0  0  0
 10 12  1  0  0  0  0
 11 10  1  6  0  0  0
 11 12  1  0  0  0  0
 12 14  1  6  0  0  0
 14 15  1  0  0  0  0
 14 13  1  1  0  0  0
 15 22  1  6  0  0  0
 15 16  1  0  0  0  0
 16 18  2  0  0  0  0
 16 19  1  0  0  0  0
 19 20  1  0  0  0  0
 20 17  2  0  0  0  0
 20 21  1  0  0  0  0
 23 22  1  0  0  0  0
 24 23  1  0  0  0  0
 26 25  2  0  0  0  0
 26 24  1  0  0  0  0
 27 29  1  0  0  0  0
 28 30  2  0  0  0  0
 29 28  2  0  0  0  0
 30 31  1  0  0  0  0
 31 32  1  6  0  0  0
 31 35  1  0  0  0  0
 33 32  3  0  0  0  0
 35 34  2  0  0  0  0
 36 38  1  0  0  0  0
 36 35  1  0  0  0  0
 38 37  2  0  0  0  0
 38 39  1  0  0  0  0
 40 45  1  1  0  0  0
 40 39  1  0  0  0  0
 40 41  1  0  0  0  0
 41 42  1  0  0  0  0
 44 42  1  0  0  0  0
 44 43  1  0  0  0  0
 46 45  1  0  0  0  0
 47 49  1  0  0  0  0
 47 48  1  0  0  0  0
 48 46  1  1  0  0  0
 49 48  1  0  0  0  0
M  END
>  <MODEL>
6

>  <REMARK>
 VINA RESULT:      -4.8      2.175      3.901
  Name = 
  22 active torsions:
  status: ('A' for Active; 'I' for Inactive)
    1  A    between atoms: C_3  and  C_36
    2  A    between atoms: C_5  and  O_37
    3  A    between atoms: C_5  and  N_39
    4  A    between atoms: C_5  and  C_46
    5  A    between atoms: C_7  and  C_8
    6  A    between atoms: C_7  and  O_37
    7  A    between atoms: C_10  and  C_41
    8  A    between atoms: N_12  and  C_18
    9  A    between atoms: N_12  and  C_20
   10  A    between atoms: C_15  and  C_24
   11  A    between atoms: C_17  and  C_23
   12  A    between atoms: C_18  and  C_44
   13  A    between atoms: C_22  and  C_26
   14  A    between atoms: C_23  and  C_28
   15  A    between atoms: C_23  and  C_43
   16  A    between atoms: C_26  and  C_43
   17  A    between atoms: C_27  and  C_47
   18  A    between atoms: N_29  and  C_42
   19  A    between atoms: N_29  and  C_46
   20  A    between atoms: C_31  and  C_36
   21  A    between atoms: C_41  and  C_44
   22  A    between atoms: C_41  and  C_47
                            x       y       z     vdW  Elec       q    Type
                         _______ _______ _______ _____ _____    ______ ____

>  <TORSDO>
F 22

$$$$
=
 OpenBabel11042414093D

 49 53  0  0  1  0  0  0  0  0999 V2000
  189.5910  172.1390  140.4720 N   0  0  0  0  0  0  0  0  0  0  0  0
  190.9040  171.9410  140.4770 C   0  0  0  0  0  0  0  0  0  0  0  0
  191.8420  172.9900  140.8430 N   0  0  0  0  0  0  0  0  0  0  0  0
  188.7060  174.1940  141.8900 C   0  0  2  0  0  0  0  0  0  0  0  0
  189.9830  174.2690  141.1790 N   0  0  0  0  0  0  0  0  0  0  0  0
  191.3800  174.1450  141.2030 C   0  0  0  0  0  0  0  0  0  0  0  0
  191.4060  170.6480  140.1800 N   0  0  0  0  0  1  0  0  0  0  0  0
  187.7250  172.7080  142.0230 S   0  0  0  0  0  0  0  0  0  0  0  0
  188.8450  173.3990  140.7370 C   0  0  2  0  0  0  0  0  0  0  0  0
  186.8100  175.5080  142.5040 O   0  0  0  0  0  0  0  0  0  0  0  0
  187.8300  175.3880  141.5460 C   0  0  1  0  0  3  0  0  0  0  0  0
  187.8820  176.4090  142.6250 C   0  0  1  0  0  3  0  0  0  0  0  0
  188.7540  178.5000  141.6440 C   0  0  0  0  0  1  0  0  0  0  0  0
  187.4850  177.7640  142.0460 C   0  0  2  0  0  3  0  0  0  0  0  0
  186.6910  178.6510  143.0130 C   0  0  2  0  0  3  0  0  0  0  0  0
  186.8740  178.2880  144.4530 C   0  0  0  0  0  0  0  0  0  0  0  0
  186.8320  177.3910  147.2120 O   0  0  0  0  0  0  0  0  0  0  0  0
  188.0020  177.9080  144.8430 O   0  0  0  0  0  0  0  0  0  0  0  0
  185.7890  178.4150  145.3740 N   0  0  0  0  0  2  0  0  0  0  0  0
  185.8070  177.9610  146.7340 C   0  0  0  0  0  0  0  0  0  0  0  0
  184.6100  178.1620  147.5940 C   0  0  0  0  0  1  0  0  0  0  0  0
  185.2120  178.5840  142.6470 C   0  0  0  0  0  2  0  0  0  0  0  0
  185.0220  177.9110  141.2910 C   0  0  0  0  0  2  0  0  0  0  0  0
  184.0770  178.6850  140.5020 N   0  0  0  0  0  2  0  0  0  0  0  0
  181.9770  178.2040  141.6190 C   0  0  0  0  0  2  0  0  0  0  0  0
  182.6660  178.4050  140.5010 C   0  0  0  0  0  3  0  0  0  0  0  0
  192.2680  175.2640  141.6340 C   0  0  0  0  0  2  0  0  0  0  0  0
  191.3550  175.7340  143.8350 C   0  0  0  0  0  0  0  0  0  0  0  0
  191.5510  176.1300  142.6060 C   0  0  0  0  0  3  0  0  0  0  0  0
  191.1390  175.3720  145.0750 C   0  0  0  0  0  3  0  0  0  0  0  0
  191.6140  174.0640  145.6200 C   0  0  1  0  0  3  0  0  0  0  0  0
  191.0200  172.9310  144.8900 C   0  0  0  0  0  0  0  0  0  0  0  0
  190.5090  171.9970  144.3120 C   0  0  0  0  0  3  0  0  0  0  0  0
  193.7730  175.0420  145.5960 O   0  0  0  0  0  0  0  0  0  0  0  0
  193.1130  174.0160  145.5450 C   0  0  0  0  0  0  0  0  0  0  0  0
  193.8050  172.6930  145.4890 C   0  0  0  0  0  2  0  0  0  0  0  0
  193.8200  172.4880  143.1150 O   0  0  0  0  0  0  0  0  0  0  0  0
  194.4970  172.5040  144.1720 C   0  0  0  0  0  0  0  0  0  0  0  0
  195.9160  172.3200  144.0980 N   0  0  0  0  0  2  0  0  0  0  0  0
  196.8030  172.4680  145.2530 C   0  0  1  0  0  3  0  0  0  0  0  0
  197.5460  171.2920  145.5200 O   0  0  0  0  0  0  0  0  0  0  0  0
  196.8310  170.4690  146.4120 C   0  0  0  0  0  2  0  0  0  0  0  0
  196.7710  168.9550  144.5570 O   0  0  0  0  0  1  0  0  0  0  0  0
  196.8750  169.0220  145.9480 C   0  0  0  0  0  2  0  0  0  0  0  0
  197.6500  173.7500  145.1990 C   0  0  0  0  0  2  0  0  0  0  0  0
  196.9250  174.8590  144.5980 N   0  0  0  0  0  2  0  0  0  0  0  0
  196.7010  175.7230  142.3670 C   0  0  0  0  0  2  0  0  0  0  0  0
  197.6510  175.2670  143.4110 C   0  0  1  0  0  3  0  0  0  0  0  0
  197.4100  176.6310  143.1700 O   0  0  0  0  0  0  0  0  0  0  0  0
  1  2  2  0  0  0  0
  2  3  1  0  0  0  0
  3  6  2  0  0  0  0
  4  8  1  1  0  0  0
  5  6  1  0  0  0  0
  5  4  1  0  0  0  0
  6 27  1  0  0  0  0
  7  2  1  0  0  0  0
  9  1  1  6  0  0  0
  9  5  1  0  0  0  0
  9  4  1  0  0  0  0
  9  8  1  0  0  0  0
 10 12  1  0  0  0  0
 11  4  1  0  0  0  0
 11 10  1  1  0  0  0
 11 12  1  0  0  0  0
 12 14  1  6  0  0  0
 14 13  1  1  0  0  0
 14 15  1  0  0  0  0
 15 22  1  6  0  0  0
 15 16  1  0  0  0  0
 16 18  2  0  0  0  0
 16 19  1  0  0  0  0
 19 20  1  0  0  0  0
 20 17  2  0  0  0  0
 20 21  1  0  0  0  0
 23 22  1  0  0  0  0
 24 23  1  0  0  0  0
 26 24  1  0  0  0  0
 26 25  2  0  0  0  0
 27 29  1  0  0  0  0
 28 30  2  0  0  0  0
 29 28  2  0  0  0  0
 30 31  1  0  0  0  0
 31 32  1  6  0  0  0
 33 32  3  0  0  0  0
 35 34  2  0  0  0  0
 35 31  1  0  0  0  0
 36 35  1  0  0  0  0
 37 38  2  0  0  0  0
 38 36  1  0  0  0  0
 39 38  1  0  0  0  0
 39 40  1  0  0  0  0
 40 45  1  6  0  0  0
 40 41  1  0  0  0  0
 41 42  1  0  0  0  0
 43 44  1  0  0  0  0
 44 42  1  0  0  0  0
 46 45  1  0  0  0  0
 47 49  1  0  0  0  0
 47 48  1  0  0  0  0
 48 46  1  1  0  0  0
 49 48  1  0  0  0  0
M  END
>  <MODEL>
7

>  <REMARK>
 VINA RESULT:      -4.8      2.217      4.855
  Name = 
  22 active torsions:
  status: ('A' for Active; 'I' for Inactive)
    1  A    between atoms: C_3  and  C_36
    2  A    between atoms: C_5  and  O_37
    3  A    between atoms: C_5  and  N_39
    4  A    between atoms: C_5  and  C_46
    5  A    between atoms: C_7  and  C_8
    6  A    between atoms: C_7  and  O_37
    7  A    between atoms: C_10  and  C_41
    8  A    between atoms: N_12  and  C_18
    9  A    between atoms: N_12  and  C_20
   10  A    between atoms: C_15  and  C_24
   11  A    between atoms: C_17  and  C_23
   12  A    between atoms: C_18  and  C_44
   13  A    between atoms: C_22  and  C_26
   14  A    between atoms: C_23  and  C_28
   15  A    between atoms: C_23  and  C_43
   16  A    between atoms: C_26  and  C_43
   17  A    between atoms: C_27  and  C_47
   18  A    between atoms: N_29  and  C_42
   19  A    between atoms: N_29  and  C_46
   20  A    between atoms: C_31  and  C_36
   21  A    between atoms: C_41  and  C_44
   22  A    between atoms: C_41  and  C_47
                            x       y       z     vdW  Elec       q    Type
                         _______ _______ _______ _____ _____    ______ ____

>  <TORSDO>
F 22

$$$$
=
 OpenBabel11042414093D

 49 53  0  0  1  0  0  0  0  0999 V2000
  192.6220  176.7920  143.1990 N   0  0  0  0  0  0  0  0  0  0  0  0
  191.6820  177.4480  143.8680 C   0  0  0  0  0  0  0  0  0  0  0  0
  191.1360  176.9510  145.1200 N   0  0  0  0  0  0  0  0  0  0  0  0
  194.0200  175.0120  144.5740 C   0  0  2  0  0  0  0  0  0  0  0  0
  192.5970  175.2210  144.8480 N   0  0  0  0  0  0  0  0  0  0  0  0
  191.6010  175.8470  145.6130 C   0  0  0  0  0  0  0  0  0  0  0  0
  191.2430  178.7070  143.3830 N   0  0  0  0  0  1  0  0  0  0  0  0
  194.9770  176.0150  143.4510 S   0  0  0  0  0  0  0  0  0  0  0  0
  193.2220  175.4650  143.5080 C   0  0  2  0  0  0  0  0  0  0  0  0
  195.4760  173.1850  145.0620 O   0  0  0  0  0  0  0  0  0  0  0  0
  194.3120  173.5350  144.3600 C   0  0  1  0  0  3  0  0  0  0  0  0
  194.2590  172.7930  145.6470 C   0  0  1  0  0  3  0  0  0  0  0  0
  194.9990  170.4930  146.1530 C   0  0  0  0  0  1  0  0  0  0  0  0
  193.9980  171.3180  145.3590 C   0  0  2  0  0  3  0  0  0  0  0  0
  194.1180  170.9380  143.8780 C   0  0  2  0  0  3  0  0  0  0  0  0
  192.8490  170.4080  143.2870 C   0  0  0  0  0  0  0  0  0  0  0  0
  190.4470  169.6870  141.8270 O   0  0  0  0  0  0  0  0  0  0  0  0
  192.6570  169.1700  143.2760 O   0  0  0  0  0  0  0  0  0  0  0  0
  191.8570  171.3040  142.7830 N   0  0  0  0  0  2  0  0  0  0  0  0
  190.6790  170.9090  142.0670 C   0  0  0  0  0  0  0  0  0  0  0  0
  189.7180  171.9450  141.6010 C   0  0  0  0  0  1  0  0  0  0  0  0
  195.2310  169.9080  143.7170 C   0  0  0  0  0  2  0  0  0  0  0  0
  196.4140  170.5070  142.9620 C   0  0  0  0  0  2  0  0  0  0  0  0
  195.9230  171.4790  141.9980 N   0  0  0  0  0  2  0  0  0  0  0  0
  196.5940  172.7220  140.0260 C   0  0  0  0  0  2  0  0  0  0  0  0
  196.8020  172.3700  141.2900 C   0  0  0  0  0  3  0  0  0  0  0  0
  191.1280  175.2860  146.9110 C   0  0  0  0  0  2  0  0  0  0  0  0
  188.7070  175.3240  146.7220 C   0  0  0  0  0  0  0  0  0  0  0  0
  189.8100  174.6260  146.7240 C   0  0  0  0  0  3  0  0  0  0  0  0
  187.5800  175.9900  146.7150 C   0  0  0  0  0  3  0  0  0  0  0  0
  187.5280  177.4750  146.8750 C   0  0  1  0  0  3  0  0  0  0  0  0
  188.7320  177.9840  147.5510 C   0  0  0  0  0  0  0  0  0  0  0  0
  189.7110  178.4330  148.1090 C   0  0  0  0  0  3  0  0  0  0  0  0
  188.1270  177.8240  144.6080 O   0  0  0  0  0  0  0  0  0  0  0  0
  187.3710  178.1100  145.5230 C   0  0  0  0  0  0  0  0  0  0  0  0
  186.2290  179.0400  145.2750 C   0  0  0  0  0  2  0  0  0  0  0  0
  184.1890  178.2530  146.2220 O   0  0  0  0  0  0  0  0  0  0  0  0
  184.9310  178.2920  145.2100 C   0  0  0  0  0  0  0  0  0  0  0  0
  184.5290  177.6030  144.0210 N   0  0  0  0  0  2  0  0  0  0  0  0
  185.2500  177.7100  142.7510 C   0  0  1  0  0  3  0  0  0  0  0  0
  186.0230  176.5580  142.4680 O   0  0  0  0  0  0  0  0  0  0  0  0
  187.0440  176.8810  141.5540 C   0  0  0  0  0  2  0  0  0  0  0  0
  189.2020  175.9290  141.9730 O   0  0  0  0  0  1  0  0  0  0  0  0
  187.9720  175.6930  141.3550 C   0  0  0  0  0  2  0  0  0  0  0  0
  184.3550  178.1700  141.5890 C   0  0  0  0  0  2  0  0  0  0  0  0
  182.9860  178.4180  142.0190 N   0  0  0  0  0  2  0  0  0  0  0  0
  180.6980  178.2400  141.3070 C   0  0  0  0  0  2  0  0  0  0  0  0
  182.1180  178.1710  140.8840 C   0  0  1  0  0  3  0  0  0  0  0  0
  181.3280  179.3100  140.6510 O   0  0  0  0  0  0  0  0  0  0  0  0
  1  2  2  0  0  0  0
  2  3  1  0  0  0  0
  3  6  2  0  0  0  0
  4  8  1  1  0  0  0
  4  5  1  0  0  0  0
  5  6  1  0  0  0  0
  6 27  1  0  0  0  0
  7  2  1  0  0  0  0
  8  9  1  0  0  0  0
  9  1  1  6  0  0  0
  9  4  1  0  0  0  0
  9  5  1  0  0  0  0
 10 12  1  0  0  0  0
 11  4  1  0  0  0  0
 11 10  1  1  0  0  0
 11 12  1  0  0  0  0
 12 14  1  6  0  0  0
 14 13  1  1  0  0  0
 15 22  1  1  0  0  0
 15 14  1  0  0  0  0
 16 15  1  0  0  0  0
 17 20  2  0  0  0  0
 18 16  2  0  0  0  0
 19 16  1  0  0  0  0
 20 19  1  0  0  0  0
 21 20  1  0  0  0  0
 23 22  1  0  0  0  0
 24 23  1  0  0  0  0
 25 26  2  0  0  0  0
 26 24  1  0  0  0  0
 28 29  2  0  0  0  0
 29 27  1  0  0  0  0
 30 28  2  0  0  0  0
 31 30  1  6  0  0  0
 31 32  1  0  0  0  0
 32 33  3  0  0  0  0
 34 35  2  0  0  0  0
 35 31  1  0  0  0  0
 36 35  1  0  0  0  0
 38 36  1  0  0  0  0
 38 37  2  0  0  0  0
 39 38  1  0  0  0  0
 40 45  1  6  0  0  0
 40 39  1  0  0  0  0
 41 40  1  0  0  0  0
 42 41  1  0  0  0  0
 44 42  1  0  0  0  0
 44 43  1  0  0  0  0
 45 46  1  0  0  0  0
 48 47  1  0  0  0  0
 48 46  1  1  0  0  0
 49 48  1  0  0  0  0
 49 47  1  0  0  0  0
M  END
>  <MODEL>
8

>  <REMARK>
 VINA RESULT:      -4.8      2.710      9.576
  Name = 
  22 active torsions:
  status: ('A' for Active; 'I' for Inactive)
    1  A    between atoms: C_3  and  C_36
    2  A    between atoms: C_5  and  O_37
    3  A    between atoms: C_5  and  N_39
    4  A    between atoms: C_5  and  C_46
    5  A    between atoms: C_7  and  C_8
    6  A    between atoms: C_7  and  O_37
    7  A    between atoms: C_10  and  C_41
    8  A    between atoms: N_12  and  C_18
    9  A    between atoms: N_12  and  C_20
   10  A    between atoms: C_15  and  C_24
   11  A    between atoms: C_17  and  C_23
   12  A    between atoms: C_18  and  C_44
   13  A    between atoms: C_22  and  C_26
   14  A    between atoms: C_23  and  C_28
   15  A    between atoms: C_23  and  C_43
   16  A    between atoms: C_26  and  C_43
   17  A    between atoms: C_27  and  C_47
   18  A    between atoms: N_29  and  C_42
   19  A    between atoms: N_29  and  C_46
   20  A    between atoms: C_31  and  C_36
   21  A    between atoms: C_41  and  C_44
   22  A    between atoms: C_41  and  C_47
                            x       y       z     vdW  Elec       q    Type
                         _______ _______ _______ _____ _____    ______ ____

>  <TORSDO>
F 22

$$$$
=
 OpenBabel11042414093D

 49 53  0  0  1  0  0  0  0  0999 V2000
  184.1780  178.6740  144.3420 N   0  0  0  0  0  0  0  0  0  0  0  0
  183.6990  178.5810  143.1080 C   0  0  0  0  0  0  0  0  0  0  0  0
  184.4850  178.0340  142.0140 N   0  0  0  0  0  0  0  0  0  0  0  0
  186.2520  177.1300  144.9190 C   0  0  2  0  0  0  0  0  0  0  0  0
  186.1050  177.7230  143.5890 N   0  0  0  0  0  0  0  0  0  0  0  0
  185.6800  177.5970  142.2580 C   0  0  0  0  0  0  0  0  0  0  0  0
  182.3570  178.9660  142.8590 N   0  0  0  0  0  1  0  0  0  0  0  0
  185.0100  177.2310  146.1970 S   0  0  0  0  0  0  0  0  0  0  0  0
  185.5440  178.3440  144.8330 C   0  0  2  0  0  0  0  0  0  0  0  0
  187.9300  176.4830  146.4880 O   0  0  0  0  0  0  0  0  0  0  0  0
  187.6320  177.4210  145.4860 C   0  0  1  0  0  3  0  0  0  0  0  0
  188.5540  176.2800  145.2440 C   0  0  1  0  0  3  0  0  0  0  0  0
  190.2760  177.5610  144.0230 C   0  0  0  0  0  1  0  0  0  0  0  0
  189.9930  176.7850  145.2990 C   0  0  2  0  0  3  0  0  0  0  0  0
  191.0410  175.6740  145.4380 C   0  0  2  0  0  3  0  0  0  0  0  0
  192.4270  176.1790  145.6910 C   0  0  0  0  0  0  0  0  0  0  0  0
  195.0970  177.3130  145.7670 O   0  0  0  0  0  0  0  0  0  0  0  0
  192.6910  176.6920  146.8030 O   0  0  0  0  0  0  0  0  0  0  0  0
  193.4410  176.0390  144.6940 N   0  0  0  0  0  2  0  0  0  0  0  0
  194.7530  176.6140  144.7680 C   0  0  0  0  0  0  0  0  0  0  0  0
  195.7210  176.3850  143.6620 C   0  0  0  0  0  1  0  0  0  0  0  0
  191.0270  174.8160  144.1770 C   0  0  0  0  0  2  0  0  0  0  0  0
  190.7940  173.3490  144.5260 C   0  0  0  0  0  2  0  0  0  0  0  0
  191.6490  172.5180  143.6940 N   0  0  0  0  0  2  0  0  0  0  0  0
  192.7880  170.3970  143.3910 C   0  0  0  0  0  2  0  0  0  0  0  0
  191.7850  171.1020  143.9040 C   0  0  0  0  0  3  0  0  0  0  0  0
  186.5390  176.9830  141.2050 C   0  0  0  0  0  2  0  0  0  0  0  0
  188.3520  175.3700  141.3160 C   0  0  0  0  0  0  0  0  0  0  0  0
  187.7690  176.4230  141.8230 C   0  0  0  0  0  3  0  0  0  0  0  0
  188.9640  174.3160  140.8370 C   0  0  0  0  0  3  0  0  0  0  0  0
  188.4860  173.6010  139.6150 C   0  0  1  0  0  3  0  0  0  0  0  0
  187.9210  174.5390  138.6310 C   0  0  0  0  0  0  0  0  0  0  0  0
  187.4680  175.3350  137.8370 C   0  0  0  0  0  3  0  0  0  0  0  0
  189.4470  171.7260  138.5290 O   0  0  0  0  0  0  0  0  0  0  0  0
  189.6290  172.8300  139.0180 C   0  0  0  0  0  0  0  0  0  0  0  0
  190.9830  173.4550  138.9520 C   0  0  0  0  0  2  0  0  0  0  0  0
  190.6750  174.3160  136.7520 O   0  0  0  0  0  0  0  0  0  0  0  0
  191.4120  173.6620  137.5300 C   0  0  0  0  0  0  0  0  0  0  0  0
  192.6370  173.1100  137.0350 N   0  0  0  0  0  2  0  0  0  0  0  0
  193.6280  172.4600  137.8960 C   0  0  1  0  0  3  0  0  0  0  0  0
  193.8540  171.1090  137.5380 O   0  0  0  0  0  0  0  0  0  0  0  0
  192.8740  170.2880  138.1280 C   0  0  0  0  0  2  0  0  0  0  0  0
  192.7960  169.0390  140.1700 O   0  0  0  0  0  1  0  0  0  0  0  0
  193.0010  170.3160  139.6430 C   0  0  0  0  0  2  0  0  0  0  0  0
  194.9100  173.2910  138.0680 C   0  0  0  0  0  2  0  0  0  0  0  0
  195.2160  173.5410  139.4690 N   0  0  0  0  0  2  0  0  0  0  0  0
  196.8670  175.1260  140.2020 C   0  0  0  0  0  2  0  0  0  0  0  0
  195.5190  174.9530  139.6070 C   0  0  1  0  0  3  0  0  0  0  0  0
  196.6440  175.2610  138.8220 O   0  0  0  0  0  0  0  0  0  0  0  0
  2  1  2  0  0  0  0
  3  6  2  0  0  0  0
  3  2  1  0  0  0  0
  4 11  1  0  0  0  0
  4  8  1  1  0  0  0
  5  9  1  0  0  0  0
  5  4  1  0  0  0  0
  6  5  1  0  0  0  0
  7  2  1  0  0  0  0
  9  1  1  1  0  0  0
  9  4  1  0  0  0  0
  9  8  1  0  0  0  0
 11 10  1  1  0  0  0
 12 14  1  1  0  0  0
 12 11  1  0  0  0  0
 12 10  1  0  0  0  0
 14 13  1  6  0  0  0
 14 15  1  0  0  0  0
 15 22  1  6  0  0  0
 15 16  1  0  0  0  0
 16 18  2  0  0  0  0
 19 20  1  0  0  0  0
 19 16  1  0  0  0  0
 20 17  2  0  0  0  0
 21 20  1  0  0  0  0
 22 23  1  0  0  0  0
 24 26  1  0  0  0  0
 24 23  1  0  0  0  0
 25 26  2  0  0  0  0
 27 29  1  0  0  0  0
 27  6  1  0  0  0  0
 28 29  2  0  0  0  0
 30 28  2  0  0  0  0
 31 32  1  6  0  0  0
 31 30  1  0  0  0  0
 33 32  3  0  0  0  0
 34 35  2  0  0  0  0
 35 31  1  0  0  0  0
 36 35  1  0  0  0  0
 37 38  2  0  0  0  0
 38 36  1  0  0  0  0
 39 38  1  0  0  0  0
 39 40  1  0  0  0  0
 40 45  1  6  0  0  0
 41 40  1  0  0  0  0
 41 42  1  0  0  0  0
 42 44  1  0  0  0  0
 44 43  1  0  0  0  0
 45 46  1  0  0  0  0
 48 46  1  6  0  0  0
 48 47  1  0  0  0  0
 49 48  1  0  0  0  0
 49 47  1  0  0  0  0
M  END
>  <MODEL>
9

>  <REMARK>
 VINA RESULT:      -4.7      2.902      7.998
  Name = 
  22 active torsions:
  status: ('A' for Active; 'I' for Inactive)
    1  A    between atoms: C_3  and  C_36
    2  A    between atoms: C_5  and  O_37
    3  A    between atoms: C_5  and  N_39
    4  A    between atoms: C_5  and  C_46
    5  A    between atoms: C_7  and  C_8
    6  A    between atoms: C_7  and  O_37
    7  A    between atoms: C_10  and  C_41
    8  A    between atoms: N_12  and  C_18
    9  A    between atoms: N_12  and  C_20
   10  A    between atoms: C_15  and  C_24
   11  A    between atoms: C_17  and  C_23
   12  A    between atoms: C_18  and  C_44
   13  A    between atoms: C_22  and  C_26
   14  A    between atoms: C_23  and  C_28
   15  A    between atoms: C_23  and  C_43
   16  A    between atoms: C_26  and  C_43
   17  A    between atoms: C_27  and  C_47
   18  A    between atoms: N_29  and  C_42
   19  A    between atoms: N_29  and  C_46
   20  A    between atoms: C_31  and  C_36
   21  A    between atoms: C_41  and  C_44
   22  A    between atoms: C_41  and  C_47
                            x       y       z     vdW  Elec       q    Type
                         _______ _______ _______ _____ _____    ______ ____

>  <TORSDO>
F 22

$$$$
