=
 OpenBabel11042415223D

 47 53  0  0  1  0  0  0  0  0999 V2000
  189.0880  175.5800  142.8930 C   0  0  2  0  0  3  0  0  0  0  0  0
  191.2120  178.3800  143.7440 C   0  0  0  0  0  2  0  0  0  0  0  0
  189.7070  176.8940  142.4500 C   0  0  2  0  0  3  0  0  0  0  0  0
  190.5200  177.2470  143.6180 C   0  0  0  0  0  0  0  0  0  0  0  0
  189.3510  175.3300  144.2620 O   0  0  0  0  0  0  0  0  0  0  0  0
  190.2720  176.2920  144.7230 C   0  0  1  0  0  3  0  0  0  0  0  0
  195.9610  174.3430  144.3760 N   0  0  0  0  0  0  0  0  0  0  0  0
  194.2130  175.1450  145.6680 C   0  0  0  0  0  0  0  0  0  0  0  0
  192.4340  175.2130  144.1060 N   0  0  0  0  0  0  0  0  0  0  0  0
  194.4220  173.1560  142.8910 C   0  0  0  0  0  1  0  0  0  0  0  0
  192.2640  176.3720  146.3240 C   0  0  0  0  0  2  0  0  0  0  0  0
  193.6000  175.8090  146.5950 N   0  0  0  0  0  0  0  0  0  0  0  0
  191.5320  175.5850  145.2110 C   0  0  1  0  0  3  0  0  0  0  0  0
  193.6690  174.9410  144.3910 C   0  0  0  0  0  0  0  0  0  0  0  0
  194.7710  174.4970  143.4980 C   0  0  1  0  0  3  0  0  0  0  0  0
  195.5700  174.7820  145.6620 N   0  0  0  0  0  2  0  0  0  0  0  0
  196.9710  175.2750  143.9050 C   0  0  0  0  0  2  0  0  0  0  0  0
  197.6880  174.6940  142.7050 C   0  0  0  0  0  2  0  0  0  0  0  0
  197.9410  175.7000  141.7660 O   0  0  0  0  0  0  0  0  0  0  0  0
  197.9410  175.7080  138.9920 O   0  0  0  0  0  0  0  0  0  0  0  0
  196.9040  173.5480  140.3580 O   0  0  0  0  0  1  0  0  0  0  0  0
  195.7260  175.8790  140.3810 O   0  0  0  0  0  1  0  0  0  0  0  0
  197.0910  175.2310  140.3750 P   0  0  0  0  0  0  0  0  0  0  0  0
  189.6060  174.4940  142.0750 N   0  0  0  0  0  2  0  0  0  0  0  0
  188.6260  173.4230  142.0540 C   0  0  1  0  0  3  0  0  0  0  0  0
  188.1860  173.1130  140.6250 C   0  0  0  0  0  2  0  0  0  0  0  0
  188.9070  173.9410  139.6700 N   0  0  0  0  0  2  0  0  0  0  0  0
  187.7830  174.6850  137.4910 N   0  0  0  0  0  0  0  0  0  0  0  0
  188.2920  174.3470  138.4750 C   0  0  0  0  0  0  0  0  0  0  0  0
  189.2260  172.1900  142.7040 C   0  0  0  0  0  2  0  0  0  0  0  0
  191.2040  171.7230  144.1220 C   0  0  0  0  0  2  0  0  0  0  0  0
  190.7290  172.3190  142.8080 C   0  0  0  0  0  3  0  0  0  0  0  0
  191.3290  170.9280  142.8340 C   0  0  0  0  0  2  0  0  0  0  0  0
  188.6090  177.9370  142.2360 C   0  0  0  0  0  2  0  0  0  0  0  0
  187.3320  177.4550  142.7310 N   0  0  0  0  0  2  0  0  0  0  0  0
  185.0440  179.6370  144.3590 O   0  0  0  0  0  0  0  0  0  0  0  0
  186.9750  178.2590  143.8910 C   0  0  1  0  0  3  0  0  0  0  0  0
  186.5940  178.3580  147.5400 C   0  0  0  0  0  2  0  0  0  0  0  0
  185.2890  178.7370  145.4060 C   0  0  2  0  0  0  0  0  0  0  0  0
  186.1440  179.4770  143.4720 C   0  0  0  0  0  2  0  0  0  0  0  0
  184.5310  177.0450  147.0650 C   0  0  0  0  0  2  0  0  0  0  0  0
  186.6420  176.7260  145.7980 O   0  0  0  0  0  0  0  0  0  0  0  0
  184.0530  178.1820  146.1160 C   0  0  0  0  0  2  0  0  0  0  0  0
  185.1430  176.7520  144.0500 O   0  0  0  0  0  1  0  0  0  0  0  0
  186.0920  176.9800  147.0950 C   0  0  1  0  0  3  0  0  0  0  0  0
  186.1650  179.4030  146.4940 C   0  0  0  0  0  2  0  0  0  0  0  0
  186.0200  177.5400  144.8040 C   0  0  2  0  0  0  0  0  0  0  0  0
  1 24  1  6  0  0  0
  1  5  1  0  0  0  0
  3 34  1  1  0  0  0
  3  1  1  0  0  0  0
  3  4  1  0  0  0  0
  4  2  2  0  0  0  0
  5  6  1  0  0  0  0
  6  4  1  6  0  0  0
  6 13  1  0  0  0  0
  7 16  1  0  0  0  0
  8 12  2  0  0  0  0
  9 14  2  0  0  0  0
  9 13  1  0  0  0  0
 11 12  1  0  0  0  0
 13 11  1  1  0  0  0
 14  8  1  0  0  0  0
 15 10  1  1  0  0  0
 15  7  1  0  0  0  0
 15 14  1  0  0  0  0
 16  8  1  0  0  0  0
 17  7  1  0  0  0  0
 18 17  1  0  0  0  0
 19 18  1  0  0  0  0
 20 23  2  0  0  0  0
 21 23  1  0  0  0  0
 23 22  1  0  0  0  0
 23 19  1  0  0  0  0
 25 26  1  6  0  0  0
 25 24  1  0  0  0  0
 25 30  1  0  0  0  0
 27 26  1  0  0  0  0
 28 29  3  0  0  0  0
 29 27  1  0  0  0  0
 30 32  1  0  0  0  0
 32 33  1  0  0  0  0
 32 31  1  0  0  0  0
 33 31  1  0  0  0  0
 34 35  1  0  0  0  0
 36 39  1  0  0  0  0
 37 35  1  6  0  0  0
 37 47  1  0  0  0  0
 39 43  1  1  0  0  0
 39 46  1  0  0  0  0
 40 37  1  0  0  0  0
 40 36  1  0  0  0  0
 42 45  1  0  0  0  0
 43 41  1  0  0  0  0
 45 41  1  6  0  0  0
 45 38  1  0  0  0  0
 46 38  1  0  0  0  0
 47 44  1  6  0  0  0
 47 39  1  0  0  0  0
 47 42  1  0  0  0  0
M  END
>  <MODEL>
1

>  <REMARK>
 VINA RESULT:      -6.9      0.000      0.000
  Name = 
  15 active torsions:
  status: ('A' for Active; 'I' for Inactive)
    1  A    between atoms: C_1  and  N_5
    2  A    between atoms: C_1  and  C_10
    3  A    between atoms: N_3  and  C_14
    4  A    between atoms: N_3  and  C_17
    5  A    between atoms: C_4  and  N_7
    6  A    between atoms: N_5  and  C_38
    7  A    between atoms: N_7  and  C_10
    8  A    between atoms: N_8  and  C_22
    9  A    between atoms: C_10  and  C_47
   10  A    between atoms: C_14  and  C_18
   11  A    between atoms: C_22  and  C_45
   12  A    between atoms: O_24  and  C_45
   13  A    between atoms: O_24  and  P_46
   14  A    between atoms: C_33  and  C_36
   15  A    between atoms: C_34  and  C_47
                            x       y       z     vdW  Elec       q    Type
                         _______ _______ _______ _____ _____    ______ ____

>  <TORSDO>
F 15

$$$$
=
 OpenBabel11042415223D

 47 53  0  0  1  0  0  0  0  0999 V2000
  189.5520  174.7660  144.3110 C   0  0  2  0  0  3  0  0  0  0  0  0
  191.8740  177.4020  143.4530 C   0  0  0  0  0  2  0  0  0  0  0  0
  190.1210  175.6630  143.2260 C   0  0  2  0  0  3  0  0  0  0  0  0
  191.1370  176.4160  143.9670 C   0  0  0  0  0  0  0  0  0  0  0  0
  190.0470  175.1340  145.5860 O   0  0  0  0  0  0  0  0  0  0  0  0
  191.0620  176.0960  145.4120 C   0  0  1  0  0  3  0  0  0  0  0  0
  196.1880  172.9350  145.3670 N   0  0  0  0  0  0  0  0  0  0  0  0
  195.0170  174.8060  146.0680 C   0  0  0  0  0  0  0  0  0  0  0  0
  192.8290  174.3410  145.2880 N   0  0  0  0  0  0  0  0  0  0  0  0
  194.1770  171.5460  145.4550 C   0  0  0  0  0  1  0  0  0  0  0  0
  193.4720  176.6350  146.0740 C   0  0  0  0  0  2  0  0  0  0  0  0
  194.7860  176.0410  146.3820 N   0  0  0  0  0  0  0  0  0  0  0  0
  192.3670  175.5550  145.9850 C   0  0  1  0  0  3  0  0  0  0  0  0
  194.0710  173.9930  145.4260 C   0  0  0  0  0  0  0  0  0  0  0  0
  194.7870  172.8080  144.8860 C   0  0  1  0  0  3  0  0  0  0  0  0
  196.2710  174.1740  146.0410 N   0  0  0  0  0  2  0  0  0  0  0  0
  197.0410  173.0380  144.1950 C   0  0  0  0  0  2  0  0  0  0  0  0
  197.5120  174.4670  144.0250 C   0  0  0  0  0  2  0  0  0  0  0  0
  197.5180  174.8110  142.6680 O   0  0  0  0  0  0  0  0  0  0  0  0
  196.5640  176.8480  141.0460 O   0  0  0  0  0  0  0  0  0  0  0  0
  194.8040  175.3690  142.5700 O   0  0  0  0  0  1  0  0  0  0  0  0
  196.5130  177.0160  143.6600 O   0  0  0  0  0  1  0  0  0  0  0  0
  196.3580  176.0390  142.5180 P   0  0  0  0  0  0  0  0  0  0  0  0
  189.8870  173.3780  144.0250 N   0  0  0  0  0  2  0  0  0  0  0  0
  190.3230  173.2840  142.6430 C   0  0  1  0  0  3  0  0  0  0  0  0
  191.5980  172.4500  142.5290 C   0  0  0  0  0  2  0  0  0  0  0  0
  191.4420  171.1710  143.2040 N   0  0  0  0  0  2  0  0  0  0  0  0
  192.3880  169.0290  142.1630 N   0  0  0  0  0  0  0  0  0  0  0  0
  191.9580  169.9970  142.6320 C   0  0  0  0  0  0  0  0  0  0  0  0
  189.2110  172.6700  141.8140 C   0  0  0  0  0  2  0  0  0  0  0  0
  188.1620  172.6590  139.5680 C   0  0  0  0  0  2  0  0  0  0  0  0
  189.4440  172.9220  140.3400 C   0  0  0  0  0  3  0  0  0  0  0  0
  188.5700  174.0810  139.9080 C   0  0  0  0  0  2  0  0  0  0  0  0
  189.0340  176.6080  142.7130 C   0  0  0  0  0  2  0  0  0  0  0  0
  187.7570  176.3180  143.3410 N   0  0  0  0  0  2  0  0  0  0  0  0
  185.6900  179.2090  143.4750 O   0  0  0  0  0  0  0  0  0  0  0  0
  187.3250  177.5200  144.0400 C   0  0  1  0  0  3  0  0  0  0  0  0
  186.1380  178.9560  147.2020 C   0  0  0  0  0  2  0  0  0  0  0  0
  185.4810  178.7160  144.7710 C   0  0  2  0  0  0  0  0  0  0  0  0
  186.9030  178.6060  143.0440 C   0  0  0  0  0  2  0  0  0  0  0  0
  184.0050  177.8350  146.5710 C   0  0  0  0  0  2  0  0  0  0  0  0
  186.2300  176.8200  146.1390 O   0  0  0  0  0  0  0  0  0  0  0  0
  184.0230  178.6120  145.2220 C   0  0  0  0  0  2  0  0  0  0  0  0
  185.2220  176.4150  144.1090 O   0  0  0  0  0  1  0  0  0  0  0  0
  185.4640  177.5860  147.0750 C   0  0  1  0  0  3  0  0  0  0  0  0
  186.2040  179.6070  145.8090 C   0  0  0  0  0  2  0  0  0  0  0  0
  186.0510  177.3010  144.8080 C   0  0  2  0  0  0  0  0  0  0  0  0
  1 24  1  6  0  0  0
  1  5  1  0  0  0  0
  2  4  2  0  0  0  0
  3 34  1  1  0  0  0
  3  4  1  0  0  0  0
  3  1  1  0  0  0  0
  6  4  1  6  0  0  0
  6  5  1  0  0  0  0
  6 13  1  0  0  0  0
  7 16  1  0  0  0  0
  8 12  2  0  0  0  0
  9 14  2  0  0  0  0
  9 13  1  0  0  0  0
 11 12  1  0  0  0  0
 13 11  1  6  0  0  0
 14  8  1  0  0  0  0
 15  7  1  0  0  0  0
 15 14  1  0  0  0  0
 15 10  1  1  0  0  0
 16  8  1  0  0  0  0
 17  7  1  0  0  0  0
 18 17  1  0  0  0  0
 19 18  1  0  0  0  0
 20 23  2  0  0  0  0
 23 21  1  0  0  0  0
 23 19  1  0  0  0  0
 23 22  1  0  0  0  0
 25 30  1  6  0  0  0
 25 24  1  0  0  0  0
 26 25  1  0  0  0  0
 26 27  1  0  0  0  0
 28 29  3  0  0  0  0
 29 27  1  0  0  0  0
 31 33  1  0  0  0  0
 31 32  1  0  0  0  0
 32 30  1  0  0  0  0
 33 32  1  0  0  0  0
 34 35  1  0  0  0  0
 36 39  1  0  0  0  0
 37 35  1  6  0  0  0
 37 47  1  0  0  0  0
 39 47  1  0  0  0  0
 39 43  1  1  0  0  0
 39 46  1  0  0  0  0
 40 36  1  0  0  0  0
 40 37  1  0  0  0  0
 42 45  1  0  0  0  0
 43 41  1  0  0  0  0
 45 41  1  6  0  0  0
 45 38  1  0  0  0  0
 46 38  1  0  0  0  0
 47 44  1  6  0  0  0
 47 42  1  0  0  0  0
M  END
>  <MODEL>
2

>  <REMARK>
 VINA RESULT:      -6.3      1.734      2.691
  Name = 
  15 active torsions:
  status: ('A' for Active; 'I' for Inactive)
    1  A    between atoms: C_1  and  N_5
    2  A    between atoms: C_1  and  C_10
    3  A    between atoms: N_3  and  C_14
    4  A    between atoms: N_3  and  C_17
    5  A    between atoms: C_4  and  N_7
    6  A    between atoms: N_5  and  C_38
    7  A    between atoms: N_7  and  C_10
    8  A    between atoms: N_8  and  C_22
    9  A    between atoms: C_10  and  C_47
   10  A    between atoms: C_14  and  C_18
   11  A    between atoms: C_22  and  C_45
   12  A    between atoms: O_24  and  C_45
   13  A    between atoms: O_24  and  P_46
   14  A    between atoms: C_33  and  C_36
   15  A    between atoms: C_34  and  C_47
                            x       y       z     vdW  Elec       q    Type
                         _______ _______ _______ _____ _____    ______ ____

>  <TORSDO>
F 15

$$$$
=
 OpenBabel11042415223D

 47 53  0  0  1  0  0  0  0  0999 V2000
  190.3250  174.9230  142.5670 C   0  0  2  0  0  3  0  0  0  0  0  0
  188.3150  172.9560  140.2940 C   0  0  0  0  0  2  0  0  0  0  0  0
  188.9330  174.4890  142.1410 C   0  0  2  0  0  3  0  0  0  0  0  0
  189.2340  173.5570  141.0520 C   0  0  0  0  0  0  0  0  0  0  0  0
  191.3040  174.4510  141.6590 O   0  0  0  0  0  0  0  0  0  0  0  0
  190.6860  173.5630  140.7560 C   0  0  1  0  0  3  0  0  0  0  0  0
  195.0920  169.6720  142.0660 N   0  0  0  0  0  0  0  0  0  0  0  0
  192.8260  170.1450  141.9680 C   0  0  0  0  0  0  0  0  0  0  0  0
  192.8090  172.2660  140.9140 N   0  0  0  0  0  0  0  0  0  0  0  0
  195.5430  171.0390  140.0890 C   0  0  0  0  0  1  0  0  0  0  0  0
  190.7650  171.3600  142.0500 C   0  0  0  0  0  2  0  0  0  0  0  0
  191.5770  170.1570  142.3090 N   0  0  0  0  0  0  0  0  0  0  0  0
  191.3380  172.1900  140.8770 C   0  0  1  0  0  3  0  0  0  0  0  0
  193.4620  171.2410  141.3670 C   0  0  0  0  0  0  0  0  0  0  0  0
  194.9290  171.0250  141.4720 C   0  0  1  0  0  3  0  0  0  0  0  0
  193.7920  169.2090  142.3750 N   0  0  0  0  0  2  0  0  0  0  0  0
  195.7890  169.8340  143.3300 C   0  0  0  0  0  2  0  0  0  0  0  0
  195.7920  171.2930  143.7330 C   0  0  0  0  0  2  0  0  0  0  0  0
  195.1520  171.4490  144.9680 O   0  0  0  0  0  0  0  0  0  0  0  0
  196.0240  173.9080  145.9120 O   0  0  0  0  0  1  0  0  0  0  0  0
  194.6600  173.7620  143.5200 O   0  0  0  0  0  0  0  0  0  0  0  0
  193.4820  173.2850  145.8020 O   0  0  0  0  0  1  0  0  0  0  0  0
  194.7930  173.1040  145.0740 P   0  0  0  0  0  0  0  0  0  0  0  0
  190.6040  174.4290  143.9070 N   0  0  0  0  0  2  0  0  0  0  0  0
  190.8190  175.5670  144.7830 C   0  0  1  0  0  3  0  0  0  0  0  0
  191.5070  176.7080  144.0380 C   0  0  0  0  0  2  0  0  0  0  0  0
  192.9470  176.6630  144.2400 N   0  0  0  0  0  2  0  0  0  0  0  0
  193.9370  176.8140  146.5980 N   0  0  0  0  0  0  0  0  0  0  0  0
  193.4870  176.7450  145.5330 C   0  0  0  0  0  0  0  0  0  0  0  0
  189.4830  176.0240  145.3380 C   0  0  0  0  0  2  0  0  0  0  0  0
  189.0670  174.7510  147.4230 C   0  0  0  0  0  2  0  0  0  0  0  0
  189.5230  176.0810  146.8490 C   0  0  0  0  0  3  0  0  0  0  0  0
  190.5470  175.0780  147.3390 C   0  0  0  0  0  2  0  0  0  0  0  0
  188.1570  175.6940  141.6070 C   0  0  0  0  0  2  0  0  0  0  0  0
  186.8910  175.8440  142.3020 N   0  0  0  0  0  2  0  0  0  0  0  0
  186.7720  179.2800  143.2120 O   0  0  0  0  0  0  0  0  0  0  0  0
  187.0600  176.8820  143.3100 C   0  0  1  0  0  3  0  0  0  0  0  0
  186.2500  178.0000  146.7100 C   0  0  0  0  0  2  0  0  0  0  0  0
  186.0720  178.7310  144.2950 C   0  0  2  0  0  0  0  0  0  0  0  0
  187.5120  178.1960  142.6650 C   0  0  0  0  0  2  0  0  0  0  0  0
  184.0300  178.5060  145.6990 C   0  0  0  0  0  2  0  0  0  0  0  0
  185.3650  176.5100  145.0670 O   0  0  0  0  0  0  0  0  0  0  0  0
  184.7410  179.4010  144.6420 C   0  0  0  0  0  2  0  0  0  0  0  0
  184.7320  177.2290  142.9730 O   0  0  0  0  0  1  0  0  0  0  0  0
  184.9760  177.3490  146.1590 C   0  0  1  0  0  3  0  0  0  0  0  0
  186.9400  178.7770  145.5760 C   0  0  0  0  0  2  0  0  0  0  0  0
  185.7510  177.2840  143.9320 C   0  0  2  0  0  0  0  0  0  0  0  0
  1 24  1  1  0  0  0
  2  4  2  0  0  0  0
  3 34  1  6  0  0  0
  3  1  1  0  0  0  0
  4  3  1  0  0  0  0
  5  1  1  0  0  0  0
  6 13  1  0  0  0  0
  6  4  1  1  0  0  0
  6  5  1  0  0  0  0
  7 16  1  0  0  0  0
  7 17  1  0  0  0  0
  8 12  2  0  0  0  0
  8 16  1  0  0  0  0
  9 14  2  0  0  0  0
 11 12  1  0  0  0  0
 13  9  1  0  0  0  0
 13 11  1  1  0  0  0
 14 15  1  0  0  0  0
 14  8  1  0  0  0  0
 15 10  1  6  0  0  0
 15  7  1  0  0  0  0
 17 18  1  0  0  0  0
 18 19  1  0  0  0  0
 19 23  1  0  0  0  0
 21 23  2  0  0  0  0
 23 22  1  0  0  0  0
 23 20  1  0  0  0  0
 24 25  1  0  0  0  0
 25 26  1  6  0  0  0
 25 30  1  0  0  0  0
 26 27  1  0  0  0  0
 27 29  1  0  0  0  0
 29 28  3  0  0  0  0
 30 32  1  0  0  0  0
 32 33  1  0  0  0  0
 32 31  1  0  0  0  0
 33 31  1  0  0  0  0
 34 35  1  0  0  0  0
 36 39  1  0  0  0  0
 37 35  1  6  0  0  0
 37 47  1  0  0  0  0
 39 43  1  1  0  0  0
 39 46  1  0  0  0  0
 40 36  1  0  0  0  0
 40 37  1  0  0  0  0
 42 45  1  0  0  0  0
 43 41  1  0  0  0  0
 45 41  1  6  0  0  0
 45 38  1  0  0  0  0
 46 38  1  0  0  0  0
 47 44  1  6  0  0  0
 47 39  1  0  0  0  0
 47 42  1  0  0  0  0
M  END
>  <MODEL>
3

>  <REMARK>
 VINA RESULT:      -6.1      2.774      4.886
  Name = 
  15 active torsions:
  status: ('A' for Active; 'I' for Inactive)
    1  A    between atoms: C_1  and  N_5
    2  A    between atoms: C_1  and  C_10
    3  A    between atoms: N_3  and  C_14
    4  A    between atoms: N_3  and  C_17
    5  A    between atoms: C_4  and  N_7
    6  A    between atoms: N_5  and  C_38
    7  A    between atoms: N_7  and  C_10
    8  A    between atoms: N_8  and  C_22
    9  A    between atoms: C_10  and  C_47
   10  A    between atoms: C_14  and  C_18
   11  A    between atoms: C_22  and  C_45
   12  A    between atoms: O_24  and  C_45
   13  A    between atoms: O_24  and  P_46
   14  A    between atoms: C_33  and  C_36
   15  A    between atoms: C_34  and  C_47
                            x       y       z     vdW  Elec       q    Type
                         _______ _______ _______ _____ _____    ______ ____

>  <TORSDO>
F 15

$$$$
=
 OpenBabel11042415223D

 47 53  0  0  1  0  0  0  0  0999 V2000
  190.7570  175.0560  144.2710 C   0  0  2  0  0  3  0  0  0  0  0  0
  191.3670  176.4980  147.5300 C   0  0  0  0  0  2  0  0  0  0  0  0
  190.4600  176.1830  145.2440 C   0  0  2  0  0  3  0  0  0  0  0  0
  191.3270  175.8350  146.3730 C   0  0  0  0  0  0  0  0  0  0  0  0
  191.5470  174.0520  144.8820 O   0  0  0  0  0  0  0  0  0  0  0  0
  191.9660  174.5190  146.1440 C   0  0  1  0  0  3  0  0  0  0  0  0
  197.5520  172.8110  144.6740 N   0  0  0  0  0  0  0  0  0  0  0  0
  196.0810  174.5070  145.2450 C   0  0  0  0  0  0  0  0  0  0  0  0
  194.1050  173.3000  145.7450 N   0  0  0  0  0  0  0  0  0  0  0  0
  196.3740  171.2040  146.0940 C   0  0  0  0  0  1  0  0  0  0  0  0
  194.0650  175.7870  145.4200 C   0  0  0  0  0  2  0  0  0  0  0  0
  195.5250  175.6760  145.2460 N   0  0  0  0  0  0  0  0  0  0  0  0
  193.4900  174.5670  146.1790 C   0  0  1  0  0  3  0  0  0  0  0  0
  195.3520  173.3170  145.3890 C   0  0  0  0  0  0  0  0  0  0  0  0
  196.2290  172.1960  144.9600 C   0  0  1  0  0  3  0  0  0  0  0  0
  197.3890  174.2060  144.8290 N   0  0  0  0  0  2  0  0  0  0  0  0
  197.8450  172.5770  143.2700 C   0  0  0  0  0  2  0  0  0  0  0  0
  197.9410  173.8970  142.5380 C   0  0  0  0  0  2  0  0  0  0  0  0
  197.1650  173.8560  141.3740 O   0  0  0  0  0  0  0  0  0  0  0  0
  194.8280  175.2410  141.9340 O   0  0  0  0  0  1  0  0  0  0  0  0
  197.2670  176.4990  142.2070 O   0  0  0  0  0  1  0  0  0  0  0  0
  196.3260  175.8260  139.8660 O   0  0  0  0  0  0  0  0  0  0  0  0
  196.3930  175.3650  141.3030 P   0  0  0  0  0  0  0  0  0  0  0  0
  191.4380  175.5870  143.1000 N   0  0  0  0  0  2  0  0  0  0  0  0
  191.2550  174.6600  141.9980 C   0  0  1  0  0  3  0  0  0  0  0  0
  191.8240  173.2840  142.3410 C   0  0  0  0  0  2  0  0  0  0  0  0
  192.7100  172.8140  141.2870 N   0  0  0  0  0  2  0  0  0  0  0  0
  194.7460  171.3640  141.8500 N   0  0  0  0  0  0  0  0  0  0  0  0
  193.8260  172.0210  141.5980 C   0  0  0  0  0  0  0  0  0  0  0  0
  189.7760  174.5570  141.6780 C   0  0  0  0  0  2  0  0  0  0  0  0
  187.8730  172.9890  141.9260 C   0  0  0  0  0  2  0  0  0  0  0  0
  189.3480  173.1090  141.5870 C   0  0  0  0  0  3  0  0  0  0  0  0
  188.3260  172.9800  140.4770 C   0  0  0  0  0  2  0  0  0  0  0  0
  188.9920  176.1260  145.6690 C   0  0  0  0  0  2  0  0  0  0  0  0
  188.1250  175.9570  144.5160 N   0  0  0  0  0  2  0  0  0  0  0  0
  187.5280  178.3420  141.9450 O   0  0  0  0  0  0  0  0  0  0  0  0
  187.6620  177.2780  144.1130 C   0  0  1  0  0  3  0  0  0  0  0  0
  184.9700  179.7640  144.3100 C   0  0  0  0  0  2  0  0  0  0  0  0
  186.3060  178.4280  142.6280 C   0  0  2  0  0  0  0  0  0  0  0  0
  188.4320  177.7700  142.8820 C   0  0  0  0  0  2  0  0  0  0  0  0
  183.8280  178.2210  142.7230 C   0  0  0  0  0  2  0  0  0  0  0  0
  185.2440  177.4090  144.5940 O   0  0  0  0  0  0  0  0  0  0  0  0
  185.0470  178.3430  141.7620 C   0  0  0  0  0  2  0  0  0  0  0  0
  186.0220  176.0520  142.9040 O   0  0  0  0  0  1  0  0  0  0  0  0
  184.2840  178.3980  144.2080 C   0  0  1  0  0  3  0  0  0  0  0  0
  186.2190  179.7600  143.4090 C   0  0  0  0  0  2  0  0  0  0  0  0
  186.2510  177.2480  143.5950 C   0  0  2  0  0  0  0  0  0  0  0  0
  1 24  1  6  0  0  0
  1  5  1  0  0  0  0
  1  3  1  0  0  0  0
  3 34  1  1  0  0  0
  3  4  1  0  0  0  0
  4  2  2  0  0  0  0
  6  5  1  6  0  0  0
  6 13  1  0  0  0  0
  6  4  1  0  0  0  0
  7 16  1  0  0  0  0
  7 15  1  0  0  0  0
  8 12  2  0  0  0  0
  8 14  1  0  0  0  0
  9 13  1  0  0  0  0
 12 11  1  0  0  0  0
 13 11  1  6  0  0  0
 14  9  2  0  0  0  0
 15 14  1  0  0  0  0
 15 10  1  1  0  0  0
 16  8  1  0  0  0  0
 17  7  1  0  0  0  0
 18 17  1  0  0  0  0
 19 18  1  0  0  0  0
 22 23  2  0  0  0  0
 23 19  1  0  0  0  0
 23 20  1  0  0  0  0
 23 21  1  0  0  0  0
 25 30  1  1  0  0  0
 25 26  1  0  0  0  0
 25 24  1  0  0  0  0
 27 29  1  0  0  0  0
 27 26  1  0  0  0  0
 29 28  3  0  0  0  0
 32 30  1  0  0  0  0
 32 31  1  0  0  0  0
 33 32  1  0  0  0  0
 33 31  1  0  0  0  0
 35 34  1  0  0  0  0
 36 39  1  0  0  0  0
 36 40  1  0  0  0  0
 37 35  1  6  0  0  0
 39 43  1  6  0  0  0
 39 46  1  0  0  0  0
 39 47  1  0  0  0  0
 40 37  1  0  0  0  0
 43 41  1  0  0  0  0
 45 41  1  6  0  0  0
 45 38  1  0  0  0  0
 45 42  1  0  0  0  0
 46 38  1  0  0  0  0
 47 44  1  6  0  0  0
 47 37  1  0  0  0  0
 47 42  1  0  0  0  0
M  END
>  <MODEL>
4

>  <REMARK>
 VINA RESULT:      -6.1      2.146      3.378
  Name = 
  15 active torsions:
  status: ('A' for Active; 'I' for Inactive)
    1  A    between atoms: C_1  and  N_5
    2  A    between atoms: C_1  and  C_10
    3  A    between atoms: N_3  and  C_14
    4  A    between atoms: N_3  and  C_17
    5  A    between atoms: C_4  and  N_7
    6  A    between atoms: N_5  and  C_38
    7  A    between atoms: N_7  and  C_10
    8  A    between atoms: N_8  and  C_22
    9  A    between atoms: C_10  and  C_47
   10  A    between atoms: C_14  and  C_18
   11  A    between atoms: C_22  and  C_45
   12  A    between atoms: O_24  and  C_45
   13  A    between atoms: O_24  and  P_46
   14  A    between atoms: C_33  and  C_36
   15  A    between atoms: C_34  and  C_47
                            x       y       z     vdW  Elec       q    Type
                         _______ _______ _______ _____ _____    ______ ____

>  <TORSDO>
F 15

$$$$
=
 OpenBabel11042415223D

 47 53  0  0  1  0  0  0  0  0999 V2000
  191.4670  173.3860  143.0230 C   0  0  2  0  0  3  0  0  0  0  0  0
  189.6980  173.7300  139.8880 C   0  0  0  0  0  2  0  0  0  0  0  0
  191.4870  173.1890  141.5170 C   0  0  2  0  0  3  0  0  0  0  0  0
  190.1860  173.7430  141.1290 C   0  0  0  0  0  0  0  0  0  0  0  0
  190.1880  173.8060  143.4640 O   0  0  0  0  0  0  0  0  0  0  0  0
  189.3980  174.0940  142.3330 C   0  0  1  0  0  3  0  0  0  0  0  0
  185.5150  178.6960  142.1820 N   0  0  0  0  0  0  0  0  0  0  0  0
  187.4690  177.7750  143.0180 C   0  0  0  0  0  0  0  0  0  0  0  0
  187.6610  175.7850  141.7480 N   0  0  0  0  0  0  0  0  0  0  0  0
  185.8380  177.6100  140.0140 C   0  0  0  0  0  1  0  0  0  0  0  0
  189.0510  176.1580  143.8020 C   0  0  0  0  0  2  0  0  0  0  0  0
  188.3990  177.4780  143.8690 N   0  0  0  0  0  0  0  0  0  0  0  0
  188.9740  175.5580  142.3780 C   0  0  1  0  0  3  0  0  0  0  0  0
  187.0320  176.8830  142.0270 C   0  0  0  0  0  0  0  0  0  0  0  0
  185.7340  177.3890  141.5070 C   0  0  1  0  0  3  0  0  0  0  0  0
  186.5750  178.8540  143.1040 N   0  0  0  0  0  2  0  0  0  0  0  0
  184.2950  178.5820  142.9620 C   0  0  0  0  0  2  0  0  0  0  0  0
  184.4150  179.4030  144.2290 C   0  0  0  0  0  2  0  0  0  0  0  0
  183.7480  178.7620  145.2790 O   0  0  0  0  0  0  0  0  0  0  0  0
  184.3880  178.2130  147.9210 O   0  0  0  0  0  1  0  0  0  0  0  0
  185.4880  176.6940  145.8980 O   0  0  0  0  0  0  0  0  0  0  0  0
  186.1420  179.1990  146.2440 O   0  0  0  0  0  1  0  0  0  0  0  0
  184.9720  178.2470  146.3340 P   0  0  0  0  0  0  0  0  0  0  0  0
  192.4750  174.3650  143.4020 N   0  0  0  0  0  2  0  0  0  0  0  0
  193.5220  173.6860  144.1440 C   0  0  1  0  0  3  0  0  0  0  0  0
  194.8810  173.8820  143.4760 C   0  0  0  0  0  2  0  0  0  0  0  0
  195.3800  175.2300  143.7020 N   0  0  0  0  0  2  0  0  0  0  0  0
  196.0950  176.6950  141.7260 N   0  0  0  0  0  0  0  0  0  0  0  0
  195.7740  176.0340  142.6210 C   0  0  0  0  0  0  0  0  0  0  0  0
  193.5470  174.2190  145.5640 C   0  0  0  0  0  2  0  0  0  0  0  0
  192.0120  175.2890  147.1900 C   0  0  0  0  0  2  0  0  0  0  0  0
  192.4970  175.2920  145.7510 C   0  0  0  0  0  3  0  0  0  0  0  0
  193.0280  176.3190  146.7300 C   0  0  0  0  0  2  0  0  0  0  0  0
  191.5440  171.6960  141.1910 C   0  0  0  0  0  2  0  0  0  0  0  0
  192.4620  171.4390  140.0960 N   0  0  0  0  0  2  0  0  0  0  0  0
  189.6430  170.1590  138.3460 O   0  0  0  0  0  0  0  0  0  0  0  0
  191.8700  170.4080  139.2550 C   0  0  1  0  0  3  0  0  0  0  0  0
  192.1850  168.4080  136.1940 C   0  0  0  0  0  2  0  0  0  0  0  0
  190.6160  170.0250  137.3450 C   0  0  2  0  0  0  0  0  0  0  0  0
  190.3760  170.2500  139.5610 C   0  0  0  0  0  2  0  0  0  0  0  0
  191.5210  170.5380  135.0850 C   0  0  0  0  0  2  0  0  0  0  0  0
  193.0150  170.4700  137.0680 O   0  0  0  0  0  0  0  0  0  0  0  0
  190.2390  170.5720  135.9670 C   0  0  0  0  0  2  0  0  0  0  0  0
  191.6160  172.1870  137.6970 O   0  0  0  0  0  1  0  0  0  0  0  0
  192.6830  169.8140  135.8400 C   0  0  1  0  0  3  0  0  0  0  0  0
  190.9830  168.5350  137.1470 C   0  0  0  0  0  2  0  0  0  0  0  0
  191.8410  170.8090  137.8060 C   0  0  2  0  0  0  0  0  0  0  0  0
  1 24  1  6  0  0  0
  1  5  1  0  0  0  0
  2  4  2  0  0  0  0
  3 34  1  1  0  0  0
  3  1  1  0  0  0  0
  4  3  1  0  0  0  0
  6  4  1  6  0  0  0
  6 13  1  0  0  0  0
  6  5  1  0  0  0  0
  7 17  1  0  0  0  0
  7 16  1  0  0  0  0
  8 16  1  0  0  0  0
  8 12  2  0  0  0  0
  9 14  2  0  0  0  0
  9 13  1  0  0  0  0
 11 12  1  0  0  0  0
 13 11  1  1  0  0  0
 14  8  1  0  0  0  0
 15 10  1  6  0  0  0
 15 14  1  0  0  0  0
 15  7  1  0  0  0  0
 17 18  1  0  0  0  0
 18 19  1  0  0  0  0
 19 23  1  0  0  0  0
 21 23  2  0  0  0  0
 22 23  1  0  0  0  0
 23 20  1  0  0  0  0
 24 25  1  0  0  0  0
 25 26  1  6  0  0  0
 25 30  1  0  0  0  0
 26 27  1  0  0  0  0
 28 29  3  0  0  0  0
 29 27  1  0  0  0  0
 30 32  1  0  0  0  0
 32 33  1  0  0  0  0
 32 31  1  0  0  0  0
 33 31  1  0  0  0  0
 35 34  1  0  0  0  0
 36 40  1  0  0  0  0
 37 40  1  0  0  0  0
 37 35  1  1  0  0  0
 38 46  1  0  0  0  0
 39 43  1  6  0  0  0
 39 47  1  0  0  0  0
 39 36  1  0  0  0  0
 41 43  1  0  0  0  0
 42 47  1  0  0  0  0
 45 41  1  1  0  0  0
 45 38  1  0  0  0  0
 45 42  1  0  0  0  0
 46 39  1  0  0  0  0
 47 44  1  6  0  0  0
 47 37  1  0  0  0  0
M  END
>  <MODEL>
5

>  <REMARK>
 VINA RESULT:      -5.9      3.950     10.042
  Name = 
  15 active torsions:
  status: ('A' for Active; 'I' for Inactive)
    1  A    between atoms: C_1  and  N_5
    2  A    between atoms: C_1  and  C_10
    3  A    between atoms: N_3  and  C_14
    4  A    between atoms: N_3  and  C_17
    5  A    between atoms: C_4  and  N_7
    6  A    between atoms: N_5  and  C_38
    7  A    between atoms: N_7  and  C_10
    8  A    between atoms: N_8  and  C_22
    9  A    between atoms: C_10  and  C_47
   10  A    between atoms: C_14  and  C_18
   11  A    between atoms: C_22  and  C_45
   12  A    between atoms: O_24  and  C_45
   13  A    between atoms: O_24  and  P_46
   14  A    between atoms: C_33  and  C_36
   15  A    between atoms: C_34  and  C_47
                            x       y       z     vdW  Elec       q    Type
                         _______ _______ _______ _____ _____    ______ ____

>  <TORSDO>
F 15

$$$$
=
 OpenBabel11042415223D

 47 53  0  0  1  0  0  0  0  0999 V2000
  192.9480  175.7040  143.1300 C   0  0  2  0  0  3  0  0  0  0  0  0
  191.7060  176.4850  146.4350 C   0  0  0  0  0  2  0  0  0  0  0  0
  193.1300  175.5560  144.6300 C   0  0  2  0  0  3  0  0  0  0  0  0
  191.9570  176.2700  145.1420 C   0  0  0  0  0  0  0  0  0  0  0  0
  191.8950  176.6030  142.8320 O   0  0  0  0  0  0  0  0  0  0  0  0
  191.2270  176.9220  144.0300 C   0  0  1  0  0  3  0  0  0  0  0  0
  185.2540  177.6970  143.9620 N   0  0  0  0  0  0  0  0  0  0  0  0
  187.1180  176.5650  143.1790 C   0  0  0  0  0  0  0  0  0  0  0  0
  188.8440  177.4590  144.5320 N   0  0  0  0  0  0  0  0  0  0  0  0
  186.2570  177.9780  146.1750 C   0  0  0  0  0  1  0  0  0  0  0  0
  189.3620  176.1220  142.4750 C   0  0  0  0  0  2  0  0  0  0  0  0
  187.9030  175.9570  142.3480 N   0  0  0  0  0  0  0  0  0  0  0  0
  189.7690  176.4880  143.9220 C   0  0  1  0  0  3  0  0  0  0  0  0
  187.5910  177.3990  144.2030 C   0  0  0  0  0  0  0  0  0  0  0  0
  186.4440  178.2090  144.6920 C   0  0  1  0  0  3  0  0  0  0  0  0
  185.7300  176.7360  143.0420 N   0  0  0  0  0  2  0  0  0  0  0  0
  184.7200  178.7980  143.1780 C   0  0  0  0  0  2  0  0  0  0  0  0
  183.6790  178.2810  142.2080 C   0  0  0  0  0  2  0  0  0  0  0  0
  182.4030  178.6870  142.6150 O   0  0  0  0  0  0  0  0  0  0  0  0
  182.2420  177.5340  140.0980 O   0  0  0  0  0  0  0  0  0  0  0  0
  180.0300  177.5470  141.7450 O   0  0  0  0  0  1  0  0  0  0  0  0
  180.9710  179.7460  140.6960 O   0  0  0  0  0  1  0  0  0  0  0  0
  181.4030  178.4180  141.2720 P   0  0  0  0  0  0  0  0  0  0  0  0
  192.6790  174.4020  142.5390 N   0  0  0  0  0  2  0  0  0  0  0  0
  192.4920  174.5730  141.1090 C   0  0  1  0  0  3  0  0  0  0  0  0
  193.8140  174.9100  140.4220 C   0  0  0  0  0  2  0  0  0  0  0  0
  194.6160  173.7120  140.2270 N   0  0  0  0  0  2  0  0  0  0  0  0
  197.1680  173.8690  140.0530 N   0  0  0  0  0  0  0  0  0  0  0  0
  196.0140  173.8000  140.1300 C   0  0  0  0  0  0  0  0  0  0  0  0
  191.9030  173.3000  140.5310 C   0  0  0  0  0  2  0  0  0  0  0  0
  190.0760  171.6320  140.6820 C   0  0  0  0  0  2  0  0  0  0  0  0
  190.6780  172.8770  141.3100 C   0  0  0  0  0  3  0  0  0  0  0  0
  190.9440  171.5170  141.9220 C   0  0  0  0  0  2  0  0  0  0  0  0
  194.4130  176.2650  145.0680 C   0  0  0  0  0  2  0  0  0  0  0  0
  195.3510  175.3240  145.6550 N   0  0  0  0  0  2  0  0  0  0  0  0
  197.6000  173.6180  143.4930 O   0  0  0  0  0  0  0  0  0  0  0  0
  195.5960  174.2750  144.6760 C   0  0  1  0  0  3  0  0  0  0  0  0
  195.2320  170.7170  143.8550 C   0  0  0  0  0  2  0  0  0  0  0  0
  196.9920  172.5150  144.1100 C   0  0  2  0  0  0  0  0  0  0  0  0
  196.6940  174.6960  143.6940 C   0  0  0  0  0  2  0  0  0  0  0  0
  197.0880  170.4500  145.4950 C   0  0  0  0  0  2  0  0  0  0  0  0
  195.2590  172.1020  145.8000 O   0  0  0  0  0  0  0  0  0  0  0  0
  197.9410  171.4470  144.6570 C   0  0  0  0  0  2  0  0  0  0  0  0
  197.0660  173.4230  146.3400 O   0  0  0  0  0  1  0  0  0  0  0  0
  195.5660  170.7780  145.3490 C   0  0  1  0  0  3  0  0  0  0  0  0
  196.0410  171.8000  143.1210 C   0  0  0  0  0  2  0  0  0  0  0  0
  196.2030  173.0490  145.3020 C   0  0  2  0  0  0  0  0  0  0  0  0
  1 24  1  1  0  0  0
  1  3  1  0  0  0  0
  3 34  1  1  0  0  0
  3  4  1  0  0  0  0
  4  2  2  0  0  0  0
  5  1  1  0  0  0  0
  6  5  1  6  0  0  0
  6  4  1  0  0  0  0
  7 15  1  0  0  0  0
  8 14  1  0  0  0  0
 12 11  1  0  0  0  0
 12  8  2  0  0  0  0
 13 11  1  6  0  0  0
 13  6  1  0  0  0  0
 13  9  1  0  0  0  0
 14  9  2  0  0  0  0
 14 15  1  0  0  0  0
 15 10  1  1  0  0  0
 16  8  1  0  0  0  0
 16  7  1  0  0  0  0
 17  7  1  0  0  0  0
 18 19  1  0  0  0  0
 18 17  1  0  0  0  0
 20 23  2  0  0  0  0
 22 23  1  0  0  0  0
 23 21  1  0  0  0  0
 23 19  1  0  0  0  0
 25 26  1  6  0  0  0
 25 24  1  0  0  0  0
 27 26  1  0  0  0  0
 28 29  3  0  0  0  0
 29 27  1  0  0  0  0
 30 25  1  0  0  0  0
 30 32  1  0  0  0  0
 31 32  1  0  0  0  0
 31 33  1  0  0  0  0
 32 33  1  0  0  0  0
 34 35  1  0  0  0  0
 36 40  1  0  0  0  0
 36 39  1  0  0  0  0
 37 47  1  0  0  0  0
 37 35  1  1  0  0  0
 39 46  1  6  0  0  0
 39 43  1  0  0  0  0
 39 47  1  0  0  0  0
 40 37  1  0  0  0  0
 43 41  1  0  0  0  0
 45 38  1  6  0  0  0
 45 41  1  0  0  0  0
 45 42  1  0  0  0  0
 46 38  1  0  0  0  0
 47 42  1  0  0  0  0
 47 44  1  1  0  0  0
M  END
>  <MODEL>
6

>  <REMARK>
 VINA RESULT:      -5.9      3.703      9.909
  Name = 
  15 active torsions:
  status: ('A' for Active; 'I' for Inactive)
    1  A    between atoms: C_1  and  N_5
    2  A    between atoms: C_1  and  C_10
    3  A    between atoms: N_3  and  C_14
    4  A    between atoms: N_3  and  C_17
    5  A    between atoms: C_4  and  N_7
    6  A    between atoms: N_5  and  C_38
    7  A    between atoms: N_7  and  C_10
    8  A    between atoms: N_8  and  C_22
    9  A    between atoms: C_10  and  C_47
   10  A    between atoms: C_14  and  C_18
   11  A    between atoms: C_22  and  C_45
   12  A    between atoms: O_24  and  C_45
   13  A    between atoms: O_24  and  P_46
   14  A    between atoms: C_33  and  C_36
   15  A    between atoms: C_34  and  C_47
                            x       y       z     vdW  Elec       q    Type
                         _______ _______ _______ _____ _____    ______ ____

>  <TORSDO>
F 15

$$$$
=
 OpenBabel11042415223D

 47 53  0  0  1  0  0  0  0  0999 V2000
  191.9800  174.8020  143.4930 C   0  0  2  0  0  3  0  0  0  0  0  0
  189.4480  172.2890  144.0820 C   0  0  0  0  0  2  0  0  0  0  0  0
  191.3880  173.7870  144.4550 C   0  0  2  0  0  3  0  0  0  0  0  0
  190.3200  173.1980  143.6430 C   0  0  0  0  0  0  0  0  0  0  0  0
  191.1810  174.9270  142.3300 O   0  0  0  0  0  0  0  0  0  0  0  0
  190.1930  173.9220  142.3560 C   0  0  1  0  0  3  0  0  0  0  0  0
  191.6080  172.6230  136.6480 N   0  0  0  0  0  0  0  0  0  0  0  0
  191.5100  171.9650  138.8670 C   0  0  0  0  0  0  0  0  0  0  0  0
  190.3820  173.7890  139.8740 N   0  0  0  0  0  0  0  0  0  0  0  0
  189.5810  173.9720  136.8760 C   0  0  0  0  0  1  0  0  0  0  0  0
  191.5650  172.0640  141.2580 C   0  0  0  0  0  2  0  0  0  0  0  0
  191.8600  171.3980  139.9770 N   0  0  0  0  0  0  0  0  0  0  0  0
  190.3590  173.0250  141.1340 C   0  0  1  0  0  3  0  0  0  0  0  0
  190.8660  173.2110  138.8180 C   0  0  0  0  0  0  0  0  0  0  0  0
  190.9680  173.7170  137.4250 C   0  0  1  0  0  3  0  0  0  0  0  0
  191.9430  171.6120  137.5780 N   0  0  0  0  0  2  0  0  0  0  0  0
  192.8610  173.1390  136.1230 C   0  0  0  0  0  2  0  0  0  0  0  0
  193.2660  174.3810  136.8870 C   0  0  0  0  0  2  0  0  0  0  0  0
  194.6230  174.6510  136.6760 O   0  0  0  0  0  0  0  0  0  0  0  0
  196.1880  172.6450  137.7810 O   0  0  0  0  0  0  0  0  0  0  0  0
  196.5500  175.2610  138.5740 O   0  0  0  0  0  1  0  0  0  0  0  0
  194.3860  173.9310  139.1820 O   0  0  0  0  0  1  0  0  0  0  0  0
  195.4060  174.1140  138.0830 P   0  0  0  0  0  0  0  0  0  0  0  0
  193.3330  174.4030  143.1310 N   0  0  0  0  0  2  0  0  0  0  0  0
  194.2090  175.5510  143.2830 C   0  0  1  0  0  3  0  0  0  0  0  0
  194.4930  176.2050  141.9320 C   0  0  0  0  0  2  0  0  0  0  0  0
  195.8810  176.6300  141.8450 N   0  0  0  0  0  2  0  0  0  0  0  0
  197.6630  175.5440  143.3320 N   0  0  0  0  0  0  0  0  0  0  0  0
  196.8590  176.0370  142.6590 C   0  0  0  0  0  0  0  0  0  0  0  0
  193.5630  176.5450  144.2290 C   0  0  0  0  0  2  0  0  0  0  0  0
  193.8010  176.6000  146.6950 C   0  0  0  0  0  2  0  0  0  0  0  0
  194.4950  176.8770  145.3730 C   0  0  0  0  0  3  0  0  0  0  0  0
  194.7960  175.6010  146.1320 C   0  0  0  0  0  2  0  0  0  0  0  0
  190.7950  174.5070  145.6660 C   0  0  0  0  0  2  0  0  0  0  0  0
  190.4030  175.8630  145.3220 N   0  0  0  0  0  2  0  0  0  0  0  0
  187.3660  177.0830  146.7140 O   0  0  0  0  0  0  0  0  0  0  0  0
  188.9480  175.9130  145.3080 C   0  0  1  0  0  3  0  0  0  0  0  0
  185.9280  176.4540  143.2940 C   0  0  0  0  0  2  0  0  0  0  0  0
  187.1090  177.3220  145.3560 C   0  0  2  0  0  0  0  0  0  0  0  0
  188.3980  176.1050  146.7260 C   0  0  0  0  0  2  0  0  0  0  0  0
  186.6060  178.8460  143.4540 C   0  0  0  0  0  2  0  0  0  0  0  0
  188.2510  177.0020  143.2050 O   0  0  0  0  0  0  0  0  0  0  0  0
  186.5980  178.7200  145.0060 C   0  0  0  0  0  2  0  0  0  0  0  0
  189.2870  178.2230  144.8590 O   0  0  0  0  0  1  0  0  0  0  0  0
  186.9610  177.4720  142.7980 C   0  0  1  0  0  3  0  0  0  0  0  0
  186.0600  176.3180  144.8220 C   0  0  0  0  0  2  0  0  0  0  0  0
  188.4310  177.1420  144.6140 C   0  0  2  0  0  0  0  0  0  0  0  0
  1 24  1  6  0  0  0
  1  3  1  0  0  0  0
  3 34  1  1  0  0  0
  4  2  2  0  0  0  0
  4  3  1  0  0  0  0
  5  1  1  0  0  0  0
  6  5  1  1  0  0  0
  6  4  1  0  0  0  0
  7 15  1  0  0  0  0
  7 16  1  0  0  0  0
  8 12  2  0  0  0  0
  9 13  1  0  0  0  0
 12 11  1  0  0  0  0
 13 11  1  1  0  0  0
 13  6  1  0  0  0  0
 14  8  1  0  0  0  0
 14  9  2  0  0  0  0
 15 10  1  6  0  0  0
 15 14  1  0  0  0  0
 16  8  1  0  0  0  0
 17  7  1  0  0  0  0
 17 18  1  0  0  0  0
 19 18  1  0  0  0  0
 19 23  1  0  0  0  0
 20 23  2  0  0  0  0
 23 21  1  0  0  0  0
 23 22  1  0  0  0  0
 24 25  1  0  0  0  0
 25 26  1  6  0  0  0
 25 30  1  0  0  0  0
 27 26  1  0  0  0  0
 27 29  1  0  0  0  0
 29 28  3  0  0  0  0
 30 32  1  0  0  0  0
 32 33  1  0  0  0  0
 32 31  1  0  0  0  0
 33 31  1  0  0  0  0
 35 34  1  0  0  0  0
 36 40  1  0  0  0  0
 37 35  1  1  0  0  0
 37 40  1  0  0  0  0
 38 46  1  0  0  0  0
 39 46  1  6  0  0  0
 39 36  1  0  0  0  0
 41 43  1  0  0  0  0
 42 47  1  0  0  0  0
 43 39  1  0  0  0  0
 45 42  1  0  0  0  0
 45 38  1  1  0  0  0
 45 41  1  0  0  0  0
 47 44  1  1  0  0  0
 47 37  1  0  0  0  0
 47 39  1  0  0  0  0
M  END
>  <MODEL>
7

>  <REMARK>
 VINA RESULT:      -5.9      2.531      5.904
  Name = 
  15 active torsions:
  status: ('A' for Active; 'I' for Inactive)
    1  A    between atoms: C_1  and  N_5
    2  A    between atoms: C_1  and  C_10
    3  A    between atoms: N_3  and  C_14
    4  A    between atoms: N_3  and  C_17
    5  A    between atoms: C_4  and  N_7
    6  A    between atoms: N_5  and  C_38
    7  A    between atoms: N_7  and  C_10
    8  A    between atoms: N_8  and  C_22
    9  A    between atoms: C_10  and  C_47
   10  A    between atoms: C_14  and  C_18
   11  A    between atoms: C_22  and  C_45
   12  A    between atoms: O_24  and  C_45
   13  A    between atoms: O_24  and  P_46
   14  A    between atoms: C_33  and  C_36
   15  A    between atoms: C_34  and  C_47
                            x       y       z     vdW  Elec       q    Type
                         _______ _______ _______ _____ _____    ______ ____

>  <TORSDO>
F 15

$$$$
=
 OpenBabel11042415223D

 47 53  0  0  1  0  0  0  0  0999 V2000
  189.9370  172.7230  140.6150 C   0  0  2  0  0  3  0  0  0  0  0  0
  190.1460  173.7480  144.0770 C   0  0  0  0  0  2  0  0  0  0  0  0
  189.6260  173.7880  141.6530 C   0  0  2  0  0  3  0  0  0  0  0  0
  190.2230  173.2090  142.8590 C   0  0  0  0  0  0  0  0  0  0  0  0
  190.4630  171.5580  141.2250 O   0  0  0  0  0  0  0  0  0  0  0  0
  190.7100  171.8370  142.5840 C   0  0  1  0  0  3  0  0  0  0  0  0
  196.3130  173.5970  143.9190 N   0  0  0  0  0  0  0  0  0  0  0  0
  194.6370  172.0070  144.0950 C   0  0  0  0  0  0  0  0  0  0  0  0
  192.9730  172.8820  142.6540 N   0  0  0  0  0  0  0  0  0  0  0  0
  195.6000  174.2130  141.6620 C   0  0  0  0  0  1  0  0  0  0  0  0
  192.4590  171.0280  144.2640 C   0  0  0  0  0  2  0  0  0  0  0  0
  193.8870  171.0940  144.6240 N   0  0  0  0  0  0  0  0  0  0  0  0
  192.1960  171.6480  142.8710 C   0  0  1  0  0  3  0  0  0  0  0  0
  194.1500  172.9640  143.1920 C   0  0  0  0  0  0  0  0  0  0  0  0
  195.1590  174.0520  143.1000 C   0  0  1  0  0  3  0  0  0  0  0  0
  195.9240  172.3780  144.5200 N   0  0  0  0  0  2  0  0  0  0  0  0
  196.4860  174.5580  144.9960 C   0  0  0  0  0  2  0  0  0  0  0  0
  195.4450  175.6500  144.8830 C   0  0  0  0  0  2  0  0  0  0  0  0
  194.9260  175.9500  146.1480 O   0  0  0  0  0  0  0  0  0  0  0  0
  192.4380  176.4530  147.2670 O   0  0  0  0  0  1  0  0  0  0  0  0
  192.6870  176.1960  144.5320 O   0  0  0  0  0  0  0  0  0  0  0  0
  193.0140  174.1610  146.1360 O   0  0  0  0  0  1  0  0  0  0  0  0
  193.2610  175.6470  146.0270 P   0  0  0  0  0  0  0  0  0  0  0  0
  190.8810  173.2500  139.6410 N   0  0  0  0  0  2  0  0  0  0  0  0
  190.9020  172.3630  138.4920 C   0  0  1  0  0  3  0  0  0  0  0  0
  189.4920  172.1410  137.9470 C   0  0  0  0  0  2  0  0  0  0  0  0
  189.0970  173.2340  137.0730 N   0  0  0  0  0  2  0  0  0  0  0  0
  187.4460  175.0160  137.8900 N   0  0  0  0  0  0  0  0  0  0  0  0
  188.1910  174.2090  137.5190 C   0  0  0  0  0  0  0  0  0  0  0  0
  191.7960  172.9610  137.4220 C   0  0  0  0  0  2  0  0  0  0  0  0
  194.0400  173.9160  137.8620 C   0  0  0  0  0  2  0  0  0  0  0  0
  192.5450  174.1600  137.9600 C   0  0  0  0  0  3  0  0  0  0  0  0
  193.3390  174.7780  136.8270 C   0  0  0  0  0  2  0  0  0  0  0  0
  188.1110  173.9170  141.8230 C   0  0  0  0  0  2  0  0  0  0  0  0
  187.6530  175.2300  141.4040 N   0  0  0  0  0  2  0  0  0  0  0  0
  188.2550  178.5180  142.6180 O   0  0  0  0  0  0  0  0  0  0  0  0
  187.8290  176.1400  142.5270 C   0  0  1  0  0  3  0  0  0  0  0  0
  186.4870  177.3430  145.7240 C   0  0  0  0  0  2  0  0  0  0  0  0
  187.1680  178.1680  143.4320 C   0  0  2  0  0  0  0  0  0  0  0  0
  188.7820  177.2810  142.1570 C   0  0  0  0  0  2  0  0  0  0  0  0
  184.8470  178.5130  144.2590 C   0  0  0  0  0  2  0  0  0  0  0  0
  185.6940  176.2320  143.7650 O   0  0  0  0  0  0  0  0  0  0  0  0
  186.0330  179.1900  143.5110 C   0  0  0  0  0  2  0  0  0  0  0  0
  185.8650  177.1700  141.6690 O   0  0  0  0  0  1  0  0  0  0  0  0
  185.2770  177.1150  144.8110 C   0  0  1  0  0  3  0  0  0  0  0  0
  187.6420  177.9160  144.8830 C   0  0  0  0  0  2  0  0  0  0  0  0
  186.5670  176.8920  142.8480 C   0  0  2  0  0  0  0  0  0  0  0  0
  1 24  1  6  0  0  0
  1  5  1  0  0  0  0
  1  3  1  0  0  0  0
  3 34  1  1  0  0  0
  3  4  1  0  0  0  0
  4  2  2  0  0  0  0
  6  5  1  6  0  0  0
  6  4  1  0  0  0  0
  6 13  1  0  0  0  0
  7 16  1  0  0  0  0
  7 17  1  0  0  0  0
  8 16  1  0  0  0  0
  8 12  2  0  0  0  0
  9 13  1  0  0  0  0
  9 14  2  0  0  0  0
 11 12  1  0  0  0  0
 13 11  1  1  0  0  0
 14  8  1  0  0  0  0
 15 10  1  6  0  0  0
 15 14  1  0  0  0  0
 15  7  1  0  0  0  0
 18 17  1  0  0  0  0
 18 19  1  0  0  0  0
 21 23  2  0  0  0  0
 23 22  1  0  0  0  0
 23 19  1  0  0  0  0
 23 20  1  0  0  0  0
 25 30  1  6  0  0  0
 25 24  1  0  0  0  0
 26 25  1  0  0  0  0
 27 29  1  0  0  0  0
 27 26  1  0  0  0  0
 29 28  3  0  0  0  0
 30 32  1  0  0  0  0
 31 32  1  0  0  0  0
 33 31  1  0  0  0  0
 33 32  1  0  0  0  0
 35 34  1  0  0  0  0
 36 39  1  0  0  0  0
 37 35  1  6  0  0  0
 37 47  1  0  0  0  0
 39 43  1  6  0  0  0
 39 46  1  0  0  0  0
 40 37  1  0  0  0  0
 40 36  1  0  0  0  0
 42 45  1  0  0  0  0
 43 41  1  0  0  0  0
 45 41  1  6  0  0  0
 45 38  1  0  0  0  0
 46 38  1  0  0  0  0
 47 44  1  6  0  0  0
 47 39  1  0  0  0  0
 47 42  1  0  0  0  0
M  END
>  <MODEL>
8

>  <REMARK>
 VINA RESULT:      -5.9      2.823      4.241
  Name = 
  15 active torsions:
  status: ('A' for Active; 'I' for Inactive)
    1  A    between atoms: C_1  and  N_5
    2  A    between atoms: C_1  and  C_10
    3  A    between atoms: N_3  and  C_14
    4  A    between atoms: N_3  and  C_17
    5  A    between atoms: C_4  and  N_7
    6  A    between atoms: N_5  and  C_38
    7  A    between atoms: N_7  and  C_10
    8  A    between atoms: N_8  and  C_22
    9  A    between atoms: C_10  and  C_47
   10  A    between atoms: C_14  and  C_18
   11  A    between atoms: C_22  and  C_45
   12  A    between atoms: O_24  and  C_45
   13  A    between atoms: O_24  and  P_46
   14  A    between atoms: C_33  and  C_36
   15  A    between atoms: C_34  and  C_47
                            x       y       z     vdW  Elec       q    Type
                         _______ _______ _______ _____ _____    ______ ____

>  <TORSDO>
F 15

$$$$
=
 OpenBabel11042415223D

 47 53  0  0  1  0  0  0  0  0999 V2000
  190.5350  175.1630  145.2390 C   0  0  2  0  0  3  0  0  0  0  0  0
  191.7690  177.1490  147.9980 C   0  0  0  0  0  2  0  0  0  0  0  0
  190.3210  176.3640  146.1440 C   0  0  2  0  0  3  0  0  0  0  0  0
  191.5260  176.3230  146.9790 C   0  0  0  0  0  0  0  0  0  0  0  0
  191.6420  174.3930  145.6690 O   0  0  0  0  0  0  0  0  0  0  0  0
  192.3090  175.0990  146.6900 C   0  0  1  0  0  3  0  0  0  0  0  0
  197.4530  174.0670  143.7310 N   0  0  0  0  0  0  0  0  0  0  0  0
  195.9160  175.5840  144.5700 C   0  0  0  0  0  0  0  0  0  0  0  0
  194.4320  174.1750  145.7640 N   0  0  0  0  0  0  0  0  0  0  0  0
  197.0580  172.5220  145.5850 C   0  0  0  0  0  1  0  0  0  0  0  0
  193.8330  176.5540  145.2410 C   0  0  0  0  0  2  0  0  0  0  0  0
  195.1750  176.6430  144.6350 N   0  0  0  0  0  0  0  0  0  0  0  0
  193.7410  175.3840  146.2480 C   0  0  1  0  0  3  0  0  0  0  0  0
  195.4970  174.3300  145.0400 C   0  0  0  0  0  0  0  0  0  0  0  0
  196.4090  173.3060  144.4660 C   0  0  1  0  0  3  0  0  0  0  0  0
  197.0810  175.4290  143.8000 N   0  0  0  0  0  2  0  0  0  0  0  0
  197.3680  173.6810  142.3330 C   0  0  0  0  0  2  0  0  0  0  0  0
  195.9450  173.8370  141.8410 C   0  0  0  0  0  2  0  0  0  0  0  0
  195.8970  173.6670  140.4530 O   0  0  0  0  0  0  0  0  0  0  0  0
  194.6730  175.2690  138.5470 O   0  0  0  0  0  0  0  0  0  0  0  0
  195.2870  176.3110  141.0270 O   0  0  0  0  0  1  0  0  0  0  0  0
  197.1480  175.6640  139.3110 O   0  0  0  0  0  1  0  0  0  0  0  0
  195.7910  175.2370  139.8180 P   0  0  0  0  0  0  0  0  0  0  0  0
  190.7380  175.6130  143.8700 N   0  0  0  0  0  2  0  0  0  0  0  0
  189.7960  174.9170  143.0110 C   0  0  1  0  0  3  0  0  0  0  0  0
  188.5070  175.7210  142.8500 C   0  0  0  0  0  2  0  0  0  0  0  0
  187.8490  175.3960  141.5940 N   0  0  0  0  0  2  0  0  0  0  0  0
  187.0660  177.2570  140.0150 N   0  0  0  0  0  0  0  0  0  0  0  0
  187.4210  176.4180  140.7310 C   0  0  0  0  0  0  0  0  0  0  0  0
  190.4430  174.6750  141.6600 C   0  0  0  0  0  2  0  0  0  0  0  0
  190.8920  172.8040  140.0990 C   0  0  0  0  0  2  0  0  0  0  0  0
  190.9330  173.2490  141.5510 C   0  0  0  0  0  3  0  0  0  0  0  0
  192.2040  173.2390  140.7270 C   0  0  0  0  0  2  0  0  0  0  0  0
  189.0750  176.1480  147.0040 C   0  0  0  0  0  2  0  0  0  0  0  0
  188.2360  177.3330  147.0070 N   0  0  0  0  0  2  0  0  0  0  0  0
  184.7090  177.0020  146.6860 O   0  0  0  0  0  0  0  0  0  0  0  0
  187.0730  177.0540  146.1770 C   0  0  1  0  0  3  0  0  0  0  0  0
  185.2920  177.8080  143.0580 C   0  0  0  0  0  2  0  0  0  0  0  0
  184.9680  177.8050  145.5660 C   0  0  2  0  0  0  0  0  0  0  0  0
  185.9590  176.4030  147.0040 C   0  0  0  0  0  2  0  0  0  0  0  0
  184.6790  179.9030  144.2590 C   0  0  0  0  0  2  0  0  0  0  0  0
  186.9120  178.8380  144.4780 O   0  0  0  0  0  0  0  0  0  0  0  0
  184.0800  179.0410  145.4080 C   0  0  0  0  0  2  0  0  0  0  0  0
  186.4850  179.2990  146.6930 O   0  0  0  0  0  1  0  0  0  0  0  0
  185.8540  179.1410  143.5630 C   0  0  1  0  0  3  0  0  0  0  0  0
  184.8180  176.9810  144.2660 C   0  0  0  0  0  2  0  0  0  0  0  0
  186.4010  178.3130  145.7030 C   0  0  2  0  0  0  0  0  0  0  0  0
  1 24  1  6  0  0  0
  1  5  1  0  0  0  0
  1  3  1  0  0  0  0
  3  4  1  0  0  0  0
  3 34  1  1  0  0  0
  4  2  2  0  0  0  0
  6  5  1  6  0  0  0
  6  4  1  0  0  0  0
  7 16  1  0  0  0  0
  7 15  1  0  0  0  0
  8 12  2  0  0  0  0
  8 14  1  0  0  0  0
  9 13  1  0  0  0  0
 12 11  1  0  0  0  0
 13 11  1  6  0  0  0
 13  6  1  0  0  0  0
 14  9  2  0  0  0  0
 15 14  1  0  0  0  0
 15 10  1  1  0  0  0
 16  8  1  0  0  0  0
 17  7  1  0  0  0  0
 18 17  1  0  0  0  0
 19 18  1  0  0  0  0
 20 23  2  0  0  0  0
 22 23  1  0  0  0  0
 23 19  1  0  0  0  0
 23 21  1  0  0  0  0
 25 30  1  6  0  0  0
 25 24  1  0  0  0  0
 26 25  1  0  0  0  0
 27 26  1  0  0  0  0
 28 29  3  0  0  0  0
 29 27  1  0  0  0  0
 31 33  1  0  0  0  0
 31 32  1  0  0  0  0
 32 30  1  0  0  0  0
 33 32  1  0  0  0  0
 34 35  1  0  0  0  0
 36 40  1  0  0  0  0
 37 40  1  0  0  0  0
 37 35  1  1  0  0  0
 38 46  1  0  0  0  0
 39 46  1  6  0  0  0
 39 47  1  0  0  0  0
 39 36  1  0  0  0  0
 41 43  1  0  0  0  0
 42 47  1  0  0  0  0
 43 39  1  0  0  0  0
 45 38  1  1  0  0  0
 45 41  1  0  0  0  0
 45 42  1  0  0  0  0
 47 37  1  0  0  0  0
 47 44  1  1  0  0  0
M  END
>  <MODEL>
9

>  <REMARK>
 VINA RESULT:      -5.9      1.962      3.103
  Name = 
  15 active torsions:
  status: ('A' for Active; 'I' for Inactive)
    1  A    between atoms: C_1  and  N_5
    2  A    between atoms: C_1  and  C_10
    3  A    between atoms: N_3  and  C_14
    4  A    between atoms: N_3  and  C_17
    5  A    between atoms: C_4  and  N_7
    6  A    between atoms: N_5  and  C_38
    7  A    between atoms: N_7  and  C_10
    8  A    between atoms: N_8  and  C_22
    9  A    between atoms: C_10  and  C_47
   10  A    between atoms: C_14  and  C_18
   11  A    between atoms: C_22  and  C_45
   12  A    between atoms: O_24  and  C_45
   13  A    between atoms: O_24  and  P_46
   14  A    between atoms: C_33  and  C_36
   15  A    between atoms: C_34  and  C_47
                            x       y       z     vdW  Elec       q    Type
                         _______ _______ _______ _____ _____    ______ ____

>  <TORSDO>
F 15

$$$$
