=
 OpenBabel11042413373D

 42 47  0  0  1  0  0  0  0  0999 V2000
  189.0210  173.7430  142.1280 C   0  0  0  0  0  0  0  0  0  0  0  0
  191.3670  175.1000  143.0210 C   0  0  0  0  0  0  0  0  0  0  0  0
  191.3810  173.6720  142.9880 C   0  0  0  0  0  0  0  0  0  0  0  0
  187.7720  173.0480  141.6740 C   0  0  0  0  0  1  0  0  0  0  0  0
  189.0720  175.1050  142.1810 C   0  0  0  0  0  0  0  0  0  0  0  0
  193.3770  174.4100  143.7110 N   0  0  0  0  0  0  0  0  0  0  0  0
  190.2080  172.9280  142.5290 C   0  0  2  0  0  3  0  0  0  0  0  0
  192.5730  173.2640  143.3920 C   0  0  0  0  0  3  0  0  0  0  0  0
  190.2340  171.3150  142.4140 S   0  0  0  0  0  0  0  0  0  0  0  0
  192.6840  175.4870  143.4970 C   0  0  0  0  0  3  0  0  0  0  0  0
  190.3060  175.8220  142.6500 C   0  0  0  0  0  0  0  0  0  0  0  0
  190.7840  169.8220  140.1640 N   0  0  0  0  0  0  0  0  0  0  0  0
  190.7220  172.0340  139.7530 C   0  0  0  0  0  3  0  0  0  0  0  0
  190.9860  171.3050  138.6110 C   0  0  0  0  0  0  0  0  0  0  0  0
  191.0180  169.9840  138.8740 N   0  0  0  0  0  0  0  0  0  0  0  0
  190.6080  171.0400  140.7040 C   0  0  1  0  0  3  0  0  0  0  0  0
  191.1520  172.9700  134.7860 N   0  0  0  0  0  2  0  0  0  0  0  0
  190.1820  171.8870  134.9220 C   0  0  0  0  0  2  0  0  0  0  0  0
  190.8930  173.9740  135.8230 C   0  0  0  0  0  2  0  0  0  0  0  0
  190.7660  173.3630  137.2320 C   0  0  0  0  0  2  0  0  0  0  0  0
  190.4560  171.0730  136.1920 C   0  0  0  0  0  2  0  0  0  0  0  0
  191.1920  171.8940  137.2560 C   0  0  0  0  0  3  0  0  0  0  0  0
  190.3670  177.3170  142.6950 C   0  0  0  0  0  2  0  0  0  0  0  0
  190.5350  177.8160  144.1230 C   0  0  0  0  0  2  0  0  0  0  0  0
  189.2970  177.6350  144.8780 N   0  0  0  0  0  2  0  0  0  0  0  0
  190.9630  176.7220  146.3690 N   0  0  0  0  0  2  0  0  0  0  0  0
  190.0200  174.5230  146.3410 C   0  0  0  0  0  2  0  0  0  0  0  0
  188.8980  175.4860  146.0500 C   0  0  0  0  0  2  0  0  0  0  0  0
  191.1320  175.3770  146.9000 C   0  0  0  0  0  2  0  0  0  0  0  0
  189.5360  176.8660  146.1040 C   0  0  2  0  0  3  0  0  0  0  0  0
  187.8710  175.9230  141.8070 C   0  0  0  0  0  2  0  0  0  0  0  0
  186.8840  175.8620  142.8730 N   0  0  0  0  0  2  0  0  0  0  0  0
  186.1370  177.4220  142.9980 S   0  0  0  0  0  0  0  0  0  0  0  0
  187.0560  178.4610  142.4190 O   0  0  0  0  0  0  0  0  0  0  0  0
  184.8520  177.4080  142.2210 O   0  0  0  0  0  0  0  0  0  0  0  0
  185.2040  179.3650  146.4490 C   0  0  0  0  0  3  0  0  0  0  0  0
  185.4670  180.1890  144.1740 N   0  0  0  0  0  1  0  0  0  0  0  0
  185.7870  177.7970  144.6860 C   0  0  0  0  0  0  0  0  0  0  0  0
  185.4910  179.1090  145.1030 C   0  0  0  0  0  0  0  0  0  0  0  0
  185.7730  176.7590  145.6250 C   0  0  0  0  0  3  0  0  0  0  0  0
  185.2050  178.3240  147.3800 C   0  0  0  0  0  3  0  0  0  0  0  0
  185.4880  177.0200  146.9680 C   0  0  0  0  0  3  0  0  0  0  0  0
  1  5  2  0  0  0  0
  1  7  1  0  0  0  0
  2 10  1  0  0  0  0
  3  2  1  0  0  0  0
  3  8  2  0  0  0  0
  4  1  1  0  0  0  0
  5 11  1  0  0  0  0
  7  9  1  6  0  0  0
  7  3  1  0  0  0  0
  8  6  1  0  0  0  0
 10  6  2  0  0  0  0
 11 23  1  0  0  0  0
 11  2  2  0  0  0  0
 12 16  1  0  0  0  0
 13 16  1  0  0  0  0
 14 15  1  0  0  0  0
 14 13  2  0  0  0  0
 15 12  2  0  0  0  0
 16  9  1  6  0  0  0
 17 18  1  0  0  0  0
 17 19  1  0  0  0  0
 18 21  1  0  0  0  0
 19 20  1  0  0  0  0
 20 22  1  0  0  0  0
 21 22  1  0  0  0  0
 22 14  1  0  0  0  0
 23 24  1  0  0  0  0
 24 25  1  0  0  0  0
 26 29  1  0  0  0  0
 27 29  1  0  0  0  0
 28 30  1  0  0  0  0
 28 27  1  0  0  0  0
 30 25  1  6  0  0  0
 30 26  1  0  0  0  0
 31  5  1  0  0  0  0
 31 32  1  0  0  0  0
 32 33  1  0  0  0  0
 33 38  1  0  0  0  0
 34 33  2  0  0  0  0
 35 33  2  0  0  0  0
 36 41  1  0  0  0  0
 37 39  1  0  0  0  0
 38 39  1  0  0  0  0
 38 40  2  0  0  0  0
 39 36  2  0  0  0  0
 40 42  1  0  0  0  0
 42 41  2  0  0  0  0
M  END
>  <MODEL>
1

>  <REMARK>
 VINA RESULT:      -7.6      0.000      0.000
  Name = 
  10 active torsions:
  status: ('A' for Active; 'I' for Inactive)
    1  A    between atoms: C_1  and  C_10
    2  A    between atoms: C_1  and  N_16
    3  A    between atoms: S_8  and  C_11
    4  A    between atoms: S_8  and  N_30
    5  A    between atoms: C_10  and  C_37
    6  A    between atoms: N_16  and  C_33
    7  A    between atoms: C_19  and  C_36
    8  A    between atoms: C_22  and  C_23
    9  A    between atoms: C_22  and  N_30
   10  A    between atoms: S_34  and  C_38
                            x       y       z     vdW  Elec       q    Type
                         _______ _______ _______ _____ _____    ______ ____

>  <TORSDO>
F 10

$$$$
=
 OpenBabel11042413373D

 42 47  0  0  1  0  0  0  0  0999 V2000
  190.8800  173.4600  142.6870 C   0  0  0  0  0  0  0  0  0  0  0  0
  192.0160  173.6450  140.0760 C   0  0  0  0  0  0  0  0  0  0  0  0
  190.6100  173.4180  140.1890 C   0  0  1  0  0  3  0  0  0  0  0  0
  190.3060  173.3470  144.0680 C   0  0  0  0  0  1  0  0  0  0  0  0
  192.2150  173.6790  142.5120 C   0  0  0  0  0  0  0  0  0  0  0  0
  191.1630  173.5330  138.0140 N   0  0  0  0  0  0  0  0  0  0  0  0
  189.9770  173.3240  141.5050 C   0  0  0  0  0  0  0  0  0  0  0  0
  190.1050  173.3560  138.9680 C   0  0  0  0  0  3  0  0  0  0  0  0
  188.3760  173.1430  141.6500 S   0  0  0  0  0  0  0  0  0  0  0  0
  192.2830  173.7040  138.6490 C   0  0  0  0  0  3  0  0  0  0  0  0
  192.8150  173.7780  141.1380 C   0  0  0  0  0  0  0  0  0  0  0  0
  188.2440  175.8600  141.2120 N   0  0  0  0  0  0  0  0  0  0  0  0
  186.8380  175.1650  142.8260 C   0  0  0  0  0  3  0  0  0  0  0  0
  186.7470  176.5260  142.6150 C   0  0  0  0  0  0  0  0  0  0  0  0
  187.5930  176.9250  141.6450 N   0  0  0  0  0  0  0  0  0  0  0  0
  187.8050  174.7990  141.9110 C   0  0  1  0  0  3  0  0  0  0  0  0
  184.4490  179.1110  144.9520 N   0  0  0  0  0  2  0  0  0  0  0  0
  185.1080  178.0510  145.7100 C   0  0  0  0  0  2  0  0  0  0  0  0
  185.4540  179.8220  144.1530 C   0  0  0  0  0  2  0  0  0  0  0  0
  186.3500  178.8730  143.3350 C   0  0  0  0  0  2  0  0  0  0  0  0
  185.5820  176.9330  144.7740 C   0  0  0  0  0  2  0  0  0  0  0  0
  185.8220  177.4380  143.3470 C   0  0  0  0  0  3  0  0  0  0  0  0
  194.2780  174.0320  140.9450 C   0  0  0  0  0  2  0  0  0  0  0  0
  194.5410  175.4940  140.6120 C   0  0  0  0  0  2  0  0  0  0  0  0
  195.8120  175.6390  139.9050 N   0  0  0  0  0  2  0  0  0  0  0  0
  197.6250  174.8350  141.2830 N   0  0  0  0  0  2  0  0  0  0  0  0
  196.8780  176.0030  143.2330 C   0  0  0  0  0  2  0  0  0  0  0  0
  196.3690  176.7700  142.0400 C   0  0  0  0  0  2  0  0  0  0  0  0
  197.9410  175.0830  142.6820 C   0  0  0  0  0  2  0  0  0  0  0  0
  196.8890  176.0090  140.8290 C   0  0  2  0  0  3  0  0  0  0  0  0
  193.1280  173.7850  143.6980 C   0  0  0  0  0  2  0  0  0  0  0  0
  193.4590  175.1800  143.9400 N   0  0  0  0  0  2  0  0  0  0  0  0
  193.0310  175.5520  145.5790 S   0  0  0  0  0  0  0  0  0  0  0  0
  192.9990  174.2830  146.3840 O   0  0  0  0  0  0  0  0  0  0  0  0
  194.0670  176.4770  146.1520 O   0  0  0  0  0  0  0  0  0  0  0  0
  189.4810  177.0900  146.8380 C   0  0  0  0  0  3  0  0  0  0  0  0
  191.2230  175.8960  148.0480 N   0  0  0  0  0  1  0  0  0  0  0  0
  191.4560  176.3450  145.6330 C   0  0  0  0  0  0  0  0  0  0  0  0
  190.7210  176.4410  146.8310 C   0  0  0  0  0  0  0  0  0  0  0  0
  190.9420  176.9170  144.4640 C   0  0  0  0  0  3  0  0  0  0  0  0
  188.9720  177.6480  145.6630 C   0  0  0  0  0  3  0  0  0  0  0  0
  189.7020  177.5630  144.4760 C   0  0  0  0  0  3  0  0  0  0  0  0
  1  4  1  0  0  0  0
  2  3  1  0  0  0  0
  2 11  1  0  0  0  0
  3  8  1  6  0  0  0
  3  7  1  0  0  0  0
  5  1  1  0  0  0  0
  5 31  1  0  0  0  0
  6 10  1  0  0  0  0
  6  8  2  0  0  0  0
  7  9  1  0  0  0  0
  7  1  2  0  0  0  0
 10  2  2  0  0  0  0
 11  5  2  0  0  0  0
 12 15  2  0  0  0  0
 12 16  1  0  0  0  0
 14 13  2  0  0  0  0
 14 22  1  0  0  0  0
 15 14  1  0  0  0  0
 16  9  1  6  0  0  0
 16 13  1  0  0  0  0
 17 18  1  0  0  0  0
 19 17  1  0  0  0  0
 20 22  1  0  0  0  0
 20 19  1  0  0  0  0
 21 18  1  0  0  0  0
 22 21  1  0  0  0  0
 23 11  1  0  0  0  0
 24 23  1  0  0  0  0
 25 24  1  0  0  0  0
 26 29  1  0  0  0  0
 28 27  1  0  0  0  0
 29 27  1  0  0  0  0
 30 25  1  6  0  0  0
 30 26  1  0  0  0  0
 30 28  1  0  0  0  0
 31 32  1  0  0  0  0
 32 33  1  0  0  0  0
 33 38  1  0  0  0  0
 33 35  2  0  0  0  0
 33 34  2  0  0  0  0
 38 39  2  0  0  0  0
 39 36  1  0  0  0  0
 39 37  1  0  0  0  0
 40 42  2  0  0  0  0
 40 38  1  0  0  0  0
 41 36  2  0  0  0  0
 42 41  1  0  0  0  0
M  END
>  <MODEL>
2

>  <REMARK>
 VINA RESULT:      -7.5      3.116      7.292
  Name = 
  10 active torsions:
  status: ('A' for Active; 'I' for Inactive)
    1  A    between atoms: C_1  and  C_10
    2  A    between atoms: C_1  and  N_16
    3  A    between atoms: S_8  and  C_11
    4  A    between atoms: S_8  and  N_30
    5  A    between atoms: C_10  and  C_37
    6  A    between atoms: N_16  and  C_33
    7  A    between atoms: C_19  and  C_36
    8  A    between atoms: C_22  and  C_23
    9  A    between atoms: C_22  and  N_30
   10  A    between atoms: S_34  and  C_38
                            x       y       z     vdW  Elec       q    Type
                         _______ _______ _______ _____ _____    ______ ____

>  <TORSDO>
F 10

$$$$
=
 OpenBabel11042413373D

 42 47  0  0  1  0  0  0  0  0999 V2000
  190.8420  173.7020  143.0430 C   0  0  0  0  0  0  0  0  0  0  0  0
  192.1960  173.8470  140.5360 C   0  0  0  0  0  0  0  0  0  0  0  0
  190.7970  173.5600  140.5350 C   0  0  1  0  0  3  0  0  0  0  0  0
  190.1530  173.6110  144.3720 C   0  0  0  0  0  1  0  0  0  0  0  0
  192.1780  173.9750  142.9760 C   0  0  0  0  0  0  0  0  0  0  0  0
  191.5350  173.6250  138.4130 N   0  0  0  0  0  0  0  0  0  0  0  0
  190.0530  173.4840  141.7930 C   0  0  0  0  0  0  0  0  0  0  0  0
  190.4040  173.4330  139.2780 C   0  0  0  0  0  3  0  0  0  0  0  0
  188.4550  173.2360  141.8050 S   0  0  0  0  0  0  0  0  0  0  0  0
  192.5850  173.8680  139.1360 C   0  0  0  0  0  3  0  0  0  0  0  0
  192.8920  174.0520  141.6570 C   0  0  0  0  0  0  0  0  0  0  0  0
  188.1220  175.8870  141.1320 N   0  0  0  0  0  0  0  0  0  0  0  0
  186.8610  175.2660  142.8900 C   0  0  0  0  0  3  0  0  0  0  0  0
  186.6700  176.5930  142.5620 C   0  0  0  0  0  0  0  0  0  0  0  0
  187.4300  176.9480  141.5080 N   0  0  0  0  0  0  0  0  0  0  0  0
  187.7950  174.8730  141.9520 C   0  0  1  0  0  3  0  0  0  0  0  0
  184.3290  179.2010  144.8310 N   0  0  0  0  0  2  0  0  0  0  0  0
  184.9570  178.1360  145.6090 C   0  0  0  0  0  2  0  0  0  0  0  0
  185.3620  179.9020  144.0610 C   0  0  0  0  0  2  0  0  0  0  0  0
  186.2730  178.9440  143.2690 C   0  0  0  0  0  2  0  0  0  0  0  0
  185.4480  177.0130  144.6880 C   0  0  0  0  0  2  0  0  0  0  0  0
  185.7320  177.5140  143.2670 C   0  0  0  0  0  3  0  0  0  0  0  0
  194.3540  174.3650  141.5830 C   0  0  0  0  0  2  0  0  0  0  0  0
  195.1940  173.1130  141.7960 C   0  0  0  0  0  2  0  0  0  0  0  0
  196.5740  173.4700  142.1210 N   0  0  0  0  0  2  0  0  0  0  0  0
  195.9050  172.0940  143.9890 N   0  0  0  0  0  2  0  0  0  0  0  0
  196.5610  173.7120  145.6260 C   0  0  0  0  0  2  0  0  0  0  0  0
  197.4090  173.9530  144.4040 C   0  0  0  0  0  2  0  0  0  0  0  0
  195.9670  172.3380  145.4220 C   0  0  0  0  0  2  0  0  0  0  0  0
  196.9790  172.8900  143.4050 C   0  0  2  0  0  3  0  0  0  0  0  0
  192.9760  174.1630  144.2320 C   0  0  0  0  0  2  0  0  0  0  0  0
  193.7450  175.3940  144.1460 N   0  0  0  0  0  2  0  0  0  0  0  0
  193.3480  176.3680  145.5230 S   0  0  0  0  0  0  0  0  0  0  0  0
  193.6840  175.6150  146.7790 O   0  0  0  0  0  0  0  0  0  0  0  0
  194.1590  177.6320  145.4720 O   0  0  0  0  0  0  0  0  0  0  0  0
  189.6580  177.6460  144.3840 C   0  0  0  0  0  3  0  0  0  0  0  0
  191.7730  177.6010  143.1810 N   0  0  0  0  0  1  0  0  0  0  0  0
  191.6340  176.7830  145.5040 C   0  0  0  0  0  0  0  0  0  0  0  0
  191.0240  177.3430  144.3650 C   0  0  0  0  0  0  0  0  0  0  0  0
  190.8580  176.5200  146.6390 C   0  0  0  0  0  3  0  0  0  0  0  0
  188.8950  177.3900  145.5260 C   0  0  0  0  0  3  0  0  0  0  0  0
  189.4940  176.8250  146.6530 C   0  0  0  0  0  3  0  0  0  0  0  0
  1  4  1  0  0  0  0
  2 11  1  0  0  0  0
  3  8  1  6  0  0  0
  3  2  1  0  0  0  0
  3  7  1  0  0  0  0
  5  1  1  0  0  0  0
  5 31  1  0  0  0  0
  6 10  1  0  0  0  0
  6  8  2  0  0  0  0
  7  9  1  0  0  0  0
  7  1  2  0  0  0  0
 10  2  2  0  0  0  0
 11  5  2  0  0  0  0
 12 15  2  0  0  0  0
 12 16  1  0  0  0  0
 14 13  2  0  0  0  0
 14 22  1  0  0  0  0
 15 14  1  0  0  0  0
 16  9  1  6  0  0  0
 16 13  1  0  0  0  0
 17 18  1  0  0  0  0
 19 17  1  0  0  0  0
 20 19  1  0  0  0  0
 21 18  1  0  0  0  0
 22 20  1  0  0  0  0
 22 21  1  0  0  0  0
 23 11  1  0  0  0  0
 23 24  1  0  0  0  0
 24 25  1  0  0  0  0
 26 29  1  0  0  0  0
 28 27  1  0  0  0  0
 29 27  1  0  0  0  0
 30 25  1  6  0  0  0
 30 26  1  0  0  0  0
 30 28  1  0  0  0  0
 32 31  1  0  0  0  0
 32 33  1  0  0  0  0
 33 34  2  0  0  0  0
 35 33  2  0  0  0  0
 36 41  1  0  0  0  0
 37 39  1  0  0  0  0
 38 33  1  0  0  0  0
 38 40  2  0  0  0  0
 39 36  2  0  0  0  0
 39 38  1  0  0  0  0
 40 42  1  0  0  0  0
 41 42  2  0  0  0  0
M  END
>  <MODEL>
3

>  <REMARK>
 VINA RESULT:      -7.5      3.072      7.151
  Name = 
  10 active torsions:
  status: ('A' for Active; 'I' for Inactive)
    1  A    between atoms: C_1  and  C_10
    2  A    between atoms: C_1  and  N_16
    3  A    between atoms: S_8  and  C_11
    4  A    between atoms: S_8  and  N_30
    5  A    between atoms: C_10  and  C_37
    6  A    between atoms: N_16  and  C_33
    7  A    between atoms: C_19  and  C_36
    8  A    between atoms: C_22  and  C_23
    9  A    between atoms: C_22  and  N_30
   10  A    between atoms: S_34  and  C_38
                            x       y       z     vdW  Elec       q    Type
                         _______ _______ _______ _____ _____    ______ ____

>  <TORSDO>
F 10

$$$$
=
 OpenBabel11042413373D

 42 47  0  0  1  0  0  0  0  0999 V2000
  190.7970  173.6900  142.8880 C   0  0  0  0  0  0  0  0  0  0  0  0
  192.0110  173.7930  140.3080 C   0  0  0  0  0  0  0  0  0  0  0  0
  190.6090  173.5300  140.3880 C   0  0  1  0  0  3  0  0  0  0  0  0
  190.1830  173.6220  144.2550 C   0  0  0  0  0  1  0  0  0  0  0  0
  192.1310  173.9390  142.7440 C   0  0  0  0  0  0  0  0  0  0  0  0
  191.2280  173.5650  138.2280 N   0  0  0  0  0  0  0  0  0  0  0  0
  189.9360  173.4760  141.6860 C   0  0  0  0  0  0  0  0  0  0  0  0
  190.1450  173.4000  139.1550 C   0  0  0  0  0  3  0  0  0  0  0  0
  188.3370  173.2560  141.7890 S   0  0  0  0  0  0  0  0  0  0  0  0
  192.3220  173.7970  138.8890 C   0  0  0  0  0  3  0  0  0  0  0  0
  192.7720  173.9940  141.3870 C   0  0  0  0  0  0  0  0  0  0  0  0
  188.0650  175.9230  141.1550 N   0  0  0  0  0  0  0  0  0  0  0  0
  186.7870  175.3050  142.9010 C   0  0  0  0  0  3  0  0  0  0  0  0
  186.6260  176.6410  142.5920 C   0  0  0  0  0  0  0  0  0  0  0  0
  187.3960  176.9930  141.5450 N   0  0  0  0  0  0  0  0  0  0  0  0
  187.7140  174.9050  141.9590 C   0  0  1  0  0  3  0  0  0  0  0  0
  184.3410  179.2710  144.8910 N   0  0  0  0  0  2  0  0  0  0  0  0
  184.9540  178.1890  145.6580 C   0  0  0  0  0  2  0  0  0  0  0  0
  185.3830  179.9600  144.1220 C   0  0  0  0  0  2  0  0  0  0  0  0
  186.2730  178.9930  143.3180 C   0  0  0  0  0  2  0  0  0  0  0  0
  185.4210  177.0660  144.7260 C   0  0  0  0  0  2  0  0  0  0  0  0
  185.7080  177.5720  143.3080 C   0  0  0  0  0  3  0  0  0  0  0  0
  194.2330  174.2820  141.2280 C   0  0  0  0  0  2  0  0  0  0  0  0
  194.9910  173.0370  140.7860 C   0  0  0  0  0  2  0  0  0  0  0  0
  195.1670  172.1190  141.9090 N   0  0  0  0  0  2  0  0  0  0  0  0
  194.0050  170.7680  140.2790 N   0  0  0  0  0  2  0  0  0  0  0  0
  192.1780  170.2790  141.7450 C   0  0  0  0  0  2  0  0  0  0  0  0
  193.3780  170.5540  142.6140 C   0  0  0  0  0  2  0  0  0  0  0  0
  192.7420  170.0500  140.3630 C   0  0  0  0  0  2  0  0  0  0  0  0
  194.5160  170.8320  141.6440 C   0  0  2  0  0  3  0  0  0  0  0  0
  193.0020  174.1240  143.9520 C   0  0  0  0  0  2  0  0  0  0  0  0
  193.6540  175.4220  143.8950 N   0  0  0  0  0  2  0  0  0  0  0  0
  193.3050  176.2600  145.3710 S   0  0  0  0  0  0  0  0  0  0  0  0
  193.6260  175.3670  146.5370 O   0  0  0  0  0  0  0  0  0  0  0  0
  194.1600  177.4930  145.4420 O   0  0  0  0  0  0  0  0  0  0  0  0
  189.6270  177.6920  144.3860 C   0  0  0  0  0  3  0  0  0  0  0  0
  191.7010  177.6090  143.1150 N   0  0  0  0  0  1  0  0  0  0  0  0
  191.6060  176.7320  145.4190 C   0  0  0  0  0  0  0  0  0  0  0  0
  190.9810  177.3440  144.3160 C   0  0  0  0  0  0  0  0  0  0  0  0
  190.8570  176.4640  146.5710 C   0  0  0  0  0  3  0  0  0  0  0  0
  188.8920  177.4310  145.5450 C   0  0  0  0  0  3  0  0  0  0  0  0
  189.5060  176.8150  146.6370 C   0  0  0  0  0  3  0  0  0  0  0  0
  1  4  1  0  0  0  0
  2  3  1  0  0  0  0
  2 11  1  0  0  0  0
  3  8  1  6  0  0  0
  3  7  1  0  0  0  0
  5  1  1  0  0  0  0
  5 31  1  0  0  0  0
  6 10  1  0  0  0  0
  6  8  2  0  0  0  0
  7  9  1  0  0  0  0
  7  1  2  0  0  0  0
 10  2  2  0  0  0  0
 11  5  2  0  0  0  0
 12 15  2  0  0  0  0
 12 16  1  0  0  0  0
 14 13  2  0  0  0  0
 14 22  1  0  0  0  0
 15 14  1  0  0  0  0
 16  9  1  6  0  0  0
 16 13  1  0  0  0  0
 17 18  1  0  0  0  0
 19 17  1  0  0  0  0
 20 19  1  0  0  0  0
 21 18  1  0  0  0  0
 22 20  1  0  0  0  0
 22 21  1  0  0  0  0
 23 11  1  0  0  0  0
 24 23  1  0  0  0  0
 24 25  1  0  0  0  0
 26 29  1  0  0  0  0
 26 30  1  0  0  0  0
 27 28  1  0  0  0  0
 29 27  1  0  0  0  0
 30 25  1  1  0  0  0
 30 28  1  0  0  0  0
 32 31  1  0  0  0  0
 32 33  1  0  0  0  0
 33 38  1  0  0  0  0
 33 35  2  0  0  0  0
 33 34  2  0  0  0  0
 36 41  1  0  0  0  0
 37 39  1  0  0  0  0
 38 40  2  0  0  0  0
 39 36  2  0  0  0  0
 39 38  1  0  0  0  0
 40 42  1  0  0  0  0
 41 42  2  0  0  0  0
M  END
>  <MODEL>
4

>  <REMARK>
 VINA RESULT:      -7.4      2.943      7.262
  Name = 
  10 active torsions:
  status: ('A' for Active; 'I' for Inactive)
    1  A    between atoms: C_1  and  C_10
    2  A    between atoms: C_1  and  N_16
    3  A    between atoms: S_8  and  C_11
    4  A    between atoms: S_8  and  N_30
    5  A    between atoms: C_10  and  C_37
    6  A    between atoms: N_16  and  C_33
    7  A    between atoms: C_19  and  C_36
    8  A    between atoms: C_22  and  C_23
    9  A    between atoms: C_22  and  N_30
   10  A    between atoms: S_34  and  C_38
                            x       y       z     vdW  Elec       q    Type
                         _______ _______ _______ _____ _____    ______ ____

>  <TORSDO>
F 10

$$$$
=
 OpenBabel11042413373D

 42 47  0  0  1  0  0  0  0  0999 V2000
  188.8030  174.3760  141.0900 C   0  0  0  0  0  0  0  0  0  0  0  0
  189.9200  173.6380  143.6100 C   0  0  0  0  0  0  0  0  0  0  0  0
  190.1600  172.7890  142.4870 C   0  0  0  0  0  0  0  0  0  0  0  0
  188.1900  174.7720  139.7800 C   0  0  0  0  0  1  0  0  0  0  0  0
  188.6120  175.1460  142.2010 C   0  0  0  0  0  0  0  0  0  0  0  0
  191.1950  171.9330  144.2890 N   0  0  0  0  0  0  0  0  0  0  0  0
  189.6180  173.1270  141.1710 C   0  0  0  0  0  0  0  0  0  0  0  0
  190.9190  171.7820  142.8890 C   0  0  0  0  0  3  0  0  0  0  0  0
  189.9440  172.2160  139.8740 S   0  0  0  0  0  0  0  0  0  0  0  0
  190.6180  173.0140  144.7210 C   0  0  0  0  0  2  0  0  0  0  0  0
  189.2000  174.7600  143.5280 C   0  0  0  0  0  0  0  0  0  0  0  0
  191.2600  173.5790  137.8740 N   0  0  0  0  0  0  0  0  0  0  0  0
  192.5120  173.3200  139.7250 C   0  0  0  0  0  3  0  0  0  0  0  0
  193.1850  174.0160  138.7410 C   0  0  0  0  0  0  0  0  0  0  0  0
  192.4210  174.1630  137.6420 N   0  0  0  0  0  0  0  0  0  0  0  0
  191.3000  173.0670  139.1160 C   0  0  1  0  0  3  0  0  0  0  0  0
  197.0550  175.3800  139.5110 N   0  0  0  0  0  2  0  0  0  0  0  0
  196.0980  175.6740  140.5740 C   0  0  0  0  0  2  0  0  0  0  0  0
  197.0160  173.9430  139.2180 C   0  0  0  0  0  2  0  0  0  0  0  0
  195.5850  173.4150  138.9950 C   0  0  0  0  0  2  0  0  0  0  0  0
  194.6610  175.5190  140.0640 C   0  0  0  0  0  2  0  0  0  0  0  0
  194.5700  174.5530  138.8780 C   0  0  0  0  0  3  0  0  0  0  0  0
  189.0030  175.6120  144.7430 C   0  0  0  0  0  2  0  0  0  0  0  0
  190.1060  176.6540  144.8660 C   0  0  0  0  0  2  0  0  0  0  0  0
  190.9140  176.4070  146.0580 N   0  0  0  0  0  2  0  0  0  0  0  0
  192.5670  176.2130  144.3080 N   0  0  0  0  0  2  0  0  0  0  0  0
  193.8380  174.5490  145.4680 C   0  0  0  0  0  2  0  0  0  0  0  0
  193.1150  175.3580  146.5130 C   0  0  0  0  0  2  0  0  0  0  0  0
  193.7540  175.3780  144.2070 C   0  0  0  0  0  2  0  0  0  0  0  0
  192.3450  176.4150  145.7350 C   0  0  2  0  0  3  0  0  0  0  0  0
  187.7680  176.3850  142.1280 C   0  0  0  0  0  2  0  0  0  0  0  0
  186.4450  176.1100  142.6630 N   0  0  0  0  0  2  0  0  0  0  0  0
  185.7190  177.6240  143.0930 S   0  0  0  0  0  0  0  0  0  0  0  0
  186.4600  178.7420  142.4150 O   0  0  0  0  0  0  0  0  0  0  0  0
  184.2890  177.6250  142.6310 O   0  0  0  0  0  0  0  0  0  0  0  0
  185.5670  179.2380  146.8250 C   0  0  0  0  0  3  0  0  0  0  0  0
  185.2800  180.2560  144.6330 N   0  0  0  0  0  1  0  0  0  0  0  0
  185.7590  177.8450  144.8430 C   0  0  0  0  0  0  0  0  0  0  0  0
  185.5400  179.1050  145.4320 C   0  0  0  0  0  0  0  0  0  0  0  0
  185.9840  176.7330  145.6640 C   0  0  0  0  0  3  0  0  0  0  0  0
  185.8030  178.1240  147.6340 C   0  0  0  0  0  3  0  0  0  0  0  0
  186.0100  176.8710  147.0540 C   0  0  0  0  0  3  0  0  0  0  0  0
  1  7  2  0  0  0  0
  1  5  1  0  0  0  0
  2 10  1  0  0  0  0
  3  8  1  0  0  0  0
  3  2  2  0  0  0  0
  4  1  1  0  0  0  0
  5 11  2  0  0  0  0
  6 10  1  0  0  0  0
  7  3  1  0  0  0  0
  8  6  2  0  0  0  0
  9  7  1  0  0  0  0
 11  2  1  0  0  0  0
 11 23  1  0  0  0  0
 12 16  1  0  0  0  0
 14 22  1  0  0  0  0
 14 13  2  0  0  0  0
 15 12  2  0  0  0  0
 15 14  1  0  0  0  0
 16 13  1  0  0  0  0
 16  9  1  1  0  0  0
 17 18  1  0  0  0  0
 19 17  1  0  0  0  0
 20 19  1  0  0  0  0
 21 18  1  0  0  0  0
 22 20  1  0  0  0  0
 22 21  1  0  0  0  0
 23 24  1  0  0  0  0
 24 25  1  0  0  0  0
 26 30  1  0  0  0  0
 27 28  1  0  0  0  0
 29 26  1  0  0  0  0
 29 27  1  0  0  0  0
 30 25  1  6  0  0  0
 30 28  1  0  0  0  0
 31  5  1  0  0  0  0
 31 32  1  0  0  0  0
 32 33  1  0  0  0  0
 33 38  1  0  0  0  0
 34 33  2  0  0  0  0
 35 33  2  0  0  0  0
 36 41  1  0  0  0  0
 37 39  1  0  0  0  0
 38 39  1  0  0  0  0
 38 40  2  0  0  0  0
 39 36  2  0  0  0  0
 40 42  1  0  0  0  0
 42 41  2  0  0  0  0
M  END
>  <MODEL>
5

>  <REMARK>
 VINA RESULT:      -7.3      2.438      3.440
  Name = 
  10 active torsions:
  status: ('A' for Active; 'I' for Inactive)
    1  A    between atoms: C_1  and  C_10
    2  A    between atoms: C_1  and  N_16
    3  A    between atoms: S_8  and  C_11
    4  A    between atoms: S_8  and  N_30
    5  A    between atoms: C_10  and  C_37
    6  A    between atoms: N_16  and  C_33
    7  A    between atoms: C_19  and  C_36
    8  A    between atoms: C_22  and  C_23
    9  A    between atoms: C_22  and  N_30
   10  A    between atoms: S_34  and  C_38
                            x       y       z     vdW  Elec       q    Type
                         _______ _______ _______ _____ _____    ______ ____

>  <TORSDO>
F 10

$$$$
=
 OpenBabel11042413373D

 42 47  0  0  1  0  0  0  0  0999 V2000
  192.2520  174.9900  142.7980 C   0  0  0  0  0  0  0  0  0  0  0  0
  194.0820  175.1000  144.9850 C   0  0  0  0  0  0  0  0  0  0  0  0
  193.2700  176.2450  144.7230 C   0  0  0  0  0  0  0  0  0  0  0  0
  191.3100  174.9180  141.6330 C   0  0  0  0  0  1  0  0  0  0  0  0
  193.0540  173.9280  143.1020 C   0  0  0  0  0  0  0  0  0  0  0  0
  194.5670  176.6580  146.5110 N   0  0  0  0  0  0  0  0  0  0  0  0
  192.3080  176.2370  143.6190 C   0  0  2  0  0  3  0  0  0  0  0  0
  193.5540  177.1660  145.6290 C   0  0  0  0  0  3  0  0  0  0  0  0
  191.3290  177.4960  143.3570 S   0  0  0  0  0  0  0  0  0  0  0  0
  194.8820  175.4520  146.1450 C   0  0  0  0  0  3  0  0  0  0  0  0
  194.0170  173.9840  144.2530 C   0  0  0  0  0  0  0  0  0  0  0  0
  189.6850  175.8690  144.8550 N   0  0  0  0  0  0  0  0  0  0  0  0
  188.6760  177.7740  144.2070 C   0  0  0  0  0  3  0  0  0  0  0  0
  187.8400  176.9790  144.9670 C   0  0  0  0  0  0  0  0  0  0  0  0
  188.4590  175.8450  145.3460 N   0  0  0  0  0  2  0  0  0  0  0  0
  189.8290  177.0150  144.1680 C   0  0  0  0  0  0  0  0  0  0  0  0
  184.0750  178.2900  146.2070 N   0  0  0  0  0  2  0  0  0  0  0  0
  185.0860  178.3000  147.2610 C   0  0  0  0  0  2  0  0  0  0  0  0
  184.5800  179.0470  145.0560 C   0  0  0  0  0  2  0  0  0  0  0  0
  185.9960  178.6140  144.6290 C   0  0  0  0  0  2  0  0  0  0  0  0
  186.2940  177.4470  146.8580 C   0  0  0  0  0  2  0  0  0  0  0  0
  186.4390  177.3330  145.3370 C   0  0  0  0  0  3  0  0  0  0  0  0
  194.8870  172.8140  144.5960 C   0  0  0  0  0  2  0  0  0  0  0  0
  196.3510  173.1190  144.3090 C   0  0  0  0  0  2  0  0  0  0  0  0
  196.6100  173.0870  142.8710 N   0  0  0  0  0  2  0  0  0  0  0  0
  197.3750  175.2860  143.5110 N   0  0  0  0  0  2  0  0  0  0  0  0
  195.8850  176.4180  142.0190 C   0  0  0  0  0  2  0  0  0  0  0  0
  196.1400  175.0530  141.4350 C   0  0  0  0  0  2  0  0  0  0  0  0
  196.9690  176.6070  143.0540 C   0  0  0  0  0  2  0  0  0  0  0  0
  197.1080  174.3830  142.3970 C   0  0  2  0  0  3  0  0  0  0  0  0
  193.0200  172.6870  142.2600 C   0  0  0  0  0  2  0  0  0  0  0  0
  192.0430  171.7550  142.7980 N   0  0  0  0  0  2  0  0  0  0  0  0
  191.4360  170.8010  141.4840 S   0  0  0  0  0  0  0  0  0  0  0  0
  192.5740  170.4150  140.5820 O   0  0  0  0  0  0  0  0  0  0  0  0
  190.8010  169.5580  142.0400 O   0  0  0  0  0  0  0  0  0  0  0  0
  188.1920  173.0370  140.4670 C   0  0  0  0  0  3  0  0  0  0  0  0
  188.9450  172.2060  142.6280 N   0  0  0  0  0  1  0  0  0  0  0  0
  190.2250  171.7100  140.5780 C   0  0  0  0  0  0  0  0  0  0  0  0
  189.1250  172.3120  141.2180 C   0  0  0  0  0  0  0  0  0  0  0  0
  190.3810  171.8590  139.1950 C   0  0  0  0  0  3  0  0  0  0  0  0
  188.3510  173.1700  139.0860 C   0  0  0  0  0  3  0  0  0  0  0  0
  189.4460  172.5830  138.4490 C   0  0  0  0  0  3  0  0  0  0  0  0
  1  5  2  0  0  0  0
  1  7  1  0  0  0  0
  2 10  1  0  0  0  0
  3  2  1  0  0  0  0
  3  8  2  0  0  0  0
  4  1  1  0  0  0  0
  5 11  1  0  0  0  0
  7  9  1  1  0  0  0
  7  3  1  0  0  0  0
  8  6  1  0  0  0  0
  9 16  1  0  0  0  0
 10  6  2  0  0  0  0
 11 23  1  0  0  0  0
 11  2  2  0  0  0  0
 12 15  1  0  0  0  0
 13 14  2  0  0  0  0
 14 22  1  0  0  0  0
 14 15  1  0  0  0  0
 16 13  1  0  0  0  0
 16 12  2  0  0  0  0
 17 18  1  0  0  0  0
 19 17  1  0  0  0  0
 20 19  1  0  0  0  0
 20 22  1  0  0  0  0
 21 18  1  0  0  0  0
 22 21  1  0  0  0  0
 24 23  1  0  0  0  0
 25 24  1  0  0  0  0
 27 29  1  0  0  0  0
 28 27  1  0  0  0  0
 28 30  1  0  0  0  0
 29 26  1  0  0  0  0
 30 25  1  1  0  0  0
 30 26  1  0  0  0  0
 31 32  1  0  0  0  0
 31  5  1  0  0  0  0
 33 35  2  0  0  0  0
 33 32  1  0  0  0  0
 34 33  2  0  0  0  0
 36 39  1  0  0  0  0
 38 39  2  0  0  0  0
 38 33  1  0  0  0  0
 39 37  1  0  0  0  0
 40 38  1  0  0  0  0
 41 36  2  0  0  0  0
 42 41  1  0  0  0  0
 42 40  2  0  0  0  0
M  END
>  <MODEL>
6

>  <REMARK>
 VINA RESULT:      -7.2      3.332      8.378
  Name = 
  10 active torsions:
  status: ('A' for Active; 'I' for Inactive)
    1  A    between atoms: C_1  and  C_10
    2  A    between atoms: C_1  and  N_16
    3  A    between atoms: S_8  and  C_11
    4  A    between atoms: S_8  and  N_30
    5  A    between atoms: C_10  and  C_37
    6  A    between atoms: N_16  and  C_33
    7  A    between atoms: C_19  and  C_36
    8  A    between atoms: C_22  and  C_23
    9  A    between atoms: C_22  and  N_30
   10  A    between atoms: S_34  and  C_38
                            x       y       z     vdW  Elec       q    Type
                         _______ _______ _______ _____ _____    ______ ____

>  <TORSDO>
F 10

$$$$
=
 OpenBabel11042413373D

 42 47  0  0  1  0  0  0  0  0999 V2000
  190.9190  173.6450  142.8530 C   0  0  0  0  0  0  0  0  0  0  0  0
  192.1430  173.6040  140.2760 C   0  0  0  0  0  0  0  0  0  0  0  0
  190.7470  173.3150  140.3680 C   0  0  1  0  0  3  0  0  0  0  0  0
  190.3000  173.6540  144.2190 C   0  0  0  0  0  1  0  0  0  0  0  0
  192.2480  173.9150  142.6970 C   0  0  0  0  0  0  0  0  0  0  0  0
  191.3760  173.2210  138.2130 N   0  0  0  0  0  0  0  0  0  0  0  0
  190.0690  173.3320  141.6650 C   0  0  0  0  0  0  0  0  0  0  0  0
  190.2920  173.0920  139.1460 C   0  0  0  0  0  3  0  0  0  0  0  0
  188.4750  173.0820  141.7770 S   0  0  0  0  0  0  0  0  0  0  0  0
  192.4610  173.5200  138.8610 C   0  0  0  0  0  3  0  0  0  0  0  0
  192.8940  173.8940  141.3420 C   0  0  0  0  0  0  0  0  0  0  0  0
  188.1010  175.6780  140.9310 N   0  0  0  0  0  0  0  0  0  0  0  0
  186.9190  175.1820  142.7810 C   0  0  0  0  0  3  0  0  0  0  0  0
  186.7070  176.4820  142.3670 C   0  0  0  0  0  0  0  0  0  0  0  0
  187.4200  176.7610  141.2590 N   0  0  0  0  0  0  0  0  0  0  0  0
  187.8140  174.7250  141.8340 C   0  0  1  0  0  3  0  0  0  0  0  0
  184.4240  179.1950  144.5710 N   0  0  0  0  0  2  0  0  0  0  0  0
  184.9380  178.0750  145.3550 C   0  0  0  0  0  2  0  0  0  0  0  0
  185.5420  179.8400  143.8730 C   0  0  0  0  0  2  0  0  0  0  0  0
  186.4290  178.8400  143.1070 C   0  0  0  0  0  2  0  0  0  0  0  0
  185.4020  176.9410  144.4350 C   0  0  0  0  0  2  0  0  0  0  0  0
  185.7960  177.4490  143.0430 C   0  0  0  0  0  3  0  0  0  0  0  0
  194.3490  174.2030  141.1690 C   0  0  0  0  0  2  0  0  0  0  0  0
  194.5450  175.5580  140.5030 C   0  0  0  0  0  2  0  0  0  0  0  0
  195.9460  175.7500  140.1340 N   0  0  0  0  0  2  0  0  0  0  0  0
  197.7600  174.8890  138.7930 N   0  0  0  0  0  2  0  0  0  0  0  0
  196.7250  175.4820  136.7190 C   0  0  0  0  0  2  0  0  0  0  0  0
  195.6180  175.2830  137.7210 C   0  0  0  0  0  2  0  0  0  0  0  0
  197.9410  174.8460  137.3490 C   0  0  0  0  0  2  0  0  0  0  0  0
  196.3180  174.8830  139.0110 C   0  0  2  0  0  3  0  0  0  0  0  0
  193.1090  174.1990  143.8930 C   0  0  0  0  0  2  0  0  0  0  0  0
  193.5490  175.5840  143.8640 N   0  0  0  0  0  2  0  0  0  0  0  0
  193.2290  176.2780  145.4200 S   0  0  0  0  0  0  0  0  0  0  0  0
  193.6040  175.2930  146.4910 O   0  0  0  0  0  0  0  0  0  0  0  0
  194.0590  177.5210  145.5760 O   0  0  0  0  0  0  0  0  0  0  0  0
  189.4710  177.6300  144.6410 C   0  0  0  0  0  3  0  0  0  0  0  0
  191.4810  177.6230  143.2690 N   0  0  0  0  0  1  0  0  0  0  0  0
  191.5230  176.7050  145.5580 C   0  0  0  0  0  0  0  0  0  0  0  0
  190.8280  177.3190  144.4980 C   0  0  0  0  0  0  0  0  0  0  0  0
  190.8380  176.3970  146.7410 C   0  0  0  0  0  3  0  0  0  0  0  0
  188.8010  177.3290  145.8290 C   0  0  0  0  0  3  0  0  0  0  0  0
  189.4840  176.7110  146.8790 C   0  0  0  0  0  3  0  0  0  0  0  0
  1  4  1  0  0  0  0
  2  3  1  0  0  0  0
  2 11  1  0  0  0  0
  3  8  1  6  0  0  0
  3  7  1  0  0  0  0
  5  1  1  0  0  0  0
  5 31  1  0  0  0  0
  6 10  1  0  0  0  0
  6  8  2  0  0  0  0
  7  9  1  0  0  0  0
  7  1  2  0  0  0  0
 10  2  2  0  0  0  0
 11  5  2  0  0  0  0
 12 15  2  0  0  0  0
 12 16  1  0  0  0  0
 14 13  2  0  0  0  0
 14 22  1  0  0  0  0
 15 14  1  0  0  0  0
 16  9  1  6  0  0  0
 16 13  1  0  0  0  0
 17 18  1  0  0  0  0
 19 17  1  0  0  0  0
 20 19  1  0  0  0  0
 21 18  1  0  0  0  0
 22 20  1  0  0  0  0
 22 21  1  0  0  0  0
 23 11  1  0  0  0  0
 24 23  1  0  0  0  0
 25 24  1  0  0  0  0
 26 30  1  0  0  0  0
 27 29  1  0  0  0  0
 27 28  1  0  0  0  0
 28 30  1  0  0  0  0
 29 26  1  0  0  0  0
 30 25  1  1  0  0  0
 32 31  1  0  0  0  0
 32 33  1  0  0  0  0
 33 38  1  0  0  0  0
 33 35  2  0  0  0  0
 33 34  2  0  0  0  0
 36 41  1  0  0  0  0
 37 39  1  0  0  0  0
 38 40  2  0  0  0  0
 39 36  2  0  0  0  0
 39 38  1  0  0  0  0
 40 42  1  0  0  0  0
 41 42  2  0  0  0  0
M  END
>  <MODEL>
7

>  <REMARK>
 VINA RESULT:      -7.0      3.440      7.541
  Name = 
  10 active torsions:
  status: ('A' for Active; 'I' for Inactive)
    1  A    between atoms: C_1  and  C_10
    2  A    between atoms: C_1  and  N_16
    3  A    between atoms: S_8  and  C_11
    4  A    between atoms: S_8  and  N_30
    5  A    between atoms: C_10  and  C_37
    6  A    between atoms: N_16  and  C_33
    7  A    between atoms: C_19  and  C_36
    8  A    between atoms: C_22  and  C_23
    9  A    between atoms: C_22  and  N_30
   10  A    between atoms: S_34  and  C_38
                            x       y       z     vdW  Elec       q    Type
                         _______ _______ _______ _____ _____    ______ ____

>  <TORSDO>
F 10

$$$$
=
 OpenBabel11042413373D

 42 47  0  0  1  0  0  0  0  0999 V2000
  190.7520  173.5100  142.9690 C   0  0  0  0  0  0  0  0  0  0  0  0
  192.7770  175.4490  142.4370 C   0  0  0  0  0  0  0  0  0  0  0  0
  192.6580  174.3330  141.5530 C   0  0  0  0  0  0  0  0  0  0  0  0
  189.6940  172.4930  143.2770 C   0  0  0  0  0  1  0  0  0  0  0  0
  190.9160  174.6000  143.7740 C   0  0  0  0  0  0  0  0  0  0  0  0
  194.3200  175.6650  140.8350 N   0  0  0  0  0  0  0  0  0  0  0  0
  191.6300  173.3160  141.7750 C   0  0  0  0  0  0  0  0  0  0  0  0
  193.5690  174.4640  140.6020 C   0  0  0  0  0  3  0  0  0  0  0  0
  191.4330  172.0880  140.7410 S   0  0  0  0  0  0  0  0  0  0  0  0
  193.8660  176.2490  141.9020 C   0  0  0  0  0  2  0  0  0  0  0  0
  191.9810  175.6220  143.4950 C   0  0  0  0  0  0  0  0  0  0  0  0
  188.8140  172.5460  140.0160 N   0  0  0  0  0  0  0  0  0  0  0  0
  190.2880  173.2730  138.4780 C   0  0  0  0  0  3  0  0  0  0  0  0
  188.9840  173.5230  138.1010 C   0  0  0  0  0  0  0  0  0  0  0  0
  188.1160  173.0840  139.0330 N   0  0  0  0  0  0  0  0  0  0  0  0
  190.1160  172.6490  139.6970 C   0  0  1  0  0  3  0  0  0  0  0  0
  187.9560  175.7920  134.7500 N   0  0  0  0  0  2  0  0  0  0  0  0
  187.4540  176.3320  136.0110 C   0  0  0  0  0  2  0  0  0  0  0  0
  189.4030  175.5840  134.8640 C   0  0  0  0  0  2  0  0  0  0  0  0
  189.8000  174.8030  136.1310 C   0  0  0  0  0  2  0  0  0  0  0  0
  187.5120  175.2690  137.1140 C   0  0  0  0  0  2  0  0  0  0  0  0
  188.5820  174.2070  136.8380 C   0  0  0  0  0  3  0  0  0  0  0  0
  192.1520  176.8250  144.3700 C   0  0  0  0  0  2  0  0  0  0  0  0
  192.9150  176.4740  145.6400 C   0  0  0  0  0  2  0  0  0  0  0  0
  194.3420  176.7420  145.4720 N   0  0  0  0  0  2  0  0  0  0  0  0
  196.0030  175.2970  144.4790 N   0  0  0  0  0  2  0  0  0  0  0  0
  194.6840  173.3200  144.7550 C   0  0  0  0  0  2  0  0  0  0  0  0
  194.2510  174.2890  145.8230 C   0  0  0  0  0  2  0  0  0  0  0  0
  196.0000  173.8600  144.2480 C   0  0  0  0  0  2  0  0  0  0  0  0
  195.1300  175.5150  145.6270 C   0  0  2  0  0  3  0  0  0  0  0  0
  190.0560  174.7800  144.9900 C   0  0  0  0  0  2  0  0  0  0  0  0
  188.8860  175.5730  144.6510 N   0  0  0  0  0  2  0  0  0  0  0  0
  188.3790  176.4140  146.0790 S   0  0  0  0  0  0  0  0  0  0  0  0
  188.2390  175.4340  147.2100 O   0  0  0  0  0  0  0  0  0  0  0  0
  189.4210  177.4350  146.4350 O   0  0  0  0  0  0  0  0  0  0  0  0
  185.3930  178.6440  144.4470 C   0  0  0  0  0  3  0  0  0  0  0  0
  187.6540  178.1890  143.6690 N   0  0  0  0  0  1  0  0  0  0  0  0
  186.8430  177.2330  145.7930 C   0  0  0  0  0  0  0  0  0  0  0  0
  186.6310  178.0200  144.6460 C   0  0  0  0  0  0  0  0  0  0  0  0
  185.8030  177.0700  146.7160 C   0  0  0  0  0  3  0  0  0  0  0  0
  184.3660  178.4840  145.3800 C   0  0  0  0  0  3  0  0  0  0  0  0
  184.5700  177.6950  146.5140 C   0  0  0  0  0  3  0  0  0  0  0  0
  1  4  1  0  0  0  0
  1  5  1  0  0  0  0
  2 11  1  0  0  0  0
  3  7  1  0  0  0  0
  3  2  2  0  0  0  0
  5 31  1  0  0  0  0
  6 10  1  0  0  0  0
  7  1  2  0  0  0  0
  8  6  2  0  0  0  0
  8  3  1  0  0  0  0
  9  7  1  0  0  0  0
 10  2  1  0  0  0  0
 11  5  2  0  0  0  0
 11 23  1  0  0  0  0
 13 16  1  0  0  0  0
 14 13  2  0  0  0  0
 14 15  1  0  0  0  0
 15 12  2  0  0  0  0
 16 12  1  0  0  0  0
 16  9  1  1  0  0  0
 17 19  1  0  0  0  0
 17 18  1  0  0  0  0
 18 21  1  0  0  0  0
 19 20  1  0  0  0  0
 20 22  1  0  0  0  0
 22 21  1  0  0  0  0
 22 14  1  0  0  0  0
 23 24  1  0  0  0  0
 25 24  1  0  0  0  0
 26 30  1  0  0  0  0
 27 28  1  0  0  0  0
 29 26  1  0  0  0  0
 29 27  1  0  0  0  0
 30 25  1  6  0  0  0
 30 28  1  0  0  0  0
 32 31  1  0  0  0  0
 32 33  1  0  0  0  0
 33 35  2  0  0  0  0
 33 34  2  0  0  0  0
 36 39  2  0  0  0  0
 36 41  1  0  0  0  0
 37 39  1  0  0  0  0
 38 33  1  0  0  0  0
 38 40  2  0  0  0  0
 39 38  1  0  0  0  0
 41 42  2  0  0  0  0
 42 40  1  0  0  0  0
M  END
>  <MODEL>
8

>  <REMARK>
 VINA RESULT:      -7.0      2.643      3.569
  Name = 
  10 active torsions:
  status: ('A' for Active; 'I' for Inactive)
    1  A    between atoms: C_1  and  C_10
    2  A    between atoms: C_1  and  N_16
    3  A    between atoms: S_8  and  C_11
    4  A    between atoms: S_8  and  N_30
    5  A    between atoms: C_10  and  C_37
    6  A    between atoms: N_16  and  C_33
    7  A    between atoms: C_19  and  C_36
    8  A    between atoms: C_22  and  C_23
    9  A    between atoms: C_22  and  N_30
   10  A    between atoms: S_34  and  C_38
                            x       y       z     vdW  Elec       q    Type
                         _______ _______ _______ _____ _____    ______ ____

>  <TORSDO>
F 10

$$$$
=
 OpenBabel11042413373D

 42 47  0  0  1  0  0  0  0  0999 V2000
  190.8550  173.4360  142.1240 C   0  0  0  0  0  0  0  0  0  0  0  0
  191.4640  173.4760  139.3370 C   0  0  0  0  0  0  0  0  0  0  0  0
  190.0940  173.3870  139.7300 C   0  0  1  0  0  3  0  0  0  0  0  0
  190.5570  173.3970  143.5940 C   0  0  0  0  0  1  0  0  0  0  0  0
  192.1440  173.5210  141.6840 C   0  0  0  0  0  0  0  0  0  0  0  0
  190.2140  173.4200  137.4860 N   0  0  0  0  0  0  0  0  0  0  0  0
  189.7270  173.3730  141.1460 C   0  0  0  0  0  0  0  0  0  0  0  0
  189.3540  173.3590  138.6340 C   0  0  0  0  0  3  0  0  0  0  0  0
  188.1770  173.3500  141.6070 S   0  0  0  0  0  0  0  0  0  0  0  0
  191.4480  173.4900  137.8840 C   0  0  0  0  0  3  0  0  0  0  0  0
  192.4670  173.5430  140.2180 C   0  0  0  0  0  0  0  0  0  0  0  0
  187.9390  176.0270  140.9980 N   0  0  0  0  0  0  0  0  0  0  0  0
  187.3720  175.5600  143.1250 C   0  0  0  0  0  3  0  0  0  0  0  0
  187.2330  176.9030  142.8380 C   0  0  0  0  0  0  0  0  0  0  0  0
  187.5750  177.1650  141.5620 N   0  0  0  0  0  0  0  0  0  0  0  0
  187.8250  175.0580  141.9220 C   0  0  1  0  0  3  0  0  0  0  0  0
  185.5090  179.6240  145.4930 N   0  0  0  0  0  2  0  0  0  0  0  0
  184.7490  179.4330  144.2610 C   0  0  0  0  0  2  0  0  0  0  0  0
  185.7520  178.3160  146.1110 C   0  0  0  0  0  2  0  0  0  0  0  0
  186.3300  177.2850  145.1240 C   0  0  0  0  0  2  0  0  0  0  0  0
  185.6170  178.7610  143.1910 C   0  0  0  0  0  2  0  0  0  0  0  0
  186.7520  177.9320  143.8040 C   0  0  0  0  0  3  0  0  0  0  0  0
  193.8800  173.6510  139.7340 C   0  0  0  0  0  2  0  0  0  0  0  0
  194.1830  175.0580  139.2400 C   0  0  0  0  0  2  0  0  0  0  0  0
  195.6260  175.2550  139.1070 N   0  0  0  0  0  2  0  0  0  0  0  0
  197.3100  175.6410  137.4200 N   0  0  0  0  0  2  0  0  0  0  0  0
  195.7140  176.1540  135.7120 C   0  0  0  0  0  2  0  0  0  0  0  0
  195.0240  175.2520  136.7020 C   0  0  0  0  0  2  0  0  0  0  0  0
  197.1870  176.0150  136.0190 C   0  0  0  0  0  2  0  0  0  0  0  0
  196.0790  174.9320  137.7500 C   0  0  2  0  0  3  0  0  0  0  0  0
  193.2790  173.5530  142.6650 C   0  0  0  0  0  2  0  0  0  0  0  0
  193.7150  174.9250  142.8670 N   0  0  0  0  0  2  0  0  0  0  0  0
  193.6730  175.2530  144.5690 S   0  0  0  0  0  0  0  0  0  0  0  0
  193.7270  173.9560  145.3270 O   0  0  0  0  0  0  0  0  0  0  0  0
  194.8680  176.0890  144.9310 O   0  0  0  0  0  0  0  0  0  0  0  0
  190.4930  176.8070  146.5740 C   0  0  0  0  0  3  0  0  0  0  0  0
  192.2600  175.3020  147.3050 N   0  0  0  0  0  1  0  0  0  0  0  0
  192.2040  176.1370  144.9840 C   0  0  0  0  0  0  0  0  0  0  0  0
  191.6520  176.0810  146.2780 C   0  0  0  0  0  0  0  0  0  0  0  0
  191.5920  176.9360  144.0110 C   0  0  0  0  0  3  0  0  0  0  0  0
  189.8840  177.5920  145.5920 C   0  0  0  0  0  3  0  0  0  0  0  0
  190.4340  177.6580  144.3100 C   0  0  0  0  0  3  0  0  0  0  0  0
  1  4  1  0  0  0  0
  2  3  1  0  0  0  0
  2 11  1  0  0  0  0
  3  8  1  6  0  0  0
  3  7  1  0  0  0  0
  5  1  1  0  0  0  0
  5 31  1  0  0  0  0
  6 10  1  0  0  0  0
  6  8  2  0  0  0  0
  7  9  1  0  0  0  0
  7  1  2  0  0  0  0
 10  2  2  0  0  0  0
 11  5  2  0  0  0  0
 12 15  2  0  0  0  0
 12 16  1  0  0  0  0
 14 13  2  0  0  0  0
 14 22  1  0  0  0  0
 15 14  1  0  0  0  0
 16  9  1  6  0  0  0
 16 13  1  0  0  0  0
 17 19  1  0  0  0  0
 18 17  1  0  0  0  0
 20 19  1  0  0  0  0
 21 22  1  0  0  0  0
 21 18  1  0  0  0  0
 22 20  1  0  0  0  0
 23 11  1  0  0  0  0
 24 23  1  0  0  0  0
 25 24  1  0  0  0  0
 26 30  1  0  0  0  0
 27 29  1  0  0  0  0
 27 28  1  0  0  0  0
 28 30  1  0  0  0  0
 29 26  1  0  0  0  0
 30 25  1  1  0  0  0
 31 32  1  0  0  0  0
 32 33  1  0  0  0  0
 33 35  2  0  0  0  0
 33 38  1  0  0  0  0
 33 34  2  0  0  0  0
 38 39  2  0  0  0  0
 39 36  1  0  0  0  0
 39 37  1  0  0  0  0
 40 42  2  0  0  0  0
 40 38  1  0  0  0  0
 41 36  2  0  0  0  0
 42 41  1  0  0  0  0
M  END
>  <MODEL>
9

>  <REMARK>
 VINA RESULT:      -6.8      3.411      8.082
  Name = 
  10 active torsions:
  status: ('A' for Active; 'I' for Inactive)
    1  A    between atoms: C_1  and  C_10
    2  A    between atoms: C_1  and  N_16
    3  A    between atoms: S_8  and  C_11
    4  A    between atoms: S_8  and  N_30
    5  A    between atoms: C_10  and  C_37
    6  A    between atoms: N_16  and  C_33
    7  A    between atoms: C_19  and  C_36
    8  A    between atoms: C_22  and  C_23
    9  A    between atoms: C_22  and  N_30
   10  A    between atoms: S_34  and  C_38
                            x       y       z     vdW  Elec       q    Type
                         _______ _______ _______ _____ _____    ______ ____

>  <TORSDO>
F 10

$$$$
