=
 OpenBabel11042414213D

 27 30  0  0  0  0  0  0  0  0999 V2000
  184.4340  177.7860  141.2430 N   0  0  0  0  0  0  0  0  0  0  0  0
  186.0590  177.7270  143.2020 C   0  0  0  0  0  0  0  0  0  0  0  0
  183.3240  178.2240  141.7460 C   0  0  0  0  0  0  0  0  0  0  0  0
  184.0600  178.9700  144.0210 C   0  0  0  0  0  3  0  0  0  0  0  0
  183.2380  179.0050  142.9820 C   0  0  0  0  0  3  0  0  0  0  0  0
  185.2640  178.1450  144.2190 C   0  0  0  0  0  0  0  0  0  0  0  0
  185.7130  177.8740  141.8180 N   0  0  0  0  0  2  0  0  0  0  0  0
  187.4150  177.1890  143.4490 C   0  0  0  0  0  0  0  0  0  0  0  0
  191.6250  176.7620  144.6430 O   0  0  0  0  0  0  0  0  0  0  0  0
  189.9890  175.4830  143.8130 N   0  0  0  0  0  0  0  0  0  0  0  0
  188.3450  178.0650  143.9890 C   0  0  0  0  0  3  0  0  0  0  0  0
  190.4290  176.6820  144.2610 C   0  0  0  0  0  0  0  0  0  0  0  0
  188.7840  175.0810  143.3440 C   0  0  0  0  0  3  0  0  0  0  0  0
  189.6660  177.8400  144.3410 C   0  0  0  0  0  3  0  0  0  0  0  0
  187.6360  175.8420  143.1860 C   0  0  0  0  0  3  0  0  0  0  0  0
  185.6020  176.6550  146.2770 C   0  0  0  0  0  3  0  0  0  0  0  0
  185.8810  178.8440  146.5940 C   0  0  0  0  0  3  0  0  0  0  0  0
  186.0650  178.1490  147.7730 C   0  0  0  0  0  3  0  0  0  0  0  0
  185.8960  176.8270  147.5770 N   0  0  0  0  0  2  0  0  0  0  0  0
  185.6030  177.8820  145.6430 C   0  0  0  0  0  0  0  0  0  0  0  0
  182.0610  178.0590  140.9430 C   0  0  0  0  0  2  0  0  0  0  0  0
  180.9120  178.8180  141.4560 N   0  0  0  0  0  0  0  0  0  0  0  0
  178.5990  178.7140  142.2550 C   0  0  0  0  0  2  0  0  0  0  0  0
  178.1720  179.5170  141.1810 O   0  0  0  0  0  0  0  0  0  0  0  0
  179.1780  180.4740  140.9590 C   0  0  0  0  0  2  0  0  0  0  0  0
  179.8290  177.9040  141.8380 C   0  0  0  0  0  2  0  0  0  0  0  0
  180.4470  179.7820  140.4540 C   0  0  0  0  0  2  0  0  0  0  0  0
  1  3  2  0  0  0  0
  1  7  1  0  0  0  0
  2  8  1  0  0  0  0
  2  6  2  0  0  0  0
  3  5  1  0  0  0  0
  4  6  1  0  0  0  0
  5  4  2  0  0  0  0
  6 20  1  0  0  0  0
  7  2  1  0  0  0  0
  8 11  1  0  0  0  0
 10 12  1  0  0  0  0
 11 14  2  0  0  0  0
 12 14  1  0  0  0  0
 12  9  2  0  0  0  0
 13 10  2  0  0  0  0
 15 13  1  0  0  0  0
 15  8  2  0  0  0  0
 16 19  1  0  0  0  0
 17 18  2  0  0  0  0
 19 18  1  0  0  0  0
 20 16  2  0  0  0  0
 20 17  1  0  0  0  0
 21 22  1  0  0  0  0
 21  3  1  0  0  0  0
 22 26  1  0  0  0  0
 24 23  1  0  0  0  0
 25 24  1  0  0  0  0
 26 23  1  0  0  0  0
 27 25  1  0  0  0  0
 27 22  1  0  0  0  0
M  END
>  <MODEL>
1

>  <REMARK>
 VINA RESULT:      -7.3      0.000      0.000
  Name = 
  4 active torsions:
  status: ('A' for Active; 'I' for Inactive)
    1  A    between atoms: C_2  and  C_9
    2  A    between atoms: C_7  and  N_8
    3  A    between atoms: C_7  and  C_18
    4  A    between atoms: C_20  and  C_25
                            x       y       z     vdW  Elec       q    Type
                         _______ _______ _______ _____ _____    ______ ____

>  <TORSDO>
F 4

$$$$
=
 OpenBabel11042414213D

 27 30  0  0  1  0  0  0  0  0999 V2000
  191.1840  176.7900  146.0500 N   0  0  0  0  0  0  0  0  0  0  0  0
  188.9960  177.4430  144.9250 C   0  0  0  0  0  0  0  0  0  0  0  0
  192.0250  176.6340  145.0760 C   0  0  0  0  0  0  0  0  0  0  0  0
  190.7330  177.5670  143.1430 C   0  0  0  0  0  3  0  0  0  0  0  0
  191.8640  177.2420  143.7530 C   0  0  0  0  0  3  0  0  0  0  0  0
  189.3490  177.4030  143.6160 C   0  0  0  0  0  0  0  0  0  0  0  0
  189.9470  177.4530  145.9980 N   0  0  0  0  0  2  0  0  0  0  0  0
  187.5860  177.6010  145.3440 C   0  0  0  0  0  0  0  0  0  0  0  0
  183.4530  179.0410  145.7640 O   0  0  0  0  0  0  0  0  0  0  0  0
  184.7150  177.3540  146.5120 N   0  0  0  0  0  0  0  0  0  0  0  0
  186.8900  178.6700  144.7990 C   0  0  0  0  0  3  0  0  0  0  0  0
  184.5750  178.4730  145.7650 C   0  0  0  0  0  0  0  0  0  0  0  0
  185.7700  176.5310  146.7180 C   0  0  0  0  0  3  0  0  0  0  0  0
  185.5720  179.0500  144.9870 C   0  0  0  0  0  3  0  0  0  0  0  0
  187.0500  176.6400  146.1930 C   0  0  0  0  0  3  0  0  0  0  0  0
  187.6410  176.1470  142.1740 C   0  0  0  0  0  3  0  0  0  0  0  0
  188.0000  178.2810  141.6360 C   0  0  0  0  0  3  0  0  0  0  0  0
  187.0820  177.7050  140.7780 C   0  0  0  0  0  3  0  0  0  0  0  0
  186.8680  176.4160  141.1080 N   0  0  0  0  0  0  0  0  0  0  0  0
  188.3370  177.2850  142.5310 C   0  0  2  0  0  3  0  0  0  0  0  0
  193.3190  175.9190  145.3560 C   0  0  0  0  0  2  0  0  0  0  0  0
  194.2880  175.9630  144.2520 N   0  0  0  0  0  0  0  0  0  0  0  0
  195.7950  174.6740  142.8150 C   0  0  0  0  0  2  0  0  0  0  0  0
  196.9070  175.3710  143.3220 O   0  0  0  0  0  0  0  0  0  0  0  0
  196.5020  176.7050  143.5130 C   0  0  0  0  0  2  0  0  0  0  0  0
  194.6980  174.6040  143.8810 C   0  0  0  0  0  2  0  0  0  0  0  0
  195.4530  176.7720  144.6260 C   0  0  0  0  0  2  0  0  0  0  0  0
  2  8  1  0  0  0  0
  2  7  1  0  0  0  0
  3 21  1  0  0  0  0
  3  1  2  0  0  0  0
  4  6  1  0  0  0  0
  4  5  2  0  0  0  0
  5  3  1  0  0  0  0
  6  2  2  0  0  0  0
  7  1  1  0  0  0  0
  8 15  2  0  0  0  0
  9 12  2  0  0  0  0
 10 13  2  0  0  0  0
 11 14  2  0  0  0  0
 11  8  1  0  0  0  0
 12 10  1  0  0  0  0
 14 12  1  0  0  0  0
 15 13  1  0  0  0  0
 16 20  1  0  0  0  0
 17 20  1  0  0  0  0
 18 19  1  0  0  0  0
 18 17  2  0  0  0  0
 19 16  2  0  0  0  0
 20  6  1  6  0  0  0
 22 27  1  0  0  0  0
 22 21  1  0  0  0  0
 23 24  1  0  0  0  0
 23 26  1  0  0  0  0
 24 25  1  0  0  0  0
 25 27  1  0  0  0  0
 26 22  1  0  0  0  0
M  END
>  <MODEL>
2

>  <REMARK>
 VINA RESULT:      -7.2      3.909      9.737
  Name = 
  4 active torsions:
  status: ('A' for Active; 'I' for Inactive)
    1  A    between atoms: C_2  and  C_9
    2  A    between atoms: C_7  and  N_8
    3  A    between atoms: C_7  and  C_18
    4  A    between atoms: C_20  and  C_25
                            x       y       z     vdW  Elec       q    Type
                         _______ _______ _______ _____ _____    ______ ____

>  <TORSDO>
F 4

$$$$
=
 OpenBabel11042414213D

 27 30  0  0  1  0  0  0  0  0999 V2000
  190.9780  176.6740  146.8620 N   0  0  0  0  0  0  0  0  0  0  0  0
  188.9760  177.3170  145.4270 C   0  0  0  0  0  0  0  0  0  0  0  0
  191.9340  176.4480  146.0170 C   0  0  0  0  0  0  0  0  0  0  0  0
  190.9350  177.3060  143.8860 C   0  0  0  0  0  3  0  0  0  0  0  0
  191.9660  176.9890  144.6560 C   0  0  0  0  0  3  0  0  0  0  0  0
  189.4960  177.1990  144.1790 C   0  0  0  0  0  0  0  0  0  0  0  0
  189.7790  177.3620  146.6150 N   0  0  0  0  0  2  0  0  0  0  0  0
  187.5290  177.5290  145.6470 C   0  0  0  0  0  0  0  0  0  0  0  0
  183.4340  179.1250  145.4960 O   0  0  0  0  0  0  0  0  0  0  0  0
  184.5170  177.3920  146.4050 N   0  0  0  0  0  0  0  0  0  0  0  0
  186.9550  178.6230  145.0150 C   0  0  0  0  0  3  0  0  0  0  0  0
  184.5240  178.5150  145.6500 C   0  0  0  0  0  0  0  0  0  0  0  0
  185.5010  176.5300  146.7520 C   0  0  0  0  0  3  0  0  0  0  0  0
  185.6390  179.0530  145.0210 C   0  0  0  0  0  3  0  0  0  0  0  0
  186.8440  176.5900  146.4100 C   0  0  0  0  0  3  0  0  0  0  0  0
  187.9530  175.9090  142.5900 C   0  0  0  0  0  3  0  0  0  0  0  0
  188.4480  178.0000  141.9950 C   0  0  0  0  0  3  0  0  0  0  0  0
  187.6330  177.4000  141.0540 C   0  0  0  0  0  3  0  0  0  0  0  0
  187.3350  176.1370  141.4180 N   0  0  0  0  0  0  0  0  0  0  0  0
  188.6320  177.0470  142.9770 C   0  0  2  0  0  3  0  0  0  0  0  0
  193.1580  175.7190  146.5010 C   0  0  0  0  0  2  0  0  0  0  0  0
  193.8760  174.9770  145.4550 N   0  0  0  0  0  0  0  0  0  0  0  0
  194.4310  172.7730  144.5420 C   0  0  0  0  0  2  0  0  0  0  0  0
  195.7970  172.9880  144.8020 O   0  0  0  0  0  0  0  0  0  0  0  0
  196.0560  174.3450  144.5360 C   0  0  0  0  0  2  0  0  0  0  0  0
  193.5840  173.5430  145.5590 C   0  0  0  0  0  2  0  0  0  0  0  0
  195.3180  175.2200  145.5520 C   0  0  0  0  0  2  0  0  0  0  0  0
  2  8  1  0  0  0  0
  2  7  1  0  0  0  0
  3 21  1  0  0  0  0
  3  1  2  0  0  0  0
  4  6  1  0  0  0  0
  4  5  2  0  0  0  0
  5  3  1  0  0  0  0
  6  2  2  0  0  0  0
  7  1  1  0  0  0  0
  8 15  2  0  0  0  0
  9 12  2  0  0  0  0
 10 13  2  0  0  0  0
 11 14  2  0  0  0  0
 11  8  1  0  0  0  0
 12 10  1  0  0  0  0
 14 12  1  0  0  0  0
 15 13  1  0  0  0  0
 16 20  1  0  0  0  0
 17 20  1  0  0  0  0
 18 19  1  0  0  0  0
 18 17  2  0  0  0  0
 19 16  2  0  0  0  0
 20  6  1  6  0  0  0
 22 27  1  0  0  0  0
 22 26  1  0  0  0  0
 22 21  1  0  0  0  0
 23 24  1  0  0  0  0
 23 26  1  0  0  0  0
 25 24  1  0  0  0  0
 25 27  1  0  0  0  0
M  END
>  <MODEL>
3

>  <REMARK>
 VINA RESULT:      -7.2      3.909      9.790
  Name = 
  4 active torsions:
  status: ('A' for Active; 'I' for Inactive)
    1  A    between atoms: C_2  and  C_9
    2  A    between atoms: C_7  and  N_8
    3  A    between atoms: C_7  and  C_18
    4  A    between atoms: C_20  and  C_25
                            x       y       z     vdW  Elec       q    Type
                         _______ _______ _______ _____ _____    ______ ____

>  <TORSDO>
F 4

$$$$
=
 OpenBabel11042414213D

 27 30  0  0  1  0  0  0  0  0999 V2000
  189.8310  177.5410  146.9180 N   0  0  0  0  0  0  0  0  0  0  0  0
  191.2420  175.7710  145.7540 C   0  0  0  0  0  0  0  0  0  0  0  0
  188.6350  177.0440  146.9500 C   0  0  1  0  0  3  0  0  0  0  0  0
  189.0510  174.6810  146.2300 C   0  0  0  0  0  3  0  0  0  0  0  0
  188.3420  175.6130  146.8510 C   0  0  0  0  0  3  0  0  0  0  0  0
  190.3070  174.8280  145.4750 C   0  0  0  0  0  0  0  0  0  0  0  0
  191.0270  176.8450  146.6800 N   0  0  0  0  0  0  0  0  0  0  0  0
  192.6130  175.6890  145.2040 C   0  0  0  0  0  0  0  0  0  0  0  0
  196.8860  174.8120  144.6560 O   0  0  0  0  0  0  0  0  0  0  0  0
  195.2160  175.7530  143.5050 N   0  0  0  0  0  0  0  0  0  0  0  0
  193.5660  175.0630  145.9950 C   0  0  0  0  0  3  0  0  0  0  0  0
  195.6720  175.1370  144.6210 C   0  0  0  0  0  0  0  0  0  0  0  0
  193.9900  176.2160  143.1650 C   0  0  0  0  0  3  0  0  0  0  0  0
  194.9060  174.8250  145.7370 C   0  0  0  0  0  3  0  0  0  0  0  0
  192.8290  176.1830  143.9230 C   0  0  0  0  0  3  0  0  0  0  0  0
  190.1510  173.8680  143.1030 C   0  0  0  0  0  3  0  0  0  0  0  0
  191.0470  172.5310  144.6460 C   0  0  0  0  0  3  0  0  0  0  0  0
  190.9940  171.8990  143.4190 C   0  0  0  0  0  3  0  0  0  0  0  0
  190.4530  172.7110  142.4890 N   0  0  0  0  0  0  0  0  0  0  0  0
  190.5220  173.7900  144.4310 C   0  0  2  0  0  3  0  0  0  0  0  0
  187.4860  177.9660  147.2610 C   0  0  0  0  0  2  0  0  0  0  0  0
  186.3560  177.8640  146.3270 N   0  0  0  0  0  0  0  0  0  0  0  0
  185.5470  178.3090  144.0580 C   0  0  0  0  0  2  0  0  0  0  0  0
  184.5680  179.1870  144.5590 O   0  0  0  0  0  0  0  0  0  0  0  0
  184.1000  178.6350  145.7650 C   0  0  0  0  0  2  0  0  0  0  0  0
  186.7630  178.3060  144.9880 C   0  0  0  0  0  2  0  0  0  0  0  0
  185.2200  178.6550  146.8100 C   0  0  0  0  0  2  0  0  0  0  0  0
  1  3  1  0  0  0  0
  2  7  1  0  0  0  0
  3 21  1  1  0  0  0
  4  5  2  0  0  0  0
  5  3  1  0  0  0  0
  6  2  2  0  0  0  0
  6  4  1  0  0  0  0
  7  1  2  0  0  0  0
  8  2  1  0  0  0  0
  8 11  1  0  0  0  0
 10 12  1  0  0  0  0
 12  9  2  0  0  0  0
 12 14  1  0  0  0  0
 13 10  2  0  0  0  0
 13 15  1  0  0  0  0
 14 11  2  0  0  0  0
 15  8  2  0  0  0  0
 16 20  1  0  0  0  0
 18 17  2  0  0  0  0
 19 16  2  0  0  0  0
 19 18  1  0  0  0  0
 20 17  1  0  0  0  0
 20  6  1  1  0  0  0
 22 27  1  0  0  0  0
 22 21  1  0  0  0  0
 23 24  1  0  0  0  0
 23 26  1  0  0  0  0
 24 25  1  0  0  0  0
 25 27  1  0  0  0  0
 26 22  1  0  0  0  0
M  END
>  <MODEL>
4

>  <REMARK>
 VINA RESULT:      -6.9      4.105      6.942
  Name = 
  4 active torsions:
  status: ('A' for Active; 'I' for Inactive)
    1  A    between atoms: C_2  and  C_9
    2  A    between atoms: C_7  and  N_8
    3  A    between atoms: C_7  and  C_18
    4  A    between atoms: C_20  and  C_25
                            x       y       z     vdW  Elec       q    Type
                         _______ _______ _______ _____ _____    ______ ____

>  <TORSDO>
F 4

$$$$
=
 OpenBabel11042414213D

 27 30  0  0  1  0  0  0  0  0999 V2000
  190.6430  175.8420  145.0580 N   0  0  0  0  0  0  0  0  0  0  0  0
  188.2070  176.5520  144.8490 C   0  0  0  0  0  0  0  0  0  0  0  0
  190.7890  175.5210  146.3050 C   0  0  1  0  0  3  0  0  0  0  0  0
  188.4160  175.5140  147.1050 C   0  0  0  0  0  3  0  0  0  0  0  0
  189.6840  175.1360  147.1840 C   0  0  0  0  0  3  0  0  0  0  0  0
  187.7810  176.4160  146.1300 C   0  0  0  0  0  0  0  0  0  0  0  0
  189.4320  175.9880  144.3620 N   0  0  0  0  0  0  0  0  0  0  0  0
  187.3690  177.2030  143.8180 C   0  0  0  0  0  0  0  0  0  0  0  0
  185.0080  177.9990  140.1960 O   0  0  0  0  0  0  0  0  0  0  0  0
  185.5410  179.0410  142.1020 N   0  0  0  0  0  0  0  0  0  0  0  0
  187.0820  176.4560  142.6860 C   0  0  0  0  0  3  0  0  0  0  0  0
  185.6190  177.9570  141.2950 C   0  0  0  0  0  0  0  0  0  0  0  0
  186.0720  179.3000  143.3200 C   0  0  0  0  0  3  0  0  0  0  0  0
  186.3160  176.7900  141.5810 C   0  0  0  0  0  3  0  0  0  0  0  0
  186.8840  178.4780  144.0860 C   0  0  0  0  0  3  0  0  0  0  0  0
  185.2520  176.7900  146.3200 C   0  0  0  0  0  3  0  0  0  0  0  0
  186.5440  178.2390  147.4180 C   0  0  0  0  0  3  0  0  0  0  0  0
  185.2080  178.5550  147.5740 C   0  0  0  0  0  3  0  0  0  0  0  0
  184.4310  177.6760  146.9100 N   0  0  0  0  0  2  0  0  0  0  0  0
  186.5600  177.1040  146.6310 C   0  0  0  0  0  0  0  0  0  0  0  0
  192.1860  175.3820  146.8480 C   0  0  0  0  0  2  0  0  0  0  0  0
  193.2340  175.3280  145.8190 N   0  0  0  0  0  0  0  0  0  0  0  0
  194.9910  173.9790  144.7730 C   0  0  0  0  0  2  0  0  0  0  0  0
  195.9720  174.8980  145.1900 O   0  0  0  0  0  0  0  0  0  0  0  0
  195.4060  176.1810  145.0750 C   0  0  0  0  0  2  0  0  0  0  0  0
  193.8230  173.9850  145.7630 C   0  0  0  0  0  2  0  0  0  0  0  0
  194.2660  176.3350  146.0850 C   0  0  0  0  0  2  0  0  0  0  0  0
  1  3  1  0  0  0  0
  2  6  2  0  0  0  0
  3 21  1  6  0  0  0
  3  5  1  0  0  0  0
  4  5  2  0  0  0  0
  6 20  1  0  0  0  0
  6  4  1  0  0  0  0
  7  2  1  0  0  0  0
  7  1  2  0  0  0  0
  8 15  2  0  0  0  0
  8  2  1  0  0  0  0
  9 12  2  0  0  0  0
 10 13  2  0  0  0  0
 11  8  1  0  0  0  0
 12 14  1  0  0  0  0
 12 10  1  0  0  0  0
 13 15  1  0  0  0  0
 14 11  2  0  0  0  0
 16 20  2  0  0  0  0
 16 19  1  0  0  0  0
 17 18  2  0  0  0  0
 19 18  1  0  0  0  0
 20 17  1  0  0  0  0
 22 27  1  0  0  0  0
 22 21  1  0  0  0  0
 23 24  1  0  0  0  0
 23 26  1  0  0  0  0
 25 24  1  0  0  0  0
 25 27  1  0  0  0  0
 26 22  1  0  0  0  0
M  END
>  <MODEL>
5

>  <REMARK>
 VINA RESULT:      -6.9      3.463      9.112
  Name = 
  4 active torsions:
  status: ('A' for Active; 'I' for Inactive)
    1  A    between atoms: C_2  and  C_9
    2  A    between atoms: C_7  and  N_8
    3  A    between atoms: C_7  and  C_18
    4  A    between atoms: C_20  and  C_25
                            x       y       z     vdW  Elec       q    Type
                         _______ _______ _______ _____ _____    ______ ____

>  <TORSDO>
F 4

$$$$
=
 OpenBabel11042414213D

 27 30  0  0  1  0  0  0  0  0999 V2000
  189.5890  177.4720  145.7220 N   0  0  0  0  0  0  0  0  0  0  0  0
  191.4870  175.9300  145.0160 C   0  0  0  0  0  0  0  0  0  0  0  0
  188.6540  176.6790  146.1390 C   0  0  1  0  0  3  0  0  0  0  0  0
  189.8590  174.4840  146.2270 C   0  0  0  0  0  3  0  0  0  0  0  0
  188.8910  175.3100  146.6010 C   0  0  0  0  0  3  0  0  0  0  0  0
  190.9420  174.7120  145.2560 C   0  0  0  0  0  0  0  0  0  0  0  0
  190.9430  177.1530  145.5310 N   0  0  0  0  0  0  0  0  0  0  0  0
  192.7700  176.0770  144.2930 C   0  0  0  0  0  0  0  0  0  0  0  0
  197.0350  176.5410  143.3320 O   0  0  0  0  0  0  0  0  0  0  0  0
  195.1040  176.2400  142.2450 N   0  0  0  0  0  0  0  0  0  0  0  0
  193.9090  176.2350  145.0680 C   0  0  0  0  0  3  0  0  0  0  0  0
  195.7890  176.3860  143.4040 C   0  0  0  0  0  0  0  0  0  0  0  0
  193.7870  176.0580  141.9910 C   0  0  0  0  0  3  0  0  0  0  0  0
  195.2290  176.3730  144.6750 C   0  0  0  0  0  3  0  0  0  0  0  0
  192.7470  175.9820  142.9060 C   0  0  0  0  0  3  0  0  0  0  0  0
  190.8690  172.7500  143.6080 C   0  0  0  0  0  3  0  0  0  0  0  0
  192.6030  172.7900  145.0100 C   0  0  0  0  0  3  0  0  0  0  0  0
  192.6590  171.6800  144.1890 C   0  0  0  0  0  3  0  0  0  0  0  0
  191.6110  171.6600  143.3430 N   0  0  0  0  0  0  0  0  0  0  0  0
  191.4680  173.4740  144.6200 C   0  0  2  0  0  3  0  0  0  0  0  0
  187.2660  177.2370  146.3100 C   0  0  0  0  0  2  0  0  0  0  0  0
  186.6980  177.8310  145.0920 N   0  0  0  0  0  0  0  0  0  0  0  0
  185.1340  179.4750  144.1710 C   0  0  0  0  0  2  0  0  0  0  0  0
  184.3790  178.4500  143.5710 O   0  0  0  0  0  0  0  0  0  0  0  0
  185.2920  177.4800  143.1180 C   0  0  0  0  0  2  0  0  0  0  0  0
  185.8090  178.9460  145.4380 C   0  0  0  0  0  2  0  0  0  0  0  0
  185.9780  176.8180  144.3150 C   0  0  0  0  0  2  0  0  0  0  0  0
  1  3  1  0  0  0  0
  2  6  2  0  0  0  0
  2  7  1  0  0  0  0
  3 21  1  1  0  0  0
  3  5  1  0  0  0  0
  4  5  2  0  0  0  0
  6  4  1  0  0  0  0
  7  1  2  0  0  0  0
  8  2  1  0  0  0  0
  8 11  1  0  0  0  0
  9 12  2  0  0  0  0
 10 12  1  0  0  0  0
 12 14  1  0  0  0  0
 13 10  2  0  0  0  0
 13 15  1  0  0  0  0
 14 11  2  0  0  0  0
 15  8  2  0  0  0  0
 16 20  1  0  0  0  0
 18 17  2  0  0  0  0
 19 16  2  0  0  0  0
 19 18  1  0  0  0  0
 20 17  1  0  0  0  0
 20  6  1  1  0  0  0
 22 26  1  0  0  0  0
 22 21  1  0  0  0  0
 23 26  1  0  0  0  0
 24 23  1  0  0  0  0
 25 24  1  0  0  0  0
 25 27  1  0  0  0  0
 27 22  1  0  0  0  0
M  END
>  <MODEL>
6

>  <REMARK>
 VINA RESULT:      -6.9      3.864      6.929
  Name = 
  4 active torsions:
  status: ('A' for Active; 'I' for Inactive)
    1  A    between atoms: C_2  and  C_9
    2  A    between atoms: C_7  and  N_8
    3  A    between atoms: C_7  and  C_18
    4  A    between atoms: C_20  and  C_25
                            x       y       z     vdW  Elec       q    Type
                         _______ _______ _______ _____ _____    ______ ____

>  <TORSDO>
F 4

$$$$
=
 OpenBabel11042414213D

 27 30  0  0  1  0  0  0  0  0999 V2000
  187.0160  176.3700  141.7980 N   0  0  0  0  0  0  0  0  0  0  0  0
  189.2860  175.2240  141.9120 C   0  0  0  0  0  0  0  0  0  0  0  0
  187.1970  177.5220  142.3620 C   0  0  1  0  0  3  0  0  0  0  0  0
  189.6920  177.5920  142.5770 C   0  0  0  0  0  3  0  0  0  0  0  0
  188.5030  178.1720  142.4920 C   0  0  0  0  0  3  0  0  0  0  0  0
  190.0210  176.1570  142.5690 C   0  0  0  0  0  0  0  0  0  0  0  0
  188.0090  175.4990  141.3200 N   0  0  0  0  0  0  0  0  0  0  0  0
  189.8110  173.8650  141.6520 C   0  0  0  0  0  0  0  0  0  0  0  0
  190.7070  169.5700  141.9370 O   0  0  0  0  0  0  0  0  0  0  0  0
  191.1020  171.2670  140.5350 N   0  0  0  0  0  0  0  0  0  0  0  0
  189.4850  172.8840  142.5760 C   0  0  0  0  0  3  0  0  0  0  0  0
  190.5490  170.7910  141.6750 C   0  0  0  0  0  0  0  0  0  0  0  0
  191.1100  172.5030  139.9830 C   0  0  0  0  0  3  0  0  0  0  0  0
  189.8120  171.5380  142.5840 C   0  0  0  0  0  3  0  0  0  0  0  0
  190.5310  173.6610  140.4800 C   0  0  0  0  0  3  0  0  0  0  0  0
  191.4280  175.4080  144.5760 C   0  0  0  0  0  3  0  0  0  0  0  0
  192.5580  175.9370  142.7280 C   0  0  0  0  0  3  0  0  0  0  0  0
  193.4200  175.5730  143.7450 C   0  0  0  0  0  3  0  0  0  0  0  0
  192.7330  175.2540  144.8590 N   0  0  0  0  0  2  0  0  0  0  0  0
  191.2910  175.8120  143.2630 C   0  0  0  0  0  0  0  0  0  0  0  0
  185.9850  178.3160  142.7700 C   0  0  0  0  0  2  0  0  0  0  0  0
  185.7570  178.3720  144.2210 N   0  0  0  0  0  0  0  0  0  0  0  0
  185.6010  177.0960  146.3060 C   0  0  0  0  0  2  0  0  0  0  0  0
  184.2540  177.4710  146.4570 O   0  0  0  0  0  0  0  0  0  0  0  0
  184.1460  178.8020  146.0150 C   0  0  0  0  0  2  0  0  0  0  0  0
  185.9600  177.0470  144.8190 C   0  0  0  0  0  2  0  0  0  0  0  0
  184.4070  178.8670  144.5080 C   0  0  0  0  0  2  0  0  0  0  0  0
  1  3  1  0  0  0  0
  2  6  2  0  0  0  0
  3  5  1  0  0  0  0
  3 21  1  6  0  0  0
  5  4  2  0  0  0  0
  6  4  1  0  0  0  0
  6 20  1  0  0  0  0
  7  1  2  0  0  0  0
  7  2  1  0  0  0  0
  8  2  1  0  0  0  0
  8 11  1  0  0  0  0
 10 12  1  0  0  0  0
 11 14  2  0  0  0  0
 12  9  2  0  0  0  0
 12 14  1  0  0  0  0
 13 15  1  0  0  0  0
 13 10  2  0  0  0  0
 15  8  2  0  0  0  0
 16 19  1  0  0  0  0
 17 20  1  0  0  0  0
 17 18  2  0  0  0  0
 18 19  1  0  0  0  0
 20 16  2  0  0  0  0
 21 22  1  0  0  0  0
 22 27  1  0  0  0  0
 22 26  1  0  0  0  0
 23 24  1  0  0  0  0
 25 24  1  0  0  0  0
 26 23  1  0  0  0  0
 27 25  1  0  0  0  0
M  END
>  <MODEL>
7

>  <REMARK>
 VINA RESULT:      -6.6      3.816      6.142
  Name = 
  4 active torsions:
  status: ('A' for Active; 'I' for Inactive)
    1  A    between atoms: C_2  and  C_9
    2  A    between atoms: C_7  and  N_8
    3  A    between atoms: C_7  and  C_18
    4  A    between atoms: C_20  and  C_25
                            x       y       z     vdW  Elec       q    Type
                         _______ _______ _______ _____ _____    ______ ____

>  <TORSDO>
F 4

$$$$
=
 OpenBabel11042414213D

 27 30  0  0  1  0  0  0  0  0999 V2000
  193.3640  176.8410  144.9070 N   0  0  0  0  0  0  0  0  0  0  0  0
  190.9210  176.3600  144.3800 C   0  0  0  0  0  0  0  0  0  0  0  0
  194.0310  176.2270  143.9810 C   0  0  0  0  0  0  0  0  0  0  0  0
  192.2060  175.5780  142.3930 C   0  0  0  0  0  3  0  0  0  0  0  0
  193.4700  175.8550  142.6810 C   0  0  0  0  0  3  0  0  0  0  0  0
  191.0380  175.5620  143.2880 C   0  0  0  0  0  0  0  0  0  0  0  0
  191.9970  177.1590  144.8910 N   0  0  0  0  0  2  0  0  0  0  0  0
  189.6220  176.5560  145.0610 C   0  0  0  0  0  0  0  0  0  0  0  0
  185.6080  177.9830  146.1450 O   0  0  0  0  0  0  0  0  0  0  0  0
  187.0700  176.4370  146.8320 N   0  0  0  0  0  0  0  0  0  0  0  0
  188.7830  177.5270  144.5350 C   0  0  0  0  0  3  0  0  0  0  0  0
  186.7300  177.4370  145.9860 C   0  0  0  0  0  0  0  0  0  0  0  0
  188.1790  175.6660  146.9200 C   0  0  0  0  0  3  0  0  0  0  0  0
  187.5170  177.9120  144.9450 C   0  0  0  0  0  3  0  0  0  0  0  0
  189.3160  175.7180  146.1270 C   0  0  0  0  0  3  0  0  0  0  0  0
  189.7390  173.3530  143.2300 C   0  0  0  0  0  3  0  0  0  0  0  0
  188.9800  174.9730  141.8990 C   0  0  0  0  0  3  0  0  0  0  0  0
  188.2170  173.8280  141.7650 C   0  0  0  0  0  3  0  0  0  0  0  0
  188.6790  172.8530  142.5720 N   0  0  0  0  0  0  0  0  0  0  0  0
  189.9360  174.6650  142.8470 C   0  0  2  0  0  3  0  0  0  0  0  0
  195.5080  176.0180  144.1830 C   0  0  0  0  0  2  0  0  0  0  0  0
  195.9260  174.6090  144.1900 N   0  0  0  0  0  0  0  0  0  0  0  0
  195.8560  172.4720  145.3850 C   0  0  0  0  0  2  0  0  0  0  0  0
  197.2530  172.4980  145.5520 O   0  0  0  0  0  0  0  0  0  0  0  0
  197.7980  173.0400  144.3740 C   0  0  0  0  0  2  0  0  0  0  0  0
  195.3170  173.9030  145.3230 C   0  0  0  0  0  2  0  0  0  0  0  0
  197.3880  174.5090  144.2440 C   0  0  0  0  0  2  0  0  0  0  0  0
  2  7  1  0  0  0  0
  2  8  1  0  0  0  0
  3 21  1  0  0  0  0
  3  1  2  0  0  0  0
  4  5  2  0  0  0  0
  4  6  1  0  0  0  0
  5  3  1  0  0  0  0
  6  2  2  0  0  0  0
  7  1  1  0  0  0  0
  8 15  2  0  0  0  0
 10 13  2  0  0  0  0
 11 14  2  0  0  0  0
 11  8  1  0  0  0  0
 12  9  2  0  0  0  0
 12 10  1  0  0  0  0
 14 12  1  0  0  0  0
 15 13  1  0  0  0  0
 17 20  1  0  0  0  0
 18 17  2  0  0  0  0
 18 19  1  0  0  0  0
 19 16  2  0  0  0  0
 20 16  1  0  0  0  0
 20  6  1  6  0  0  0
 21 22  1  0  0  0  0
 22 27  1  0  0  0  0
 22 26  1  0  0  0  0
 23 24  1  0  0  0  0
 25 24  1  0  0  0  0
 26 23  1  0  0  0  0
 27 25  1  0  0  0  0
M  END
>  <MODEL>
8

>  <REMARK>
 VINA RESULT:      -6.6      5.194     10.731
  Name = 
  4 active torsions:
  status: ('A' for Active; 'I' for Inactive)
    1  A    between atoms: C_2  and  C_9
    2  A    between atoms: C_7  and  N_8
    3  A    between atoms: C_7  and  C_18
    4  A    between atoms: C_20  and  C_25
                            x       y       z     vdW  Elec       q    Type
                         _______ _______ _______ _____ _____    ______ ____

>  <TORSDO>
F 4

$$$$
=
 OpenBabel11042414213D

 27 30  0  0  1  0  0  0  0  0999 V2000
  189.7490  177.0390  143.9540 N   0  0  0  0  0  0  0  0  0  0  0  0
  191.9980  175.8660  144.1730 C   0  0  0  0  0  0  0  0  0  0  0  0
  188.9060  176.2540  144.5470 C   0  0  1  0  0  3  0  0  0  0  0  0
  190.4390  174.6230  145.6690 C   0  0  0  0  0  3  0  0  0  0  0  0
  189.2830  175.2610  145.5540 C   0  0  0  0  0  3  0  0  0  0  0  0
  191.6410  174.7310  144.8260 C   0  0  0  0  0  0  0  0  0  0  0  0
  191.1480  177.0170  144.0720 N   0  0  0  0  0  0  0  0  0  0  0  0
  193.3540  176.0440  143.6110 C   0  0  0  0  0  0  0  0  0  0  0  0
  196.7650  176.3370  140.8520 O   0  0  0  0  0  0  0  0  0  0  0  0
  196.3520  176.6270  143.0300 N   0  0  0  0  0  0  0  0  0  0  0  0
  193.4910  175.8620  142.2420 C   0  0  0  0  0  3  0  0  0  0  0  0
  195.9220  176.3170  141.7850 C   0  0  0  0  0  0  0  0  0  0  0  0
  195.7070  176.6950  144.2180 C   0  0  0  0  0  3  0  0  0  0  0  0
  194.6180  175.9800  141.4460 C   0  0  0  0  0  3  0  0  0  0  0  0
  194.3690  176.4380  144.4750 C   0  0  0  0  0  3  0  0  0  0  0  0
  192.3820  172.4270  143.9800 C   0  0  0  0  0  3  0  0  0  0  0  0
  193.5040  173.2390  145.7280 C   0  0  0  0  0  3  0  0  0  0  0  0
  193.9760  171.9880  145.3790 C   0  0  0  0  0  3  0  0  0  0  0  0
  193.2950  171.5020  144.3220 N   0  0  0  0  0  0  0  0  0  0  0  0
  192.5010  173.5170  144.8200 C   0  0  2  0  0  3  0  0  0  0  0  0
  187.4360  176.4740  144.3080 C   0  0  0  0  0  2  0  0  0  0  0  0
  186.8240  177.4870  145.1800 N   0  0  0  0  0  0  0  0  0  0  0  0
  185.1720  177.9320  146.9320 C   0  0  0  0  0  2  0  0  0  0  0  0
  184.4600  178.7860  146.0700 O   0  0  0  0  0  0  0  0  0  0  0  0
  185.4120  179.4840  145.3050 C   0  0  0  0  0  2  0  0  0  0  0  0
  185.8880  176.8540  146.1150 C   0  0  0  0  0  2  0  0  0  0  0  0
  186.1440  178.5090  144.3790 C   0  0  0  0  0  2  0  0  0  0  0  0
  1  7  2  0  0  0  0
  1  3  1  0  0  0  0
  2  6  2  0  0  0  0
  3 21  1  1  0  0  0
  3  5  1  0  0  0  0
  5  4  2  0  0  0  0
  6  4  1  0  0  0  0
  7  2  1  0  0  0  0
  8  2  1  0  0  0  0
  8 15  2  0  0  0  0
  9 12  2  0  0  0  0
 10 13  2  0  0  0  0
 11  8  1  0  0  0  0
 12 10  1  0  0  0  0
 13 15  1  0  0  0  0
 14 12  1  0  0  0  0
 14 11  2  0  0  0  0
 16 19  2  0  0  0  0
 16 20  1  0  0  0  0
 18 17  2  0  0  0  0
 19 18  1  0  0  0  0
 20  6  1  1  0  0  0
 20 17  1  0  0  0  0
 21 22  1  0  0  0  0
 22 26  1  0  0  0  0
 24 23  1  0  0  0  0
 25 24  1  0  0  0  0
 26 23  1  0  0  0  0
 27 22  1  0  0  0  0
 27 25  1  0  0  0  0
M  END
>  <MODEL>
9

>  <REMARK>
 VINA RESULT:      -6.5      4.252      7.369
  Name = 
  4 active torsions:
  status: ('A' for Active; 'I' for Inactive)
    1  A    between atoms: C_2  and  C_9
    2  A    between atoms: C_7  and  N_8
    3  A    between atoms: C_7  and  C_18
    4  A    between atoms: C_20  and  C_25
                            x       y       z     vdW  Elec       q    Type
                         _______ _______ _______ _____ _____    ______ ____

>  <TORSDO>
F 4

$$$$
