=
 OpenBabel11042418153D

 53 60  0  0  1  0  0  0  0  0999 V2000
  193.7010  173.7200  145.0010 C   0  0  0  0  0  0  0  0  0  0  0  0
  193.4370  172.5150  145.2680 O   0  0  0  0  0  0  0  0  0  0  0  0
  192.4130  174.8960  146.8130 C   0  0  0  0  0  3  0  0  0  0  0  0
  192.2340  175.6880  144.5340 C   0  0  0  0  0  3  0  0  0  0  0  0
  191.5140  175.8830  147.2250 C   0  0  0  0  0  3  0  0  0  0  0  0
  192.7780  174.7860  145.4620 C   0  0  0  0  0  0  0  0  0  0  0  0
  191.3260  176.6770  144.9380 C   0  0  0  0  0  0  0  0  0  0  0  0
  190.9680  176.7660  146.2910 C   0  0  0  0  0  3  0  0  0  0  0  0
  190.7300  177.5900  143.9490 C   0  0  0  0  0  0  0  0  0  0  0  0
  189.6610  177.1380  143.1150 N   0  0  0  0  0  2  0  0  0  0  0  0
  191.1790  178.7660  143.8220 O   0  0  0  0  0  0  0  0  0  0  0  0
  189.1100  177.9700  142.0560 C   0  0  0  0  0  2  0  0  0  0  0  0
  187.9280  177.2530  141.4250 C   0  0  0  0  0  2  0  0  0  0  0  0
  184.0650  178.3200  142.7990 C   0  0  0  0  0  2  0  0  0  0  0  0
  185.6920  178.2550  140.8820 C   0  0  0  0  0  2  0  0  0  0  0  0
  185.9960  176.7360  142.7490 O   0  0  0  0  0  0  0  0  0  0  0  0
  184.9460  177.2870  143.5310 C   0  0  1  0  0  3  0  0  0  0  0  0
  184.2200  178.1630  141.2870 C   0  0  0  0  0  2  0  0  0  0  0  0
  186.6200  177.7620  142.0070 C   0  0  1  0  0  3  0  0  0  0  0  0
  186.3730  179.7040  148.0350 O   0  0  0  0  0  1  0  0  0  0  0  0
  185.4820  179.3210  145.0030 C   0  0  0  0  0  2  0  0  0  0  0  0
  186.0070  178.3870  147.7550 C   0  0  1  0  0  3  0  0  0  0  0  0
  184.5670  178.3500  147.2140 C   0  0  0  0  0  2  0  0  0  0  0  0
  186.4680  176.9800  145.6710 C   0  0  0  0  0  2  0  0  0  0  0  0
  187.0620  177.7460  146.8500 C   0  0  0  0  0  2  0  0  0  0  0  0
  185.4430  177.8060  144.8780 C   0  0  2  0  0  0  0  0  0  0  0  0
  184.3750  178.5200  145.6910 C   0  0  2  0  0  3  0  0  0  0  0  0
  194.9520  174.0140  144.2200 C   0  0  2  0  0  3  0  0  0  0  0  0
  195.9980  174.7510  145.0680 C   0  0  2  0  0  3  0  0  0  0  0  0
  196.5310  173.8750  146.0970 N   0  0  0  0  0  1  0  0  0  0  0  0
  195.4390  175.8690  145.6690 F   0  0  0  0  0  0  0  0  0  0  0  0
  194.6130  174.7660  143.0160 N   0  0  0  0  0  2  0  0  0  0  0  0
  195.6740  174.5800  142.0300 C   0  0  1  0  0  3  0  0  0  0  0  0
  195.8110  173.1080  141.6920 C   0  0  0  0  0  1  0  0  0  0  0  0
  195.3490  175.3100  140.8130 N   0  0  0  0  0  2  0  0  0  0  0  0
  191.6770  174.2010  137.7610 C   0  0  2  0  0  3  0  0  0  0  0  0
  196.1200  174.7010  138.3150 S   0  0  0  0  0  0  0  0  0  0  0  0
  195.0710  174.3380  139.7660 C   0  0  2  0  0  3  0  0  0  0  0  0
  193.7530  174.6600  139.0830 C   0  0  1  0  0  0  0  0  0  0  0  0
  193.8700  175.6370  136.8190 C   0  0  0  0  0  2  0  0  0  0  0  0
  192.7200  174.0160  139.8500 O   0  0  0  0  0  0  0  0  0  0  0  0
  192.2800  174.9740  136.1900 S   0  0  0  0  0  0  0  0  0  0  0  0
  194.4190  174.5650  137.7270 C   0  0  1  0  0  3  0  0  0  0  0  0
  192.8150  173.5590  138.5880 C   0  0  1  0  0  3  0  0  0  0  0  0
  190.6470  173.2170  137.4650 N   0  0  0  0  0  2  0  0  0  0  0  0
  189.4720  173.5920  138.2350 C   0  0  0  0  0  2  0  0  0  0  0  0
  189.1670  172.6300  140.4750 C   0  0  0  0  0  0  0  0  0  0  0  0
  191.6700  170.1810  140.4750 O   0  0  0  0  0  0  0  0  0  0  0  0
  188.4910  173.4750  141.1200 O   0  0  0  0  0  0  0  0  0  0  0  0
  189.9470  170.9190  138.5590 S   0  0  0  0  0  0  0  0  0  0  0  0
  190.1560  171.8420  141.1090 N   0  0  0  0  0  2  0  0  0  0  0  0
  188.9600  172.3970  139.0170 C   0  0  2  0  0  3  0  0  0  0  0  0
  190.7010  170.9300  140.1770 C   0  0  0  0  0  0  0  0  0  0  0  0
  1  2  2  0  0  0  0
  1  6  1  0  0  0  0
  3  5  1  0  0  0  0
  4  7  2  0  0  0  0
  4  6  1  0  0  0  0
  6  3  2  0  0  0  0
  7  8  1  0  0  0  0
  8  5  2  0  0  0  0
  9  7  1  0  0  0  0
 10  9  1  0  0  0  0
 11  9  2  0  0  0  0
 12 10  1  0  0  0  0
 13 12  1  0  0  0  0
 15 18  1  0  0  0  0
 15 19  1  0  0  0  0
 16 17  1  0  0  0  0
 17 14  1  6  0  0  0
 17 26  1  0  0  0  0
 18 14  1  0  0  0  0
 19 13  1  6  0  0  0
 19 16  1  0  0  0  0
 22 20  1  6  0  0  0
 23 22  1  0  0  0  0
 24 25  1  0  0  0  0
 25 22  1  0  0  0  0
 26 21  1  6  0  0  0
 26 24  1  0  0  0  0
 26 27  1  0  0  0  0
 27 21  1  1  0  0  0
 27 23  1  0  0  0  0
 28 32  1  6  0  0  0
 28  1  1  0  0  0  0
 28 29  1  0  0  0  0
 29 31  1  1  0  0  0
 29 30  1  0  0  0  0
 33 34  1  6  0  0  0
 33 32  1  0  0  0  0
 35 33  1  0  0  0  0
 36 45  1  6  0  0  0
 36 44  1  0  0  0  0
 37 38  1  0  0  0  0
 38 35  1  1  0  0  0
 39 38  1  0  0  0  0
 39 41  1  1  0  0  0
 42 40  1  0  0  0  0
 42 36  1  0  0  0  0
 43 40  1  6  0  0  0
 43 37  1  0  0  0  0
 43 39  1  0  0  0  0
 44 39  1  0  0  0  0
 44 41  1  1  0  0  0
 45 46  1  0  0  0  0
 47 51  1  0  0  0  0
 47 49  2  0  0  0  0
 50 52  1  0  0  0  0
 50 53  1  0  0  0  0
 52 46  1  6  0  0  0
 52 47  1  0  0  0  0
 53 48  2  0  0  0  0
 53 51  1  0  0  0  0
M  END
>  <MODEL>
1

>  <REMARK>
 VINA RESULT:      -8.1      0.000      0.000
  Name = 
  15 active torsions:
  status: ('A' for Active; 'I' for Inactive)
    1  A    between atoms: C_2  and  N_4
    2  A    between atoms: C_2  and  N_9
    3  A    between atoms: C_3  and  N_51
    4  A    between atoms: N_4  and  C_13
    5  A    between atoms: N_9  and  C_18
    6  A    between atoms: C_13  and  C_17
    7  A    between atoms: C_13  and  C_39
    8  A    between atoms: C_20  and  C_39
    9  A    between atoms: C_21  and  C_27
   10  A    between atoms: N_29  and  C_52
   11  A    between atoms: C_34  and  C_35
   12  A    between atoms: C_37  and  C_44
   13  A    between atoms: C_44  and  C_52
   14  A    between atoms: C_48  and  C_53
   15  A    between atoms: N_51  and  C_53
                            x       y       z     vdW  Elec       q    Type
                         _______ _______ _______ _____ _____    ______ ____

>  <TORSDO>
F 15

$$$$
=
 OpenBabel11042418153D

 53 60  0  0  1  0  0  0  0  0999 V2000
  194.2480  176.2480  146.0790 C   0  0  0  0  0  0  0  0  0  0  0  0
  194.5410  176.9910  147.0570 O   0  0  0  0  0  0  0  0  0  0  0  0
  192.1500  174.8680  146.2270 C   0  0  0  0  0  3  0  0  0  0  0  0
  192.1320  176.9090  144.9280 C   0  0  0  0  0  3  0  0  0  0  0  0
  190.8180  174.6350  145.8790 C   0  0  0  0  0  3  0  0  0  0  0  0
  192.8220  176.0060  145.7510 C   0  0  0  0  0  0  0  0  0  0  0  0
  190.7960  176.6790  144.5690 C   0  0  0  0  0  0  0  0  0  0  0  0
  190.1440  175.5340  145.0490 C   0  0  0  0  0  3  0  0  0  0  0  0
  190.0950  177.6130  143.6710 C   0  0  0  0  0  0  0  0  0  0  0  0
  189.3170  177.1080  142.5840 N   0  0  0  0  0  2  0  0  0  0  0  0
  190.2000  178.8600  143.8490 O   0  0  0  0  0  0  0  0  0  0  0  0
  188.6910  177.9920  141.6120 C   0  0  0  0  0  2  0  0  0  0  0  0
  187.4590  177.3110  141.0420 C   0  0  0  0  0  2  0  0  0  0  0  0
  183.7080  178.4520  142.6460 C   0  0  0  0  0  2  0  0  0  0  0  0
  185.2100  178.3470  140.6330 C   0  0  0  0  0  2  0  0  0  0  0  0
  185.6050  176.8340  142.4870 O   0  0  0  0  0  0  0  0  0  0  0  0
  184.6160  177.4080  143.3300 C   0  0  1  0  0  3  0  0  0  0  0  0
  183.7650  178.2830  141.1290 C   0  0  0  0  0  2  0  0  0  0  0  0
  186.1980  177.8450  141.7000 C   0  0  1  0  0  3  0  0  0  0  0  0
  186.3110  179.8080  147.7480 O   0  0  0  0  0  1  0  0  0  0  0  0
  185.1660  179.4380  144.8010 C   0  0  0  0  0  2  0  0  0  0  0  0
  185.9980  178.4780  147.4670 C   0  0  1  0  0  3  0  0  0  0  0  0
  184.5190  178.3650  147.0600 C   0  0  0  0  0  2  0  0  0  0  0  0
  186.3450  177.1470  145.3120 C   0  0  0  0  0  2  0  0  0  0  0  0
  187.0000  177.9220  146.4520 C   0  0  0  0  0  2  0  0  0  0  0  0
  185.2040  177.9270  144.6400 C   0  0  2  0  0  0  0  0  0  0  0  0
  184.1760  178.5570  145.5660 C   0  0  2  0  0  3  0  0  0  0  0  0
  195.3750  175.6410  145.2890 C   0  0  2  0  0  3  0  0  0  0  0  0
  195.6520  176.4180  143.9940 C   0  0  2  0  0  3  0  0  0  0  0  0
  194.9530  175.8090  142.8750 N   0  0  0  0  0  1  0  0  0  0  0  0
  197.0100  176.4430  143.7200 F   0  0  0  0  0  0  0  0  0  0  0  0
  195.0840  174.2370  145.0190 N   0  0  0  0  0  2  0  0  0  0  0  0
  196.3440  173.5090  144.8990 C   0  0  1  0  0  3  0  0  0  0  0  0
  197.0490  173.4730  146.2420 C   0  0  0  0  0  1  0  0  0  0  0  0
  196.0850  172.1420  144.4700 N   0  0  0  0  0  2  0  0  0  0  0  0
  192.0920  170.8440  141.9410 C   0  0  2  0  0  3  0  0  0  0  0  0
  194.5710  170.2700  145.6580 S   0  0  0  0  0  0  0  0  0  0  0  0
  194.6850  171.8450  144.7390 C   0  0  2  0  0  3  0  0  0  0  0  0
  194.0030  171.3340  143.4810 C   0  0  1  0  0  0  0  0  0  0  0  0
  193.5050  168.9190  143.3750 C   0  0  0  0  0  2  0  0  0  0  0  0
  193.5410  172.4920  142.7620 O   0  0  0  0  0  0  0  0  0  0  0  0
  192.0270  169.0280  142.2940 S   0  0  0  0  0  0  0  0  0  0  0  0
  193.4540  170.1490  144.2460 C   0  0  1  0  0  3  0  0  0  0  0  0
  192.5480  171.6760  143.1620 C   0  0  1  0  0  3  0  0  0  0  0  0
  190.7940  171.3030  141.4690 N   0  0  0  0  0  2  0  0  0  0  0  0
  190.4720  172.5030  142.2240 C   0  0  0  0  0  2  0  0  0  0  0  0
  188.5560  173.5380  141.0870 C   0  0  0  0  0  0  0  0  0  0  0  0
  189.0750  172.4320  137.8050 O   0  0  0  0  0  0  0  0  0  0  0  0
  187.7470  173.8510  141.9990 O   0  0  0  0  0  0  0  0  0  0  0  0
  190.8080  173.3330  139.6400 S   0  0  0  0  0  0  0  0  0  0  0  0
  188.1030  173.1150  139.8150 N   0  0  0  0  0  2  0  0  0  0  0  0
  190.0330  173.6080  141.2810 C   0  0  2  0  0  3  0  0  0  0  0  0
  189.2130  172.9060  138.9650 C   0  0  0  0  0  0  0  0  0  0  0  0
  1  2  2  0  0  0  0
  4  6  1  0  0  0  0
  5  3  1  0  0  0  0
  6  1  1  0  0  0  0
  6  3  2  0  0  0  0
  7  4  2  0  0  0  0
  7  8  1  0  0  0  0
  8  5  2  0  0  0  0
  9 11  2  0  0  0  0
  9  7  1  0  0  0  0
 10  9  1  0  0  0  0
 12 10  1  0  0  0  0
 13 12  1  0  0  0  0
 15 18  1  0  0  0  0
 15 19  1  0  0  0  0
 16 17  1  0  0  0  0
 17 14  1  6  0  0  0
 17 26  1  0  0  0  0
 18 14  1  0  0  0  0
 19 13  1  6  0  0  0
 19 16  1  0  0  0  0
 22 20  1  6  0  0  0
 23 22  1  0  0  0  0
 24 25  1  0  0  0  0
 25 22  1  0  0  0  0
 26 21  1  6  0  0  0
 26 24  1  0  0  0  0
 26 27  1  0  0  0  0
 27 21  1  6  0  0  0
 27 23  1  0  0  0  0
 28 32  1  6  0  0  0
 28  1  1  0  0  0  0
 29 30  1  6  0  0  0
 29 28  1  0  0  0  0
 31 29  1  0  0  0  0
 33 32  1  0  0  0  0
 33 34  1  1  0  0  0
 35 33  1  0  0  0  0
 36 45  1  1  0  0  0
 36 42  1  0  0  0  0
 36 44  1  0  0  0  0
 38 35  1  6  0  0  0
 38 37  1  0  0  0  0
 39 41  1  6  0  0  0
 39 43  1  0  0  0  0
 39 38  1  0  0  0  0
 42 40  1  0  0  0  0
 43 40  1  6  0  0  0
 43 37  1  0  0  0  0
 44 41  1  6  0  0  0
 44 39  1  0  0  0  0
 45 46  1  0  0  0  0
 47 52  1  0  0  0  0
 47 49  2  0  0  0  0
 48 53  2  0  0  0  0
 50 52  1  0  0  0  0
 51 47  1  0  0  0  0
 52 46  1  1  0  0  0
 53 50  1  0  0  0  0
 53 51  1  0  0  0  0
M  END
>  <MODEL>
2

>  <REMARK>
 VINA RESULT:      -8.1      2.362      3.522
  Name = 
  15 active torsions:
  status: ('A' for Active; 'I' for Inactive)
    1  A    between atoms: C_2  and  N_4
    2  A    between atoms: C_2  and  N_9
    3  A    between atoms: C_3  and  N_51
    4  A    between atoms: N_4  and  C_13
    5  A    between atoms: N_9  and  C_18
    6  A    between atoms: C_13  and  C_17
    7  A    between atoms: C_13  and  C_39
    8  A    between atoms: C_20  and  C_39
    9  A    between atoms: C_21  and  C_27
   10  A    between atoms: N_29  and  C_52
   11  A    between atoms: C_34  and  C_35
   12  A    between atoms: C_37  and  C_44
   13  A    between atoms: C_44  and  C_52
   14  A    between atoms: C_48  and  C_53
   15  A    between atoms: N_51  and  C_53
                            x       y       z     vdW  Elec       q    Type
                         _______ _______ _______ _____ _____    ______ ____

>  <TORSDO>
F 15

$$$$
=
 OpenBabel11042418153D

 53 60  0  0  1  0  0  0  0  0999 V2000
  193.1520  176.1960  146.3470 C   0  0  0  0  0  0  0  0  0  0  0  0
  193.6180  176.9600  147.2380 O   0  0  0  0  0  0  0  0  0  0  0  0
  191.3090  174.5180  146.0090 C   0  0  0  0  0  3  0  0  0  0  0  0
  190.7590  176.7250  146.8320 C   0  0  0  0  0  3  0  0  0  0  0  0
  189.9560  174.1720  146.0330 C   0  0  0  0  0  3  0  0  0  0  0  0
  191.7240  175.8000  146.4040 C   0  0  0  0  0  0  0  0  0  0  0  0
  189.3980  176.3880  146.8540 C   0  0  0  0  0  0  0  0  0  0  0  0
  189.0030  175.1050  146.4480 C   0  0  0  0  0  3  0  0  0  0  0  0
  188.3910  177.3810  147.2650 C   0  0  0  0  0  0  0  0  0  0  0  0
  187.0010  177.0950  147.1050 N   0  0  0  0  0  2  0  0  0  0  0  0
  188.7580  178.4950  147.7380 O   0  0  0  0  0  0  0  0  0  0  0  0
  185.9750  178.0830  147.4020 C   0  0  0  0  0  2  0  0  0  0  0  0
  185.9990  179.1620  146.3320 C   0  0  0  0  0  2  0  0  0  0  0  0
  184.4440  178.0890  142.5410 C   0  0  0  0  0  2  0  0  0  0  0  0
  183.9670  178.7900  144.9090 C   0  0  0  0  0  2  0  0  0  0  0  0
  186.1370  179.2790  143.9410 O   0  0  0  0  0  0  0  0  0  0  0  0
  185.8960  178.5740  142.7310 C   0  0  1  0  0  3  0  0  0  0  0  0
  183.5040  178.8760  143.4530 C   0  0  0  0  0  2  0  0  0  0  0  0
  185.4920  178.6160  145.0080 C   0  0  1  0  0  3  0  0  0  0  0  0
  189.7710  175.1530  141.5320 O   0  0  0  0  0  1  0  0  0  0  0  0
  187.8190  177.6570  141.3000 C   0  0  0  0  0  2  0  0  0  0  0  0
  189.0080  175.3370  142.6860 C   0  0  1  0  0  3  0  0  0  0  0  0
  189.2470  176.7480  143.2500 C   0  0  0  0  0  2  0  0  0  0  0  0
  186.5570  176.0220  142.9220 C   0  0  0  0  0  2  0  0  0  0  0  0
  187.5470  174.9880  142.3910 C   0  0  0  0  0  2  0  0  0  0  0  0
  186.9110  177.4570  142.5030 C   0  0  2  0  0  0  0  0  0  0  0  0
  188.3530  177.8880  142.7150 C   0  0  2  0  0  3  0  0  0  0  0  0
  194.0820  175.7240  145.2630 C   0  0  2  0  0  3  0  0  0  0  0  0
  193.5350  176.0350  143.8630 C   0  0  2  0  0  3  0  0  0  0  0  0
  194.6240  176.2980  142.9370 N   0  0  0  0  0  1  0  0  0  0  0  0
  192.6950  177.1370  143.9000 F   0  0  0  0  0  0  0  0  0  0  0  0
  194.3440  174.2970  145.4310 N   0  0  0  0  0  2  0  0  0  0  0  0
  195.6610  173.9930  144.8790 C   0  0  1  0  0  3  0  0  0  0  0  0
  196.6450  173.7400  146.0050 C   0  0  0  0  0  1  0  0  0  0  0  0
  195.5830  172.7990  144.0490 N   0  0  0  0  0  2  0  0  0  0  0  0
  192.1120  171.5900  140.8060 C   0  0  2  0  0  3  0  0  0  0  0  0
  194.1650  170.6140  144.6950 S   0  0  0  0  0  0  0  0  0  0  0  0
  194.2060  172.3280  144.0660 C   0  0  2  0  0  3  0  0  0  0  0  0
  193.7480  171.9830  142.6590 C   0  0  1  0  0  0  0  0  0  0  0  0
  193.5540  169.5870  142.0970 C   0  0  0  0  0  2  0  0  0  0  0  0
  193.2460  173.1990  142.0770 O   0  0  0  0  0  0  0  0  0  0  0  0
  192.2180  169.7420  140.8500 S   0  0  0  0  0  0  0  0  0  0  0  0
  193.2520  170.6360  143.1380 C   0  0  1  0  0  3  0  0  0  0  0  0
  192.3140  172.2350  142.1960 C   0  0  1  0  0  3  0  0  0  0  0  0
  190.8380  171.9990  140.2360 N   0  0  0  0  0  2  0  0  0  0  0  0
  190.8680  171.6310  138.8290 C   0  0  0  0  0  2  0  0  0  0  0  0
  189.5130  172.5730  137.0090 C   0  0  0  0  0  0  0  0  0  0  0  0
  187.7790  175.0860  138.7240 O   0  0  0  0  0  0  0  0  0  0  0  0
  190.0530  172.1770  135.9420 O   0  0  0  0  0  0  0  0  0  0  0  0
  188.3740  172.5720  139.4390 S   0  0  0  0  0  0  0  0  0  0  0  0
  188.8980  173.8440  137.0930 N   0  0  0  0  0  2  0  0  0  0  0  0
  189.4740  171.7280  138.2370 C   0  0  2  0  0  3  0  0  0  0  0  0
  188.3070  173.9980  138.3680 C   0  0  0  0  0  0  0  0  0  0  0  0
  1  6  1  0  0  0  0
  1  2  2  0  0  0  0
  3  5  2  0  0  0  0
  3  6  1  0  0  0  0
  4  7  1  0  0  0  0
  5  8  1  0  0  0  0
  6  4  2  0  0  0  0
  7  9  1  0  0  0  0
  8  7  2  0  0  0  0
  9 11  2  0  0  0  0
 10  9  1  0  0  0  0
 10 12  1  0  0  0  0
 13 12  1  0  0  0  0
 14 18  1  0  0  0  0
 15 19  1  0  0  0  0
 16 19  1  0  0  0  0
 17 14  1  1  0  0  0
 17 16  1  0  0  0  0
 18 15  1  0  0  0  0
 19 13  1  1  0  0  0
 22 20  1  6  0  0  0
 22 23  1  0  0  0  0
 25 22  1  0  0  0  0
 25 24  1  0  0  0  0
 26 21  1  6  0  0  0
 26 27  1  0  0  0  0
 26 17  1  0  0  0  0
 26 24  1  0  0  0  0
 27 21  1  6  0  0  0
 27 23  1  0  0  0  0
 28 32  1  6  0  0  0
 28  1  1  0  0  0  0
 29 30  1  6  0  0  0
 29 31  1  0  0  0  0
 29 28  1  0  0  0  0
 33 32  1  0  0  0  0
 33 34  1  1  0  0  0
 35 33  1  0  0  0  0
 36 45  1  1  0  0  0
 36 42  1  0  0  0  0
 36 44  1  0  0  0  0
 38 35  1  6  0  0  0
 38 37  1  0  0  0  0
 39 41  1  6  0  0  0
 39 43  1  0  0  0  0
 39 38  1  0  0  0  0
 42 40  1  0  0  0  0
 43 40  1  6  0  0  0
 43 37  1  0  0  0  0
 44 41  1  6  0  0  0
 44 39  1  0  0  0  0
 46 45  1  0  0  0  0
 47 51  1  0  0  0  0
 47 52  1  0  0  0  0
 49 47  2  0  0  0  0
 51 53  1  0  0  0  0
 52 46  1  1  0  0  0
 52 50  1  0  0  0  0
 53 48  2  0  0  0  0
 53 50  1  0  0  0  0
M  END
>  <MODEL>
3

>  <REMARK>
 VINA RESULT:      -7.7      2.639      4.431
  Name = 
  15 active torsions:
  status: ('A' for Active; 'I' for Inactive)
    1  A    between atoms: C_2  and  N_4
    2  A    between atoms: C_2  and  N_9
    3  A    between atoms: C_3  and  N_51
    4  A    between atoms: N_4  and  C_13
    5  A    between atoms: N_9  and  C_18
    6  A    between atoms: C_13  and  C_17
    7  A    between atoms: C_13  and  C_39
    8  A    between atoms: C_20  and  C_39
    9  A    between atoms: C_21  and  C_27
   10  A    between atoms: N_29  and  C_52
   11  A    between atoms: C_34  and  C_35
   12  A    between atoms: C_37  and  C_44
   13  A    between atoms: C_44  and  C_52
   14  A    between atoms: C_48  and  C_53
   15  A    between atoms: N_51  and  C_53
                            x       y       z     vdW  Elec       q    Type
                         _______ _______ _______ _____ _____    ______ ____

>  <TORSDO>
F 15

$$$$
=
 OpenBabel11042418153D

 53 60  0  0  1  0  0  0  0  0999 V2000
  191.9360  171.7290  137.8830 C   0  0  0  0  0  0  0  0  0  0  0  0
  191.0880  171.9630  136.9770 O   0  0  0  0  0  0  0  0  0  0  0  0
  191.8560  170.1170  139.8120 C   0  0  0  0  0  3  0  0  0  0  0  0
  190.5980  172.1790  139.9440 C   0  0  0  0  0  3  0  0  0  0  0  0
  191.3770  169.7440  141.0690 C   0  0  0  0  0  3  0  0  0  0  0  0
  191.4680  171.3360  139.2340 C   0  0  0  0  0  0  0  0  0  0  0  0
  190.1070  171.8090  141.2040 C   0  0  0  0  0  0  0  0  0  0  0  0
  190.5010  170.5840  141.7610 C   0  0  0  0  0  3  0  0  0  0  0  0
  189.1620  172.6820  141.9210 C   0  0  0  0  0  0  0  0  0  0  0  0
  189.0680  174.0660  141.5770 N   0  0  0  0  0  2  0  0  0  0  0  0
  188.4510  172.2120  142.8550 O   0  0  0  0  0  0  0  0  0  0  0  0
  188.2240  174.9860  142.3230 C   0  0  0  0  0  2  0  0  0  0  0  0
  188.3720  176.3810  141.7400 C   0  0  0  0  0  2  0  0  0  0  0  0
  184.6690  178.3800  142.2220 C   0  0  0  0  0  2  0  0  0  0  0  0
  186.5850  177.8030  140.6990 C   0  0  0  0  0  2  0  0  0  0  0  0
  186.1490  176.4110  142.6380 O   0  0  0  0  0  0  0  0  0  0  0  0
  185.1220  177.2420  143.1600 C   0  0  1  0  0  3  0  0  0  0  0  0
  185.0810  178.0710  140.7850 C   0  0  0  0  0  2  0  0  0  0  0  0
  187.1290  177.2110  142.0120 C   0  0  1  0  0  3  0  0  0  0  0  0
  186.0370  179.6300  147.8100 O   0  0  0  0  0  1  0  0  0  0  0  0
  185.5980  179.2560  144.6790 C   0  0  0  0  0  2  0  0  0  0  0  0
  185.6050  178.3430  147.4880 C   0  0  1  0  0  3  0  0  0  0  0  0
  184.2690  178.4170  146.7280 C   0  0  0  0  0  2  0  0  0  0  0  0
  186.2590  176.8550  145.5150 C   0  0  0  0  0  2  0  0  0  0  0  0
  186.7280  177.5950  146.7650 C   0  0  0  0  0  2  0  0  0  0  0  0
  185.4470  177.7470  144.5640 C   0  0  2  0  0  0  0  0  0  0  0  0
  184.3320  178.5680  145.1930 C   0  0  2  0  0  3  0  0  0  0  0  0
  193.3940  171.8650  137.5390 C   0  0  2  0  0  3  0  0  0  0  0  0
  193.9740  170.5610  136.9720 C   0  0  2  0  0  3  0  0  0  0  0  0
  194.6920  170.8160  135.7360 N   0  0  0  0  0  1  0  0  0  0  0  0
  192.9640  169.6430  136.7290 F   0  0  0  0  0  0  0  0  0  0  0  0
  194.1350  172.3140  138.7130 N   0  0  0  0  0  2  0  0  0  0  0  0
  195.0350  173.3930  138.3180 C   0  0  1  0  0  3  0  0  0  0  0  0
  194.2520  174.6810  138.1460 C   0  0  0  0  0  1  0  0  0  0  0  0
  196.0450  173.5950  139.3480 N   0  0  0  0  0  2  0  0  0  0  0  0
  194.4840  174.4410  143.9170 C   0  0  2  0  0  3  0  0  0  0  0  0
  197.0990  175.7780  140.5020 S   0  0  0  0  0  0  0  0  0  0  0  0
  195.6390  174.7360  140.1570 C   0  0  2  0  0  3  0  0  0  0  0  0
  195.4170  174.3080  141.5980 C   0  0  1  0  0  0  0  0  0  0  0  0
  197.1340  174.9680  143.2440 C   0  0  0  0  0  2  0  0  0  0  0  0
  194.0540  173.8540  141.6900 O   0  0  0  0  0  0  0  0  0  0  0  0
  196.0350  175.0680  144.7090 S   0  0  0  0  0  0  0  0  0  0  0  0
  196.2960  175.4410  142.0830 C   0  0  1  0  0  3  0  0  0  0  0  0
  194.3160  174.9270  142.4590 C   0  0  1  0  0  3  0  0  0  0  0  0
  193.3300  174.8260  144.7160 N   0  0  0  0  0  2  0  0  0  0  0  0
  192.6990  175.9440  144.0350 C   0  0  0  0  0  2  0  0  0  0  0  0
  190.6670  177.0220  144.8980 C   0  0  0  0  0  0  0  0  0  0  0  0
  189.9330  174.9410  147.6160 O   0  0  0  0  0  0  0  0  0  0  0  0
  190.6540  178.1770  144.3950 O   0  0  0  0  0  0  0  0  0  0  0  0
  190.7710  174.3510  145.1400 S   0  0  0  0  0  0  0  0  0  0  0  0
  190.1690  176.7820  146.1990 N   0  0  0  0  0  2  0  0  0  0  0  0
  191.1900  175.8400  144.1530 C   0  0  2  0  0  3  0  0  0  0  0  0
  190.2310  175.3980  146.4800 C   0  0  0  0  0  0  0  0  0  0  0  0
  1  6  1  0  0  0  0
  2  1  2  0  0  0  0
  3  5  1  0  0  0  0
  4  7  2  0  0  0  0
  5  8  2  0  0  0  0
  6  3  2  0  0  0  0
  6  4  1  0  0  0  0
  7  8  1  0  0  0  0
  7  9  1  0  0  0  0
  9 11  2  0  0  0  0
 10  9  1  0  0  0  0
 10 12  1  0  0  0  0
 13 12  1  0  0  0  0
 15 18  1  0  0  0  0
 15 19  1  0  0  0  0
 16 17  1  0  0  0  0
 17 14  1  6  0  0  0
 17 26  1  0  0  0  0
 18 14  1  0  0  0  0
 19 13  1  6  0  0  0
 19 16  1  0  0  0  0
 22 20  1  6  0  0  0
 23 22  1  0  0  0  0
 24 25  1  0  0  0  0
 25 22  1  0  0  0  0
 26 21  1  6  0  0  0
 26 27  1  0  0  0  0
 26 24  1  0  0  0  0
 27 21  1  1  0  0  0
 27 23  1  0  0  0  0
 28  1  1  1  0  0  0
 28 32  1  0  0  0  0
 29 30  1  6  0  0  0
 29 28  1  0  0  0  0
 31 29  1  0  0  0  0
 33 34  1  1  0  0  0
 33 32  1  0  0  0  0
 33 35  1  0  0  0  0
 36 42  1  0  0  0  0
 36 45  1  1  0  0  0
 37 43  1  0  0  0  0
 38 35  1  6  0  0  0
 38 37  1  0  0  0  0
 38 39  1  0  0  0  0
 39 41  1  1  0  0  0
 39 43  1  0  0  0  0
 39 44  1  0  0  0  0
 40 42  1  0  0  0  0
 43 40  1  1  0  0  0
 44 41  1  6  0  0  0
 44 36  1  0  0  0  0
 46 45  1  0  0  0  0
 47 51  1  0  0  0  0
 49 47  2  0  0  0  0
 50 53  1  0  0  0  0
 51 53  1  0  0  0  0
 52 46  1  1  0  0  0
 52 47  1  0  0  0  0
 52 50  1  0  0  0  0
 53 48  2  0  0  0  0
M  END
>  <MODEL>
4

>  <REMARK>
 VINA RESULT:      -7.6      2.774      5.745
  Name = 
  15 active torsions:
  status: ('A' for Active; 'I' for Inactive)
    1  A    between atoms: C_2  and  N_4
    2  A    between atoms: C_2  and  N_9
    3  A    between atoms: C_3  and  N_51
    4  A    between atoms: N_4  and  C_13
    5  A    between atoms: N_9  and  C_18
    6  A    between atoms: C_13  and  C_17
    7  A    between atoms: C_13  and  C_39
    8  A    between atoms: C_20  and  C_39
    9  A    between atoms: C_21  and  C_27
   10  A    between atoms: N_29  and  C_52
   11  A    between atoms: C_34  and  C_35
   12  A    between atoms: C_37  and  C_44
   13  A    between atoms: C_44  and  C_52
   14  A    between atoms: C_48  and  C_53
   15  A    between atoms: N_51  and  C_53
                            x       y       z     vdW  Elec       q    Type
                         _______ _______ _______ _____ _____    ______ ____

>  <TORSDO>
F 15

$$$$
=
 OpenBabel11042418153D

 53 60  0  0  1  0  0  0  0  0999 V2000
  187.3740  176.6890  146.0990 C   0  0  0  0  0  0  0  0  0  0  0  0
  186.5830  176.5200  147.0690 O   0  0  0  0  0  0  0  0  0  0  0  0
  189.7750  176.8660  146.8280 C   0  0  0  0  0  3  0  0  0  0  0  0
  189.0580  174.9180  145.5860 C   0  0  0  0  0  3  0  0  0  0  0  0
  191.0770  176.3610  146.8670 C   0  0  0  0  0  3  0  0  0  0  0  0
  188.7530  176.1500  146.1830 C   0  0  0  0  0  0  0  0  0  0  0  0
  190.3640  174.4070  145.6150 C   0  0  0  0  0  0  0  0  0  0  0  0
  191.3720  175.1400  146.2580 C   0  0  0  0  0  3  0  0  0  0  0  0
  190.6810  173.1330  144.9480 C   0  0  0  0  0  0  0  0  0  0  0  0
  191.9990  172.8980  144.4480 N   0  0  0  0  0  2  0  0  0  0  0  0
  189.7810  172.2570  144.7970 O   0  0  0  0  0  0  0  0  0  0  0  0
  192.3310  171.6980  143.6950 C   0  0  0  0  0  2  0  0  0  0  0  0
  192.9430  170.6740  144.6350 C   0  0  0  0  0  2  0  0  0  0  0  0
  196.8050  171.7640  145.9930 C   0  0  0  0  0  2  0  0  0  0  0  0
  194.9160  170.1070  146.0790 C   0  0  0  0  0  2  0  0  0  0  0  0
  195.1120  171.5850  144.1650 O   0  0  0  0  0  0  0  0  0  0  0  0
  196.1920  172.3370  144.6980 C   0  0  1  0  0  3  0  0  0  0  0  0
  196.4330  170.2910  146.1420 C   0  0  0  0  0  2  0  0  0  0  0  0
  194.2510  171.1900  145.2120 C   0  0  1  0  0  3  0  0  0  0  0  0
  195.5200  177.6000  144.6680 O   0  0  0  0  0  1  0  0  0  0  0  0
  196.9220  174.7660  144.3030 C   0  0  0  0  0  2  0  0  0  0  0  0
  194.6240  176.5440  144.8340 C   0  0  1  0  0  3  0  0  0  0  0  0
  194.6140  175.6650  143.5710 C   0  0  0  0  0  2  0  0  0  0  0  0
  194.9660  174.2900  145.9910 C   0  0  0  0  0  2  0  0  0  0  0  0
  194.9400  175.8090  146.1390 C   0  0  0  0  0  2  0  0  0  0  0  0
  195.8530  173.8200  144.8280 C   0  0  2  0  0  0  0  0  0  0  0  0
  195.6470  174.5200  143.4940 C   0  0  2  0  0  3  0  0  0  0  0  0
  186.8690  177.4390  144.8970 C   0  0  2  0  0  3  0  0  0  0  0  0
  185.9530  178.6060  145.2930 C   0  0  2  0  0  3  0  0  0  0  0  0
  184.5670  178.2920  144.9910 N   0  0  0  0  0  1  0  0  0  0  0  0
  186.3140  179.7610  144.6160 F   0  0  0  0  0  0  0  0  0  0  0  0
  186.1950  176.5140  143.9910 N   0  0  0  0  0  2  0  0  0  0  0  0
  186.8730  176.5450  142.6980 C   0  0  1  0  0  3  0  0  0  0  0  0
  188.0980  177.4350  142.7800 C   0  0  0  0  0  1  0  0  0  0  0  0
  187.2950  175.2010  142.3310 N   0  0  0  0  0  2  0  0  0  0  0  0
  190.6180  172.3390  140.1400 C   0  0  2  0  0  3  0  0  0  0  0  0
  187.4430  175.5000  139.6680 S   0  0  0  0  0  0  0  0  0  0  0  0
  188.2910  175.3150  141.2750 C   0  0  2  0  0  3  0  0  0  0  0  0
  188.8950  173.9550  140.9700 C   0  0  1  0  0  0  0  0  0  0  0  0
  188.1910  172.8560  138.8750 C   0  0  0  0  0  2  0  0  0  0  0  0
  189.9940  173.7760  141.8820 O   0  0  0  0  0  0  0  0  0  0  0  0
  189.7330  171.9100  138.5720 S   0  0  0  0  0  0  0  0  0  0  0  0
  188.6370  174.1580  139.4930 C   0  0  1  0  0  3  0  0  0  0  0  0
  190.3670  173.7980  140.5900 C   0  0  1  0  0  3  0  0  0  0  0  0
  192.0440  172.0930  139.9870 N   0  0  0  0  0  2  0  0  0  0  0  0
  192.6700  173.3820  139.7400 C   0  0  0  0  0  2  0  0  0  0  0  0
  194.8970  174.4190  139.7710 C   0  0  0  0  0  0  0  0  0  0  0  0
  196.8830  171.7200  138.7530 O   0  0  0  0  0  0  0  0  0  0  0  0
  194.6940  175.6620  139.7750 O   0  0  0  0  0  0  0  0  0  0  0  0
  194.8030  171.8210  140.4410 S   0  0  0  0  0  0  0  0  0  0  0  0
  196.0100  173.8580  139.1020 N   0  0  0  0  0  2  0  0  0  0  0  0
  193.9930  173.4680  140.4790 C   0  0  2  0  0  3  0  0  0  0  0  0
  196.0390  172.4620  139.3250 C   0  0  0  0  0  0  0  0  0  0  0  0
  1  6  1  0  0  0  0
  1  2  2  0  0  0  0
  3  5  1  0  0  0  0
  4  7  2  0  0  0  0
  4  6  1  0  0  0  0
  6  3  2  0  0  0  0
  7  8  1  0  0  0  0
  8  5  2  0  0  0  0
  9  7  1  0  0  0  0
 10  9  1  0  0  0  0
 11  9  2  0  0  0  0
 12 10  1  0  0  0  0
 12 13  1  0  0  0  0
 14 18  1  0  0  0  0
 15 18  1  0  0  0  0
 16 17  1  0  0  0  0
 16 19  1  0  0  0  0
 17 26  1  0  0  0  0
 17 14  1  1  0  0  0
 19 13  1  6  0  0  0
 19 15  1  0  0  0  0
 22 20  1  6  0  0  0
 22 25  1  0  0  0  0
 23 22  1  0  0  0  0
 24 25  1  0  0  0  0
 26 21  1  1  0  0  0
 26 24  1  0  0  0  0
 27 23  1  1  0  0  0
 27 21  1  0  0  0  0
 27 26  1  0  0  0  0
 28 32  1  6  0  0  0
 28 29  1  0  0  0  0
 28  1  1  0  0  0  0
 29 31  1  6  0  0  0
 30 29  1  0  0  0  0
 33 34  1  1  0  0  0
 33 32  1  0  0  0  0
 35 33  1  0  0  0  0
 36 45  1  6  0  0  0
 36 44  1  0  0  0  0
 37 38  1  0  0  0  0
 38 35  1  1  0  0  0
 39 38  1  0  0  0  0
 39 41  1  1  0  0  0
 42 40  1  0  0  0  0
 42 36  1  0  0  0  0
 43 40  1  1  0  0  0
 43 37  1  0  0  0  0
 43 39  1  0  0  0  0
 44 39  1  0  0  0  0
 44 41  1  1  0  0  0
 46 45  1  0  0  0  0
 47 49  2  0  0  0  0
 47 52  1  0  0  0  0
 48 53  2  0  0  0  0
 50 52  1  0  0  0  0
 51 53  1  0  0  0  0
 51 47  1  0  0  0  0
 52 46  1  6  0  0  0
 53 50  1  0  0  0  0
M  END
>  <MODEL>
5

>  <REMARK>
 VINA RESULT:      -7.4      2.933      8.227
  Name = 
  15 active torsions:
  status: ('A' for Active; 'I' for Inactive)
    1  A    between atoms: C_2  and  N_4
    2  A    between atoms: C_2  and  N_9
    3  A    between atoms: C_3  and  N_51
    4  A    between atoms: N_4  and  C_13
    5  A    between atoms: N_9  and  C_18
    6  A    between atoms: C_13  and  C_17
    7  A    between atoms: C_13  and  C_39
    8  A    between atoms: C_20  and  C_39
    9  A    between atoms: C_21  and  C_27
   10  A    between atoms: N_29  and  C_52
   11  A    between atoms: C_34  and  C_35
   12  A    between atoms: C_37  and  C_44
   13  A    between atoms: C_44  and  C_52
   14  A    between atoms: C_48  and  C_53
   15  A    between atoms: N_51  and  C_53
                            x       y       z     vdW  Elec       q    Type
                         _______ _______ _______ _____ _____    ______ ____

>  <TORSDO>
F 15

$$$$
=
 OpenBabel11042418153D

 53 60  0  0  1  0  0  0  0  0999 V2000
  185.5540  177.3180  143.4300 C   0  0  0  0  0  0  0  0  0  0  0  0
  184.5530  177.5560  142.6980 O   0  0  0  0  0  0  0  0  0  0  0  0
  187.9770  177.7680  142.9250 C   0  0  0  0  0  3  0  0  0  0  0  0
  186.9370  175.7700  142.0400 C   0  0  0  0  0  3  0  0  0  0  0  0
  189.1750  177.4230  142.2950 C   0  0  0  0  0  3  0  0  0  0  0  0
  186.8440  176.9470  142.8000 C   0  0  0  0  0  0  0  0  0  0  0  0
  188.1340  175.4200  141.3990 C   0  0  0  0  0  0  0  0  0  0  0  0
  189.2520  176.2570  141.5300 C   0  0  0  0  0  3  0  0  0  0  0  0
  188.2080  174.2050  140.5700 C   0  0  0  0  0  0  0  0  0  0  0  0
  188.4310  174.3150  139.1630 N   0  0  0  0  0  2  0  0  0  0  0  0
  188.0500  173.0680  141.1000 O   0  0  0  0  0  0  0  0  0  0  0  0
  188.4100  173.1510  138.2900 C   0  0  0  0  0  2  0  0  0  0  0  0
  189.8250  172.8530  137.8250 C   0  0  0  0  0  2  0  0  0  0  0  0
  191.9530  169.8450  139.9150 C   0  0  0  0  0  2  0  0  0  0  0  0
  190.6510  170.4830  137.8610 C   0  0  0  0  0  2  0  0  0  0  0  0
  191.6900  172.2230  139.1950 O   0  0  0  0  0  0  0  0  0  0  0  0
  192.1280  171.3470  140.2240 C   0  0  1  0  0  3  0  0  0  0  0  0
  191.7980  169.6340  138.4110 C   0  0  0  0  0  2  0  0  0  0  0  0
  190.4550  171.7690  138.6840 C   0  0  1  0  0  3  0  0  0  0  0  0
  189.8790  172.0030  144.9850 O   0  0  0  0  0  1  0  0  0  0  0  0
  190.4570  170.8010  142.0950 C   0  0  0  0  0  2  0  0  0  0  0  0
  191.0430  172.5240  144.4210 C   0  0  1  0  0  3  0  0  0  0  0  0
  192.0120  171.3790  144.0740 C   0  0  0  0  0  2  0  0  0  0  0  0
  191.5140  173.2040  142.0020 C   0  0  0  0  0  2  0  0  0  0  0  0
  190.6760  173.4450  143.2550 C   0  0  0  0  0  2  0  0  0  0  0  0
  191.5520  171.7250  141.5870 C   0  0  2  0  0  0  0  0  0  0  0  0
  191.8660  170.7220  142.6840 C   0  0  2  0  0  3  0  0  0  0  0  0
  185.3810  177.4250  144.9200 C   0  0  2  0  0  3  0  0  0  0  0  0
  185.0900  178.8660  145.3620 C   0  0  2  0  0  3  0  0  0  0  0  0
  183.6690  179.0490  145.6030 N   0  0  0  0  0  1  0  0  0  0  0  0
  185.5060  179.7670  144.3940 F   0  0  0  0  0  0  0  0  0  0  0  0
  186.5620  176.8880  145.5900 N   0  0  0  0  0  2  0  0  0  0  0  0
  186.7650  177.6150  146.8400 C   0  0  1  0  0  3  0  0  0  0  0  0
  185.9230  176.9950  147.9390 C   0  0  0  0  0  1  0  0  0  0  0  0
  188.1670  177.5440  147.2290 N   0  0  0  0  0  2  0  0  0  0  0  0
  192.6360  176.7830  145.3660 C   0  0  2  0  0  3  0  0  0  0  0  0
  188.9560  174.9780  147.2350 S   0  0  0  0  0  0  0  0  0  0  0  0
  188.8250  176.5770  146.3620 C   0  0  2  0  0  3  0  0  0  0  0  0
  190.3200  176.8440  146.3130 C   0  0  1  0  0  0  0  0  0  0  0  0
  191.7800  175.2900  147.5560 C   0  0  0  0  0  2  0  0  0  0  0  0
  190.5340  177.8130  145.2700 O   0  0  0  0  0  0  0  0  0  0  0  0
  193.2640  175.4510  146.4890 S   0  0  0  0  0  0  0  0  0  0  0  0
  190.6020  175.3890  146.6190 C   0  0  1  0  0  3  0  0  0  0  0  0
  191.1330  176.6300  145.0370 C   0  0  1  0  0  3  0  0  0  0  0  0
  193.4230  176.8100  144.1420 N   0  0  0  0  0  2  0  0  0  0  0  0
  194.5150  175.8670  144.3220 C   0  0  0  0  0  2  0  0  0  0  0  0
  195.5750  173.8520  143.3980 C   0  0  0  0  0  0  0  0  0  0  0  0
  197.9300  175.2890  141.2420 O   0  0  0  0  0  0  0  0  0  0  0  0
  195.2660  172.9150  144.1810 O   0  0  0  0  0  0  0  0  0  0  0  0
  195.3770  175.9450  141.7290 S   0  0  0  0  0  0  0  0  0  0  0  0
  196.8280  173.8800  142.7430 N   0  0  0  0  0  2  0  0  0  0  0  0
  194.6390  174.9750  143.1010 C   0  0  2  0  0  3  0  0  0  0  0  0
  196.8780  174.9910  141.8690 C   0  0  0  0  0  0  0  0  0  0  0  0
  2  1  2  0  0  0  0
  4  6  2  0  0  0  0
  5  3  2  0  0  0  0
  6  3  1  0  0  0  0
  6  1  1  0  0  0  0
  7  8  2  0  0  0  0
  7  4  1  0  0  0  0
  8  5  1  0  0  0  0
  9 11  2  0  0  0  0
  9  7  1  0  0  0  0
 10  9  1  0  0  0  0
 12 10  1  0  0  0  0
 13 12  1  0  0  0  0
 15 18  1  0  0  0  0
 15 19  1  0  0  0  0
 16 17  1  0  0  0  0
 17 14  1  6  0  0  0
 17 26  1  0  0  0  0
 18 14  1  0  0  0  0
 19 13  1  6  0  0  0
 19 16  1  0  0  0  0
 22 20  1  6  0  0  0
 23 22  1  0  0  0  0
 24 25  1  0  0  0  0
 25 22  1  0  0  0  0
 26 24  1  1  0  0  0
 26 21  1  0  0  0  0
 26 27  1  0  0  0  0
 27 21  1  1  0  0  0
 27 23  1  0  0  0  0
 28  1  1  6  0  0  0
 28 29  1  0  0  0  0
 28 32  1  0  0  0  0
 29 31  1  6  0  0  0
 29 30  1  0  0  0  0
 32 33  1  0  0  0  0
 33 35  1  0  0  0  0
 33 34  1  1  0  0  0
 36 45  1  6  0  0  0
 36 42  1  0  0  0  0
 38 35  1  1  0  0  0
 38 37  1  0  0  0  0
 39 41  1  1  0  0  0
 39 38  1  0  0  0  0
 39 43  1  0  0  0  0
 42 40  1  0  0  0  0
 43 37  1  0  0  0  0
 43 40  1  1  0  0  0
 44 41  1  6  0  0  0
 44 36  1  0  0  0  0
 44 39  1  0  0  0  0
 45 46  1  0  0  0  0
 47 49  2  0  0  0  0
 48 53  2  0  0  0  0
 50 53  1  0  0  0  0
 50 52  1  0  0  0  0
 51 47  1  0  0  0  0
 52 47  1  0  0  0  0
 52 46  1  1  0  0  0
 53 51  1  0  0  0  0
M  END
>  <MODEL>
6

>  <REMARK>
 VINA RESULT:      -7.4      3.276      8.852
  Name = 
  15 active torsions:
  status: ('A' for Active; 'I' for Inactive)
    1  A    between atoms: C_2  and  N_4
    2  A    between atoms: C_2  and  N_9
    3  A    between atoms: C_3  and  N_51
    4  A    between atoms: N_4  and  C_13
    5  A    between atoms: N_9  and  C_18
    6  A    between atoms: C_13  and  C_17
    7  A    between atoms: C_13  and  C_39
    8  A    between atoms: C_20  and  C_39
    9  A    between atoms: C_21  and  C_27
   10  A    between atoms: N_29  and  C_52
   11  A    between atoms: C_34  and  C_35
   12  A    between atoms: C_37  and  C_44
   13  A    between atoms: C_44  and  C_52
   14  A    between atoms: C_48  and  C_53
   15  A    between atoms: N_51  and  C_53
                            x       y       z     vdW  Elec       q    Type
                         _______ _______ _______ _____ _____    ______ ____

>  <TORSDO>
F 15

$$$$
=
 OpenBabel11042418153D

 53 60  0  0  1  0  0  0  0  0999 V2000
  186.1140  178.3670  144.3300 C   0  0  0  0  0  0  0  0  0  0  0  0
  185.5880  179.5120  144.2580 O   0  0  0  0  0  0  0  0  0  0  0  0
  186.1480  178.0930  141.8300 C   0  0  0  0  0  3  0  0  0  0  0  0
  187.5980  176.7140  143.1880 C   0  0  0  0  0  3  0  0  0  0  0  0
  186.6170  177.4540  140.6800 C   0  0  0  0  0  3  0  0  0  0  0  0
  186.6300  177.7260  143.0960 C   0  0  0  0  0  0  0  0  0  0  0  0
  188.0700  176.0620  142.0390 C   0  0  0  0  0  0  0  0  0  0  0  0
  187.5710  176.4390  140.7840 C   0  0  0  0  0  3  0  0  0  0  0  0
  189.0550  174.9730  142.1520 C   0  0  0  0  0  0  0  0  0  0  0  0
  188.9600  174.0350  143.2250 N   0  0  0  0  0  2  0  0  0  0  0  0
  189.9960  174.8820  141.3120 O   0  0  0  0  0  0  0  0  0  0  0  0
  189.9660  173.0050  143.4350 C   0  0  0  0  0  2  0  0  0  0  0  0
  189.6160  171.7890  142.5940 C   0  0  0  0  0  2  0  0  0  0  0  0
  192.4390  170.7560  139.6100 C   0  0  0  0  0  2  0  0  0  0  0  0
  191.9270  170.9690  142.0630 C   0  0  0  0  0  2  0  0  0  0  0  0
  190.0980  170.7590  140.4830 O   0  0  0  0  0  0  0  0  0  0  0  0
  190.9240  170.8160  139.3280 C   0  0  1  0  0  3  0  0  0  0  0  0
  192.6910  170.1770  141.0010 C   0  0  0  0  0  2  0  0  0  0  0  0
  190.6390  171.5870  141.4900 C   0  0  1  0  0  3  0  0  0  0  0  0
  190.3270  174.9030  135.9970 O   0  0  0  0  0  1  0  0  0  0  0  0
  191.7170  172.8780  138.0220 C   0  0  0  0  0  2  0  0  0  0  0  0
  189.5140  173.8090  136.2900 C   0  0  1  0  0  3  0  0  0  0  0  0
  190.2460  172.5040  135.9330 C   0  0  0  0  0  2  0  0  0  0  0  0
  189.1520  172.6020  138.5150 C   0  0  0  0  0  2  0  0  0  0  0  0
  189.0260  173.9100  137.7380 C   0  0  0  0  0  2  0  0  0  0  0  0
  190.5540  171.9810  138.4130 C   0  0  2  0  0  0  0  0  0  0  0  0
  191.1480  171.8750  137.0170 C   0  0  2  0  0  3  0  0  0  0  0  0
  186.1900  177.7070  145.6790 C   0  0  2  0  0  3  0  0  0  0  0  0
  184.8570  177.7930  146.4360 C   0  0  2  0  0  3  0  0  0  0  0  0
  184.9850  178.6540  147.5980 N   0  0  0  0  0  1  0  0  0  0  0  0
  184.4460  176.5340  146.8470 F   0  0  0  0  0  0  0  0  0  0  0  0
  187.2820  178.2930  146.4510 N   0  0  0  0  0  2  0  0  0  0  0  0
  188.0210  177.2210  147.1100 C   0  0  1  0  0  3  0  0  0  0  0  0
  187.8210  175.9180  146.3580 C   0  0  0  0  0  1  0  0  0  0  0  0
  189.4420  177.5380  147.1230 N   0  0  0  0  0  2  0  0  0  0  0  0
  193.1120  176.5970  144.0120 C   0  0  2  0  0  3  0  0  0  0  0  0
  191.1800  175.6790  147.9770 S   0  0  0  0  0  0  0  0  0  0  0  0
  190.1670  176.3770  146.6270 C   0  0  2  0  0  3  0  0  0  0  0  0
  191.3420  176.8150  145.7690 C   0  0  1  0  0  0  0  0  0  0  0  0
  193.5940  176.6040  146.7550 C   0  0  0  0  0  2  0  0  0  0  0  0
  190.8380  176.9780  144.4300 O   0  0  0  0  0  0  0  0  0  0  0  0
  194.5160  176.3450  145.1910 S   0  0  0  0  0  0  0  0  0  0  0  0
  192.2680  175.9140  146.5560 C   0  0  1  0  0  3  0  0  0  0  0  0
  191.7770  176.0190  144.5380 C   0  0  1  0  0  3  0  0  0  0  0  0
  193.4410  176.0170  142.7190 N   0  0  0  0  0  2  0  0  0  0  0  0
  193.2070  174.5870  142.8260 C   0  0  0  0  0  2  0  0  0  0  0  0
  195.3300  173.3620  142.9970 C   0  0  0  0  0  0  0  0  0  0  0  0
  197.5380  175.6980  141.6060 O   0  0  0  0  0  0  0  0  0  0  0  0
  195.1260  172.4410  143.8310 O   0  0  0  0  0  0  0  0  0  0  0  0
  195.0690  174.9670  140.8600 S   0  0  0  0  0  0  0  0  0  0  0  0
  196.5890  174.0000  142.8980 N   0  0  0  0  0  2  0  0  0  0  0  0
  194.2700  173.8260  142.0550 C   0  0  2  0  0  3  0  0  0  0  0  0
  196.5640  174.9320  141.8350 C   0  0  0  0  0  0  0  0  0  0  0  0
  2  1  2  0  0  0  0
  3  6  1  0  0  0  0
  5  8  1  0  0  0  0
  5  3  2  0  0  0  0
  6  4  2  0  0  0  0
  6  1  1  0  0  0  0
  7  9  1  0  0  0  0
  7  4  1  0  0  0  0
  8  7  2  0  0  0  0
  9 10  1  0  0  0  0
 10 12  1  0  0  0  0
 11  9  2  0  0  0  0
 13 12  1  0  0  0  0
 14 18  1  0  0  0  0
 16 19  1  0  0  0  0
 17 14  1  1  0  0  0
 17 16  1  0  0  0  0
 18 15  1  0  0  0  0
 19 15  1  0  0  0  0
 19 13  1  1  0  0  0
 22 20  1  1  0  0  0
 22 25  1  0  0  0  0
 23 22  1  0  0  0  0
 25 24  1  0  0  0  0
 26 21  1  1  0  0  0
 26 24  1  0  0  0  0
 26 17  1  0  0  0  0
 27 23  1  6  0  0  0
 27 21  1  0  0  0  0
 27 26  1  0  0  0  0
 28  1  1  6  0  0  0
 28 29  1  0  0  0  0
 28 32  1  0  0  0  0
 29 31  1  1  0  0  0
 29 30  1  0  0  0  0
 32 33  1  0  0  0  0
 33 34  1  6  0  0  0
 33 35  1  0  0  0  0
 36 45  1  6  0  0  0
 36 44  1  0  0  0  0
 36 42  1  0  0  0  0
 38 35  1  1  0  0  0
 38 37  1  0  0  0  0
 39 41  1  1  0  0  0
 39 43  1  0  0  0  0
 39 38  1  0  0  0  0
 42 40  1  0  0  0  0
 43 40  1  1  0  0  0
 43 37  1  0  0  0  0
 44 41  1  6  0  0  0
 44 39  1  0  0  0  0
 45 46  1  0  0  0  0
 47 49  2  0  0  0  0
 48 53  2  0  0  0  0
 50 53  1  0  0  0  0
 50 52  1  0  0  0  0
 51 47  1  0  0  0  0
 52 46  1  1  0  0  0
 52 47  1  0  0  0  0
 53 51  1  0  0  0  0
M  END
>  <MODEL>
7

>  <REMARK>
 VINA RESULT:      -7.3      3.269      8.901
  Name = 
  15 active torsions:
  status: ('A' for Active; 'I' for Inactive)
    1  A    between atoms: C_2  and  N_4
    2  A    between atoms: C_2  and  N_9
    3  A    between atoms: C_3  and  N_51
    4  A    between atoms: N_4  and  C_13
    5  A    between atoms: N_9  and  C_18
    6  A    between atoms: C_13  and  C_17
    7  A    between atoms: C_13  and  C_39
    8  A    between atoms: C_20  and  C_39
    9  A    between atoms: C_21  and  C_27
   10  A    between atoms: N_29  and  C_52
   11  A    between atoms: C_34  and  C_35
   12  A    between atoms: C_37  and  C_44
   13  A    between atoms: C_44  and  C_52
   14  A    between atoms: C_48  and  C_53
   15  A    between atoms: N_51  and  C_53
                            x       y       z     vdW  Elec       q    Type
                         _______ _______ _______ _____ _____    ______ ____

>  <TORSDO>
F 15

$$$$
=
 OpenBabel11042418153D

 53 60  0  0  1  0  0  0  0  0999 V2000
  188.0330  176.9910  146.2220 C   0  0  0  0  0  0  0  0  0  0  0  0
  187.9080  176.1600  147.1640 O   0  0  0  0  0  0  0  0  0  0  0  0
  189.5350  178.0660  144.5140 C   0  0  0  0  0  3  0  0  0  0  0  0
  190.4600  176.4300  146.0370 C   0  0  0  0  0  3  0  0  0  0  0  0
  190.7830  178.2010  143.9010 C   0  0  0  0  0  3  0  0  0  0  0  0
  189.3600  177.1750  145.5850 C   0  0  0  0  0  0  0  0  0  0  0  0
  191.7150  176.5550  145.4230 C   0  0  0  0  0  0  0  0  0  0  0  0
  191.8670  177.4440  144.3500 C   0  0  0  0  0  3  0  0  0  0  0  0
  192.8520  175.7360  145.8780 C   0  0  0  0  0  0  0  0  0  0  0  0
  194.1260  175.8730  145.2480 N   0  0  0  0  0  2  0  0  0  0  0  0
  192.6930  174.8970  146.8110 O   0  0  0  0  0  0  0  0  0  0  0  0
  195.2500  175.0160  145.5950 C   0  0  0  0  0  2  0  0  0  0  0  0
  196.3910  175.2760  144.6260 C   0  0  0  0  0  2  0  0  0  0  0  0
  197.5160  172.0550  142.1150 C   0  0  0  0  0  2  0  0  0  0  0  0
  196.9800  174.5050  142.3120 C   0  0  0  0  0  2  0  0  0  0  0  0
  197.6750  173.2790  144.2870 O   0  0  0  0  0  0  0  0  0  0  0  0
  197.6970  172.0110  143.6460 C   0  0  1  0  0  3  0  0  0  0  0  0
  197.8270  173.4550  141.5900 C   0  0  0  0  0  2  0  0  0  0  0  0
  196.6330  174.0630  143.7450 C   0  0  1  0  0  3  0  0  0  0  0  0
  194.7360  168.7090  146.5590 O   0  0  0  0  0  1  0  0  0  0  0  0
  197.1900  170.5400  145.6870 C   0  0  0  0  0  2  0  0  0  0  0  0
  194.4470  169.4760  145.4300 C   0  0  1  0  0  3  0  0  0  0  0  0
  194.6440  170.9680  145.7500 C   0  0  0  0  0  2  0  0  0  0  0  0
  195.9340  170.0540  143.4320 C   0  0  0  0  0  2  0  0  0  0  0  0
  195.2500  168.9520  144.2380 C   0  0  0  0  0  2  0  0  0  0  0  0
  196.7520  171.0130  144.3100 C   0  0  2  0  0  0  0  0  0  0  0  0
  196.0570  171.5580  145.5470 C   0  0  2  0  0  3  0  0  0  0  0  0
  186.8140  177.7590  145.7900 C   0  0  2  0  0  3  0  0  0  0  0  0
  186.1190  178.4460  146.9750 C   0  0  2  0  0  3  0  0  0  0  0  0
  184.8210  177.8440  147.2240 N   0  0  0  0  0  1  0  0  0  0  0  0
  185.9520  179.7990  146.7250 F   0  0  0  0  0  0  0  0  0  0  0  0
  185.9010  176.8690  145.0780 N   0  0  0  0  0  2  0  0  0  0  0  0
  185.4800  177.5190  143.8410 C   0  0  1  0  0  3  0  0  0  0  0  0
  186.3040  178.7710  143.6100 C   0  0  0  0  0  1  0  0  0  0  0  0
  185.6790  176.6150  142.7170 N   0  0  0  0  0  2  0  0  0  0  0  0
  189.5300  173.6390  142.1280 C   0  0  2  0  0  3  0  0  0  0  0  0
  187.1340  177.0940  140.5120 S   0  0  0  0  0  0  0  0  0  0  0  0
  187.0700  176.7180  142.2980 C   0  0  2  0  0  3  0  0  0  0  0  0
  187.6900  175.3360  142.1820 C   0  0  1  0  0  0  0  0  0  0  0  0
  188.0670  174.4610  139.9050 C   0  0  0  0  0  2  0  0  0  0  0  0
  188.1870  174.9940  143.4890 O   0  0  0  0  0  0  0  0  0  0  0  0
  189.5170  173.4060  140.2920 S   0  0  0  0  0  0  0  0  0  0  0  0
  188.2030  175.6690  140.7980 C   0  0  1  0  0  3  0  0  0  0  0  0
  189.1510  175.0770  142.5520 C   0  0  1  0  0  3  0  0  0  0  0  0
  190.8350  173.2800  142.6630 N   0  0  0  0  0  2  0  0  0  0  0  0
  191.7770  174.2760  142.1800 C   0  0  0  0  0  2  0  0  0  0  0  0
  193.4890  173.9130  140.4550 C   0  0  0  0  0  0  0  0  0  0  0  0
  192.8870  170.5610  139.6380 O   0  0  0  0  0  0  0  0  0  0  0  0
  193.8460  175.0620  140.0830 O   0  0  0  0  0  0  0  0  0  0  0  0
  192.9290  171.8010  142.0150 S   0  0  0  0  0  0  0  0  0  0  0  0
  193.4420  172.8280  139.5490 N   0  0  0  0  0  2  0  0  0  0  0  0
  193.1110  173.6210  141.8680 C   0  0  2  0  0  3  0  0  0  0  0  0
  193.0880  171.6490  140.2440 C   0  0  0  0  0  0  0  0  0  0  0  0
  1  2  2  0  0  0  0
  3  6  1  0  0  0  0
  5  8  1  0  0  0  0
  5  3  2  0  0  0  0
  6  4  2  0  0  0  0
  6  1  1  0  0  0  0
  7  9  1  0  0  0  0
  7  4  1  0  0  0  0
  8  7  2  0  0  0  0
  9 11  2  0  0  0  0
 10 12  1  0  0  0  0
 10  9  1  0  0  0  0
 13 12  1  0  0  0  0
 15 19  1  0  0  0  0
 17 14  1  6  0  0  0
 17 16  1  0  0  0  0
 17 26  1  0  0  0  0
 18 14  1  0  0  0  0
 18 15  1  0  0  0  0
 19 16  1  0  0  0  0
 19 13  1  1  0  0  0
 22 23  1  0  0  0  0
 22 20  1  1  0  0  0
 24 25  1  0  0  0  0
 25 22  1  0  0  0  0
 26 24  1  6  0  0  0
 26 27  1  0  0  0  0
 26 21  1  0  0  0  0
 27 21  1  1  0  0  0
 27 23  1  0  0  0  0
 28 32  1  1  0  0  0
 28  1  1  0  0  0  0
 28 29  1  0  0  0  0
 29 31  1  6  0  0  0
 29 30  1  0  0  0  0
 33 34  1  6  0  0  0
 33 32  1  0  0  0  0
 35 33  1  0  0  0  0
 36 44  1  0  0  0  0
 36 45  1  6  0  0  0
 37 43  1  0  0  0  0
 37 38  1  0  0  0  0
 38 35  1  6  0  0  0
 39 38  1  0  0  0  0
 39 44  1  0  0  0  0
 39 41  1  1  0  0  0
 40 42  1  0  0  0  0
 42 36  1  0  0  0  0
 43 40  1  6  0  0  0
 43 39  1  0  0  0  0
 44 41  1  1  0  0  0
 46 45  1  0  0  0  0
 47 52  1  0  0  0  0
 48 53  2  0  0  0  0
 49 47  2  0  0  0  0
 51 53  1  0  0  0  0
 51 47  1  0  0  0  0
 52 50  1  0  0  0  0
 52 46  1  6  0  0  0
 53 50  1  0  0  0  0
M  END
>  <MODEL>
8

>  <REMARK>
 VINA RESULT:      -7.1      3.225      8.961
  Name = 
  15 active torsions:
  status: ('A' for Active; 'I' for Inactive)
    1  A    between atoms: C_2  and  N_4
    2  A    between atoms: C_2  and  N_9
    3  A    between atoms: C_3  and  N_51
    4  A    between atoms: N_4  and  C_13
    5  A    between atoms: N_9  and  C_18
    6  A    between atoms: C_13  and  C_17
    7  A    between atoms: C_13  and  C_39
    8  A    between atoms: C_20  and  C_39
    9  A    between atoms: C_21  and  C_27
   10  A    between atoms: N_29  and  C_52
   11  A    between atoms: C_34  and  C_35
   12  A    between atoms: C_37  and  C_44
   13  A    between atoms: C_44  and  C_52
   14  A    between atoms: C_48  and  C_53
   15  A    between atoms: N_51  and  C_53
                            x       y       z     vdW  Elec       q    Type
                         _______ _______ _______ _____ _____    ______ ____

>  <TORSDO>
F 15

$$$$
=
 OpenBabel11042418153D

 53 60  0  0  1  0  0  0  0  0999 V2000
  187.6490  177.3210  142.3320 C   0  0  0  0  0  0  0  0  0  0  0  0
  188.4250  178.2140  141.8900 O   0  0  0  0  0  0  0  0  0  0  0  0
  187.7100  174.8350  142.7130 C   0  0  0  0  0  3  0  0  0  0  0  0
  188.0180  175.6940  140.4720 C   0  0  0  0  0  3  0  0  0  0  0  0
  187.8760  173.5330  142.2360 C   0  0  0  0  0  3  0  0  0  0  0  0
  187.7840  175.9300  141.8360 C   0  0  0  0  0  0  0  0  0  0  0  0
  188.1920  174.3900  139.9870 C   0  0  0  0  0  0  0  0  0  0  0  0
  188.1210  173.3110  140.8790 C   0  0  0  0  0  3  0  0  0  0  0  0
  188.4790  174.1590  138.5610 C   0  0  0  0  0  0  0  0  0  0  0  0
  189.4430  173.1760  138.1780 N   0  0  0  0  0  2  0  0  0  0  0  0
  187.8890  174.8450  137.6770 O   0  0  0  0  0  0  0  0  0  0  0  0
  189.8320  172.9840  136.7890 C   0  0  0  0  0  2  0  0  0  0  0  0
  189.5930  171.5350  136.4020 C   0  0  0  0  0  2  0  0  0  0  0  0
  192.6800  169.0830  137.9530 C   0  0  0  0  0  2  0  0  0  0  0  0
  190.8970  169.3990  136.2080 C   0  0  0  0  0  2  0  0  0  0  0  0
  191.7790  171.3390  137.3680 O   0  0  0  0  0  0  0  0  0  0  0  0
  192.5860  170.5900  138.2670 C   0  0  1  0  0  3  0  0  0  0  0  0
  192.2840  168.8240  136.5000 C   0  0  0  0  0  2  0  0  0  0  0  0
  190.5950  170.6230  137.0910 C   0  0  1  0  0  3  0  0  0  0  0  0
  191.9650  171.7530  143.4070 O   0  0  0  0  0  1  0  0  0  0  0  0
  193.4050  171.0570  140.6540 C   0  0  0  0  0  2  0  0  0  0  0  0
  191.0820  171.7850  142.3270 C   0  0  1  0  0  3  0  0  0  0  0  0
  191.5860  172.7840  141.2710 C   0  0  0  0  0  2  0  0  0  0  0  0
  190.9360  170.2330  140.3010 C   0  0  0  0  0  2  0  0  0  0  0  0
  190.8470  170.3600  141.8200 C   0  0  0  0  0  2  0  0  0  0  0  0
  192.2180  170.8530  139.7260 C   0  0  2  0  0  0  0  0  0  0  0  0
  192.5660  172.2540  140.2020 C   0  0  2  0  0  3  0  0  0  0  0  0
  186.6170  177.7220  143.3500 C   0  0  2  0  0  3  0  0  0  0  0  0
  185.5580  178.6600  142.7530 C   0  0  2  0  0  3  0  0  0  0  0  0
  184.2250  178.2470  143.1590 N   0  0  0  0  0  1  0  0  0  0  0  0
  185.6300  178.6610  141.3690 F   0  0  0  0  0  0  0  0  0  0  0  0
  187.2760  178.3250  144.5040 N   0  0  0  0  0  2  0  0  0  0  0  0
  186.7590  177.7040  145.7190 C   0  0  1  0  0  3  0  0  0  0  0  0
  186.0370  176.4160  145.3730 C   0  0  0  0  0  1  0  0  0  0  0  0
  187.8590  177.3950  146.6220 N   0  0  0  0  0  2  0  0  0  0  0  0
  192.4520  176.6500  145.0770 C   0  0  2  0  0  3  0  0  0  0  0  0
  188.8780  174.9960  147.2660 S   0  0  0  0  0  0  0  0  0  0  0  0
  188.6380  176.3170  146.0270 C   0  0  2  0  0  3  0  0  0  0  0  0
  190.1030  176.7110  145.9410 C   0  0  1  0  0  0  0  0  0  0  0  0
  191.6470  175.6520  147.5500 C   0  0  0  0  0  2  0  0  0  0  0  0
  190.2700  177.4150  144.6970 O   0  0  0  0  0  0  0  0  0  0  0  0
  193.1510  175.6970  146.5010 S   0  0  0  0  0  0  0  0  0  0  0  0
  190.5040  175.4070  146.5970 C   0  0  1  0  0  3  0  0  0  0  0  0
  190.9830  176.2760  144.7690 C   0  0  1  0  0  3  0  0  0  0  0  0
  193.2820  176.4590  143.8980 N   0  0  0  0  0  2  0  0  0  0  0  0
  193.2390  175.0420  143.5770 C   0  0  0  0  0  2  0  0  0  0  0  0
  195.5430  174.2680  143.9390 C   0  0  0  0  0  0  0  0  0  0  0  0
  197.3350  177.1660  143.1320 O   0  0  0  0  0  0  0  0  0  0  0  0
  195.4460  173.2250  144.6380 O   0  0  0  0  0  0  0  0  0  0  0  0
  195.2000  176.0470  141.9590 S   0  0  0  0  0  0  0  0  0  0  0  0
  196.6320  175.1570  144.0930 N   0  0  0  0  0  2  0  0  0  0  0  0
  194.5310  174.6220  142.9020 C   0  0  2  0  0  3  0  0  0  0  0  0
  196.5330  176.1940  143.1370 C   0  0  0  0  0  0  0  0  0  0  0  0
  2  1  2  0  0  0  0
  4  6  1  0  0  0  0
  5  3  1  0  0  0  0
  6  1  1  0  0  0  0
  6  3  2  0  0  0  0
  7  4  2  0  0  0  0
  7  8  1  0  0  0  0
  8  5  2  0  0  0  0
  9  7  1  0  0  0  0
 10  9  1  0  0  0  0
 11  9  2  0  0  0  0
 12 10  1  0  0  0  0
 13 12  1  0  0  0  0
 15 18  1  0  0  0  0
 15 19  1  0  0  0  0
 16 17  1  0  0  0  0
 17 14  1  6  0  0  0
 17 26  1  0  0  0  0
 18 14  1  0  0  0  0
 19 13  1  6  0  0  0
 19 16  1  0  0  0  0
 22 20  1  1  0  0  0
 23 22  1  0  0  0  0
 24 25  1  0  0  0  0
 25 22  1  0  0  0  0
 26 27  1  0  0  0  0
 26 24  1  1  0  0  0
 26 21  1  0  0  0  0
 27 21  1  1  0  0  0
 27 23  1  0  0  0  0
 28  1  1  6  0  0  0
 28 32  1  0  0  0  0
 29 31  1  6  0  0  0
 29 30  1  0  0  0  0
 29 28  1  0  0  0  0
 32 33  1  0  0  0  0
 33 34  1  6  0  0  0
 33 35  1  0  0  0  0
 36 45  1  6  0  0  0
 36 42  1  0  0  0  0
 38 35  1  1  0  0  0
 38 37  1  0  0  0  0
 39 41  1  1  0  0  0
 39 38  1  0  0  0  0
 39 43  1  0  0  0  0
 42 40  1  0  0  0  0
 43 37  1  0  0  0  0
 43 40  1  1  0  0  0
 44 41  1  6  0  0  0
 44 36  1  0  0  0  0
 44 39  1  0  0  0  0
 46 45  1  0  0  0  0
 47 51  1  0  0  0  0
 47 49  2  0  0  0  0
 48 53  2  0  0  0  0
 50 52  1  0  0  0  0
 50 53  1  0  0  0  0
 52 46  1  1  0  0  0
 52 47  1  0  0  0  0
 53 51  1  0  0  0  0
M  END
>  <MODEL>
9

>  <REMARK>
 VINA RESULT:      -7.0      3.432      9.287
  Name = 
  15 active torsions:
  status: ('A' for Active; 'I' for Inactive)
    1  A    between atoms: C_2  and  N_4
    2  A    between atoms: C_2  and  N_9
    3  A    between atoms: C_3  and  N_51
    4  A    between atoms: N_4  and  C_13
    5  A    between atoms: N_9  and  C_18
    6  A    between atoms: C_13  and  C_17
    7  A    between atoms: C_13  and  C_39
    8  A    between atoms: C_20  and  C_39
    9  A    between atoms: C_21  and  C_27
   10  A    between atoms: N_29  and  C_52
   11  A    between atoms: C_34  and  C_35
   12  A    between atoms: C_37  and  C_44
   13  A    between atoms: C_44  and  C_52
   14  A    between atoms: C_48  and  C_53
   15  A    between atoms: N_51  and  C_53
                            x       y       z     vdW  Elec       q    Type
                         _______ _______ _______ _____ _____    ______ ____

>  <TORSDO>
F 15

$$$$
