=
 OpenBabel11042419193D

 43 46  0  0  1  0  0  0  0  0999 V2000
  190.8580  173.1720  142.4490 N   0  0  0  0  0  0  0  0  0  0  0  0
  188.1500  176.4990  143.4020 C   0  0  0  0  0  2  0  0  0  0  0  0
  196.9170  175.7090  143.3970 N   0  0  0  0  0  0  0  0  0  0  0  0
  195.9580  176.4680  143.9280 N   0  0  0  0  0  0  0  0  0  0  0  0
  188.1270  173.9170  139.7290 F   0  0  0  0  0  0  0  0  0  0  0  0
  188.5210  173.6920  141.9250 C   0  0  0  0  0  2  0  0  0  0  0  0
  194.0770  174.2520  141.9250 C   0  0  0  0  0  3  0  0  0  0  0  0
  192.7470  174.6660  142.1360 C   0  0  0  0  0  0  0  0  0  0  0  0
  188.3190  176.7830  141.9200 C   0  0  0  0  0  2  0  0  0  0  0  0
  193.5040  176.4350  143.6660 C   0  0  0  0  0  3  0  0  0  0  0  0
  190.5750  177.3270  144.3660 S   0  0  0  0  0  0  0  0  0  0  0  0
  196.3990  174.7900  142.5890 N   0  0  0  0  0  0  0  0  0  0  0  0
  194.8010  175.9970  143.4260 C   0  0  0  0  0  0  0  0  0  0  0  0
  187.6440  175.7120  141.0730 C   0  0  1  0  0  3  0  0  0  0  0  0
  197.1680  173.8010  141.8540 C   0  0  0  0  0  1  0  0  0  0  0  0
  191.2860  178.6270  144.1180 O   0  0  0  0  0  0  0  0  0  0  0  0
  190.8920  176.8330  145.7490 O   0  0  0  0  0  0  0  0  0  0  0  0
  189.6410  172.6650  141.8250 C   0  0  0  0  0  2  0  0  0  0  0  0
  188.8130  177.6030  144.2130 C   0  0  2  0  0  3  0  0  0  0  0  0
  191.0940  176.1490  143.2050 N   0  0  0  0  0  2  0  0  0  0  0  0
  192.4550  175.7580  143.0040 C   0  0  0  0  0  0  0  0  0  0  0  0
  195.0720  174.9560  142.5950 C   0  0  0  0  0  0  0  0  0  0  0  0
  191.6490  173.9060  141.4620 C   0  0  0  0  0  2  0  0  0  0  0  0
  187.1890  176.3800  139.7830 C   0  0  0  0  0  1  0  0  0  0  0  0
  188.5790  174.6160  140.8000 N   0  0  0  0  0  0  0  0  0  0  0  0
  191.5940  172.1040  142.9550 O   0  0  0  0  0  0  0  0  0  0  0  0
  192.3590  172.1340  144.1360 C   0  0  0  0  0  3  0  0  0  0  0  0
  193.4970  171.4640  144.2880 C   0  0  0  0  0  3  0  0  0  0  0  0
  196.6700  171.2750  145.8570 C   0  0  0  0  0  2  0  0  0  0  0  0
  194.9130  172.9090  145.7080 C   0  0  0  0  0  2  0  0  0  0  0  0
  194.2690  171.5390  145.5610 C   0  0  2  0  0  3  0  0  0  0  0  0
  196.3950  172.7100  145.4770 C   0  0  1  0  0  3  0  0  0  0  0  0
  197.1930  173.6470  146.3580 C   0  0  0  0  0  1  0  0  0  0  0  0
  195.4000  170.5210  145.5210 C   0  0  2  0  0  3  0  0  0  0  0  0
  195.1800  169.4140  146.5420 C   0  0  0  0  0  2  0  0  0  0  0  0
  196.7340  168.5260  148.1290 O   0  0  0  0  0  1  0  0  0  0  0  0
  196.4530  168.6120  146.7660 C   0  0  0  0  0  2  0  0  0  0  0  0
  188.2260  177.6800  145.5070 O   0  0  0  0  0  0  0  0  0  0  0  0
  186.8450  177.7590  145.6990 C   0  0  0  0  0  0  0  0  0  0  0  0
  186.2300  176.8480  146.3210 O   0  0  0  0  0  0  0  0  0  0  0  0
  186.1320  178.8810  145.1790 N   0  0  0  0  0  2  0  0  0  0  0  0
  184.0180  178.8990  143.9970 C   0  0  0  0  0  1  0  0  0  0  0  0
  184.6960  179.0260  145.3440 C   0  0  0  0  0  2  0  0  0  0  0  0
  1 26  1  0  0  0  0
  2 19  1  0  0  0  0
  3  4  2  0  0  0  0
  5 25  1  0  0  0  0
  7  8  2  0  0  0  0
  7 22  1  0  0  0  0
  8 21  1  0  0  0  0
  9  2  1  0  0  0  0
 11 17  2  0  0  0  0
 12 22  1  0  0  0  0
 12  3  1  0  0  0  0
 13 10  1  0  0  0  0
 13  4  1  0  0  0  0
 14 24  1  6  0  0  0
 14  9  1  0  0  0  0
 15 12  1  0  0  0  0
 16 11  2  0  0  0  0
 18  6  1  0  0  0  0
 18  1  1  0  0  0  0
 19 11  1  0  0  0  0
 19 38  1  1  0  0  0
 20 11  1  0  0  0  0
 21 20  1  0  0  0  0
 21 10  2  0  0  0  0
 22 13  2  0  0  0  0
 23  8  1  0  0  0  0
 23  1  1  0  0  0  0
 25 14  1  0  0  0  0
 25  6  1  0  0  0  0
 26 27  1  0  0  0  0
 27 28  2  0  0  0  0
 31 28  1  6  0  0  0
 31 30  1  0  0  0  0
 32 30  1  0  0  0  0
 32 29  1  0  0  0  0
 32 33  1  1  0  0  0
 34 31  1  0  0  0  0
 34 29  1  0  0  0  0
 34 35  1  1  0  0  0
 35 37  1  0  0  0  0
 37 36  1  0  0  0  0
 38 39  1  0  0  0  0
 39 40  2  0  0  0  0
 41 43  1  0  0  0  0
 41 39  1  0  0  0  0
 42 43  1  0  0  0  0
M  END
>  <MODEL>
1

>  <REMARK>
 VINA RESULT:      -7.9      0.000      0.000
  Name = 
  8 active torsions:
  status: ('A' for Active; 'I' for Inactive)
    1  A    between atoms: N_1  and  O_5
    2  A    between atoms: O_5  and  C_38
    3  A    between atoms: C_18  and  O_30
    4  A    between atoms: C_19  and  C_40
    5  A    between atoms: C_29  and  C_33
    6  A    between atoms: C_29  and  C_43
    7  A    between atoms: O_30  and  C_31
    8  A    between atoms: C_32  and  N_42
                            x       y       z     vdW  Elec       q    Type
                         _______ _______ _______ _____ _____    ______ ____

>  <TORSDO>
F 8

$$$$
=
 OpenBabel11042419193D

 43 46  0  0  1  0  0  0  0  0999 V2000
  190.5250  173.5770  143.7160 N   0  0  0  0  0  0  0  0  0  0  0  0
  194.8430  174.1890  144.2590 C   0  0  0  0  0  2  0  0  0  0  0  0
  187.7450  178.0810  147.7200 N   0  0  0  0  0  0  0  0  0  0  0  0
  189.0420  178.3140  147.5130 N   0  0  0  0  0  0  0  0  0  0  0  0
  192.5750  170.3220  144.4970 F   0  0  0  0  0  0  0  0  0  0  0  0
  192.5210  172.2180  143.3000 C   0  0  0  0  0  2  0  0  0  0  0  0
  188.6980  175.0450  146.2280 C   0  0  0  0  0  3  0  0  0  0  0  0
  189.9990  174.7240  145.7900 C   0  0  0  0  0  0  0  0  0  0  0  0
  194.6360  173.1620  145.3570 C   0  0  0  0  0  2  0  0  0  0  0  0
  190.8210  176.9250  146.5150 C   0  0  0  0  0  3  0  0  0  0  0  0
  193.7130  176.4040  145.4070 S   0  0  0  0  0  0  0  0  0  0  0  0
  187.4090  176.8680  147.2930 N   0  0  0  0  0  0  0  0  0  0  0  0
  189.5250  177.1970  146.9360 C   0  0  0  0  0  0  0  0  0  0  0  0
  194.3150  171.7920  144.7760 C   0  0  1  0  0  3  0  0  0  0  0  0
  186.0740  176.3020  147.3660 C   0  0  0  0  0  1  0  0  0  0  0  0
  193.9610  176.9800  146.7720 O   0  0  0  0  0  0  0  0  0  0  0  0
  193.4040  177.5120  144.4400 O   0  0  0  0  0  0  0  0  0  0  0  0
  191.0090  172.3210  143.1540 C   0  0  0  0  0  2  0  0  0  0  0  0
  195.1870  175.5370  144.8790 C   0  0  2  0  0  3  0  0  0  0  0  0
  192.3720  175.3100  145.4710 N   0  0  0  0  0  2  0  0  0  0  0  0
  191.0640  175.6600  145.9330 C   0  0  0  0  0  0  0  0  0  0  0  0
  188.5150  176.2990  146.7990 C   0  0  0  0  0  0  0  0  0  0  0  0
  190.2240  173.3980  145.1360 C   0  0  0  0  0  2  0  0  0  0  0  0
  194.8550  170.7530  145.7490 C   0  0  0  0  0  1  0  0  0  0  0  0
  192.8670  171.6420  144.5930 N   0  0  0  0  0  0  0  0  0  0  0  0
  189.3820  173.9770  143.0290 O   0  0  0  0  0  0  0  0  0  0  0  0
  188.9850  175.3120  142.8240 C   0  0  0  0  0  3  0  0  0  0  0  0
  187.7130  175.6970  142.7760 C   0  0  0  0  0  3  0  0  0  0  0  0
  185.2130  178.1980  143.0110 C   0  0  0  0  0  2  0  0  0  0  0  0
  187.4350  177.8940  143.8740 C   0  0  0  0  0  2  0  0  0  0  0  0
  187.3510  177.1270  142.5630 C   0  0  2  0  0  3  0  0  0  0  0  0
  186.0110  178.1800  144.2920 C   0  0  1  0  0  3  0  0  0  0  0  0
  185.9260  179.5250  144.9810 C   0  0  0  0  0  1  0  0  0  0  0  0
  185.9060  177.2130  142.0930 C   0  0  2  0  0  3  0  0  0  0  0  0
  185.8230  177.7100  140.6570 C   0  0  0  0  0  2  0  0  0  0  0  0
  183.5710  177.6730  139.8500 O   0  0  0  0  0  1  0  0  0  0  0  0
  184.5420  178.4960  140.4200 C   0  0  0  0  0  2  0  0  0  0  0  0
  195.9050  176.3360  143.9450 O   0  0  0  0  0  0  0  0  0  0  0  0
  196.8850  175.8050  143.1020 C   0  0  0  0  0  0  0  0  0  0  0  0
  197.9410  175.3060  143.5810 O   0  0  0  0  0  0  0  0  0  0  0  0
  196.6810  175.8400  141.6900 N   0  0  0  0  0  2  0  0  0  0  0  0
  197.0880  174.0800  140.0770 C   0  0  0  0  0  1  0  0  0  0  0  0
  197.6580  175.3050  140.7580 C   0  0  0  0  0  2  0  0  0  0  0  0
  1 23  1  0  0  0  0
  2 19  1  0  0  0  0
  2  9  1  0  0  0  0
  4  3  2  0  0  0  0
  5 25  1  0  0  0  0
  6 25  1  0  0  0  0
  7 22  1  0  0  0  0
  8 21  1  0  0  0  0
  8  7  2  0  0  0  0
 10 13  1  0  0  0  0
 11 20  1  0  0  0  0
 11 16  2  0  0  0  0
 12 15  1  0  0  0  0
 12  3  1  0  0  0  0
 13  4  1  0  0  0  0
 14  9  1  0  0  0  0
 14 24  1  1  0  0  0
 17 11  2  0  0  0  0
 18  6  1  0  0  0  0
 18  1  1  0  0  0  0
 19 38  1  6  0  0  0
 19 11  1  0  0  0  0
 20 21  1  0  0  0  0
 21 10  2  0  0  0  0
 22 13  2  0  0  0  0
 22 12  1  0  0  0  0
 23  8  1  0  0  0  0
 25 14  1  0  0  0  0
 26  1  1  0  0  0  0
 27 26  1  0  0  0  0
 28 27  2  0  0  0  0
 29 32  1  0  0  0  0
 30 32  1  0  0  0  0
 31 28  1  1  0  0  0
 31 30  1  0  0  0  0
 32 33  1  6  0  0  0
 34 35  1  6  0  0  0
 34 31  1  0  0  0  0
 34 29  1  0  0  0  0
 36 37  1  0  0  0  0
 37 35  1  0  0  0  0
 39 40  2  0  0  0  0
 39 38  1  0  0  0  0
 41 39  1  0  0  0  0
 42 43  1  0  0  0  0
 43 41  1  0  0  0  0
M  END
>  <MODEL>
2

>  <REMARK>
 VINA RESULT:      -7.5      3.067      9.325
  Name = 
  8 active torsions:
  status: ('A' for Active; 'I' for Inactive)
    1  A    between atoms: N_1  and  O_5
    2  A    between atoms: O_5  and  C_38
    3  A    between atoms: C_18  and  O_30
    4  A    between atoms: C_19  and  C_40
    5  A    between atoms: C_29  and  C_33
    6  A    between atoms: C_29  and  C_43
    7  A    between atoms: O_30  and  C_31
    8  A    between atoms: C_32  and  N_42
                            x       y       z     vdW  Elec       q    Type
                         _______ _______ _______ _____ _____    ______ ____

>  <TORSDO>
F 8

$$$$
=
 OpenBabel11042419193D

 43 46  0  0  1  0  0  0  0  0999 V2000
  190.0660  175.4530  142.0320 N   0  0  0  0  0  0  0  0  0  0  0  0
  192.9260  173.7680  139.1520 C   0  0  0  0  0  2  0  0  0  0  0  0
  193.8170  177.0870  147.2570 N   0  0  0  0  0  0  0  0  0  0  0  0
  194.5430  176.8440  146.1640 N   0  0  0  0  0  0  0  0  0  0  0  0
  189.0610  171.9600  140.5470 F   0  0  0  0  0  0  0  0  0  0  0  0
  189.8770  173.9950  140.0710 C   0  0  0  0  0  2  0  0  0  0  0  0
  191.3820  175.6050  145.2020 C   0  0  0  0  0  3  0  0  0  0  0  0
  191.5960  175.1360  143.8900 C   0  0  0  0  0  0  0  0  0  0  0  0
  192.5720  172.4810  139.8750 C   0  0  0  0  0  2  0  0  0  0  0  0
  193.9560  175.8180  143.9980 C   0  0  0  0  0  3  0  0  0  0  0  0
  194.5130  174.9880  141.0200 S   0  0  0  0  0  0  0  0  0  0  0  0
  192.5630  176.6800  147.0910 N   0  0  0  0  0  0  0  0  0  0  0  0
  193.7000  176.2640  145.2890 C   0  0  0  0  0  0  0  0  0  0  0  0
  191.1390  172.0600  139.5790 C   0  0  1  0  0  3  0  0  0  0  0  0
  191.5130  176.7990  148.0870 C   0  0  0  0  0  1  0  0  0  0  0  0
  195.6860  174.4190  141.7670 O   0  0  0  0  0  0  0  0  0  0  0  0
  194.7280  176.4570  140.7860 O   0  0  0  0  0  0  0  0  0  0  0  0
  189.1280  174.7690  141.1480 C   0  0  0  0  0  2  0  0  0  0  0  0
  194.3730  174.1410  139.4510 C   0  0  2  0  0  3  0  0  0  0  0  0
  193.0680  174.7630  141.9490 N   0  0  0  0  0  2  0  0  0  0  0  0
  192.8820  175.2390  143.2850 C   0  0  0  0  0  0  0  0  0  0  0  0
  192.4720  176.1600  145.8620 C   0  0  0  0  0  0  0  0  0  0  0  0
  190.4350  174.5690  143.1370 C   0  0  0  0  0  2  0  0  0  0  0  0
  191.0940  170.5400  139.6500 C   0  0  0  0  0  1  0  0  0  0  0  0
  190.2210  172.6620  140.5520 N   0  0  0  0  0  0  0  0  0  0  0  0
  189.4720  176.6120  142.5220 O   0  0  0  0  0  0  0  0  0  0  0  0
  188.1220  176.7340  142.9000 C   0  0  0  0  0  3  0  0  0  0  0  0
  187.7200  177.4170  143.9670 C   0  0  0  0  0  3  0  0  0  0  0  0
  184.7680  179.3780  143.8790 C   0  0  0  0  0  2  0  0  0  0  0  0
  185.4140  177.1970  143.1030 C   0  0  0  0  0  2  0  0  0  0  0  0
  186.2740  177.5180  144.3160 C   0  0  2  0  0  3  0  0  0  0  0  0
  184.8170  178.5090  142.6460 C   0  0  1  0  0  3  0  0  0  0  0  0
  183.4210  178.2890  142.1040 C   0  0  0  0  0  1  0  0  0  0  0  0
  185.9540  178.9500  144.7180 C   0  0  2  0  0  3  0  0  0  0  0  0
  185.5920  179.0400  146.1940 C   0  0  0  0  0  2  0  0  0  0  0  0
  184.4610  177.0470  146.8820 O   0  0  0  0  0  1  0  0  0  0  0  0
  184.2580  178.3660  146.4750 C   0  0  0  0  0  2  0  0  0  0  0  0
  194.8900  174.9650  138.4120 O   0  0  0  0  0  0  0  0  0  0  0  0
  196.2040  174.8560  137.9530 C   0  0  0  0  0  0  0  0  0  0  0  0
  197.0430  174.1440  138.5710 O   0  0  0  0  0  0  0  0  0  0  0  0
  196.5910  175.5650  136.7760 N   0  0  0  0  0  2  0  0  0  0  0  0
  197.8910  175.5510  134.7320 C   0  0  0  0  0  1  0  0  0  0  0  0
  197.9410  175.4950  136.2440 C   0  0  0  0  0  2  0  0  0  0  0  0
  1 26  1  0  0  0  0
  1 23  1  0  0  0  0
  2 19  1  0  0  0  0
  2  9  1  0  0  0  0
  4  3  2  0  0  0  0
  5 25  1  0  0  0  0
  6 25  1  0  0  0  0
  6 18  1  0  0  0  0
  7 22  1  0  0  0  0
  8  7  2  0  0  0  0
 10 13  1  0  0  0  0
 11 16  2  0  0  0  0
 11 20  1  0  0  0  0
 12  3  1  0  0  0  0
 12 15  1  0  0  0  0
 13 22  2  0  0  0  0
 13  4  1  0  0  0  0
 14 24  1  1  0  0  0
 14  9  1  0  0  0  0
 14 25  1  0  0  0  0
 17 11  2  0  0  0  0
 18  1  1  0  0  0  0
 19 38  1  6  0  0  0
 19 11  1  0  0  0  0
 20 21  1  0  0  0  0
 21  8  1  0  0  0  0
 21 10  2  0  0  0  0
 22 12  1  0  0  0  0
 23  8  1  0  0  0  0
 26 27  1  0  0  0  0
 27 28  2  0  0  0  0
 29 34  1  0  0  0  0
 30 31  1  0  0  0  0
 31 28  1  6  0  0  0
 31 34  1  0  0  0  0
 32 33  1  1  0  0  0
 32 30  1  0  0  0  0
 32 29  1  0  0  0  0
 34 35  1  1  0  0  0
 35 37  1  0  0  0  0
 37 36  1  0  0  0  0
 39 38  1  0  0  0  0
 39 40  2  0  0  0  0
 41 39  1  0  0  0  0
 42 43  1  0  0  0  0
 43 41  1  0  0  0  0
M  END
>  <MODEL>
3

>  <REMARK>
 VINA RESULT:      -7.4      3.698      9.103
  Name = 
  8 active torsions:
  status: ('A' for Active; 'I' for Inactive)
    1  A    between atoms: N_1  and  O_5
    2  A    between atoms: O_5  and  C_38
    3  A    between atoms: C_18  and  O_30
    4  A    between atoms: C_19  and  C_40
    5  A    between atoms: C_29  and  C_33
    6  A    between atoms: C_29  and  C_43
    7  A    between atoms: O_30  and  C_31
    8  A    between atoms: C_32  and  N_42
                            x       y       z     vdW  Elec       q    Type
                         _______ _______ _______ _____ _____    ______ ____

>  <TORSDO>
F 8

$$$$
=
 OpenBabel11042419193D

 43 46  0  0  1  0  0  0  0  0999 V2000
  192.0600  171.9280  141.6740 N   0  0  0  0  0  0  0  0  0  0  0  0
  188.4220  174.3810  141.9160 C   0  0  0  0  0  2  0  0  0  0  0  0
  196.9970  176.2920  142.4550 N   0  0  0  0  0  0  0  0  0  0  0  0
  195.8130  176.7950  142.8040 N   0  0  0  0  0  0  0  0  0  0  0  0
  189.5040  171.3960  138.7420 F   0  0  0  0  0  0  0  0  0  0  0  0
  189.7340  171.6310  140.9610 C   0  0  0  0  0  2  0  0  0  0  0  0
  194.8600  173.8420  141.1240 C   0  0  0  0  0  3  0  0  0  0  0  0
  193.4520  173.8600  141.1990 C   0  0  0  0  0  0  0  0  0  0  0  0
  188.6420  174.4780  140.4170 C   0  0  0  0  0  2  0  0  0  0  0  0
  193.5120  175.9830  142.4370 C   0  0  0  0  0  3  0  0  0  0  0  0
  190.3970  176.0390  142.8370 S   0  0  0  0  0  0  0  0  0  0  0  0
  196.8490  175.1500  141.7940 N   0  0  0  0  0  0  0  0  0  0  0  0
  194.8960  175.9270  142.3370 C   0  0  0  0  0  0  0  0  0  0  0  0
  188.3920  173.1400  139.7360 C   0  0  1  0  0  3  0  0  0  0  0  0
  197.9400  174.3430  141.2750 C   0  0  0  0  0  1  0  0  0  0  0  0
  190.7190  177.4410  142.4040 O   0  0  0  0  0  0  0  0  0  0  0  0
  190.7100  175.8760  144.2970 O   0  0  0  0  0  0  0  0  0  0  0  0
  191.1080  170.9880  141.0900 C   0  0  0  0  0  2  0  0  0  0  0  0
  188.6540  175.7430  142.5570 C   0  0  2  0  0  3  0  0  0  0  0  0
  191.3450  174.9140  141.9200 N   0  0  0  0  0  2  0  0  0  0  0  0
  192.7740  174.9280  141.8530 C   0  0  0  0  0  0  0  0  0  0  0  0
  195.5370  174.9060  141.7090 C   0  0  0  0  0  0  0  0  0  0  0  0
  192.6930  172.7110  140.6130 C   0  0  0  0  0  2  0  0  0  0  0  0
  187.8880  173.4390  138.3300 C   0  0  0  0  0  1  0  0  0  0  0  0
  189.6280  172.3500  139.6970 N   0  0  0  0  0  0  0  0  0  0  0  0
  193.0230  171.2210  142.3890 O   0  0  0  0  0  0  0  0  0  0  0  0
  193.6450  171.6670  143.5700 C   0  0  0  0  0  3  0  0  0  0  0  0
  193.1520  172.6380  144.3340 C   0  0  0  0  0  3  0  0  0  0  0  0
  195.5440  174.7980  145.8090 C   0  0  0  0  0  2  0  0  0  0  0  0
  193.2110  174.3260  146.1390 C   0  0  0  0  0  2  0  0  0  0  0  0
  193.8520  173.0650  145.5790 C   0  0  2  0  0  3  0  0  0  0  0  0
  194.1850  175.4520  145.8760 C   0  0  1  0  0  3  0  0  0  0  0  0
  194.1420  176.4570  147.0070 C   0  0  0  0  0  1  0  0  0  0  0  0
  195.2960  173.4140  145.2470 C   0  0  2  0  0  3  0  0  0  0  0  0
  196.2610  172.4260  145.8850 C   0  0  0  0  0  2  0  0  0  0  0  0
  197.0100  172.0180  143.6500 O   0  0  0  0  0  1  0  0  0  0  0  0
  197.4430  172.1420  144.9700 C   0  0  0  0  0  2  0  0  0  0  0  0
  187.9480  175.8300  143.7900 O   0  0  0  0  0  0  0  0  0  0  0  0
  186.7670  176.5630  143.9270 C   0  0  0  0  0  0  0  0  0  0  0  0
  186.1350  176.9580  142.9080 O   0  0  0  0  0  0  0  0  0  0  0  0
  186.2840  176.8660  145.2350 N   0  0  0  0  0  2  0  0  0  0  0  0
  185.4080  179.0050  145.9580 C   0  0  0  0  0  1  0  0  0  0  0  0
  185.0630  177.6230  145.4490 C   0  0  0  0  0  2  0  0  0  0  0  0
  1 26  1  0  0  0  0
  2 19  1  0  0  0  0
  3  4  2  0  0  0  0
  5 25  1  0  0  0  0
  6 18  1  0  0  0  0
  7  8  2  0  0  0  0
  7 22  1  0  0  0  0
  8 21  1  0  0  0  0
  9  2  1  0  0  0  0
 11 17  2  0  0  0  0
 12  3  1  0  0  0  0
 13 10  1  0  0  0  0
 13  4  1  0  0  0  0
 14 24  1  6  0  0  0
 14  9  1  0  0  0  0
 15 12  1  0  0  0  0
 16 11  2  0  0  0  0
 18  1  1  0  0  0  0
 19 11  1  0  0  0  0
 19 38  1  1  0  0  0
 20 11  1  0  0  0  0
 21 20  1  0  0  0  0
 21 10  2  0  0  0  0
 22 12  1  0  0  0  0
 22 13  2  0  0  0  0
 23  8  1  0  0  0  0
 23  1  1  0  0  0  0
 25 14  1  0  0  0  0
 25  6  1  0  0  0  0
 26 27  1  0  0  0  0
 27 28  2  0  0  0  0
 29 32  1  0  0  0  0
 31 28  1  6  0  0  0
 31 30  1  0  0  0  0
 32 30  1  0  0  0  0
 32 33  1  1  0  0  0
 34 31  1  0  0  0  0
 34 29  1  0  0  0  0
 34 35  1  1  0  0  0
 36 37  1  0  0  0  0
 37 35  1  0  0  0  0
 38 39  1  0  0  0  0
 39 41  1  0  0  0  0
 40 39  2  0  0  0  0
 41 43  1  0  0  0  0
 43 42  1  0  0  0  0
M  END
>  <MODEL>
4

>  <REMARK>
 VINA RESULT:      -7.1      2.011      2.492
  Name = 
  8 active torsions:
  status: ('A' for Active; 'I' for Inactive)
    1  A    between atoms: N_1  and  O_5
    2  A    between atoms: O_5  and  C_38
    3  A    between atoms: C_18  and  O_30
    4  A    between atoms: C_19  and  C_40
    5  A    between atoms: C_29  and  C_33
    6  A    between atoms: C_29  and  C_43
    7  A    between atoms: O_30  and  C_31
    8  A    between atoms: C_32  and  N_42
                            x       y       z     vdW  Elec       q    Type
                         _______ _______ _______ _____ _____    ______ ____

>  <TORSDO>
F 8

$$$$
=
 OpenBabel11042419193D

 43 46  0  0  1  0  0  0  0  0999 V2000
  191.7640  175.6020  144.8930 N   0  0  0  0  0  0  0  0  0  0  0  0
  187.9310  177.2160  143.4720 C   0  0  0  0  0  2  0  0  0  0  0  0
  191.9080  169.4280  142.4660 N   0  0  0  0  0  0  0  0  0  0  0  0
  190.9690  170.1800  141.8900 N   0  0  0  0  0  0  0  0  0  0  0  0
  189.5280  177.2510  147.6670 F   0  0  0  0  0  0  0  0  0  0  0  0
  190.3180  177.4590  145.5790 C   0  0  0  0  0  2  0  0  0  0  0  0
  191.8770  172.1770  144.6540 C   0  0  0  0  0  3  0  0  0  0  0  0
  191.0490  173.3110  144.5280 C   0  0  0  0  0  0  0  0  0  0  0  0
  187.4400  176.6330  144.7840 C   0  0  0  0  0  2  0  0  0  0  0  0
  190.0330  172.3830  142.4910 C   0  0  0  0  0  3  0  0  0  0  0  0
  188.2760  174.9380  141.9930 S   0  0  0  0  0  0  0  0  0  0  0  0
  192.3860  170.0210  143.5540 N   0  0  0  0  0  0  0  0  0  0  0  0
  190.8650  171.2820  142.6560 C   0  0  0  0  0  0  0  0  0  0  0  0
  187.9900  177.4110  145.9720 C   0  0  1  0  0  3  0  0  0  0  0  0
  193.4210  169.4720  144.4120 C   0  0  0  0  0  1  0  0  0  0  0  0
  187.3120  173.8050  141.7820 O   0  0  0  0  0  0  0  0  0  0  0  0
  189.1190  175.1210  140.7620 O   0  0  0  0  0  0  0  0  0  0  0  0
  191.6460  176.7450  145.7930 C   0  0  0  0  0  2  0  0  0  0  0  0
  187.3390  176.4300  142.3100 C   0  0  2  0  0  3  0  0  0  0  0  0
  189.3040  174.5840  143.3420 N   0  0  0  0  0  2  0  0  0  0  0  0
  190.1250  173.4180  143.4490 C   0  0  0  0  0  0  0  0  0  0  0  0
  191.7430  171.1860  143.6890 C   0  0  0  0  0  0  0  0  0  0  0  0
  191.1940  174.4140  145.5280 C   0  0  0  0  0  2  0  0  0  0  0  0
  186.9570  177.3190  147.0870 C   0  0  0  0  0  1  0  0  0  0  0  0
  189.2770  176.8500  146.3970 N   0  0  0  0  0  0  0  0  0  0  0  0
  193.1070  175.3910  144.5940 O   0  0  0  0  0  0  0  0  0  0  0  0
  193.6040  174.9920  143.3390 C   0  0  0  0  0  3  0  0  0  0  0  0
  193.0590  175.3630  142.1850 C   0  0  0  0  0  3  0  0  0  0  0  0
  194.8140  172.8380  140.4220 C   0  0  0  0  0  2  0  0  0  0  0  0
  192.6890  173.9390  140.1980 C   0  0  0  0  0  2  0  0  0  0  0  0
  193.6330  174.9150  140.8840 C   0  0  2  0  0  3  0  0  0  0  0  0
  193.3320  172.5750  140.3100 C   0  0  1  0  0  3  0  0  0  0  0  0
  193.0370  171.7540  139.0730 C   0  0  0  0  0  1  0  0  0  0  0  0
  194.9320  174.1650  141.1430 C   0  0  2  0  0  3  0  0  0  0  0  0
  196.1280  174.9340  140.6010 C   0  0  0  0  0  2  0  0  0  0  0  0
  196.5700  176.6460  142.2130 O   0  0  0  0  0  1  0  0  0  0  0  0
  196.0340  176.4120  140.9470 C   0  0  0  0  0  2  0  0  0  0  0  0
  187.3100  177.2360  141.1380 O   0  0  0  0  0  0  0  0  0  0  0  0
  186.1350  177.4750  140.4210 C   0  0  0  0  0  0  0  0  0  0  0  0
  186.0750  177.2270  139.1850 O   0  0  0  0  0  0  0  0  0  0  0  0
  185.0000  178.0090  141.1030 N   0  0  0  0  0  2  0  0  0  0  0  0
  182.6070  178.2180  141.4120 C   0  0  0  0  0  1  0  0  0  0  0  0
  183.7480  178.2800  140.4200 C   0  0  0  0  0  2  0  0  0  0  0  0
  1 23  1  0  0  0  0
  1 18  1  0  0  0  0
  2  9  1  0  0  0  0
  3 12  1  0  0  0  0
  4  3  2  0  0  0  0
  4 13  1  0  0  0  0
  6 18  1  0  0  0  0
  6 25  1  0  0  0  0
  8  7  1  0  0  0  0
  8 23  1  0  0  0  0
  9 14  1  0  0  0  0
 10 13  2  0  0  0  0
 10 21  1  0  0  0  0
 11 19  1  0  0  0  0
 11 20  1  0  0  0  0
 12 22  1  0  0  0  0
 12 15  1  0  0  0  0
 13 22  1  0  0  0  0
 14 25  1  0  0  0  0
 14 24  1  1  0  0  0
 16 11  2  0  0  0  0
 17 11  2  0  0  0  0
 19 38  1  6  0  0  0
 19  2  1  0  0  0  0
 20 21  1  0  0  0  0
 21  8  2  0  0  0  0
 22  7  2  0  0  0  0
 25  5  1  0  0  0  0
 26  1  1  0  0  0  0
 27 26  1  0  0  0  0
 28 27  2  0  0  0  0
 29 34  1  0  0  0  0
 30 32  1  0  0  0  0
 30 31  1  0  0  0  0
 31 34  1  0  0  0  0
 31 28  1  1  0  0  0
 32 33  1  6  0  0  0
 32 29  1  0  0  0  0
 34 35  1  6  0  0  0
 35 37  1  0  0  0  0
 37 36  1  0  0  0  0
 39 41  1  0  0  0  0
 39 38  1  0  0  0  0
 40 39  2  0  0  0  0
 43 41  1  0  0  0  0
 43 42  1  0  0  0  0
M  END
>  <MODEL>
5

>  <REMARK>
 VINA RESULT:      -7.1      3.472      5.829
  Name = 
  8 active torsions:
  status: ('A' for Active; 'I' for Inactive)
    1  A    between atoms: N_1  and  O_5
    2  A    between atoms: O_5  and  C_38
    3  A    between atoms: C_18  and  O_30
    4  A    between atoms: C_19  and  C_40
    5  A    between atoms: C_29  and  C_33
    6  A    between atoms: C_29  and  C_43
    7  A    between atoms: O_30  and  C_31
    8  A    between atoms: C_32  and  N_42
                            x       y       z     vdW  Elec       q    Type
                         _______ _______ _______ _____ _____    ______ ____

>  <TORSDO>
F 8

$$$$
=
 OpenBabel11042419193D

 43 46  0  0  1  0  0  0  0  0999 V2000
  190.5260  174.4510  144.7070 N   0  0  0  0  0  0  0  0  0  0  0  0
  193.8740  171.6270  145.0580 C   0  0  0  0  0  2  0  0  0  0  0  0
  188.1410  173.3670  138.6090 N   0  0  0  0  0  0  0  0  0  0  0  0
  188.9610  172.3980  139.0150 N   0  0  0  0  0  0  0  0  0  0  0  0
  193.9050  176.0300  145.9310 F   0  0  0  0  0  0  0  0  0  0  0  0
  192.5010  174.2950  146.1490 C   0  0  0  0  0  2  0  0  0  0  0  0
  189.5610  174.8920  141.4390 C   0  0  0  0  0  3  0  0  0  0  0  0
  190.5260  174.3060  142.2830 C   0  0  0  0  0  0  0  0  0  0  0  0
  194.6490  172.8020  144.4900 C   0  0  0  0  0  2  0  0  0  0  0  0
  190.5230  172.2600  140.9210 C   0  0  0  0  0  3  0  0  0  0  0  0
  192.5250  170.7750  142.8330 S   0  0  0  0  0  0  0  0  0  0  0  0
  188.2220  174.4220  139.4120 N   0  0  0  0  0  0  0  0  0  0  0  0
  189.5750  172.8760  140.1140 C   0  0  0  0  0  0  0  0  0  0  0  0
  194.7430  173.9380  145.4980 C   0  0  1  0  0  3  0  0  0  0  0  0
  187.4590  175.6480  139.2550 C   0  0  0  0  0  1  0  0  0  0  0  0
  193.0680  170.4830  141.4630 O   0  0  0  0  0  0  0  0  0  0  0  0
  191.3680  169.8600  143.1230 O   0  0  0  0  0  0  0  0  0  0  0  0
  191.2080  175.0430  145.8520 C   0  0  0  0  0  2  0  0  0  0  0  0
  193.8250  170.5030  144.0310 C   0  0  2  0  0  3  0  0  0  0  0  0
  191.9840  172.4200  142.9070 N   0  0  0  0  0  2  0  0  0  0  0  0
  191.0110  172.9910  142.0270 C   0  0  0  0  0  0  0  0  0  0  0  0
  189.1190  174.1320  140.3620 C   0  0  0  0  0  0  0  0  0  0  0  0
  190.9960  175.0810  143.4730 C   0  0  0  0  0  2  0  0  0  0  0  0
  196.0520  174.6690  145.2310 C   0  0  0  0  0  1  0  0  0  0  0  0
  193.5960  174.8410  145.3570 N   0  0  0  0  0  0  0  0  0  0  0  0
  189.1530  174.6330  144.8460 O   0  0  0  0  0  0  0  0  0  0  0  0
  188.5180  175.8690  145.0720 C   0  0  0  0  0  3  0  0  0  0  0  0
  187.6890  176.4350  144.2000 C   0  0  0  0  0  3  0  0  0  0  0  0
  184.6740  178.1750  144.8730 C   0  0  0  0  0  2  0  0  0  0  0  0
  186.7830  177.8810  145.9890 C   0  0  0  0  0  2  0  0  0  0  0  0
  187.0390  177.7440  144.4960 C   0  0  2  0  0  3  0  0  0  0  0  0
  185.2900  177.7350  146.1800 C   0  0  1  0  0  3  0  0  0  0  0  0
  184.8160  178.6260  147.3080 C   0  0  0  0  0  1  0  0  0  0  0  0
  185.6830  177.7970  143.8080 C   0  0  2  0  0  3  0  0  0  0  0  0
  185.6680  178.8390  142.7000 C   0  0  0  0  0  2  0  0  0  0  0  0
  184.6310  178.6780  140.5500 O   0  0  0  0  0  1  0  0  0  0  0  0
  185.6780  178.1840  141.3270 C   0  0  0  0  0  2  0  0  0  0  0  0
  193.6240  169.2540  144.6830 O   0  0  0  0  0  0  0  0  0  0  0  0
  194.5280  168.7400  145.6160 C   0  0  0  0  0  0  0  0  0  0  0  0
  194.1270  168.3300  146.7400 O   0  0  0  0  0  0  0  0  0  0  0  0
  195.9150  168.6900  145.2850 N   0  0  0  0  0  2  0  0  0  0  0  0
  197.2160  169.2090  147.2610 C   0  0  0  0  0  1  0  0  0  0  0  0
  196.9080  168.1670  146.2080 C   0  0  0  0  0  2  0  0  0  0  0  0
  1 26  1  0  0  0  0
  1 18  1  0  0  0  0
  3  4  2  0  0  0  0
  3 12  1  0  0  0  0
  4 13  1  0  0  0  0
  7  8  1  0  0  0  0
  8 23  1  0  0  0  0
  9  2  1  0  0  0  0
  9 14  1  0  0  0  0
 10 21  1  0  0  0  0
 11 20  1  0  0  0  0
 11 17  2  0  0  0  0
 11 19  1  0  0  0  0
 12 22  1  0  0  0  0
 13 22  1  0  0  0  0
 13 10  2  0  0  0  0
 14 24  1  6  0  0  0
 15 12  1  0  0  0  0
 16 11  2  0  0  0  0
 18  6  1  0  0  0  0
 19 38  1  1  0  0  0
 19  2  1  0  0  0  0
 21  8  2  0  0  0  0
 21 20  1  0  0  0  0
 22  7  2  0  0  0  0
 23  1  1  0  0  0  0
 25 14  1  0  0  0  0
 25  5  1  0  0  0  0
 25  6  1  0  0  0  0
 26 27  1  0  0  0  0
 28 27  2  0  0  0  0
 29 32  1  0  0  0  0
 30 32  1  0  0  0  0
 31 28  1  1  0  0  0
 31 30  1  0  0  0  0
 32 33  1  1  0  0  0
 34 35  1  6  0  0  0
 34 31  1  0  0  0  0
 34 29  1  0  0  0  0
 36 37  1  0  0  0  0
 37 35  1  0  0  0  0
 38 39  1  0  0  0  0
 39 40  2  0  0  0  0
 41 39  1  0  0  0  0
 41 43  1  0  0  0  0
 43 42  1  0  0  0  0
M  END
>  <MODEL>
6

>  <REMARK>
 VINA RESULT:      -7.1      2.997      9.795
  Name = 
  8 active torsions:
  status: ('A' for Active; 'I' for Inactive)
    1  A    between atoms: N_1  and  O_5
    2  A    between atoms: O_5  and  C_38
    3  A    between atoms: C_18  and  O_30
    4  A    between atoms: C_19  and  C_40
    5  A    between atoms: C_29  and  C_33
    6  A    between atoms: C_29  and  C_43
    7  A    between atoms: O_30  and  C_31
    8  A    between atoms: C_32  and  N_42
                            x       y       z     vdW  Elec       q    Type
                         _______ _______ _______ _____ _____    ______ ____

>  <TORSDO>
F 8

$$$$
=
 OpenBabel11042419193D

 43 46  0  0  1  0  0  0  0  0999 V2000
  191.5520  172.9760  141.7050 N   0  0  0  0  0  0  0  0  0  0  0  0
  189.1920  175.8710  144.0210 C   0  0  0  0  0  2  0  0  0  0  0  0
  197.6590  175.5720  141.6320 N   0  0  0  0  0  0  0  0  0  0  0  0
  196.8720  176.1470  142.5420 N   0  0  0  0  0  0  0  0  0  0  0  0
  188.2150  174.1400  139.9960 F   0  0  0  0  0  0  0  0  0  0  0  0
  189.1610  173.4710  141.9160 C   0  0  0  0  0  2  0  0  0  0  0  0
  194.5310  174.3150  140.6390 C   0  0  0  0  0  3  0  0  0  0  0  0
  193.3010  174.6020  141.2650 C   0  0  0  0  0  0  0  0  0  0  0  0
  188.9750  176.4750  142.6450 C   0  0  0  0  0  2  0  0  0  0  0  0
  194.4340  176.0400  142.9060 C   0  0  0  0  0  3  0  0  0  0  0  0
  191.7870  176.6020  144.5010 S   0  0  0  0  0  0  0  0  0  0  0  0
  196.9470  174.8210  140.7980 N   0  0  0  0  0  0  0  0  0  0  0  0
  195.6230  175.7330  142.2570 C   0  0  0  0  0  0  0  0  0  0  0  0
  188.1010  175.5770  141.7810 C   0  0  1  0  0  3  0  0  0  0  0  0
  197.4980  174.0560  139.6930 C   0  0  0  0  0  1  0  0  0  0  0  0
  192.4150  177.9610  144.3760 O   0  0  0  0  0  0  0  0  0  0  0  0
  192.4480  175.8400  145.6150 O   0  0  0  0  0  0  0  0  0  0  0  0
  190.2130  172.5500  141.3120 C   0  0  0  0  0  2  0  0  0  0  0  0
  190.0470  176.8100  144.8620 C   0  0  2  0  0  3  0  0  0  0  0  0
  191.9850  175.7300  143.0170 N   0  0  0  0  0  2  0  0  0  0  0  0
  193.2470  175.4650  142.3980 C   0  0  0  0  0  0  0  0  0  0  0  0
  195.6670  174.9110  141.1750 C   0  0  0  0  0  0  0  0  0  0  0  0
  192.0640  173.9470  140.7380 C   0  0  0  0  0  2  0  0  0  0  0  0
  187.3320  176.4810  140.8280 C   0  0  0  0  0  1  0  0  0  0  0  0
  188.9300  174.6160  141.0450 N   0  0  0  0  0  0  0  0  0  0  0  0
  192.3890  171.8660  141.7600 O   0  0  0  0  0  0  0  0  0  0  0  0
  193.3670  171.6360  142.7470 C   0  0  0  0  0  3  0  0  0  0  0  0
  194.5640  171.1210  142.4830 C   0  0  0  0  0  3  0  0  0  0  0  0
  195.3200  171.4240  145.9330 C   0  0  0  0  0  2  0  0  0  0  0  0
  195.2470  169.6300  144.3340 C   0  0  0  0  0  2  0  0  0  0  0  0
  195.5640  170.9060  143.5680 C   0  0  2  0  0  3  0  0  0  0  0  0
  194.7140  170.0640  145.6810 C   0  0  1  0  0  3  0  0  0  0  0  0
  195.1480  169.0900  146.7550 C   0  0  0  0  0  1  0  0  0  0  0  0
  195.4750  172.0530  144.5650 C   0  0  2  0  0  3  0  0  0  0  0  0
  196.7360  172.9050  144.5360 C   0  0  0  0  0  2  0  0  0  0  0  0
  195.9030  174.7840  145.7610 O   0  0  0  0  0  1  0  0  0  0  0  0
  196.8500  173.7610  145.7890 C   0  0  0  0  0  2  0  0  0  0  0  0
  189.8120  176.5760  146.2470 O   0  0  0  0  0  0  0  0  0  0  0  0
  188.5300  176.3960  146.7700 C   0  0  0  0  0  0  0  0  0  0  0  0
  188.1920  175.2900  147.2740 O   0  0  0  0  0  0  0  0  0  0  0  0
  187.6010  177.4790  146.7230 N   0  0  0  0  0  2  0  0  0  0  0  0
  185.3080  176.9690  146.1350 C   0  0  0  0  0  1  0  0  0  0  0  0
  186.2530  177.3600  147.2500 C   0  0  0  0  0  2  0  0  0  0  0  0
  1 26  1  0  0  0  0
  2 19  1  0  0  0  0
  3  4  2  0  0  0  0
  5 25  1  0  0  0  0
  7 22  2  0  0  0  0
  7  8  1  0  0  0  0
  8 21  2  0  0  0  0
  9  2  1  0  0  0  0
 11 19  1  0  0  0  0
 11 17  2  0  0  0  0
 12 22  1  0  0  0  0
 12  3  1  0  0  0  0
 13  4  1  0  0  0  0
 13 10  2  0  0  0  0
 14 24  1  6  0  0  0
 14  9  1  0  0  0  0
 15 12  1  0  0  0  0
 16 11  2  0  0  0  0
 18  1  1  0  0  0  0
 18  6  1  0  0  0  0
 19 38  1  1  0  0  0
 20 11  1  0  0  0  0
 21 10  1  0  0  0  0
 21 20  1  0  0  0  0
 22 13  1  0  0  0  0
 23  8  1  0  0  0  0
 23  1  1  0  0  0  0
 25 14  1  0  0  0  0
 25  6  1  0  0  0  0
 26 27  1  0  0  0  0
 28 27  2  0  0  0  0
 30 32  1  0  0  0  0
 31 28  1  6  0  0  0
 31 30  1  0  0  0  0
 31 34  1  0  0  0  0
 32 29  1  0  0  0  0
 32 33  1  1  0  0  0
 34 35  1  1  0  0  0
 34 29  1  0  0  0  0
 35 37  1  0  0  0  0
 36 37  1  0  0  0  0
 38 39  1  0  0  0  0
 39 40  2  0  0  0  0
 41 39  1  0  0  0  0
 41 43  1  0  0  0  0
 42 43  1  0  0  0  0
M  END
>  <MODEL>
7

>  <REMARK>
 VINA RESULT:      -7.0      1.747      2.395
  Name = 
  8 active torsions:
  status: ('A' for Active; 'I' for Inactive)
    1  A    between atoms: N_1  and  O_5
    2  A    between atoms: O_5  and  C_38
    3  A    between atoms: C_18  and  O_30
    4  A    between atoms: C_19  and  C_40
    5  A    between atoms: C_29  and  C_33
    6  A    between atoms: C_29  and  C_43
    7  A    between atoms: O_30  and  C_31
    8  A    between atoms: C_32  and  N_42
                            x       y       z     vdW  Elec       q    Type
                         _______ _______ _______ _____ _____    ______ ____

>  <TORSDO>
F 8

$$$$
=
 OpenBabel11042419193D

 43 46  0  0  1  0  0  0  0  0999 V2000
  191.1710  171.9430  143.1100 N   0  0  0  0  0  0  0  0  0  0  0  0
  187.7870  174.3500  141.6730 C   0  0  0  0  0  2  0  0  0  0  0  0
  194.9360  176.2840  146.4300 N   0  0  0  0  0  0  0  0  0  0  0  0
  193.7140  176.7550  146.1820 N   0  0  0  0  0  0  0  0  0  0  0  0
  190.3880  171.5810  139.2810 F   0  0  0  0  0  0  0  0  0  0  0  0
  189.5000  171.6760  141.3380 C   0  0  0  0  0  2  0  0  0  0  0  0
  193.8100  173.9080  144.0990 C   0  0  0  0  0  3  0  0  0  0  0  0
  192.5450  173.9110  143.4770 C   0  0  0  0  0  0  0  0  0  0  0  0
  188.7060  174.5440  140.4800 C   0  0  0  0  0  2  0  0  0  0  0  0
  191.9160  175.9510  144.6950 C   0  0  0  0  0  3  0  0  0  0  0  0
  189.0000  175.9600  143.5250 S   0  0  0  0  0  0  0  0  0  0  0  0
  195.1720  175.1840  145.7220 N   0  0  0  0  0  0  0  0  0  0  0  0
  193.1750  175.9110  145.2820 C   0  0  0  0  0  0  0  0  0  0  0  0
  188.8690  173.2510  139.6940 C   0  0  1  0  0  3  0  0  0  0  0  0
  196.4060  174.4200  145.7610 C   0  0  0  0  0  1  0  0  0  0  0  0
  189.4400  177.3890  143.3790 O   0  0  0  0  0  0  0  0  0  0  0  0
  188.5690  175.7070  144.9430 O   0  0  0  0  0  0  0  0  0  0  0  0
  190.6600  171.0360  142.0880 C   0  0  0  0  0  2  0  0  0  0  0  0
  187.6270  175.6700  142.4150 C   0  0  2  0  0  3  0  0  0  0  0  0
  190.3160  174.9030  143.1320 N   0  0  0  0  0  2  0  0  0  0  0  0
  191.5950  174.9310  143.7710 C   0  0  0  0  0  0  0  0  0  0  0  0
  194.0770  174.9370  144.9950 C   0  0  0  0  0  0  0  0  0  0  0  0
  192.2100  172.7970  142.5370 C   0  0  0  0  0  2  0  0  0  0  0  0
  189.1030  173.6340  138.2400 C   0  0  0  0  0  1  0  0  0  0  0  0
  189.9950  172.4730  140.2230 N   0  0  0  0  0  0  0  0  0  0  0  0
  191.6890  171.1990  144.1670 O   0  0  0  0  0  0  0  0  0  0  0  0
  193.0030  170.7000  144.2390 C   0  0  0  0  0  3  0  0  0  0  0  0
  193.3270  169.5840  144.8850 C   0  0  0  0  0  3  0  0  0  0  0  0
  196.6340  170.1400  146.0370 C   0  0  0  0  0  2  0  0  0  0  0  0
  195.0130  168.3760  146.2320 C   0  0  0  0  0  2  0  0  0  0  0  0
  194.7370  169.1000  144.9230 C   0  0  2  0  0  3  0  0  0  0  0  0
  195.8990  169.2910  147.0460 C   0  0  1  0  0  3  0  0  0  0  0  0
  196.8800  168.4800  147.8640 C   0  0  0  0  0  1  0  0  0  0  0  0
  195.6790  170.2940  144.8720 C   0  0  2  0  0  3  0  0  0  0  0  0
  196.4650  170.3210  143.5700 C   0  0  0  0  0  2  0  0  0  0  0  0
  195.6930  171.8670  141.9150 O   0  0  0  0  0  1  0  0  0  0  0  0
  196.5500  171.7320  143.0070 C   0  0  0  0  0  2  0  0  0  0  0  0
  186.4080  175.6740  143.1490 O   0  0  0  0  0  0  0  0  0  0  0  0
  185.6630  176.8370  143.3590 C   0  0  0  0  0  0  0  0  0  0  0  0
  185.2370  177.5120  142.3820 O   0  0  0  0  0  0  0  0  0  0  0  0
  185.3940  177.2580  144.6960 N   0  0  0  0  0  2  0  0  0  0  0  0
  184.4410  178.5880  146.4820 C   0  0  0  0  0  1  0  0  0  0  0  0
  184.6260  178.4560  144.9860 C   0  0  0  0  0  2  0  0  0  0  0  0
  1 26  1  0  0  0  0
  2 19  1  0  0  0  0
  4  3  2  0  0  0  0
  5 25  1  0  0  0  0
  6 18  1  0  0  0  0
  7 22  1  0  0  0  0
  8 21  1  0  0  0  0
  8  7  2  0  0  0  0
  9  2  1  0  0  0  0
 10 13  1  0  0  0  0
 11 17  2  0  0  0  0
 12 15  1  0  0  0  0
 12  3  1  0  0  0  0
 13  4  1  0  0  0  0
 14 24  1  6  0  0  0
 14 25  1  0  0  0  0
 14  9  1  0  0  0  0
 16 11  2  0  0  0  0
 18  1  1  0  0  0  0
 19 38  1  1  0  0  0
 19 11  1  0  0  0  0
 20 11  1  0  0  0  0
 20 21  1  0  0  0  0
 21 10  2  0  0  0  0
 22 13  2  0  0  0  0
 22 12  1  0  0  0  0
 23  1  1  0  0  0  0
 23  8  1  0  0  0  0
 25  6  1  0  0  0  0
 26 27  1  0  0  0  0
 27 28  2  0  0  0  0
 29 32  1  0  0  0  0
 30 32  1  0  0  0  0
 31 28  1  1  0  0  0
 31 30  1  0  0  0  0
 32 33  1  6  0  0  0
 34 35  1  6  0  0  0
 34 31  1  0  0  0  0
 34 29  1  0  0  0  0
 36 37  1  0  0  0  0
 37 35  1  0  0  0  0
 38 39  1  0  0  0  0
 39 41  1  0  0  0  0
 40 39  2  0  0  0  0
 41 43  1  0  0  0  0
 43 42  1  0  0  0  0
M  END
>  <MODEL>
8

>  <REMARK>
 VINA RESULT:      -6.9      2.225      3.014
  Name = 
  8 active torsions:
  status: ('A' for Active; 'I' for Inactive)
    1  A    between atoms: N_1  and  O_5
    2  A    between atoms: O_5  and  C_38
    3  A    between atoms: C_18  and  O_30
    4  A    between atoms: C_19  and  C_40
    5  A    between atoms: C_29  and  C_33
    6  A    between atoms: C_29  and  C_43
    7  A    between atoms: O_30  and  C_31
    8  A    between atoms: C_32  and  N_42
                            x       y       z     vdW  Elec       q    Type
                         _______ _______ _______ _____ _____    ______ ____

>  <TORSDO>
F 8

$$$$
=
 OpenBabel11042419193D

 43 46  0  0  1  0  0  0  0  0999 V2000
  192.1000  175.3030  144.5330 N   0  0  0  0  0  0  0  0  0  0  0  0
  188.2660  177.0170  143.2360 C   0  0  0  0  0  2  0  0  0  0  0  0
  191.9100  169.0590  142.2900 N   0  0  0  0  0  0  0  0  0  0  0  0
  190.9730  169.8300  141.7340 N   0  0  0  0  0  0  0  0  0  0  0  0
  190.0540  177.1120  147.3530 F   0  0  0  0  0  0  0  0  0  0  0  0
  190.7550  177.2300  145.2250 C   0  0  0  0  0  2  0  0  0  0  0  0
  192.0790  171.8700  144.3930 C   0  0  0  0  0  3  0  0  0  0  0  0
  191.2870  173.0290  144.2700 C   0  0  0  0  0  0  0  0  0  0  0  0
  187.8160  176.4900  144.5870 C   0  0  0  0  0  2  0  0  0  0  0  0
  190.1460  172.0820  142.3090 C   0  0  0  0  0  3  0  0  0  0  0  0
  188.4600  174.6860  141.8130 S   0  0  0  0  0  0  0  0  0  0  0  0
  192.4590  169.6650  143.3370 N   0  0  0  0  0  0  0  0  0  0  0  0
  190.9450  170.9560  142.4700 C   0  0  0  0  0  0  0  0  0  0  0  0
  188.4470  177.2810  145.7240 C   0  0  1  0  0  3  0  0  0  0  0  0
  193.5120  169.1030  144.1640 C   0  0  0  0  0  1  0  0  0  0  0  0
  187.4480  173.5830  141.6800 O   0  0  0  0  0  0  0  0  0  0  0  0
  189.2520  174.8010  140.5410 O   0  0  0  0  0  0  0  0  0  0  0  0
  192.0640  176.4740  145.4020 C   0  0  0  0  0  2  0  0  0  0  0  0
  187.5940  176.2200  142.1270 C   0  0  2  0  0  3  0  0  0  0  0  0
  189.5360  174.3330  143.1250 N   0  0  0  0  0  2  0  0  0  0  0  0
  190.3190  173.1400  143.2300 C   0  0  0  0  0  0  0  0  0  0  0  0
  191.8650  170.8570  143.4650 C   0  0  0  0  0  0  0  0  0  0  0  0
  191.5170  174.1550  145.2280 C   0  0  0  0  0  2  0  0  0  0  0  0
  187.4640  177.2590  146.8870 C   0  0  0  0  0  1  0  0  0  0  0  0
  189.7310  176.6850  146.1080 N   0  0  0  0  0  0  0  0  0  0  0  0
  193.4190  175.0320  144.1800 O   0  0  0  0  0  0  0  0  0  0  0  0
  193.8820  174.8320  142.8660 C   0  0  0  0  0  3  0  0  0  0  0  0
  194.4600  173.7070  142.4580 C   0  0  0  0  0  3  0  0  0  0  0  0
  195.2030  175.2910  139.3750 C   0  0  0  0  0  2  0  0  0  0  0  0
  196.3990  173.9090  140.9370 C   0  0  0  0  0  2  0  0  0  0  0  0
  194.9250  173.5480  141.0500 C   0  0  2  0  0  3  0  0  0  0  0  0
  196.4570  175.2360  140.2130 C   0  0  1  0  0  3  0  0  0  0  0  0
  197.6830  175.2960  139.3270 C   0  0  0  0  0  1  0  0  0  0  0  0
  194.1630  174.5190  140.1590 C   0  0  2  0  0  3  0  0  0  0  0  0
  193.2470  173.7770  139.1960 C   0  0  0  0  0  2  0  0  0  0  0  0
  192.1130  171.7070  138.8100 O   0  0  0  0  0  1  0  0  0  0  0  0
  193.0710  172.3250  139.6120 C   0  0  0  0  0  2  0  0  0  0  0  0
  187.5390  176.9930  140.9330 O   0  0  0  0  0  0  0  0  0  0  0  0
  186.3340  177.3370  140.3170 C   0  0  0  0  0  0  0  0  0  0  0  0
  186.1690  177.1520  139.0790 O   0  0  0  0  0  0  0  0  0  0  0  0
  185.2880  177.9070  141.1040 N   0  0  0  0  0  2  0  0  0  0  0  0
  182.9510  178.2910  141.6080 C   0  0  0  0  0  1  0  0  0  0  0  0
  184.0100  178.2870  140.5280 C   0  0  0  0  0  2  0  0  0  0  0  0
  1 23  1  0  0  0  0
  1 18  1  0  0  0  0
  2  9  1  0  0  0  0
  3 12  1  0  0  0  0
  4  3  2  0  0  0  0
  4 13  1  0  0  0  0
  6 18  1  0  0  0  0
  6 25  1  0  0  0  0
  8  7  1  0  0  0  0
  8 23  1  0  0  0  0
  9 14  1  0  0  0  0
 10 13  2  0  0  0  0
 10 21  1  0  0  0  0
 11 19  1  0  0  0  0
 11 20  1  0  0  0  0
 12 22  1  0  0  0  0
 12 15  1  0  0  0  0
 13 22  1  0  0  0  0
 14 25  1  0  0  0  0
 14 24  1  1  0  0  0
 16 11  2  0  0  0  0
 17 11  2  0  0  0  0
 19 38  1  6  0  0  0
 19  2  1  0  0  0  0
 20 21  1  0  0  0  0
 21  8  2  0  0  0  0
 22  7  2  0  0  0  0
 25  5  1  0  0  0  0
 26  1  1  0  0  0  0
 27 26  1  0  0  0  0
 28 27  2  0  0  0  0
 29 34  1  0  0  0  0
 29 32  1  0  0  0  0
 30 31  1  0  0  0  0
 31 28  1  1  0  0  0
 32 33  1  6  0  0  0
 32 30  1  0  0  0  0
 34 35  1  6  0  0  0
 34 31  1  0  0  0  0
 35 37  1  0  0  0  0
 36 37  1  0  0  0  0
 39 38  1  0  0  0  0
 39 41  1  0  0  0  0
 40 39  2  0  0  0  0
 43 41  1  0  0  0  0
 43 42  1  0  0  0  0
M  END
>  <MODEL>
9

>  <REMARK>
 VINA RESULT:      -6.8      3.443      5.817
  Name = 
  8 active torsions:
  status: ('A' for Active; 'I' for Inactive)
    1  A    between atoms: N_1  and  O_5
    2  A    between atoms: O_5  and  C_38
    3  A    between atoms: C_18  and  O_30
    4  A    between atoms: C_19  and  C_40
    5  A    between atoms: C_29  and  C_33
    6  A    between atoms: C_29  and  C_43
    7  A    between atoms: O_30  and  C_31
    8  A    between atoms: C_32  and  N_42
                            x       y       z     vdW  Elec       q    Type
                         _______ _______ _______ _____ _____    ______ ____

>  <TORSDO>
F 8

$$$$
