=
 OpenBabel11042419053D

 43 48  0  0  1  0  0  0  0  0999 V2000
  193.3490  176.1180  146.2360 N   0  0  0  0  0  2  0  0  0  0  0  0
  194.0760  173.6650  145.1500 C   0  0  0  0  0  0  0  0  0  0  0  0
  195.1070  174.5300  145.7560 C   0  0  0  0  0  0  0  0  0  0  0  0
  192.8860  172.1390  144.0800 C   0  0  0  0  0  0  0  0  0  0  0  0
  195.4120  171.6740  144.2330 C   0  0  0  0  0  1  0  0  0  0  0  0
  192.7570  174.0300  145.1210 C   0  0  0  0  0  0  0  0  0  0  0  0
  191.9990  173.0970  144.4830 N   0  0  0  0  0  0  0  0  0  0  0  0
  194.1730  172.4640  144.4860 C   0  0  0  0  0  0  0  0  0  0  0  0
  192.3510  175.3070  145.6540 N   0  0  0  0  0  0  0  0  0  0  0  0
  194.7290  175.7090  146.2670 C   0  0  0  0  0  3  0  0  0  0  0  0
  191.0050  175.7810  145.6810 C   0  0  0  0  0  0  0  0  0  0  0  0
  188.9290  176.1270  146.8790 C   0  0  0  0  0  3  0  0  0  0  0  0
  188.4080  176.8440  145.7930 C   0  0  0  0  0  0  0  0  0  0  0  0
  189.2030  177.0270  144.6490 C   0  0  0  0  0  3  0  0  0  0  0  0
  190.4960  176.5030  144.5950 C   0  0  0  0  0  3  0  0  0  0  0  0
  190.2240  175.6090  146.8310 C   0  0  0  0  0  0  0  0  0  0  0  0
  190.7070  174.9160  147.8920 F   0  0  0  0  0  0  0  0  0  0  0  0
  187.0810  177.3850  145.8520 N   0  0  0  0  0  0  0  0  0  0  0  0
  185.3000  178.8420  145.9000 C   0  0  2  0  0  3  0  0  0  0  0  0
  185.9730  176.7770  146.5520 C   0  0  0  0  0  2  0  0  0  0  0  0
  186.6970  178.6700  145.3510 C   0  0  0  0  0  2  0  0  0  0  0  0
  184.8390  177.5950  146.3800 O   0  0  0  0  0  0  0  0  0  0  0  0
  184.1900  178.2890  143.7630 C   0  0  0  0  0  2  0  0  0  0  0  0
  185.1230  179.4520  143.5130 C   0  0  0  0  0  2  0  0  0  0  0  0
  184.3680  179.3570  144.8220 C   0  0  0  0  0  3  0  0  0  0  0  0
  192.5730  170.9630  143.2480 C   0  0  0  0  0  0  0  0  0  0  0  0
  192.5110  169.8160  143.7690 O   0  0  0  0  0  0  0  0  0  0  0  0
  192.4230  171.1160  141.8310 N   0  0  0  0  0  2  0  0  0  0  0  0
  192.1220  170.0210  141.0080 N   0  0  0  0  0  2  0  0  0  0  0  0
  192.5230  170.3630  139.7090 N   0  0  0  0  0  2  0  0  0  0  0  0
  191.9930  170.8780  137.5110 O   0  0  0  0  0  0  0  0  0  0  0  0
  191.5770  170.6000  138.6650 C   0  0  0  0  0  0  0  0  0  0  0  0
  190.1020  170.5340  138.9100 C   0  0  2  0  0  3  0  0  0  0  0  0
  189.4980  169.7380  137.9580 F   0  0  0  0  0  0  0  0  0  0  0  0
  189.4760  171.9230  138.8910 C   0  0  0  0  0  2  0  0  0  0  0  0
  188.1910  173.1010  140.5180 O   0  0  0  0  0  1  0  0  0  0  0  0
  189.4440  172.5300  140.2820 C   0  0  0  0  0  3  0  0  0  0  0  0
  190.4230  173.5140  140.3750 O   0  0  0  0  0  1  0  0  0  0  0  0
  189.8910  171.9200  143.8520 C   0  0  0  0  0  2  0  0  0  0  0  0
  190.5950  173.2520  144.0750 C   0  0  0  0  0  3  0  0  0  0  0  0
  189.6850  172.6600  145.1440 C   0  0  0  0  0  2  0  0  0  0  0  0
  197.1910  174.7030  144.6480 O   0  0  0  0  0  1  0  0  0  0  0  0
  196.5500  174.1520  145.7620 C   0  0  0  0  0  2  0  0  0  0  0  0
  1 10  1  0  0  0  0
  2  3  1  0  0  0  0
  3 43  1  0  0  0  0
  3 10  2  0  0  0  0
  4  7  1  0  0  0  0
  4  8  2  0  0  0  0
  5  8  1  0  0  0  0
  6  2  2  0  0  0  0
  6  9  1  0  0  0  0
  7  6  1  0  0  0  0
  8  2  1  0  0  0  0
  9 11  1  0  0  0  0
  9  1  1  0  0  0  0
 11 16  1  0  0  0  0
 13 18  1  0  0  0  0
 13 12  1  0  0  0  0
 14 13  2  0  0  0  0
 15 14  1  0  0  0  0
 15 11  2  0  0  0  0
 16 12  2  0  0  0  0
 16 17  1  0  0  0  0
 18 20  1  0  0  0  0
 19 25  1  6  0  0  0
 19 22  1  0  0  0  0
 21 18  1  0  0  0  0
 21 19  1  0  0  0  0
 22 20  1  0  0  0  0
 23 25  1  0  0  0  0
 24 23  1  0  0  0  0
 24 25  1  0  0  0  0
 26 27  2  0  0  0  0
 26  4  1  0  0  0  0
 28 26  1  0  0  0  0
 29 28  1  0  0  0  0
 30 29  1  0  0  0  0
 31 32  2  0  0  0  0
 32 33  1  0  0  0  0
 32 30  1  0  0  0  0
 33 34  1  6  0  0  0
 35 33  1  0  0  0  0
 35 37  1  0  0  0  0
 37 38  1  0  0  0  0
 37 36  1  0  0  0  0
 39 40  1  0  0  0  0
 39 41  1  0  0  0  0
 40  7  1  0  0  0  0
 40 41  1  0  0  0  0
 42 43  1  0  0  0  0
M  END
>  <MODEL>
1

>  <REMARK>
 VINA RESULT:      -7.2      0.000      0.000
  Name = 
  11 active torsions:
  status: ('A' for Active; 'I' for Inactive)
    1  A    between atoms: C_3  and  C_15
    2  A    between atoms: C_3  and  C_37
    3  A    between atoms: C_5  and  C_22
    4  A    between atoms: N_6  and  N_13
    5  A    between atoms: N_6  and  N_33
    6  A    between atoms: C_8  and  C_12
    7  A    between atoms: N_9  and  C_23
    8  A    between atoms: C_14  and  N_38
    9  A    between atoms: C_15  and  C_24
   10  A    between atoms: C_16  and  C_41
   11  A    between atoms: C_26  and  N_35
                            x       y       z     vdW  Elec       q    Type
                         _______ _______ _______ _____ _____    ______ ____

>  <TORSDO>
F 11

$$$$
=
 OpenBabel11042419053D

 43 48  0  0  1  0  0  0  0  0999 V2000
  190.1960  177.9240  143.6910 N   0  0  0  0  0  2  0  0  0  0  0  0
  191.5840  175.6080  143.0310 C   0  0  0  0  0  0  0  0  0  0  0  0
  192.2540  176.6610  143.8170 C   0  0  0  0  0  0  0  0  0  0  0  0
  190.9980  173.8610  141.8090 C   0  0  0  0  0  0  0  0  0  0  0  0
  193.4260  173.8600  142.6560 C   0  0  0  0  0  1  0  0  0  0  0  0
  190.2820  175.7290  142.6280 C   0  0  0  0  0  0  0  0  0  0  0  0
  189.8890  174.6560  141.8890 N   0  0  0  0  0  0  0  0  0  0  0  0
  192.0540  174.4230  142.5120 C   0  0  0  0  0  0  0  0  0  0  0  0
  189.5420  176.9300  142.9340 N   0  0  0  0  0  0  0  0  0  0  0  0
  191.5640  177.7690  144.1170 C   0  0  0  0  0  3  0  0  0  0  0  0
  188.1810  177.1550  142.5690 C   0  0  0  0  0  0  0  0  0  0  0  0
  185.8280  177.1520  143.1460 C   0  0  0  0  0  3  0  0  0  0  0  0
  185.5130  177.7380  141.9120 C   0  0  0  0  0  0  0  0  0  0  0  0
  186.5490  178.0340  141.0100 C   0  0  0  0  0  3  0  0  0  0  0  0
  187.8760  177.7490  141.3390 C   0  0  0  0  0  3  0  0  0  0  0  0
  187.1550  176.8720  143.4790 C   0  0  0  0  0  0  0  0  0  0  0  0
  187.4370  176.3020  144.6770 F   0  0  0  0  0  0  0  0  0  0  0  0
  184.1500  178.0350  141.5780 N   0  0  0  0  0  0  0  0  0  0  0  0
  181.8610  178.2560  141.6700 C   0  0  2  0  0  3  0  0  0  0  0  0
  183.6030  178.0030  140.2400 C   0  0  0  0  0  2  0  0  0  0  0  0
  183.1040  178.2630  142.5290 C   0  0  0  0  0  2  0  0  0  0  0  0
  182.2410  178.3540  140.3110 O   0  0  0  0  0  0  0  0  0  0  0  0
  179.5190  178.9440  142.0530 C   0  0  0  0  0  2  0  0  0  0  0  0
  180.0450  179.7270  140.8720 C   0  0  0  0  0  2  0  0  0  0  0  0
  180.9580  179.4150  142.0390 C   0  0  0  0  0  3  0  0  0  0  0  0
  191.1190  172.6220  141.0190 C   0  0  0  0  0  0  0  0  0  0  0  0
  191.0830  171.4980  141.5910 O   0  0  0  0  0  0  0  0  0  0  0  0
  191.3650  172.7010  139.6090 N   0  0  0  0  0  2  0  0  0  0  0  0
  191.4840  171.5450  138.8250 N   0  0  0  0  0  2  0  0  0  0  0  0
  192.2830  171.8780  137.7220 N   0  0  0  0  0  2  0  0  0  0  0  0
  192.5050  172.2940  135.4520 O   0  0  0  0  0  0  0  0  0  0  0  0
  191.7370  172.0190  136.4090 C   0  0  0  0  0  0  0  0  0  0  0  0
  190.2730  171.8560  136.1440 C   0  0  2  0  0  3  0  0  0  0  0  0
  190.0500  170.7180  135.3960 F   0  0  0  0  0  0  0  0  0  0  0  0
  189.7050  173.0680  135.4190 C   0  0  0  0  0  2  0  0  0  0  0  0
  188.7490  173.6940  137.5120 O   0  0  0  0  0  1  0  0  0  0  0  0
  189.4060  174.1990  136.3880 C   0  0  0  0  0  3  0  0  0  0  0  0
  188.5920  175.1370  135.7600 O   0  0  0  0  0  1  0  0  0  0  0  0
  188.2260  173.1010  140.8670 C   0  0  0  0  0  2  0  0  0  0  0  0
  188.6430  174.5450  141.1150 C   0  0  0  0  0  3  0  0  0  0  0  0
  187.5700  173.8830  141.9700 C   0  0  0  0  0  2  0  0  0  0  0  0
  193.7610  176.2110  145.5850 O   0  0  0  0  0  1  0  0  0  0  0  0
  193.6830  176.5480  144.2310 C   0  0  0  0  0  2  0  0  0  0  0  0
  1 10  1  0  0  0  0
  2  3  1  0  0  0  0
  3 10  2  0  0  0  0
  3 43  1  0  0  0  0
  4  7  1  0  0  0  0
  4  8  2  0  0  0  0
  6  9  1  0  0  0  0
  6  2  2  0  0  0  0
  7  6  1  0  0  0  0
  8  5  1  0  0  0  0
  8  2  1  0  0  0  0
  9  1  1  0  0  0  0
 11  9  1  0  0  0  0
 11 16  1  0  0  0  0
 12 16  2  0  0  0  0
 13 12  1  0  0  0  0
 14 15  1  0  0  0  0
 14 13  2  0  0  0  0
 15 11  2  0  0  0  0
 16 17  1  0  0  0  0
 18 13  1  0  0  0  0
 18 21  1  0  0  0  0
 19 25  1  1  0  0  0
 19 21  1  0  0  0  0
 20 22  1  0  0  0  0
 20 18  1  0  0  0  0
 22 19  1  0  0  0  0
 24 25  1  0  0  0  0
 24 23  1  0  0  0  0
 25 23  1  0  0  0  0
 26 27  2  0  0  0  0
 26  4  1  0  0  0  0
 28 26  1  0  0  0  0
 29 28  1  0  0  0  0
 30 29  1  0  0  0  0
 31 32  2  0  0  0  0
 32 30  1  0  0  0  0
 33 34  1  6  0  0  0
 33 32  1  0  0  0  0
 35 33  1  0  0  0  0
 35 37  1  0  0  0  0
 37 36  1  0  0  0  0
 38 37  1  0  0  0  0
 39 40  1  0  0  0  0
 39 41  1  0  0  0  0
 40  7  1  0  0  0  0
 40 41  1  0  0  0  0
 43 42  1  0  0  0  0
M  END
>  <MODEL>
2

>  <REMARK>
 VINA RESULT:      -7.0      3.273      4.226
  Name = 
  11 active torsions:
  status: ('A' for Active; 'I' for Inactive)
    1  A    between atoms: C_3  and  C_15
    2  A    between atoms: C_3  and  C_37
    3  A    between atoms: C_5  and  C_22
    4  A    between atoms: N_6  and  N_13
    5  A    between atoms: N_6  and  N_33
    6  A    between atoms: C_8  and  C_12
    7  A    between atoms: N_9  and  C_23
    8  A    between atoms: C_14  and  N_38
    9  A    between atoms: C_15  and  C_24
   10  A    between atoms: C_16  and  C_41
   11  A    between atoms: C_26  and  N_35
                            x       y       z     vdW  Elec       q    Type
                         _______ _______ _______ _____ _____    ______ ____

>  <TORSDO>
F 11

$$$$
=
 OpenBabel11042419053D

 43 48  0  0  1  0  0  0  0  0999 V2000
  193.5580  175.9580  145.8340 N   0  0  0  0  0  2  0  0  0  0  0  0
  194.2830  173.3570  145.1750 C   0  0  0  0  0  0  0  0  0  0  0  0
  195.2690  174.2500  145.8130 C   0  0  0  0  0  0  0  0  0  0  0  0
  193.1650  171.7540  144.1390 C   0  0  0  0  0  0  0  0  0  0  0  0
  195.6130  171.2110  144.7130 C   0  0  0  0  0  1  0  0  0  0  0  0
  193.0050  173.7680  144.9110 C   0  0  0  0  0  0  0  0  0  0  0  0
  192.2880  172.7920  144.2900 N   0  0  0  0  0  0  0  0  0  0  0  0
  194.4000  172.0760  144.6850 C   0  0  0  0  0  0  0  0  0  0  0  0
  192.6040  175.1200  145.2180 N   0  0  0  0  0  0  0  0  0  0  0  0
  194.8940  175.5000  146.1150 C   0  0  0  0  0  3  0  0  0  0  0  0
  191.2980  175.6470  144.9910 C   0  0  0  0  0  0  0  0  0  0  0  0
  189.0680  176.1400  145.7980 C   0  0  0  0  0  3  0  0  0  0  0  0
  188.7740  176.8180  144.6060 C   0  0  0  0  0  0  0  0  0  0  0  0
  189.7600  176.9070  143.6090 C   0  0  0  0  0  3  0  0  0  0  0  0
  191.0160  176.3290  143.8020 C   0  0  0  0  0  3  0  0  0  0  0  0
  190.3260  175.5690  145.9970 C   0  0  0  0  0  0  0  0  0  0  0  0
  190.5880  174.9160  147.1560 F   0  0  0  0  0  0  0  0  0  0  0  0
  187.4840  177.4140  144.4110 N   0  0  0  0  0  0  0  0  0  0  0  0
  185.2150  177.7920  144.4050 C   0  0  2  0  0  3  0  0  0  0  0  0
  187.1400  178.2940  143.3170 C   0  0  0  0  0  2  0  0  0  0  0  0
  186.3170  177.1140  145.1830 C   0  0  0  0  0  2  0  0  0  0  0  0
  185.7930  178.6780  143.4660 O   0  0  0  0  0  0  0  0  0  0  0  0
  185.1250  179.1700  146.4550 C   0  0  0  0  0  2  0  0  0  0  0  0
  184.3310  177.9090  146.7080 C   0  0  0  0  0  2  0  0  0  0  0  0
  184.3010  178.5570  145.3410 C   0  0  0  0  0  3  0  0  0  0  0  0
  192.9010  170.4940  143.4220 C   0  0  0  0  0  0  0  0  0  0  0  0
  192.6920  169.4300  144.0660 O   0  0  0  0  0  0  0  0  0  0  0  0
  192.9670  170.4650  141.9910 N   0  0  0  0  0  2  0  0  0  0  0  0
  192.7190  169.2860  141.2740 N   0  0  0  0  0  2  0  0  0  0  0  0
  192.9900  169.5610  139.9260 N   0  0  0  0  0  2  0  0  0  0  0  0
  192.2630  170.1840  137.8150 O   0  0  0  0  0  0  0  0  0  0  0  0
  191.9670  169.9750  139.0200 C   0  0  0  0  0  0  0  0  0  0  0  0
  190.5530  170.1780  139.4670 C   0  0  2  0  0  3  0  0  0  0  0  0
  189.6800  169.7180  138.5030 F   0  0  0  0  0  0  0  0  0  0  0  0
  190.2710  171.6450  139.7600 C   0  0  0  0  0  2  0  0  0  0  0  0
  189.8330  173.4540  138.2680 O   0  0  0  0  0  1  0  0  0  0  0  0
  189.3240  172.2380  138.7310 C   0  0  0  0  0  3  0  0  0  0  0  0
  188.0820  172.4540  139.3230 O   0  0  0  0  0  1  0  0  0  0  0  0
  190.2360  171.6260  143.4780 C   0  0  0  0  0  2  0  0  0  0  0  0
  190.9660  172.9500  143.6660 C   0  0  0  0  0  3  0  0  0  0  0  0
  189.8850  172.5070  144.6450 C   0  0  0  0  0  2  0  0  0  0  0  0
  197.5030  174.2410  145.0320 O   0  0  0  0  0  1  0  0  0  0  0  0
  196.6730  173.8170  146.0740 C   0  0  0  0  0  2  0  0  0  0  0  0
  1 10  1  0  0  0  0
  2  3  1  0  0  0  0
  3 43  1  0  0  0  0
  3 10  2  0  0  0  0
  4  7  1  0  0  0  0
  4  8  2  0  0  0  0
  6  2  2  0  0  0  0
  6  9  1  0  0  0  0
  7  6  1  0  0  0  0
  8  5  1  0  0  0  0
  8  2  1  0  0  0  0
  9  1  1  0  0  0  0
 11  9  1  0  0  0  0
 11 16  1  0  0  0  0
 12 16  2  0  0  0  0
 13 12  1  0  0  0  0
 14 15  1  0  0  0  0
 14 13  2  0  0  0  0
 15 11  2  0  0  0  0
 16 17  1  0  0  0  0
 18 13  1  0  0  0  0
 18 21  1  0  0  0  0
 19 21  1  0  0  0  0
 19 25  1  1  0  0  0
 20 22  1  0  0  0  0
 20 18  1  0  0  0  0
 22 19  1  0  0  0  0
 23 24  1  0  0  0  0
 25 23  1  0  0  0  0
 25 24  1  0  0  0  0
 26 27  2  0  0  0  0
 26  4  1  0  0  0  0
 28 26  1  0  0  0  0
 29 28  1  0  0  0  0
 30 29  1  0  0  0  0
 31 32  2  0  0  0  0
 32 33  1  0  0  0  0
 32 30  1  0  0  0  0
 33 34  1  6  0  0  0
 33 35  1  0  0  0  0
 36 37  1  0  0  0  0
 37 38  1  0  0  0  0
 37 35  1  0  0  0  0
 39 40  1  0  0  0  0
 39 41  1  0  0  0  0
 40  7  1  0  0  0  0
 40 41  1  0  0  0  0
 42 43  1  0  0  0  0
M  END
>  <MODEL>
3

>  <REMARK>
 VINA RESULT:      -6.8      1.056      1.462
  Name = 
  11 active torsions:
  status: ('A' for Active; 'I' for Inactive)
    1  A    between atoms: C_3  and  C_15
    2  A    between atoms: C_3  and  C_37
    3  A    between atoms: C_5  and  C_22
    4  A    between atoms: N_6  and  N_13
    5  A    between atoms: N_6  and  N_33
    6  A    between atoms: C_8  and  C_12
    7  A    between atoms: N_9  and  C_23
    8  A    between atoms: C_14  and  N_38
    9  A    between atoms: C_15  and  C_24
   10  A    between atoms: C_16  and  C_41
   11  A    between atoms: C_26  and  N_35
                            x       y       z     vdW  Elec       q    Type
                         _______ _______ _______ _____ _____    ______ ____

>  <TORSDO>
F 11

$$$$
=
 OpenBabel11042419053D

 43 48  0  0  1  0  0  0  0  0999 V2000
  188.6390  177.5290  146.4040 N   0  0  0  0  0  2  0  0  0  0  0  0
  186.3010  178.3160  145.1240 C   0  0  0  0  0  0  0  0  0  0  0  0
  186.3800  178.3690  146.5960 C   0  0  0  0  0  0  0  0  0  0  0  0
  185.7390  178.3000  142.9840 C   0  0  0  0  0  0  0  0  0  0  0  0
  183.8850  179.0190  144.6160 C   0  0  0  0  0  1  0  0  0  0  0  0
  187.3600  177.9040  144.3600 C   0  0  0  0  0  0  0  0  0  0  0  0
  187.0460  177.9030  143.0360 N   0  0  0  0  0  0  0  0  0  0  0  0
  185.2600  178.5680  144.2590 C   0  0  0  0  0  0  0  0  0  0  0  0
  188.5790  177.4660  144.9960 N   0  0  0  0  0  0  0  0  0  0  0  0
  187.5170  177.9790  147.1870 C   0  0  0  0  0  3  0  0  0  0  0  0
  189.7410  177.0250  144.2960 C   0  0  0  0  0  0  0  0  0  0  0  0
  191.1440  175.2240  143.4870 C   0  0  0  0  0  3  0  0  0  0  0  0
  191.9440  176.1420  142.7930 C   0  0  0  0  0  0  0  0  0  0  0  0
  191.6280  177.5100  142.8560 C   0  0  0  0  0  3  0  0  0  0  0  0
  190.5300  177.9480  143.5990 C   0  0  0  0  0  3  0  0  0  0  0  0
  190.0410  175.6590  144.2240 C   0  0  0  0  0  0  0  0  0  0  0  0
  189.2820  174.7530  144.8900 F   0  0  0  0  0  0  0  0  0  0  0  0
  193.0690  175.6890  142.0270 N   0  0  0  0  0  0  0  0  0  0  0  0
  195.0000  175.6360  140.7760 C   0  0  2  0  0  3  0  0  0  0  0  0
  193.0760  174.5090  141.1930 C   0  0  0  0  0  2  0  0  0  0  0  0
  194.2930  176.4120  141.8620 C   0  0  0  0  0  2  0  0  0  0  0  0
  194.3520  174.3900  140.6070 O   0  0  0  0  0  0  0  0  0  0  0  0
  197.3130  175.5820  139.9090 C   0  0  0  0  0  2  0  0  0  0  0  0
  196.9740  174.1970  140.4120 C   0  0  0  0  0  2  0  0  0  0  0  0
  196.4530  175.4150  141.1450 C   0  0  0  0  0  3  0  0  0  0  0  0
  184.8980  178.3570  141.7750 C   0  0  0  0  0  0  0  0  0  0  0  0
  185.3500  178.8610  140.7110 O   0  0  0  0  0  0  0  0  0  0  0  0
  183.5360  177.9150  141.8370 N   0  0  0  0  0  2  0  0  0  0  0  0
  182.7070  177.9510  140.7070 N   0  0  0  0  0  2  0  0  0  0  0  0
  182.0910  179.2100  140.6910 N   0  0  0  0  0  2  0  0  0  0  0  0
  180.1710  180.5100  140.6560 O   0  0  0  0  0  0  0  0  0  0  0  0
  180.6700  179.3560  140.6970 C   0  0  0  0  0  0  0  0  0  0  0  0
  179.7580  178.1710  140.7600 C   0  0  2  0  0  3  0  0  0  0  0  0
  179.7020  177.5490  139.5290 F   0  0  0  0  0  0  0  0  0  0  0  0
  178.3550  178.5760  141.1950 C   0  0  0  0  0  2  0  0  0  0  0  0
  178.7780  178.9150  143.5180 O   0  0  0  0  0  1  0  0  0  0  0  0
  178.0680  178.1210  142.6150 C   0  0  0  0  0  3  0  0  0  0  0  0
  178.4630  176.7940  142.7590 O   0  0  0  0  0  1  0  0  0  0  0  0
  187.7770  175.7980  141.9130 C   0  0  0  0  0  2  0  0  0  0  0  0
  187.8530  177.3190  141.9540 C   0  0  0  0  0  3  0  0  0  0  0  0
  186.9380  176.6070  140.9640 C   0  0  0  0  0  2  0  0  0  0  0  0
  184.3240  177.7200  147.5740 O   0  0  0  0  0  1  0  0  0  0  0  0
  185.2180  178.7870  147.4340 C   0  0  0  0  0  2  0  0  0  0  0  0
  1 10  1  0  0  0  0
  2  3  1  0  0  0  0
  3 10  2  0  0  0  0
  3 43  1  0  0  0  0
  4  7  1  0  0  0  0
  4  8  2  0  0  0  0
  6  9  1  0  0  0  0
  6  2  2  0  0  0  0
  7  6  1  0  0  0  0
  8  5  1  0  0  0  0
  8  2  1  0  0  0  0
  9  1  1  0  0  0  0
 11  9  1  0  0  0  0
 12 16  2  0  0  0  0
 13 14  2  0  0  0  0
 13 12  1  0  0  0  0
 14 15  1  0  0  0  0
 15 11  2  0  0  0  0
 16 11  1  0  0  0  0
 16 17  1  0  0  0  0
 18 13  1  0  0  0  0
 19 25  1  1  0  0  0
 19 21  1  0  0  0  0
 20 18  1  0  0  0  0
 21 18  1  0  0  0  0
 22 19  1  0  0  0  0
 22 20  1  0  0  0  0
 23 24  1  0  0  0  0
 23 25  1  0  0  0  0
 24 25  1  0  0  0  0
 26 28  1  0  0  0  0
 26  4  1  0  0  0  0
 27 26  2  0  0  0  0
 29 28  1  0  0  0  0
 30 32  1  0  0  0  0
 30 29  1  0  0  0  0
 31 32  2  0  0  0  0
 32 33  1  0  0  0  0
 33 34  1  6  0  0  0
 33 35  1  0  0  0  0
 35 37  1  0  0  0  0
 37 38  1  0  0  0  0
 37 36  1  0  0  0  0
 39 40  1  0  0  0  0
 40  7  1  0  0  0  0
 41 39  1  0  0  0  0
 41 40  1  0  0  0  0
 43 42  1  0  0  0  0
M  END
>  <MODEL>
4

>  <REMARK>
 VINA RESULT:      -6.8      4.549     10.133
  Name = 
  11 active torsions:
  status: ('A' for Active; 'I' for Inactive)
    1  A    between atoms: C_3  and  C_15
    2  A    between atoms: C_3  and  C_37
    3  A    between atoms: C_5  and  C_22
    4  A    between atoms: N_6  and  N_13
    5  A    between atoms: N_6  and  N_33
    6  A    between atoms: C_8  and  C_12
    7  A    between atoms: N_9  and  C_23
    8  A    between atoms: C_14  and  N_38
    9  A    between atoms: C_15  and  C_24
   10  A    between atoms: C_16  and  C_41
   11  A    between atoms: C_26  and  N_35
                            x       y       z     vdW  Elec       q    Type
                         _______ _______ _______ _____ _____    ______ ____

>  <TORSDO>
F 11

$$$$
=
 OpenBabel11042419053D

 43 48  0  0  1  0  0  0  0  0999 V2000
  193.5790  176.1170  146.3760 N   0  0  0  0  0  2  0  0  0  0  0  0
  194.1300  173.8490  144.8660 C   0  0  0  0  0  0  0  0  0  0  0  0
  195.2310  174.5600  145.5440 C   0  0  0  0  0  0  0  0  0  0  0  0
  192.8140  172.5690  143.6330 C   0  0  0  0  0  0  0  0  0  0  0  0
  195.3180  171.9840  143.5620 C   0  0  0  0  0  1  0  0  0  0  0  0
  192.8310  174.2660  144.9730 C   0  0  0  0  0  0  0  0  0  0  0  0
  191.9960  173.4820  144.2370 N   0  0  0  0  0  0  0  0  0  0  0  0
  194.1340  172.7710  144.0110 C   0  0  0  0  0  0  0  0  0  0  0  0
  192.5150  175.4540  145.7290 N   0  0  0  0  0  0  0  0  0  0  0  0
  194.9380  175.6530  146.2600 C   0  0  0  0  0  3  0  0  0  0  0  0
  191.1970  175.9700  145.9100 C   0  0  0  0  0  0  0  0  0  0  0  0
  189.3710  177.3690  145.1500 C   0  0  0  0  0  3  0  0  0  0  0  0
  188.5510  176.8750  146.1740 C   0  0  0  0  0  0  0  0  0  0  0  0
  189.0680  175.9180  147.0640 C   0  0  0  0  0  3  0  0  0  0  0  0
  190.3830  175.4650  146.9300 C   0  0  0  0  0  3  0  0  0  0  0  0
  190.6830  176.9110  145.0090 C   0  0  0  0  0  0  0  0  0  0  0  0
  191.4590  177.4050  144.0130 F   0  0  0  0  0  0  0  0  0  0  0  0
  187.2000  177.3390  146.3080 N   0  0  0  0  0  0  0  0  0  0  0  0
  185.3270  178.6740  146.3400 C   0  0  2  0  0  3  0  0  0  0  0  0
  186.2300  176.7940  147.2300 C   0  0  0  0  0  2  0  0  0  0  0  0
  186.6620  178.4940  145.6570 C   0  0  0  0  0  2  0  0  0  0  0  0
  185.0220  177.5020  147.0690 O   0  0  0  0  0  0  0  0  0  0  0  0
  184.5530  178.1760  144.0460 C   0  0  0  0  0  2  0  0  0  0  0  0
  184.8450  179.6560  144.1250 C   0  0  0  0  0  2  0  0  0  0  0  0
  184.2420  178.9410  145.3160 C   0  0  0  0  0  3  0  0  0  0  0  0
  192.4010  171.5600  142.6410 C   0  0  0  0  0  0  0  0  0  0  0  0
  192.1630  170.3750  143.0020 O   0  0  0  0  0  0  0  0  0  0  0  0
  192.3550  171.9080  141.2510 N   0  0  0  0  0  2  0  0  0  0  0  0
  191.9640  170.9760  140.2800 N   0  0  0  0  0  2  0  0  0  0  0  0
  190.5790  171.1140  140.1130 N   0  0  0  0  0  2  0  0  0  0  0  0
  188.7690  171.9670  138.9420 O   0  0  0  0  0  0  0  0  0  0  0  0
  190.0190  171.8550  139.0280 C   0  0  0  0  0  0  0  0  0  0  0  0
  190.8800  172.4950  137.9850 C   0  0  2  0  0  3  0  0  0  0  0  0
  191.4400  173.6560  138.4780 F   0  0  0  0  0  0  0  0  0  0  0  0
  190.0840  172.8040  136.7240 C   0  0  0  0  0  2  0  0  0  0  0  0
  188.8480  174.7860  136.2410 O   0  0  0  0  0  1  0  0  0  0  0  0
  190.1430  174.2830  136.3850 C   0  0  0  0  0  3  0  0  0  0  0  0
  190.8370  174.4520  135.1900 O   0  0  0  0  0  1  0  0  0  0  0  0
  189.8320  172.5360  143.4310 C   0  0  0  0  0  2  0  0  0  0  0  0
  190.5820  173.7590  143.9410 C   0  0  0  0  0  3  0  0  0  0  0  0
  189.6970  172.9400  144.8730 C   0  0  0  0  0  2  0  0  0  0  0  0
  197.0660  173.4690  146.5660 O   0  0  0  0  0  1  0  0  0  0  0  0
  196.6530  174.1280  145.4040 C   0  0  0  0  0  2  0  0  0  0  0  0
  2  6  2  0  0  0  0
  2  3  1  0  0  0  0
  3 10  2  0  0  0  0
  4  8  2  0  0  0  0
  4  7  1  0  0  0  0
  5  8  1  0  0  0  0
  6  9  1  0  0  0  0
  7  6  1  0  0  0  0
  8  2  1  0  0  0  0
  9 11  1  0  0  0  0
  9  1  1  0  0  0  0
 10  1  1  0  0  0  0
 11 15  1  0  0  0  0
 12 13  2  0  0  0  0
 13 18  1  0  0  0  0
 13 14  1  0  0  0  0
 15 14  2  0  0  0  0
 16 12  1  0  0  0  0
 16 11  2  0  0  0  0
 17 16  1  0  0  0  0
 18 20  1  0  0  0  0
 19 25  1  6  0  0  0
 19 22  1  0  0  0  0
 21 18  1  0  0  0  0
 21 19  1  0  0  0  0
 22 20  1  0  0  0  0
 23 24  1  0  0  0  0
 23 25  1  0  0  0  0
 24 25  1  0  0  0  0
 26 27  2  0  0  0  0
 26  4  1  0  0  0  0
 28 26  1  0  0  0  0
 29 28  1  0  0  0  0
 30 29  1  0  0  0  0
 31 32  2  0  0  0  0
 32 30  1  0  0  0  0
 33 34  1  1  0  0  0
 33 32  1  0  0  0  0
 35 33  1  0  0  0  0
 36 37  1  0  0  0  0
 37 35  1  0  0  0  0
 38 37  1  0  0  0  0
 39 40  1  0  0  0  0
 39 41  1  0  0  0  0
 40  7  1  0  0  0  0
 40 41  1  0  0  0  0
 43  3  1  0  0  0  0
 43 42  1  0  0  0  0
M  END
>  <MODEL>
5

>  <REMARK>
 VINA RESULT:      -6.7      1.725      2.057
  Name = 
  11 active torsions:
  status: ('A' for Active; 'I' for Inactive)
    1  A    between atoms: C_3  and  C_15
    2  A    between atoms: C_3  and  C_37
    3  A    between atoms: C_5  and  C_22
    4  A    between atoms: N_6  and  N_13
    5  A    between atoms: N_6  and  N_33
    6  A    between atoms: C_8  and  C_12
    7  A    between atoms: N_9  and  C_23
    8  A    between atoms: C_14  and  N_38
    9  A    between atoms: C_15  and  C_24
   10  A    between atoms: C_16  and  C_41
   11  A    between atoms: C_26  and  N_35
                            x       y       z     vdW  Elec       q    Type
                         _______ _______ _______ _____ _____    ______ ____

>  <TORSDO>
F 11

$$$$
=
 OpenBabel11042419053D

 43 48  0  0  1  0  0  0  0  0999 V2000
  187.0610  175.4840  142.4370 N   0  0  0  0  0  2  0  0  0  0  0  0
  188.3220  176.2750  144.7850 C   0  0  0  0  0  0  0  0  0  0  0  0
  186.9860  176.8100  144.4580 C   0  0  0  0  0  0  0  0  0  0  0  0
  190.3270  175.7990  145.5890 C   0  0  0  0  0  0  0  0  0  0  0  0
  188.9540  177.4940  146.9540 C   0  0  0  0  0  1  0  0  0  0  0  0
  188.9580  175.3790  143.9680 C   0  0  0  0  0  0  0  0  0  0  0  0
  190.1880  175.0550  144.4510 N   0  0  0  0  0  0  0  0  0  0  0  0
  189.1850  176.5550  145.8200 C   0  0  0  0  0  0  0  0  0  0  0  0
  188.3410  174.9680  142.7310 N   0  0  0  0  0  0  0  0  0  0  0  0
  186.4040  176.4160  143.3180 C   0  0  0  0  0  3  0  0  0  0  0  0
  188.9120  174.0370  141.8130 C   0  0  0  0  0  0  0  0  0  0  0  0
  189.1260  171.7690  140.9900 C   0  0  0  0  0  3  0  0  0  0  0  0
  189.9120  172.2180  139.9200 C   0  0  0  0  0  0  0  0  0  0  0  0
  190.1890  173.5910  139.8030 C   0  0  0  0  0  3  0  0  0  0  0  0
  189.6870  174.4960  140.7420 C   0  0  0  0  0  3  0  0  0  0  0  0
  188.6180  172.6720  141.9260 C   0  0  0  0  0  0  0  0  0  0  0  0
  187.8630  172.2140  142.9550 F   0  0  0  0  0  0  0  0  0  0  0  0
  190.4220  171.2880  138.9540 N   0  0  0  0  0  0  0  0  0  0  0  0
  190.7810  170.1140  137.0090 C   0  0  2  0  0  3  0  0  0  0  0  0
  190.9320  169.9730  139.2670 C   0  0  0  0  0  2  0  0  0  0  0  0
  190.3680  171.4680  137.5350 C   0  0  0  0  0  2  0  0  0  0  0  0
  191.3430  169.3610  138.0660 O   0  0  0  0  0  0  0  0  0  0  0  0
  191.5680  169.1810  134.8600 C   0  0  0  0  0  2  0  0  0  0  0  0
  192.6930  169.0520  135.8620 C   0  0  0  0  0  2  0  0  0  0  0  0
  191.7920  170.2680  135.8910 C   0  0  0  0  0  3  0  0  0  0  0  0
  191.5370  175.8850  146.4260 C   0  0  0  0  0  0  0  0  0  0  0  0
  191.5710  175.3180  147.5520 O   0  0  0  0  0  0  0  0  0  0  0  0
  192.6430  176.6880  145.9930 N   0  0  0  0  0  2  0  0  0  0  0  0
  193.8120  176.7910  146.7610 N   0  0  0  0  0  2  0  0  0  0  0  0
  194.5720  175.6410  146.5070 N   0  0  0  0  0  2  0  0  0  0  0  0
  195.9180  174.3910  145.0920 O   0  0  0  0  0  0  0  0  0  0  0  0
  195.2720  175.4550  145.2750 C   0  0  0  0  0  0  0  0  0  0  0  0
  195.2640  176.4960  144.2010 C   0  0  2  0  0  3  0  0  0  0  0  0
  194.2510  176.2400  143.2990 F   0  0  0  0  0  0  0  0  0  0  0  0
  196.6000  176.5490  143.4720 C   0  0  0  0  0  2  0  0  0  0  0  0
  197.6660  175.0730  141.9310 O   0  0  0  0  0  1  0  0  0  0  0  0
  196.5210  175.8480  142.1270 C   0  0  0  0  0  3  0  0  0  0  0  0
  196.4330  176.8030  141.1180 O   0  0  0  0  0  1  0  0  0  0  0  0
  192.2130  173.6130  144.6740 C   0  0  0  0  0  2  0  0  0  0  0  0
  191.2300  174.3010  143.7360 C   0  0  0  0  0  3  0  0  0  0  0  0
  191.0960  172.8180  144.0580 C   0  0  0  0  0  2  0  0  0  0  0  0
  184.9160  177.6590  145.2290 O   0  0  0  0  0  1  0  0  0  0  0  0
  186.3030  177.8110  145.3280 C   0  0  0  0  0  2  0  0  0  0  0  0
  1  9  1  0  0  0  0
  1 10  1  0  0  0  0
  2  8  1  0  0  0  0
  3  2  1  0  0  0  0
  3 43  1  0  0  0  0
  4  8  2  0  0  0  0
  4 26  1  0  0  0  0
  6  7  1  0  0  0  0
  6  2  2  0  0  0  0
  7  4  1  0  0  0  0
  8  5  1  0  0  0  0
  9  6  1  0  0  0  0
 10  3  2  0  0  0  0
 11 16  1  0  0  0  0
 11  9  1  0  0  0  0
 12 16  2  0  0  0  0
 13 12  1  0  0  0  0
 14 13  2  0  0  0  0
 14 15  1  0  0  0  0
 15 11  2  0  0  0  0
 16 17  1  0  0  0  0
 18 20  1  0  0  0  0
 18 13  1  0  0  0  0
 19 25  1  6  0  0  0
 19 21  1  0  0  0  0
 19 22  1  0  0  0  0
 21 18  1  0  0  0  0
 22 20  1  0  0  0  0
 23 24  1  0  0  0  0
 23 25  1  0  0  0  0
 24 25  1  0  0  0  0
 26 27  2  0  0  0  0
 28 26  1  0  0  0  0
 28 29  1  0  0  0  0
 30 29  1  0  0  0  0
 31 32  2  0  0  0  0
 32 30  1  0  0  0  0
 33 34  1  6  0  0  0
 33 32  1  0  0  0  0
 35 33  1  0  0  0  0
 36 37  1  0  0  0  0
 37 35  1  0  0  0  0
 38 37  1  0  0  0  0
 40 41  1  0  0  0  0
 40  7  1  0  0  0  0
 40 39  1  0  0  0  0
 41 39  1  0  0  0  0
 42 43  1  0  0  0  0
M  END
>  <MODEL>
6

>  <REMARK>
 VINA RESULT:      -6.7      2.669      8.773
  Name = 
  11 active torsions:
  status: ('A' for Active; 'I' for Inactive)
    1  A    between atoms: C_3  and  C_15
    2  A    between atoms: C_3  and  C_37
    3  A    between atoms: C_5  and  C_22
    4  A    between atoms: N_6  and  N_13
    5  A    between atoms: N_6  and  N_33
    6  A    between atoms: C_8  and  C_12
    7  A    between atoms: N_9  and  C_23
    8  A    between atoms: C_14  and  N_38
    9  A    between atoms: C_15  and  C_24
   10  A    between atoms: C_16  and  C_41
   11  A    between atoms: C_26  and  N_35
                            x       y       z     vdW  Elec       q    Type
                         _______ _______ _______ _____ _____    ______ ____

>  <TORSDO>
F 11

$$$$
=
 OpenBabel11042419053D

 43 48  0  0  1  0  0  0  0  0999 V2000
  186.1960  176.4170  143.6330 N   0  0  0  0  0  2  0  0  0  0  0  0
  187.9970  176.8620  145.7020 C   0  0  0  0  0  0  0  0  0  0  0  0
  186.6420  177.4390  145.7780 C   0  0  0  0  0  0  0  0  0  0  0  0
  190.1170  176.2750  145.9350 C   0  0  0  0  0  0  0  0  0  0  0  0
  189.1610  177.7560  147.8080 C   0  0  0  0  0  1  0  0  0  0  0  0
  188.3940  176.0920  144.6420 C   0  0  0  0  0  0  0  0  0  0  0  0
  189.6910  175.7010  144.7700 N   0  0  0  0  0  0  0  0  0  0  0  0
  189.0880  176.9900  146.5320 C   0  0  0  0  0  0  0  0  0  0  0  0
  187.4910  175.8630  143.5400 N   0  0  0  0  0  0  0  0  0  0  0  0
  185.7960  177.2130  144.7650 C   0  0  0  0  0  3  0  0  0  0  0  0
  187.7990  175.0730  142.3930 C   0  0  0  0  0  0  0  0  0  0  0  0
  188.5500  174.9160  140.0960 C   0  0  0  0  0  3  0  0  0  0  0  0
  188.5530  173.5170  140.1790 C   0  0  0  0  0  0  0  0  0  0  0  0
  188.1780  172.9030  141.3860 C   0  0  0  0  0  3  0  0  0  0  0  0
  187.8080  173.6760  142.4880 C   0  0  0  0  0  3  0  0  0  0  0  0
  188.1880  175.6920  141.1990 C   0  0  0  0  0  0  0  0  0  0  0  0
  188.1890  177.0440  141.0940 F   0  0  0  0  0  0  0  0  0  0  0  0
  188.9370  172.7240  139.0470 N   0  0  0  0  0  0  0  0  0  0  0  0
  190.0800  171.3030  137.6440 C   0  0  2  0  0  3  0  0  0  0  0  0
  188.6340  173.0500  137.6720 C   0  0  0  0  0  2  0  0  0  0  0  0
  189.7950  171.5800  139.1020 C   0  0  0  0  0  2  0  0  0  0  0  0
  189.1700  172.0390  136.8500 O   0  0  0  0  0  0  0  0  0  0  0  0
  191.2730  169.1400  137.5810 C   0  0  0  0  0  2  0  0  0  0  0  0
  190.8240  169.4630  136.1750 C   0  0  0  0  0  2  0  0  0  0  0  0
  189.9410  169.8230  137.3510 C   0  0  0  0  0  3  0  0  0  0  0  0
  191.4920  176.2390  146.4660 C   0  0  0  0  0  0  0  0  0  0  0  0
  191.7890  175.4530  147.4060 O   0  0  0  0  0  0  0  0  0  0  0  0
  192.4690  177.1620  145.9680 N   0  0  0  0  0  2  0  0  0  0  0  0
  193.7860  177.1570  146.4460 N   0  0  0  0  0  2  0  0  0  0  0  0
  194.6200  177.4370  145.3540 N   0  0  0  0  0  2  0  0  0  0  0  0
  196.1530  176.7370  143.7610 O   0  0  0  0  0  0  0  0  0  0  0  0
  195.4020  176.4240  144.7210 C   0  0  0  0  0  0  0  0  0  0  0  0
  195.3470  174.9950  145.1640 C   0  0  2  0  0  3  0  0  0  0  0  0
  195.6960  174.8970  146.4960 F   0  0  0  0  0  0  0  0  0  0  0  0
  196.2680  174.1200  144.3250 C   0  0  0  0  0  2  0  0  0  0  0  0
  194.7210  173.6930  142.5600 O   0  0  0  0  0  1  0  0  0  0  0  0
  195.4810  173.0740  143.5550 C   0  0  0  0  0  3  0  0  0  0  0  0
  194.6340  172.4020  144.4310 O   0  0  0  0  0  1  0  0  0  0  0  0
  191.8210  174.5000  144.2710 C   0  0  0  0  0  2  0  0  0  0  0  0
  190.5100  175.0580  143.7320 C   0  0  0  0  0  3  0  0  0  0  0  0
  190.6590  173.5740  144.0470 C   0  0  0  0  0  2  0  0  0  0  0  0
  185.0130  178.9460  146.6020 O   0  0  0  0  0  1  0  0  0  0  0  0
  186.2160  178.3050  146.9160 C   0  0  0  0  0  2  0  0  0  0  0  0
  1 10  1  0  0  0  0
  2  3  1  0  0  0  0
  2  8  1  0  0  0  0
  3 43  1  0  0  0  0
  4 26  1  0  0  0  0
  4  8  2  0  0  0  0
  6  7  1  0  0  0  0
  6  2  2  0  0  0  0
  7  4  1  0  0  0  0
  8  5  1  0  0  0  0
  9  1  1  0  0  0  0
  9  6  1  0  0  0  0
 10  3  2  0  0  0  0
 11 15  1  0  0  0  0
 11  9  1  0  0  0  0
 12 13  2  0  0  0  0
 12 16  1  0  0  0  0
 13 14  1  0  0  0  0
 14 15  2  0  0  0  0
 16 11  2  0  0  0  0
 17 16  1  0  0  0  0
 18 21  1  0  0  0  0
 18 13  1  0  0  0  0
 19 25  1  1  0  0  0
 19 21  1  0  0  0  0
 20 18  1  0  0  0  0
 22 19  1  0  0  0  0
 22 20  1  0  0  0  0
 24 25  1  0  0  0  0
 24 23  1  0  0  0  0
 25 23  1  0  0  0  0
 26 27  2  0  0  0  0
 28 29  1  0  0  0  0
 28 26  1  0  0  0  0
 30 29  1  0  0  0  0
 31 32  2  0  0  0  0
 32 33  1  0  0  0  0
 32 30  1  0  0  0  0
 33 34  1  1  0  0  0
 35 33  1  0  0  0  0
 36 37  1  0  0  0  0
 37 35  1  0  0  0  0
 37 38  1  0  0  0  0
 40 41  1  0  0  0  0
 40 39  1  0  0  0  0
 40  7  1  0  0  0  0
 41 39  1  0  0  0  0
 42 43  1  0  0  0  0
M  END
>  <MODEL>
7

>  <REMARK>
 VINA RESULT:      -6.5      2.712      8.464
  Name = 
  11 active torsions:
  status: ('A' for Active; 'I' for Inactive)
    1  A    between atoms: C_3  and  C_15
    2  A    between atoms: C_3  and  C_37
    3  A    between atoms: C_5  and  C_22
    4  A    between atoms: N_6  and  N_13
    5  A    between atoms: N_6  and  N_33
    6  A    between atoms: C_8  and  C_12
    7  A    between atoms: N_9  and  C_23
    8  A    between atoms: C_14  and  N_38
    9  A    between atoms: C_15  and  C_24
   10  A    between atoms: C_16  and  C_41
   11  A    between atoms: C_26  and  N_35
                            x       y       z     vdW  Elec       q    Type
                         _______ _______ _______ _____ _____    ______ ____

>  <TORSDO>
F 11

$$$$
=
 OpenBabel11042419053D

 43 48  0  0  1  0  0  0  0  0999 V2000
  194.1690  175.3710  145.7830 N   0  0  0  0  0  2  0  0  0  0  0  0
  195.3980  174.2210  143.5710 C   0  0  0  0  0  0  0  0  0  0  0  0
  196.1550  174.3760  144.8280 C   0  0  0  0  0  0  0  0  0  0  0  0
  194.6690  173.8990  141.5080 C   0  0  0  0  0  0  0  0  0  0  0  0
  197.1230  173.2530  141.9350 C   0  0  0  0  0  1  0  0  0  0  0  0
  194.0910  174.6140  143.4640 C   0  0  0  0  0  0  0  0  0  0  0  0
  193.6120  174.4080  142.2070 N   0  0  0  0  0  0  0  0  0  0  0  0
  195.7800  173.7670  142.3290 C   0  0  0  0  0  0  0  0  0  0  0  0
  193.4320  175.2370  144.5870 N   0  0  0  0  0  0  0  0  0  0  0  0
  195.5390  174.9380  145.8770 C   0  0  0  0  0  3  0  0  0  0  0  0
  192.0740  175.6750  144.5860 C   0  0  0  0  0  0  0  0  0  0  0  0
  189.7400  175.2690  145.0910 C   0  0  0  0  0  3  0  0  0  0  0  0
  189.4210  176.5850  144.7270 C   0  0  0  0  0  0  0  0  0  0  0  0
  190.4450  177.4440  144.2960 C   0  0  0  0  0  3  0  0  0  0  0  0
  191.7650  176.9930  144.2300 C   0  0  0  0  0  3  0  0  0  0  0  0
  191.0600  174.8190  145.0330 C   0  0  0  0  0  0  0  0  0  0  0  0
  191.3470  173.5410  145.3860 F   0  0  0  0  0  0  0  0  0  0  0  0
  188.0650  177.0480  144.8000 N   0  0  0  0  0  0  0  0  0  0  0  0
  185.9480  177.5430  145.5530 C   0  0  2  0  0  3  0  0  0  0  0  0
  187.1490  177.0940  143.6820 C   0  0  0  0  0  2  0  0  0  0  0  0
  187.3800  177.3920  146.0080 C   0  0  0  0  0  2  0  0  0  0  0  0
  185.9190  177.6070  144.1400 O   0  0  0  0  0  0  0  0  0  0  0  0
  184.0710  178.4400  146.8870 C   0  0  0  0  0  2  0  0  0  0  0  0
  183.9840  179.0400  145.5030 C   0  0  0  0  0  2  0  0  0  0  0  0
  185.3370  178.8010  146.1380 C   0  0  0  0  0  3  0  0  0  0  0  0
  194.6920  173.6070  140.0630 C   0  0  0  0  0  0  0  0  0  0  0  0
  194.6440  172.4140  139.6560 O   0  0  0  0  0  0  0  0  0  0  0  0
  194.8560  174.6790  139.1250 N   0  0  0  0  0  2  0  0  0  0  0  0
  194.8790  174.4400  137.7440 N   0  0  0  0  0  2  0  0  0  0  0  0
  194.2230  175.5180  137.1310 N   0  0  0  0  0  2  0  0  0  0  0  0
  192.3930  176.3750  135.9950 O   0  0  0  0  0  0  0  0  0  0  0  0
  192.9240  175.3810  136.5540 C   0  0  0  0  0  0  0  0  0  0  0  0
  192.1720  174.0880  136.6060 C   0  0  2  0  0  3  0  0  0  0  0  0
  192.5920  173.2540  135.5900 F   0  0  0  0  0  0  0  0  0  0  0  0
  190.6700  174.3160  136.4960 C   0  0  0  0  0  2  0  0  0  0  0  0
  189.4340  172.2960  136.7720 O   0  0  0  0  0  1  0  0  0  0  0  0
  189.9060  173.4190  137.4540 C   0  0  0  0  0  3  0  0  0  0  0  0
  188.8280  174.1250  137.9810 O   0  0  0  0  0  1  0  0  0  0  0  0
  191.8330  174.0960  140.4850 C   0  0  0  0  0  2  0  0  0  0  0  0
  192.3350  174.9060  141.6730 C   0  0  0  0  0  3  0  0  0  0  0  0
  191.2590  173.8430  141.8510 C   0  0  0  0  0  2  0  0  0  0  0  0
  197.6820  172.6410  145.3360 O   0  0  0  0  0  1  0  0  0  0  0  0
  197.5890  173.9790  144.9400 C   0  0  0  0  0  2  0  0  0  0  0  0
  1 10  1  0  0  0  0
  2  3  1  0  0  0  0
  3 43  1  0  0  0  0
  3 10  2  0  0  0  0
  4  7  1  0  0  0  0
  4  8  2  0  0  0  0
  5  8  1  0  0  0  0
  6  2  2  0  0  0  0
  6  9  1  0  0  0  0
  7  6  1  0  0  0  0
  8  2  1  0  0  0  0
  9  1  1  0  0  0  0
 11  9  1  0  0  0  0
 11 16  1  0  0  0  0
 13 18  1  0  0  0  0
 13 12  1  0  0  0  0
 14 13  2  0  0  0  0
 15 14  1  0  0  0  0
 15 11  2  0  0  0  0
 16 12  2  0  0  0  0
 16 17  1  0  0  0  0
 18 21  1  0  0  0  0
 19 21  1  0  0  0  0
 19 25  1  1  0  0  0
 20 22  1  0  0  0  0
 20 18  1  0  0  0  0
 22 19  1  0  0  0  0
 24 25  1  0  0  0  0
 24 23  1  0  0  0  0
 25 23  1  0  0  0  0
 26  4  1  0  0  0  0
 27 26  2  0  0  0  0
 28 26  1  0  0  0  0
 29 28  1  0  0  0  0
 30 29  1  0  0  0  0
 31 32  2  0  0  0  0
 32 33  1  0  0  0  0
 32 30  1  0  0  0  0
 33 34  1  6  0  0  0
 35 33  1  0  0  0  0
 35 37  1  0  0  0  0
 36 37  1  0  0  0  0
 37 38  1  0  0  0  0
 39 40  1  0  0  0  0
 39 41  1  0  0  0  0
 40 41  1  0  0  0  0
 40  7  1  0  0  0  0
 43 42  1  0  0  0  0
M  END
>  <MODEL>
8

>  <REMARK>
 VINA RESULT:      -6.5      2.985      3.364
  Name = 
  11 active torsions:
  status: ('A' for Active; 'I' for Inactive)
    1  A    between atoms: C_3  and  C_15
    2  A    between atoms: C_3  and  C_37
    3  A    between atoms: C_5  and  C_22
    4  A    between atoms: N_6  and  N_13
    5  A    between atoms: N_6  and  N_33
    6  A    between atoms: C_8  and  C_12
    7  A    between atoms: N_9  and  C_23
    8  A    between atoms: C_14  and  N_38
    9  A    between atoms: C_15  and  C_24
   10  A    between atoms: C_16  and  C_41
   11  A    between atoms: C_26  and  N_35
                            x       y       z     vdW  Elec       q    Type
                         _______ _______ _______ _____ _____    ______ ____

>  <TORSDO>
F 11

$$$$
=
 OpenBabel11042419053D

 43 48  0  0  1  0  0  0  0  0999 V2000
  188.1230  173.9890  139.0430 N   0  0  0  0  0  2  0  0  0  0  0  0
  190.8190  173.4450  139.4430 C   0  0  0  0  0  0  0  0  0  0  0  0
  190.1440  172.9370  138.2330 C   0  0  0  0  0  0  0  0  0  0  0  0
  192.1630  173.9230  141.1330 C   0  0  0  0  0  0  0  0  0  0  0  0
  193.1930  172.4850  139.2650 C   0  0  0  0  0  1  0  0  0  0  0  0
  190.1570  174.1970  140.3750 C   0  0  0  0  0  0  0  0  0  0  0  0
  190.9690  174.5220  141.4190 N   0  0  0  0  0  0  0  0  0  0  0  0
  192.0980  173.2590  139.9160 C   0  0  0  0  0  0  0  0  0  0  0  0
  188.7510  174.4760  140.2090 N   0  0  0  0  0  0  0  0  0  0  0  0
  188.8430  173.2100  138.0690 C   0  0  0  0  0  3  0  0  0  0  0  0
  187.9690  175.2540  141.1140 C   0  0  0  0  0  0  0  0  0  0  0  0
  186.7470  175.4470  143.1960 C   0  0  0  0  0  3  0  0  0  0  0  0
  186.5590  176.8180  142.9730 C   0  0  0  0  0  0  0  0  0  0  0  0
  187.0890  177.4010  141.8090 C   0  0  0  0  0  3  0  0  0  0  0  0
  187.7950  176.6240  140.8870 C   0  0  0  0  0  3  0  0  0  0  0  0
  187.4580  174.6700  142.2800 C   0  0  0  0  0  0  0  0  0  0  0  0
  187.6250  173.3450  142.5150 F   0  0  0  0  0  0  0  0  0  0  0  0
  185.8380  177.6150  143.9220 N   0  0  0  0  0  0  0  0  0  0  0  0
  184.4550  178.2760  145.6390 C   0  0  2  0  0  3  0  0  0  0  0  0
  185.3800  178.9660  143.6860 C   0  0  0  0  0  2  0  0  0  0  0  0
  185.3430  177.1440  145.1800 C   0  0  0  0  0  2  0  0  0  0  0  0
  184.7190  179.4170  144.8450 O   0  0  0  0  0  0  0  0  0  0  0  0
  186.1160  179.1420  147.2510 C   0  0  0  0  0  2  0  0  0  0  0  0
  185.8260  177.7040  147.6120 C   0  0  0  0  0  2  0  0  0  0  0  0
  184.7130  178.5920  147.0980 C   0  0  0  0  0  3  0  0  0  0  0  0
  193.3460  173.8860  142.0130 C   0  0  0  0  0  0  0  0  0  0  0  0
  193.4030  173.0610  142.9650 O   0  0  0  0  0  0  0  0  0  0  0  0
  194.3930  174.8490  141.8350 N   0  0  0  0  0  2  0  0  0  0  0  0
  195.5330  174.8440  142.6500 N   0  0  0  0  0  2  0  0  0  0  0  0
  195.5030  176.0250  143.4050 N   0  0  0  0  0  2  0  0  0  0  0  0
  195.1290  177.1190  145.4140 O   0  0  0  0  0  0  0  0  0  0  0  0
  195.1650  176.0260  144.7920 C   0  0  0  0  0  0  0  0  0  0  0  0
  194.8620  174.7600  145.5300 C   0  0  2  0  0  3  0  0  0  0  0  0
  193.9230  174.9960  146.5130 F   0  0  0  0  0  0  0  0  0  0  0  0
  196.1200  174.1660  146.1510 C   0  0  0  0  0  2  0  0  0  0  0  0
  196.8170  171.8860  146.1410 O   0  0  0  0  0  1  0  0  0  0  0  0
  196.6460  173.0060  145.3250 C   0  0  0  0  0  3  0  0  0  0  0  0
  197.8700  173.3600  144.7650 O   0  0  0  0  0  1  0  0  0  0  0  0
  191.6980  175.7660  143.4550 C   0  0  0  0  0  2  0  0  0  0  0  0
  190.5460  175.1260  142.6910 C   0  0  0  0  0  3  0  0  0  0  0  0
  190.7780  176.6320  142.6410 C   0  0  0  0  0  2  0  0  0  0  0  0
  190.7220  170.7400  137.5710 O   0  0  0  0  0  1  0  0  0  0  0  0
  190.8530  172.0900  137.2310 C   0  0  0  0  0  2  0  0  0  0  0  0
  1  9  1  0  0  0  0
  2  8  1  0  0  0  0
  2  6  2  0  0  0  0
  3  2  1  0  0  0  0
  4  7  1  0  0  0  0
  4 26  1  0  0  0  0
  5  8  1  0  0  0  0
  6  7  1  0  0  0  0
  7 40  1  0  0  0  0
  8  4  2  0  0  0  0
  9  6  1  0  0  0  0
  9 11  1  0  0  0  0
 10  3  2  0  0  0  0
 10  1  1  0  0  0  0
 11 16  1  0  0  0  0
 13 12  1  0  0  0  0
 13 18  1  0  0  0  0
 14 13  2  0  0  0  0
 15 11  2  0  0  0  0
 15 14  1  0  0  0  0
 16 17  1  0  0  0  0
 16 12  2  0  0  0  0
 18 21  1  0  0  0  0
 19 25  1  1  0  0  0
 20 18  1  0  0  0  0
 20 22  1  0  0  0  0
 21 19  1  0  0  0  0
 22 19  1  0  0  0  0
 23 24  1  0  0  0  0
 25 23  1  0  0  0  0
 25 24  1  0  0  0  0
 26 27  2  0  0  0  0
 28 26  1  0  0  0  0
 28 29  1  0  0  0  0
 29 30  1  0  0  0  0
 30 32  1  0  0  0  0
 32 31  2  0  0  0  0
 32 33  1  0  0  0  0
 33 35  1  0  0  0  0
 33 34  1  1  0  0  0
 37 36  1  0  0  0  0
 37 35  1  0  0  0  0
 38 37  1  0  0  0  0
 40 39  1  0  0  0  0
 41 40  1  0  0  0  0
 41 39  1  0  0  0  0
 43 42  1  0  0  0  0
 43  3  1  0  0  0  0
M  END
>  <MODEL>
9

>  <REMARK>
 VINA RESULT:      -6.4      2.902      6.583
  Name = 
  11 active torsions:
  status: ('A' for Active; 'I' for Inactive)
    1  A    between atoms: C_3  and  C_15
    2  A    between atoms: C_3  and  C_37
    3  A    between atoms: C_5  and  C_22
    4  A    between atoms: N_6  and  N_13
    5  A    between atoms: N_6  and  N_33
    6  A    between atoms: C_8  and  C_12
    7  A    between atoms: N_9  and  C_23
    8  A    between atoms: C_14  and  N_38
    9  A    between atoms: C_15  and  C_24
   10  A    between atoms: C_16  and  C_41
   11  A    between atoms: C_26  and  N_35
                            x       y       z     vdW  Elec       q    Type
                         _______ _______ _______ _____ _____    ______ ____

>  <TORSDO>
F 11

$$$$
