=
 OpenBabel11042417213D

 26 28  0  0  1  0  0  0  0  0999 V2000
  188.5770  173.2500  140.8930 C   0  0  0  0  0  0  0  0  0  0  0  0
  188.5170  176.5980  142.1540 N   0  0  0  0  0  0  0  0  0  0  0  0
  188.0380  172.7500  139.6760 N   0  0  0  0  0  1  0  0  0  0  0  0
  188.4660  177.0290  144.5740 C   0  0  2  0  0  3  0  0  0  0  0  0
  189.2270  174.8020  143.5900 C   0  0  0  0  0  0  0  0  0  0  0  0
  188.7580  175.3260  142.2790 C   0  0  0  0  0  0  0  0  0  0  0  0
  189.8580  172.4630  142.8700 C   0  0  0  0  0  3  0  0  0  0  0  0
  188.7850  177.5930  143.1920 C   0  0  0  0  0  2  0  0  0  0  0  0
  189.2460  175.7300  144.7910 C   0  0  1  0  0  3  0  0  0  0  0  0
  189.6890  173.5750  143.8020 C   0  0  0  0  0  3  0  0  0  0  0  0
  188.3700  174.4980  141.1790 N   0  0  0  0  0  0  0  0  0  0  0  0
  189.3860  172.3630  141.6700 N   0  0  0  0  0  0  0  0  0  0  0  0
  191.6090  176.4460  144.3670 C   0  0  0  0  0  3  0  0  0  0  0  0
  190.6390  176.0160  145.2780 C   0  0  0  0  0  0  0  0  0  0  0  0
  192.3060  176.1180  147.0330 C   0  0  0  0  0  3  0  0  0  0  0  0
  192.8780  176.7010  144.7880 N   0  0  0  0  0  0  0  0  0  0  0  0
  191.0000  175.8500  146.6220 C   0  0  0  0  0  3  0  0  0  0  0  0
  194.5770  176.8250  146.4920 N   0  0  0  0  0  1  0  0  0  0  0  0
  193.2410  176.5490  146.0900 C   0  0  0  0  0  0  0  0  0  0  0  0
  186.9680  176.7830  144.7550 C   0  0  0  0  0  2  0  0  0  0  0  0
  186.5410  176.7420  146.2210 C   0  0  1  0  0  3  0  0  0  0  0  0
  187.2020  177.7330  146.9530 O   0  0  0  0  0  1  0  0  0  0  0  0
  185.0350  176.8820  146.3700 C   0  0  0  0  0  2  0  0  0  0  0  0
  184.6630  178.3330  146.6210 C   0  0  0  0  0  2  0  0  0  0  0  0
  183.9900  178.9210  145.3950 C   0  0  0  0  0  2  0  0  0  0  0  0
  184.9100  179.6710  144.6600 O   0  0  0  0  0  1  0  0  0  0  0  0
  1 11  2  0  0  0  0
  1 12  1  0  0  0  0
  2  6  2  0  0  0  0
  2  8  1  0  0  0  0
  3  1  1  0  0  0  0
  4 20  1  6  0  0  0
  4  9  1  0  0  0  0
  5 10  2  0  0  0  0
  5  9  1  0  0  0  0
  6  5  1  0  0  0  0
  7 10  1  0  0  0  0
  8  4  1  0  0  0  0
  9 14  1  6  0  0  0
 11  6  1  0  0  0  0
 12  7  2  0  0  0  0
 13 16  2  0  0  0  0
 13 14  1  0  0  0  0
 14 17  2  0  0  0  0
 16 19  1  0  0  0  0
 17 15  1  0  0  0  0
 19 18  1  0  0  0  0
 19 15  2  0  0  0  0
 20 21  1  0  0  0  0
 21 23  1  0  0  0  0
 21 22  1  1  0  0  0
 23 24  1  0  0  0  0
 25 24  1  0  0  0  0
 26 25  1  0  0  0  0
M  END
>  <MODEL>
1

>  <REMARK>
 VINA RESULT:      -6.8      0.000      0.000
  Name = 
  6 active torsions:
  status: ('A' for Active; 'I' for Inactive)
    1  A    between atoms: C_4  and  C_21
    2  A    between atoms: C_6  and  C_14
    3  A    between atoms: C_11  and  C_14
    4  A    between atoms: C_11  and  C_25
    5  A    between atoms: C_12  and  C_24
    6  A    between atoms: C_24  and  C_25
                            x       y       z     vdW  Elec       q    Type
                         _______ _______ _______ _____ _____    ______ ____

>  <TORSDO>
F 6

$$$$
=
 OpenBabel11042417213D

 26 28  0  0  1  0  0  0  0  0999 V2000
  188.4020  173.8750  139.7280 C   0  0  0  0  0  0  0  0  0  0  0  0
  187.9390  177.1350  141.1280 N   0  0  0  0  0  0  0  0  0  0  0  0
  188.3610  173.4810  138.3620 N   0  0  0  0  0  1  0  0  0  0  0  0
  186.9710  177.4130  143.3700 C   0  0  2  0  0  3  0  0  0  0  0  0
  187.9990  175.2170  142.5810 C   0  0  0  0  0  0  0  0  0  0  0  0
  188.0840  175.8470  141.2350 C   0  0  0  0  0  0  0  0  0  0  0  0
  188.8040  172.8990  141.9760 C   0  0  0  0  0  3  0  0  0  0  0  0
  187.8100  178.0460  142.2630 C   0  0  0  0  0  2  0  0  0  0  0  0
  187.5770  176.0650  143.7670 C   0  0  1  0  0  3  0  0  0  0  0  0
  188.3150  173.9570  142.8560 C   0  0  0  0  0  3  0  0  0  0  0  0
  188.1300  175.1110  140.0100 N   0  0  0  0  0  0  0  0  0  0  0  0
  188.8290  172.8990  140.6830 N   0  0  0  0  0  0  0  0  0  0  0  0
  188.4470  175.9360  146.1120 C   0  0  0  0  0  3  0  0  0  0  0  0
  188.6810  176.2470  144.7690 C   0  0  0  0  0  0  0  0  0  0  0  0
  190.9370  176.9030  145.3610 C   0  0  0  0  0  3  0  0  0  0  0  0
  189.4330  176.1030  147.0350 N   0  0  0  0  0  0  0  0  0  0  0  0
  189.9400  176.7390  144.3980 C   0  0  0  0  0  3  0  0  0  0  0  0
  191.6660  176.7370  147.6830 N   0  0  0  0  0  1  0  0  0  0  0  0
  190.6610  176.5750  146.6890 C   0  0  0  0  0  0  0  0  0  0  0  0
  185.5130  177.2340  142.9450 C   0  0  0  0  0  2  0  0  0  0  0  0
  184.7300  178.5460  142.9300 C   0  0  1  0  0  3  0  0  0  0  0  0
  183.3700  178.3030  142.7140 O   0  0  0  0  0  1  0  0  0  0  0  0
  184.9350  179.3340  144.2140 C   0  0  0  0  0  2  0  0  0  0  0  0
  184.0640  178.7710  145.3230 C   0  0  0  0  0  2  0  0  0  0  0  0
  184.9300  178.2360  146.4480 C   0  0  0  0  0  2  0  0  0  0  0  0
  184.9720  176.8420  146.3950 O   0  0  0  0  0  1  0  0  0  0  0  0
  1 11  2  0  0  0  0
  1 12  1  0  0  0  0
  2  6  2  0  0  0  0
  2  8  1  0  0  0  0
  3  1  1  0  0  0  0
  4 20  1  6  0  0  0
  4  9  1  0  0  0  0
  5 10  2  0  0  0  0
  5  9  1  0  0  0  0
  6  5  1  0  0  0  0
  7 10  1  0  0  0  0
  8  4  1  0  0  0  0
  9 14  1  1  0  0  0
 11  6  1  0  0  0  0
 12  7  2  0  0  0  0
 13 16  1  0  0  0  0
 14 13  2  0  0  0  0
 15 19  1  0  0  0  0
 17 14  1  0  0  0  0
 17 15  2  0  0  0  0
 19 16  2  0  0  0  0
 19 18  1  0  0  0  0
 21 22  1  1  0  0  0
 21 20  1  0  0  0  0
 21 23  1  0  0  0  0
 23 24  1  0  0  0  0
 24 25  1  0  0  0  0
 26 25  1  0  0  0  0
M  END
>  <MODEL>
2

>  <REMARK>
 VINA RESULT:      -6.8      1.794      2.592
  Name = 
  6 active torsions:
  status: ('A' for Active; 'I' for Inactive)
    1  A    between atoms: C_4  and  C_21
    2  A    between atoms: C_6  and  C_14
    3  A    between atoms: C_11  and  C_14
    4  A    between atoms: C_11  and  C_25
    5  A    between atoms: C_12  and  C_24
    6  A    between atoms: C_24  and  C_25
                            x       y       z     vdW  Elec       q    Type
                         _______ _______ _______ _____ _____    ______ ____

>  <TORSDO>
F 6

$$$$
=
 OpenBabel11042417213D

 26 28  0  0  1  0  0  0  0  0999 V2000
  192.5570  176.1000  146.3630 C   0  0  0  0  0  0  0  0  0  0  0  0
  190.8810  177.3240  143.4480 N   0  0  0  0  0  0  0  0  0  0  0  0
  193.9490  176.1050  146.6550 N   0  0  0  0  0  1  0  0  0  0  0  0
  188.7970  176.2790  142.6650 C   0  0  2  0  0  3  0  0  0  0  0  0
  189.6660  175.9970  145.0460 C   0  0  0  0  0  0  0  0  0  0  0  0
  190.9010  176.6830  144.5800 C   0  0  0  0  0  0  0  0  0  0  0  0
  190.4000  175.4310  147.3970 C   0  0  0  0  0  3  0  0  0  0  0  0
  189.6820  177.5240  142.6360 C   0  0  0  0  0  2  0  0  0  0  0  0
  188.4700  175.9160  144.1160 C   0  0  1  0  0  3  0  0  0  0  0  0
  189.4910  175.4760  146.2560 C   0  0  0  0  0  3  0  0  0  0  0  0
  192.1810  176.5350  145.2000 N   0  0  0  0  0  0  0  0  0  0  0  0
  191.6660  175.7000  147.4070 N   0  0  0  0  0  0  0  0  0  0  0  0
  186.0850  176.6590  143.9130 C   0  0  0  0  0  3  0  0  0  0  0  0
  187.2940  176.7090  144.6140 C   0  0  0  0  0  0  0  0  0  0  0  0
  186.2690  178.2430  146.1840 C   0  0  0  0  0  3  0  0  0  0  0  0
  185.0140  177.3770  144.3450 N   0  0  0  0  0  0  0  0  0  0  0  0
  187.3800  177.5150  145.7580 C   0  0  0  0  0  3  0  0  0  0  0  0
  183.9380  178.8960  145.8760 N   0  0  0  0  0  1  0  0  0  0  0  0
  185.0800  178.1590  145.4560 C   0  0  0  0  0  0  0  0  0  0  0  0
  189.4600  175.0960  141.9600 C   0  0  0  0  0  2  0  0  0  0  0  0
  188.5490  173.8740  141.8570 C   0  0  1  0  0  3  0  0  0  0  0  0
  188.2980  173.5610  140.5180 O   0  0  0  0  0  1  0  0  0  0  0  0
  189.1370  172.6760  142.5860 C   0  0  0  0  0  2  0  0  0  0  0  0
  190.5560  172.9740  143.0330 C   0  0  0  0  0  2  0  0  0  0  0  0
  190.7880  172.4410  144.4340 C   0  0  0  0  0  2  0  0  0  0  0  0
  189.5660  172.1320  145.0340 O   0  0  0  0  0  1  0  0  0  0  0  0
  1  3  1  0  0  0  0
  1 12  1  0  0  0  0
  2  6  2  0  0  0  0
  4 20  1  1  0  0  0
  4  9  1  0  0  0  0
  5 10  2  0  0  0  0
  6  5  1  0  0  0  0
  6 11  1  0  0  0  0
  7 12  2  0  0  0  0
  8  4  1  0  0  0  0
  8  2  1  0  0  0  0
  9 14  1  1  0  0  0
  9  5  1  0  0  0  0
 10  7  1  0  0  0  0
 11  1  2  0  0  0  0
 13 16  2  0  0  0  0
 13 14  1  0  0  0  0
 14 17  2  0  0  0  0
 16 19  1  0  0  0  0
 17 15  1  0  0  0  0
 19 18  1  0  0  0  0
 19 15  2  0  0  0  0
 21 22  1  6  0  0  0
 21 20  1  0  0  0  0
 21 23  1  0  0  0  0
 23 24  1  0  0  0  0
 24 25  1  0  0  0  0
 25 26  1  0  0  0  0
M  END
>  <MODEL>
3

>  <REMARK>
 VINA RESULT:      -6.6      2.971      6.367
  Name = 
  6 active torsions:
  status: ('A' for Active; 'I' for Inactive)
    1  A    between atoms: C_4  and  C_21
    2  A    between atoms: C_6  and  C_14
    3  A    between atoms: C_11  and  C_14
    4  A    between atoms: C_11  and  C_25
    5  A    between atoms: C_12  and  C_24
    6  A    between atoms: C_24  and  C_25
                            x       y       z     vdW  Elec       q    Type
                         _______ _______ _______ _____ _____    ______ ____

>  <TORSDO>
F 6

$$$$
=
 OpenBabel11042417213D

 26 28  0  0  1  0  0  0  0  0999 V2000
  192.9540  175.9950  145.7660 C   0  0  0  0  0  0  0  0  0  0  0  0
  189.4660  175.3820  146.2820 N   0  0  0  0  0  0  0  0  0  0  0  0
  194.0660  175.4300  146.4490 N   0  0  0  0  0  1  0  0  0  0  0  0
  187.8050  177.1440  145.8560 C   0  0  2  0  0  3  0  0  0  0  0  0
  190.1540  177.2030  144.8660 C   0  0  0  0  0  0  0  0  0  0  0  0
  190.4520  176.0330  145.7370 C   0  0  0  0  0  0  0  0  0  0  0  0
  192.4640  177.5730  143.9100 C   0  0  0  0  0  3  0  0  0  0  0  0
  188.0550  175.6450  146.0090 C   0  0  0  0  0  2  0  0  0  0  0  0
  188.7270  177.7100  144.7740 C   0  0  1  0  0  3  0  0  0  0  0  0
  191.0400  177.8320  144.1020 C   0  0  0  0  0  3  0  0  0  0  0  0
  191.7650  175.6770  146.1760 N   0  0  0  0  0  0  0  0  0  0  0  0
  193.2270  176.8020  144.6170 N   0  0  0  0  0  0  0  0  0  0  0  0
  188.4730  176.3830  142.6640 C   0  0  0  0  0  3  0  0  0  0  0  0
  188.1320  177.5170  143.4070 C   0  0  0  0  0  0  0  0  0  0  0  0
  186.7270  178.2420  141.5710 C   0  0  0  0  0  3  0  0  0  0  0  0
  187.9510  176.1960  141.4220 N   0  0  0  0  0  0  0  0  0  0  0  0
  187.2520  178.4530  142.8470 C   0  0  0  0  0  3  0  0  0  0  0  0
  186.5670  176.8620  139.5650 N   0  0  0  0  0  1  0  0  0  0  0  0
  187.0920  177.0930  140.8670 C   0  0  0  0  0  0  0  0  0  0  0  0
  188.0130  177.8910  147.1740 C   0  0  0  0  0  2  0  0  0  0  0  0
  186.7320  178.5280  147.7090 C   0  0  1  0  0  3  0  0  0  0  0  0
  187.0240  179.4210  148.7440 O   0  0  0  0  0  1  0  0  0  0  0  0
  185.9510  179.2250  146.6060 C   0  0  0  0  0  2  0  0  0  0  0  0
  184.6390  178.5040  146.3530 C   0  0  0  0  0  2  0  0  0  0  0  0
  184.4210  178.3200  144.8630 C   0  0  0  0  0  2  0  0  0  0  0  0
  184.2050  179.5580  144.2560 O   0  0  0  0  0  1  0  0  0  0  0  0
  1 11  2  0  0  0  0
  1  3  1  0  0  0  0
  4  8  1  0  0  0  0
  4 20  1  1  0  0  0
  5  6  1  0  0  0  0
  6 11  1  0  0  0  0
  6  2  2  0  0  0  0
  7 10  1  0  0  0  0
  7 12  2  0  0  0  0
  8  2  1  0  0  0  0
  9 14  1  6  0  0  0
  9  5  1  0  0  0  0
  9  4  1  0  0  0  0
 10  5  2  0  0  0  0
 12  1  1  0  0  0  0
 13 14  1  0  0  0  0
 15 17  1  0  0  0  0
 16 13  2  0  0  0  0
 17 14  2  0  0  0  0
 18 19  1  0  0  0  0
 19 16  1  0  0  0  0
 19 15  2  0  0  0  0
 20 21  1  0  0  0  0
 21 22  1  1  0  0  0
 23 21  1  0  0  0  0
 24 23  1  0  0  0  0
 25 24  1  0  0  0  0
 26 25  1  0  0  0  0
M  END
>  <MODEL>
4

>  <REMARK>
 VINA RESULT:      -6.4      2.040      5.199
  Name = 
  6 active torsions:
  status: ('A' for Active; 'I' for Inactive)
    1  A    between atoms: C_4  and  C_21
    2  A    between atoms: C_6  and  C_14
    3  A    between atoms: C_11  and  C_14
    4  A    between atoms: C_11  and  C_25
    5  A    between atoms: C_12  and  C_24
    6  A    between atoms: C_24  and  C_25
                            x       y       z     vdW  Elec       q    Type
                         _______ _______ _______ _____ _____    ______ ____

>  <TORSDO>
F 6

$$$$
=
 OpenBabel11042417213D

 26 28  0  0  1  0  0  0  0  0999 V2000
  189.4820  172.4360  142.9030 C   0  0  0  0  0  0  0  0  0  0  0  0
  189.9590  174.3540  145.8860 N   0  0  0  0  0  0  0  0  0  0  0  0
  190.0280  171.1670  142.5670 N   0  0  0  0  0  1  0  0  0  0  0  0
  189.8930  176.8120  145.8230 C   0  0  2  0  0  3  0  0  0  0  0  0
  188.8770  175.3620  143.9880 C   0  0  0  0  0  0  0  0  0  0  0  0
  189.5170  174.2060  144.6720 C   0  0  0  0  0  0  0  0  0  0  0  0
  187.9500  174.1540  141.9700 C   0  0  0  0  0  3  0  0  0  0  0  0
  189.7690  175.5600  146.6900 C   0  0  0  0  0  2  0  0  0  0  0  0
  188.9090  176.7250  144.6540 C   0  0  1  0  0  3  0  0  0  0  0  0
  188.2170  175.2990  142.8360 C   0  0  0  0  0  3  0  0  0  0  0  0
  189.8550  172.9790  144.0200 N   0  0  0  0  0  0  0  0  0  0  0  0
  188.4900  172.9800  142.0280 N   0  0  0  0  0  0  0  0  0  0  0  0
  186.9680  178.2910  144.4090 C   0  0  0  0  0  3  0  0  0  0  0  0
  187.5440  177.1990  145.0670 C   0  0  0  0  0  0  0  0  0  0  0  0
  185.5720  177.0620  146.4670 C   0  0  0  0  0  3  0  0  0  0  0  0
  185.7370  178.7390  144.7750 N   0  0  0  0  0  0  0  0  0  0  0  0
  186.8340  176.5860  146.1080 C   0  0  0  0  0  3  0  0  0  0  0  0
  183.7490  178.6490  146.1350 N   0  0  0  0  0  1  0  0  0  0  0  0
  185.0340  178.1510  145.7800 C   0  0  0  0  0  0  0  0  0  0  0  0
  191.3180  177.0030  145.3030 C   0  0  0  0  0  2  0  0  0  0  0  0
  191.3690  177.3740  143.8230 C   0  0  1  0  0  3  0  0  0  0  0  0
  191.5670  178.7490  143.6680 O   0  0  0  0  0  1  0  0  0  0  0  0
  192.4470  176.5930  143.0870 C   0  0  0  0  0  2  0  0  0  0  0  0
  193.1670  175.6600  144.0430 C   0  0  0  0  0  2  0  0  0  0  0  0
  193.1230  174.2370  143.5190 C   0  0  0  0  0  2  0  0  0  0  0  0
  193.2400  173.3350  144.5770 O   0  0  0  0  0  1  0  0  0  0  0  0
  1 11  2  0  0  0  0
  2  8  1  0  0  0  0
  3  1  1  0  0  0  0
  4 20  1  6  0  0  0
  4  8  1  0  0  0  0
  5  9  1  0  0  0  0
  5  6  1  0  0  0  0
  6  2  2  0  0  0  0
  7 12  2  0  0  0  0
  7 10  1  0  0  0  0
  9 14  1  1  0  0  0
  9  4  1  0  0  0  0
 10  5  2  0  0  0  0
 11  6  1  0  0  0  0
 12  1  1  0  0  0  0
 13 16  2  0  0  0  0
 13 14  1  0  0  0  0
 14 17  2  0  0  0  0
 16 19  1  0  0  0  0
 17 15  1  0  0  0  0
 19 18  1  0  0  0  0
 19 15  2  0  0  0  0
 21 22  1  1  0  0  0
 21 20  1  0  0  0  0
 23 21  1  0  0  0  0
 23 24  1  0  0  0  0
 25 24  1  0  0  0  0
 25 26  1  0  0  0  0
M  END
>  <MODEL>
5

>  <REMARK>
 VINA RESULT:      -6.4      2.827      5.868
  Name = 
  6 active torsions:
  status: ('A' for Active; 'I' for Inactive)
    1  A    between atoms: C_4  and  C_21
    2  A    between atoms: C_6  and  C_14
    3  A    between atoms: C_11  and  C_14
    4  A    between atoms: C_11  and  C_25
    5  A    between atoms: C_12  and  C_24
    6  A    between atoms: C_24  and  C_25
                            x       y       z     vdW  Elec       q    Type
                         _______ _______ _______ _____ _____    ______ ____

>  <TORSDO>
F 6

$$$$
=
 OpenBabel11042417213D

 26 28  0  0  1  0  0  0  0  0999 V2000
  193.4280  176.8090  146.0820 C   0  0  0  0  0  0  0  0  0  0  0  0
  190.2340  175.3600  146.7930 N   0  0  0  0  0  0  0  0  0  0  0  0
  194.5170  177.0380  146.9680 N   0  0  0  0  0  1  0  0  0  0  0  0
  188.2360  176.0450  145.5350 C   0  0  2  0  0  3  0  0  0  0  0  0
  190.6030  176.4350  144.6720 C   0  0  0  0  0  0  0  0  0  0  0  0
  191.0690  175.9780  146.0100 C   0  0  0  0  0  0  0  0  0  0  0  0
  192.8380  177.0820  143.6840 C   0  0  0  0  0  3  0  0  0  0  0  0
  188.8780  174.9710  146.4100 C   0  0  0  0  0  2  0  0  0  0  0  0
  189.1300  176.3240  144.3250 C   0  0  1  0  0  3  0  0  0  0  0  0
  191.3890  176.9000  143.7070 C   0  0  0  0  0  3  0  0  0  0  0  0
  192.3300  176.3340  146.5820 N   0  0  0  0  0  0  0  0  0  0  0  0
  193.6540  177.0350  144.6880 N   0  0  0  0  0  0  0  0  0  0  0  0
  188.2340  175.7600  142.0540 C   0  0  0  0  0  3  0  0  0  0  0  0
  188.8680  175.3340  143.2250 C   0  0  0  0  0  0  0  0  0  0  0  0
  188.9600  173.0940  142.3070 C   0  0  0  0  0  3  0  0  0  0  0  0
  187.9810  174.8760  141.0520 N   0  0  0  0  0  0  0  0  0  0  0  0
  189.2280  173.9850  143.3470 C   0  0  0  0  0  3  0  0  0  0  0  0
  188.0470  172.6700  140.0840 N   0  0  0  0  0  1  0  0  0  0  0  0
  188.3290  173.5640  141.1540 C   0  0  0  0  0  0  0  0  0  0  0  0
  187.9820  177.3350  146.3160 C   0  0  0  0  0  2  0  0  0  0  0  0
  186.7270  177.2720  147.1830 C   0  0  1  0  0  3  0  0  0  0  0  0
  186.5800  178.4510  147.9200 O   0  0  0  0  0  1  0  0  0  0  0  0
  185.4840  177.0030  146.3500 C   0  0  0  0  0  2  0  0  0  0  0  0
  184.5260  178.1770  146.4390 C   0  0  0  0  0  2  0  0  0  0  0  0
  184.4110  178.8630  145.0900 C   0  0  0  0  0  2  0  0  0  0  0  0
  185.5300  179.6670  144.8670 O   0  0  0  0  0  1  0  0  0  0  0  0
  1 11  2  0  0  0  0
  1  3  1  0  0  0  0
  4 20  1  1  0  0  0
  4  8  1  0  0  0  0
  5  6  1  0  0  0  0
  6 11  1  0  0  0  0
  6  2  2  0  0  0  0
  7 10  1  0  0  0  0
  7 12  2  0  0  0  0
  8  2  1  0  0  0  0
  9 14  1  6  0  0  0
  9  5  1  0  0  0  0
  9  4  1  0  0  0  0
 10  5  2  0  0  0  0
 12  1  1  0  0  0  0
 13 14  1  0  0  0  0
 14 17  2  0  0  0  0
 15 17  1  0  0  0  0
 16 19  1  0  0  0  0
 16 13  2  0  0  0  0
 18 19  1  0  0  0  0
 19 15  2  0  0  0  0
 20 21  1  0  0  0  0
 21 22  1  6  0  0  0
 23 24  1  0  0  0  0
 23 21  1  0  0  0  0
 25 24  1  0  0  0  0
 26 25  1  0  0  0  0
M  END
>  <MODEL>
6

>  <REMARK>
 VINA RESULT:      -6.3      1.202      5.124
  Name = 
  6 active torsions:
  status: ('A' for Active; 'I' for Inactive)
    1  A    between atoms: C_4  and  C_21
    2  A    between atoms: C_6  and  C_14
    3  A    between atoms: C_11  and  C_14
    4  A    between atoms: C_11  and  C_25
    5  A    between atoms: C_12  and  C_24
    6  A    between atoms: C_24  and  C_25
                            x       y       z     vdW  Elec       q    Type
                         _______ _______ _______ _____ _____    ______ ____

>  <TORSDO>
F 6

$$$$
=
 OpenBabel11042417213D

 26 28  0  0  1  0  0  0  0  0999 V2000
  192.9330  176.1640  146.3820 C   0  0  0  0  0  0  0  0  0  0  0  0
  190.8450  177.6600  143.8910 N   0  0  0  0  0  0  0  0  0  0  0  0
  194.3510  176.1910  146.4860 N   0  0  0  0  0  1  0  0  0  0  0  0
  188.7010  176.6320  143.2650 C   0  0  2  0  0  3  0  0  0  0  0  0
  189.8920  176.1010  145.4560 C   0  0  0  0  0  0  0  0  0  0  0  0
  191.0350  176.8890  144.9210 C   0  0  0  0  0  0  0  0  0  0  0  0
  190.9540  175.2870  147.6010 C   0  0  0  0  0  3  0  0  0  0  0  0
  189.5430  177.9070  143.2750 C   0  0  0  0  0  2  0  0  0  0  0  0
  188.5830  176.0840  144.6890 C   0  0  1  0  0  3  0  0  0  0  0  0
  189.8970  175.4310  146.6040 C   0  0  0  0  0  3  0  0  0  0  0  0
  192.3910  176.7200  145.3430 N   0  0  0  0  0  0  0  0  0  0  0  0
  192.2020  175.6040  147.4770 N   0  0  0  0  0  0  0  0  0  0  0  0
  187.7320  177.3650  146.6670 C   0  0  0  0  0  3  0  0  0  0  0  0
  187.4670  176.7620  145.4340 C   0  0  0  0  0  0  0  0  0  0  0  0
  185.1480  177.4250  145.6580 C   0  0  0  0  0  3  0  0  0  0  0  0
  186.7330  177.9750  147.3590 N   0  0  0  0  0  0  0  0  0  0  0  0
  186.1590  176.7930  144.9320 C   0  0  0  0  0  3  0  0  0  0  0  0
  184.4400  178.6660  147.6360 N   0  0  0  0  0  1  0  0  0  0  0  0
  185.4590  178.0180  146.8830 C   0  0  0  0  0  0  0  0  0  0  0  0
  189.2910  175.5710  142.3360 C   0  0  0  0  0  2  0  0  0  0  0  0
  188.2250  174.7240  141.6430 C   0  0  1  0  0  3  0  0  0  0  0  0
  188.3270  174.8460  140.2550 O   0  0  0  0  0  1  0  0  0  0  0  0
  188.3140  173.2640  142.0600 C   0  0  0  0  0  2  0  0  0  0  0  0
  189.5870  173.0170  142.8480 C   0  0  0  0  0  2  0  0  0  0  0  0
  190.4910  172.0580  142.0960 C   0  0  0  0  0  2  0  0  0  0  0  0
  189.9440  171.7680  140.8450 O   0  0  0  0  0  1  0  0  0  0  0  0
  1  3  1  0  0  0  0
  1 12  1  0  0  0  0
  2  6  2  0  0  0  0
  4 20  1  6  0  0  0
  4  8  1  0  0  0  0
  4  9  1  0  0  0  0
  5 10  2  0  0  0  0
  6 11  1  0  0  0  0
  6  5  1  0  0  0  0
  8  2  1  0  0  0  0
  9 14  1  1  0  0  0
  9  5  1  0  0  0  0
 10  7  1  0  0  0  0
 11  1  2  0  0  0  0
 12  7  2  0  0  0  0
 13 16  1  0  0  0  0
 14 13  2  0  0  0  0
 15 19  1  0  0  0  0
 17 14  1  0  0  0  0
 17 15  2  0  0  0  0
 19 16  2  0  0  0  0
 19 18  1  0  0  0  0
 21 22  1  6  0  0  0
 21 23  1  0  0  0  0
 21 20  1  0  0  0  0
 23 24  1  0  0  0  0
 25 24  1  0  0  0  0
 26 25  1  0  0  0  0
M  END
>  <MODEL>
7

>  <REMARK>
 VINA RESULT:      -6.2      3.094      6.384
  Name = 
  6 active torsions:
  status: ('A' for Active; 'I' for Inactive)
    1  A    between atoms: C_4  and  C_21
    2  A    between atoms: C_6  and  C_14
    3  A    between atoms: C_11  and  C_14
    4  A    between atoms: C_11  and  C_25
    5  A    between atoms: C_12  and  C_24
    6  A    between atoms: C_24  and  C_25
                            x       y       z     vdW  Elec       q    Type
                         _______ _______ _______ _____ _____    ______ ____

>  <TORSDO>
F 6

$$$$
=
 OpenBabel11042417213D

 26 28  0  0  1  0  0  0  0  0999 V2000
  188.4780  173.0820  142.3660 C   0  0  0  0  0  0  0  0  0  0  0  0
  190.0510  176.2900  142.5550 N   0  0  0  0  0  0  0  0  0  0  0  0
  187.4000  172.6680  141.5350 N   0  0  0  0  0  1  0  0  0  0  0  0
  191.0240  177.0900  144.6670 C   0  0  2  0  0  3  0  0  0  0  0  0
  190.5500  174.6250  144.2190 C   0  0  0  0  0  0  0  0  0  0  0  0
  189.8580  175.0770  142.9810 C   0  0  0  0  0  0  0  0  0  0  0  0
  190.0190  172.1570  144.0810 C   0  0  0  0  0  3  0  0  0  0  0  0
  191.0020  177.2300  143.1460 C   0  0  0  0  0  2  0  0  0  0  0  0
  191.3220  175.6370  145.0450 C   0  0  1  0  0  3  0  0  0  0  0  0
  190.5960  173.3710  144.6540 C   0  0  0  0  0  3  0  0  0  0  0  0
  188.8390  174.3270  142.3160 N   0  0  0  0  0  0  0  0  0  0  0  0
  189.1460  172.0740  143.1300 N   0  0  0  0  0  0  0  0  0  0  0  0
  193.4110  174.8840  143.8850 C   0  0  0  0  0  3  0  0  0  0  0  0
  192.8020  175.3760  145.0440 C   0  0  0  0  0  0  0  0  0  0  0  0
  194.9600  175.3340  146.1430 C   0  0  0  0  0  3  0  0  0  0  0  0
  194.7490  174.6340  143.8690 N   0  0  0  0  0  0  0  0  0  0  0  0
  193.5900  175.5970  146.1810 C   0  0  0  0  0  3  0  0  0  0  0  0
  196.9220  174.5740  144.9080 N   0  0  0  0  0  1  0  0  0  0  0  0
  195.5270  174.8480  144.9640 C   0  0  0  0  0  0  0  0  0  0  0  0
  189.7060  177.5420  145.2960 C   0  0  0  0  0  2  0  0  0  0  0  0
  189.4920  176.9820  146.7010 C   0  0  1  0  0  3  0  0  0  0  0  0
  189.7270  177.9680  147.6630 O   0  0  0  0  0  1  0  0  0  0  0  0
  188.0970  176.3970  146.8640 C   0  0  0  0  0  2  0  0  0  0  0  0
  187.0470  177.4370  146.5170 C   0  0  0  0  0  2  0  0  0  0  0  0
  185.8860  176.7850  145.7890 C   0  0  0  0  0  2  0  0  0  0  0  0
  184.7050  176.9760  146.5080 O   0  0  0  0  0  1  0  0  0  0  0  0
  1 12  1  0  0  0  0
  2  6  2  0  0  0  0
  2  8  1  0  0  0  0
  3  1  1  0  0  0  0
  4  9  1  0  0  0  0
  4 20  1  6  0  0  0
  5 10  2  0  0  0  0
  5  9  1  0  0  0  0
  6  5  1  0  0  0  0
  7 10  1  0  0  0  0
  8  4  1  0  0  0  0
  9 14  1  6  0  0  0
 11  1  2  0  0  0  0
 11  6  1  0  0  0  0
 12  7  2  0  0  0  0
 13 14  1  0  0  0  0
 14 17  2  0  0  0  0
 15 17  1  0  0  0  0
 16 13  2  0  0  0  0
 16 19  1  0  0  0  0
 18 19  1  0  0  0  0
 19 15  2  0  0  0  0
 20 21  1  0  0  0  0
 21 23  1  0  0  0  0
 21 22  1  1  0  0  0
 24 23  1  0  0  0  0
 25 26  1  0  0  0  0
 25 24  1  0  0  0  0
M  END
>  <MODEL>
8

>  <REMARK>
 VINA RESULT:      -6.2      1.880      2.425
  Name = 
  6 active torsions:
  status: ('A' for Active; 'I' for Inactive)
    1  A    between atoms: C_4  and  C_21
    2  A    between atoms: C_6  and  C_14
    3  A    between atoms: C_11  and  C_14
    4  A    between atoms: C_11  and  C_25
    5  A    between atoms: C_12  and  C_24
    6  A    between atoms: C_24  and  C_25
                            x       y       z     vdW  Elec       q    Type
                         _______ _______ _______ _____ _____    ______ ____

>  <TORSDO>
F 6

$$$$
=
 OpenBabel11042417213D

 26 28  0  0  1  0  0  0  0  0999 V2000
  189.3480  173.1040  141.3120 C   0  0  0  0  0  0  0  0  0  0  0  0
  189.6710  173.6680  144.8310 N   0  0  0  0  0  0  0  0  0  0  0  0
  189.7550  171.9720  140.5530 N   0  0  0  0  0  1  0  0  0  0  0  0
  189.9530  175.9440  145.7170 C   0  0  2  0  0  3  0  0  0  0  0  0
  189.0080  175.4820  143.3940 C   0  0  0  0  0  0  0  0  0  0  0  0
  189.3840  174.0600  143.6240 C   0  0  0  0  0  0  0  0  0  0  0  0
  188.2090  175.2900  141.0040 C   0  0  0  0  0  3  0  0  0  0  0  0
  189.5410  174.5060  146.0220 C   0  0  0  0  0  2  0  0  0  0  0  0
  189.1350  176.4730  144.5360 C   0  0  1  0  0  3  0  0  0  0  0  0
  188.5100  175.9670  142.2620 C   0  0  0  0  0  3  0  0  0  0  0  0
  189.6360  173.1200  142.5760 N   0  0  0  0  0  0  0  0  0  0  0  0
  188.5690  174.1000  140.6440 N   0  0  0  0  0  0  0  0  0  0  0  0
  187.2430  178.1050  144.3530 C   0  0  0  0  0  3  0  0  0  0  0  0
  187.8050  176.9980  144.9970 C   0  0  0  0  0  0  0  0  0  0  0  0
  185.8860  176.9410  146.4750 C   0  0  0  0  0  3  0  0  0  0  0  0
  186.0440  178.5990  144.7620 N   0  0  0  0  0  0  0  0  0  0  0  0
  187.1150  176.4180  146.0700 C   0  0  0  0  0  3  0  0  0  0  0  0
  184.1090  178.5890  146.1990 N   0  0  0  0  0  1  0  0  0  0  0  0
  185.3600  178.0430  145.7990 C   0  0  0  0  0  0  0  0  0  0  0  0
  191.4480  176.0550  145.4180 C   0  0  0  0  0  2  0  0  0  0  0  0
  192.2280  176.7640  146.5240 C   0  0  1  0  0  3  0  0  0  0  0  0
  191.6000  176.5850  147.7600 O   0  0  0  0  0  1  0  0  0  0  0  0
  193.6710  176.2900  146.5830 C   0  0  0  0  0  2  0  0  0  0  0  0
  194.5170  177.0490  145.5770 C   0  0  0  0  0  2  0  0  0  0  0  0
  195.3170  176.0800  144.7270 C   0  0  0  0  0  2  0  0  0  0  0  0
  196.1460  176.7840  143.8530 O   0  0  0  0  0  1  0  0  0  0  0  0
  1 11  2  0  0  0  0
  2  8  1  0  0  0  0
  3  1  1  0  0  0  0
  4 20  1  6  0  0  0
  4  8  1  0  0  0  0
  5  6  1  0  0  0  0
  5  9  1  0  0  0  0
  6  2  2  0  0  0  0
  7 10  1  0  0  0  0
  9 14  1  1  0  0  0
  9  4  1  0  0  0  0
 10  5  2  0  0  0  0
 11  6  1  0  0  0  0
 12  7  2  0  0  0  0
 12  1  1  0  0  0  0
 13 16  2  0  0  0  0
 13 14  1  0  0  0  0
 14 17  2  0  0  0  0
 16 19  1  0  0  0  0
 17 15  1  0  0  0  0
 19 18  1  0  0  0  0
 19 15  2  0  0  0  0
 20 21  1  0  0  0  0
 21 23  1  0  0  0  0
 21 22  1  1  0  0  0
 24 23  1  0  0  0  0
 25 24  1  0  0  0  0
 26 25  1  0  0  0  0
M  END
>  <MODEL>
9

>  <REMARK>
 VINA RESULT:      -6.1      2.825      5.954
  Name = 
  6 active torsions:
  status: ('A' for Active; 'I' for Inactive)
    1  A    between atoms: C_4  and  C_21
    2  A    between atoms: C_6  and  C_14
    3  A    between atoms: C_11  and  C_14
    4  A    between atoms: C_11  and  C_25
    5  A    between atoms: C_12  and  C_24
    6  A    between atoms: C_24  and  C_25
                            x       y       z     vdW  Elec       q    Type
                         _______ _______ _______ _____ _____    ______ ____

>  <TORSDO>
F 6

$$$$
