=
 OpenBabel11042416493D

 29 31  0  0  0  0  0  0  0  0999 V2000
  185.7440  178.2830  140.8340 C   0  0  0  0  0  3  0  0  0  0  0  0
  186.0020  178.5160  142.1930 C   0  0  0  0  0  0  0  0  0  0  0  0
  183.3640  178.1760  141.2840 C   0  0  0  0  0  0  0  0  0  0  0  0
  184.4340  178.1140  140.3820 C   0  0  0  0  0  3  0  0  0  0  0  0
  184.9350  178.5760  143.1020 C   0  0  0  0  0  0  0  0  0  0  0  0
  183.6200  178.4060  142.6390 C   0  0  0  0  0  3  0  0  0  0  0  0
  182.0140  178.0060  140.8470 N   0  0  0  0  0  2  0  0  0  0  0  0
  180.8790  178.5870  141.5470 C   0  0  0  0  0  2  0  0  0  0  0  0
  179.4460  179.4790  139.8720 O   0  0  0  0  0  0  0  0  0  0  0  0
  179.6750  178.5330  140.6740 C   0  0  0  0  0  0  0  0  0  0  0  0
  178.2090  177.0880  142.0180 C   0  0  0  0  0  1  0  0  0  0  0  0
  178.7970  177.4550  140.7800 O   0  0  0  0  0  0  0  0  0  0  0  0
  185.2030  178.8090  144.4540 O   0  0  0  0  0  0  0  0  0  0  0  0
  184.1790  179.0150  145.4190 C   0  0  0  0  0  2  0  0  0  0  0  0
  184.5530  178.3290  146.7190 C   0  0  0  0  0  2  0  0  0  0  0  0
  186.1520  176.8240  147.4990 C   0  0  0  0  0  1  0  0  0  0  0  0
  185.1900  177.0530  146.4380 N   0  0  0  0  0  2  0  0  0  0  0  0
  187.3070  178.6870  142.6650 O   0  0  0  0  0  0  0  0  0  0  0  0
  188.3890  177.8600  142.2580 C   0  0  0  0  0  2  0  0  0  0  0  0
  190.5820  177.2590  143.3030 C   0  0  0  0  0  3  0  0  0  0  0  0
  191.3590  176.3970  147.9270 O   0  0  0  0  0  0  0  0  0  0  0  0
  189.3740  177.0910  145.8390 C   0  0  0  0  0  3  0  0  0  0  0  0
  189.2050  177.4870  143.4440 C   0  0  0  0  0  0  0  0  0  0  0  0
  191.3380  176.9410  144.4330 C   0  0  0  0  0  0  0  0  0  0  0  0
  193.3510  176.3060  146.1260 S   0  0  0  0  0  0  0  0  0  0  0  0
  188.6050  177.4110  144.7120 C   0  0  0  0  0  3  0  0  0  0  0  0
  192.8080  176.6750  144.4060 C   0  0  0  0  0  2  0  0  0  0  0  0
  191.6800  176.5230  146.7170 C   0  0  0  0  0  0  0  0  0  0  0  0
  190.7420  176.8570  145.6740 C   0  0  0  0  0  0  0  0  0  0  0  0
  1  2  1  0  0  0  0
  2 18  1  0  0  0  0
  2  5  2  0  0  0  0
  3  6  2  0  0  0  0
  4  1  2  0  0  0  0
  4  3  1  0  0  0  0
  5 13  1  0  0  0  0
  6  5  1  0  0  0  0
  7  3  1  0  0  0  0
  7  8  1  0  0  0  0
  9 10  2  0  0  0  0
 10 12  1  0  0  0  0
 10  8  1  0  0  0  0
 12 11  1  0  0  0  0
 13 14  1  0  0  0  0
 14 15  1  0  0  0  0
 17 15  1  0  0  0  0
 17 16  1  0  0  0  0
 19 18  1  0  0  0  0
 19 23  1  0  0  0  0
 20 23  2  0  0  0  0
 20 24  1  0  0  0  0
 23 26  1  0  0  0  0
 24 29  2  0  0  0  0
 25 28  1  0  0  0  0
 26 22  2  0  0  0  0
 27 24  1  0  0  0  0
 27 25  1  0  0  0  0
 28 21  2  0  0  0  0
 29 22  1  0  0  0  0
 29 28  1  0  0  0  0
M  END
>  <MODEL>
1

>  <REMARK>
 VINA RESULT:      -6.6      0.000      0.000
  Name = 
  11 active torsions:
  status: ('A' for Active; 'I' for Inactive)
    1  A    between atoms: C_2  and  O_26
    2  A    between atoms: C_4  and  N_17
    3  A    between atoms: C_9  and  C_16
    4  A    between atoms: C_9  and  O_25
    5  A    between atoms: C_10  and  C_23
    6  A    between atoms: C_16  and  N_17
    7  A    between atoms: O_18  and  C_19
    8  A    between atoms: O_18  and  C_22
    9  A    between atoms: C_22  and  C_29
   10  A    between atoms: C_23  and  O_26
   11  A    between atoms: N_28  and  C_29
                            x       y       z     vdW  Elec       q    Type
                         _______ _______ _______ _____ _____    ______ ____

>  <TORSDO>
F 11

$$$$
=
 OpenBabel11042416493D

 29 31  0  0  0  0  0  0  0  0999 V2000
  190.3610  177.5100  144.5960 C   0  0  0  0  0  3  0  0  0  0  0  0
  189.6870  177.1950  145.7860 C   0  0  0  0  0  0  0  0  0  0  0  0
  188.4130  176.8710  143.3010 C   0  0  0  0  0  0  0  0  0  0  0  0
  189.7280  177.3490  143.3620 C   0  0  0  0  0  3  0  0  0  0  0  0
  188.3700  176.7150  145.7310 C   0  0  0  0  0  0  0  0  0  0  0  0
  187.7410  176.5560  144.4850 C   0  0  0  0  0  3  0  0  0  0  0  0
  187.7430  176.6980  142.0500 N   0  0  0  0  0  2  0  0  0  0  0  0
  187.4380  177.8040  141.1580 C   0  0  0  0  0  2  0  0  0  0  0  0
  185.2880  177.8070  140.1410 O   0  0  0  0  0  0  0  0  0  0  0  0
  185.9730  178.0640  141.1690 C   0  0  0  0  0  0  0  0  0  0  0  0
  184.0860  178.2380  142.7340 C   0  0  0  0  0  1  0  0  0  0  0  0
  185.3830  178.6200  142.3030 O   0  0  0  0  0  0  0  0  0  0  0  0
  187.7070  176.4050  146.9230 O   0  0  0  0  0  0  0  0  0  0  0  0
  186.4000  176.8770  147.2240 C   0  0  0  0  0  2  0  0  0  0  0  0
  186.4610  178.3420  147.6100 C   0  0  0  0  0  2  0  0  0  0  0  0
  184.4230  178.2120  146.4860 C   0  0  0  0  0  1  0  0  0  0  0  0
  185.5220  179.1050  146.8030 N   0  0  0  0  0  2  0  0  0  0  0  0
  190.3030  177.3500  147.0320 O   0  0  0  0  0  0  0  0  0  0  0  0
  190.8810  176.2650  147.7460 C   0  0  0  0  0  2  0  0  0  0  0  0
  192.1590  174.5510  146.4450 C   0  0  0  0  0  3  0  0  0  0  0  0
  196.5970  175.0170  144.7660 O   0  0  0  0  0  0  0  0  0  0  0  0
  194.3820  176.2680  146.2870 C   0  0  0  0  0  3  0  0  0  0  0  0
  192.1170  175.8150  147.0520 C   0  0  0  0  0  0  0  0  0  0  0  0
  193.3170  174.1570  145.7720 C   0  0  0  0  0  0  0  0  0  0  0  0
  195.1630  172.7830  144.3480 S   0  0  0  0  0  0  0  0  0  0  0  0
  193.2250  176.6750  146.9660 C   0  0  0  0  0  3  0  0  0  0  0  0
  193.4790  172.8380  145.0910 C   0  0  0  0  0  2  0  0  0  0  0  0
  195.5030  174.4250  144.9620 C   0  0  0  0  0  0  0  0  0  0  0  0
  194.4050  175.0020  145.6990 C   0  0  0  0  0  0  0  0  0  0  0  0
  1  2  1  0  0  0  0
  2 18  1  0  0  0  0
  3  4  1  0  0  0  0
  3  6  2  0  0  0  0
  4  1  2  0  0  0  0
  5  2  2  0  0  0  0
  5 13  1  0  0  0  0
  6  5  1  0  0  0  0
  7  3  1  0  0  0  0
  8 10  1  0  0  0  0
  8  7  1  0  0  0  0
  9 10  2  0  0  0  0
 10 12  1  0  0  0  0
 12 11  1  0  0  0  0
 13 14  1  0  0  0  0
 14 15  1  0  0  0  0
 16 17  1  0  0  0  0
 17 15  1  0  0  0  0
 18 19  1  0  0  0  0
 20 23  1  0  0  0  0
 21 28  2  0  0  0  0
 22 26  1  0  0  0  0
 23 19  1  0  0  0  0
 24 20  2  0  0  0  0
 25 28  1  0  0  0  0
 25 27  1  0  0  0  0
 26 23  2  0  0  0  0
 27 24  1  0  0  0  0
 28 29  1  0  0  0  0
 29 24  1  0  0  0  0
 29 22  2  0  0  0  0
M  END
>  <MODEL>
2

>  <REMARK>
 VINA RESULT:      -6.6      2.918      5.109
  Name = 
  11 active torsions:
  status: ('A' for Active; 'I' for Inactive)
    1  A    between atoms: C_2  and  O_26
    2  A    between atoms: C_4  and  N_17
    3  A    between atoms: C_9  and  C_16
    4  A    between atoms: C_9  and  O_25
    5  A    between atoms: C_10  and  C_23
    6  A    between atoms: C_16  and  N_17
    7  A    between atoms: O_18  and  C_19
    8  A    between atoms: O_18  and  C_22
    9  A    between atoms: C_22  and  C_29
   10  A    between atoms: C_23  and  O_26
   11  A    between atoms: N_28  and  C_29
                            x       y       z     vdW  Elec       q    Type
                         _______ _______ _______ _____ _____    ______ ____

>  <TORSDO>
F 11

$$$$
=
 OpenBabel11042416493D

 29 31  0  0  0  0  0  0  0  0999 V2000
  185.3080  178.2430  140.5840 C   0  0  0  0  0  3  0  0  0  0  0  0
  185.7820  178.4010  141.8960 C   0  0  0  0  0  0  0  0  0  0  0  0
  183.0200  178.3040  141.3830 C   0  0  0  0  0  0  0  0  0  0  0  0
  183.9360  178.1950  140.3290 C   0  0  0  0  0  3  0  0  0  0  0  0
  184.8690  178.5080  142.9550 C   0  0  0  0  0  0  0  0  0  0  0  0
  183.4900  178.4590  142.6900 C   0  0  0  0  0  3  0  0  0  0  0  0
  181.6110  178.2570  141.1480 N   0  0  0  0  0  2  0  0  0  0  0  0
  180.6600  179.0750  141.8850 C   0  0  0  0  0  2  0  0  0  0  0  0
  178.3570  178.9380  142.4600 O   0  0  0  0  0  0  0  0  0  0  0  0
  179.2920  178.5140  141.7270 C   0  0  0  0  0  0  0  0  0  0  0  0
  178.2870  177.7160  139.6300 C   0  0  0  0  0  1  0  0  0  0  0  0
  179.0680  177.5020  140.7950 O   0  0  0  0  0  0  0  0  0  0  0  0
  185.3510  178.6650  144.2580 O   0  0  0  0  0  0  0  0  0  0  0  0
  185.1790  177.6800  145.2680 C   0  0  0  0  0  2  0  0  0  0  0  0
  184.3040  178.2300  146.3780 C   0  0  0  0  0  2  0  0  0  0  0  0
  186.2130  177.6500  147.5820 C   0  0  0  0  0  1  0  0  0  0  0  0
  185.1280  178.6100  147.5130 N   0  0  0  0  0  2  0  0  0  0  0  0
  187.1520  178.4510  142.1710 O   0  0  0  0  0  0  0  0  0  0  0  0
  188.0410  177.3860  141.8620 C   0  0  0  0  0  2  0  0  0  0  0  0
  188.5420  176.4250  144.1180 C   0  0  0  0  0  3  0  0  0  0  0  0
  192.6980  176.6970  146.4370 O   0  0  0  0  0  0  0  0  0  0  0  0
  191.1710  177.4200  144.0020 C   0  0  0  0  0  3  0  0  0  0  0  0
  188.9680  177.1630  143.0030 C   0  0  0  0  0  0  0  0  0  0  0  0
  189.4360  176.2000  145.1670 C   0  0  0  0  0  0  0  0  0  0  0  0
  190.5880  175.4020  147.4810 S   0  0  0  0  0  0  0  0  0  0  0  0
  190.2830  177.6530  142.9430 C   0  0  0  0  0  3  0  0  0  0  0  0
  189.0960  175.4330  146.4020 C   0  0  0  0  0  2  0  0  0  0  0  0
  191.4970  176.3560  146.2760 C   0  0  0  0  0  0  0  0  0  0  0  0
  190.7230  176.6910  145.1060 C   0  0  0  0  0  0  0  0  0  0  0  0
  1  2  1  0  0  0  0
  2 18  1  0  0  0  0
  2  5  2  0  0  0  0
  3  6  2  0  0  0  0
  4  1  2  0  0  0  0
  4  3  1  0  0  0  0
  5 13  1  0  0  0  0
  6  5  1  0  0  0  0
  7  3  1  0  0  0  0
  7  8  1  0  0  0  0
 10  8  1  0  0  0  0
 10  9  2  0  0  0  0
 11 12  1  0  0  0  0
 12 10  1  0  0  0  0
 13 14  1  0  0  0  0
 14 15  1  0  0  0  0
 15 17  1  0  0  0  0
 17 16  1  0  0  0  0
 19 18  1  0  0  0  0
 19 23  1  0  0  0  0
 20 24  1  0  0  0  0
 22 29  1  0  0  0  0
 23 20  2  0  0  0  0
 24 27  1  0  0  0  0
 26 23  1  0  0  0  0
 26 22  2  0  0  0  0
 27 25  1  0  0  0  0
 28 21  2  0  0  0  0
 28 25  1  0  0  0  0
 29 24  2  0  0  0  0
 29 28  1  0  0  0  0
M  END
>  <MODEL>
3

>  <REMARK>
 VINA RESULT:      -6.6      1.202      1.691
  Name = 
  11 active torsions:
  status: ('A' for Active; 'I' for Inactive)
    1  A    between atoms: C_2  and  O_26
    2  A    between atoms: C_4  and  N_17
    3  A    between atoms: C_9  and  C_16
    4  A    between atoms: C_9  and  O_25
    5  A    between atoms: C_10  and  C_23
    6  A    between atoms: C_16  and  N_17
    7  A    between atoms: O_18  and  C_19
    8  A    between atoms: O_18  and  C_22
    9  A    between atoms: C_22  and  C_29
   10  A    between atoms: C_23  and  O_26
   11  A    between atoms: N_28  and  C_29
                            x       y       z     vdW  Elec       q    Type
                         _______ _______ _______ _____ _____    ______ ____

>  <TORSDO>
F 11

$$$$
=
 OpenBabel11042416493D

 29 31  0  0  0  0  0  0  0  0999 V2000
  188.0470  177.0970  146.8790 C   0  0  0  0  0  3  0  0  0  0  0  0
  189.1840  177.2920  146.0800 C   0  0  0  0  0  0  0  0  0  0  0  0
  186.6230  177.2380  144.9220 C   0  0  0  0  0  0  0  0  0  0  0  0
  186.7750  177.0690  146.3040 C   0  0  0  0  0  3  0  0  0  0  0  0
  189.0380  177.4640  144.6950 C   0  0  0  0  0  0  0  0  0  0  0  0
  187.7540  177.4350  144.1250 C   0  0  0  0  0  3  0  0  0  0  0  0
  185.3320  177.2150  144.3080 N   0  0  0  0  0  2  0  0  0  0  0  0
  184.6760  178.4100  143.8030 C   0  0  0  0  0  2  0  0  0  0  0  0
  185.1750  178.0340  141.5090 O   0  0  0  0  0  0  0  0  0  0  0  0
  184.2820  178.2010  142.3840 C   0  0  0  0  0  0  0  0  0  0  0  0
  182.5090  178.2020  140.6810 C   0  0  0  0  0  1  0  0  0  0  0  0
  182.9320  178.2270  142.0350 O   0  0  0  0  0  0  0  0  0  0  0  0
  190.1770  177.6580  143.9080 O   0  0  0  0  0  0  0  0  0  0  0  0
  190.7650  176.6210  143.1340 C   0  0  0  0  0  2  0  0  0  0  0  0
  192.2760  176.7430  143.1760 C   0  0  0  0  0  2  0  0  0  0  0  0
  194.2440  176.0290  142.1520 C   0  0  0  0  0  1  0  0  0  0  0  0
  192.8820  175.6350  142.4560 N   0  0  0  0  0  2  0  0  0  0  0  0
  190.4660  177.3220  146.6380 O   0  0  0  0  0  0  0  0  0  0  0  0
  190.9800  176.2720  147.4450 C   0  0  0  0  0  2  0  0  0  0  0  0
  192.2740  174.4800  146.2710 C   0  0  0  0  0  3  0  0  0  0  0  0
  196.8340  174.7320  144.9030 O   0  0  0  0  0  0  0  0  0  0  0  0
  194.5720  176.1040  146.2390 C   0  0  0  0  0  3  0  0  0  0  0  0
  192.2430  175.7580  146.8500 C   0  0  0  0  0  0  0  0  0  0  0  0
  193.4600  174.0260  145.6890 C   0  0  0  0  0  0  0  0  0  0  0  0
  195.3420  172.5490  144.4250 S   0  0  0  0  0  0  0  0  0  0  0  0
  193.3880  176.5700  146.8270 C   0  0  0  0  0  3  0  0  0  0  0  0
  193.6130  172.6870  145.0460 C   0  0  0  0  0  2  0  0  0  0  0  0
  195.7060  174.1890  145.0320 C   0  0  0  0  0  0  0  0  0  0  0  0
  194.5840  174.8250  145.6780 C   0  0  0  0  0  0  0  0  0  0  0  0
  2 18  1  0  0  0  0
  2  1  2  0  0  0  0
  3  4  2  0  0  0  0
  4  1  1  0  0  0  0
  5  2  1  0  0  0  0
  6  5  2  0  0  0  0
  6  3  1  0  0  0  0
  7  3  1  0  0  0  0
  8  7  1  0  0  0  0
  9 10  2  0  0  0  0
 10  8  1  0  0  0  0
 11 12  1  0  0  0  0
 12 10  1  0  0  0  0
 13  5  1  0  0  0  0
 14 15  1  0  0  0  0
 14 13  1  0  0  0  0
 16 17  1  0  0  0  0
 17 15  1  0  0  0  0
 18 19  1  0  0  0  0
 20 23  1  0  0  0  0
 21 28  2  0  0  0  0
 22 26  1  0  0  0  0
 23 19  1  0  0  0  0
 24 20  2  0  0  0  0
 25 28  1  0  0  0  0
 25 27  1  0  0  0  0
 26 23  2  0  0  0  0
 27 24  1  0  0  0  0
 28 29  1  0  0  0  0
 29 24  1  0  0  0  0
 29 22  2  0  0  0  0
M  END
>  <MODEL>
4

>  <REMARK>
 VINA RESULT:      -6.3      3.018      5.727
  Name = 
  11 active torsions:
  status: ('A' for Active; 'I' for Inactive)
    1  A    between atoms: C_2  and  O_26
    2  A    between atoms: C_4  and  N_17
    3  A    between atoms: C_9  and  C_16
    4  A    between atoms: C_9  and  O_25
    5  A    between atoms: C_10  and  C_23
    6  A    between atoms: C_16  and  N_17
    7  A    between atoms: O_18  and  C_19
    8  A    between atoms: O_18  and  C_22
    9  A    between atoms: C_22  and  C_29
   10  A    between atoms: C_23  and  O_26
   11  A    between atoms: N_28  and  C_29
                            x       y       z     vdW  Elec       q    Type
                         _______ _______ _______ _____ _____    ______ ____

>  <TORSDO>
F 11

$$$$
=
 OpenBabel11042416493D

 29 31  0  0  0  0  0  0  0  0999 V2000
  192.0380  175.5050  146.7970 C   0  0  0  0  0  3  0  0  0  0  0  0
  191.2570  174.7870  145.8790 C   0  0  0  0  0  0  0  0  0  0  0  0
  193.9580  175.3370  145.3270 C   0  0  0  0  0  0  0  0  0  0  0  0
  193.3790  175.7790  146.5230 C   0  0  0  0  0  3  0  0  0  0  0  0
  191.8320  174.3400  144.6800 C   0  0  0  0  0  0  0  0  0  0  0  0
  193.1820  174.6200  144.4120 C   0  0  0  0  0  3  0  0  0  0  0  0
  195.3290  175.6040  145.0220 N   0  0  0  0  0  2  0  0  0  0  0  0
  195.7500  176.7110  144.1780 C   0  0  0  0  0  2  0  0  0  0  0  0
  197.6760  175.5310  143.4370 O   0  0  0  0  0  0  0  0  0  0  0  0
  196.6630  176.2090  143.1170 C   0  0  0  0  0  0  0  0  0  0  0  0
  195.0890  176.5050  141.2510 C   0  0  0  0  0  1  0  0  0  0  0  0
  196.4040  176.5250  141.7830 O   0  0  0  0  0  0  0  0  0  0  0  0
  191.0450  173.6260  143.7710 O   0  0  0  0  0  0  0  0  0  0  0  0
  190.9410  173.9780  142.3970 C   0  0  0  0  0  2  0  0  0  0  0  0
  189.8080  174.9680  142.2070 C   0  0  0  0  0  2  0  0  0  0  0  0
  188.1650  173.3930  141.7040 C   0  0  0  0  0  1  0  0  0  0  0  0
  188.5620  174.3890  142.6810 N   0  0  0  0  0  2  0  0  0  0  0  0
  189.9120  174.5030  146.1350 O   0  0  0  0  0  0  0  0  0  0  0  0
  189.1360  175.2340  147.0750 C   0  0  0  0  0  2  0  0  0  0  0  0
  186.9440  176.4170  146.8280 C   0  0  0  0  0  3  0  0  0  0  0  0
  185.8320  179.6230  143.4790 O   0  0  0  0  0  0  0  0  0  0  0  0
  187.8940  177.7900  144.5630 C   0  0  0  0  0  3  0  0  0  0  0  0
  188.2440  176.1810  146.3550 C   0  0  0  0  0  0  0  0  0  0  0  0
  186.1310  177.3330  146.1570 C   0  0  0  0  0  0  0  0  0  0  0  0
  184.0770  178.9160  145.3870 S   0  0  0  0  0  0  0  0  0  0  0  0
  188.7190  176.8730  145.2280 C   0  0  0  0  0  3  0  0  0  0  0  0
  184.7340  177.6640  146.5670 C   0  0  0  0  0  2  0  0  0  0  0  0
  185.6220  178.9060  144.4920 C   0  0  0  0  0  0  0  0  0  0  0  0
  186.6000  178.0020  145.0460 C   0  0  0  0  0  0  0  0  0  0  0  0
  2 18  1  0  0  0  0
  2  1  2  0  0  0  0
  3  4  2  0  0  0  0
  4  1  1  0  0  0  0
  5  2  1  0  0  0  0
  6  5  2  0  0  0  0
  6  3  1  0  0  0  0
  7  3  1  0  0  0  0
  8  7  1  0  0  0  0
 10  9  2  0  0  0  0
 10  8  1  0  0  0  0
 11 12  1  0  0  0  0
 12 10  1  0  0  0  0
 13  5  1  0  0  0  0
 14 13  1  0  0  0  0
 15 14  1  0  0  0  0
 15 17  1  0  0  0  0
 16 17  1  0  0  0  0
 18 19  1  0  0  0  0
 21 28  2  0  0  0  0
 22 29  2  0  0  0  0
 22 26  1  0  0  0  0
 23 20  1  0  0  0  0
 23 19  1  0  0  0  0
 24 27  1  0  0  0  0
 24 20  2  0  0  0  0
 25 27  1  0  0  0  0
 26 23  2  0  0  0  0
 28 29  1  0  0  0  0
 28 25  1  0  0  0  0
 29 24  1  0  0  0  0
M  END
>  <MODEL>
5

>  <REMARK>
 VINA RESULT:      -6.3      4.404     10.135
  Name = 
  11 active torsions:
  status: ('A' for Active; 'I' for Inactive)
    1  A    between atoms: C_2  and  O_26
    2  A    between atoms: C_4  and  N_17
    3  A    between atoms: C_9  and  C_16
    4  A    between atoms: C_9  and  O_25
    5  A    between atoms: C_10  and  C_23
    6  A    between atoms: C_16  and  N_17
    7  A    between atoms: O_18  and  C_19
    8  A    between atoms: O_18  and  C_22
    9  A    between atoms: C_22  and  C_29
   10  A    between atoms: C_23  and  O_26
   11  A    between atoms: N_28  and  C_29
                            x       y       z     vdW  Elec       q    Type
                         _______ _______ _______ _____ _____    ______ ____

>  <TORSDO>
F 11

$$$$
=
 OpenBabel11042416493D

 29 31  0  0  0  0  0  0  0  0999 V2000
  188.0680  175.9160  146.8900 C   0  0  0  0  0  3  0  0  0  0  0  0
  188.8490  176.0380  145.7300 C   0  0  0  0  0  0  0  0  0  0  0  0
  186.7070  177.7980  146.1980 C   0  0  0  0  0  0  0  0  0  0  0  0
  187.0040  176.7900  147.1220 C   0  0  0  0  0  3  0  0  0  0  0  0
  188.5560  177.0480  144.8010 C   0  0  0  0  0  0  0  0  0  0  0  0
  187.4840  177.9230  145.0420 C   0  0  0  0  0  3  0  0  0  0  0  0
  185.6240  178.7060  146.4120 N   0  0  0  0  0  2  0  0  0  0  0  0
  184.3510  178.5950  145.7170 C   0  0  0  0  0  2  0  0  0  0  0  0
  185.0010  180.3600  144.2620 O   0  0  0  0  0  0  0  0  0  0  0  0
  184.4600  179.2270  144.3740 C   0  0  0  0  0  0  0  0  0  0  0  0
  184.7590  177.9150  142.3160 C   0  0  0  0  0  1  0  0  0  0  0  0
  183.9300  178.5720  143.2630 O   0  0  0  0  0  0  0  0  0  0  0  0
  189.3400  177.1620  143.6480 O   0  0  0  0  0  0  0  0  0  0  0  0
  188.8170  177.6000  142.4010 C   0  0  0  0  0  2  0  0  0  0  0  0
  188.1660  176.4350  141.6800 C   0  0  0  0  0  2  0  0  0  0  0  0
  188.1550  174.1370  142.0650 C   0  0  0  0  0  1  0  0  0  0  0  0
  189.0200  175.2620  141.7650 N   0  0  0  0  0  2  0  0  0  0  0  0
  189.9180  175.1720  145.4800 O   0  0  0  0  0  0  0  0  0  0  0  0
  190.9410  174.9160  146.4320 C   0  0  0  0  0  2  0  0  0  0  0  0
  193.2900  174.2770  145.8520 C   0  0  0  0  0  3  0  0  0  0  0  0
  196.4510  176.9730  143.5130 O   0  0  0  0  0  0  0  0  0  0  0  0
  193.7120  176.7750  144.6290 C   0  0  0  0  0  3  0  0  0  0  0  0
  192.2660  175.2360  145.8370 C   0  0  0  0  0  0  0  0  0  0  0  0
  194.5180  174.5830  145.2610 C   0  0  0  0  0  0  0  0  0  0  0  0
  197.0600  174.4890  144.3390 S   0  0  0  0  0  0  0  0  0  0  0  0
  192.4750  176.4800  145.2200 C   0  0  0  0  0  3  0  0  0  0  0  0
  195.6790  173.6450  145.2180 C   0  0  0  0  0  2  0  0  0  0  0  0
  196.0450  175.9400  144.1080 C   0  0  0  0  0  0  0  0  0  0  0  0
  194.7210  175.8100  144.6650 C   0  0  0  0  0  0  0  0  0  0  0  0
  1  4  1  0  0  0  0
  2  1  2  0  0  0  0
  3  7  1  0  0  0  0
  3  4  2  0  0  0  0
  5  6  2  0  0  0  0
  5  2  1  0  0  0  0
  6  3  1  0  0  0  0
  8  7  1  0  0  0  0
  9 10  2  0  0  0  0
 10  8  1  0  0  0  0
 11 12  1  0  0  0  0
 12 10  1  0  0  0  0
 13  5  1  0  0  0  0
 14 13  1  0  0  0  0
 15 17  1  0  0  0  0
 15 14  1  0  0  0  0
 17 16  1  0  0  0  0
 18  2  1  0  0  0  0
 18 19  1  0  0  0  0
 21 28  2  0  0  0  0
 22 29  2  0  0  0  0
 22 26  1  0  0  0  0
 23 20  1  0  0  0  0
 23 19  1  0  0  0  0
 24 20  2  0  0  0  0
 25 27  1  0  0  0  0
 26 23  2  0  0  0  0
 27 24  1  0  0  0  0
 28 25  1  0  0  0  0
 28 29  1  0  0  0  0
 29 24  1  0  0  0  0
M  END
>  <MODEL>
6

>  <REMARK>
 VINA RESULT:      -6.3      3.082      5.576
  Name = 
  11 active torsions:
  status: ('A' for Active; 'I' for Inactive)
    1  A    between atoms: C_2  and  O_26
    2  A    between atoms: C_4  and  N_17
    3  A    between atoms: C_9  and  C_16
    4  A    between atoms: C_9  and  O_25
    5  A    between atoms: C_10  and  C_23
    6  A    between atoms: C_16  and  N_17
    7  A    between atoms: O_18  and  C_19
    8  A    between atoms: O_18  and  C_22
    9  A    between atoms: C_22  and  C_29
   10  A    between atoms: C_23  and  O_26
   11  A    between atoms: N_28  and  C_29
                            x       y       z     vdW  Elec       q    Type
                         _______ _______ _______ _____ _____    ______ ____

>  <TORSDO>
F 11

$$$$
=
 OpenBabel11042416493D

 29 31  0  0  0  0  0  0  0  0999 V2000
  189.5710  174.0120  146.1280 C   0  0  0  0  0  3  0  0  0  0  0  0
  190.5690  174.9490  146.4360 C   0  0  0  0  0  0  0  0  0  0  0  0
  191.0000  173.0120  144.4450 C   0  0  0  0  0  0  0  0  0  0  0  0
  189.7840  173.0500  145.1400 C   0  0  0  0  0  3  0  0  0  0  0  0
  191.7880  174.9160  145.7420 C   0  0  0  0  0  0  0  0  0  0  0  0
  191.9950  173.9450  144.7490 C   0  0  0  0  0  3  0  0  0  0  0  0
  191.2430  172.0370  143.4280 N   0  0  0  0  0  2  0  0  0  0  0  0
  190.1800  171.4380  142.6370 C   0  0  0  0  0  2  0  0  0  0  0  0
  190.8640  172.4620  140.6040 O   0  0  0  0  0  0  0  0  0  0  0  0
  189.9300  172.2670  141.4280 C   0  0  0  0  0  0  0  0  0  0  0  0
  188.2700  174.0010  141.9600 C   0  0  0  0  0  1  0  0  0  0  0  0
  188.6760  172.8470  141.2400 O   0  0  0  0  0  0  0  0  0  0  0  0
  192.7770  175.8540  146.0560 O   0  0  0  0  0  0  0  0  0  0  0  0
  193.2610  176.8070  145.1190 C   0  0  0  0  0  2  0  0  0  0  0  0
  194.7640  176.9550  145.2670 C   0  0  0  0  0  2  0  0  0  0  0  0
  195.3800  175.3980  143.6460 C   0  0  0  0  0  1  0  0  0  0  0  0
  195.4070  175.6670  145.0720 N   0  0  0  0  0  2  0  0  0  0  0  0
  190.3740  175.9200  147.4230 O   0  0  0  0  0  0  0  0  0  0  0  0
  190.0640  177.2740  147.1210 C   0  0  0  0  0  2  0  0  0  0  0  0
  189.4620  177.5550  144.7090 C   0  0  0  0  0  3  0  0  0  0  0  0
  185.0900  177.2170  142.8370 O   0  0  0  0  0  0  0  0  0  0  0  0
  186.7470  177.1040  145.2920 C   0  0  0  0  0  3  0  0  0  0  0  0
  189.0540  177.3230  146.0310 C   0  0  0  0  0  0  0  0  0  0  0  0
  188.5040  177.5660  143.6930 C   0  0  0  0  0  0  0  0  0  0  0  0
  187.2410  177.7200  141.3050 S   0  0  0  0  0  0  0  0  0  0  0  0
  187.7000  177.0900  146.3200 C   0  0  0  0  0  3  0  0  0  0  0  0
  188.8180  177.8040  142.2530 C   0  0  0  0  0  2  0  0  0  0  0  0
  186.3370  177.3930  142.8100 C   0  0  0  0  0  0  0  0  0  0  0  0
  187.1730  177.3470  143.9840 C   0  0  0  0  0  0  0  0  0  0  0  0
  1  2  1  0  0  0  0
  2 18  1  0  0  0  0
  3  6  2  0  0  0  0
  3  4  1  0  0  0  0
  4  1  2  0  0  0  0
  5 13  1  0  0  0  0
  5  2  2  0  0  0  0
  6  5  1  0  0  0  0
  7  3  1  0  0  0  0
  8  7  1  0  0  0  0
  9 10  2  0  0  0  0
 10  8  1  0  0  0  0
 12 10  1  0  0  0  0
 12 11  1  0  0  0  0
 14 15  1  0  0  0  0
 14 13  1  0  0  0  0
 16 17  1  0  0  0  0
 17 15  1  0  0  0  0
 19 18  1  0  0  0  0
 20 23  1  0  0  0  0
 22 26  1  0  0  0  0
 23 26  2  0  0  0  0
 23 19  1  0  0  0  0
 24 29  1  0  0  0  0
 24 20  2  0  0  0  0
 25 27  1  0  0  0  0
 25 28  1  0  0  0  0
 27 24  1  0  0  0  0
 28 21  2  0  0  0  0
 28 29  1  0  0  0  0
 29 22  2  0  0  0  0
M  END
>  <MODEL>
7

>  <REMARK>
 VINA RESULT:      -6.1      4.522      8.406
  Name = 
  11 active torsions:
  status: ('A' for Active; 'I' for Inactive)
    1  A    between atoms: C_2  and  O_26
    2  A    between atoms: C_4  and  N_17
    3  A    between atoms: C_9  and  C_16
    4  A    between atoms: C_9  and  O_25
    5  A    between atoms: C_10  and  C_23
    6  A    between atoms: C_16  and  N_17
    7  A    between atoms: O_18  and  C_19
    8  A    between atoms: O_18  and  C_22
    9  A    between atoms: C_22  and  C_29
   10  A    between atoms: C_23  and  O_26
   11  A    between atoms: N_28  and  C_29
                            x       y       z     vdW  Elec       q    Type
                         _______ _______ _______ _____ _____    ______ ____

>  <TORSDO>
F 11

$$$$
=
 OpenBabel11042416493D

 29 31  0  0  0  0  0  0  0  0999 V2000
  185.8180  177.6360  146.4840 C   0  0  0  0  0  3  0  0  0  0  0  0
  187.1050  177.3950  145.9790 C   0  0  0  0  0  0  0  0  0  0  0  0
  185.0280  178.1940  144.2620 C   0  0  0  0  0  0  0  0  0  0  0  0
  184.7860  178.0320  145.6310 C   0  0  0  0  0  3  0  0  0  0  0  0
  187.3530  177.5580  144.6070 C   0  0  0  0  0  0  0  0  0  0  0  0
  186.3090  177.9570  143.7560 C   0  0  0  0  0  3  0  0  0  0  0  0
  183.9890  178.5990  143.3670 N   0  0  0  0  0  2  0  0  0  0  0  0
  183.9970  178.2760  141.9490 C   0  0  0  0  0  2  0  0  0  0  0  0
  182.3780  177.9190  140.2450 O   0  0  0  0  0  0  0  0  0  0  0  0
  182.6050  178.3000  141.4250 C   0  0  0  0  0  0  0  0  0  0  0  0
  180.2110  178.6560  141.8590 C   0  0  0  0  0  1  0  0  0  0  0  0
  181.5740  178.7760  142.2340 O   0  0  0  0  0  0  0  0  0  0  0  0
  188.6390  177.3150  144.1140 O   0  0  0  0  0  0  0  0  0  0  0  0
  188.8900  176.9440  142.7640 C   0  0  0  0  0  2  0  0  0  0  0  0
  188.6670  175.4540  142.5920 C   0  0  0  0  0  2  0  0  0  0  0  0
  189.1540  174.2610  140.6500 C   0  0  0  0  0  1  0  0  0  0  0  0
  188.1990  175.1770  141.2450 N   0  0  0  0  0  2  0  0  0  0  0  0
  188.1510  176.9970  146.8170 O   0  0  0  0  0  0  0  0  0  0  0  0
  188.4630  175.6330  147.0660 C   0  0  0  0  0  2  0  0  0  0  0  0
  190.2430  174.4780  145.7400 C   0  0  0  0  0  3  0  0  0  0  0  0
  194.9460  175.1470  146.1480 O   0  0  0  0  0  0  0  0  0  0  0  0
  192.2470  175.8840  147.1260 C   0  0  0  0  0  3  0  0  0  0  0  0
  189.8950  175.3840  146.7530 C   0  0  0  0  0  0  0  0  0  0  0  0
  191.5920  174.2800  145.4380 C   0  0  0  0  0  0  0  0  0  0  0  0
  193.9210  173.4280  144.3550 S   0  0  0  0  0  0  0  0  0  0  0  0
  190.8960  176.0910  147.4390 C   0  0  0  0  0  3  0  0  0  0  0  0
  192.0810  173.3410  144.3840 C   0  0  0  0  0  2  0  0  0  0  0  0
  193.8990  174.6370  145.6690 C   0  0  0  0  0  0  0  0  0  0  0  0
  192.5710  174.9700  146.1210 C   0  0  0  0  0  0  0  0  0  0  0  0
  2  1  1  0  0  0  0
  2 18  1  0  0  0  0
  3  4  1  0  0  0  0
  4  1  2  0  0  0  0
  5  2  2  0  0  0  0
  6  3  2  0  0  0  0
  6  5  1  0  0  0  0
  7  3  1  0  0  0  0
  8  7  1  0  0  0  0
  9 10  2  0  0  0  0
 10  8  1  0  0  0  0
 10 12  1  0  0  0  0
 11 12  1  0  0  0  0
 13  5  1  0  0  0  0
 14 13  1  0  0  0  0
 15 14  1  0  0  0  0
 16 17  1  0  0  0  0
 17 15  1  0  0  0  0
 18 19  1  0  0  0  0
 20 23  1  0  0  0  0
 22 26  1  0  0  0  0
 23 19  1  0  0  0  0
 23 26  2  0  0  0  0
 24 20  2  0  0  0  0
 24 29  1  0  0  0  0
 25 27  1  0  0  0  0
 25 28  1  0  0  0  0
 27 24  1  0  0  0  0
 28 29  1  0  0  0  0
 28 21  2  0  0  0  0
 29 22  2  0  0  0  0
M  END
>  <MODEL>
8

>  <REMARK>
 VINA RESULT:      -6.1      2.631      4.264
  Name = 
  11 active torsions:
  status: ('A' for Active; 'I' for Inactive)
    1  A    between atoms: C_2  and  O_26
    2  A    between atoms: C_4  and  N_17
    3  A    between atoms: C_9  and  C_16
    4  A    between atoms: C_9  and  O_25
    5  A    between atoms: C_10  and  C_23
    6  A    between atoms: C_16  and  N_17
    7  A    between atoms: O_18  and  C_19
    8  A    between atoms: O_18  and  C_22
    9  A    between atoms: C_22  and  C_29
   10  A    between atoms: C_23  and  O_26
   11  A    between atoms: N_28  and  C_29
                            x       y       z     vdW  Elec       q    Type
                         _______ _______ _______ _____ _____    ______ ____

>  <TORSDO>
F 11

$$$$
=
 OpenBabel11042416493D

 29 31  0  0  0  0  0  0  0  0999 V2000
  188.4680  176.3830  146.6630 C   0  0  0  0  0  3  0  0  0  0  0  0
  189.3600  175.5520  145.9680 C   0  0  0  0  0  0  0  0  0  0  0  0
  187.5280  177.1620  144.5690 C   0  0  0  0  0  0  0  0  0  0  0  0
  187.5580  177.1820  145.9690 C   0  0  0  0  0  3  0  0  0  0  0  0
  189.3360  175.5290  144.5650 C   0  0  0  0  0  0  0  0  0  0  0  0
  188.4170  176.3360  143.8740 C   0  0  0  0  0  3  0  0  0  0  0  0
  186.6070  177.9710  143.8340 N   0  0  0  0  0  2  0  0  0  0  0  0
  185.9380  179.1260  144.4090 C   0  0  0  0  0  2  0  0  0  0  0  0
  183.8220  178.5860  143.4690 O   0  0  0  0  0  0  0  0  0  0  0  0
  184.4780  178.8580  144.5110 C   0  0  0  0  0  0  0  0  0  0  0  0
  184.3620  178.2870  146.8990 C   0  0  0  0  0  1  0  0  0  0  0  0
  183.8490  178.9460  145.7520 O   0  0  0  0  0  0  0  0  0  0  0  0
  190.2280  174.6970  143.8810 O   0  0  0  0  0  0  0  0  0  0  0  0
  190.7540  175.0190  142.6000 C   0  0  0  0  0  2  0  0  0  0  0  0
  191.9780  175.9010  142.7540 C   0  0  0  0  0  2  0  0  0  0  0  0
  192.9580  173.9810  141.8690 C   0  0  0  0  0  1  0  0  0  0  0  0
  193.0400  175.4290  141.8810 N   0  0  0  0  0  2  0  0  0  0  0  0
  190.2780  174.7440  146.6450 O   0  0  0  0  0  0  0  0  0  0  0  0
  191.3200  175.2730  147.4550 C   0  0  0  0  0  2  0  0  0  0  0  0
  193.2240  174.3290  146.1340 C   0  0  0  0  0  3  0  0  0  0  0  0
  196.5570  176.8250  143.8130 O   0  0  0  0  0  0  0  0  0  0  0  0
  194.1380  176.9190  145.5220 C   0  0  0  0  0  3  0  0  0  0  0  0
  192.5470  175.4520  146.6340 C   0  0  0  0  0  0  0  0  0  0  0  0
  194.3570  174.5160  145.3390 C   0  0  0  0  0  0  0  0  0  0  0  0
  196.5410  174.1380  143.7870 S   0  0  0  0  0  0  0  0  0  0  0  0
  193.0000  176.7440  146.3220 C   0  0  0  0  0  3  0  0  0  0  0  0
  195.1580  173.4000  144.7530 C   0  0  0  0  0  2  0  0  0  0  0  0
  195.9790  175.7800  144.2090 C   0  0  0  0  0  0  0  0  0  0  0  0
  194.8020  175.7870  145.0430 C   0  0  0  0  0  0  0  0  0  0  0  0
  2 18  1  0  0  0  0
  2  1  2  0  0  0  0
  3  4  2  0  0  0  0
  4  1  1  0  0  0  0
  5  2  1  0  0  0  0
  6  5  2  0  0  0  0
  6  3  1  0  0  0  0
  7  8  1  0  0  0  0
  7  3  1  0  0  0  0
  8 10  1  0  0  0  0
  9 10  2  0  0  0  0
 10 12  1  0  0  0  0
 12 11  1  0  0  0  0
 13  5  1  0  0  0  0
 14 15  1  0  0  0  0
 14 13  1  0  0  0  0
 16 17  1  0  0  0  0
 17 15  1  0  0  0  0
 18 19  1  0  0  0  0
 20 23  1  0  0  0  0
 21 28  2  0  0  0  0
 22 26  1  0  0  0  0
 23 19  1  0  0  0  0
 24 20  2  0  0  0  0
 25 28  1  0  0  0  0
 25 27  1  0  0  0  0
 26 23  2  0  0  0  0
 27 24  1  0  0  0  0
 28 29  1  0  0  0  0
 29 24  1  0  0  0  0
 29 22  2  0  0  0  0
M  END
>  <MODEL>
9

>  <REMARK>
 VINA RESULT:      -6.1      3.446      6.255
  Name = 
  11 active torsions:
  status: ('A' for Active; 'I' for Inactive)
    1  A    between atoms: C_2  and  O_26
    2  A    between atoms: C_4  and  N_17
    3  A    between atoms: C_9  and  C_16
    4  A    between atoms: C_9  and  O_25
    5  A    between atoms: C_10  and  C_23
    6  A    between atoms: C_16  and  N_17
    7  A    between atoms: O_18  and  C_19
    8  A    between atoms: O_18  and  C_22
    9  A    between atoms: C_22  and  C_29
   10  A    between atoms: C_23  and  O_26
   11  A    between atoms: N_28  and  C_29
                            x       y       z     vdW  Elec       q    Type
                         _______ _______ _______ _____ _____    ______ ____

>  <TORSDO>
F 11

$$$$
