=
 OpenBabel11042415043D

 33 38  0  0  1  0  0  0  0  0999 V2000
  191.4600  173.0100  140.6710 N   0  0  0  0  0  0  0  0  0  0  0  0
  190.8320  173.4020  138.4240 N   0  0  0  0  0  0  0  0  0  0  0  0
  187.7030  174.3930  142.2530 C   0  0  1  0  0  3  0  0  0  0  0  0
  189.1120  174.5710  141.7060 C   0  0  1  0  0  0  0  0  0  0  0  0
  190.1920  177.4670  145.6410 C   0  0  0  0  0  3  0  0  0  0  0  0
  191.2170  172.9960  142.0860 C   0  0  0  0  0  2  0  0  0  0  0  0
  188.9240  174.1980  143.1160 C   0  0  2  0  0  0  0  0  0  0  0  0
  186.9340  175.7160  142.4580 C   0  0  0  0  0  2  0  0  0  0  0  0
  190.5300  173.3990  139.8250 C   0  0  0  0  0  0  0  0  0  0  0  0
  189.9620  173.7000  137.5060 C   0  0  0  0  0  3  0  0  0  0  0  0
  187.4550  175.3760  139.4650 N   0  0  0  0  0  2  0  0  0  0  0  0
  190.1180  173.6330  142.4010 C   0  0  1  0  0  3  0  0  0  0  0  0
  188.4070  174.5540  139.2180 C   0  0  0  0  0  0  0  0  0  0  0  0
  187.7790  176.8380  142.8510 N   0  0  0  0  0  0  0  0  0  0  0  0
  189.3270  175.3500  144.0160 C   0  0  0  0  0  0  0  0  0  0  0  0
  189.2350  177.6940  144.6500 C   0  0  0  0  0  3  0  0  0  0  0  0
  190.2750  175.1320  145.0250 C   0  0  0  0  0  3  0  0  0  0  0  0
  188.7870  176.6370  143.8470 C   0  0  0  0  0  0  0  0  0  0  0  0
  189.1080  173.8010  140.3310 C   0  0  2  0  0  3  0  0  0  0  0  0
  188.5310  174.0120  137.8290 C   0  0  0  0  0  2  0  0  0  0  0  0
  190.7130  176.1830  145.8450 C   0  0  0  0  0  0  0  0  0  0  0  0
  191.6900  175.9570  146.8740 N   0  0  0  0  0  0  0  0  0  0  0  0
  193.0970  176.2640  146.6640 C   0  0  0  0  0  1  0  0  0  0  0  0
  191.3110  175.4480  148.0700 O   0  0  0  0  0  1  0  0  0  0  0  0
  187.6180  178.1100  142.1590 C   0  0  0  0  0  2  0  0  0  0  0  0
  186.1910  178.6080  142.3000 C   0  0  0  0  0  2  0  0  0  0  0  0
  185.9570  179.0650  143.7240 C   0  0  0  0  0  2  0  0  0  0  0  0
  184.6010  178.5830  144.1890 C   0  0  0  0  0  2  0  0  0  0  0  0
  184.6920  178.1330  145.6360 C   0  0  0  0  0  2  0  0  0  0  0  0
  185.5550  176.8870  145.7520 C   0  0  0  0  0  2  0  0  0  0  0  0
  187.3580  176.1610  147.1330 O   0  0  0  0  0  0  0  0  0  0  0  0
  186.3540  176.9090  147.0100 C   0  0  0  0  0  0  0  0  0  0  0  0
  185.9720  177.7330  148.0600 O   0  0  0  0  0  1  0  0  0  0  0  0
  1  6  1  0  0  0  0
  2  9  1  0  0  0  0
  3  8  1  1  0  0  0
  3  7  1  0  0  0  0
  4  3  1  0  0  0  0
  4 12  1  0  0  0  0
  4  7  1  0  0  0  0
  5 21  1  0  0  0  0
  6 12  1  0  0  0  0
  7 15  1  0  0  0  0
  8 14  1  0  0  0  0
  9 19  1  0  0  0  0
  9  1  2  0  0  0  0
 10 20  1  0  0  0  0
 10  2  2  0  0  0  0
 12  7  1  0  0  0  0
 13 11  2  0  0  0  0
 13 19  1  0  0  0  0
 14 18  1  0  0  0  0
 15 17  1  0  0  0  0
 16  5  2  0  0  0  0
 17 21  2  0  0  0  0
 18 15  2  0  0  0  0
 18 16  1  0  0  0  0
 19  4  1  0  0  0  0
 20 13  1  0  0  0  0
 21 22  1  0  0  0  0
 22 24  1  0  0  0  0
 23 22  1  0  0  0  0
 25 26  1  0  0  0  0
 25 14  1  0  0  0  0
 26 27  1  0  0  0  0
 27 28  1  0  0  0  0
 28 29  1  0  0  0  0
 29 30  1  0  0  0  0
 30 32  1  0  0  0  0
 32 31  2  0  0  0  0
 32 33  1  0  0  0  0
M  END
>  <MODEL>
1

>  <REMARK>
 VINA RESULT:      -7.1      0.000      0.000
  Name = 
  8 active torsions:
  status: ('A' for Active; 'I' for Inactive)
    1  A    between atoms: C_6  and  C_17
    2  A    between atoms: C_6  and  C_26
    3  A    between atoms: C_13  and  C_22
    4  A    between atoms: C_13  and  C_29
    5  A    between atoms: C_17  and  C_22
    6  A    between atoms: N_18  and  C_30
    7  A    between atoms: N_20  and  C_33
    8  A    between atoms: C_26  and  C_30
                            x       y       z     vdW  Elec       q    Type
                         _______ _______ _______ _____ _____    ______ ____

>  <TORSDO>
F 8

$$$$
=
 OpenBabel11042415043D

 33 38  0  0  1  0  0  0  0  0999 V2000
  188.5840  173.9500  140.6980 N   0  0  0  0  0  0  0  0  0  0  0  0
  190.3050  172.5170  141.4620 N   0  0  0  0  0  0  0  0  0  0  0  0
  190.1060  177.3680  142.8260 C   0  0  1  0  0  3  0  0  0  0  0  0
  189.3250  176.0700  142.6930 C   0  0  1  0  0  0  0  0  0  0  0  0
  185.3830  178.3160  144.8060 C   0  0  0  0  0  3  0  0  0  0  0  0
  187.9220  175.2200  140.6030 C   0  0  0  0  0  2  0  0  0  0  0  0
  188.7180  177.3300  142.2410 C   0  0  2  0  0  0  0  0  0  0  0  0
  190.2150  177.8930  144.2740 C   0  0  0  0  0  2  0  0  0  0  0  0
  189.6920  173.8100  141.3950 C   0  0  0  0  0  0  0  0  0  0  0  0
  191.4350  172.2920  142.0630 C   0  0  0  0  0  3  0  0  0  0  0  0
  191.7090  175.2310  144.1170 N   0  0  0  0  0  2  0  0  0  0  0  0
  188.3940  176.0850  141.4650 C   0  0  1  0  0  3  0  0  0  0  0  0
  191.3560  174.5230  143.1080 C   0  0  0  0  0  0  0  0  0  0  0  0
  189.0460  177.6090  145.0980 N   0  0  0  0  0  0  0  0  0  0  0  0
  187.5700  177.7120  143.1550 C   0  0  0  0  0  0  0  0  0  0  0  0
  186.6410  178.0890  145.3680 C   0  0  0  0  0  3  0  0  0  0  0  0
  186.3050  177.9550  142.6010 C   0  0  0  0  0  3  0  0  0  0  0  0
  187.7400  177.8050  144.5470 C   0  0  0  0  0  0  0  0  0  0  0  0
  190.3560  175.0410  142.0930 C   0  0  2  0  0  3  0  0  0  0  0  0
  192.2390  173.3890  142.6960 C   0  0  0  0  0  2  0  0  0  0  0  0
  185.2060  178.2610  143.4180 C   0  0  0  0  0  0  0  0  0  0  0  0
  183.9100  178.5040  142.8480 N   0  0  0  0  0  0  0  0  0  0  0  0
  183.6130  178.1630  141.4650 C   0  0  0  0  0  1  0  0  0  0  0  0
  182.9310  179.0630  143.5990 O   0  0  0  0  0  1  0  0  0  0  0  0
  189.2480  177.0590  146.4320 C   0  0  0  0  0  2  0  0  0  0  0  0
  188.8650  175.5910  146.4590 C   0  0  0  0  0  2  0  0  0  0  0  0
  189.9510  174.8010  147.1580 C   0  0  0  0  0  2  0  0  0  0  0  0
  190.9600  175.7560  147.7560 C   0  0  0  0  0  2  0  0  0  0  0  0
  192.3540  175.3750  147.2910 C   0  0  0  0  0  2  0  0  0  0  0  0
  193.2380  176.6080  147.1940 C   0  0  0  0  0  2  0  0  0  0  0  0
  194.4580  177.1940  145.2310 O   0  0  0  0  0  0  0  0  0  0  0  0
  194.3300  176.4010  146.1990 C   0  0  0  0  0  0  0  0  0  0  0  0
  195.1850  175.3150  146.3230 O   0  0  0  0  0  1  0  0  0  0  0  0
  1  9  2  0  0  0  0
  2 10  2  0  0  0  0
  3  8  1  1  0  0  0
  4  3  1  0  0  0  0
  5 16  1  0  0  0  0
  6  1  1  0  0  0  0
  6 12  1  0  0  0  0
  7  4  1  0  0  0  0
  7  3  1  0  0  0  0
  7 15  1  0  0  0  0
  8 14  1  0  0  0  0
  9  2  1  0  0  0  0
  9 19  1  0  0  0  0
 10 20  1  0  0  0  0
 12  7  1  0  0  0  0
 12  4  1  0  0  0  0
 13 11  2  0  0  0  0
 14 25  1  0  0  0  0
 15 18  1  0  0  0  0
 17 15  2  0  0  0  0
 17 21  1  0  0  0  0
 18 14  1  0  0  0  0
 18 16  2  0  0  0  0
 19  4  1  0  0  0  0
 19 13  1  0  0  0  0
 20 13  1  0  0  0  0
 21  5  2  0  0  0  0
 22 21  1  0  0  0  0
 22 24  1  0  0  0  0
 23 22  1  0  0  0  0
 25 26  1  0  0  0  0
 26 27  1  0  0  0  0
 27 28  1  0  0  0  0
 29 28  1  0  0  0  0
 30 29  1  0  0  0  0
 31 32  2  0  0  0  0
 32 33  1  0  0  0  0
 32 30  1  0  0  0  0
M  END
>  <MODEL>
2

>  <REMARK>
 VINA RESULT:      -6.9      2.429      5.944
  Name = 
  8 active torsions:
  status: ('A' for Active; 'I' for Inactive)
    1  A    between atoms: C_6  and  C_17
    2  A    between atoms: C_6  and  C_26
    3  A    between atoms: C_13  and  C_22
    4  A    between atoms: C_13  and  C_29
    5  A    between atoms: C_17  and  C_22
    6  A    between atoms: N_18  and  C_30
    7  A    between atoms: N_20  and  C_33
    8  A    between atoms: C_26  and  C_30
                            x       y       z     vdW  Elec       q    Type
                         _______ _______ _______ _____ _____    ______ ____

>  <TORSDO>
F 8

$$$$
=
 OpenBabel11042415043D

 33 38  0  0  1  0  0  0  0  0999 V2000
  188.7710  177.4140  147.2410 N   0  0  0  0  0  0  0  0  0  0  0  0
  186.4550  176.9440  147.3450 N   0  0  0  0  0  0  0  0  0  0  0  0
  188.7410  178.0050  142.9770 C   0  0  1  0  0  3  0  0  0  0  0  0
  188.7890  177.1690  144.2470 C   0  0  1  0  0  0  0  0  0  0  0  0
  192.8090  174.7960  142.4420 C   0  0  0  0  0  3  0  0  0  0  0  0
  189.9780  177.7670  146.5460 C   0  0  0  0  0  2  0  0  0  0  0  0
  190.0150  177.8180  143.7600 C   0  0  2  0  0  0  0  0  0  0  0  0
  188.6170  177.1760  141.6800 C   0  0  0  0  0  2  0  0  0  0  0  0
  187.6250  177.3090  146.6030 C   0  0  0  0  0  0  0  0  0  0  0  0
  185.2670  176.8840  146.8220 C   0  0  0  0  0  3  0  0  0  0  0  0
  186.0720  176.7570  143.3200 N   0  0  0  0  0  2  0  0  0  0  0  0
  189.8310  177.7070  145.2470 C   0  0  1  0  0  3  0  0  0  0  0  0
  186.2240  177.0550  144.5570 C   0  0  0  0  0  0  0  0  0  0  0  0
  189.3010  175.8890  141.7310 N   0  0  0  0  0  0  0  0  0  0  0  0
  190.9920  176.7730  143.2560 C   0  0  0  0  0  0  0  0  0  0  0  0
  191.5190  174.8230  141.9070 C   0  0  0  0  0  3  0  0  0  0  0  0
  192.2940  176.7450  143.7760 C   0  0  0  0  0  3  0  0  0  0  0  0
  190.6140  175.8180  142.2970 C   0  0  0  0  0  0  0  0  0  0  0  0
  187.5300  177.6260  145.0750 C   0  0  2  0  0  3  0  0  0  0  0  0
  185.0000  177.2540  145.3940 C   0  0  0  0  0  2  0  0  0  0  0  0
  193.2110  175.7620  143.3730 C   0  0  0  0  0  0  0  0  0  0  0  0
  194.5420  175.7320  143.9110 N   0  0  0  0  0  0  0  0  0  0  0  0
  194.8380  176.2600  145.2350 C   0  0  0  0  0  1  0  0  0  0  0  0
  195.5570  175.2070  143.1850 O   0  0  0  0  0  1  0  0  0  0  0  0
  188.5910  174.7010  141.2740 C   0  0  0  0  0  2  0  0  0  0  0  0
  188.1170  173.8830  142.4620 C   0  0  0  0  0  2  0  0  0  0  0  0
  188.2860  172.4110  142.1570 C   0  0  0  0  0  2  0  0  0  0  0  0
  189.5380  171.8980  142.8330 C   0  0  0  0  0  2  0  0  0  0  0  0
  189.4890  172.2360  144.3120 C   0  0  0  0  0  2  0  0  0  0  0  0
  190.7840  172.9020  144.7490 C   0  0  0  0  0  2  0  0  0  0  0  0
  189.3330  174.2710  146.0550 O   0  0  0  0  0  0  0  0  0  0  0  0
  190.5170  173.9780  145.7460 C   0  0  0  0  0  0  0  0  0  0  0  0
  191.5730  174.6800  146.3100 O   0  0  0  0  0  1  0  0  0  0  0  0
  3  8  1  6  0  0  0
  3  7  1  0  0  0  0
  3  4  1  0  0  0  0
  4 19  1  0  0  0  0
  4 12  1  0  0  0  0
  5 21  1  0  0  0  0
  6  1  1  0  0  0  0
  7  4  1  0  0  0  0
  7 12  1  0  0  0  0
  8 14  1  0  0  0  0
  9  1  2  0  0  0  0
  9  2  1  0  0  0  0
 10  2  2  0  0  0  0
 11 13  2  0  0  0  0
 12  6  1  0  0  0  0
 13 19  1  0  0  0  0
 13 20  1  0  0  0  0
 14 18  1  0  0  0  0
 15  7  1  0  0  0  0
 15 17  1  0  0  0  0
 16 18  1  0  0  0  0
 16  5  2  0  0  0  0
 18 15  2  0  0  0  0
 19  9  1  0  0  0  0
 20 10  1  0  0  0  0
 21 17  2  0  0  0  0
 21 22  1  0  0  0  0
 22 23  1  0  0  0  0
 24 22  1  0  0  0  0
 25 14  1  0  0  0  0
 25 26  1  0  0  0  0
 27 26  1  0  0  0  0
 27 28  1  0  0  0  0
 28 29  1  0  0  0  0
 29 30  1  0  0  0  0
 30 32  1  0  0  0  0
 32 31  2  0  0  0  0
 32 33  1  0  0  0  0
M  END
>  <MODEL>
3

>  <REMARK>
 VINA RESULT:      -6.9      2.407      5.922
  Name = 
  8 active torsions:
  status: ('A' for Active; 'I' for Inactive)
    1  A    between atoms: C_6  and  C_17
    2  A    between atoms: C_6  and  C_26
    3  A    between atoms: C_13  and  C_22
    4  A    between atoms: C_13  and  C_29
    5  A    between atoms: C_17  and  C_22
    6  A    between atoms: N_18  and  C_30
    7  A    between atoms: N_20  and  C_33
    8  A    between atoms: C_26  and  C_30
                            x       y       z     vdW  Elec       q    Type
                         _______ _______ _______ _____ _____    ______ ____

>  <TORSDO>
F 8

$$$$
=
 OpenBabel11042415043D

 33 38  0  0  1  0  0  0  0  0999 V2000
  188.2670  174.7060  140.7080 N   0  0  0  0  0  0  0  0  0  0  0  0
  189.9500  173.0440  140.6680 N   0  0  0  0  0  0  0  0  0  0  0  0
  190.4990  177.2960  143.3250 C   0  0  1  0  0  3  0  0  0  0  0  0
  189.5810  176.1250  143.0070 C   0  0  1  0  0  0  0  0  0  0  0  0
  186.3560  177.8220  146.4370 C   0  0  0  0  0  3  0  0  0  0  0  0
  187.7290  175.9760  141.1090 C   0  0  0  0  0  2  0  0  0  0  0  0
  189.0270  177.4860  143.0570 C   0  0  2  0  0  0  0  0  0  0  0  0
  190.9330  177.3740  144.8040 C   0  0  0  0  0  2  0  0  0  0  0  0
  189.4680  174.3260  141.0900 C   0  0  0  0  0  0  0  0  0  0  0  0
  191.1460  172.6080  140.9320 C   0  0  0  0  0  3  0  0  0  0  0  0
  192.0960  174.8130  143.6100 N   0  0  0  0  0  2  0  0  0  0  0  0
  188.4400  176.5340  142.0550 C   0  0  1  0  0  3  0  0  0  0  0  0
  191.4890  174.4420  142.5430 C   0  0  0  0  0  0  0  0  0  0  0  0
  189.9190  176.9110  145.7450 N   0  0  0  0  0  0  0  0  0  0  0  0
  188.1180  177.6330  144.2620 C   0  0  0  0  0  0  0  0  0  0  0  0
  187.6690  177.3910  146.6370 C   0  0  0  0  0  3  0  0  0  0  0  0
  186.8020  178.0790  144.0750 C   0  0  0  0  0  3  0  0  0  0  0  0
  188.5580  177.3120  145.5570 C   0  0  0  0  0  0  0  0  0  0  0  0
  190.3720  175.2730  141.9440 C   0  0  2  0  0  3  0  0  0  0  0  0
  192.1600  173.4410  141.6580 C   0  0  0  0  0  2  0  0  0  0  0  0
  185.9140  178.1800  145.1570 C   0  0  0  0  0  0  0  0  0  0  0  0
  184.5640  178.6300  144.9630 N   0  0  0  0  0  0  0  0  0  0  0  0
  184.0200  178.8460  143.6300 C   0  0  0  0  0  1  0  0  0  0  0  0
  183.7660  178.8660  146.0310 O   0  0  0  0  0  1  0  0  0  0  0  0
  190.3160  175.9910  146.8030 C   0  0  0  0  0  2  0  0  0  0  0  0
  191.5970  176.4680  147.4610 C   0  0  0  0  0  2  0  0  0  0  0  0
  192.7420  175.5720  147.0420 C   0  0  0  0  0  2  0  0  0  0  0  0
  193.9670  176.4170  146.7690 C   0  0  0  0  0  2  0  0  0  0  0  0
  194.9080  175.6610  145.8490 C   0  0  0  0  0  2  0  0  0  0  0  0
  195.1300  176.4360  144.5600 C   0  0  0  0  0  2  0  0  0  0  0  0
  197.2300  176.0880  143.4850 O   0  0  0  0  0  1  0  0  0  0  0  0
  196.0450  175.6950  143.6460 C   0  0  0  0  0  0  0  0  0  0  0  0
  195.5820  174.5890  142.9470 O   0  0  0  0  0  0  0  0  0  0  0  0
  1  9  2  0  0  0  0
  1  6  1  0  0  0  0
  2 10  2  0  0  0  0
  2  9  1  0  0  0  0
  3  8  1  1  0  0  0
  4  7  1  0  0  0  0
  4  3  1  0  0  0  0
  5 16  1  0  0  0  0
  6 12  1  0  0  0  0
  7  3  1  0  0  0  0
  7 15  1  0  0  0  0
  8 14  1  0  0  0  0
  9 19  1  0  0  0  0
 10 20  1  0  0  0  0
 12  4  1  0  0  0  0
 12  7  1  0  0  0  0
 13 11  2  0  0  0  0
 14 25  1  0  0  0  0
 15 18  1  0  0  0  0
 17 15  2  0  0  0  0
 17 21  1  0  0  0  0
 18 14  1  0  0  0  0
 18 16  2  0  0  0  0
 19 13  1  0  0  0  0
 19  4  1  0  0  0  0
 20 13  1  0  0  0  0
 21  5  2  0  0  0  0
 22 21  1  0  0  0  0
 22 24  1  0  0  0  0
 23 22  1  0  0  0  0
 25 26  1  0  0  0  0
 27 26  1  0  0  0  0
 28 27  1  0  0  0  0
 29 28  1  0  0  0  0
 30 29  1  0  0  0  0
 31 32  1  0  0  0  0
 32 30  1  0  0  0  0
 33 32  2  0  0  0  0
M  END
>  <MODEL>
4

>  <REMARK>
 VINA RESULT:      -6.9      2.585      6.419
  Name = 
  8 active torsions:
  status: ('A' for Active; 'I' for Inactive)
    1  A    between atoms: C_6  and  C_17
    2  A    between atoms: C_6  and  C_26
    3  A    between atoms: C_13  and  C_22
    4  A    between atoms: C_13  and  C_29
    5  A    between atoms: C_17  and  C_22
    6  A    between atoms: N_18  and  C_30
    7  A    between atoms: N_20  and  C_33
    8  A    between atoms: C_26  and  C_30
                            x       y       z     vdW  Elec       q    Type
                         _______ _______ _______ _____ _____    ______ ____

>  <TORSDO>
F 8

$$$$
=
 OpenBabel11042415043D

 33 38  0  0  1  0  0  0  0  0999 V2000
  192.5880  176.7760  147.6230 N   0  0  0  0  0  0  0  0  0  0  0  0
  194.4760  176.3830  146.2520 N   0  0  0  0  0  0  0  0  0  0  0  0
  190.0380  174.1690  145.3360 C   0  0  1  0  0  3  0  0  0  0  0  0
  190.7470  175.4820  145.6340 C   0  0  1  0  0  0  0  0  0  0  0  0
  186.3890  177.8760  145.0660 C   0  0  0  0  0  3  0  0  0  0  0  0
  191.2200  176.5750  148.0090 C   0  0  0  0  0  2  0  0  0  0  0  0
  189.4980  175.1580  146.3380 C   0  0  2  0  0  0  0  0  0  0  0  0
  189.3230  174.1340  143.9690 C   0  0  0  0  0  2  0  0  0  0  0  0
  193.1070  176.1360  146.5970 C   0  0  0  0  0  0  0  0  0  0  0  0
  195.0990  175.7510  145.3030 C   0  0  0  0  0  3  0  0  0  0  0  0
  192.3270  174.3870  143.4620 N   0  0  0  0  0  2  0  0  0  0  0  0
  190.5440  175.9230  147.0970 C   0  0  1  0  0  3  0  0  0  0  0  0
  192.9670  174.8220  144.4840 C   0  0  0  0  0  0  0  0  0  0  0  0
  188.7730  175.4200  143.5540 N   0  0  0  0  0  0  0  0  0  0  0  0
  188.3850  176.0770  145.8740 C   0  0  0  0  0  0  0  0  0  0  0  0
  187.0870  177.1330  144.1120 C   0  0  0  0  0  3  0  0  0  0  0  0
  187.6670  176.8170  146.8230 C   0  0  0  0  0  3  0  0  0  0  0  0
  188.0730  176.2210  144.5110 C   0  0  0  0  0  0  0  0  0  0  0  0
  192.2640  175.0890  145.8000 C   0  0  2  0  0  3  0  0  0  0  0  0
  194.4530  174.6510  144.5140 C   0  0  0  0  0  2  0  0  0  0  0  0
  186.6650  177.7180  146.4300 C   0  0  0  0  0  0  0  0  0  0  0  0
  185.9350  178.4800  147.4050 N   0  0  0  0  0  0  0  0  0  0  0  0
  184.4810  178.5240  147.4010 C   0  0  0  0  0  1  0  0  0  0  0  0
  186.5990  179.1800  148.3550 O   0  0  0  0  0  1  0  0  0  0  0  0
  189.0230  175.8810  142.1940 C   0  0  0  0  0  2  0  0  0  0  0  0
  188.4830  174.8780  141.1920 C   0  0  0  0  0  2  0  0  0  0  0  0
  187.6040  175.5930  140.1890 C   0  0  0  0  0  2  0  0  0  0  0  0
  187.4600  177.0440  140.5920 C   0  0  0  0  0  2  0  0  0  0  0  0
  186.0670  177.5320  140.2390 C   0  0  0  0  0  2  0  0  0  0  0  0
  185.4770  178.3330  141.3880 C   0  0  0  0  0  2  0  0  0  0  0  0
  183.3820  178.2540  140.2510 O   0  0  0  0  0  0  0  0  0  0  0  0
  183.9870  178.2900  141.3540 C   0  0  0  0  0  0  0  0  0  0  0  0
  183.2650  178.3210  142.5390 O   0  0  0  0  0  1  0  0  0  0  0  0
  1  6  1  0  0  0  0
  2  9  1  0  0  0  0
  3  8  1  6  0  0  0
  3  4  1  0  0  0  0
  3  7  1  0  0  0  0
  4 19  1  0  0  0  0
  4  7  1  0  0  0  0
  4 12  1  0  0  0  0
  5 21  1  0  0  0  0
  7 12  1  0  0  0  0
  9  1  2  0  0  0  0
 10  2  2  0  0  0  0
 11 13  2  0  0  0  0
 12  6  1  0  0  0  0
 13 20  1  0  0  0  0
 13 19  1  0  0  0  0
 14  8  1  0  0  0  0
 14 18  1  0  0  0  0
 15  7  1  0  0  0  0
 15 17  1  0  0  0  0
 16 18  1  0  0  0  0
 16  5  2  0  0  0  0
 18 15  2  0  0  0  0
 19  9  1  0  0  0  0
 20 10  1  0  0  0  0
 21 17  2  0  0  0  0
 21 22  1  0  0  0  0
 22 24  1  0  0  0  0
 23 22  1  0  0  0  0
 25 14  1  0  0  0  0
 26 25  1  0  0  0  0
 27 28  1  0  0  0  0
 27 26  1  0  0  0  0
 29 28  1  0  0  0  0
 29 30  1  0  0  0  0
 31 32  2  0  0  0  0
 32 30  1  0  0  0  0
 32 33  1  0  0  0  0
M  END
>  <MODEL>
5

>  <REMARK>
 VINA RESULT:      -6.8      2.668      5.863
  Name = 
  8 active torsions:
  status: ('A' for Active; 'I' for Inactive)
    1  A    between atoms: C_6  and  C_17
    2  A    between atoms: C_6  and  C_26
    3  A    between atoms: C_13  and  C_22
    4  A    between atoms: C_13  and  C_29
    5  A    between atoms: C_17  and  C_22
    6  A    between atoms: N_18  and  C_30
    7  A    between atoms: N_20  and  C_33
    8  A    between atoms: C_26  and  C_30
                            x       y       z     vdW  Elec       q    Type
                         _______ _______ _______ _____ _____    ______ ____

>  <TORSDO>
F 8

$$$$
=
 OpenBabel11042415043D

 33 38  0  0  1  0  0  0  0  0999 V2000
  192.4300  176.7660  147.3820 N   0  0  0  0  0  0  0  0  0  0  0  0
  194.4660  175.8260  146.6290 N   0  0  0  0  0  0  0  0  0  0  0  0
  190.0190  173.7020  145.5560 C   0  0  1  0  0  3  0  0  0  0  0  0
  190.8220  174.9940  145.5660 C   0  0  1  0  0  0  0  0  0  0  0  0
  186.9670  177.3160  143.3780 C   0  0  0  0  0  3  0  0  0  0  0  0
  191.0000  176.7870  147.5170 C   0  0  0  0  0  2  0  0  0  0  0  0
  189.4380  174.9990  146.0600 C   0  0  2  0  0  0  0  0  0  0  0  0
  189.5590  173.2550  144.1530 C   0  0  0  0  0  2  0  0  0  0  0  0
  193.0380  175.7900  146.7410 C   0  0  0  0  0  0  0  0  0  0  0  0
  195.1630  174.8770  146.0790 C   0  0  0  0  0  3  0  0  0  0  0  0
  192.6130  173.1440  144.2290 N   0  0  0  0  0  2  0  0  0  0  0  0
  190.4210  175.9090  146.7380 C   0  0  1  0  0  3  0  0  0  0  0  0
  193.1110  173.8570  145.1710 C   0  0  0  0  0  0  0  0  0  0  0  0
  189.2560  174.3590  143.2480 N   0  0  0  0  0  0  0  0  0  0  0  0
  188.5490  175.7750  145.1080 C   0  0  0  0  0  0  0  0  0  0  0  0
  187.7250  176.2570  142.8740 C   0  0  0  0  0  3  0  0  0  0  0  0
  187.7720  176.8310  145.6050 C   0  0  0  0  0  3  0  0  0  0  0  0
  188.5030  175.4730  143.7360 C   0  0  0  0  0  0  0  0  0  0  0  0
  192.2250  174.5900  146.1580 C   0  0  2  0  0  3  0  0  0  0  0  0
  194.5350  173.6170  145.5610 C   0  0  0  0  0  2  0  0  0  0  0  0
  186.9750  177.6060  144.7480 C   0  0  0  0  0  0  0  0  0  0  0  0
  186.1860  178.6920  145.2580 N   0  0  0  0  0  0  0  0  0  0  0  0
  185.5700  179.6670  144.3700 C   0  0  0  0  0  1  0  0  0  0  0  0
  186.0000  178.8290  146.5930 O   0  0  0  0  0  1  0  0  0  0  0  0
  189.7980  174.3230  141.8960 C   0  0  0  0  0  2  0  0  0  0  0  0
  191.2650  174.7090  141.9090 C   0  0  0  0  0  2  0  0  0  0  0  0
  191.4130  176.1070  142.4680 C   0  0  0  0  0  2  0  0  0  0  0  0
  192.8770  176.4000  142.7090 C   0  0  0  0  0  2  0  0  0  0  0  0
  193.7210  175.5970  141.7350 C   0  0  0  0  0  2  0  0  0  0  0  0
  195.0560  175.2320  142.3630 C   0  0  0  0  0  2  0  0  0  0  0  0
  196.5270  176.7670  143.4430 O   0  0  0  0  0  1  0  0  0  0  0  0
  195.9770  176.4050  142.3710 C   0  0  0  0  0  0  0  0  0  0  0  0
  196.2030  177.1180  141.2020 O   0  0  0  0  0  0  0  0  0  0  0  0
  1  6  1  0  0  0  0
  2  9  1  0  0  0  0
  3  8  1  6  0  0  0
  3  4  1  0  0  0  0
  3  7  1  0  0  0  0
  4  7  1  0  0  0  0
  4 19  1  0  0  0  0
  4 12  1  0  0  0  0
  5 21  1  0  0  0  0
  7 12  1  0  0  0  0
  9  1  2  0  0  0  0
 10  2  2  0  0  0  0
 11 13  2  0  0  0  0
 12  6  1  0  0  0  0
 13 20  1  0  0  0  0
 13 19  1  0  0  0  0
 14 18  1  0  0  0  0
 14  8  1  0  0  0  0
 15 17  1  0  0  0  0
 15  7  1  0  0  0  0
 16  5  2  0  0  0  0
 16 18  1  0  0  0  0
 18 15  2  0  0  0  0
 19  9  1  0  0  0  0
 20 10  1  0  0  0  0
 21 22  1  0  0  0  0
 21 17  2  0  0  0  0
 22 24  1  0  0  0  0
 23 22  1  0  0  0  0
 25 26  1  0  0  0  0
 25 14  1  0  0  0  0
 26 27  1  0  0  0  0
 27 28  1  0  0  0  0
 29 30  1  0  0  0  0
 29 28  1  0  0  0  0
 30 32  1  0  0  0  0
 32 31  1  0  0  0  0
 33 32  2  0  0  0  0
M  END
>  <MODEL>
6

>  <REMARK>
 VINA RESULT:      -6.7      3.065      7.080
  Name = 
  8 active torsions:
  status: ('A' for Active; 'I' for Inactive)
    1  A    between atoms: C_6  and  C_17
    2  A    between atoms: C_6  and  C_26
    3  A    between atoms: C_13  and  C_22
    4  A    between atoms: C_13  and  C_29
    5  A    between atoms: C_17  and  C_22
    6  A    between atoms: N_18  and  C_30
    7  A    between atoms: N_20  and  C_33
    8  A    between atoms: C_26  and  C_30
                            x       y       z     vdW  Elec       q    Type
                         _______ _______ _______ _____ _____    ______ ____

>  <TORSDO>
F 8

$$$$
=
 OpenBabel11042415043D

 33 38  0  0  1  0  0  0  0  0999 V2000
  192.9980  176.4070  142.6460 N   0  0  0  0  0  0  0  0  0  0  0  0
  194.4400  175.1900  144.0730 N   0  0  0  0  0  0  0  0  0  0  0  0
  190.6770  178.0070  145.8990 C   0  0  1  0  0  3  0  0  0  0  0  0
  191.0690  176.9420  144.8850 C   0  0  1  0  0  0  0  0  0  0  0  0
  186.2630  176.5610  143.5420 C   0  0  0  0  0  3  0  0  0  0  0  0
  191.9030  177.3000  142.3890 C   0  0  0  0  0  2  0  0  0  0  0  0
  190.2090  178.0590  144.4670 C   0  0  2  0  0  0  0  0  0  0  0  0
  189.6320  177.5380  146.9340 C   0  0  0  0  0  2  0  0  0  0  0  0
  193.3460  176.0940  143.8760 C   0  0  0  0  0  0  0  0  0  0  0  0
  194.9050  174.8750  145.2450 C   0  0  0  0  0  3  0  0  0  0  0  0
  192.1820  175.9060  147.3550 N   0  0  0  0  0  2  0  0  0  0  0  0
  191.1890  177.5230  143.4630 C   0  0  1  0  0  3  0  0  0  0  0  0
  192.9520  175.9160  146.3300 C   0  0  0  0  0  0  0  0  0  0  0  0
  188.6660  176.5790  146.4100 N   0  0  0  0  0  0  0  0  0  0  0  0
  188.8080  177.5570  144.1770 C   0  0  0  0  0  0  0  0  0  0  0  0
  186.8250  176.2950  144.7920 C   0  0  0  0  0  3  0  0  0  0  0  0
  188.2270  177.8290  142.9300 C   0  0  0  0  0  3  0  0  0  0  0  0
  188.0880  176.8050  145.1210 C   0  0  0  0  0  0  0  0  0  0  0  0
  192.6160  176.7350  145.1000 C   0  0  2  0  0  3  0  0  0  0  0  0
  194.3730  175.4840  146.5080 C   0  0  0  0  0  2  0  0  0  0  0  0
  186.9540  177.3380  142.6040 C   0  0  0  0  0  0  0  0  0  0  0  0
  186.3640  177.6140  141.3240 N   0  0  0  0  0  0  0  0  0  0  0  0
  186.9920  177.1720  140.0880 C   0  0  0  0  0  1  0  0  0  0  0  0
  185.1980  178.2990  141.2460 O   0  0  0  0  0  1  0  0  0  0  0  0
  188.3810  175.3790  147.1870 C   0  0  0  0  0  2  0  0  0  0  0  0
  189.4690  174.3430  146.9710 C   0  0  0  0  0  2  0  0  0  0  0  0
  189.3180  173.7350  145.5940 C   0  0  0  0  0  2  0  0  0  0  0  0
  190.6870  173.4420  145.0210 C   0  0  0  0  0  2  0  0  0  0  0  0
  190.6500  173.6070  143.5130 C   0  0  0  0  0  2  0  0  0  0  0  0
  189.2360  173.9110  143.0440 C   0  0  0  0  0  2  0  0  0  0  0  0
  187.4830  172.6670  142.0130 O   0  0  0  0  0  1  0  0  0  0  0  0
  188.7220  172.8210  142.1670 C   0  0  0  0  0  0  0  0  0  0  0  0
  189.6090  171.9540  141.5440 O   0  0  0  0  0  0  0  0  0  0  0  0
  1  9  2  0  0  0  0
  2 10  2  0  0  0  0
  3  8  1  1  0  0  0
  4 19  1  0  0  0  0
  4  3  1  0  0  0  0
  5 16  1  0  0  0  0
  6  1  1  0  0  0  0
  6 12  1  0  0  0  0
  7  4  1  0  0  0  0
  7  3  1  0  0  0  0
  9  2  1  0  0  0  0
  9 19  1  0  0  0  0
 10 20  1  0  0  0  0
 12  7  1  0  0  0  0
 12  4  1  0  0  0  0
 13 20  1  0  0  0  0
 13 11  2  0  0  0  0
 14  8  1  0  0  0  0
 14 25  1  0  0  0  0
 15  7  1  0  0  0  0
 15 18  1  0  0  0  0
 16 18  2  0  0  0  0
 17 15  2  0  0  0  0
 18 14  1  0  0  0  0
 19 13  1  0  0  0  0
 21 17  1  0  0  0  0
 21  5  2  0  0  0  0
 22 21  1  0  0  0  0
 23 22  1  0  0  0  0
 24 22  1  0  0  0  0
 26 25  1  0  0  0  0
 27 26  1  0  0  0  0
 28 27  1  0  0  0  0
 29 28  1  0  0  0  0
 30 29  1  0  0  0  0
 31 32  1  0  0  0  0
 32 30  1  0  0  0  0
 33 32  2  0  0  0  0
M  END
>  <MODEL>
7

>  <REMARK>
 VINA RESULT:      -6.7      3.149      6.555
  Name = 
  8 active torsions:
  status: ('A' for Active; 'I' for Inactive)
    1  A    between atoms: C_6  and  C_17
    2  A    between atoms: C_6  and  C_26
    3  A    between atoms: C_13  and  C_22
    4  A    between atoms: C_13  and  C_29
    5  A    between atoms: C_17  and  C_22
    6  A    between atoms: N_18  and  C_30
    7  A    between atoms: N_20  and  C_33
    8  A    between atoms: C_26  and  C_30
                            x       y       z     vdW  Elec       q    Type
                         _______ _______ _______ _____ _____    ______ ____

>  <TORSDO>
F 8

$$$$
=
 OpenBabel11042415043D

 33 38  0  0  1  0  0  0  0  0999 V2000
  188.0250  175.5810  147.1960 N   0  0  0  0  0  0  0  0  0  0  0  0
  186.1470  176.9420  147.6650 N   0  0  0  0  0  0  0  0  0  0  0  0
  189.0420  177.7390  143.6130 C   0  0  1  0  0  3  0  0  0  0  0  0
  188.2740  176.7050  144.4210 C   0  0  1  0  0  0  0  0  0  0  0  0
  189.3870  173.2770  140.9490 C   0  0  0  0  0  3  0  0  0  0  0  0
  189.1730  175.2040  146.4200 C   0  0  0  0  0  2  0  0  0  0  0  0
  189.6250  176.3880  143.9380 C   0  0  2  0  0  0  0  0  0  0  0  0
  188.5260  177.9220  142.1690 C   0  0  0  0  0  2  0  0  0  0  0  0
  187.2870  176.6180  146.8590 C   0  0  0  0  0  0  0  0  0  0  0  0
  185.4000  177.9850  147.4580 C   0  0  0  0  0  3  0  0  0  0  0  0
  186.3220  178.8240  144.0850 N   0  0  0  0  0  2  0  0  0  0  0  0
  189.2140  175.8280  145.2700 C   0  0  1  0  0  3  0  0  0  0  0  0
  186.4700  178.3530  145.2680 C   0  0  0  0  0  0  0  0  0  0  0  0
  188.0080  176.7000  141.5650 N   0  0  0  0  0  0  0  0  0  0  0  0
  189.5570  175.3250  142.8590 C   0  0  0  0  0  0  0  0  0  0  0  0
  188.6400  174.4450  140.7890 C   0  0  0  0  0  3  0  0  0  0  0  0
  190.3140  174.1540  143.0020 C   0  0  0  0  0  3  0  0  0  0  0  0
  188.7340  175.4780  141.7300 C   0  0  0  0  0  0  0  0  0  0  0  0
  187.6750  177.5100  145.6360 C   0  0  2  0  0  3  0  0  0  0  0  0
  185.7010  178.9870  146.3840 C   0  0  0  0  0  2  0  0  0  0  0  0
  190.2380  173.1250  142.0510 C   0  0  0  0  0  0  0  0  0  0  0  0
  191.0100  171.9230  142.2040 N   0  0  0  0  0  0  0  0  0  0  0  0
  191.9080  171.7350  143.3330 C   0  0  0  0  0  1  0  0  0  0  0  0
  190.9140  170.9330  141.2850 O   0  0  0  0  0  1  0  0  0  0  0  0
  186.7240  176.7510  140.8770 C   0  0  0  0  0  2  0  0  0  0  0  0
  186.2640  178.1890  140.7290 C   0  0  0  0  0  2  0  0  0  0  0  0
  184.8530  178.2110  140.1810 C   0  0  0  0  0  2  0  0  0  0  0  0
  183.8680  178.2140  141.3290 C   0  0  0  0  0  2  0  0  0  0  0  0
  182.4700  177.9630  140.7960 C   0  0  0  0  0  2  0  0  0  0  0  0
  181.4290  178.5530  141.7340 C   0  0  0  0  0  2  0  0  0  0  0  0
  179.1340  178.0410  142.1290 O   0  0  0  0  0  1  0  0  0  0  0  0
  180.0510  178.2050  141.2830 C   0  0  0  0  0  0  0  0  0  0  0  0
  179.7860  178.0280  139.9330 O   0  0  0  0  0  0  0  0  0  0  0  0
  3  8  1  6  0  0  0
  3  7  1  0  0  0  0
  3  4  1  0  0  0  0
  4 12  1  0  0  0  0
  4 19  1  0  0  0  0
  5 21  1  0  0  0  0
  6  1  1  0  0  0  0
  7  4  1  0  0  0  0
  7 12  1  0  0  0  0
  9  1  2  0  0  0  0
  9  2  1  0  0  0  0
 10  2  2  0  0  0  0
 11 13  2  0  0  0  0
 12  6  1  0  0  0  0
 13 19  1  0  0  0  0
 13 20  1  0  0  0  0
 14 18  1  0  0  0  0
 14  8  1  0  0  0  0
 15 17  1  0  0  0  0
 15  7  1  0  0  0  0
 16  5  2  0  0  0  0
 16 18  1  0  0  0  0
 18 15  2  0  0  0  0
 19  9  1  0  0  0  0
 20 10  1  0  0  0  0
 21 22  1  0  0  0  0
 21 17  2  0  0  0  0
 22 23  1  0  0  0  0
 24 22  1  0  0  0  0
 25 14  1  0  0  0  0
 26 25  1  0  0  0  0
 27 26  1  0  0  0  0
 27 28  1  0  0  0  0
 29 28  1  0  0  0  0
 29 30  1  0  0  0  0
 32 30  1  0  0  0  0
 32 31  1  0  0  0  0
 33 32  2  0  0  0  0
M  END
>  <MODEL>
8

>  <REMARK>
 VINA RESULT:      -6.7      3.549      6.331
  Name = 
  8 active torsions:
  status: ('A' for Active; 'I' for Inactive)
    1  A    between atoms: C_6  and  C_17
    2  A    between atoms: C_6  and  C_26
    3  A    between atoms: C_13  and  C_22
    4  A    between atoms: C_13  and  C_29
    5  A    between atoms: C_17  and  C_22
    6  A    between atoms: N_18  and  C_30
    7  A    between atoms: N_20  and  C_33
    8  A    between atoms: C_26  and  C_30
                            x       y       z     vdW  Elec       q    Type
                         _______ _______ _______ _____ _____    ______ ____

>  <TORSDO>
F 8

$$$$
=
 OpenBabel11042415043D

 33 38  0  0  1  0  0  0  0  0999 V2000
  187.8780  173.8520  141.6180 N   0  0  0  0  0  0  0  0  0  0  0  0
  189.5840  172.2130  141.5710 N   0  0  0  0  0  0  0  0  0  0  0  0
  190.4360  176.8650  143.3240 C   0  0  1  0  0  3  0  0  0  0  0  0
  189.5170  175.6540  143.3760 C   0  0  1  0  0  0  0  0  0  0  0  0
  186.8710  177.9140  146.9730 C   0  0  0  0  0  3  0  0  0  0  0  0
  187.3740  175.1700  141.8830 C   0  0  0  0  0  2  0  0  0  0  0  0
  188.9350  177.0010  143.2880 C   0  0  2  0  0  0  0  0  0  0  0  0
  191.1130  177.2020  144.6690 C   0  0  0  0  0  2  0  0  0  0  0  0
  189.1380  173.5480  141.8450 C   0  0  0  0  0  0  0  0  0  0  0  0
  190.8210  171.8340  141.6940 C   0  0  0  0  0  3  0  0  0  0  0  0
  192.1410  174.4750  143.7470 N   0  0  0  0  0  2  0  0  0  0  0  0
  188.2170  175.8870  142.5820 C   0  0  1  0  0  3  0  0  0  0  0  0
  191.3730  173.9230  142.8820 C   0  0  0  0  0  0  0  0  0  0  0  0
  190.2910  176.9070  145.8370 N   0  0  0  0  0  0  0  0  0  0  0  0
  188.2400  177.3540  144.5890 C   0  0  0  0  0  0  0  0  0  0  0  0
  188.2120  177.5290  147.0120 C   0  0  0  0  0  3  0  0  0  0  0  0
  186.8970  177.7560  144.5610 C   0  0  0  0  0  3  0  0  0  0  0  0
  188.9060  177.2650  145.8230 C   0  0  0  0  0  0  0  0  0  0  0  0
  190.1420  174.6320  142.3530 C   0  0  2  0  0  3  0  0  0  0  0  0
  191.9160  172.7840  142.0780 C   0  0  0  0  0  2  0  0  0  0  0  0
  186.2040  178.0410  145.7480 C   0  0  0  0  0  0  0  0  0  0  0  0
  184.8260  178.4460  145.7170 N   0  0  0  0  0  0  0  0  0  0  0  0
  184.1980  178.9070  144.4880 C   0  0  0  0  0  1  0  0  0  0  0  0
  184.0810  178.4070  146.8470 O   0  0  0  0  0  1  0  0  0  0  0  0
  190.8930  176.1870  146.9520 C   0  0  0  0  0  2  0  0  0  0  0  0
  192.2170  176.8220  147.3340 C   0  0  0  0  0  2  0  0  0  0  0  0
  193.3530  175.9700  146.8110 C   0  0  0  0  0  2  0  0  0  0  0  0
  194.3880  176.8580  146.1560 C   0  0  0  0  0  2  0  0  0  0  0  0
  195.2220  176.0360  145.1910 C   0  0  0  0  0  2  0  0  0  0  0  0
  195.3220  174.5950  145.6660 C   0  0  0  0  0  2  0  0  0  0  0  0
  197.4960  174.5260  144.6880 O   0  0  0  0  0  0  0  0  0  0  0  0
  196.7300  174.1100  145.5960 C   0  0  0  0  0  0  0  0  0  0  0  0
  197.1880  173.1730  146.5120 O   0  0  0  0  0  1  0  0  0  0  0  0
  1  9  2  0  0  0  0
  1  6  1  0  0  0  0
  2 10  2  0  0  0  0
  2  9  1  0  0  0  0
  3  4  1  0  0  0  0
  3  8  1  1  0  0  0
  5 16  1  0  0  0  0
  6 12  1  0  0  0  0
  7  3  1  0  0  0  0
  7  4  1  0  0  0  0
  7 15  1  0  0  0  0
  8 14  1  0  0  0  0
  9 19  1  0  0  0  0
 10 20  1  0  0  0  0
 12  7  1  0  0  0  0
 12  4  1  0  0  0  0
 13 11  2  0  0  0  0
 14 25  1  0  0  0  0
 15 18  1  0  0  0  0
 17 15  2  0  0  0  0
 17 21  1  0  0  0  0
 18 14  1  0  0  0  0
 18 16  2  0  0  0  0
 19 13  1  0  0  0  0
 19  4  1  0  0  0  0
 20 13  1  0  0  0  0
 21  5  2  0  0  0  0
 22 21  1  0  0  0  0
 22 24  1  0  0  0  0
 23 22  1  0  0  0  0
 25 26  1  0  0  0  0
 27 26  1  0  0  0  0
 28 27  1  0  0  0  0
 29 30  1  0  0  0  0
 29 28  1  0  0  0  0
 31 32  2  0  0  0  0
 32 30  1  0  0  0  0
 32 33  1  0  0  0  0
M  END
>  <MODEL>
9

>  <REMARK>
 VINA RESULT:      -6.5      2.541      6.521
  Name = 
  8 active torsions:
  status: ('A' for Active; 'I' for Inactive)
    1  A    between atoms: C_6  and  C_17
    2  A    between atoms: C_6  and  C_26
    3  A    between atoms: C_13  and  C_22
    4  A    between atoms: C_13  and  C_29
    5  A    between atoms: C_17  and  C_22
    6  A    between atoms: N_18  and  C_30
    7  A    between atoms: N_20  and  C_33
    8  A    between atoms: C_26  and  C_30
                            x       y       z     vdW  Elec       q    Type
                         _______ _______ _______ _____ _____    ______ ____

>  <TORSDO>
F 8

$$$$
