=
 OpenBabel11042417253D

 56 64  0  0  1  0  0  0  0  0999 V2000
  185.0100  178.3930  142.3770 C   0  0  1  0  0  3  0  0  0  0  0  0
  188.1220  174.2490  139.9000 C   0  0  2  0  0  3  0  0  0  0  0  0
  187.9820  176.8200  144.5080 C   0  0  1  0  0  3  0  0  0  0  0  0
  188.4690  175.0890  143.0390 C   0  0  2  0  0  3  0  0  0  0  0  0
  188.9970  176.2190  143.7070 O   0  0  0  0  0  0  0  0  0  0  0  0
  188.9740  172.4700  142.1830 S   0  0  0  0  0  0  0  0  0  0  0  0
  189.5990  174.1180  142.6810 C   0  0  0  0  0  2  0  0  0  0  0  0
  185.7730  178.5120  144.0450 S   0  0  0  0  0  0  0  0  0  0  0  0
  187.4790  175.5190  141.9030 C   0  0  1  0  0  3  0  0  0  0  0  0
  186.8610  176.8650  142.2770 C   0  0  2  0  0  3  0  0  0  0  0  0
  186.6360  176.9460  143.7630 C   0  0  1  0  0  3  0  0  0  0  0  0
  189.6780  172.4720  140.4640 C   0  0  1  0  0  3  0  0  0  0  0  0
  189.5920  173.8860  139.8890 C   0  0  1  0  0  3  0  0  0  0  0  0
  188.8470  174.0870  138.5860 C   0  0  0  0  0  2  0  0  0  0  0  0
  185.5240  177.1540  141.6520 C   0  0  0  0  0  2  0  0  0  0  0  0
  188.0860  175.6320  140.5020 C   0  0  0  0  0  2  0  0  0  0  0  0
  186.0360  176.7710  147.2340 O   0  0  0  0  0  0  0  0  0  0  0  0
  189.9550  176.5380  147.2230 N   0  0  0  0  0  0  0  0  0  0  0  0
  187.9460  178.1280  147.4590 C   0  0  0  0  0  2  0  0  0  0  0  0
  189.3720  177.7530  147.7490 C   0  0  0  0  0  0  0  0  0  0  0  0
  189.6090  174.4440  146.0550 C   0  0  0  0  0  2  0  0  0  0  0  0
  187.8310  176.0950  145.8610 C   0  0  2  0  0  3  0  0  0  0  0  0
  190.1040  178.6200  148.4380 C   0  0  0  0  0  2  0  0  0  0  0  0
  187.1870  176.9770  146.8860 C   0  0  0  0  0  0  0  0  0  0  0  0
  189.1650  175.6540  146.3920 C   0  0  0  0  0  0  0  0  0  0  0  0
  191.3180  176.1580  147.6060 C   0  0  0  0  0  2  0  0  0  0  0  0
  192.2790  176.4450  146.4640 C   0  0  0  0  0  1  0  0  0  0  0  0
  191.1510  172.0070  140.4700 C   0  0  1  0  0  3  0  0  0  0  0  0
  192.8160  170.4230  141.2970 C   0  0  2  0  0  3  0  0  0  0  0  0
  191.6460  171.3080  141.7590 C   0  0  2  0  0  3  0  0  0  0  0  0
  192.5060  170.2130  139.8650 C   0  0  0  0  0  0  0  0  0  0  0  0
  190.6260  170.5100  142.2970 O   0  0  0  0  0  1  0  0  0  0  0  0
  191.5110  171.0990  139.3830 N   0  0  0  0  0  0  0  0  0  0  0  0
  193.0660  169.3440  139.1460 O   0  0  0  0  0  0  0  0  0  0  0  0
  191.2170  171.6750  137.0310 C   0  0  0  0  0  1  0  0  0  0  0  0
  190.7200  170.8250  138.1850 C   0  0  0  0  0  2  0  0  0  0  0  0
  192.8470  169.2050  141.9850 O   0  0  0  0  0  0  0  0  0  0  0  0
  194.6860  170.7350  143.0370 O   0  0  0  0  0  0  0  0  0  0  0  0
  195.1100  168.1660  143.2200 O   0  0  0  0  0  1  0  0  0  0  0  0
  193.1720  169.4370  144.7270 O   0  0  0  0  0  1  0  0  0  0  0  0
  193.9730  169.4190  143.2360 P   0  0  0  0  0  0  0  0  0  0  0  0
  183.4860  178.4320  142.4360 C   0  0  0  0  0  2  0  0  0  0  0  0
  182.8510  178.3270  141.0570 C   0  0  0  0  0  2  0  0  0  0  0  0
  181.6400  177.5910  141.1480 O   0  0  0  0  0  0  0  0  0  0  0  0
  178.7610  179.9910  141.6250 N   0  0  1  0  0  0  0  0  0  0  0  0
  178.4310  176.9090  142.7900 C   0  0  0  0  0  1  0  0  0  0  0  0
  180.3910  178.1790  140.9420 C   0  0  0  0  0  0  0  0  0  0  0  0
  178.3520  179.9280  140.2100 C   0  0  0  0  0  2  0  0  0  0  0  0
  177.8370  179.1980  142.4410 C   0  0  2  0  0  3  0  0  0  0  0  0
  179.7300  177.9580  139.8450 N   0  0  0  0  0  0  0  0  0  0  0  0
  179.8260  179.0690  142.0320 C   0  0  2  0  0  3  0  0  0  0  0  0
  178.1370  179.2740  143.9400 C   0  0  0  0  0  0  0  0  0  0  0  0
  178.4070  178.5170  139.6310 C   0  0  2  0  0  3  0  0  0  0  0  0
  178.8780  178.3520  142.9710 C   0  0  2  0  0  0  0  0  0  0  0  0
  178.1300  178.5480  138.2780 F   0  0  0  0  0  0  0  0  0  0  0  0
  177.9470  179.7360  145.0540 O   0  0  0  0  0  0  0  0  0  0  0  0
  1 42  1  1  0  0  0
  1  8  1  0  0  0  0
  2 14  1  6  0  0  0
  2 16  1  0  0  0  0
  3  5  1  6  0  0  0
  3 22  1  0  0  0  0
  4  7  1  6  0  0  0
  4  5  1  0  0  0  0
  6  7  1  0  0  0  0
  9 16  1  6  0  0  0
  9 10  1  0  0  0  0
  9  4  1  0  0  0  0
 10 15  1  6  0  0  0
 10 11  1  0  0  0  0
 11  8  1  6  0  0  0
 11  3  1  0  0  0  0
 12 28  1  0  0  0  0
 12  6  1  1  0  0  0
 13 14  1  6  0  0  0
 13  2  1  0  0  0  0
 13 12  1  0  0  0  0
 15  1  1  0  0  0  0
 18 26  1  0  0  0  0
 18 20  1  0  0  0  0
 19 20  1  0  0  0  0
 20 23  2  0  0  0  0
 21 25  2  0  0  0  0
 22 25  1  1  0  0  0
 22 24  1  0  0  0  0
 24 17  2  0  0  0  0
 24 19  1  0  0  0  0
 25 18  1  0  0  0  0
 27 26  1  0  0  0  0
 28 33  1  6  0  0  0
 28 30  1  0  0  0  0
 29 30  1  0  0  0  0
 29 37  1  1  0  0  0
 30 32  1  6  0  0  0
 31 29  1  0  0  0  0
 33 31  1  0  0  0  0
 34 31  2  0  0  0  0
 35 36  1  0  0  0  0
 36 33  1  0  0  0  0
 37 41  1  0  0  0  0
 38 41  2  0  0  0  0
 39 41  1  0  0  0  0
 41 40  1  0  0  0  0
 43 44  1  0  0  0  0
 43 42  1  0  0  0  0
 45 48  1  6  0  0  0
 45 51  1  0  0  0  0
 45 49  1  0  0  0  0
 47 44  1  0  0  0  0
 49 54  1  0  0  0  0
 49 52  1  1  0  0  0
 50 47  2  0  0  0  0
 51 47  1  6  0  0  0
 51 54  1  0  0  0  0
 52 56  2  0  0  0  0
 53 55  1  6  0  0  0
 53 50  1  0  0  0  0
 53 48  1  0  0  0  0
 54 46  1  1  0  0  0
 54 52  1  0  0  0  0
M  END
>  <MODEL>
1

>  <REMARK>
 VINA RESULT:      -8.0      0.000      0.000
  Name = 
  10 active torsions:
  status: ('A' for Active; 'I' for Inactive)
    1  A    between atoms: C_1  and  C_54
    2  A    between atoms: C_4  and  C_44
    3  A    between atoms: C_5  and  C_34
    4  A    between atoms: N_11  and  C_19
    5  A    between atoms: C_13  and  O_23
    6  A    between atoms: C_17  and  N_55
    7  A    between atoms: C_18  and  O_25
    8  A    between atoms: O_23  and  C_40
    9  A    between atoms: O_25  and  P_41
   10  A    between atoms: C_40  and  C_54
                            x       y       z     vdW  Elec       q    Type
                         _______ _______ _______ _____ _____    ______ ____

>  <TORSDO>
F 10

$$$$
=
 OpenBabel11042417253D

 56 64  0  0  1  0  0  0  0  0999 V2000
  189.2180  176.2160  145.1920 C   0  0  1  0  0  3  0  0  0  0  0  0
  189.4780  172.8190  140.5670 C   0  0  2  0  0  3  0  0  0  0  0  0
  192.8240  175.4480  143.6910 C   0  0  1  0  0  3  0  0  0  0  0  0
  192.1380  173.8260  142.1780 C   0  0  2  0  0  3  0  0  0  0  0  0
  192.7970  175.0700  142.3170 O   0  0  0  0  0  0  0  0  0  0  0  0
  192.1090  171.3670  140.8370 S   0  0  0  0  0  0  0  0  0  0  0  0
  192.5980  173.1310  140.8930 C   0  0  0  0  0  2  0  0  0  0  0  0
  190.9910  176.5650  145.5210 S   0  0  0  0  0  0  0  0  0  0  0  0
  190.5970  173.9760  142.4250 C   0  0  1  0  0  3  0  0  0  0  0  0
  190.3660  175.1540  143.3670 C   0  0  2  0  0  3  0  0  0  0  0  0
  191.4650  175.2330  144.3920 C   0  0  1  0  0  3  0  0  0  0  0  0
  191.0590  171.4720  139.3080 C   0  0  1  0  0  3  0  0  0  0  0  0
  190.3130  172.8060  139.3030 C   0  0  1  0  0  3  0  0  0  0  0  0
  188.8010  172.7840  139.2170 C   0  0  0  0  0  2  0  0  0  0  0  0
  189.0850  175.1050  144.1560 C   0  0  0  0  0  2  0  0  0  0  0  0
  189.7410  174.1770  141.1700 C   0  0  0  0  0  2  0  0  0  0  0  0
  194.5530  175.6340  146.5540 O   0  0  0  0  0  0  0  0  0  0  0  0
  196.0870  174.9770  143.0000 N   0  0  0  0  0  0  0  0  0  0  0  0
  195.5640  176.7780  144.7620 C   0  0  0  0  0  2  0  0  0  0  0  0
  196.3810  176.2530  143.6160 C   0  0  0  0  0  0  0  0  0  0  0  0
  194.8040  172.9230  143.0670 C   0  0  0  0  0  2  0  0  0  0  0  0
  193.9800  174.7550  144.4410 C   0  0  2  0  0  3  0  0  0  0  0  0
  197.3330  177.0410  143.1330 C   0  0  0  0  0  2  0  0  0  0  0  0
  194.6970  175.7110  145.3450 C   0  0  0  0  0  0  0  0  0  0  0  0
  194.9800  174.1760  143.4810 C   0  0  0  0  0  0  0  0  0  0  0  0
  196.9640  174.4550  141.9490 C   0  0  0  0  0  2  0  0  0  0  0  0
  196.4760  174.9170  140.5860 C   0  0  0  0  0  1  0  0  0  0  0  0
  191.9250  171.3600  138.0340 C   0  0  1  0  0  3  0  0  0  0  0  0
  193.5080  170.0450  136.7190 C   0  0  2  0  0  3  0  0  0  0  0  0
  193.2170  170.5170  138.1540 C   0  0  2  0  0  3  0  0  0  0  0  0
  192.1690  170.1010  136.0920 C   0  0  0  0  0  0  0  0  0  0  0  0
  192.9960  169.4100  138.9860 O   0  0  0  0  0  1  0  0  0  0  0  0
  191.2300  170.8260  136.8650 N   0  0  0  0  0  0  0  0  0  0  0  0
  191.8890  169.5660  134.9860 O   0  0  0  0  0  0  0  0  0  0  0  0
  189.2730  171.5500  135.6010 C   0  0  0  0  0  1  0  0  0  0  0  0
  189.7850  170.6600  136.7180 C   0  0  0  0  0  2  0  0  0  0  0  0
  194.0180  168.7420  136.6960 O   0  0  0  0  0  0  0  0  0  0  0  0
  195.6560  168.1750  134.7410 O   0  0  0  0  0  0  0  0  0  0  0  0
  196.7020  168.1690  137.1320 O   0  0  0  0  0  1  0  0  0  0  0  0
  195.9770  170.5140  135.8610 O   0  0  0  0  0  1  0  0  0  0  0  0
  195.5890  168.8800  136.0740 P   0  0  0  0  0  0  0  0  0  0  0  0
  188.4450  175.9030  146.4700 C   0  0  0  0  0  2  0  0  0  0  0  0
  187.1340  176.6720  146.5550 C   0  0  0  0  0  2  0  0  0  0  0  0
  186.2850  176.2790  145.4850 O   0  0  0  0  0  0  0  0  0  0  0  0
  184.7980  177.5810  142.2650 N   0  0  1  0  0  0  0  0  0  0  0  0
  187.9840  178.2310  142.8850 C   0  0  0  0  0  1  0  0  0  0  0  0
  185.7600  177.1970  144.5750 C   0  0  0  0  0  0  0  0  0  0  0  0
  184.0340  178.6470  142.9390 C   0  0  0  0  0  2  0  0  0  0  0  0
  185.9700  178.1570  141.6010 C   0  0  2  0  0  3  0  0  0  0  0  0
  185.3260  178.3540  144.9790 N   0  0  0  0  0  0  0  0  0  0  0  0
  185.7210  176.8130  143.1080 C   0  0  2  0  0  3  0  0  0  0  0  0
  186.7780  177.1310  140.8020 C   0  0  0  0  0  0  0  0  0  0  0  0
  184.8250  179.3440  144.0430 C   0  0  2  0  0  3  0  0  0  0  0  0
  186.9050  177.3240  142.3140 C   0  0  2  0  0  0  0  0  0  0  0  0
  184.0150  180.2440  144.7100 F   0  0  0  0  0  0  0  0  0  0  0  0
  187.0760  176.5710  139.7590 O   0  0  0  0  0  0  0  0  0  0  0  0
  1  8  1  0  0  0  0
  1 42  1  1  0  0  0
  2 14  1  6  0  0  0
  2 16  1  0  0  0  0
  3  5  1  6  0  0  0
  3 11  1  0  0  0  0
  3 22  1  0  0  0  0
  4  7  1  6  0  0  0
  4  5  1  0  0  0  0
  4  9  1  0  0  0  0
  6  7  1  0  0  0  0
  9 16  1  6  0  0  0
  9 10  1  0  0  0  0
 10 15  1  1  0  0  0
 10 11  1  0  0  0  0
 11  8  1  1  0  0  0
 12  6  1  1  0  0  0
 13 14  1  6  0  0  0
 13 12  1  0  0  0  0
 13  2  1  0  0  0  0
 15  1  1  0  0  0  0
 18 25  1  0  0  0  0
 18 20  1  0  0  0  0
 19 24  1  0  0  0  0
 20 19  1  0  0  0  0
 21 25  2  0  0  0  0
 22 25  1  6  0  0  0
 22 24  1  0  0  0  0
 23 20  2  0  0  0  0
 24 17  2  0  0  0  0
 26 18  1  0  0  0  0
 27 26  1  0  0  0  0
 28 33  1  6  0  0  0
 28 30  1  0  0  0  0
 28 12  1  0  0  0  0
 29 37  1  1  0  0  0
 29 30  1  0  0  0  0
 30 32  1  1  0  0  0
 31 29  1  0  0  0  0
 31 33  1  0  0  0  0
 34 31  2  0  0  0  0
 35 36  1  0  0  0  0
 36 33  1  0  0  0  0
 38 41  2  0  0  0  0
 40 41  1  0  0  0  0
 41 37  1  0  0  0  0
 41 39  1  0  0  0  0
 42 43  1  0  0  0  0
 44 43  1  0  0  0  0
 45 48  1  1  0  0  0
 45 51  1  0  0  0  0
 47 50  2  0  0  0  0
 47 44  1  0  0  0  0
 48 53  1  0  0  0  0
 49 52  1  6  0  0  0
 49 45  1  0  0  0  0
 49 54  1  0  0  0  0
 51 47  1  1  0  0  0
 52 54  1  0  0  0  0
 53 55  1  1  0  0  0
 53 50  1  0  0  0  0
 54 46  1  1  0  0  0
 54 51  1  0  0  0  0
 56 52  2  0  0  0  0
M  END
>  <MODEL>
2

>  <REMARK>
 VINA RESULT:      -7.8      3.952      6.331
  Name = 
  10 active torsions:
  status: ('A' for Active; 'I' for Inactive)
    1  A    between atoms: C_1  and  C_54
    2  A    between atoms: C_4  and  C_44
    3  A    between atoms: C_5  and  C_34
    4  A    between atoms: N_11  and  C_19
    5  A    between atoms: C_13  and  O_23
    6  A    between atoms: C_17  and  N_55
    7  A    between atoms: C_18  and  O_25
    8  A    between atoms: O_23  and  C_40
    9  A    between atoms: O_25  and  P_41
   10  A    between atoms: C_40  and  C_54
                            x       y       z     vdW  Elec       q    Type
                         _______ _______ _______ _____ _____    ______ ____

>  <TORSDO>
F 10

$$$$
=
 OpenBabel11042417253D

 56 64  0  0  1  0  0  0  0  0999 V2000
  194.4020  169.6000  140.4030 C   0  0  1  0  0  3  0  0  0  0  0  0
  190.4410  173.7090  141.0530 C   0  0  2  0  0  3  0  0  0  0  0  0
  193.1210  170.3320  144.1000 C   0  0  1  0  0  3  0  0  0  0  0  0
  191.9000  172.2380  143.5820 C   0  0  2  0  0  3  0  0  0  0  0  0
  191.8320  170.9410  144.1430 O   0  0  0  0  0  0  0  0  0  0  0  0
  191.0060  174.8850  143.7740 S   0  0  0  0  0  0  0  0  0  0  0  0
  190.7630  173.1050  144.1300 C   0  0  0  0  0  2  0  0  0  0  0  0
  194.6970  169.0630  142.1350 S   0  0  0  0  0  0  0  0  0  0  0  0
  192.0900  172.1680  142.0270 C   0  0  1  0  0  3  0  0  0  0  0  0
  192.8100  170.8670  141.6810 C   0  0  2  0  0  3  0  0  0  0  0  0
  193.8240  170.5290  142.7400 C   0  0  1  0  0  3  0  0  0  0  0  0
  189.4640  175.1260  142.7660 C   0  0  1  0  0  3  0  0  0  0  0  0
  189.2140  173.8740  141.9260 C   0  0  1  0  0  3  0  0  0  0  0  0
  189.1070  174.0280  140.4220 C   0  0  0  0  0  2  0  0  0  0  0  0
  193.5730  170.8790  140.3840 C   0  0  0  0  0  2  0  0  0  0  0  0
  190.8050  172.2520  141.1980 C   0  0  0  0  0  2  0  0  0  0  0  0
  194.5040  173.0960  145.3900 O   0  0  0  0  0  0  0  0  0  0  0  0
  196.2550  169.5950  145.0890 N   0  0  0  0  0  0  0  0  0  0  0  0
  195.9450  171.8910  143.9700 C   0  0  0  0  0  2  0  0  0  0  0  0
  196.7520  170.6520  144.2350 C   0  0  0  0  0  0  0  0  0  0  0  0
  194.5500  168.8530  146.6410 C   0  0  0  0  0  2  0  0  0  0  0  0
  194.0000  170.7940  145.2800 C   0  0  2  0  0  3  0  0  0  0  0  0
  197.9050  170.5250  143.5900 C   0  0  0  0  0  2  0  0  0  0  0  0
  194.8010  172.0090  144.9230 C   0  0  0  0  0  0  0  0  0  0  0  0
  194.9500  169.7120  145.7060 C   0  0  0  0  0  0  0  0  0  0  0  0
  197.1110  168.4460  145.4000 C   0  0  0  0  0  2  0  0  0  0  0  0
  197.7950  168.6540  146.7410 C   0  0  0  0  0  1  0  0  0  0  0  0
  188.2440  175.3870  143.6770 C   0  0  1  0  0  3  0  0  0  0  0  0
  187.1890  176.8010  145.3670 C   0  0  2  0  0  3  0  0  0  0  0  0
  188.5260  176.1270  145.0070 C   0  0  2  0  0  3  0  0  0  0  0  0
  186.5310  176.9190  144.0470 C   0  0  0  0  0  0  0  0  0  0  0  0
  189.5160  177.1010  144.8170 O   0  0  0  0  0  1  0  0  0  0  0  0
  187.1580  176.1350  143.0480 N   0  0  0  0  0  0  0  0  0  0  0  0
  185.5180  177.6350  143.8300 O   0  0  0  0  0  0  0  0  0  0  0  0
  187.7020  177.7020  141.2580 C   0  0  0  0  0  1  0  0  0  0  0  0
  187.0050  176.4030  141.6190 C   0  0  0  0  0  2  0  0  0  0  0  0
  187.3850  178.0610  145.9430 O   0  0  0  0  0  0  0  0  0  0  0  0
  186.3010  176.6700  147.8720 O   0  0  0  0  0  1  0  0  0  0  0  0
  184.8730  178.6610  146.9730 O   0  0  0  0  0  0  0  0  0  0  0  0
  187.1330  179.0630  148.5140 O   0  0  0  0  0  1  0  0  0  0  0  0
  186.4190  178.0770  147.3370 P   0  0  0  0  0  0  0  0  0  0  0  0
  195.7020  169.7480  139.6160 C   0  0  0  0  0  2  0  0  0  0  0  0
  195.8960  171.1600  139.0810 C   0  0  0  0  0  2  0  0  0  0  0  0
  196.6400  171.9230  140.0210 O   0  0  0  0  0  0  0  0  0  0  0  0
  197.5490  175.4600  140.9870 N   0  0  1  0  0  0  0  0  0  0  0  0
  194.3390  174.6670  140.8180 C   0  0  0  0  0  1  0  0  0  0  0  0
  196.8180  173.3010  139.8890 C   0  0  0  0  0  0  0  0  0  0  0  0
  197.9410  175.8340  139.6160 C   0  0  0  0  0  2  0  0  0  0  0  0
  196.2380  176.0360  141.3000 C   0  0  2  0  0  3  0  0  0  0  0  0
  196.8620  173.8510  138.7120 N   0  0  0  0  0  0  0  0  0  0  0  0
  196.9450  174.1340  141.1490 C   0  0  2  0  0  3  0  0  0  0  0  0
  195.7890  175.7680  142.7390 C   0  0  0  0  0  0  0  0  0  0  0  0
  196.9930  175.2880  138.5510 C   0  0  2  0  0  3  0  0  0  0  0  0
  195.6410  174.7580  141.6000 C   0  0  2  0  0  0  0  0  0  0  0  0
  197.4830  175.5710  137.2910 F   0  0  0  0  0  0  0  0  0  0  0  0
  195.6640  176.0990  143.9070 O   0  0  0  0  0  0  0  0  0  0  0  0
  1 42  1  1  0  0  0
  1  8  1  0  0  0  0
  2 14  1  6  0  0  0
  2 16  1  0  0  0  0
  2 13  1  0  0  0  0
  3  5  1  6  0  0  0
  3 22  1  0  0  0  0
  4  7  1  6  0  0  0
  4  5  1  0  0  0  0
  6  7  1  0  0  0  0
  9 16  1  6  0  0  0
  9  4  1  0  0  0  0
 10 15  1  6  0  0  0
 10  9  1  0  0  0  0
 10 11  1  0  0  0  0
 11  8  1  6  0  0  0
 11  3  1  0  0  0  0
 12 28  1  0  0  0  0
 12  6  1  1  0  0  0
 13 14  1  6  0  0  0
 13 12  1  0  0  0  0
 15  1  1  0  0  0  0
 18 26  1  0  0  0  0
 18 25  1  0  0  0  0
 19 20  1  0  0  0  0
 19 24  1  0  0  0  0
 20 18  1  0  0  0  0
 22 24  1  6  0  0  0
 22 25  1  0  0  0  0
 23 20  2  0  0  0  0
 24 17  2  0  0  0  0
 25 21  2  0  0  0  0
 26 27  1  0  0  0  0
 28 33  1  6  0  0  0
 28 30  1  0  0  0  0
 29 37  1  6  0  0  0
 30 32  1  6  0  0  0
 30 29  1  0  0  0  0
 31 29  1  0  0  0  0
 33 31  1  0  0  0  0
 34 31  2  0  0  0  0
 35 36  1  0  0  0  0
 36 33  1  0  0  0  0
 37 41  1  0  0  0  0
 39 41  2  0  0  0  0
 41 38  1  0  0  0  0
 41 40  1  0  0  0  0
 43 42  1  0  0  0  0
 43 44  1  0  0  0  0
 45 48  1  6  0  0  0
 45 51  1  0  0  0  0
 45 49  1  0  0  0  0
 47 44  1  0  0  0  0
 49 54  1  0  0  0  0
 49 52  1  1  0  0  0
 50 47  2  0  0  0  0
 51 47  1  6  0  0  0
 51 54  1  0  0  0  0
 52 56  2  0  0  0  0
 53 55  1  6  0  0  0
 53 50  1  0  0  0  0
 53 48  1  0  0  0  0
 54 46  1  6  0  0  0
 54 52  1  0  0  0  0
M  END
>  <MODEL>
3

>  <REMARK>
 VINA RESULT:      -7.8      5.482     11.951
  Name = 
  10 active torsions:
  status: ('A' for Active; 'I' for Inactive)
    1  A    between atoms: C_1  and  C_54
    2  A    between atoms: C_4  and  C_44
    3  A    between atoms: C_5  and  C_34
    4  A    between atoms: N_11  and  C_19
    5  A    between atoms: C_13  and  O_23
    6  A    between atoms: C_17  and  N_55
    7  A    between atoms: C_18  and  O_25
    8  A    between atoms: O_23  and  C_40
    9  A    between atoms: O_25  and  P_41
   10  A    between atoms: C_40  and  C_54
                            x       y       z     vdW  Elec       q    Type
                         _______ _______ _______ _____ _____    ______ ____

>  <TORSDO>
F 10

$$$$
=
 OpenBabel11042417253D

 56 64  0  0  1  0  0  0  0  0999 V2000
  196.0730  174.7390  145.1120 C   0  0  1  0  0  3  0  0  0  0  0  0
  190.6710  176.5630  145.8100 C   0  0  2  0  0  3  0  0  0  0  0  0
  194.0100  175.6370  141.8270 C   0  0  1  0  0  3  0  0  0  0  0  0
  191.9570  175.9150  142.8760 C   0  0  2  0  0  3  0  0  0  0  0  0
  192.9320  176.5400  142.0640 O   0  0  0  0  0  0  0  0  0  0  0  0
  189.2160  175.5890  143.3530 S   0  0  0  0  0  0  0  0  0  0  0  0
  190.5930  176.5770  142.6590 C   0  0  0  0  0  2  0  0  0  0  0  0
  196.2490  174.7290  143.2830 S   0  0  0  0  0  0  0  0  0  0  0  0
  192.4710  175.7500  144.3470 C   0  0  1  0  0  3  0  0  0  0  0  0
  193.9950  175.6530  144.3240 C   0  0  2  0  0  3  0  0  0  0  0  0
  194.4560  174.8970  143.1070 C   0  0  1  0  0  3  0  0  0  0  0  0
  188.6100  176.8640  144.5610 C   0  0  1  0  0  3  0  0  0  0  0  0
  189.8090  177.6140  145.1410 C   0  0  1  0  0  3  0  0  0  0  0  0
  189.9920  177.6220  146.6450 C   0  0  0  0  0  2  0  0  0  0  0  0
  194.6110  174.9400  145.4970 C   0  0  0  0  0  2  0  0  0  0  0  0
  192.0660  176.8620  145.3200 C   0  0  0  0  0  2  0  0  0  0  0  0
  192.6610  172.6220  141.2750 O   0  0  0  0  0  0  0  0  0  0  0  0
  195.8900  174.0300  139.5410 N   0  0  0  0  0  0  0  0  0  0  0  0
  195.0060  172.5860  141.4790 C   0  0  0  0  0  2  0  0  0  0  0  0
  196.0700  172.9440  140.4810 C   0  0  0  0  0  0  0  0  0  0  0  0
  194.3930  175.6750  138.5810 C   0  0  0  0  0  2  0  0  0  0  0  0
  193.6830  174.6630  140.6780 C   0  0  2  0  0  3  0  0  0  0  0  0
  197.2180  172.2820  140.5480 C   0  0  0  0  0  2  0  0  0  0  0  0
  193.7050  173.2390  141.1440 C   0  0  0  0  0  0  0  0  0  0  0  0
  194.6660  174.8030  139.5500 C   0  0  0  0  0  0  0  0  0  0  0  0
  196.9100  174.2880  138.5210 C   0  0  0  0  0  2  0  0  0  0  0  0
  197.8790  175.3510  139.0100 C   0  0  0  0  0  1  0  0  0  0  0  0
  187.6570  177.8670  143.8750 C   0  0  1  0  0  3  0  0  0  0  0  0
  185.6660  178.2230  142.5060 C   0  0  2  0  0  3  0  0  0  0  0  0
  186.9440  177.3700  142.5940 C   0  0  2  0  0  3  0  0  0  0  0  0
  185.4550  178.6210  143.9150 C   0  0  0  0  0  0  0  0  0  0  0  0
  186.6070  176.0160  142.7230 O   0  0  0  0  0  1  0  0  0  0  0  0
  186.5900  178.3820  144.7290 N   0  0  0  0  0  0  0  0  0  0  0  0
  184.3860  179.1240  144.3500 O   0  0  0  0  0  0  0  0  0  0  0  0
  186.1930  176.8260  146.5660 C   0  0  0  0  0  1  0  0  0  0  0  0
  186.5100  178.2600  146.1830 C   0  0  0  0  0  2  0  0  0  0  0  0
  184.5800  177.4790  142.0290 O   0  0  0  0  0  0  0  0  0  0  0  0
  184.5110  179.4850  140.3540 O   0  0  0  0  0  1  0  0  0  0  0  0
  182.8030  177.5650  139.8930 O   0  0  0  0  0  1  0  0  0  0  0  0
  185.5110  177.2540  139.4290 O   0  0  0  0  0  0  0  0  0  0  0  0
  184.3540  177.9850  140.4260 P   0  0  0  0  0  0  0  0  0  0  0  0
  196.6700  173.4910  145.7550 C   0  0  0  0  0  2  0  0  0  0  0  0
  197.1590  172.4860  144.7220 C   0  0  0  0  0  2  0  0  0  0  0  0
  197.3320  171.2190  145.3400 O   0  0  0  0  0  0  0  0  0  0  0  0
  194.6580  168.5960  144.8470 N   0  0  1  0  0  0  0  0  0  0  0  0
  193.7350  171.7750  144.8810 C   0  0  0  0  0  1  0  0  0  0  0  0
  196.2560  170.3860  145.6510 C   0  0  0  0  0  0  0  0  0  0  0  0
  194.6810  168.1710  146.2580 C   0  0  0  0  0  2  0  0  0  0  0  0
  193.4700  169.4170  144.5980 C   0  0  2  0  0  3  0  0  0  0  0  0
  195.9320  170.1600  146.8890 N   0  0  0  0  0  0  0  0  0  0  0  0
  195.4720  169.7680  144.5090 C   0  0  2  0  0  3  0  0  0  0  0  0
  193.3200  169.8330  143.1320 C   0  0  0  0  0  0  0  0  0  0  0  0
  194.7840  169.3410  147.2350 C   0  0  2  0  0  3  0  0  0  0  0  0
  194.2310  170.5490  144.1300 C   0  0  2  0  0  0  0  0  0  0  0  0
  194.9220  168.8690  148.5260 F   0  0  0  0  0  0  0  0  0  0  0  0
  192.8490  169.6900  142.0140 O   0  0  0  0  0  0  0  0  0  0  0  0
  1 15  1  0  0  0  0
  1 42  1  6  0  0  0
  2 16  1  6  0  0  0
  2 14  1  0  0  0  0
  3  5  1  1  0  0  0
  3 11  1  0  0  0  0
  4  7  1  1  0  0  0
  4  9  1  0  0  0  0
  5  4  1  0  0  0  0
  7  6  1  0  0  0  0
  8  1  1  0  0  0  0
  9 16  1  1  0  0  0
 10  9  1  0  0  0  0
 10 15  1  1  0  0  0
 11  8  1  1  0  0  0
 11 10  1  0  0  0  0
 12  6  1  6  0  0  0
 12 13  1  0  0  0  0
 13  2  1  0  0  0  0
 13 14  1  1  0  0  0
 18 25  1  0  0  0  0
 18 20  1  0  0  0  0
 20 23  2  0  0  0  0
 20 19  1  0  0  0  0
 21 25  2  0  0  0  0
 22 25  1  6  0  0  0
 22 24  1  0  0  0  0
 22  3  1  0  0  0  0
 24 17  2  0  0  0  0
 24 19  1  0  0  0  0
 26 27  1  0  0  0  0
 26 18  1  0  0  0  0
 28 12  1  0  0  0  0
 28 33  1  1  0  0  0
 29 37  1  1  0  0  0
 29 30  1  0  0  0  0
 29 31  1  0  0  0  0
 30 32  1  1  0  0  0
 30 28  1  0  0  0  0
 31 34  2  0  0  0  0
 31 33  1  0  0  0  0
 33 36  1  0  0  0  0
 36 35  1  0  0  0  0
 38 41  1  0  0  0  0
 39 41  1  0  0  0  0
 40 41  2  0  0  0  0
 41 37  1  0  0  0  0
 43 44  1  0  0  0  0
 43 42  1  0  0  0  0
 44 47  1  0  0  0  0
 45 48  1  1  0  0  0
 47 50  2  0  0  0  0
 48 53  1  0  0  0  0
 49 52  1  6  0  0  0
 49 45  1  0  0  0  0
 50 53  1  0  0  0  0
 51 45  1  0  0  0  0
 51 47  1  1  0  0  0
 52 54  1  0  0  0  0
 53 55  1  1  0  0  0
 54 51  1  0  0  0  0
 54 49  1  0  0  0  0
 54 46  1  1  0  0  0
 56 52  2  0  0  0  0
M  END
>  <MODEL>
4

>  <REMARK>
 VINA RESULT:      -7.6      5.371     12.647
  Name = 
  10 active torsions:
  status: ('A' for Active; 'I' for Inactive)
    1  A    between atoms: C_1  and  C_54
    2  A    between atoms: C_4  and  C_44
    3  A    between atoms: C_5  and  C_34
    4  A    between atoms: N_11  and  C_19
    5  A    between atoms: C_13  and  O_23
    6  A    between atoms: C_17  and  N_55
    7  A    between atoms: C_18  and  O_25
    8  A    between atoms: O_23  and  C_40
    9  A    between atoms: O_25  and  P_41
   10  A    between atoms: C_40  and  C_54
                            x       y       z     vdW  Elec       q    Type
                         _______ _______ _______ _____ _____    ______ ____

>  <TORSDO>
F 10

$$$$
=
 OpenBabel11042417253D

 56 64  0  0  1  0  0  0  0  0999 V2000
  185.0030  178.4090  142.6250 C   0  0  1  0  0  3  0  0  0  0  0  0
  188.0030  174.3060  139.9490 C   0  0  2  0  0  3  0  0  0  0  0  0
  188.0340  176.7700  144.6180 C   0  0  1  0  0  3  0  0  0  0  0  0
  188.4610  175.0700  143.0940 C   0  0  2  0  0  3  0  0  0  0  0  0
  189.0180  176.1810  143.7700 O   0  0  0  0  0  0  0  0  0  0  0  0
  188.9190  172.4700  142.1610 S   0  0  0  0  0  0  0  0  0  0  0  0
  189.5710  174.1020  142.6760 C   0  0  0  0  0  2  0  0  0  0  0  0
  185.8210  178.4840  144.2680 S   0  0  0  0  0  0  0  0  0  0  0  0
  187.4350  175.5330  142.0020 C   0  0  1  0  0  3  0  0  0  0  0  0
  186.8400  176.8730  142.4280 C   0  0  2  0  0  3  0  0  0  0  0  0
  186.6640  176.9200  143.9210 C   0  0  1  0  0  3  0  0  0  0  0  0
  189.5660  172.5080  140.4190 C   0  0  1  0  0  3  0  0  0  0  0  0
  189.4700  173.9350  139.8810 C   0  0  1  0  0  3  0  0  0  0  0  0
  188.6830  174.1720  138.6080 C   0  0  0  0  0  2  0  0  0  0  0  0
  185.4850  177.1850  141.8540 C   0  0  0  0  0  2  0  0  0  0  0  0
  187.9970  175.6750  140.5840 C   0  0  0  0  0  2  0  0  0  0  0  0
  186.2680  176.7590  147.4640 O   0  0  0  0  0  0  0  0  0  0  0  0
  190.1550  176.2790  147.1880 N   0  0  0  0  0  0  0  0  0  0  0  0
  188.2730  177.9850  147.5990 C   0  0  0  0  0  2  0  0  0  0  0  0
  189.6870  177.5110  147.7840 C   0  0  0  0  0  0  0  0  0  0  0  0
  189.5990  174.2480  145.9890 C   0  0  0  0  0  2  0  0  0  0  0  0
  187.9240  176.0140  145.9580 C   0  0  2  0  0  3  0  0  0  0  0  0
  190.5160  178.3080  148.4460 C   0  0  0  0  0  2  0  0  0  0  0  0
  187.4050  176.9020  147.0470 C   0  0  0  0  0  0  0  0  0  0  0  0
  189.2570  175.4720  146.3870 C   0  0  0  0  0  0  0  0  0  0  0  0
  191.5120  175.8020  147.4690 C   0  0  0  0  0  2  0  0  0  0  0  0
  192.5320  176.7020  146.7910 C   0  0  0  0  0  1  0  0  0  0  0  0
  191.0350  172.0340  140.3650 C   0  0  1  0  0  3  0  0  0  0  0  0
  192.6860  170.3410  140.9780 C   0  0  2  0  0  3  0  0  0  0  0  0
  191.5210  171.1680  141.5520 C   0  0  2  0  0  3  0  0  0  0  0  0
  192.3760  170.3240  139.5310 C   0  0  0  0  0  0  0  0  0  0  0  0
  190.4950  170.3150  141.9800 O   0  0  0  0  0  1  0  0  0  0  0  0
  191.3900  171.2730  139.1690 N   0  0  0  0  0  0  0  0  0  0  0  0
  192.9310  169.5520  138.7040 O   0  0  0  0  0  0  0  0  0  0  0  0
  189.6230  170.0090  138.0590 C   0  0  0  0  0  1  0  0  0  0  0  0
  190.5990  171.1650  137.9450 C   0  0  0  0  0  2  0  0  0  0  0  0
  192.7060  169.0440  141.5010 O   0  0  0  0  0  0  0  0  0  0  0  0
  193.7470  168.1700  143.7340 O   0  0  0  0  0  1  0  0  0  0  0  0
  194.5330  170.5380  142.9680 O   0  0  0  0  0  1  0  0  0  0  0  0
  195.3510  168.2380  141.6720 O   0  0  0  0  0  0  0  0  0  0  0  0
  194.0740  168.9780  142.5010 P   0  0  0  0  0  0  0  0  0  0  0  0
  183.4820  178.4560  142.7360 C   0  0  0  0  0  2  0  0  0  0  0  0
  182.8170  178.8230  141.4160 C   0  0  0  0  0  2  0  0  0  0  0  0
  181.7300  177.9420  141.1730 O   0  0  0  0  0  0  0  0  0  0  0  0
  178.0050  178.2630  140.6290 N   0  0  1  0  0  0  0  0  0  0  0  0
  179.8860  180.9480  140.1630 C   0  0  0  0  0  1  0  0  0  0  0  0
  180.4060  178.3020  141.4290 C   0  0  0  0  0  0  0  0  0  0  0  0
  177.6970  178.2360  142.0700 C   0  0  0  0  0  2  0  0  0  0  0  0
  177.8890  179.6340  140.1250 C   0  0  2  0  0  3  0  0  0  0  0  0
  180.0320  178.6320  142.6280 N   0  0  0  0  0  0  0  0  0  0  0  0
  179.4260  178.3100  140.2710 C   0  0  2  0  0  3  0  0  0  0  0  0
  178.1100  179.7430  138.6140 C   0  0  0  0  0  0  0  0  0  0  0  0
  178.6730  179.0600  142.9080 C   0  0  2  0  0  3  0  0  0  0  0  0
  179.2460  179.6730  139.6370 C   0  0  2  0  0  0  0  0  0  0  0  0
  178.4010  178.8950  144.2520 F   0  0  0  0  0  0  0  0  0  0  0  0
  177.6970  179.8120  137.4670 O   0  0  0  0  0  0  0  0  0  0  0  0
  1 42  1  1  0  0  0
  1  8  1  0  0  0  0
  2 14  1  6  0  0  0
  2 16  1  0  0  0  0
  3  5  1  6  0  0  0
  3 22  1  0  0  0  0
  4  7  1  6  0  0  0
  4  5  1  0  0  0  0
  6  7  1  0  0  0  0
  9 16  1  6  0  0  0
  9 10  1  0  0  0  0
  9  4  1  0  0  0  0
 10 15  1  6  0  0  0
 10 11  1  0  0  0  0
 11  8  1  6  0  0  0
 11  3  1  0  0  0  0
 12  6  1  1  0  0  0
 13 14  1  6  0  0  0
 13  2  1  0  0  0  0
 13 12  1  0  0  0  0
 15  1  1  0  0  0  0
 18 26  1  0  0  0  0
 18 20  1  0  0  0  0
 19 20  1  0  0  0  0
 20 23  2  0  0  0  0
 21 25  2  0  0  0  0
 22 25  1  1  0  0  0
 22 24  1  0  0  0  0
 24 17  2  0  0  0  0
 24 19  1  0  0  0  0
 25 18  1  0  0  0  0
 27 26  1  0  0  0  0
 28 33  1  6  0  0  0
 28 12  1  0  0  0  0
 28 30  1  0  0  0  0
 29 37  1  1  0  0  0
 29 30  1  0  0  0  0
 30 32  1  6  0  0  0
 31 29  1  0  0  0  0
 33 31  1  0  0  0  0
 34 31  2  0  0  0  0
 36 35  1  0  0  0  0
 36 33  1  0  0  0  0
 37 41  1  0  0  0  0
 40 41  2  0  0  0  0
 41 39  1  0  0  0  0
 41 38  1  0  0  0  0
 43 42  1  0  0  0  0
 44 43  1  0  0  0  0
 44 47  1  0  0  0  0
 45 48  1  1  0  0  0
 47 50  2  0  0  0  0
 48 53  1  0  0  0  0
 49 52  1  6  0  0  0
 49 45  1  0  0  0  0
 50 53  1  0  0  0  0
 51 45  1  0  0  0  0
 51 47  1  1  0  0  0
 52 54  1  0  0  0  0
 53 55  1  1  0  0  0
 54 49  1  0  0  0  0
 54 46  1  1  0  0  0
 54 51  1  0  0  0  0
 56 52  2  0  0  0  0
M  END
>  <MODEL>
5

>  <REMARK>
 VINA RESULT:      -7.6      1.335      2.075
  Name = 
  10 active torsions:
  status: ('A' for Active; 'I' for Inactive)
    1  A    between atoms: C_1  and  C_54
    2  A    between atoms: C_4  and  C_44
    3  A    between atoms: C_5  and  C_34
    4  A    between atoms: N_11  and  C_19
    5  A    between atoms: C_13  and  O_23
    6  A    between atoms: C_17  and  N_55
    7  A    between atoms: C_18  and  O_25
    8  A    between atoms: O_23  and  C_40
    9  A    between atoms: O_25  and  P_41
   10  A    between atoms: C_40  and  C_54
                            x       y       z     vdW  Elec       q    Type
                         _______ _______ _______ _____ _____    ______ ____

>  <TORSDO>
F 10

$$$$
=
 OpenBabel11042417253D

 56 64  0  0  1  0  0  0  0  0999 V2000
  185.0120  178.2060  142.3850 C   0  0  1  0  0  3  0  0  0  0  0  0
  188.1760  173.9630  140.1520 C   0  0  2  0  0  3  0  0  0  0  0  0
  187.9490  176.7400  144.6370 C   0  0  1  0  0  3  0  0  0  0  0  0
  188.4660  174.9450  143.2570 C   0  0  2  0  0  3  0  0  0  0  0  0
  188.9790  176.1060  143.8820 O   0  0  0  0  0  0  0  0  0  0  0  0
  188.9910  172.2920  142.5290 S   0  0  0  0  0  0  0  0  0  0  0  0
  189.6030  173.9630  142.9630 C   0  0  0  0  0  2  0  0  0  0  0  0
  185.7440  178.4020  144.0580 S   0  0  0  0  0  0  0  0  0  0  0  0
  187.4940  175.3210  142.0850 C   0  0  1  0  0  3  0  0  0  0  0  0
  186.8680  176.6800  142.3870 C   0  0  2  0  0  3  0  0  0  0  0  0
  186.6160  176.8280  143.8630 C   0  0  1  0  0  3  0  0  0  0  0  0
  189.7260  172.2190  140.8240 C   0  0  1  0  0  3  0  0  0  0  0  0
  189.6470  173.6040  140.1840 C   0  0  1  0  0  3  0  0  0  0  0  0
  188.9250  173.7450  138.8600 C   0  0  0  0  0  2  0  0  0  0  0  0
  185.5410  176.9370  141.7250 C   0  0  0  0  0  2  0  0  0  0  0  0
  188.1260  175.3720  140.6910 C   0  0  0  0  0  2  0  0  0  0  0  0
  185.9880  176.8480  147.3500 O   0  0  0  0  0  0  0  0  0  0  0  0
  189.9020  176.5310  147.3730 N   0  0  0  0  0  0  0  0  0  0  0  0
  187.9260  178.1730  147.5300 C   0  0  0  0  0  2  0  0  0  0  0  0
  189.3420  177.7800  147.8440 C   0  0  0  0  0  0  0  0  0  0  0  0
  189.5170  174.3980  146.2920 C   0  0  0  0  0  2  0  0  0  0  0  0
  187.7760  176.0760  146.0180 C   0  0  2  0  0  3  0  0  0  0  0  0
  190.0880  178.6590  148.5000 C   0  0  0  0  0  2  0  0  0  0  0  0
  187.1450  177.0150  147.0010 C   0  0  0  0  0  0  0  0  0  0  0  0
  189.0970  175.6290  146.5750 C   0  0  0  0  0  0  0  0  0  0  0  0
  191.2540  176.1390  147.7790 C   0  0  0  0  0  2  0  0  0  0  0  0
  192.2070  176.2580  146.6020 C   0  0  0  0  0  1  0  0  0  0  0  0
  191.1990  171.7580  140.8770 C   0  0  1  0  0  3  0  0  0  0  0  0
  193.1450  170.9080  139.6700 C   0  0  2  0  0  3  0  0  0  0  0  0
  191.6280  170.7050  139.8270 C   0  0  2  0  0  3  0  0  0  0  0  0
  193.3200  172.3150  140.0960 C   0  0  0  0  0  0  0  0  0  0  0  0
  190.9840  170.9520  138.6060 O   0  0  0  0  0  1  0  0  0  0  0  0
  192.1820  172.8330  140.7620 N   0  0  0  0  0  0  0  0  0  0  0  0
  194.3680  172.9840  139.8950 O   0  0  0  0  0  0  0  0  0  0  0  0
  192.7340  174.8520  142.0150 C   0  0  0  0  0  1  0  0  0  0  0  0
  191.9170  174.2650  140.8780 C   0  0  0  0  0  2  0  0  0  0  0  0
  193.5560  170.7330  138.3440 O   0  0  0  0  0  0  0  0  0  0  0  0
  194.0730  168.1950  138.6950 O   0  0  0  0  0  1  0  0  0  0  0  0
  195.8750  169.8530  139.5990 O   0  0  0  0  0  1  0  0  0  0  0  0
  195.5170  169.4190  136.8920 O   0  0  0  0  0  0  0  0  0  0  0  0
  194.7370  169.5170  138.3920 P   0  0  0  0  0  0  0  0  0  0  0  0
  183.4870  178.2430  142.4150 C   0  0  0  0  0  2  0  0  0  0  0  0
  182.8850  178.4250  141.0280 C   0  0  0  0  0  2  0  0  0  0  0  0
  181.7120  177.6330  140.9150 O   0  0  0  0  0  0  0  0  0  0  0  0
  178.8080  179.9360  141.6510 N   0  0  1  0  0  0  0  0  0  0  0  0
  178.6200  176.8030  142.7070 C   0  0  0  0  0  1  0  0  0  0  0  0
  180.4390  178.1960  140.8040 C   0  0  0  0  0  0  0  0  0  0  0  0
  178.3190  179.9190  140.2610 C   0  0  0  0  0  2  0  0  0  0  0  0
  177.9520  179.0870  142.4860 C   0  0  2  0  0  3  0  0  0  0  0  0
  179.7220  178.0010  139.7380 N   0  0  0  0  0  0  0  0  0  0  0  0
  179.9160  179.0270  141.9600 C   0  0  2  0  0  3  0  0  0  0  0  0
  178.3360  179.1120  143.9670 C   0  0  0  0  0  0  0  0  0  0  0  0
  178.3760  178.5330  139.6220 C   0  0  2  0  0  3  0  0  0  0  0  0
  179.0410  178.2490  142.9200 C   0  0  2  0  0  0  0  0  0  0  0  0
  178.0200  178.6110  138.2890 F   0  0  0  0  0  0  0  0  0  0  0  0
  178.1990  179.5240  145.1090 O   0  0  0  0  0  0  0  0  0  0  0  0
  1 42  1  1  0  0  0
  1  8  1  0  0  0  0
  2 14  1  6  0  0  0
  2 13  1  0  0  0  0
  2 16  1  0  0  0  0
  3  5  1  6  0  0  0
  3 22  1  0  0  0  0
  4  7  1  6  0  0  0
  4  5  1  0  0  0  0
  6  7  1  0  0  0  0
  9 16  1  6  0  0  0
  9 10  1  0  0  0  0
  9  4  1  0  0  0  0
 10 15  1  6  0  0  0
 10 11  1  0  0  0  0
 11  8  1  6  0  0  0
 11  3  1  0  0  0  0
 12 28  1  0  0  0  0
 12  6  1  1  0  0  0
 13 14  1  6  0  0  0
 13 12  1  0  0  0  0
 15  1  1  0  0  0  0
 18 26  1  0  0  0  0
 18 20  1  0  0  0  0
 19 20  1  0  0  0  0
 20 23  2  0  0  0  0
 21 25  2  0  0  0  0
 22 25  1  1  0  0  0
 22 24  1  0  0  0  0
 24 17  2  0  0  0  0
 24 19  1  0  0  0  0
 25 18  1  0  0  0  0
 27 26  1  0  0  0  0
 28 33  1  6  0  0  0
 29 37  1  6  0  0  0
 29 30  1  0  0  0  0
 29 31  1  0  0  0  0
 30 32  1  6  0  0  0
 30 28  1  0  0  0  0
 31 33  1  0  0  0  0
 33 36  1  0  0  0  0
 34 31  2  0  0  0  0
 36 35  1  0  0  0  0
 37 41  1  0  0  0  0
 40 41  2  0  0  0  0
 41 38  1  0  0  0  0
 41 39  1  0  0  0  0
 43 42  1  0  0  0  0
 44 43  1  0  0  0  0
 45 48  1  6  0  0  0
 45 51  1  0  0  0  0
 45 49  1  0  0  0  0
 47 44  1  0  0  0  0
 49 54  1  0  0  0  0
 49 52  1  1  0  0  0
 50 47  2  0  0  0  0
 51 47  1  6  0  0  0
 51 54  1  0  0  0  0
 52 56  2  0  0  0  0
 53 55  1  6  0  0  0
 53 50  1  0  0  0  0
 53 48  1  0  0  0  0
 54 46  1  6  0  0  0
 54 52  1  0  0  0  0
M  END
>  <MODEL>
6

>  <REMARK>
 VINA RESULT:      -7.1      1.602      2.140
  Name = 
  10 active torsions:
  status: ('A' for Active; 'I' for Inactive)
    1  A    between atoms: C_1  and  C_54
    2  A    between atoms: C_4  and  C_44
    3  A    between atoms: C_5  and  C_34
    4  A    between atoms: N_11  and  C_19
    5  A    between atoms: C_13  and  O_23
    6  A    between atoms: C_17  and  N_55
    7  A    between atoms: C_18  and  O_25
    8  A    between atoms: O_23  and  C_40
    9  A    between atoms: O_25  and  P_41
   10  A    between atoms: C_40  and  C_54
                            x       y       z     vdW  Elec       q    Type
                         _______ _______ _______ _____ _____    ______ ____

>  <TORSDO>
F 10

$$$$
=
 OpenBabel11042417253D

 56 64  0  0  1  0  0  0  0  0999 V2000
  194.7350  170.9550  141.1260 C   0  0  1  0  0  3  0  0  0  0  0  0
  190.0310  174.2520  141.1300 C   0  0  2  0  0  3  0  0  0  0  0  0
  193.3570  172.1640  144.6590 C   0  0  1  0  0  3  0  0  0  0  0  0
  191.7730  173.6460  143.8290 C   0  0  2  0  0  3  0  0  0  0  0  0
  191.9720  172.5050  144.6410 O   0  0  0  0  0  0  0  0  0  0  0  0
  190.3650  176.0490  143.5310 S   0  0  0  0  0  0  0  0  0  0  0  0
  190.4880  174.3680  144.2470 C   0  0  0  0  0  2  0  0  0  0  0  0
  195.1430  170.8530  142.9140 S   0  0  0  0  0  0  0  0  0  0  0  0
  191.9630  173.2970  142.3120 C   0  0  1  0  0  3  0  0  0  0  0  0
  192.9280  172.1200  142.2000 C   0  0  2  0  0  3  0  0  0  0  0  0
  193.9970  172.2120  143.2550 C   0  0  1  0  0  3  0  0  0  0  0  0
  188.7990  175.7710  142.5700 C   0  0  1  0  0  3  0  0  0  0  0  0
  188.8020  174.3490  142.0090 C   0  0  1  0  0  3  0  0  0  0  0  0
  188.6560  174.1660  140.5130 C   0  0  0  0  0  2  0  0  0  0  0  0
  193.6640  172.0150  140.8910 C   0  0  0  0  0  2  0  0  0  0  0  0
  190.6820  172.9560  141.5450 C   0  0  0  0  0  2  0  0  0  0  0  0
  192.9780  174.8520  146.6210 O   0  0  0  0  0  0  0  0  0  0  0  0
  196.1600  174.0220  144.4760 N   0  0  0  0  0  0  0  0  0  0  0  0
  193.9480  175.3350  144.5310 C   0  0  0  0  0  2  0  0  0  0  0  0
  195.3610  175.1510  144.0540 C   0  0  0  0  0  0  0  0  0  0  0  0
  196.3680  172.0940  145.9290 C   0  0  0  0  0  2  0  0  0  0  0  0
  194.1320  173.0220  145.6800 C   0  0  2  0  0  3  0  0  0  0  0  0
  195.8220  176.0200  143.1620 C   0  0  0  0  0  2  0  0  0  0  0  0
  193.6440  174.4390  145.6870 C   0  0  0  0  0  0  0  0  0  0  0  0
  195.6020  173.0320  145.3750 C   0  0  0  0  0  0  0  0  0  0  0  0
  197.5630  173.9270  144.0650 C   0  0  0  0  0  2  0  0  0  0  0  0
  197.6580  173.3630  142.6570 C   0  0  0  0  0  1  0  0  0  0  0  0
  187.5580  175.9690  143.4670 C   0  0  1  0  0  3  0  0  0  0  0  0
  186.3810  177.3640  145.0900 C   0  0  2  0  0  3  0  0  0  0  0  0
  187.7700  176.7900  144.7620 C   0  0  2  0  0  3  0  0  0  0  0  0
  185.7200  177.3670  143.7660 C   0  0  0  0  0  0  0  0  0  0  0  0
  188.6760  177.8340  144.5280 O   0  0  0  0  0  1  0  0  0  0  0  0
  186.4160  176.5940  142.8040 N   0  0  0  0  0  0  0  0  0  0  0  0
  184.6510  177.9840  143.5160 O   0  0  0  0  0  0  0  0  0  0  0  0
  186.9960  178.0230  140.9140 C   0  0  0  0  0  1  0  0  0  0  0  0
  186.2470  176.7830  141.3650 C   0  0  0  0  0  2  0  0  0  0  0  0
  186.4670  178.6610  145.6090 O   0  0  0  0  0  0  0  0  0  0  0  0
  184.1130  178.6650  146.7450 O   0  0  0  0  0  0  0  0  0  0  0  0
  185.9840  179.9710  148.0130 O   0  0  0  0  0  1  0  0  0  0  0  0
  185.9440  177.2080  147.9090 O   0  0  0  0  0  1  0  0  0  0  0  0
  185.5890  178.6290  147.0600 P   0  0  0  0  0  0  0  0  0  0  0  0
  195.9720  171.1890  140.2640 C   0  0  0  0  0  2  0  0  0  0  0  0
  195.7640  170.7500  138.8220 C   0  0  0  0  0  2  0  0  0  0  0  0
  196.1220  171.8120  137.9480 O   0  0  0  0  0  0  0  0  0  0  0  0
  194.1990  174.9610  138.7640 N   0  0  1  0  0  0  0  0  0  0  0  0
  195.5280  174.6840  135.7440 C   0  0  0  0  0  1  0  0  0  0  0  0
  195.8990  173.1510  138.2720 C   0  0  0  0  0  0  0  0  0  0  0  0
  195.2670  175.5030  139.6230 C   0  0  0  0  0  2  0  0  0  0  0  0
  194.1990  175.6590  137.4760 C   0  0  2  0  0  3  0  0  0  0  0  0
  196.8590  173.8830  138.7530 N   0  0  0  0  0  0  0  0  0  0  0  0
  194.5170  173.7280  138.0350 C   0  0  2  0  0  3  0  0  0  0  0  0
  193.0640  175.2160  136.5480 C   0  0  0  0  0  0  0  0  0  0  0  0
  196.6650  175.2910  139.0470 C   0  0  2  0  0  3  0  0  0  0  0  0
  194.3770  174.4490  136.7100 C   0  0  2  0  0  0  0  0  0  0  0  0
  197.6200  175.7120  139.9530 F   0  0  0  0  0  0  0  0  0  0  0  0
  191.9520  175.3560  136.0650 O   0  0  0  0  0  0  0  0  0  0  0  0
  1 42  1  6  0  0  0
  1  8  1  0  0  0  0
  2 14  1  6  0  0  0
  2 16  1  0  0  0  0
  2 13  1  0  0  0  0
  3  5  1  6  0  0  0
  3 22  1  0  0  0  0
  4  7  1  6  0  0  0
  4  5  1  0  0  0  0
  6  7  1  0  0  0  0
  9 16  1  1  0  0  0
  9  4  1  0  0  0  0
 10 15  1  6  0  0  0
 10  9  1  0  0  0  0
 10 11  1  0  0  0  0
 11  8  1  1  0  0  0
 11  3  1  0  0  0  0
 12 28  1  0  0  0  0
 12  6  1  1  0  0  0
 13 14  1  6  0  0  0
 13 12  1  0  0  0  0
 15  1  1  0  0  0  0
 18 25  1  0  0  0  0
 19 24  1  0  0  0  0
 20 18  1  0  0  0  0
 20 19  1  0  0  0  0
 22 25  1  6  0  0  0
 22 24  1  0  0  0  0
 23 20  2  0  0  0  0
 24 17  2  0  0  0  0
 25 21  2  0  0  0  0
 26 18  1  0  0  0  0
 27 26  1  0  0  0  0
 28 33  1  6  0  0  0
 28 30  1  0  0  0  0
 29 37  1  6  0  0  0
 30 32  1  6  0  0  0
 30 29  1  0  0  0  0
 31 29  1  0  0  0  0
 33 31  1  0  0  0  0
 34 31  2  0  0  0  0
 35 36  1  0  0  0  0
 36 33  1  0  0  0  0
 37 41  1  0  0  0  0
 38 41  2  0  0  0  0
 41 40  1  0  0  0  0
 41 39  1  0  0  0  0
 43 42  1  0  0  0  0
 44 47  1  0  0  0  0
 44 43  1  0  0  0  0
 45 48  1  1  0  0  0
 47 50  2  0  0  0  0
 49 52  1  6  0  0  0
 49 45  1  0  0  0  0
 50 53  1  0  0  0  0
 51 47  1  1  0  0  0
 51 45  1  0  0  0  0
 52 54  1  0  0  0  0
 53 48  1  0  0  0  0
 53 55  1  1  0  0  0
 54 46  1  6  0  0  0
 54 49  1  0  0  0  0
 54 51  1  0  0  0  0
 56 52  2  0  0  0  0
M  END
>  <MODEL>
7

>  <REMARK>
 VINA RESULT:      -6.9      5.285     11.415
  Name = 
  10 active torsions:
  status: ('A' for Active; 'I' for Inactive)
    1  A    between atoms: C_1  and  C_54
    2  A    between atoms: C_4  and  C_44
    3  A    between atoms: C_5  and  C_34
    4  A    between atoms: N_11  and  C_19
    5  A    between atoms: C_13  and  O_23
    6  A    between atoms: C_17  and  N_55
    7  A    between atoms: C_18  and  O_25
    8  A    between atoms: O_23  and  C_40
    9  A    between atoms: O_25  and  P_41
   10  A    between atoms: C_40  and  C_54
                            x       y       z     vdW  Elec       q    Type
                         _______ _______ _______ _____ _____    ______ ____

>  <TORSDO>
F 10

$$$$
=
 OpenBabel11042417253D

 56 64  0  0  1  0  0  0  0  0999 V2000
  185.1360  178.5500  142.6400 C   0  0  1  0  0  3  0  0  0  0  0  0
  187.9670  174.2180  140.1480 C   0  0  2  0  0  3  0  0  0  0  0  0
  188.0480  176.8270  144.7370 C   0  0  1  0  0  3  0  0  0  0  0  0
  188.4130  175.0590  143.2750 C   0  0  2  0  0  3  0  0  0  0  0  0
  189.0140  176.1630  143.9250 O   0  0  0  0  0  0  0  0  0  0  0  0
  188.7540  172.4100  142.4330 S   0  0  0  0  0  0  0  0  0  0  0  0
  189.4790  174.0230  142.9070 C   0  0  0  0  0  2  0  0  0  0  0  0
  185.9310  178.6370  144.2940 S   0  0  0  0  0  0  0  0  0  0  0  0
  187.4300  175.5370  142.1510 C   0  0  1  0  0  3  0  0  0  0  0  0
  186.8960  176.9180  142.5240 C   0  0  2  0  0  3  0  0  0  0  0  0
  186.6990  177.0230  144.0120 C   0  0  1  0  0  3  0  0  0  0  0  0
  189.4300  172.3600  140.7030 C   0  0  1  0  0  3  0  0  0  0  0  0
  189.4150  173.7710  140.1170 C   0  0  1  0  0  3  0  0  0  0  0  0
  188.6610  174.0060  138.8240 C   0  0  0  0  0  2  0  0  0  0  0  0
  185.5670  177.2790  141.9170 C   0  0  0  0  0  2  0  0  0  0  0  0
  188.0200  175.6050  140.7390 C   0  0  0  0  0  2  0  0  0  0  0  0
  186.0770  176.8330  147.4450 O   0  0  0  0  0  0  0  0  0  0  0  0
  189.9940  176.5620  147.4730 N   0  0  0  0  0  0  0  0  0  0  0  0
  187.9990  178.1740  147.6700 C   0  0  0  0  0  2  0  0  0  0  0  0
  189.4180  177.7890  147.9780 C   0  0  0  0  0  0  0  0  0  0  0  0
  189.6380  174.4560  146.3300 C   0  0  0  0  0  2  0  0  0  0  0  0
  187.8780  176.1210  146.0980 C   0  0  2  0  0  3  0  0  0  0  0  0
  190.1520  178.6580  148.6610 C   0  0  0  0  0  2  0  0  0  0  0  0
  187.2330  177.0230  147.1050 C   0  0  0  0  0  0  0  0  0  0  0  0
  189.2030  175.6740  146.6460 C   0  0  0  0  0  0  0  0  0  0  0  0
  191.3490  176.1740  147.8730 C   0  0  0  0  0  2  0  0  0  0  0  0
  192.3210  176.4240  146.7320 C   0  0  0  0  0  1  0  0  0  0  0  0
  190.8730  171.8110  140.6890 C   0  0  1  0  0  3  0  0  0  0  0  0
  192.7150  170.8660  139.3920 C   0  0  2  0  0  3  0  0  0  0  0  0
  191.1950  170.7510  139.6090 C   0  0  2  0  0  3  0  0  0  0  0  0
  192.9910  172.2520  139.8290 C   0  0  0  0  0  0  0  0  0  0  0  0
  190.5190  171.0540  138.4190 O   0  0  0  0  0  1  0  0  0  0  0  0
  191.9140  172.8270  140.5480 N   0  0  0  0  0  0  0  0  0  0  0  0
  194.0690  172.8600  139.5940 O   0  0  0  0  0  0  0  0  0  0  0  0
  192.7590  174.8170  141.6770 C   0  0  0  0  0  1  0  0  0  0  0  0
  191.7410  174.2710  140.6940 C   0  0  0  0  0  2  0  0  0  0  0  0
  193.0610  170.6860  138.0480 O   0  0  0  0  0  0  0  0  0  0  0  0
  195.5350  170.2140  137.3540 O   0  0  0  0  0  1  0  0  0  0  0  0
  193.9190  168.1670  137.2460 O   0  0  0  0  0  0  0  0  0  0  0  0
  194.7820  169.2220  139.6520 O   0  0  0  0  0  1  0  0  0  0  0  0
  194.3540  169.5890  138.0550 P   0  0  0  0  0  0  0  0  0  0  0  0
  183.6180  178.6760  142.7220 C   0  0  0  0  0  2  0  0  0  0  0  0
  182.9730  178.8010  141.3490 C   0  0  0  0  0  2  0  0  0  0  0  0
  181.8930  177.8830  141.2490 O   0  0  0  0  0  0  0  0  0  0  0  0
  178.1460  178.1600  140.8510 N   0  0  1  0  0  0  0  0  0  0  0  0
  179.9830  180.8380  140.2090 C   0  0  0  0  0  1  0  0  0  0  0  0
  180.5780  178.2440  141.5470 C   0  0  0  0  0  0  0  0  0  0  0  0
  177.8980  178.1840  142.3040 C   0  0  0  0  0  2  0  0  0  0  0  0
  177.9970  179.5110  140.3030 C   0  0  2  0  0  3  0  0  0  0  0  0
  180.2510  178.6150  142.7490 N   0  0  0  0  0  0  0  0  0  0  0  0
  179.5500  178.2020  140.4320 C   0  0  2  0  0  3  0  0  0  0  0  0
  178.1540  179.5660  138.7810 C   0  0  0  0  0  0  0  0  0  0  0  0
  178.9010  179.0440  143.0690 C   0  0  2  0  0  3  0  0  0  0  0  0
  179.3320  179.5400  139.7570 C   0  0  2  0  0  0  0  0  0  0  0  0
  178.6870  178.9260  144.4290 F   0  0  0  0  0  0  0  0  0  0  0  0
  177.6930  179.5890  137.6510 O   0  0  0  0  0  0  0  0  0  0  0  0
  1 42  1  1  0  0  0
  1  8  1  0  0  0  0
  2 14  1  6  0  0  0
  2 16  1  0  0  0  0
  3  5  1  6  0  0  0
  3 22  1  0  0  0  0
  4  7  1  6  0  0  0
  4  5  1  0  0  0  0
  6  7  1  0  0  0  0
  9 16  1  6  0  0  0
  9 10  1  0  0  0  0
  9  4  1  0  0  0  0
 10 15  1  6  0  0  0
 10 11  1  0  0  0  0
 11  8  1  6  0  0  0
 11  3  1  0  0  0  0
 12  6  1  1  0  0  0
 13 14  1  6  0  0  0
 13  2  1  0  0  0  0
 13 12  1  0  0  0  0
 15  1  1  0  0  0  0
 18 26  1  0  0  0  0
 18 20  1  0  0  0  0
 19 20  1  0  0  0  0
 20 23  2  0  0  0  0
 21 25  2  0  0  0  0
 22 25  1  1  0  0  0
 22 24  1  0  0  0  0
 24 17  2  0  0  0  0
 24 19  1  0  0  0  0
 25 18  1  0  0  0  0
 27 26  1  0  0  0  0
 28 33  1  6  0  0  0
 28 12  1  0  0  0  0
 29 37  1  6  0  0  0
 29 30  1  0  0  0  0
 29 31  1  0  0  0  0
 30 32  1  6  0  0  0
 30 28  1  0  0  0  0
 31 33  1  0  0  0  0
 33 36  1  0  0  0  0
 34 31  2  0  0  0  0
 36 35  1  0  0  0  0
 37 41  1  0  0  0  0
 38 41  1  0  0  0  0
 39 41  2  0  0  0  0
 41 40  1  0  0  0  0
 43 42  1  0  0  0  0
 44 43  1  0  0  0  0
 44 47  1  0  0  0  0
 45 48  1  1  0  0  0
 47 50  2  0  0  0  0
 48 53  1  0  0  0  0
 49 52  1  6  0  0  0
 49 45  1  0  0  0  0
 50 53  1  0  0  0  0
 51 45  1  0  0  0  0
 51 47  1  1  0  0  0
 52 54  1  0  0  0  0
 53 55  1  1  0  0  0
 54 46  1  1  0  0  0
 54 49  1  0  0  0  0
 54 51  1  0  0  0  0
 56 52  2  0  0  0  0
M  END
>  <MODEL>
8

>  <REMARK>
 VINA RESULT:      -6.9      1.995      2.817
  Name = 
  10 active torsions:
  status: ('A' for Active; 'I' for Inactive)
    1  A    between atoms: C_1  and  C_54
    2  A    between atoms: C_4  and  C_44
    3  A    between atoms: C_5  and  C_34
    4  A    between atoms: N_11  and  C_19
    5  A    between atoms: C_13  and  O_23
    6  A    between atoms: C_17  and  N_55
    7  A    between atoms: C_18  and  O_25
    8  A    between atoms: O_23  and  C_40
    9  A    between atoms: O_25  and  P_41
   10  A    between atoms: C_40  and  C_54
                            x       y       z     vdW  Elec       q    Type
                         _______ _______ _______ _____ _____    ______ ____

>  <TORSDO>
F 10

$$$$
=
 OpenBabel11042417253D

 56 64  0  0  1  0  0  0  0  0999 V2000
  194.7180  171.0550  141.0030 C   0  0  1  0  0  3  0  0  0  0  0  0
  189.9870  174.3130  141.0780 C   0  0  2  0  0  3  0  0  0  0  0  0
  193.3640  172.2260  144.5590 C   0  0  1  0  0  3  0  0  0  0  0  0
  191.7600  173.7010  143.7550 C   0  0  2  0  0  3  0  0  0  0  0  0
  191.9760  172.5550  144.5570 O   0  0  0  0  0  0  0  0  0  0  0  0
  190.3300  176.0940  143.4890 S   0  0  0  0  0  0  0  0  0  0  0  0
  190.4740  174.4090  144.1910 C   0  0  0  0  0  2  0  0  0  0  0  0
  195.1440  170.9430  142.7870 S   0  0  0  0  0  0  0  0  0  0  0  0
  191.9380  173.3650  142.2340 C   0  0  1  0  0  3  0  0  0  0  0  0
  192.9120  172.1960  142.1040 C   0  0  2  0  0  3  0  0  0  0  0  0
  193.9900  172.2890  143.1490 C   0  0  1  0  0  3  0  0  0  0  0  0
  188.7570  175.8100  142.5410 C   0  0  1  0  0  3  0  0  0  0  0  0
  188.7660  174.3930  141.9700 C   0  0  1  0  0  3  0  0  0  0  0  0
  188.6070  174.2200  140.4730 C   0  0  0  0  0  2  0  0  0  0  0  0
  193.6360  172.1070  140.7880 C   0  0  0  0  0  2  0  0  0  0  0  0
  190.6530  173.0190  141.4770 C   0  0  0  0  0  2  0  0  0  0  0  0
  192.9940  174.9160  146.5190 O   0  0  0  0  0  0  0  0  0  0  0  0
  196.1720  174.0760  144.3740 N   0  0  0  0  0  0  0  0  0  0  0  0
  193.9640  175.3950  144.4290 C   0  0  0  0  0  2  0  0  0  0  0  0
  195.3760  175.2070  143.9510 C   0  0  0  0  0  0  0  0  0  0  0  0
  196.3750  172.1490  145.8280 C   0  0  0  0  0  2  0  0  0  0  0  0
  194.1420  173.0830  145.5790 C   0  0  2  0  0  3  0  0  0  0  0  0
  195.8390  176.0740  143.0580 C   0  0  0  0  0  2  0  0  0  0  0  0
  193.6570  174.5000  145.5850 C   0  0  0  0  0  0  0  0  0  0  0  0
  195.6120  173.0890  145.2730 C   0  0  0  0  0  0  0  0  0  0  0  0
  197.5750  173.9770  143.9620 C   0  0  0  0  0  2  0  0  0  0  0  0
  197.6740  173.3120  142.6000 C   0  0  0  0  0  1  0  0  0  0  0  0
  187.5230  175.9920  143.4520 C   0  0  1  0  0  3  0  0  0  0  0  0
  186.3450  177.3700  145.0890 C   0  0  2  0  0  3  0  0  0  0  0  0
  187.7380  176.8140  144.7450 C   0  0  2  0  0  3  0  0  0  0  0  0
  185.6710  177.3650  143.7720 C   0  0  0  0  0  0  0  0  0  0  0  0
  188.6280  177.8700  144.5030 O   0  0  0  0  0  1  0  0  0  0  0  0
  186.3660  176.6020  142.8010 N   0  0  0  0  0  0  0  0  0  0  0  0
  184.5910  177.9690  143.5340 O   0  0  0  0  0  0  0  0  0  0  0  0
  186.8500  178.0770  140.9190 C   0  0  0  0  0  1  0  0  0  0  0  0
  186.1790  176.7910  141.3640 C   0  0  0  0  0  2  0  0  0  0  0  0
  186.4200  178.6670  145.6080 O   0  0  0  0  0  0  0  0  0  0  0  0
  184.0800  178.6390  146.7720 O   0  0  0  0  0  0  0  0  0  0  0  0
  185.9500  179.9660  148.0200 O   0  0  0  0  0  1  0  0  0  0  0  0
  185.9430  177.2030  147.9120 O   0  0  0  0  0  1  0  0  0  0  0  0
  185.5600  178.6210  147.0690 P   0  0  0  0  0  0  0  0  0  0  0  0
  195.9450  171.3060  140.1320 C   0  0  0  0  0  2  0  0  0  0  0  0
  195.8740  170.5620  138.8060 C   0  0  0  0  0  2  0  0  0  0  0  0
  196.2470  171.4380  137.7520 O   0  0  0  0  0  0  0  0  0  0  0  0
  194.8990  173.8560  135.1800 N   0  0  1  0  0  0  0  0  0  0  0  0
  195.1990  174.9110  138.3040 C   0  0  0  0  0  1  0  0  0  0  0  0
  195.3140  172.2080  137.0560 C   0  0  0  0  0  0  0  0  0  0  0  0
  193.5850  173.1920  135.1070 C   0  0  0  0  0  2  0  0  0  0  0  0
  194.7840  175.0930  135.9570 C   0  0  2  0  0  3  0  0  0  0  0  0
  194.0440  171.9460  137.1450 N   0  0  0  0  0  0  0  0  0  0  0  0
  195.8190  173.3590  136.2080 C   0  0  2  0  0  3  0  0  0  0  0  0
  196.0880  175.8940  136.0140 C   0  0  0  0  0  0  0  0  0  0  0  0
  193.0510  172.7650  136.4730 C   0  0  2  0  0  3  0  0  0  0  0  0
  195.7850  174.6970  136.9170 C   0  0  2  0  0  0  0  0  0  0  0  0
  191.8810  172.0470  136.3220 F   0  0  0  0  0  0  0  0  0  0  0  0
  196.8190  176.7900  135.6220 O   0  0  0  0  0  0  0  0  0  0  0  0
  1 42  1  6  0  0  0
  1  8  1  0  0  0  0
  2 14  1  6  0  0  0
  2 16  1  0  0  0  0
  2 13  1  0  0  0  0
  3  5  1  6  0  0  0
  3 22  1  0  0  0  0
  4  7  1  6  0  0  0
  4  5  1  0  0  0  0
  6  7  1  0  0  0  0
  9 16  1  1  0  0  0
  9  4  1  0  0  0  0
 10 15  1  6  0  0  0
 10  9  1  0  0  0  0
 10 11  1  0  0  0  0
 11  8  1  6  0  0  0
 11  3  1  0  0  0  0
 12 28  1  0  0  0  0
 12  6  1  1  0  0  0
 13 14  1  6  0  0  0
 13 12  1  0  0  0  0
 15  1  1  0  0  0  0
 18 25  1  0  0  0  0
 19 24  1  0  0  0  0
 20 18  1  0  0  0  0
 20 19  1  0  0  0  0
 22 25  1  6  0  0  0
 22 24  1  0  0  0  0
 23 20  2  0  0  0  0
 24 17  2  0  0  0  0
 25 21  2  0  0  0  0
 26 18  1  0  0  0  0
 27 26  1  0  0  0  0
 28 33  1  6  0  0  0
 28 30  1  0  0  0  0
 29 37  1  6  0  0  0
 30 32  1  6  0  0  0
 30 29  1  0  0  0  0
 31 29  1  0  0  0  0
 33 31  1  0  0  0  0
 34 31  2  0  0  0  0
 35 36  1  0  0  0  0
 36 33  1  0  0  0  0
 37 41  1  0  0  0  0
 38 41  2  0  0  0  0
 41 40  1  0  0  0  0
 41 39  1  0  0  0  0
 43 42  1  0  0  0  0
 44 43  1  0  0  0  0
 45 48  1  1  0  0  0
 45 49  1  0  0  0  0
 45 51  1  0  0  0  0
 47 50  2  0  0  0  0
 47 44  1  0  0  0  0
 48 53  1  0  0  0  0
 49 52  1  6  0  0  0
 49 54  1  0  0  0  0
 51 54  1  0  0  0  0
 51 47  1  1  0  0  0
 52 54  1  0  0  0  0
 53 55  1  6  0  0  0
 53 50  1  0  0  0  0
 54 46  1  1  0  0  0
 56 52  2  0  0  0  0
M  END
>  <MODEL>
9

>  <REMARK>
 VINA RESULT:      -6.7      4.956     11.525
  Name = 
  10 active torsions:
  status: ('A' for Active; 'I' for Inactive)
    1  A    between atoms: C_1  and  C_54
    2  A    between atoms: C_4  and  C_44
    3  A    between atoms: C_5  and  C_34
    4  A    between atoms: N_11  and  C_19
    5  A    between atoms: C_13  and  O_23
    6  A    between atoms: C_17  and  N_55
    7  A    between atoms: C_18  and  O_25
    8  A    between atoms: O_23  and  C_40
    9  A    between atoms: O_25  and  P_41
   10  A    between atoms: C_40  and  C_54
                            x       y       z     vdW  Elec       q    Type
                         _______ _______ _______ _____ _____    ______ ____

>  <TORSDO>
F 10

$$$$
