=
 OpenBabel11042417263D

 29 31  0  0  1  0  0  0  0  0999 V2000
  191.0110  177.1940  145.6070 N   0  0  0  0  0  2  0  0  0  0  0  0
  190.1670  176.9210  146.7600 C   0  0  1  0  0  3  0  0  0  0  0  0
  188.7660  177.4550  146.5140 C   0  0  0  0  0  2  0  0  0  0  0  0
  190.0420  175.4230  146.9540 C   0  0  0  0  0  2  0  0  0  0  0  0
  187.8350  176.2570  146.5220 C   0  0  1  0  0  3  0  0  0  0  0  0
  188.5820  175.1650  147.2490 C   0  0  0  0  0  2  0  0  0  0  0  0
  186.5470  176.5810  147.2540 C   0  0  0  0  0  2  0  0  0  0  0  0
  186.4510  178.3620  147.6010 S   0  0  0  0  0  0  0  0  0  0  0  0
  184.0990  178.1580  146.4600 O   0  0  0  0  0  0  0  0  0  0  0  0
  185.2180  178.6260  146.3290 C   0  0  0  0  0  0  0  0  0  0  0  0
  185.5640  179.4000  145.1030 C   0  0  0  0  0  2  0  0  0  0  0  0
  186.1780  176.9700  142.1560 C   0  0  0  0  0  1  0  0  0  0  0  0
  185.4660  177.8440  143.1250 C   0  0  0  0  0  0  0  0  0  0  0  0
  184.2160  177.9750  143.0460 O   0  0  0  0  0  0  0  0  0  0  0  0
  186.2070  178.5260  144.1360 N   0  0  0  0  0  2  0  0  0  0  0  0
  189.5150  177.9340  142.4100 O   0  0  0  0  0  0  0  0  0  0  0  0
  190.0650  177.2350  143.3010 C   0  0  0  0  0  0  0  0  0  0  0  0
  190.2040  177.7810  144.6190 N   0  0  0  0  0  2  0  0  0  0  0  0
  193.4550  174.2180  143.2700 C   0  0  1  0  0  3  0  0  0  0  0  0
  192.9090  176.4740  142.7190 N   0  0  0  0  0  2  0  0  0  0  0  0
  194.0420  175.6140  143.0120 C   0  0  0  0  0  2  0  0  0  0  0  0
  192.1010  174.2150  142.5720 C   0  0  2  0  0  3  0  0  0  0  0  0
  190.5810  175.8960  142.9490 C   0  0  2  0  0  3  0  0  0  0  0  0
  189.9760  174.6270  143.4390 C   0  0  2  0  0  3  0  0  0  0  0  0
  191.7910  175.6370  142.4990 C   0  0  1  0  0  3  0  0  0  0  0  0
  194.5100  172.9730  142.5620 Cl  0  0  0  0  0  0  0  0  0  0  0  0
  191.0490  173.6230  143.4010 N   0  0  0  0  0  2  0  0  0  0  0  0
  188.8740  174.2160  142.5620 C   0  0  0  0  0  0  0  0  0  0  0  0
  188.0040  173.8910  141.8700 N   0  0  0  0  0  0  0  0  0  0  0  0
  2  1  1  6  0  0  0
  2  4  1  0  0  0  0
  3  5  1  0  0  0  0
  3  2  1  0  0  0  0
  4  6  1  0  0  0  0
  5  6  1  0  0  0  0
  5  7  1  1  0  0  0
  7  8  1  0  0  0  0
 10  9  2  0  0  0  0
 10  8  1  0  0  0  0
 11 10  1  0  0  0  0
 12 13  1  0  0  0  0
 13 15  1  0  0  0  0
 14 13  2  0  0  0  0
 15 11  1  0  0  0  0
 16 17  2  0  0  0  0
 17 18  1  0  0  0  0
 18  1  1  0  0  0  0
 19 26  1  6  0  0  0
 20 21  1  0  0  0  0
 21 19  1  0  0  0  0
 22 19  1  0  0  0  0
 22 27  1  1  0  0  0
 23 17  1  1  0  0  0
 23 24  1  0  0  0  0
 24 28  1  6  0  0  0
 25 22  1  0  0  0  0
 25 20  1  1  0  0  0
 25 23  1  0  0  0  0
 27 24  1  0  0  0  0
 29 28  3  0  0  0  0
M  END
>  <MODEL>
1

>  <REMARK>
 VINA RESULT:      -6.1      0.000      0.000
  Name = 
  9 active torsions:
  status: ('A' for Active; 'I' for Inactive)
    1  A    between atoms: C_1  and  N_12
    2  A    between atoms: C_7  and  C_16
    3  A    between atoms: C_11  and  C_20
    4  A    between atoms: C_11  and  S_21
    5  A    between atoms: N_12  and  N_29
    6  A    between atoms: C_13  and  C_18
    7  A    between atoms: C_14  and  S_21
    8  A    between atoms: C_14  and  C_25
    9  A    between atoms: N_24  and  C_25
                            x       y       z     vdW  Elec       q    Type
                         _______ _______ _______ _____ _____    ______ ____

>  <TORSDO>
F 9

$$$$
=
 OpenBabel11042417263D

 29 31  0  0  1  0  0  0  0  0999 V2000
  191.7230  176.3200  146.1040 N   0  0  0  0  0  2  0  0  0  0  0  0
  190.6300  176.3470  147.0630 C   0  0  1  0  0  3  0  0  0  0  0  0
  189.5950  177.3770  146.6420 C   0  0  0  0  0  2  0  0  0  0  0  0
  189.9330  175.0000  147.0760 C   0  0  0  0  0  2  0  0  0  0  0  0
  188.3110  176.6180  146.3680 C   0  0  1  0  0  3  0  0  0  0  0  0
  188.4520  175.3010  147.0920 C   0  0  0  0  0  2  0  0  0  0  0  0
  187.1130  177.3780  146.9020 C   0  0  0  0  0  2  0  0  0  0  0  0
  185.5780  176.7280  146.1760 S   0  0  0  0  0  0  0  0  0  0  0  0
  184.4920  178.6870  147.5380 O   0  0  0  0  0  0  0  0  0  0  0  0
  184.7140  178.2790  146.4100 C   0  0  0  0  0  0  0  0  0  0  0  0
  184.2510  179.0610  145.2280 C   0  0  0  0  0  2  0  0  0  0  0  0
  185.8630  178.3690  141.7810 C   0  0  0  0  0  1  0  0  0  0  0  0
  184.8380  178.4700  142.8520 C   0  0  0  0  0  0  0  0  0  0  0  0
  183.6460  178.1440  142.6070 O   0  0  0  0  0  0  0  0  0  0  0  0
  185.2140  178.9340  144.1480 N   0  0  0  0  0  2  0  0  0  0  0  0
  191.4340  178.2000  143.0410 O   0  0  0  0  0  0  0  0  0  0  0  0
  191.3740  177.1950  143.7970 C   0  0  0  0  0  0  0  0  0  0  0  0
  191.5290  177.3840  145.2090 N   0  0  0  0  0  2  0  0  0  0  0  0
  189.0200  174.3900  141.1150 C   0  0  1  0  0  3  0  0  0  0  0  0
  188.7930  175.9470  142.9080 N   0  0  0  0  0  2  0  0  0  0  0  0
  188.0310  175.3060  141.8510 C   0  0  0  0  0  2  0  0  0  0  0  0
  190.1410  174.1230  142.1120 C   0  0  2  0  0  3  0  0  0  0  0  0
  191.1830  175.8560  143.2010 C   0  0  2  0  0  3  0  0  0  0  0  0
  192.2040  175.1800  142.3550 C   0  0  2  0  0  3  0  0  0  0  0  0
  190.0240  175.2600  143.0160 C   0  0  1  0  0  3  0  0  0  0  0  0
  188.2230  172.8650  140.6680 Cl  0  0  0  0  0  0  0  0  0  0  0  0
  191.4670  174.2370  141.5020 N   0  0  0  0  0  2  0  0  0  0  0  0
  193.1630  174.4520  143.1960 C   0  0  0  0  0  0  0  0  0  0  0  0
  193.9180  173.8790  143.8590 N   0  0  0  0  0  0  0  0  0  0  0  0
  2  1  1  6  0  0  0
  2  4  1  0  0  0  0
  3  2  1  0  0  0  0
  4  6  1  0  0  0  0
  5  3  1  0  0  0  0
  5  7  1  1  0  0  0
  5  6  1  0  0  0  0
  8 10  1  0  0  0  0
  8  7  1  0  0  0  0
 10  9  2  0  0  0  0
 11 10  1  0  0  0  0
 12 13  1  0  0  0  0
 13 15  1  0  0  0  0
 14 13  2  0  0  0  0
 15 11  1  0  0  0  0
 16 17  2  0  0  0  0
 17 18  1  0  0  0  0
 18  1  1  0  0  0  0
 19 26  1  1  0  0  0
 19 21  1  0  0  0  0
 19 22  1  0  0  0  0
 21 20  1  0  0  0  0
 22 27  1  6  0  0  0
 22 25  1  0  0  0  0
 23 17  1  6  0  0  0
 24 28  1  1  0  0  0
 24 23  1  0  0  0  0
 25 20  1  6  0  0  0
 25 23  1  0  0  0  0
 27 24  1  0  0  0  0
 28 29  3  0  0  0  0
M  END
>  <MODEL>
2

>  <REMARK>
 VINA RESULT:      -6.0      1.807      2.790
  Name = 
  9 active torsions:
  status: ('A' for Active; 'I' for Inactive)
    1  A    between atoms: C_1  and  N_12
    2  A    between atoms: C_7  and  C_16
    3  A    between atoms: C_11  and  C_20
    4  A    between atoms: C_11  and  S_21
    5  A    between atoms: N_12  and  N_29
    6  A    between atoms: C_13  and  C_18
    7  A    between atoms: C_14  and  S_21
    8  A    between atoms: C_14  and  C_25
    9  A    between atoms: N_24  and  C_25
                            x       y       z     vdW  Elec       q    Type
                         _______ _______ _______ _____ _____    ______ ____

>  <TORSDO>
F 9

$$$$
=
 OpenBabel11042417263D

 29 31  0  0  1  0  0  0  0  0999 V2000
  188.6300  175.1000  141.7820 N   0  0  0  0  0  2  0  0  0  0  0  0
  189.3250  173.8220  141.7870 C   0  0  1  0  0  3  0  0  0  0  0  0
  190.4170  173.8300  142.8430 C   0  0  0  0  0  2  0  0  0  0  0  0
  188.3550  172.7180  142.1620 C   0  0  0  0  0  2  0  0  0  0  0  0
  190.0540  172.7590  143.8550 C   0  0  1  0  0  3  0  0  0  0  0  0
  189.0920  171.8370  143.1450 C   0  0  0  0  0  2  0  0  0  0  0  0
  191.2870  171.9890  144.2880 C   0  0  0  0  0  2  0  0  0  0  0  0
  192.7510  172.5860  143.3920 S   0  0  0  0  0  0  0  0  0  0  0  0
  194.0420  172.2700  145.6520 O   0  0  0  0  0  0  0  0  0  0  0  0
  193.5640  173.1040  144.9010 C   0  0  0  0  0  0  0  0  0  0  0  0
  193.6400  174.5520  145.2490 C   0  0  0  0  0  2  0  0  0  0  0  0
  191.0390  175.6720  147.8840 C   0  0  0  0  0  1  0  0  0  0  0  0
  191.6990  175.4660  146.5690 C   0  0  0  0  0  0  0  0  0  0  0  0
  191.1460  175.8890  145.5200 O   0  0  0  0  0  0  0  0  0  0  0  0
  192.9550  174.7900  146.5090 N   0  0  0  0  0  2  0  0  0  0  0  0
  189.9060  178.2070  143.0930 O   0  0  0  0  0  0  0  0  0  0  0  0
  189.0570  177.3090  142.8550 C   0  0  0  0  0  0  0  0  0  0  0  0
  189.5060  176.0620  142.3090 N   0  0  0  0  0  2  0  0  0  0  0  0
  185.7440  178.5660  145.6900 C   0  0  1  0  0  3  0  0  0  0  0  0
  187.5920  177.0740  145.4630 N   0  0  0  0  0  2  0  0  0  0  0  0
  186.7470  177.7000  146.4660 C   0  0  0  0  0  2  0  0  0  0  0  0
  185.6950  177.9710  144.2890 C   0  0  2  0  0  3  0  0  0  0  0  0
  187.6270  177.5840  143.1080 C   0  0  2  0  0  3  0  0  0  0  0  0
  186.8400  178.6010  142.3590 C   0  0  2  0  0  3  0  0  0  0  0  0
  186.9720  177.2740  144.2070 C   0  0  1  0  0  3  0  0  0  0  0  0
  184.1400  178.4710  146.4510 Cl  0  0  0  0  0  0  0  0  0  0  0  0
  185.7370  178.9970  143.2450 N   0  0  0  0  0  2  0  0  0  0  0  0
  186.3060  178.0230  141.1200 C   0  0  0  0  0  0  0  0  0  0  0  0
  185.8850  177.5660  140.1440 N   0  0  0  0  0  0  0  0  0  0  0  0
  1 18  1  0  0  0  0
  2  1  1  1  0  0  0
  2  4  1  0  0  0  0
  2  3  1  0  0  0  0
  3  5  1  0  0  0  0
  4  6  1  0  0  0  0
  5  7  1  6  0  0  0
  6  5  1  0  0  0  0
  8  7  1  0  0  0  0
  8 10  1  0  0  0  0
 10 11  1  0  0  0  0
 10  9  2  0  0  0  0
 11 15  1  0  0  0  0
 13 12  1  0  0  0  0
 14 13  2  0  0  0  0
 15 13  1  0  0  0  0
 17 16  2  0  0  0  0
 18 17  1  0  0  0  0
 19 26  1  1  0  0  0
 19 21  1  0  0  0  0
 20 21  1  0  0  0  0
 22 27  1  6  0  0  0
 22 19  1  0  0  0  0
 23 17  1  1  0  0  0
 23 25  1  0  0  0  0
 24 28  1  6  0  0  0
 24 23  1  0  0  0  0
 24 27  1  0  0  0  0
 25 22  1  0  0  0  0
 25 20  1  1  0  0  0
 29 28  3  0  0  0  0
M  END
>  <MODEL>
3

>  <REMARK>
 VINA RESULT:      -5.9      3.809      7.098
  Name = 
  9 active torsions:
  status: ('A' for Active; 'I' for Inactive)
    1  A    between atoms: C_1  and  N_12
    2  A    between atoms: C_7  and  C_16
    3  A    between atoms: C_11  and  C_20
    4  A    between atoms: C_11  and  S_21
    5  A    between atoms: N_12  and  N_29
    6  A    between atoms: C_13  and  C_18
    7  A    between atoms: C_14  and  S_21
    8  A    between atoms: C_14  and  C_25
    9  A    between atoms: N_24  and  C_25
                            x       y       z     vdW  Elec       q    Type
                         _______ _______ _______ _____ _____    ______ ____

>  <TORSDO>
F 9

$$$$
=
 OpenBabel11042417263D

 29 31  0  0  1  0  0  0  0  0999 V2000
  189.8850  174.8920  142.3890 N   0  0  0  0  0  2  0  0  0  0  0  0
  188.4880  175.2910  142.3090 C   0  0  1  0  0  3  0  0  0  0  0  0
  188.3070  176.6710  142.9170 C   0  0  0  0  0  2  0  0  0  0  0  0
  188.0710  175.3900  140.8550 C   0  0  0  0  0  2  0  0  0  0  0  0
  187.8280  177.5800  141.8010 C   0  0  1  0  0  3  0  0  0  0  0  0
  187.2650  176.6630  140.7420 C   0  0  0  0  0  2  0  0  0  0  0  0
  186.7480  178.5210  142.3000 C   0  0  0  0  0  2  0  0  0  0  0  0
  185.4100  177.5800  143.0930 S   0  0  0  0  0  0  0  0  0  0  0  0
  185.4740  180.0140  144.0680 O   0  0  0  0  0  0  0  0  0  0  0  0
  185.1030  178.8730  144.2940 C   0  0  0  0  0  0  0  0  0  0  0  0
  184.4130  178.5540  145.5760 C   0  0  0  0  0  2  0  0  0  0  0  0
  187.0560  178.8360  148.3860 C   0  0  0  0  0  1  0  0  0  0  0  0
  186.2750  178.2820  147.2500 C   0  0  0  0  0  0  0  0  0  0  0  0
  186.5650  177.1460  146.7880 O   0  0  0  0  0  0  0  0  0  0  0  0
  185.2030  179.0430  146.6930 N   0  0  0  0  0  2  0  0  0  0  0  0
  190.7670  172.0270  144.3930 O   0  0  0  0  0  0  0  0  0  0  0  0
  190.5760  173.2420  144.1250 C   0  0  0  0  0  0  0  0  0  0  0  0
  189.9240  173.5830  142.8940 N   0  0  0  0  0  2  0  0  0  0  0  0
  193.4420  176.6200  145.1080 C   0  0  1  0  0  3  0  0  0  0  0  0
  193.3490  174.3720  144.3130 N   0  0  0  0  0  2  0  0  0  0  0  0
  194.2060  175.5450  144.3220 C   0  0  0  0  0  2  0  0  0  0  0  0
  192.4530  175.8560  145.9790 C   0  0  2  0  0  3  0  0  0  0  0  0
  191.0620  174.2720  145.0660 C   0  0  2  0  0  3  0  0  0  0  0  0
  190.2050  175.3640  145.6040 C   0  0  2  0  0  3  0  0  0  0  0  0
  192.3230  174.5950  145.2610 C   0  0  1  0  0  3  0  0  0  0  0  0
  194.5670  177.5450  146.1280 Cl  0  0  0  0  0  0  0  0  0  0  0  0
  191.1180  176.4570  145.9660 N   0  0  0  0  0  2  0  0  0  0  0  0
  189.4790  174.9030  146.7940 C   0  0  0  0  0  0  0  0  0  0  0  0
  188.9060  174.5400  147.7310 N   0  0  0  0  0  0  0  0  0  0  0  0
  1 18  1  0  0  0  0
  2  1  1  6  0  0  0
  2  3  1  0  0  0  0
  4  2  1  0  0  0  0
  5  7  1  1  0  0  0
  5  3  1  0  0  0  0
  6  4  1  0  0  0  0
  6  5  1  0  0  0  0
  7  8  1  0  0  0  0
  8 10  1  0  0  0  0
  9 10  2  0  0  0  0
 10 11  1  0  0  0  0
 11 15  1  0  0  0  0
 13 12  1  0  0  0  0
 14 13  2  0  0  0  0
 15 13  1  0  0  0  0
 17 16  2  0  0  0  0
 18 17  1  0  0  0  0
 19 22  1  0  0  0  0
 19 26  1  1  0  0  0
 20 21  1  0  0  0  0
 21 19  1  0  0  0  0
 22 27  1  6  0  0  0
 23 17  1  6  0  0  0
 23 25  1  0  0  0  0
 23 24  1  0  0  0  0
 24 27  1  0  0  0  0
 24 28  1  1  0  0  0
 25 20  1  6  0  0  0
 25 22  1  0  0  0  0
 28 29  3  0  0  0  0
M  END
>  <MODEL>
4

>  <REMARK>
 VINA RESULT:      -5.9      2.665      4.390
  Name = 
  9 active torsions:
  status: ('A' for Active; 'I' for Inactive)
    1  A    between atoms: C_1  and  N_12
    2  A    between atoms: C_7  and  C_16
    3  A    between atoms: C_11  and  C_20
    4  A    between atoms: C_11  and  S_21
    5  A    between atoms: N_12  and  N_29
    6  A    between atoms: C_13  and  C_18
    7  A    between atoms: C_14  and  S_21
    8  A    between atoms: C_14  and  C_25
    9  A    between atoms: N_24  and  C_25
                            x       y       z     vdW  Elec       q    Type
                         _______ _______ _______ _____ _____    ______ ____

>  <TORSDO>
F 9

$$$$
=
 OpenBabel11042417263D

 29 31  0  0  1  0  0  0  0  0999 V2000
  189.0260  177.3380  146.7990 N   0  0  0  0  0  2  0  0  0  0  0  0
  187.6800  177.8640  146.6330 C   0  0  1  0  0  3  0  0  0  0  0  0
  187.3390  177.9590  145.1550 C   0  0  0  0  0  2  0  0  0  0  0  0
  186.6810  176.9090  147.2570 C   0  0  0  0  0  2  0  0  0  0  0  0
  186.1700  177.0230  144.9160 C   0  0  1  0  0  3  0  0  0  0  0  0
  185.5400  176.8020  146.2710 C   0  0  0  0  0  2  0  0  0  0  0  0
  185.1620  177.6510  143.9720 C   0  0  0  0  0  2  0  0  0  0  0  0
  185.9580  178.9390  142.9670 S   0  0  0  0  0  0  0  0  0  0  0  0
  184.8290  177.9150  140.8330 O   0  0  0  0  0  0  0  0  0  0  0  0
  185.8650  177.9480  141.4780 C   0  0  0  0  0  0  0  0  0  0  0  0
  187.0450  177.1500  141.0360 C   0  0  0  0  0  2  0  0  0  0  0  0
  188.0130  173.5890  142.1950 C   0  0  0  0  0  1  0  0  0  0  0  0
  188.0450  174.8770  141.4550 C   0  0  0  0  0  0  0  0  0  0  0  0
  188.9440  175.0820  140.5960 O   0  0  0  0  0  0  0  0  0  0  0  0
  187.0560  175.8700  141.7240 N   0  0  0  0  0  2  0  0  0  0  0  0
  189.5140  174.0800  145.3320 O   0  0  0  0  0  0  0  0  0  0  0  0
  189.7830  175.2750  145.6230 C   0  0  0  0  0  0  0  0  0  0  0  0
  188.9680  175.9510  146.5890 N   0  0  0  0  0  2  0  0  0  0  0  0
  194.2120  175.5520  144.6710 C   0  0  1  0  0  3  0  0  0  0  0  0
  192.6600  175.3610  146.4730 N   0  0  0  0  0  2  0  0  0  0  0  0
  194.0540  175.1270  146.1380 C   0  0  0  0  0  2  0  0  0  0  0  0
  193.0640  176.5180  144.4040 C   0  0  2  0  0  3  0  0  0  0  0  0
  190.9020  175.9490  144.9330 C   0  0  2  0  0  3  0  0  0  0  0  0
  190.9720  176.1240  143.4560 C   0  0  2  0  0  3  0  0  0  0  0  0
  192.1040  176.1440  145.4340 C   0  0  1  0  0  3  0  0  0  0  0  0
  195.7710  176.3750  144.4380 Cl  0  0  0  0  0  0  0  0  0  0  0  0
  192.3980  176.2540  143.1280 N   0  0  0  0  0  2  0  0  0  0  0  0
  190.2510  177.3370  143.0510 C   0  0  0  0  0  0  0  0  0  0  0  0
  189.6830  178.2930  142.7320 N   0  0  0  0  0  0  0  0  0  0  0  0
  2  1  1  6  0  0  0
  2  4  1  0  0  0  0
  3  2  1  0  0  0  0
  5  7  1  6  0  0  0
  5  3  1  0  0  0  0
  5  6  1  0  0  0  0
  6  4  1  0  0  0  0
  8  7  1  0  0  0  0
  9 10  2  0  0  0  0
 10  8  1  0  0  0  0
 11 10  1  0  0  0  0
 11 15  1  0  0  0  0
 13 15  1  0  0  0  0
 13 12  1  0  0  0  0
 14 13  2  0  0  0  0
 16 17  2  0  0  0  0
 17 18  1  0  0  0  0
 18  1  1  0  0  0  0
 19 26  1  1  0  0  0
 19 21  1  0  0  0  0
 21 20  1  0  0  0  0
 22 27  1  6  0  0  0
 22 19  1  0  0  0  0
 22 25  1  0  0  0  0
 23 25  1  0  0  0  0
 23 17  1  6  0  0  0
 24 28  1  1  0  0  0
 24 23  1  0  0  0  0
 25 20  1  6  0  0  0
 27 24  1  0  0  0  0
 29 28  3  0  0  0  0
M  END
>  <MODEL>
5

>  <REMARK>
 VINA RESULT:      -5.8      2.415      3.742
  Name = 
  9 active torsions:
  status: ('A' for Active; 'I' for Inactive)
    1  A    between atoms: C_1  and  N_12
    2  A    between atoms: C_7  and  C_16
    3  A    between atoms: C_11  and  C_20
    4  A    between atoms: C_11  and  S_21
    5  A    between atoms: N_12  and  N_29
    6  A    between atoms: C_13  and  C_18
    7  A    between atoms: C_14  and  S_21
    8  A    between atoms: C_14  and  C_25
    9  A    between atoms: N_24  and  C_25
                            x       y       z     vdW  Elec       q    Type
                         _______ _______ _______ _____ _____    ______ ____

>  <TORSDO>
F 9

$$$$
=
 OpenBabel11042417263D

 29 31  0  0  1  0  0  0  0  0999 V2000
  189.8370  175.6970  142.8050 N   0  0  0  0  0  2  0  0  0  0  0  0
  188.3990  175.9170  142.7970 C   0  0  1  0  0  3  0  0  0  0  0  0
  188.0880  177.3320  143.2570 C   0  0  0  0  0  2  0  0  0  0  0  0
  187.8740  175.7880  141.3800 C   0  0  0  0  0  2  0  0  0  0  0  0
  187.4230  178.0350  142.0890 C   0  0  1  0  0  3  0  0  0  0  0  0
  186.9080  176.9360  141.1910 C   0  0  0  0  0  2  0  0  0  0  0  0
  186.2710  178.8970  142.5660 C   0  0  0  0  0  2  0  0  0  0  0  0
  184.7340  177.9280  142.6100 S   0  0  0  0  0  0  0  0  0  0  0  0
  183.6890  179.1810  144.6630 O   0  0  0  0  0  0  0  0  0  0  0  0
  184.4590  178.2900  144.3420 C   0  0  0  0  0  0  0  0  0  0  0  0
  185.1840  177.5170  145.3910 C   0  0  0  0  0  2  0  0  0  0  0  0
  186.9660  179.1920  148.3890 C   0  0  0  0  0  1  0  0  0  0  0  0
  186.7050  178.2720  147.2520 C   0  0  0  0  0  0  0  0  0  0  0  0
  187.5610  177.4000  146.9450 O   0  0  0  0  0  0  0  0  0  0  0  0
  185.4860  178.3840  146.5180 N   0  0  0  0  0  2  0  0  0  0  0  0
  191.8170  178.5090  143.8880 O   0  0  0  0  0  0  0  0  0  0  0  0
  191.4750  177.3020  143.7800 C   0  0  0  0  0  0  0  0  0  0  0  0
  190.4590  176.9550  142.8300 N   0  0  0  0  0  2  0  0  0  0  0  0
  195.1990  175.4740  145.6200 C   0  0  1  0  0  3  0  0  0  0  0  0
  194.2340  176.1470  143.5440 N   0  0  0  0  0  2  0  0  0  0  0  0
  195.5150  175.8710  144.1710 C   0  0  0  0  0  2  0  0  0  0  0  0
  193.7510  175.0010  145.6020 C   0  0  2  0  0  3  0  0  0  0  0  0
  192.1030  176.2950  144.6590 C   0  0  2  0  0  3  0  0  0  0  0  0
  191.7950  176.1630  146.1100 C   0  0  2  0  0  3  0  0  0  0  0  0
  193.2290  175.6590  144.4110 C   0  0  1  0  0  3  0  0  0  0  0  0
  196.2680  174.1510  146.1380 Cl  0  0  0  0  0  0  0  0  0  0  0  0
  192.9750  175.5370  146.7220 N   0  0  0  0  0  2  0  0  0  0  0  0
  190.6160  175.3100  146.3050 C   0  0  0  0  0  0  0  0  0  0  0  0
  189.6870  174.6380  146.4600 N   0  0  0  0  0  0  0  0  0  0  0  0
  1 18  1  0  0  0  0
  2  1  1  6  0  0  0
  2  3  1  0  0  0  0
  4  2  1  0  0  0  0
  5  7  1  1  0  0  0
  5  3  1  0  0  0  0
  6  4  1  0  0  0  0
  6  5  1  0  0  0  0
  7  8  1  0  0  0  0
  8 10  1  0  0  0  0
 10  9  2  0  0  0  0
 10 11  1  0  0  0  0
 11 15  1  0  0  0  0
 13 12  1  0  0  0  0
 14 13  2  0  0  0  0
 15 13  1  0  0  0  0
 17 16  2  0  0  0  0
 18 17  1  0  0  0  0
 19 26  1  6  0  0  0
 20 21  1  0  0  0  0
 21 19  1  0  0  0  0
 22 19  1  0  0  0  0
 22 27  1  1  0  0  0
 23 17  1  1  0  0  0
 23 24  1  0  0  0  0
 24 28  1  6  0  0  0
 24 27  1  0  0  0  0
 25 20  1  1  0  0  0
 25 23  1  0  0  0  0
 25 22  1  0  0  0  0
 28 29  3  0  0  0  0
M  END
>  <MODEL>
6

>  <REMARK>
 VINA RESULT:      -5.8      2.434      3.954
  Name = 
  9 active torsions:
  status: ('A' for Active; 'I' for Inactive)
    1  A    between atoms: C_1  and  N_12
    2  A    between atoms: C_7  and  C_16
    3  A    between atoms: C_11  and  C_20
    4  A    between atoms: C_11  and  S_21
    5  A    between atoms: N_12  and  N_29
    6  A    between atoms: C_13  and  C_18
    7  A    between atoms: C_14  and  S_21
    8  A    between atoms: C_14  and  C_25
    9  A    between atoms: N_24  and  C_25
                            x       y       z     vdW  Elec       q    Type
                         _______ _______ _______ _____ _____    ______ ____

>  <TORSDO>
F 9

$$$$
=
 OpenBabel11042417263D

 29 31  0  0  1  0  0  0  0  0999 V2000
  189.9550  175.6350  144.9200 N   0  0  0  0  0  2  0  0  0  0  0  0
  189.3770  176.4120  146.0050 C   0  0  1  0  0  3  0  0  0  0  0  0
  188.4340  177.4640  145.4460 C   0  0  0  0  0  2  0  0  0  0  0  0
  188.5490  175.5040  146.8940 C   0  0  0  0  0  2  0  0  0  0  0  0
  187.0510  177.1370  145.9750 C   0  0  1  0  0  3  0  0  0  0  0  0
  187.2740  176.2630  147.1860 C   0  0  0  0  0  2  0  0  0  0  0  0
  186.3160  178.4010  146.3770 C   0  0  0  0  0  2  0  0  0  0  0  0
  184.5680  178.2950  145.8910 S   0  0  0  0  0  0  0  0  0  0  0  0
  185.4290  180.1630  144.2640 O   0  0  0  0  0  0  0  0  0  0  0  0
  184.8770  179.0750  144.3090 C   0  0  0  0  0  0  0  0  0  0  0  0
  184.4440  178.4060  143.0480 C   0  0  0  0  0  2  0  0  0  0  0  0
  187.2120  175.8710  142.1120 C   0  0  0  0  0  1  0  0  0  0  0  0
  186.4870  177.1590  142.2650 C   0  0  0  0  0  0  0  0  0  0  0  0
  187.0220  178.2270  141.8630 O   0  0  0  0  0  0  0  0  0  0  0  0
  185.1930  177.1740  142.8650 N   0  0  0  0  0  2  0  0  0  0  0  0
  191.7840  177.8710  142.7620 O   0  0  0  0  0  0  0  0  0  0  0  0
  191.6040  176.9040  143.5470 C   0  0  0  0  0  0  0  0  0  0  0  0
  190.2610  176.5240  143.8780 N   0  0  0  0  0  2  0  0  0  0  0  0
  195.7030  175.0240  143.0380 C   0  0  1  0  0  3  0  0  0  0  0  0
  193.4820  175.0170  142.1640 N   0  0  0  0  0  2  0  0  0  0  0  0
  194.8490  174.6730  141.8100 C   0  0  0  0  0  2  0  0  0  0  0  0
  194.7360  175.0230  144.2150 C   0  0  2  0  0  3  0  0  0  0  0  0
  192.7770  176.2200  144.1290 C   0  0  2  0  0  3  0  0  0  0  0  0
  193.6080  176.7980  145.2200 C   0  0  2  0  0  3  0  0  0  0  0  0
  193.4540  175.2450  143.5590 C   0  0  1  0  0  3  0  0  0  0  0  0
  196.9610  173.7910  143.2790 Cl  0  0  0  0  0  0  0  0  0  0  0  0
  194.9330  176.1740  145.0980 N   0  0  0  0  0  2  0  0  0  0  0  0
  193.0230  176.4820  146.5290 C   0  0  0  0  0  0  0  0  0  0  0  0
  192.5620  176.2320  147.5600 N   0  0  0  0  0  0  0  0  0  0  0  0
  2  1  1  6  0  0  0
  2  4  1  0  0  0  0
  3  5  1  0  0  0  0
  3  2  1  0  0  0  0
  4  6  1  0  0  0  0
  5  7  1  1  0  0  0
  5  6  1  0  0  0  0
  8  7  1  0  0  0  0
  9 10  2  0  0  0  0
 10  8  1  0  0  0  0
 11 10  1  0  0  0  0
 12 13  1  0  0  0  0
 13 15  1  0  0  0  0
 14 13  2  0  0  0  0
 15 11  1  0  0  0  0
 16 17  2  0  0  0  0
 17 18  1  0  0  0  0
 18  1  1  0  0  0  0
 19 26  1  1  0  0  0
 19 22  1  0  0  0  0
 21 20  1  0  0  0  0
 21 19  1  0  0  0  0
 22 27  1  1  0  0  0
 23 17  1  6  0  0  0
 23 24  1  0  0  0  0
 24 28  1  1  0  0  0
 25 20  1  6  0  0  0
 25 23  1  0  0  0  0
 25 22  1  0  0  0  0
 27 24  1  0  0  0  0
 28 29  3  0  0  0  0
M  END
>  <MODEL>
7

>  <REMARK>
 VINA RESULT:      -5.8      1.964      2.969
  Name = 
  9 active torsions:
  status: ('A' for Active; 'I' for Inactive)
    1  A    between atoms: C_1  and  N_12
    2  A    between atoms: C_7  and  C_16
    3  A    between atoms: C_11  and  C_20
    4  A    between atoms: C_11  and  S_21
    5  A    between atoms: N_12  and  N_29
    6  A    between atoms: C_13  and  C_18
    7  A    between atoms: C_14  and  S_21
    8  A    between atoms: C_14  and  C_25
    9  A    between atoms: N_24  and  C_25
                            x       y       z     vdW  Elec       q    Type
                         _______ _______ _______ _____ _____    ______ ____

>  <TORSDO>
F 9

$$$$
=
 OpenBabel11042417263D

 29 31  0  0  1  0  0  0  0  0999 V2000
  189.7790  176.1260  146.0300 N   0  0  0  0  0  2  0  0  0  0  0  0
  188.7270  177.1140  145.8480 C   0  0  1  0  0  3  0  0  0  0  0  0
  187.4480  176.4330  145.3930 C   0  0  0  0  0  2  0  0  0  0  0  0
  188.4240  177.7820  147.1750 C   0  0  0  0  0  2  0  0  0  0  0  0
  186.4170  176.6690  146.4800 C   0  0  1  0  0  3  0  0  0  0  0  0
  186.9170  177.8570  147.2650 C   0  0  0  0  0  2  0  0  0  0  0  0
  185.0610  176.9800  145.8760 C   0  0  0  0  0  2  0  0  0  0  0  0
  184.6430  178.7300  146.1330 S   0  0  0  0  0  0  0  0  0  0  0  0
  185.5710  180.1170  144.1100 O   0  0  0  0  0  0  0  0  0  0  0  0
  184.9150  179.1320  144.4090 C   0  0  0  0  0  0  0  0  0  0  0  0
  184.3260  178.2760  143.3400 C   0  0  0  0  0  2  0  0  0  0  0  0
  186.3510  177.5380  140.1280 C   0  0  0  0  0  1  0  0  0  0  0  0
  185.2460  177.9890  141.0130 C   0  0  0  0  0  0  0  0  0  0  0  0
  184.2090  178.4960  140.5080 O   0  0  0  0  0  0  0  0  0  0  0  0
  185.3710  177.8430  142.4270 N   0  0  0  0  0  2  0  0  0  0  0  0
  189.7620  173.7510  143.3160 O   0  0  0  0  0  0  0  0  0  0  0  0
  190.2370  174.6100  144.1050 C   0  0  0  0  0  0  0  0  0  0  0  0
  189.4570  175.0120  145.2380 N   0  0  0  0  0  2  0  0  0  0  0  0
  194.5840  174.0980  142.9040 C   0  0  1  0  0  3  0  0  0  0  0  0
  192.9200  173.3010  144.4170 N   0  0  0  0  0  2  0  0  0  0  0  0
  194.1890  172.9280  143.8170 C   0  0  0  0  0  2  0  0  0  0  0  0
  193.8250  175.3040  143.4440 C   0  0  2  0  0  3  0  0  0  0  0  0
  191.5610  175.1990  143.8160 C   0  0  2  0  0  3  0  0  0  0  0  0
  191.7940  176.2180  142.7570 C   0  0  2  0  0  3  0  0  0  0  0  0
  192.7210  174.6770  144.1580 C   0  0  1  0  0  3  0  0  0  0  0  0
  196.3360  174.3840  143.0020 Cl  0  0  0  0  0  0  0  0  0  0  0  0
  193.2090  176.0970  142.3780 N   0  0  0  0  0  2  0  0  0  0  0  0
  191.5280  177.5650  143.2770 C   0  0  0  0  0  0  0  0  0  0  0  0
  191.3180  178.6260  143.6880 N   0  0  0  0  0  0  0  0  0  0  0  0
  2  1  1  1  0  0  0
  2  4  1  0  0  0  0
  3  2  1  0  0  0  0
  3  5  1  0  0  0  0
  4  6  1  0  0  0  0
  5  7  1  6  0  0  0
  5  6  1  0  0  0  0
  7  8  1  0  0  0  0
  9 10  2  0  0  0  0
 10  8  1  0  0  0  0
 11 10  1  0  0  0  0
 12 13  1  0  0  0  0
 13 15  1  0  0  0  0
 14 13  2  0  0  0  0
 15 11  1  0  0  0  0
 16 17  2  0  0  0  0
 17 18  1  0  0  0  0
 18  1  1  0  0  0  0
 19 26  1  1  0  0  0
 19 22  1  0  0  0  0
 19 21  1  0  0  0  0
 21 20  1  0  0  0  0
 22 27  1  6  0  0  0
 22 25  1  0  0  0  0
 23 17  1  6  0  0  0
 23 25  1  0  0  0  0
 24 28  1  1  0  0  0
 24 23  1  0  0  0  0
 25 20  1  6  0  0  0
 27 24  1  0  0  0  0
 28 29  3  0  0  0  0
M  END
>  <MODEL>
8

>  <REMARK>
 VINA RESULT:      -5.8      2.005      2.810
  Name = 
  9 active torsions:
  status: ('A' for Active; 'I' for Inactive)
    1  A    between atoms: C_1  and  N_12
    2  A    between atoms: C_7  and  C_16
    3  A    between atoms: C_11  and  C_20
    4  A    between atoms: C_11  and  S_21
    5  A    between atoms: N_12  and  N_29
    6  A    between atoms: C_13  and  C_18
    7  A    between atoms: C_14  and  S_21
    8  A    between atoms: C_14  and  C_25
    9  A    between atoms: N_24  and  C_25
                            x       y       z     vdW  Elec       q    Type
                         _______ _______ _______ _____ _____    ______ ____

>  <TORSDO>
F 9

$$$$
=
 OpenBabel11042417263D

 29 31  0  0  1  0  0  0  0  0999 V2000
  188.6080  175.7990  146.3070 N   0  0  0  0  0  2  0  0  0  0  0  0
  189.5800  174.7850  146.6850 C   0  0  1  0  0  3  0  0  0  0  0  0
  189.9480  173.9420  145.4760 C   0  0  0  0  0  2  0  0  0  0  0  0
  190.8540  175.4560  147.1610 C   0  0  0  0  0  2  0  0  0  0  0  0
  191.4270  174.1610  145.2250 C   0  0  1  0  0  3  0  0  0  0  0  0
  191.9880  174.6850  146.5250 C   0  0  0  0  0  2  0  0  0  0  0  0
  192.1090  172.8580  144.8540 C   0  0  0  0  0  2  0  0  0  0  0  0
  193.4110  173.1560  143.6220 S   0  0  0  0  0  0  0  0  0  0  0  0
  194.6770  171.9990  145.6060 O   0  0  0  0  0  0  0  0  0  0  0  0
  194.7160  172.9400  144.8300 C   0  0  0  0  0  0  0  0  0  0  0  0
  195.8390  173.9190  144.8990 C   0  0  0  0  0  2  0  0  0  0  0  0
  194.5950  177.3750  146.1120 C   0  0  0  0  0  1  0  0  0  0  0  0
  194.9770  176.2660  145.2000 C   0  0  0  0  0  0  0  0  0  0  0  0
  194.8700  176.4180  143.9530 O   0  0  0  0  0  0  0  0  0  0  0  0
  195.4610  175.0390  145.7440 N   0  0  0  0  0  2  0  0  0  0  0  0
  189.8750  178.2680  144.0030 O   0  0  0  0  0  0  0  0  0  0  0  0
  189.0540  177.4470  144.4900 C   0  0  0  0  0  0  0  0  0  0  0  0
  189.3180  176.8930  145.7860 N   0  0  0  0  0  2  0  0  0  0  0  0
  185.0720  178.5120  142.5900 C   0  0  1  0  0  3  0  0  0  0  0  0
  186.2930  178.6130  144.6380 N   0  0  0  0  0  2  0  0  0  0  0  0
  185.1730  179.2270  143.9450 C   0  0  0  0  0  2  0  0  0  0  0  0
  185.7630  177.1680  142.7900 C   0  0  2  0  0  3  0  0  0  0  0  0
  187.8710  177.0550  143.6960 C   0  0  2  0  0  3  0  0  0  0  0  0
  187.9510  176.5300  142.3050 C   0  0  2  0  0  3  0  0  0  0  0  0
  186.6330  177.4380  143.9270 C   0  0  1  0  0  3  0  0  0  0  0  0
  183.3660  178.2630  142.1570 Cl  0  0  0  0  0  0  0  0  0  0  0  0
  186.6560  176.8300  141.6800 N   0  0  0  0  0  2  0  0  0  0  0  0
  188.1770  175.0790  142.3190 C   0  0  0  0  0  0  0  0  0  0  0  0
  188.3550  173.9360  142.3310 N   0  0  0  0  0  0  0  0  0  0  0  0
  2  1  1  6  0  0  0
  2  4  1  0  0  0  0
  3  2  1  0  0  0  0
  5  7  1  1  0  0  0
  5  3  1  0  0  0  0
  5  6  1  0  0  0  0
  6  4  1  0  0  0  0
  8 10  1  0  0  0  0
  8  7  1  0  0  0  0
 10 11  1  0  0  0  0
 10  9  2  0  0  0  0
 11 15  1  0  0  0  0
 13 15  1  0  0  0  0
 13 12  1  0  0  0  0
 14 13  2  0  0  0  0
 16 17  2  0  0  0  0
 17 18  1  0  0  0  0
 18  1  1  0  0  0  0
 19 26  1  1  0  0  0
 19 22  1  0  0  0  0
 19 21  1  0  0  0  0
 21 20  1  0  0  0  0
 22 27  1  6  0  0  0
 22 25  1  0  0  0  0
 23 25  1  0  0  0  0
 23 17  1  6  0  0  0
 24 28  1  1  0  0  0
 24 23  1  0  0  0  0
 25 20  1  6  0  0  0
 27 24  1  0  0  0  0
 28 29  3  0  0  0  0
M  END
>  <MODEL>
9

>  <REMARK>
 VINA RESULT:      -5.8      3.996      7.291
  Name = 
  9 active torsions:
  status: ('A' for Active; 'I' for Inactive)
    1  A    between atoms: C_1  and  N_12
    2  A    between atoms: C_7  and  C_16
    3  A    between atoms: C_11  and  C_20
    4  A    between atoms: C_11  and  S_21
    5  A    between atoms: N_12  and  N_29
    6  A    between atoms: C_13  and  C_18
    7  A    between atoms: C_14  and  S_21
    8  A    between atoms: C_14  and  C_25
    9  A    between atoms: N_24  and  C_25
                            x       y       z     vdW  Elec       q    Type
                         _______ _______ _______ _____ _____    ______ ____

>  <TORSDO>
F 9

$$$$
