=
 OpenBabel11042417023D

 44 50  0  0  1  0  0  0  0  0999 V2000
  184.2220  178.4780  144.1690 C   0  0  0  0  0  3  0  0  0  0  0  0
  187.5670  177.9830  144.9820 C   0  0  0  0  0  0  0  0  0  0  0  0
  185.5780  177.9410  146.2620 C   0  0  0  0  0  3  0  0  0  0  0  0
  187.8830  177.9330  142.1720 C   0  0  0  0  0  0  0  0  0  0  0  0
  186.6550  178.5460  144.2310 C   0  0  0  0  0  0  0  0  0  0  0  0
  184.0480  177.9910  140.4030 N   0  0  0  0  0  2  0  0  0  0  0  0
  187.0080  177.6040  146.2420 N   0  0  0  0  0  0  0  0  0  0  0  0
  185.3610  178.4840  144.8850 C   0  0  0  0  0  0  0  0  0  0  0  0
  183.3910  178.2290  141.6550 C   0  0  0  0  0  0  0  0  0  0  0  0
  186.8350  178.8440  142.7830 C   0  0  0  0  0  0  0  0  0  0  0  0
  184.3360  178.6420  142.6930 C   0  0  0  0  0  0  0  0  0  0  0  0
  187.7290  177.4500  140.9200 C   0  0  0  0  0  3  0  0  0  0  0  0
  188.8440  177.5070  144.3950 C   0  0  0  0  0  3  0  0  0  0  0  0
  185.5180  178.7080  142.0930 C   0  0  0  0  0  0  0  0  0  0  0  0
  186.4540  177.6210  140.1580 C   0  0  0  0  0  3  0  0  0  0  0  0
  182.1610  178.0450  141.8340 O   0  0  0  0  0  0  0  0  0  0  0  0
  185.4130  178.2330  140.7380 C   0  0  0  0  0  0  0  0  0  0  0  0
  189.0100  177.5010  143.0540 C   0  0  0  0  0  0  0  0  0  0  0  0
  190.2900  177.0000  142.4790 C   0  0  0  0  0  2  0  0  0  0  0  0
  190.4570  175.5950  142.8150 N   0  0  0  0  0  2  0  0  0  0  0  0
  188.3520  173.7250  139.0940 C   0  0  0  0  0  2  0  0  0  0  0  0
  191.9260  173.0450  138.1900 C   0  0  0  0  0  0  0  0  0  0  0  0
  192.0910  173.3170  136.9710 O   0  0  0  0  0  0  0  0  0  0  0  0
  189.4810  173.6870  138.0790 C   0  0  0  0  0  2  0  0  0  0  0  0
  190.6550  173.2590  138.8120 N   0  0  0  0  0  0  0  0  0  0  0  0
  188.4270  173.9360  141.8360 S   0  0  0  0  0  0  0  0  0  0  0  0
  190.1000  174.5320  141.9290 C   0  0  0  0  0  0  0  0  0  0  0  0
  190.3840  172.9330  140.1990 C   0  0  2  0  0  3  0  0  0  0  0  0
  188.8650  173.0000  140.3330 C   0  0  2  0  0  3  0  0  0  0  0  0
  190.9570  173.9820  141.0880 C   0  0  0  0  0  3  0  0  0  0  0  0
  192.9890  172.5330  138.9260 O   0  0  0  0  0  1  0  0  0  0  0  0
  187.6700  176.7880  147.2490 C   0  0  0  0  0  2  0  0  0  0  0  0
  188.2410  175.5200  146.6240 C   0  0  0  0  0  2  0  0  0  0  0  0
  189.5070  175.0770  147.3440 C   0  0  0  0  0  2  0  0  0  0  0  0
  190.6330  175.8840  146.9080 N   0  0  0  0  0  2  0  0  0  0  0  0
  191.8360  175.2180  147.3810 C   0  0  0  0  0  2  0  0  0  0  0  0
  192.7880  175.0820  146.2840 N   0  0  0  0  0  0  0  0  0  0  0  0
  194.1770  177.0300  146.6060 C   0  0  0  0  0  2  0  0  0  0  0  0
  193.5270  176.2120  145.7800 C   0  0  0  0  0  0  0  0  0  0  0  0
  195.0460  176.2580  143.9090 N   0  0  0  0  0  1  0  0  0  0  0  0
  193.6620  176.4420  144.3100 C   0  0  0  0  0  2  0  0  0  0  0  0
  192.9970  173.7440  145.7460 C   0  0  0  0  0  2  0  0  0  0  0  0
  192.2580  172.1740  144.1930 C   0  0  0  0  0  1  0  0  0  0  0  0
  191.8520  173.3480  144.9420 N   0  0  0  0  0  2  0  0  0  0  0  0
  1  8  1  0  0  0  0
  2  7  1  0  0  0  0
  4 10  1  0  0  0  0
  4 18  1  0  0  0  0
  5  8  1  0  0  0  0
  5  2  2  0  0  0  0
  6 17  1  0  0  0  0
  6  9  1  0  0  0  0
  7  3  1  0  0  0  0
  7 32  1  0  0  0  0
  8  3  2  0  0  0  0
  9 16  2  0  0  0  0
  9 11  1  0  0  0  0
 10  5  1  0  0  0  0
 11  1  2  0  0  0  0
 12  4  2  0  0  0  0
 13  2  1  0  0  0  0
 14 11  1  0  0  0  0
 14 10  2  0  0  0  0
 15 17  2  0  0  0  0
 15 12  1  0  0  0  0
 17 14  1  0  0  0  0
 18 13  2  0  0  0  0
 19 20  1  0  0  0  0
 19 18  1  0  0  0  0
 22 25  1  0  0  0  0
 22 31  1  0  0  0  0
 23 22  2  0  0  0  0
 24 25  1  0  0  0  0
 24 21  1  0  0  0  0
 25 28  1  0  0  0  0
 26 27  1  0  0  0  0
 27 20  1  0  0  0  0
 28 29  1  0  0  0  0
 28 30  1  1  0  0  0
 29 21  1  6  0  0  0
 29 26  1  0  0  0  0
 30 27  2  0  0  0  0
 33 32  1  0  0  0  0
 33 34  1  0  0  0  0
 35 34  1  0  0  0  0
 35 36  1  0  0  0  0
 37 36  1  0  0  0  0
 39 37  1  0  0  0  0
 39 38  2  0  0  0  0
 40 41  1  0  0  0  0
 41 39  1  0  0  0  0
 42 37  1  0  0  0  0
 43 44  1  0  0  0  0
 44 42  1  0  0  0  0
M  END
>  <MODEL>
1

>  <REMARK>
 VINA RESULT:      -7.5      0.000      0.000
  Name = 
  13 active torsions:
  status: ('A' for Active; 'I' for Inactive)
    1  A    between atoms: C_1  and  N_3
    2  A    between atoms: C_1  and  C_44
    3  A    between atoms: N_3  and  C_29
    4  A    between atoms: C_4  and  N_10
    5  A    between atoms: C_4  and  N_42
    6  A    between atoms: N_10  and  C_19
    7  A    between atoms: C_16  and  N_22
    8  A    between atoms: C_16  and  C_24
    9  A    between atoms: C_19  and  C_24
   10  A    between atoms: N_20  and  C_21
   11  A    between atoms: C_21  and  N_42
   12  A    between atoms: C_31  and  C_32
   13  A    between atoms: C_32  and  N_42
                            x       y       z     vdW  Elec       q    Type
                         _______ _______ _______ _____ _____    ______ ____

>  <TORSDO>
F 13

$$$$
=
 OpenBabel11042417023D

 44 50  0  0  1  0  0  0  0  0999 V2000
  193.6300  175.0910  141.8760 C   0  0  0  0  0  3  0  0  0  0  0  0
  190.4110  174.4120  143.0050 C   0  0  0  0  0  0  0  0  0  0  0  0
  191.6330  173.7030  141.1060 C   0  0  0  0  0  3  0  0  0  0  0  0
  191.3420  175.6770  145.3560 C   0  0  0  0  0  0  0  0  0  0  0  0
  191.4370  175.2210  142.9260 C   0  0  0  0  0  0  0  0  0  0  0  0
  195.4830  176.3910  144.9310 N   0  0  0  0  0  2  0  0  0  0  0  0
  190.4370  173.4720  141.9280 N   0  0  0  0  0  0  0  0  0  0  0  0
  192.3140  174.8120  141.8450 C   0  0  0  0  0  0  0  0  0  0  0  0
  195.4870  175.9980  143.5520 C   0  0  0  0  0  0  0  0  0  0  0  0
  191.8430  176.1600  144.0080 C   0  0  0  0  0  0  0  0  0  0  0  0
  194.1310  175.9220  143.0070 C   0  0  0  0  0  0  0  0  0  0  0  0
  192.1030  175.8200  146.4640 C   0  0  0  0  0  3  0  0  0  0  0  0
  189.6190  174.3120  144.2550 C   0  0  0  0  0  3  0  0  0  0  0  0
  193.3280  176.3050  143.9920 C   0  0  0  0  0  0  0  0  0  0  0  0
  193.5260  176.2730  146.3930 C   0  0  0  0  0  3  0  0  0  0  0  0
  196.5320  175.7020  142.9210 O   0  0  0  0  0  0  0  0  0  0  0  0
  194.0880  176.5060  145.1990 C   0  0  0  0  0  0  0  0  0  0  0  0
  190.0470  174.9320  145.3770 C   0  0  0  0  0  0  0  0  0  0  0  0
  189.2500  174.8050  146.6300 C   0  0  0  0  0  2  0  0  0  0  0  0
  188.6830  176.0980  146.9790 N   0  0  0  0  0  2  0  0  0  0  0  0
  185.4050  179.2760  146.0110 C   0  0  0  0  0  2  0  0  0  0  0  0
  185.9820  177.9120  142.5670 C   0  0  0  0  0  0  0  0  0  0  0  0
  186.0320  178.8760  141.7570 O   0  0  0  0  0  0  0  0  0  0  0  0
  185.5910  179.4760  144.5180 C   0  0  0  0  0  2  0  0  0  0  0  0
  185.8150  178.1540  143.9680 N   0  0  0  0  0  0  0  0  0  0  0  0
  186.2030  177.2110  147.6450 S   0  0  0  0  0  0  0  0  0  0  0  0
  187.4030  176.5390  146.5190 C   0  0  1  0  0  3  0  0  0  0  0  0
  185.7110  177.0940  144.9510 C   0  0  2  0  0  3  0  0  0  0  0  0
  185.2130  177.7770  146.2220 C   0  0  2  0  0  3  0  0  0  0  0  0
  187.0620  176.5380  145.2420 C   0  0  0  0  0  2  0  0  0  0  0  0
  186.0870  176.6110  142.0890 O   0  0  0  0  0  1  0  0  0  0  0  0
  189.5690  172.3100  141.7990 C   0  0  0  0  0  2  0  0  0  0  0  0
  190.0940  171.1510  142.6390 C   0  0  0  0  0  2  0  0  0  0  0  0
  190.9910  170.2400  141.8140 C   0  0  0  0  0  2  0  0  0  0  0  0
  191.9950  169.6270  142.6670 N   0  0  0  0  0  2  0  0  0  0  0  0
  193.2670  170.2440  142.3290 C   0  0  0  0  0  2  0  0  0  0  0  0
  194.0320  170.4940  143.5450 N   0  0  0  0  0  0  0  0  0  0  0  0
  193.0400  172.3940  144.6550 C   0  0  0  0  0  2  0  0  0  0  0  0
  194.1150  171.8090  144.1310 C   0  0  0  0  0  0  0  0  0  0  0  0
  195.6150  172.9730  145.6140 N   0  0  0  0  0  1  0  0  0  0  0  0
  195.4280  172.5100  144.2500 C   0  0  0  0  0  2  0  0  0  0  0  0
  194.6770  169.3480  144.1730 C   0  0  0  0  0  2  0  0  0  0  0  0
  195.1900  169.1390  146.4340 C   0  0  0  0  0  1  0  0  0  0  0  0
  194.0960  169.1070  145.4840 N   0  0  0  0  0  2  0  0  0  0  0  0
  1 11  2  0  0  0  0
  2 13  1  0  0  0  0
  3  8  2  0  0  0  0
  3  7  1  0  0  0  0
  4 18  1  0  0  0  0
  4 12  1  0  0  0  0
  5  2  2  0  0  0  0
  5 10  1  0  0  0  0
  6 17  1  0  0  0  0
  7  2  1  0  0  0  0
  8  1  1  0  0  0  0
  8  5  1  0  0  0  0
  9  6  1  0  0  0  0
 10  4  2  0  0  0  0
 11  9  1  0  0  0  0
 11 14  1  0  0  0  0
 13 18  2  0  0  0  0
 14 10  1  0  0  0  0
 14 17  2  0  0  0  0
 15 12  2  0  0  0  0
 16  9  2  0  0  0  0
 17 15  1  0  0  0  0
 18 19  1  0  0  0  0
 19 20  1  0  0  0  0
 22 25  1  0  0  0  0
 23 22  2  0  0  0  0
 24 21  1  0  0  0  0
 25 24  1  0  0  0  0
 25 28  1  0  0  0  0
 27 20  1  6  0  0  0
 27 26  1  0  0  0  0
 28 30  1  1  0  0  0
 28 29  1  0  0  0  0
 29 21  1  6  0  0  0
 29 26  1  0  0  0  0
 30 27  1  0  0  0  0
 31 22  1  0  0  0  0
 32  7  1  0  0  0  0
 32 33  1  0  0  0  0
 34 33  1  0  0  0  0
 34 35  1  0  0  0  0
 36 35  1  0  0  0  0
 36 37  1  0  0  0  0
 37 39  1  0  0  0  0
 37 42  1  0  0  0  0
 39 41  1  0  0  0  0
 39 38  2  0  0  0  0
 41 40  1  0  0  0  0
 42 44  1  0  0  0  0
 44 43  1  0  0  0  0
M  END
>  <MODEL>
2

>  <REMARK>
 VINA RESULT:      -7.5      2.788      7.718
  Name = 
  13 active torsions:
  status: ('A' for Active; 'I' for Inactive)
    1  A    between atoms: C_1  and  N_3
    2  A    between atoms: C_1  and  C_44
    3  A    between atoms: N_3  and  C_29
    4  A    between atoms: C_4  and  N_10
    5  A    between atoms: C_4  and  N_42
    6  A    between atoms: N_10  and  C_19
    7  A    between atoms: C_16  and  N_22
    8  A    between atoms: C_16  and  C_24
    9  A    between atoms: C_19  and  C_24
   10  A    between atoms: N_20  and  C_21
   11  A    between atoms: C_21  and  N_42
   12  A    between atoms: C_31  and  C_32
   13  A    between atoms: C_32  and  N_42
                            x       y       z     vdW  Elec       q    Type
                         _______ _______ _______ _____ _____    ______ ____

>  <TORSDO>
F 13

$$$$
=
 OpenBabel11042417023D

 44 50  0  0  1  0  0  0  0  0999 V2000
  187.2550  177.5070  146.9130 C   0  0  0  0  0  3  0  0  0  0  0  0
  189.1270  175.9710  144.4170 C   0  0  0  0  0  0  0  0  0  0  0  0
  189.1820  175.8400  146.7790 C   0  0  0  0  0  3  0  0  0  0  0  0
  187.1270  177.0490  142.7350 C   0  0  0  0  0  0  0  0  0  0  0  0
  188.4240  176.9900  144.8410 C   0  0  0  0  0  0  0  0  0  0  0  0
  184.1040  178.7200  145.1660 N   0  0  0  0  0  2  0  0  0  0  0  0
  189.6450  175.2300  145.5250 N   0  0  0  0  0  0  0  0  0  0  0  0
  188.3070  176.9500  146.2870 C   0  0  0  0  0  0  0  0  0  0  0  0
  184.8680  178.5450  146.3670 C   0  0  0  0  0  0  0  0  0  0  0  0
  187.5560  177.8250  143.9660 C   0  0  0  0  0  0  0  0  0  0  0  0
  186.2720  178.2520  146.0780 C   0  0  0  0  0  0  0  0  0  0  0  0
  185.8810  177.1920  142.2310 C   0  0  0  0  0  3  0  0  0  0  0  0
  189.0270  175.5140  143.0090 C   0  0  0  0  0  3  0  0  0  0  0  0
  186.3810  178.2970  144.7560 C   0  0  0  0  0  0  0  0  0  0  0  0
  184.8180  177.9550  142.9550 C   0  0  0  0  0  3  0  0  0  0  0  0
  184.3640  178.5860  147.5180 O   0  0  0  0  0  0  0  0  0  0  0  0
  185.0830  178.4810  144.1580 C   0  0  0  0  0  0  0  0  0  0  0  0
  188.0870  176.0410  142.1940 C   0  0  0  0  0  0  0  0  0  0  0  0
  187.9860  175.5560  140.7880 C   0  0  0  0  0  2  0  0  0  0  0  0
  188.3850  174.1580  140.7260 N   0  0  0  0  0  2  0  0  0  0  0  0
  190.3690  174.1420  136.5030 C   0  0  0  0  0  2  0  0  0  0  0  0
  193.4510  174.2650  138.6350 C   0  0  0  0  0  0  0  0  0  0  0  0
  194.2510  175.1010  138.1360 O   0  0  0  0  0  0  0  0  0  0  0  0
  191.7560  174.6850  136.8030 C   0  0  0  0  0  2  0  0  0  0  0  0
  192.1660  174.0530  138.0410 N   0  0  0  0  0  0  0  0  0  0  0  0
  188.4960  173.0170  138.1730 S   0  0  0  0  0  0  0  0  0  0  0  0
  189.2070  173.6260  139.6840 C   0  0  1  0  0  3  0  0  0  0  0  0
  191.2110  173.0820  138.5390 C   0  0  2  0  0  3  0  0  0  0  0  0
  190.1630  172.9550  137.4370 C   0  0  2  0  0  3  0  0  0  0  0  0
  190.5260  173.6170  139.7480 C   0  0  0  0  0  2  0  0  0  0  0  0
  193.8270  173.5500  139.7660 O   0  0  0  0  0  1  0  0  0  0  0  0
  190.3080  173.9370  145.4420 C   0  0  0  0  0  2  0  0  0  0  0  0
  191.8220  174.1020  145.5220 C   0  0  0  0  0  2  0  0  0  0  0  0
  192.5300  173.0840  144.6400 C   0  0  0  0  0  2  0  0  0  0  0  0
  192.7960  173.6600  143.3320 N   0  0  0  0  0  2  0  0  0  0  0  0
  194.2400  173.7680  143.2070 C   0  0  0  0  0  2  0  0  0  0  0  0
  194.6550  175.1440  143.4560 N   0  0  0  0  0  0  0  0  0  0  0  0
  196.0130  174.8060  145.4230 C   0  0  0  0  0  2  0  0  0  0  0  0
  195.1540  175.5620  144.7420 C   0  0  0  0  0  0  0  0  0  0  0  0
  194.1430  176.7330  146.5900 N   0  0  0  0  0  1  0  0  0  0  0  0
  194.7940  176.8990  145.3030 C   0  0  0  0  0  2  0  0  0  0  0  0
  194.5870  176.0730  142.3360 C   0  0  0  0  0  2  0  0  0  0  0  0
  196.4060  175.7180  140.9270 C   0  0  0  0  0  1  0  0  0  0  0  0
  195.9200  176.5530  142.0070 N   0  0  0  0  0  2  0  0  0  0  0  0
  2  5  1  0  0  0  0
  2  7  1  0  0  0  0
  4 10  1  0  0  0  0
  5  8  1  0  0  0  0
  6  9  1  0  0  0  0
  7  3  1  0  0  0  0
  8  3  2  0  0  0  0
  8  1  1  0  0  0  0
  9 16  2  0  0  0  0
 10 14  1  0  0  0  0
 10  5  2  0  0  0  0
 11  9  1  0  0  0  0
 11  1  2  0  0  0  0
 12  4  1  0  0  0  0
 12 15  2  0  0  0  0
 13  2  2  0  0  0  0
 14 11  1  0  0  0  0
 15 17  1  0  0  0  0
 17 14  2  0  0  0  0
 17  6  1  0  0  0  0
 18  4  2  0  0  0  0
 18 13  1  0  0  0  0
 19 18  1  0  0  0  0
 20 19  1  0  0  0  0
 21 24  1  0  0  0  0
 22 31  1  0  0  0  0
 23 22  2  0  0  0  0
 24 25  1  0  0  0  0
 25 28  1  0  0  0  0
 25 22  1  0  0  0  0
 26 27  1  0  0  0  0
 27 30  1  0  0  0  0
 27 20  1  6  0  0  0
 28 30  1  1  0  0  0
 29 21  1  6  0  0  0
 29 26  1  0  0  0  0
 29 28  1  0  0  0  0
 32 33  1  0  0  0  0
 32  7  1  0  0  0  0
 34 33  1  0  0  0  0
 35 34  1  0  0  0  0
 36 35  1  0  0  0  0
 36 37  1  0  0  0  0
 37 39  1  0  0  0  0
 39 41  1  0  0  0  0
 39 38  2  0  0  0  0
 41 40  1  0  0  0  0
 42 37  1  0  0  0  0
 43 44  1  0  0  0  0
 44 42  1  0  0  0  0
M  END
>  <MODEL>
3

>  <REMARK>
 VINA RESULT:      -7.4      2.128      3.549
  Name = 
  13 active torsions:
  status: ('A' for Active; 'I' for Inactive)
    1  A    between atoms: C_1  and  N_3
    2  A    between atoms: C_1  and  C_44
    3  A    between atoms: N_3  and  C_29
    4  A    between atoms: C_4  and  N_10
    5  A    between atoms: C_4  and  N_42
    6  A    between atoms: N_10  and  C_19
    7  A    between atoms: C_16  and  N_22
    8  A    between atoms: C_16  and  C_24
    9  A    between atoms: C_19  and  C_24
   10  A    between atoms: N_20  and  C_21
   11  A    between atoms: C_21  and  N_42
   12  A    between atoms: C_31  and  C_32
   13  A    between atoms: C_32  and  N_42
                            x       y       z     vdW  Elec       q    Type
                         _______ _______ _______ _____ _____    ______ ____

>  <TORSDO>
F 13

$$$$
=
 OpenBabel11042417023D

 44 50  0  0  1  0  0  0  0  0999 V2000
  192.2330  171.4820  143.7330 C   0  0  0  0  0  3  0  0  0  0  0  0
  192.2850  174.6170  145.2350 C   0  0  0  0  0  0  0  0  0  0  0  0
  193.8040  172.8030  145.2470 C   0  0  0  0  0  3  0  0  0  0  0  0
  190.0790  175.0890  143.5300 C   0  0  0  0  0  0  0  0  0  0  0  0
  191.6130  173.5950  144.7700 C   0  0  0  0  0  0  0  0  0  0  0  0
  189.6770  171.7810  140.9330 N   0  0  0  0  0  2  0  0  0  0  0  0
  193.6170  174.2240  145.5720 N   0  0  0  0  0  0  0  0  0  0  0  0
  192.4840  172.4420  144.6410 C   0  0  0  0  0  0  0  0  0  0  0  0
  190.6660  171.0140  141.6340 C   0  0  0  0  0  0  0  0  0  0  0  0
  190.2820  173.7020  144.1120 C   0  0  0  0  0  0  0  0  0  0  0  0
  190.9760  171.5950  142.9410 C   0  0  0  0  0  0  0  0  0  0  0  0
  189.4440  175.2530  142.3480 C   0  0  0  0  0  3  0  0  0  0  0  0
  191.7860  176.0020  145.0450 C   0  0  0  0  0  3  0  0  0  0  0  0
  190.1720  172.6440  143.0650 C   0  0  0  0  0  0  0  0  0  0  0  0
  189.0880  174.0920  141.4740 C   0  0  0  0  0  3  0  0  0  0  0  0
  191.2290  170.0030  141.1450 O   0  0  0  0  0  0  0  0  0  0  0  0
  189.4400  172.8530  141.8420 C   0  0  0  0  0  0  0  0  0  0  0  0
  190.7190  176.2320  144.2480 C   0  0  0  0  0  0  0  0  0  0  0  0
  190.2430  177.6300  144.0510 C   0  0  0  0  0  2  0  0  0  0  0  0
  189.3620  178.0030  145.1470 N   0  0  0  0  0  2  0  0  0  0  0  0
  185.0400  177.8570  146.9000 C   0  0  0  0  0  2  0  0  0  0  0  0
  184.2200  178.2730  143.2650 C   0  0  0  0  0  0  0  0  0  0  0  0
  183.2950  179.1220  143.1570 O   0  0  0  0  0  1  0  0  0  0  0  0
  184.2260  178.4920  145.7860 C   0  0  0  0  0  2  0  0  0  0  0  0
  184.7610  177.9560  144.5520 N   0  0  0  0  0  0  0  0  0  0  0  0
  187.5470  176.7250  146.8520 S   0  0  0  0  0  0  0  0  0  0  0  0
  188.0500  177.4590  145.3120 C   0  0  0  0  0  0  0  0  0  0  0  0
  185.7980  176.9630  144.7540 C   0  0  2  0  0  3  0  0  0  0  0  0
  185.8220  176.7140  146.2600 C   0  0  2  0  0  3  0  0  0  0  0  0
  187.1230  177.5270  144.3740 C   0  0  0  0  0  3  0  0  0  0  0  0
  184.7080  177.6450  142.1250 O   0  0  0  0  0  0  0  0  0  0  0  0
  194.6990  175.1280  145.9350 C   0  0  0  0  0  2  0  0  0  0  0  0
  195.3970  175.6600  144.6890 C   0  0  0  0  0  2  0  0  0  0  0  0
  196.7190  174.9420  144.4530 C   0  0  0  0  0  2  0  0  0  0  0  0
  197.0630  174.9870  143.0420 N   0  0  0  0  0  2  0  0  0  0  0  0
  196.0090  175.7340  142.3760 C   0  0  0  0  0  2  0  0  0  0  0  0
  195.5150  174.9780  141.2310 N   0  0  0  0  0  0  0  0  0  0  0  0
  193.1720  174.4890  141.5360 C   0  0  0  0  0  2  0  0  0  0  0  0
  194.4160  174.0540  141.3520 C   0  0  0  0  0  0  0  0  0  0  0  0
  193.7650  172.0840  140.1250 N   0  0  0  0  0  1  0  0  0  0  0  0
  194.6310  172.5850  141.1770 C   0  0  0  0  0  2  0  0  0  0  0  0
  196.1520  175.2280  139.9440 C   0  0  0  0  0  2  0  0  0  0  0  0
  195.9130  175.1840  137.6280 C   0  0  0  0  0  1  0  0  0  0  0  0
  195.1760  175.1010  138.8740 N   0  0  0  0  0  2  0  0  0  0  0  0
  1  8  1  0  0  0  0
  2  7  1  0  0  0  0
  3  7  1  0  0  0  0
  4 10  1  0  0  0  0
  4 18  1  0  0  0  0
  5  2  2  0  0  0  0
  6  9  1  0  0  0  0
  6 17  1  0  0  0  0
  7 32  1  0  0  0  0
  8  5  1  0  0  0  0
  8  3  2  0  0  0  0
  9 11  1  0  0  0  0
 10  5  1  0  0  0  0
 11 14  1  0  0  0  0
 11  1  2  0  0  0  0
 12  4  2  0  0  0  0
 13  2  1  0  0  0  0
 14 10  2  0  0  0  0
 15 17  2  0  0  0  0
 15 12  1  0  0  0  0
 16  9  2  0  0  0  0
 17 14  1  0  0  0  0
 18 13  2  0  0  0  0
 19 18  1  0  0  0  0
 19 20  1  0  0  0  0
 20 27  1  0  0  0  0
 22 25  1  0  0  0  0
 23 22  1  0  0  0  0
 24 21  1  0  0  0  0
 25 28  1  0  0  0  0
 25 24  1  0  0  0  0
 27 26  1  0  0  0  0
 28 30  1  1  0  0  0
 28 29  1  0  0  0  0
 29 26  1  0  0  0  0
 29 21  1  1  0  0  0
 30 27  2  0  0  0  0
 31 22  2  0  0  0  0
 33 32  1  0  0  0  0
 34 33  1  0  0  0  0
 35 34  1  0  0  0  0
 36 35  1  0  0  0  0
 37 39  1  0  0  0  0
 37 36  1  0  0  0  0
 39 38  2  0  0  0  0
 40 41  1  0  0  0  0
 41 39  1  0  0  0  0
 42 37  1  0  0  0  0
 43 44  1  0  0  0  0
 44 42  1  0  0  0  0
M  END
>  <MODEL>
4

>  <REMARK>
 VINA RESULT:      -7.2      2.591      7.575
  Name = 
  13 active torsions:
  status: ('A' for Active; 'I' for Inactive)
    1  A    between atoms: C_1  and  N_3
    2  A    between atoms: C_1  and  C_44
    3  A    between atoms: N_3  and  C_29
    4  A    between atoms: C_4  and  N_10
    5  A    between atoms: C_4  and  N_42
    6  A    between atoms: N_10  and  C_19
    7  A    between atoms: C_16  and  N_22
    8  A    between atoms: C_16  and  C_24
    9  A    between atoms: C_19  and  C_24
   10  A    between atoms: N_20  and  C_21
   11  A    between atoms: C_21  and  N_42
   12  A    between atoms: C_31  and  C_32
   13  A    between atoms: C_32  and  N_42
                            x       y       z     vdW  Elec       q    Type
                         _______ _______ _______ _____ _____    ______ ____

>  <TORSDO>
F 13

$$$$
=
 OpenBabel11042417023D

 44 50  0  0  1  0  0  0  0  0999 V2000
  187.2860  177.5490  146.9880 C   0  0  0  0  0  3  0  0  0  0  0  0
  189.2010  175.9810  144.5460 C   0  0  0  0  0  0  0  0  0  0  0  0
  189.2410  175.9120  146.9110 C   0  0  0  0  0  3  0  0  0  0  0  0
  187.1960  176.9810  142.8220 C   0  0  0  0  0  0  0  0  0  0  0  0
  188.4780  176.9990  144.9380 C   0  0  0  0  0  0  0  0  0  0  0  0
  184.1270  178.6630  145.1880 N   0  0  0  0  0  2  0  0  0  0  0  0
  189.7230  175.2780  145.6760 N   0  0  0  0  0  0  0  0  0  0  0  0
  188.3520  176.9940  146.3840 C   0  0  0  0  0  0  0  0  0  0  0  0
  184.8850  178.5320  146.3980 C   0  0  0  0  0  0  0  0  0  0  0  0
  187.6030  177.7960  144.0350 C   0  0  0  0  0  0  0  0  0  0  0  0
  186.2960  178.2550  146.1270 C   0  0  0  0  0  0  0  0  0  0  0  0
  185.9510  177.0900  142.3060 C   0  0  0  0  0  3  0  0  0  0  0  0
  189.1200  175.4860  143.1500 C   0  0  0  0  0  3  0  0  0  0  0  0
  186.4140  178.2680  144.8050 C   0  0  0  0  0  0  0  0  0  0  0  0
  184.8700  177.8530  143.0030 C   0  0  0  0  0  3  0  0  0  0  0  0
  184.3720  178.5940  147.5440 O   0  0  0  0  0  0  0  0  0  0  0  0
  185.1180  178.4140  144.1940 C   0  0  0  0  0  0  0  0  0  0  0  0
  188.1770  175.9760  142.3140 C   0  0  0  0  0  0  0  0  0  0  0  0
  188.0950  175.4530  140.9210 C   0  0  0  0  0  2  0  0  0  0  0  0
  188.2790  174.0100  140.9310 N   0  0  0  0  0  2  0  0  0  0  0  0
  190.3360  170.3250  138.9400 C   0  0  0  0  0  2  0  0  0  0  0  0
  189.6290  172.3700  135.8780 C   0  0  0  0  0  0  0  0  0  0  0  0
  189.1830  171.6070  134.9800 O   0  0  0  0  0  0  0  0  0  0  0  0
  189.8670  170.4420  137.5000 C   0  0  0  0  0  2  0  0  0  0  0  0
  189.9400  171.8530  137.1750 N   0  0  0  0  0  0  0  0  0  0  0  0
  190.4190  172.2070  140.9440 S   0  0  0  0  0  0  0  0  0  0  0  0
  189.2940  173.3470  140.1730 C   0  0  0  0  0  0  0  0  0  0  0  0
  190.4910  172.6640  138.2430 C   0  0  2  0  0  3  0  0  0  0  0  0
  190.9710  171.6660  139.2930 C   0  0  2  0  0  3  0  0  0  0  0  0
  189.4150  173.4840  138.8650 C   0  0  0  0  0  3  0  0  0  0  0  0
  189.8180  173.7180  135.5970 O   0  0  0  0  0  1  0  0  0  0  0  0
  190.4080  173.9950  145.6310 C   0  0  0  0  0  2  0  0  0  0  0  0
  191.7820  174.1400  144.9860 C   0  0  0  0  0  2  0  0  0  0  0  0
  192.6520  175.1160  145.7660 C   0  0  0  0  0  2  0  0  0  0  0  0
  193.5460  175.8180  144.8610 N   0  0  0  0  0  2  0  0  0  0  0  0
  194.8830  175.7040  145.4170 C   0  0  0  0  0  2  0  0  0  0  0  0
  195.7010  174.8470  144.5660 N   0  0  0  0  0  0  0  0  0  0  0  0
  195.0690  173.0170  143.1240 C   0  0  0  0  0  2  0  0  0  0  0  0
  195.3670  173.4630  144.3430 C   0  0  0  0  0  0  0  0  0  0  0  0
  194.3030  171.5710  145.3900 N   0  0  0  0  0  1  0  0  0  0  0  0
  195.4410  172.4700  145.4580 C   0  0  0  0  0  2  0  0  0  0  0  0
  196.8480  175.4610  143.9100 C   0  0  0  0  0  2  0  0  0  0  0  0
  196.1730  176.4980  141.9380 C   0  0  0  0  0  1  0  0  0  0  0  0
  196.4670  176.7410  143.3360 N   0  0  0  0  0  2  0  0  0  0  0  0
  2  5  1  0  0  0  0
  2  7  1  0  0  0  0
  4 10  1  0  0  0  0
  5  8  1  0  0  0  0
  6  9  1  0  0  0  0
  7  3  1  0  0  0  0
  8  3  2  0  0  0  0
  8  1  1  0  0  0  0
  9 16  2  0  0  0  0
 10 14  1  0  0  0  0
 10  5  2  0  0  0  0
 11  9  1  0  0  0  0
 11  1  2  0  0  0  0
 12  4  1  0  0  0  0
 12 15  2  0  0  0  0
 13  2  2  0  0  0  0
 14 11  1  0  0  0  0
 15 17  1  0  0  0  0
 17 14  2  0  0  0  0
 17  6  1  0  0  0  0
 18  4  2  0  0  0  0
 18 13  1  0  0  0  0
 19 20  1  0  0  0  0
 19 18  1  0  0  0  0
 22 25  1  0  0  0  0
 23 22  2  0  0  0  0
 24 21  1  0  0  0  0
 25 24  1  0  0  0  0
 25 28  1  0  0  0  0
 27 20  1  0  0  0  0
 27 26  1  0  0  0  0
 28 30  1  1  0  0  0
 28 29  1  0  0  0  0
 29 21  1  6  0  0  0
 29 26  1  0  0  0  0
 30 27  2  0  0  0  0
 31 22  1  0  0  0  0
 32  7  1  0  0  0  0
 33 32  1  0  0  0  0
 33 34  1  0  0  0  0
 35 36  1  0  0  0  0
 35 34  1  0  0  0  0
 37 36  1  0  0  0  0
 38 39  2  0  0  0  0
 39 37  1  0  0  0  0
 39 41  1  0  0  0  0
 40 41  1  0  0  0  0
 42 37  1  0  0  0  0
 43 44  1  0  0  0  0
 44 42  1  0  0  0  0
M  END
>  <MODEL>
5

>  <REMARK>
 VINA RESULT:      -7.1      2.301      3.779
  Name = 
  13 active torsions:
  status: ('A' for Active; 'I' for Inactive)
    1  A    between atoms: C_1  and  N_3
    2  A    between atoms: C_1  and  C_44
    3  A    between atoms: N_3  and  C_29
    4  A    between atoms: C_4  and  N_10
    5  A    between atoms: C_4  and  N_42
    6  A    between atoms: N_10  and  C_19
    7  A    between atoms: C_16  and  N_22
    8  A    between atoms: C_16  and  C_24
    9  A    between atoms: C_19  and  C_24
   10  A    between atoms: N_20  and  C_21
   11  A    between atoms: C_21  and  N_42
   12  A    between atoms: C_31  and  C_32
   13  A    between atoms: C_32  and  N_42
                            x       y       z     vdW  Elec       q    Type
                         _______ _______ _______ _____ _____    ______ ____

>  <TORSDO>
F 13

$$$$
=
 OpenBabel11042417023D

 44 50  0  0  1  0  0  0  0  0999 V2000
  187.1680  177.4350  147.0230 C   0  0  0  0  0  3  0  0  0  0  0  0
  188.9640  175.8560  144.4980 C   0  0  0  0  0  0  0  0  0  0  0  0
  188.9960  175.6630  146.8560 C   0  0  0  0  0  3  0  0  0  0  0  0
  187.0400  177.0890  142.8330 C   0  0  0  0  0  0  0  0  0  0  0  0
  188.3180  176.9030  144.9440 C   0  0  0  0  0  0  0  0  0  0  0  0
  184.1020  178.8700  145.2910 N   0  0  0  0  0  2  0  0  0  0  0  0
  189.4310  175.0590  145.5890 N   0  0  0  0  0  0  0  0  0  0  0  0
  188.1900  176.8340  146.3870 C   0  0  0  0  0  0  0  0  0  0  0  0
  184.8470  178.6220  146.4910 C   0  0  0  0  0  0  0  0  0  0  0  0
  187.5050  177.8090  144.0850 C   0  0  0  0  0  0  0  0  0  0  0  0
  186.2340  178.2550  146.2020 C   0  0  0  0  0  0  0  0  0  0  0  0
  185.8070  177.3160  142.3270 C   0  0  0  0  0  3  0  0  0  0  0  0
  188.8470  175.4410  143.0780 C   0  0  0  0  0  3  0  0  0  0  0  0
  186.3540  178.3270  144.8820 C   0  0  0  0  0  0  0  0  0  0  0  0
  184.7850  178.1210  143.0650 C   0  0  0  0  0  3  0  0  0  0  0  0
  184.3400  178.6630  147.6400 O   0  0  0  0  0  0  0  0  0  0  0  0
  185.0730  178.6000  144.2830 C   0  0  0  0  0  0  0  0  0  0  0  0
  187.9440  176.0410  142.2720 C   0  0  0  0  0  0  0  0  0  0  0  0
  187.8250  175.5980  140.8540 C   0  0  0  0  0  2  0  0  0  0  0  0
  188.5710  174.3640  140.6650 N   0  0  0  0  0  2  0  0  0  0  0  0
  190.4400  174.1080  136.3970 C   0  0  0  0  0  2  0  0  0  0  0  0
  191.8740  170.9820  137.8900 C   0  0  0  0  0  0  0  0  0  0  0  0
  193.0880  170.9020  137.5640 O   0  0  0  0  0  0  0  0  0  0  0  0
  191.5990  173.1520  136.6170 C   0  0  0  0  0  2  0  0  0  0  0  0
  191.0920  172.1110  137.4890 N   0  0  0  0  0  0  0  0  0  0  0  0
  188.1770  174.5390  137.9000 S   0  0  0  0  0  0  0  0  0  0  0  0
  188.7910  173.7730  139.3820 C   0  0  0  0  0  0  0  0  0  0  0  0
  189.6820  172.2510  137.7960 C   0  0  2  0  0  3  0  0  0  0  0  0
  189.1930  173.3940  136.9100 C   0  0  2  0  0  3  0  0  0  0  0  0
  189.5100  172.6780  139.2120 C   0  0  0  0  0  3  0  0  0  0  0  0
  191.2990  169.9630  138.6410 O   0  0  0  0  0  1  0  0  0  0  0  0
  190.0190  173.7330  145.4770 C   0  0  0  0  0  2  0  0  0  0  0  0
  191.5040  173.8280  145.1420 C   0  0  0  0  0  2  0  0  0  0  0  0
  191.8060  173.1720  143.8020 C   0  0  0  0  0  2  0  0  0  0  0  0
  192.6430  174.0470  142.9990 N   0  0  0  0  0  2  0  0  0  0  0  0
  193.9110  174.1740  143.6970 C   0  0  0  0  0  2  0  0  0  0  0  0
  194.3550  175.5630  143.6640 N   0  0  0  0  0  0  0  0  0  0  0  0
  196.5680  176.3990  143.1830 C   0  0  0  0  0  2  0  0  0  0  0  0
  195.3720  176.0090  142.7450 C   0  0  0  0  0  0  0  0  0  0  0  0
  196.4160  176.0400  140.5730 N   0  0  0  0  0  1  0  0  0  0  0  0
  195.1440  175.9570  141.2690 C   0  0  0  0  0  2  0  0  0  0  0  0
  193.6960  176.4950  144.5700 C   0  0  0  0  0  2  0  0  0  0  0  0
  194.5520  177.5270  146.4730 C   0  0  0  0  0  1  0  0  0  0  0  0
  194.1260  176.2490  145.9360 N   0  0  0  0  0  2  0  0  0  0  0  0
  2  5  1  0  0  0  0
  2  7  1  0  0  0  0
  4 10  1  0  0  0  0
  5  8  1  0  0  0  0
  6  9  1  0  0  0  0
  7  3  1  0  0  0  0
  8  3  2  0  0  0  0
  8  1  1  0  0  0  0
  9 16  2  0  0  0  0
 10 14  1  0  0  0  0
 10  5  2  0  0  0  0
 11  9  1  0  0  0  0
 11  1  2  0  0  0  0
 12  4  1  0  0  0  0
 12 15  2  0  0  0  0
 13  2  2  0  0  0  0
 14 11  1  0  0  0  0
 15 17  1  0  0  0  0
 17 14  2  0  0  0  0
 17  6  1  0  0  0  0
 18  4  2  0  0  0  0
 18 13  1  0  0  0  0
 19 18  1  0  0  0  0
 20 19  1  0  0  0  0
 21 24  1  0  0  0  0
 22 31  1  0  0  0  0
 23 22  2  0  0  0  0
 24 25  1  0  0  0  0
 25 28  1  0  0  0  0
 25 22  1  0  0  0  0
 26 27  1  0  0  0  0
 27 20  1  0  0  0  0
 28 30  1  1  0  0  0
 29 21  1  1  0  0  0
 29 28  1  0  0  0  0
 29 26  1  0  0  0  0
 30 27  2  0  0  0  0
 32  7  1  0  0  0  0
 33 32  1  0  0  0  0
 34 33  1  0  0  0  0
 35 36  1  0  0  0  0
 35 34  1  0  0  0  0
 37 36  1  0  0  0  0
 37 42  1  0  0  0  0
 39 38  2  0  0  0  0
 39 37  1  0  0  0  0
 40 41  1  0  0  0  0
 41 39  1  0  0  0  0
 42 44  1  0  0  0  0
 44 43  1  0  0  0  0
M  END
>  <MODEL>
6

>  <REMARK>
 VINA RESULT:      -7.0      2.141      3.603
  Name = 
  13 active torsions:
  status: ('A' for Active; 'I' for Inactive)
    1  A    between atoms: C_1  and  N_3
    2  A    between atoms: C_1  and  C_44
    3  A    between atoms: N_3  and  C_29
    4  A    between atoms: C_4  and  N_10
    5  A    between atoms: C_4  and  N_42
    6  A    between atoms: N_10  and  C_19
    7  A    between atoms: C_16  and  N_22
    8  A    between atoms: C_16  and  C_24
    9  A    between atoms: C_19  and  C_24
   10  A    between atoms: N_20  and  C_21
   11  A    between atoms: C_21  and  N_42
   12  A    between atoms: C_31  and  C_32
   13  A    between atoms: C_32  and  N_42
                            x       y       z     vdW  Elec       q    Type
                         _______ _______ _______ _____ _____    ______ ____

>  <TORSDO>
F 13

$$$$
=
 OpenBabel11042417023D

 44 50  0  0  1  0  0  0  0  0999 V2000
  192.2390  172.5730  140.3050 C   0  0  0  0  0  3  0  0  0  0  0  0
  192.9310  175.3730  142.2470 C   0  0  0  0  0  0  0  0  0  0  0  0
  194.2800  173.9920  140.8790 C   0  0  0  0  0  3  0  0  0  0  0  0
  190.1120  175.5530  142.3750 C   0  0  0  0  0  0  0  0  0  0  0  0
  192.2170  174.3010  142.0200 C   0  0  0  0  0  0  0  0  0  0  0  0
  188.4770  172.6650  139.7620 N   0  0  0  0  0  2  0  0  0  0  0  0
  194.2070  175.2640  141.6110 N   0  0  0  0  0  0  0  0  0  0  0  0
  192.9150  173.4210  141.1010 C   0  0  0  0  0  0  0  0  0  0  0  0
  189.7530  172.0610  139.5080 C   0  0  0  0  0  0  0  0  0  0  0  0
  190.7660  174.1840  142.3330 C   0  0  0  0  0  0  0  0  0  0  0  0
  190.7610  172.4990  140.4740 C   0  0  0  0  0  0  0  0  0  0  0  0
  188.8620  175.7330  141.8940 C   0  0  0  0  0  3  0  0  0  0  0  0
  192.2970  176.6120  142.7620 C   0  0  0  0  0  3  0  0  0  0  0  0
  190.1210  173.2970  141.3210 C   0  0  0  0  0  0  0  0  0  0  0  0
  188.1460  174.6640  141.1320 C   0  0  0  0  0  3  0  0  0  0  0  0
  189.9740  171.2970  138.5360 O   0  0  0  0  0  0  0  0  0  0  0  0
  188.7660  173.5040  140.8780 C   0  0  0  0  0  0  0  0  0  0  0  0
  190.9510  176.6960  142.8460 C   0  0  0  0  0  0  0  0  0  0  0  0
  190.3280  177.9540  143.3460 C   0  0  0  0  0  2  0  0  0  0  0  0
  190.0480  177.8260  144.7680 N   0  0  0  0  0  2  0  0  0  0  0  0
  186.2880  177.9930  147.5270 C   0  0  0  0  0  2  0  0  0  0  0  0
  184.6180  178.2910  144.1840 C   0  0  0  0  0  0  0  0  0  0  0  0
  183.7310  179.1830  144.2570 O   0  0  0  0  0  1  0  0  0  0  0  0
  185.2530  178.6210  146.6110 C   0  0  0  0  0  2  0  0  0  0  0  0
  185.4450  178.0020  145.3150 N   0  0  0  0  0  0  0  0  0  0  0  0
  188.6570  176.7260  146.9330 S   0  0  0  0  0  0  0  0  0  0  0  0
  188.7960  177.3630  145.2790 C   0  0  0  0  0  0  0  0  0  0  0  0
  186.4580  176.9640  145.3150 C   0  0  2  0  0  3  0  0  0  0  0  0
  186.8410  176.7820  146.7810 C   0  0  2  0  0  3  0  0  0  0  0  0
  187.6700  177.4390  144.5920 C   0  0  0  0  0  3  0  0  0  0  0  0
  184.7840  177.5880  142.9970 O   0  0  0  0  0  0  0  0  0  0  0  0
  195.1850  176.3350  141.4870 C   0  0  0  0  0  2  0  0  0  0  0  0
  196.0440  176.4280  142.7430 C   0  0  0  0  0  2  0  0  0  0  0  0
  197.0220  175.2630  142.8240 C   0  0  0  0  0  2  0  0  0  0  0  0
  196.6930  174.4170  143.9580 N   0  0  0  0  0  2  0  0  0  0  0  0
  196.1360  175.2850  144.9830 C   0  0  0  0  0  2  0  0  0  0  0  0
  194.9600  174.6580  145.5750 N   0  0  0  0  0  0  0  0  0  0  0  0
  193.8690  176.7680  146.0050 C   0  0  0  0  0  2  0  0  0  0  0  0
  193.8770  175.4410  146.1150 C   0  0  0  0  0  0  0  0  0  0  0  0
  191.5960  174.7420  145.7710 N   0  0  0  0  0  1  0  0  0  0  0  0
  192.6870  174.7770  146.7290 C   0  0  0  0  0  2  0  0  0  0  0  0
  194.9020  173.2020  145.5580 C   0  0  0  0  0  2  0  0  0  0  0  0
  193.4510  171.5830  144.7250 C   0  0  0  0  0  1  0  0  0  0  0  0
  194.2330  172.7450  144.3510 N   0  0  0  0  0  2  0  0  0  0  0  0
  1 11  2  0  0  0  0
  1  8  1  0  0  0  0
  2 13  1  0  0  0  0
  3  8  2  0  0  0  0
  3  7  1  0  0  0  0
  4 18  1  0  0  0  0
  5  2  2  0  0  0  0
  5 10  1  0  0  0  0
  6 17  1  0  0  0  0
  7  2  1  0  0  0  0
  8  5  1  0  0  0  0
  9  6  1  0  0  0  0
  9 11  1  0  0  0  0
 10  4  1  0  0  0  0
 11 14  1  0  0  0  0
 12  4  2  0  0  0  0
 13 18  2  0  0  0  0
 14 10  2  0  0  0  0
 15 12  1  0  0  0  0
 16  9  2  0  0  0  0
 17 15  2  0  0  0  0
 17 14  1  0  0  0  0
 18 19  1  0  0  0  0
 19 20  1  0  0  0  0
 20 27  1  0  0  0  0
 22 23  1  0  0  0  0
 22 25  1  0  0  0  0
 24 21  1  0  0  0  0
 25 28  1  0  0  0  0
 25 24  1  0  0  0  0
 27 26  1  0  0  0  0
 28 30  1  6  0  0  0
 28 29  1  0  0  0  0
 29 26  1  0  0  0  0
 29 21  1  1  0  0  0
 30 27  2  0  0  0  0
 31 22  2  0  0  0  0
 32  7  1  0  0  0  0
 32 33  1  0  0  0  0
 33 34  1  0  0  0  0
 34 35  1  0  0  0  0
 35 36  1  0  0  0  0
 36 37  1  0  0  0  0
 37 39  1  0  0  0  0
 38 39  2  0  0  0  0
 39 41  1  0  0  0  0
 40 41  1  0  0  0  0
 42 37  1  0  0  0  0
 44 43  1  0  0  0  0
 44 42  1  0  0  0  0
M  END
>  <MODEL>
7

>  <REMARK>
 VINA RESULT:      -7.0      2.275      7.190
  Name = 
  13 active torsions:
  status: ('A' for Active; 'I' for Inactive)
    1  A    between atoms: C_1  and  N_3
    2  A    between atoms: C_1  and  C_44
    3  A    between atoms: N_3  and  C_29
    4  A    between atoms: C_4  and  N_10
    5  A    between atoms: C_4  and  N_42
    6  A    between atoms: N_10  and  C_19
    7  A    between atoms: C_16  and  N_22
    8  A    between atoms: C_16  and  C_24
    9  A    between atoms: C_19  and  C_24
   10  A    between atoms: N_20  and  C_21
   11  A    between atoms: C_21  and  N_42
   12  A    between atoms: C_31  and  C_32
   13  A    between atoms: C_32  and  N_42
                            x       y       z     vdW  Elec       q    Type
                         _______ _______ _______ _____ _____    ______ ____

>  <TORSDO>
F 13

$$$$
=
 OpenBabel11042417023D

 44 50  0  0  1  0  0  0  0  0999 V2000
  184.7400  179.2770  145.8260 C   0  0  0  0  0  3  0  0  0  0  0  0
  185.3290  177.1710  143.1230 C   0  0  0  0  0  0  0  0  0  0  0  0
  183.9740  179.0910  143.4000 C   0  0  0  0  0  3  0  0  0  0  0  0
  187.4020  176.1940  144.7790 C   0  0  0  0  0  0  0  0  0  0  0  0
  185.2500  177.3600  144.4150 C   0  0  0  0  0  0  0  0  0  0  0  0
  187.6550  178.6710  148.1920 N   0  0  0  0  0  2  0  0  0  0  0  0
  184.5660  178.1620  142.4290 N   0  0  0  0  0  0  0  0  0  0  0  0
  184.5170  178.5800  144.6980 C   0  0  0  0  0  0  0  0  0  0  0  0
  186.4590  179.3870  147.8540 C   0  0  0  0  0  0  0  0  0  0  0  0
  186.1050  176.6610  145.4130 C   0  0  0  0  0  0  0  0  0  0  0  0
  185.6890  178.6980  146.8180 C   0  0  0  0  0  0  0  0  0  0  0  0
  188.5640  176.2500  145.4680 C   0  0  0  0  0  3  0  0  0  0  0  0
  186.3730  176.2880  142.5480 C   0  0  0  0  0  3  0  0  0  0  0  0
  186.3540  177.5770  146.5650 C   0  0  0  0  0  0  0  0  0  0  0  0
  188.6670  176.9400  146.7900 C   0  0  0  0  0  3  0  0  0  0  0  0
  186.1540  180.4970  148.3560 O   0  0  0  0  0  0  0  0  0  0  0  0
  187.5940  177.5610  147.2980 C   0  0  0  0  0  0  0  0  0  0  0  0
  187.3540  175.8000  143.3390 C   0  0  0  0  0  0  0  0  0  0  0  0
  188.4080  174.9300  142.7420 C   0  0  0  0  0  2  0  0  0  0  0  0
  189.6200  175.7070  142.5350 N   0  0  0  0  0  2  0  0  0  0  0  0
  194.2780  175.8890  142.7410 C   0  0  0  0  0  2  0  0  0  0  0  0
  193.4830  176.2000  146.3920 C   0  0  0  0  0  0  0  0  0  0  0  0
  194.2170  177.0970  146.8870 O   0  0  0  0  0  0  0  0  0  0  0  0
  194.5090  176.5240  144.1010 C   0  0  0  0  0  2  0  0  0  0  0  0
  193.5490  175.9060  144.9930 N   0  0  0  0  0  0  0  0  0  0  0  0
  192.0640  174.6110  141.7250 S   0  0  0  0  0  0  0  0  0  0  0  0
  190.9170  175.2490  142.9240 C   0  0  0  0  0  0  0  0  0  0  0  0
  192.7630  174.8630  144.3630 C   0  0  2  0  0  3  0  0  0  0  0  0
  193.3840  174.6770  142.9810 C   0  0  2  0  0  3  0  0  0  0  0  0
  191.3640  175.3320  144.1640 C   0  0  0  0  0  3  0  0  0  0  0  0
  192.6120  175.4980  147.2160 O   0  0  0  0  0  1  0  0  0  0  0  0
  184.5750  178.3810  140.9890 C   0  0  0  0  0  2  0  0  0  0  0  0
  183.2450  177.9590  140.3730 C   0  0  0  0  0  2  0  0  0  0  0  0
  182.0850  178.2780  141.3050 C   0  0  0  0  0  2  0  0  0  0  0  0
  180.9030  178.6130  140.5290 N   0  0  0  0  0  2  0  0  0  0  0  0
  180.1620  179.6000  141.2970 C   0  0  0  0  0  2  0  0  0  0  0  0
  178.8170  179.7420  140.7500 N   0  0  0  0  0  0  0  0  0  0  0  0
  177.8250  179.7970  138.5500 C   0  0  0  0  0  2  0  0  0  0  0  0
  178.5810  180.3790  139.4790 C   0  0  0  0  0  0  0  0  0  0  0  0
  179.0120  182.0390  137.7850 N   0  0  0  0  0  1  0  0  0  0  0  0
  179.0990  181.7540  139.2060 C   0  0  0  0  0  2  0  0  0  0  0  0
  177.7200  179.1710  141.5220 C   0  0  0  0  0  2  0  0  0  0  0  0
  178.0140  177.1830  142.6980 C   0  0  0  0  0  1  0  0  0  0  0  0
  178.2260  178.6160  142.7670 N   0  0  0  0  0  2  0  0  0  0  0  0
  1 11  2  0  0  0  0
  2  5  1  0  0  0  0
  3  8  2  0  0  0  0
  4 10  1  0  0  0  0
  4 12  1  0  0  0  0
  5  8  1  0  0  0  0
  5 10  2  0  0  0  0
  7  2  1  0  0  0  0
  7  3  1  0  0  0  0
  8  1  1  0  0  0  0
  9  6  1  0  0  0  0
  9 16  2  0  0  0  0
 10 14  1  0  0  0  0
 11  9  1  0  0  0  0
 12 15  2  0  0  0  0
 13  2  2  0  0  0  0
 13 18  1  0  0  0  0
 14 11  1  0  0  0  0
 14 17  2  0  0  0  0
 15 17  1  0  0  0  0
 17  6  1  0  0  0  0
 18  4  2  0  0  0  0
 19 18  1  0  0  0  0
 20 19  1  0  0  0  0
 20 27  1  0  0  0  0
 21 24  1  0  0  0  0
 22 23  2  0  0  0  0
 22 31  1  0  0  0  0
 24 25  1  0  0  0  0
 25 22  1  0  0  0  0
 26 27  1  0  0  0  0
 26 29  1  0  0  0  0
 27 30  2  0  0  0  0
 28 30  1  6  0  0  0
 28 25  1  0  0  0  0
 29 21  1  6  0  0  0
 29 28  1  0  0  0  0
 32  7  1  0  0  0  0
 33 32  1  0  0  0  0
 33 34  1  0  0  0  0
 35 36  1  0  0  0  0
 35 34  1  0  0  0  0
 37 36  1  0  0  0  0
 37 42  1  0  0  0  0
 38 39  2  0  0  0  0
 39 37  1  0  0  0  0
 40 41  1  0  0  0  0
 41 39  1  0  0  0  0
 42 44  1  0  0  0  0
 43 44  1  0  0  0  0
M  END
>  <MODEL>
8

>  <REMARK>
 VINA RESULT:      -7.0      3.808      9.209
  Name = 
  13 active torsions:
  status: ('A' for Active; 'I' for Inactive)
    1  A    between atoms: C_1  and  N_3
    2  A    between atoms: C_1  and  C_44
    3  A    between atoms: N_3  and  C_29
    4  A    between atoms: C_4  and  N_10
    5  A    between atoms: C_4  and  N_42
    6  A    between atoms: N_10  and  C_19
    7  A    between atoms: C_16  and  N_22
    8  A    between atoms: C_16  and  C_24
    9  A    between atoms: C_19  and  C_24
   10  A    between atoms: N_20  and  C_21
   11  A    between atoms: C_21  and  N_42
   12  A    between atoms: C_31  and  C_32
   13  A    between atoms: C_32  and  N_42
                            x       y       z     vdW  Elec       q    Type
                         _______ _______ _______ _____ _____    ______ ____

>  <TORSDO>
F 13

$$$$
=
 OpenBabel11042417023D

 44 50  0  0  1  0  0  0  0  0999 V2000
  186.7020  177.6120  146.6920 C   0  0  0  0  0  3  0  0  0  0  0  0
  188.8460  175.8880  144.5650 C   0  0  0  0  0  0  0  0  0  0  0  0
  188.5330  175.8490  146.9100 C   0  0  0  0  0  3  0  0  0  0  0  0
  187.1870  176.9950  142.5600 C   0  0  0  0  0  0  0  0  0  0  0  0
  188.1430  176.9560  144.8420 C   0  0  0  0  0  0  0  0  0  0  0  0
  183.9240  178.9060  144.4420 N   0  0  0  0  0  2  0  0  0  0  0  0
  189.1480  175.1680  145.7620 N   0  0  0  0  0  0  0  0  0  0  0  0
  187.8060  176.9800  146.2530 C   0  0  0  0  0  0  0  0  0  0  0  0
  184.4850  178.7420  145.7510 C   0  0  0  0  0  0  0  0  0  0  0  0
  187.4650  177.7970  143.8170 C   0  0  0  0  0  0  0  0  0  0  0  0
  185.8990  178.3690  145.6920 C   0  0  0  0  0  0  0  0  0  0  0  0
  186.0420  177.1780  141.8660 C   0  0  0  0  0  3  0  0  0  0  0  0
  188.9380  175.3810  143.1730 C   0  0  0  0  0  3  0  0  0  0  0  0
  186.2110  178.3570  144.4010 C   0  0  0  0  0  0  0  0  0  0  0  0
  184.9240  178.0200  142.3930 C   0  0  0  0  0  3  0  0  0  0  0  0
  183.8160  178.8530  146.8080 O   0  0  0  0  0  0  0  0  0  0  0  0
  185.0320  178.5800  143.6050 C   0  0  0  0  0  0  0  0  0  0  0  0
  188.1630  175.9200  142.2060 C   0  0  0  0  0  0  0  0  0  0  0  0
  188.2510  175.3850  140.8180 C   0  0  0  0  0  2  0  0  0  0  0  0
  188.5490  173.9620  140.8630 N   0  0  0  0  0  2  0  0  0  0  0  0
  192.1910  171.0610  140.5590 C   0  0  0  0  0  2  0  0  0  0  0  0
  190.1780  169.8360  137.6430 C   0  0  0  0  0  0  0  0  0  0  0  0
  190.1870  168.5760  137.6500 O   0  0  0  0  0  1  0  0  0  0  0  0
  191.6250  169.9310  139.7170 C   0  0  0  0  0  2  0  0  0  0  0  0
  190.8380  170.5680  138.6810 N   0  0  0  0  0  0  0  0  0  0  0  0
  191.3310  173.6550  140.8700 S   0  0  0  0  0  0  0  0  0  0  0  0
  189.6930  173.3830  140.2320 C   0  0  0  0  0  0  0  0  0  0  0  0
  190.9010  172.0160  138.7150 C   0  0  2  0  0  3  0  0  0  0  0  0
  191.9560  172.3430  139.7680 C   0  0  2  0  0  3  0  0  0  0  0  0
  189.6050  172.5700  139.1950 C   0  0  0  0  0  3  0  0  0  0  0  0
  189.5260  170.5090  136.6170 O   0  0  0  0  0  0  0  0  0  0  0  0
  189.7450  173.8420  145.8230 C   0  0  0  0  0  2  0  0  0  0  0  0
  191.2010  173.8850  145.3730 C   0  0  0  0  0  2  0  0  0  0  0  0
  191.9970  174.8920  146.1910 C   0  0  0  0  0  2  0  0  0  0  0  0
  193.0220  175.5050  145.3640 N   0  0  0  0  0  2  0  0  0  0  0  0
  194.2830  174.8810  145.7250 C   0  0  0  0  0  2  0  0  0  0  0  0
  194.8850  174.2660  144.5480 N   0  0  0  0  0  0  0  0  0  0  0  0
  196.2840  174.4360  142.5890 C   0  0  0  0  0  2  0  0  0  0  0  0
  195.7620  175.0040  143.6740 C   0  0  0  0  0  0  0  0  0  0  0  0
  197.0730  176.9130  143.0080 N   0  0  0  0  0  1  0  0  0  0  0  0
  196.0310  176.4540  143.9100 C   0  0  0  0  0  2  0  0  0  0  0  0
  194.6000  172.8560  144.3140 C   0  0  0  0  0  2  0  0  0  0  0  0
  195.9210  171.4870  145.6570 C   0  0  0  0  0  1  0  0  0  0  0  0
  194.6230  172.1290  145.5730 N   0  0  0  0  0  2  0  0  0  0  0  0
  2  5  1  0  0  0  0
  2  7  1  0  0  0  0
  4 10  1  0  0  0  0
  5  8  1  0  0  0  0
  6  9  1  0  0  0  0
  7 32  1  0  0  0  0
  7  3  1  0  0  0  0
  8  1  1  0  0  0  0
  8  3  2  0  0  0  0
  9 16  2  0  0  0  0
 10 14  1  0  0  0  0
 10  5  2  0  0  0  0
 11  9  1  0  0  0  0
 11  1  2  0  0  0  0
 12 15  2  0  0  0  0
 12  4  1  0  0  0  0
 13  2  2  0  0  0  0
 14 11  1  0  0  0  0
 15 17  1  0  0  0  0
 17 14  2  0  0  0  0
 17  6  1  0  0  0  0
 18  4  2  0  0  0  0
 18 13  1  0  0  0  0
 19 20  1  0  0  0  0
 19 18  1  0  0  0  0
 22 23  1  0  0  0  0
 22 25  1  0  0  0  0
 24 21  1  0  0  0  0
 25 28  1  0  0  0  0
 25 24  1  0  0  0  0
 27 20  1  0  0  0  0
 27 26  1  0  0  0  0
 28 30  1  1  0  0  0
 28 29  1  0  0  0  0
 29 21  1  1  0  0  0
 29 26  1  0  0  0  0
 30 27  2  0  0  0  0
 31 22  2  0  0  0  0
 33 32  1  0  0  0  0
 33 34  1  0  0  0  0
 35 36  1  0  0  0  0
 35 34  1  0  0  0  0
 37 36  1  0  0  0  0
 38 39  2  0  0  0  0
 39 41  1  0  0  0  0
 39 37  1  0  0  0  0
 40 41  1  0  0  0  0
 42 37  1  0  0  0  0
 42 44  1  0  0  0  0
 44 43  1  0  0  0  0
M  END
>  <MODEL>
9

>  <REMARK>
 VINA RESULT:      -6.9      2.417      3.315
  Name = 
  13 active torsions:
  status: ('A' for Active; 'I' for Inactive)
    1  A    between atoms: C_1  and  N_3
    2  A    between atoms: C_1  and  C_44
    3  A    between atoms: N_3  and  C_29
    4  A    between atoms: C_4  and  N_10
    5  A    between atoms: C_4  and  N_42
    6  A    between atoms: N_10  and  C_19
    7  A    between atoms: C_16  and  N_22
    8  A    between atoms: C_16  and  C_24
    9  A    between atoms: C_19  and  C_24
   10  A    between atoms: N_20  and  C_21
   11  A    between atoms: C_21  and  N_42
   12  A    between atoms: C_31  and  C_32
   13  A    between atoms: C_32  and  N_42
                            x       y       z     vdW  Elec       q    Type
                         _______ _______ _______ _____ _____    ______ ____

>  <TORSDO>
F 13

$$$$
