=
 OpenBabel11042417443D

 48 53  0  0  1  0  0  0  0  0999 V2000
  191.6140  170.5140  141.2400 C   0  0  0  0  0  3  0  0  0  0  0  0
  191.9830  172.1660  143.4500 C   0  0  0  0  0  0  0  0  0  0  0  0
  190.4230  176.9320  146.9620 O   0  0  0  0  0  0  0  0  0  0  0  0
  192.1820  172.9950  144.5720 C   0  0  0  0  0  0  0  0  0  0  0  0
  189.1010  175.2180  143.9760 N   0  0  0  0  0  0  0  0  0  0  0  0
  191.5010  174.9350  146.0040 N   0  0  0  0  0  0  0  0  0  0  0  0
  192.6650  170.3220  142.0800 N   0  0  0  0  0  0  0  0  0  0  0  0
  189.9840  176.7780  145.6160 C   0  0  2  0  0  0  0  0  0  0  0  0
  191.2900  174.0720  144.8490 C   0  0  0  0  0  0  0  0  0  0  0  0
  190.8850  172.3750  142.5920 C   0  0  0  0  0  0  0  0  0  0  0  0
  193.2590  172.7230  145.4130 O   0  0  0  0  0  1  0  0  0  0  0  0
  188.2340  175.0060  142.8210 C   0  0  2  0  0  3  0  0  0  0  0  0
  192.8660  171.1170  143.1660 C   0  0  0  0  0  3  0  0  0  0  0  0
  188.7320  176.2110  145.0000 C   0  0  0  0  0  2  0  0  0  0  0  0
  190.1610  174.2340  143.9660 C   0  0  0  0  0  0  0  0  0  0  0  0
  189.3410  174.8130  147.3470 C   0  0  0  0  0  1  0  0  0  0  0  0
  189.9980  173.4100  142.8760 C   0  0  0  0  0  0  0  0  0  0  0  0
  190.7030  171.5440  141.4800 C   0  0  0  0  0  3  0  0  0  0  0  0
  188.7980  173.7870  142.0790 C   0  0  0  0  0  2  0  0  0  0  0  0
  190.3350  175.6220  146.5110 C   0  0  2  0  0  0  0  0  0  0  0  0
  190.9850  177.1230  144.7010 O   0  0  0  0  0  1  0  0  0  0  0  0
  188.2670  176.2300  141.9130 C   0  0  0  0  0  2  0  0  0  0  0  0
  186.8720  176.8110  141.7170 C   0  0  0  0  0  2  0  0  0  0  0  0
  185.9640  176.5150  142.9040 C   0  0  0  0  0  2  0  0  0  0  0  0
  184.9410  177.6270  143.1080 C   0  0  2  0  0  3  0  0  0  0  0  0
  184.7920  178.4030  141.8070 C   0  0  0  0  0  1  0  0  0  0  0  0
  185.3730  178.5630  144.2420 C   0  0  1  0  0  3  0  0  0  0  0  0
  185.6610  179.8300  143.7320 O   0  0  0  0  0  1  0  0  0  0  0  0
  184.2730  178.7060  145.2880 C   0  0  0  0  0  2  0  0  0  0  0  0
  184.4530  177.7080  146.4240 C   0  0  0  0  0  2  0  0  0  0  0  0
  185.8800  179.4030  147.6320 N   0  0  0  0  0  1  0  0  0  0  0  0
  185.6450  178.0530  147.2490 C   0  0  0  0  0  0  0  0  0  0  0  0
  186.4290  177.1450  147.6310 O   0  0  0  0  0  0  0  0  0  0  0  0
  192.7290  174.9810  146.7950 C   0  0  0  0  0  2  0  0  0  0  0  0
  193.5790  176.1840  146.4100 C   0  0  0  0  0  2  0  0  0  0  0  0
  194.8790  175.7530  145.7460 C   0  0  0  0  0  2  0  0  0  0  0  0
  195.2810  176.7110  144.6350 C   0  0  0  0  0  2  0  0  0  0  0  0
  195.6240  175.9400  143.3730 C   0  0  0  0  0  2  0  0  0  0  0  0
  194.7970  173.7490  141.0350 C   0  0  0  0  0  2  0  0  0  0  0  0
  194.6230  174.9060  143.1390 N   0  0  0  0  0  0  0  0  0  0  0  0
  196.3470  172.9890  144.2530 O   0  0  0  0  0  0  0  0  0  0  0  0
  195.2380  173.8810  142.4040 N   0  0  0  0  0  0  0  0  0  0  0  0
  193.6230  175.4760  142.2380 C   0  0  0  0  0  2  0  0  0  0  0  0
  192.5870  174.3420  140.4130 O   0  0  0  0  0  1  0  0  0  0  0  0
  196.0880  172.9080  143.0210 C   0  0  0  0  0  0  0  0  0  0  0  0
  193.8020  174.8650  140.8540 C   0  0  2  0  0  3  0  0  0  0  0  0
  196.5060  170.5110  142.6450 C   0  0  0  0  0  1  0  0  0  0  0  0
  196.6250  171.8700  142.2540 O   0  0  0  0  0  0  0  0  0  0  0  0
  1 18  2  0  0  0  0
  1  7  1  0  0  0  0
  2  4  1  0  0  0  0
  4  9  2  0  0  0  0
  4 11  1  0  0  0  0
  5 14  1  0  0  0  0
  6 20  1  0  0  0  0
  6 34  1  0  0  0  0
  7 13  2  0  0  0  0
  8 21  1  6  0  0  0
  8 20  1  0  0  0  0
  8  3  1  0  0  0  0
  9  6  1  0  0  0  0
 10 17  1  0  0  0  0
 10  2  2  0  0  0  0
 12 22  1  6  0  0  0
 12  5  1  0  0  0  0
 13  2  1  0  0  0  0
 14  8  1  0  0  0  0
 15  5  1  0  0  0  0
 15  9  1  0  0  0  0
 17 15  2  0  0  0  0
 18 10  1  0  0  0  0
 19 12  1  0  0  0  0
 19 17  1  0  0  0  0
 20  3  1  0  0  0  0
 20 16  1  1  0  0  0
 23 22  1  0  0  0  0
 23 24  1  0  0  0  0
 24 25  1  0  0  0  0
 25 26  1  6  0  0  0
 25 27  1  0  0  0  0
 27 28  1  6  0  0  0
 27 29  1  0  0  0  0
 29 30  1  0  0  0  0
 30 32  1  0  0  0  0
 32 33  2  0  0  0  0
 32 31  1  0  0  0  0
 35 34  1  0  0  0  0
 36 35  1  0  0  0  0
 37 36  1  0  0  0  0
 38 37  1  0  0  0  0
 39 42  1  0  0  0  0
 40 38  1  0  0  0  0
 42 45  1  0  0  0  0
 42 40  1  0  0  0  0
 43 40  1  0  0  0  0
 45 41  2  0  0  0  0
 46 44  1  1  0  0  0
 46 39  1  0  0  0  0
 46 43  1  0  0  0  0
 48 47  1  0  0  0  0
 48 45  1  0  0  0  0
M  END
>  <MODEL>
1

>  <REMARK>
 VINA RESULT:      -7.2      0.000      0.000
  Name = 
  15 active torsions:
  status: ('A' for Active; 'I' for Inactive)
    1  A    between atoms: C_3  and  C_5
    2  A    between atoms: C_3  and  C_29
    3  A    between atoms: C_4  and  C_9
    4  A    between atoms: C_4  and  N_13
    5  A    between atoms: C_5  and  C_45
    6  A    between atoms: C_6  and  C_20
    7  A    between atoms: C_6  and  C_31
    8  A    between atoms: C_9  and  C_23
    9  A    between atoms: O_14  and  C_43
   10  A    between atoms: N_16  and  C_32
   11  A    between atoms: C_17  and  C_38
   12  A    between atoms: C_20  and  C_29
   13  A    between atoms: C_23  and  C_46
   14  A    between atoms: C_32  and  C_46
   15  A    between atoms: C_38  and  C_45
                            x       y       z     vdW  Elec       q    Type
                         _______ _______ _______ _____ _____    ______ ____

>  <TORSDO>
F 15

$$$$
=
 OpenBabel11042417443D

 48 53  0  0  1  0  0  0  0  0999 V2000
  190.6910  177.0620  147.4280 C   0  0  0  0  0  3  0  0  0  0  0  0
  191.0070  174.9330  145.6620 C   0  0  0  0  0  0  0  0  0  0  0  0
  189.8090  172.0490  140.3960 O   0  0  0  0  0  0  0  0  0  0  0  0
  191.1750  173.8480  144.7790 C   0  0  0  0  0  0  0  0  0  0  0  0
  188.9530  175.2690  141.9790 N   0  0  0  0  0  0  0  0  0  0  0  0
  190.6860  172.7070  142.6020 N   0  0  0  0  0  0  0  0  0  0  0  0
  191.4670  175.9960  147.7600 N   0  0  0  0  0  0  0  0  0  0  0  0
  188.9810  173.0780  140.9280 C   0  0  2  0  0  0  0  0  0  0  0  0
  190.5200  173.8330  143.5130 C   0  0  0  0  0  0  0  0  0  0  0  0
  190.2030  176.0330  145.3020 C   0  0  0  0  0  0  0  0  0  0  0  0
  192.0110  172.8040  145.1650 O   0  0  0  0  0  1  0  0  0  0  0  0
  188.2700  176.5490  142.1390 C   0  0  2  0  0  3  0  0  0  0  0  0
  191.6360  174.9450  146.9140 C   0  0  0  0  0  3  0  0  0  0  0  0
  188.8990  174.5630  140.6870 C   0  0  0  0  0  2  0  0  0  0  0  0
  189.7320  174.9900  143.1660 C   0  0  0  0  0  0  0  0  0  0  0  0
  191.5540  173.7130  140.4290 C   0  0  0  0  0  1  0  0  0  0  0  0
  189.5840  176.0310  144.0540 C   0  0  0  0  0  0  0  0  0  0  0  0
  190.0440  177.1010  146.1920 C   0  0  0  0  0  3  0  0  0  0  0  0
  188.6930  177.0930  143.5090 C   0  0  0  0  0  2  0  0  0  0  0  0
  190.4560  172.9770  141.2010 C   0  0  2  0  0  0  0  0  0  0  0  0
  188.1680  172.6060  141.9660 O   0  0  0  0  0  1  0  0  0  0  0  0
  186.7600  176.3410  142.1030 C   0  0  0  0  0  2  0  0  0  0  0  0
  186.0810  177.3740  141.2120 C   0  0  0  0  0  2  0  0  0  0  0  0
  185.6700  178.6140  141.9970 C   0  0  0  0  0  2  0  0  0  0  0  0
  184.5710  178.2920  143.0040 C   0  0  2  0  0  3  0  0  0  0  0  0
  183.2230  178.3610  142.3000 C   0  0  0  0  0  1  0  0  0  0  0  0
  184.6090  179.2710  144.1830 C   0  0  1  0  0  3  0  0  0  0  0  0
  183.5380  179.0230  145.0440 O   0  0  0  0  0  1  0  0  0  0  0  0
  185.9040  179.1300  144.9740 C   0  0  0  0  0  2  0  0  0  0  0  0
  185.6350  179.0530  146.4710 C   0  0  0  0  0  2  0  0  0  0  0  0
  186.3160  176.6490  146.1130 N   0  0  0  0  0  1  0  0  0  0  0  0
  185.9960  177.7100  147.0060 C   0  0  0  0  0  0  0  0  0  0  0  0
  186.0450  177.5210  148.2500 O   0  0  0  0  0  0  0  0  0  0  0  0
  191.2650  171.4170  142.9710 C   0  0  0  0  0  2  0  0  0  0  0  0
  192.5380  171.1460  142.1800 C   0  0  0  0  0  2  0  0  0  0  0  0
  193.6750  170.7100  143.0930 C   0  0  0  0  0  2  0  0  0  0  0  0
  194.9070  171.5800  142.9020 C   0  0  0  0  0  2  0  0  0  0  0  0
  194.5000  173.0130  142.6110 C   0  0  0  0  0  2  0  0  0  0  0  0
  195.2920  176.1880  142.1190 C   0  0  0  0  0  2  0  0  0  0  0  0
  195.6560  173.8910  142.7410 N   0  0  0  0  0  0  0  0  0  0  0  0
  194.8620  174.5460  145.3540 O   0  0  0  0  0  0  0  0  0  0  0  0
  195.1860  175.1560  143.1240 N   0  0  0  0  0  0  0  0  0  0  0  0
  196.2030  174.0770  141.3980 C   0  0  0  0  0  2  0  0  0  0  0  0
  197.0250  176.1290  140.5030 O   0  0  0  0  0  1  0  0  0  0  0  0
  194.8190  175.4530  144.4760 C   0  0  0  0  0  0  0  0  0  0  0  0
  195.8630  175.4820  140.9170 C   0  0  2  0  0  3  0  0  0  0  0  0
  194.4750  177.2210  146.1540 C   0  0  0  0  0  1  0  0  0  0  0  0
  194.4170  176.7470  144.8180 O   0  0  0  0  0  0  0  0  0  0  0  0
  1  7  1  0  0  0  0
  2 13  1  0  0  0  0
  3  8  1  0  0  0  0
  3 20  1  0  0  0  0
  4 11  1  0  0  0  0
  4  2  2  0  0  0  0
  5 12  1  0  0  0  0
  5 15  1  0  0  0  0
  6 34  1  0  0  0  0
  6  9  1  0  0  0  0
  8 20  1  0  0  0  0
  8 21  1  1  0  0  0
  9  4  1  0  0  0  0
 10  2  1  0  0  0  0
 10 18  1  0  0  0  0
 12 22  1  1  0  0  0
 12 19  1  0  0  0  0
 13  7  2  0  0  0  0
 14  8  1  0  0  0  0
 14  5  1  0  0  0  0
 15  9  2  0  0  0  0
 15 17  1  0  0  0  0
 17 10  2  0  0  0  0
 18  1  2  0  0  0  0
 19 17  1  0  0  0  0
 20 16  1  6  0  0  0
 20  6  1  0  0  0  0
 23 24  1  0  0  0  0
 23 22  1  0  0  0  0
 24 25  1  0  0  0  0
 25 26  1  6  0  0  0
 25 27  1  0  0  0  0
 27 29  1  0  0  0  0
 27 28  1  1  0  0  0
 29 30  1  0  0  0  0
 30 32  1  0  0  0  0
 31 32  1  0  0  0  0
 32 33  2  0  0  0  0
 35 34  1  0  0  0  0
 35 36  1  0  0  0  0
 37 36  1  0  0  0  0
 38 40  1  0  0  0  0
 38 37  1  0  0  0  0
 39 42  1  0  0  0  0
 40 42  1  0  0  0  0
 42 45  1  0  0  0  0
 43 40  1  0  0  0  0
 45 48  1  0  0  0  0
 45 41  2  0  0  0  0
 46 44  1  1  0  0  0
 46 43  1  0  0  0  0
 46 39  1  0  0  0  0
 48 47  1  0  0  0  0
M  END
>  <MODEL>
2

>  <REMARK>
 VINA RESULT:      -6.8      1.896      4.368
  Name = 
  15 active torsions:
  status: ('A' for Active; 'I' for Inactive)
    1  A    between atoms: C_3  and  C_5
    2  A    between atoms: C_3  and  C_29
    3  A    between atoms: C_4  and  C_9
    4  A    between atoms: C_4  and  N_13
    5  A    between atoms: C_5  and  C_45
    6  A    between atoms: C_6  and  C_20
    7  A    between atoms: C_6  and  C_31
    8  A    between atoms: C_9  and  C_23
    9  A    between atoms: O_14  and  C_43
   10  A    between atoms: N_16  and  C_32
   11  A    between atoms: C_17  and  C_38
   12  A    between atoms: C_20  and  C_29
   13  A    between atoms: C_23  and  C_46
   14  A    between atoms: C_32  and  C_46
   15  A    between atoms: C_38  and  C_45
                            x       y       z     vdW  Elec       q    Type
                         _______ _______ _______ _____ _____    ______ ____

>  <TORSDO>
F 15

$$$$
=
 OpenBabel11042417443D

 48 53  0  0  1  0  0  0  0  0999 V2000
  189.7630  177.2780  147.0390 C   0  0  0  0  0  3  0  0  0  0  0  0
  190.0020  175.0320  145.4120 C   0  0  0  0  0  0  0  0  0  0  0  0
  189.1640  172.0750  140.1170 O   0  0  0  0  0  0  0  0  0  0  0  0
  190.1280  173.8870  144.6000 C   0  0  0  0  0  0  0  0  0  0  0  0
  188.5940  175.4680  141.4460 N   0  0  0  0  0  0  0  0  0  0  0  0
  189.7960  172.7140  142.4100 N   0  0  0  0  0  0  0  0  0  0  0  0
  190.3060  176.1280  147.5210 N   0  0  0  0  0  0  0  0  0  0  0  0
  188.4360  173.2430  140.4820 C   0  0  2  0  0  0  0  0  0  0  0  0
  189.6740  173.9000  143.2490 C   0  0  0  0  0  0  0  0  0  0  0  0
  189.4420  176.2170  144.8970 C   0  0  0  0  0  0  0  0  0  0  0  0
  190.7260  172.7530  145.1430 O   0  0  0  0  0  1  0  0  0  0  0  0
  188.1030  176.8420  141.4580 C   0  0  2  0  0  3  0  0  0  0  0  0
  190.4330  175.0180  146.7450 C   0  0  0  0  0  3  0  0  0  0  0  0
  188.6240  174.7080  140.1850 C   0  0  0  0  0  2  0  0  0  0  0  0
  189.1360  175.1420  142.7480 C   0  0  0  0  0  0  0  0  0  0  0  0
  191.1220  173.4590  140.3680 C   0  0  0  0  0  1  0  0  0  0  0  0
  189.0220  176.2400  143.5690 C   0  0  0  0  0  0  0  0  0  0  0  0
  189.3210  177.3450  145.7170 C   0  0  0  0  0  3  0  0  0  0  0  0
  188.3970  177.3910  142.8600 C   0  0  0  0  0  2  0  0  0  0  0  0
  189.8210  172.9380  140.9830 C   0  0  2  0  0  0  0  0  0  0  0  0
  187.4160  172.9550  141.3960 O   0  0  0  0  0  1  0  0  0  0  0  0
  186.6010  176.8600  141.1950 C   0  0  0  0  0  2  0  0  0  0  0  0
  186.0530  178.2810  141.2230 C   0  0  0  0  0  2  0  0  0  0  0  0
  184.5300  178.2980  141.2420 C   0  0  0  0  0  2  0  0  0  0  0  0
  183.9910  178.0750  142.6520 C   0  0  2  0  0  3  0  0  0  0  0  0
  182.6570  178.7950  142.7890 C   0  0  0  0  0  1  0  0  0  0  0  0
  184.9840  178.5860  143.7020 C   0  0  1  0  0  3  0  0  0  0  0  0
  184.4430  179.6810  144.3780 O   0  0  0  0  0  1  0  0  0  0  0  0
  185.3090  177.5030  144.7250 C   0  0  0  0  0  2  0  0  0  0  0  0
  184.7090  177.8270  146.0860 C   0  0  0  0  0  2  0  0  0  0  0  0
  186.1670  179.0480  147.7460 N   0  0  0  0  0  1  0  0  0  0  0  0
  185.7590  177.8250  147.1430 C   0  0  0  0  0  0  0  0  0  0  0  0
  186.2660  176.7370  147.5240 O   0  0  0  0  0  0  0  0  0  0  0  0
  190.1060  171.3750  142.9050 C   0  0  0  0  0  2  0  0  0  0  0  0
  191.3620  170.8260  142.2400 C   0  0  0  0  0  2  0  0  0  0  0  0
  192.6000  171.1050  143.0800 C   0  0  0  0  0  2  0  0  0  0  0  0
  193.8580  171.1280  142.2270 C   0  0  0  0  0  2  0  0  0  0  0  0
  195.0380  171.6280  143.0420 C   0  0  0  0  0  2  0  0  0  0  0  0
  196.5190  172.1680  145.9510 C   0  0  0  0  0  2  0  0  0  0  0  0
  194.7780  171.4260  144.4610 N   0  0  0  0  0  0  0  0  0  0  0  0
  193.6500  173.9930  144.6180 O   0  0  0  0  0  0  0  0  0  0  0  0
  195.3600  172.4980  145.1540 N   0  0  0  0  0  0  0  0  0  0  0  0
  195.5410  170.2480  144.8710 C   0  0  0  0  0  2  0  0  0  0  0  0
  196.7500  170.0140  146.9130 O   0  0  0  0  0  1  0  0  0  0  0  0
  194.7330  173.7840  145.2310 C   0  0  0  0  0  0  0  0  0  0  0  0
  196.7370  170.6990  145.7000 C   0  0  2  0  0  3  0  0  0  0  0  0
  194.6320  176.0000  146.2990 C   0  0  0  0  0  1  0  0  0  0  0  0
  195.3240  174.8000  145.9860 O   0  0  0  0  0  0  0  0  0  0  0  0
  1  7  1  0  0  0  0
  2 13  1  0  0  0  0
  3  8  1  0  0  0  0
  3 20  1  0  0  0  0
  4 11  1  0  0  0  0
  4  2  2  0  0  0  0
  5 12  1  0  0  0  0
  5 15  1  0  0  0  0
  6 34  1  0  0  0  0
  6  9  1  0  0  0  0
  8 20  1  0  0  0  0
  8 21  1  1  0  0  0
  9  4  1  0  0  0  0
 10  2  1  0  0  0  0
 10 18  1  0  0  0  0
 12 22  1  1  0  0  0
 12 19  1  0  0  0  0
 13  7  2  0  0  0  0
 14  8  1  0  0  0  0
 14  5  1  0  0  0  0
 15  9  2  0  0  0  0
 15 17  1  0  0  0  0
 17 10  2  0  0  0  0
 18  1  2  0  0  0  0
 19 17  1  0  0  0  0
 20 16  1  6  0  0  0
 20  6  1  0  0  0  0
 22 23  1  0  0  0  0
 23 24  1  0  0  0  0
 24 25  1  0  0  0  0
 25 26  1  6  0  0  0
 25 27  1  0  0  0  0
 27 28  1  1  0  0  0
 27 29  1  0  0  0  0
 29 30  1  0  0  0  0
 30 32  1  0  0  0  0
 32 33  2  0  0  0  0
 32 31  1  0  0  0  0
 35 34  1  0  0  0  0
 35 36  1  0  0  0  0
 37 38  1  0  0  0  0
 37 36  1  0  0  0  0
 38 40  1  0  0  0  0
 40 43  1  0  0  0  0
 40 42  1  0  0  0  0
 41 45  2  0  0  0  0
 42 45  1  0  0  0  0
 42 39  1  0  0  0  0
 43 46  1  0  0  0  0
 45 48  1  0  0  0  0
 46 39  1  0  0  0  0
 46 44  1  1  0  0  0
 48 47  1  0  0  0  0
M  END
>  <MODEL>
3

>  <REMARK>
 VINA RESULT:      -6.4      2.093      4.865
  Name = 
  15 active torsions:
  status: ('A' for Active; 'I' for Inactive)
    1  A    between atoms: C_3  and  C_5
    2  A    between atoms: C_3  and  C_29
    3  A    between atoms: C_4  and  C_9
    4  A    between atoms: C_4  and  N_13
    5  A    between atoms: C_5  and  C_45
    6  A    between atoms: C_6  and  C_20
    7  A    between atoms: C_6  and  C_31
    8  A    between atoms: C_9  and  C_23
    9  A    between atoms: O_14  and  C_43
   10  A    between atoms: N_16  and  C_32
   11  A    between atoms: C_17  and  C_38
   12  A    between atoms: C_20  and  C_29
   13  A    between atoms: C_23  and  C_46
   14  A    between atoms: C_32  and  C_46
   15  A    between atoms: C_38  and  C_45
                            x       y       z     vdW  Elec       q    Type
                         _______ _______ _______ _____ _____    ______ ____

>  <TORSDO>
F 15

$$$$
=
 OpenBabel11042417443D

 48 53  0  0  1  0  0  0  0  0999 V2000
  188.2930  172.9000  141.2910 C   0  0  0  0  0  3  0  0  0  0  0  0
  190.8130  173.9700  141.7970 C   0  0  0  0  0  0  0  0  0  0  0  0
  194.9420  176.5710  145.4930 O   0  0  0  0  0  0  0  0  0  0  0  0
  192.0920  174.5100  142.0380 C   0  0  0  0  0  0  0  0  0  0  0  0
  191.5270  175.2100  145.7780 N   0  0  0  0  0  0  0  0  0  0  0  0
  193.7690  175.5480  143.5850 N   0  0  0  0  0  0  0  0  0  0  0  0
  189.2150  173.0020  140.2960 N   0  0  0  0  0  0  0  0  0  0  0  0
  193.5450  176.5620  145.7680 C   0  0  2  0  0  0  0  0  0  0  0  0
  192.4490  174.9810  143.3360 C   0  0  0  0  0  0  0  0  0  0  0  0
  189.8700  173.8680  142.8390 C   0  0  0  0  0  0  0  0  0  0  0  0
  193.0020  174.5520  140.9860 O   0  0  0  0  0  1  0  0  0  0  0  0
  190.2450  174.9160  146.4120 C   0  0  2  0  0  3  0  0  0  0  0  0
  190.4520  173.5210  140.5200 C   0  0  0  0  0  3  0  0  0  0  0  0
  192.6650  175.6630  146.5960 C   0  0  0  0  0  2  0  0  0  0  0  0
  191.4690  174.8300  144.3830 C   0  0  0  0  0  0  0  0  0  0  0  0
  194.7540  174.1670  145.4850 C   0  0  0  0  0  1  0  0  0  0  0  0
  190.2270  174.3030  144.1120 C   0  0  0  0  0  0  0  0  0  0  0  0
  188.6030  173.3310  142.5810 C   0  0  0  0  0  3  0  0  0  0  0  0
  189.3630  174.2860  145.3260 C   0  0  0  0  0  2  0  0  0  0  0  0
  194.2370  175.5060  144.9510 C   0  0  2  0  0  0  0  0  0  0  0  0
  192.8610  177.5200  145.0120 O   0  0  0  0  0  1  0  0  0  0  0  0
  189.6080  176.2040  146.9190 C   0  0  0  0  0  2  0  0  0  0  0  0
  188.4180  176.6080  146.0580 C   0  0  0  0  0  2  0  0  0  0  0  0
  187.1600  176.8140  146.8920 C   0  0  0  0  0  2  0  0  0  0  0  0
  186.3710  178.0280  146.4150 C   0  0  2  0  0  3  0  0  0  0  0  0
  185.9740  178.8630  147.6240 C   0  0  0  0  0  1  0  0  0  0  0  0
  185.1250  177.5950  145.6330 C   0  0  1  0  0  3  0  0  0  0  0  0
  183.9890  178.2040  146.1690 O   0  0  0  0  0  1  0  0  0  0  0  0
  185.2330  177.9890  144.1640 C   0  0  0  0  0  2  0  0  0  0  0  0
  185.8920  176.8910  143.3410 C   0  0  0  0  0  2  0  0  0  0  0  0
  187.8260  176.6600  141.7350 N   0  0  0  0  0  1  0  0  0  0  0  0
  186.8160  177.4710  142.3260 C   0  0  0  0  0  0  0  0  0  0  0  0
  186.6860  178.6720  141.9700 O   0  0  0  0  0  0  0  0  0  0  0  0
  194.7140  175.9440  142.5420 C   0  0  0  0  0  2  0  0  0  0  0  0
  196.0670  175.2770  142.7530 C   0  0  0  0  0  2  0  0  0  0  0  0
  196.2830  174.1410  141.7640 C   0  0  0  0  0  2  0  0  0  0  0  0
  197.1780  173.0580  142.3470 C   0  0  0  0  0  2  0  0  0  0  0  0
  196.4590  171.7210  142.3420 C   0  0  0  0  0  2  0  0  0  0  0  0
  194.7930  169.4820  144.1190 C   0  0  0  0  0  2  0  0  0  0  0  0
  195.4830  171.6820  143.4230 N   0  0  0  0  0  0  0  0  0  0  0  0
  197.5690  171.5430  145.2990 O   0  0  0  0  0  0  0  0  0  0  0  0
  195.7620  170.5500  144.2040 N   0  0  0  0  0  0  0  0  0  0  0  0
  194.1820  171.4120  142.8120 C   0  0  0  0  0  2  0  0  0  0  0  0
  192.5110  169.9520  143.6860 O   0  0  0  0  0  1  0  0  0  0  0  0
  196.8200  170.5350  145.1700 C   0  0  0  0  0  0  0  0  0  0  0  0
  193.7820  169.9740  143.1170 C   0  0  2  0  0  3  0  0  0  0  0  0
  196.4430  169.2910  147.2600 C   0  0  0  0  0  1  0  0  0  0  0  0
  197.0160  169.4040  145.9660 O   0  0  0  0  0  0  0  0  0  0  0  0
  1 18  1  0  0  0  0
  2  4  1  0  0  0  0
  2 10  1  0  0  0  0
  3  8  1  0  0  0  0
  4  9  2  0  0  0  0
  5 12  1  0  0  0  0
  5 14  1  0  0  0  0
  6 20  1  0  0  0  0
  7 13  1  0  0  0  0
  7  1  2  0  0  0  0
  8 21  1  6  0  0  0
  8 14  1  0  0  0  0
  9  6  1  0  0  0  0
  9 15  1  0  0  0  0
 10 17  1  0  0  0  0
 11  4  1  0  0  0  0
 12 22  1  6  0  0  0
 13  2  2  0  0  0  0
 15  5  1  0  0  0  0
 17 15  2  0  0  0  0
 17 19  1  0  0  0  0
 18 10  2  0  0  0  0
 19 12  1  0  0  0  0
 20 16  1  1  0  0  0
 20  3  1  0  0  0  0
 20  8  1  0  0  0  0
 23 24  1  0  0  0  0
 23 22  1  0  0  0  0
 25 24  1  0  0  0  0
 25 26  1  1  0  0  0
 27 28  1  1  0  0  0
 27 25  1  0  0  0  0
 29 27  1  0  0  0  0
 30 29  1  0  0  0  0
 31 32  1  0  0  0  0
 32 30  1  0  0  0  0
 33 32  2  0  0  0  0
 34 35  1  0  0  0  0
 34  6  1  0  0  0  0
 36 37  1  0  0  0  0
 36 35  1  0  0  0  0
 38 37  1  0  0  0  0
 38 40  1  0  0  0  0
 39 42  1  0  0  0  0
 40 42  1  0  0  0  0
 42 45  1  0  0  0  0
 43 46  1  0  0  0  0
 43 40  1  0  0  0  0
 45 41  2  0  0  0  0
 45 48  1  0  0  0  0
 46 44  1  1  0  0  0
 46 39  1  0  0  0  0
 48 47  1  0  0  0  0
M  END
>  <MODEL>
4

>  <REMARK>
 VINA RESULT:      -6.2      2.049      4.129
  Name = 
  15 active torsions:
  status: ('A' for Active; 'I' for Inactive)
    1  A    between atoms: C_3  and  C_5
    2  A    between atoms: C_3  and  C_29
    3  A    between atoms: C_4  and  C_9
    4  A    between atoms: C_4  and  N_13
    5  A    between atoms: C_5  and  C_45
    6  A    between atoms: C_6  and  C_20
    7  A    between atoms: C_6  and  C_31
    8  A    between atoms: C_9  and  C_23
    9  A    between atoms: O_14  and  C_43
   10  A    between atoms: N_16  and  C_32
   11  A    between atoms: C_17  and  C_38
   12  A    between atoms: C_20  and  C_29
   13  A    between atoms: C_23  and  C_46
   14  A    between atoms: C_32  and  C_46
   15  A    between atoms: C_38  and  C_45
                            x       y       z     vdW  Elec       q    Type
                         _______ _______ _______ _____ _____    ______ ____

>  <TORSDO>
F 15

$$$$
=
 OpenBabel11042417443D

 48 53  0  0  1  0  0  0  0  0999 V2000
  193.2920  173.8720  138.1170 C   0  0  0  0  0  3  0  0  0  0  0  0
  192.3100  173.9880  140.7200 C   0  0  0  0  0  0  0  0  0  0  0  0
  192.7820  175.5780  146.6130 O   0  0  0  0  0  0  0  0  0  0  0  0
  191.8020  174.0380  142.0330 C   0  0  0  0  0  0  0  0  0  0  0  0
  194.7360  176.0340  143.5180 N   0  0  0  0  0  0  0  0  0  0  0  0
  192.0130  174.7280  144.4330 N   0  0  0  0  0  0  0  0  0  0  0  0
  192.1010  173.2970  138.4350 N   0  0  0  0  0  0  0  0  0  0  0  0
  193.9010  175.4950  145.7360 C   0  0  2  0  0  0  0  0  0  0  0  0
  192.5340  174.6830  143.0730 C   0  0  0  0  0  0  0  0  0  0  0  0
  193.5440  174.5920  140.4060 C   0  0  0  0  0  0  0  0  0  0  0  0
  190.5600  173.4610  142.2850 O   0  0  0  0  0  1  0  0  0  0  0  0
  195.8760  176.4190  142.6920 C   0  0  2  0  0  3  0  0  0  0  0  0
  191.6010  173.3410  139.7000 C   0  0  0  0  0  3  0  0  0  0  0  0
  194.6370  176.5150  144.9070 C   0  0  0  0  0  2  0  0  0  0  0  0
  193.7770  175.3170  142.7050 C   0  0  0  0  0  0  0  0  0  0  0  0
  191.9260  177.1990  145.0470 C   0  0  0  0  0  1  0  0  0  0  0  0
  194.2480  175.2450  141.4140 C   0  0  0  0  0  0  0  0  0  0  0  0
  194.0360  174.5310  139.0970 C   0  0  0  0  0  3  0  0  0  0  0  0
  195.5650  175.9250  141.2740 C   0  0  0  0  0  2  0  0  0  0  0  0
  192.5030  175.7980  145.2710 C   0  0  2  0  0  0  0  0  0  0  0  0
  194.3020  174.1700  145.5300 O   0  0  0  0  0  1  0  0  0  0  0  0
  197.1440  175.7520  143.2120 C   0  0  0  0  0  2  0  0  0  0  0  0
  197.7940  174.8900  142.1370 C   0  0  0  0  0  2  0  0  0  0  0  0
  197.9300  173.4390  142.5810 C   0  0  0  0  0  2  0  0  0  0  0  0
  197.5310  172.4790  141.4650 C   0  0  2  0  0  3  0  0  0  0  0  0
  197.7510  173.1650  140.1240 C   0  0  0  0  0  1  0  0  0  0  0  0
  196.0670  172.0510  141.6120 C   0  0  1  0  0  3  0  0  0  0  0  0
  195.9100  170.7300  141.1900 O   0  0  0  0  0  1  0  0  0  0  0  0
  195.6090  172.1480  143.0630 C   0  0  0  0  0  2  0  0  0  0  0  0
  195.6000  170.7820  143.7350 C   0  0  0  0  0  2  0  0  0  0  0  0
  195.3440  170.0690  146.1430 N   0  0  0  0  0  1  0  0  0  0  0  0
  195.9770  170.8950  145.1730 C   0  0  0  0  0  0  0  0  0  0  0  0
  196.8760  171.7030  145.5250 O   0  0  0  0  0  0  0  0  0  0  0  0
  190.8980  173.9210  144.9240 C   0  0  0  0  0  2  0  0  0  0  0  0
  189.6520  174.7740  145.1180 C   0  0  0  0  0  2  0  0  0  0  0  0
  189.1760  174.7380  146.5630 C   0  0  0  0  0  2  0  0  0  0  0  0
  188.4280  176.0080  146.9350 C   0  0  0  0  0  2  0  0  0  0  0  0
  188.1970  176.8640  145.7030 C   0  0  0  0  0  2  0  0  0  0  0  0
  185.8060  178.8800  144.6240 C   0  0  0  0  0  2  0  0  0  0  0  0
  186.7960  176.7950  145.3100 N   0  0  0  0  0  0  0  0  0  0  0  0
  187.5660  176.3660  142.6440 O   0  0  0  0  0  0  0  0  0  0  0  0
  186.6000  177.7240  144.2770 N   0  0  0  0  0  0  0  0  0  0  0  0
  186.0120  177.3040  146.4350 C   0  0  0  0  0  2  0  0  0  0  0  0
  184.1080  178.7310  146.2720 O   0  0  0  0  0  1  0  0  0  0  0  0
  186.9840  177.4500  142.9250 C   0  0  0  0  0  0  0  0  0  0  0  0
  185.4890  178.6910  146.0840 C   0  0  2  0  0  3  0  0  0  0  0  0
  185.7730  178.1190  140.8890 C   0  0  0  0  0  1  0  0  0  0  0  0
  186.7090  178.3830  141.9230 O   0  0  0  0  0  0  0  0  0  0  0  0
  1  7  2  0  0  0  0
  1 18  1  0  0  0  0
  2  4  1  0  0  0  0
  4 11  1  0  0  0  0
  4  9  2  0  0  0  0
  5 14  1  0  0  0  0
  6 34  1  0  0  0  0
  6 20  1  0  0  0  0
  7 13  1  0  0  0  0
  8 21  1  6  0  0  0
  8  3  1  0  0  0  0
  9  6  1  0  0  0  0
 10  2  1  0  0  0  0
 10 17  1  0  0  0  0
 12 22  1  1  0  0  0
 12  5  1  0  0  0  0
 13  2  2  0  0  0  0
 14  8  1  0  0  0  0
 15  9  1  0  0  0  0
 15  5  1  0  0  0  0
 17 15  2  0  0  0  0
 18 10  2  0  0  0  0
 19 17  1  0  0  0  0
 19 12  1  0  0  0  0
 20 16  1  6  0  0  0
 20  8  1  0  0  0  0
 20  3  1  0  0  0  0
 23 24  1  0  0  0  0
 23 22  1  0  0  0  0
 25 26  1  6  0  0  0
 25 27  1  0  0  0  0
 25 24  1  0  0  0  0
 27 28  1  1  0  0  0
 27 29  1  0  0  0  0
 29 30  1  0  0  0  0
 30 32  1  0  0  0  0
 32 33  2  0  0  0  0
 32 31  1  0  0  0  0
 34 35  1  0  0  0  0
 35 36  1  0  0  0  0
 36 37  1  0  0  0  0
 38 37  1  0  0  0  0
 39 46  1  0  0  0  0
 40 38  1  0  0  0  0
 40 43  1  0  0  0  0
 41 45  2  0  0  0  0
 42 39  1  0  0  0  0
 42 40  1  0  0  0  0
 45 42  1  0  0  0  0
 46 44  1  6  0  0  0
 46 43  1  0  0  0  0
 47 48  1  0  0  0  0
 48 45  1  0  0  0  0
M  END
>  <MODEL>
5

>  <REMARK>
 VINA RESULT:      -6.2      2.183      8.738
  Name = 
  15 active torsions:
  status: ('A' for Active; 'I' for Inactive)
    1  A    between atoms: C_3  and  C_5
    2  A    between atoms: C_3  and  C_29
    3  A    between atoms: C_4  and  C_9
    4  A    between atoms: C_4  and  N_13
    5  A    between atoms: C_5  and  C_45
    6  A    between atoms: C_6  and  C_20
    7  A    between atoms: C_6  and  C_31
    8  A    between atoms: C_9  and  C_23
    9  A    between atoms: O_14  and  C_43
   10  A    between atoms: N_16  and  C_32
   11  A    between atoms: C_17  and  C_38
   12  A    between atoms: C_20  and  C_29
   13  A    between atoms: C_23  and  C_46
   14  A    between atoms: C_32  and  C_46
   15  A    between atoms: C_38  and  C_45
                            x       y       z     vdW  Elec       q    Type
                         _______ _______ _______ _____ _____    ______ ____

>  <TORSDO>
F 15

$$$$
=
 OpenBabel11042417443D

 48 53  0  0  1  0  0  0  0  0999 V2000
  191.5440  169.7560  141.9730 C   0  0  0  0  0  3  0  0  0  0  0  0
  192.0390  171.7340  143.8690 C   0  0  0  0  0  0  0  0  0  0  0  0
  190.8060  177.1100  146.5260 O   0  0  0  0  0  0  0  0  0  0  0  0
  192.3010  172.7270  144.8330 C   0  0  0  0  0  0  0  0  0  0  0  0
  189.3460  174.9970  143.8790 N   0  0  0  0  0  0  0  0  0  0  0  0
  191.7530  174.9190  145.9170 N   0  0  0  0  0  0  0  0  0  0  0  0
  192.5950  169.6480  142.8300 N   0  0  0  0  0  0  0  0  0  0  0  0
  190.3410  176.7570  145.2270 C   0  0  2  0  0  0  0  0  0  0  0  0
  191.4770  173.8870  144.9260 C   0  0  0  0  0  0  0  0  0  0  0  0
  190.9440  171.8590  142.9920 C   0  0  0  0  0  0  0  0  0  0  0  0
  193.3710  172.5380  145.7040 O   0  0  0  0  0  1  0  0  0  0  0  0
  188.4530  174.6440  142.7800 C   0  0  2  0  0  3  0  0  0  0  0  0
  192.8560  170.6010  143.7640 C   0  0  0  0  0  3  0  0  0  0  0  0
  189.0490  176.1690  144.7210 C   0  0  0  0  0  2  0  0  0  0  0  0
  190.3470  173.9640  144.0320 C   0  0  0  0  0  0  0  0  0  0  0  0
  189.6070  175.1550  147.2690 C   0  0  0  0  0  1  0  0  0  0  0  0
  190.1220  172.9780  143.0990 C   0  0  0  0  0  0  0  0  0  0  0  0
  190.6980  170.8640  142.0380 C   0  0  0  0  0  3  0  0  0  0  0  0
  188.9350  173.2860  142.2540 C   0  0  0  0  0  2  0  0  0  0  0  0
  190.6360  175.7500  146.3050 C   0  0  2  0  0  0  0  0  0  0  0  0
  191.3480  176.8820  144.2630 O   0  0  0  0  0  1  0  0  0  0  0  0
  188.5450  175.6930  141.6770 C   0  0  0  0  0  2  0  0  0  0  0  0
  187.1640  176.1990  141.2790 C   0  0  0  0  0  2  0  0  0  0  0  0
  186.3690  176.6820  142.4860 C   0  0  0  0  0  2  0  0  0  0  0  0
  185.1760  177.5300  142.0590 C   0  0  2  0  0  3  0  0  0  0  0  0
  185.5620  178.3400  140.8290 C   0  0  0  0  0  1  0  0  0  0  0  0
  184.7350  178.4610  143.1940 C   0  0  1  0  0  3  0  0  0  0  0  0
  183.3510  178.6380  143.1570 O   0  0  0  0  0  1  0  0  0  0  0  0
  185.1090  177.8850  144.5550 C   0  0  0  0  0  2  0  0  0  0  0  0
  185.8480  178.9070  145.4080 C   0  0  0  0  0  2  0  0  0  0  0  0
  186.7380  178.3760  147.7100 N   0  0  0  0  0  1  0  0  0  0  0  0
  185.6290  178.6450  146.8590 C   0  0  0  0  0  0  0  0  0  0  0  0
  184.4650  178.6900  147.3370 O   0  0  0  0  0  0  0  0  0  0  0  0
  192.9920  175.0250  146.6850 C   0  0  0  0  0  2  0  0  0  0  0  0
  193.9420  176.0310  146.0480 C   0  0  0  0  0  2  0  0  0  0  0  0
  195.2960  175.4020  145.7520 C   0  0  0  0  0  2  0  0  0  0  0  0
  195.8270  175.8360  144.3950 C   0  0  0  0  0  2  0  0  0  0  0  0
  195.2320  174.9740  143.2950 C   0  0  0  0  0  2  0  0  0  0  0  0
  195.6230  172.9190  140.7320 C   0  0  0  0  0  2  0  0  0  0  0  0
  196.2750  174.1520  142.6940 N   0  0  0  0  0  0  0  0  0  0  0  0
  196.9950  176.2920  141.0230 O   0  0  0  0  0  0  0  0  0  0  0  0
  196.0750  174.1650  141.3060 N   0  0  0  0  0  0  0  0  0  0  0  0
  196.0200  172.7720  143.1050 C   0  0  0  0  0  2  0  0  0  0  0  0
  196.2260  170.8470  141.7130 O   0  0  0  0  0  1  0  0  0  0  0  0
  196.4850  175.2680  140.4890 C   0  0  0  0  0  0  0  0  0  0  0  0
  195.4680  171.9980  141.9140 C   0  0  2  0  0  3  0  0  0  0  0  0
  197.4130  175.3620  138.2100 C   0  0  0  0  0  1  0  0  0  0  0  0
  196.3200  175.2030  139.1030 O   0  0  0  0  0  0  0  0  0  0  0  0
  1 18  2  0  0  0  0
  1  7  1  0  0  0  0
  2  4  1  0  0  0  0
  4  9  2  0  0  0  0
  4 11  1  0  0  0  0
  5 15  1  0  0  0  0
  5 14  1  0  0  0  0
  6 20  1  0  0  0  0
  6 34  1  0  0  0  0
  7 13  2  0  0  0  0
  8 21  1  6  0  0  0
  8 20  1  0  0  0  0
  8  3  1  0  0  0  0
  9  6  1  0  0  0  0
 10 17  1  0  0  0  0
 10  2  2  0  0  0  0
 12 22  1  6  0  0  0
 12  5  1  0  0  0  0
 13  2  1  0  0  0  0
 14  8  1  0  0  0  0
 15  9  1  0  0  0  0
 17 15  2  0  0  0  0
 18 10  1  0  0  0  0
 19 12  1  0  0  0  0
 19 17  1  0  0  0  0
 20  3  1  0  0  0  0
 20 16  1  1  0  0  0
 23 22  1  0  0  0  0
 23 24  1  0  0  0  0
 25 26  1  6  0  0  0
 25 24  1  0  0  0  0
 25 27  1  0  0  0  0
 27 28  1  1  0  0  0
 27 29  1  0  0  0  0
 29 30  1  0  0  0  0
 30 32  1  0  0  0  0
 32 33  2  0  0  0  0
 32 31  1  0  0  0  0
 35 34  1  0  0  0  0
 36 35  1  0  0  0  0
 37 36  1  0  0  0  0
 38 37  1  0  0  0  0
 39 42  1  0  0  0  0
 39 46  1  0  0  0  0
 40 43  1  0  0  0  0
 40 38  1  0  0  0  0
 42 40  1  0  0  0  0
 45 41  2  0  0  0  0
 45 42  1  0  0  0  0
 46 44  1  6  0  0  0
 46 43  1  0  0  0  0
 47 48  1  0  0  0  0
 48 45  1  0  0  0  0
M  END
>  <MODEL>
6

>  <REMARK>
 VINA RESULT:      -6.2      1.458      2.026
  Name = 
  15 active torsions:
  status: ('A' for Active; 'I' for Inactive)
    1  A    between atoms: C_3  and  C_5
    2  A    between atoms: C_3  and  C_29
    3  A    between atoms: C_4  and  C_9
    4  A    between atoms: C_4  and  N_13
    5  A    between atoms: C_5  and  C_45
    6  A    between atoms: C_6  and  C_20
    7  A    between atoms: C_6  and  C_31
    8  A    between atoms: C_9  and  C_23
    9  A    between atoms: O_14  and  C_43
   10  A    between atoms: N_16  and  C_32
   11  A    between atoms: C_17  and  C_38
   12  A    between atoms: C_20  and  C_29
   13  A    between atoms: C_23  and  C_46
   14  A    between atoms: C_32  and  C_46
   15  A    between atoms: C_38  and  C_45
                            x       y       z     vdW  Elec       q    Type
                         _______ _______ _______ _____ _____    ______ ____

>  <TORSDO>
F 15

$$$$
=
 OpenBabel11042417443D

 48 53  0  0  1  0  0  0  0  0999 V2000
  184.7310  178.5200  146.5270 C   0  0  0  0  0  3  0  0  0  0  0  0
  186.0060  177.3270  144.3580 C   0  0  0  0  0  0  0  0  0  0  0  0
  190.6530  174.2340  141.8470 O   0  0  0  0  0  0  0  0  0  0  0  0
  186.6400  176.7290  143.2510 C   0  0  0  0  0  0  0  0  0  0  0  0
  189.6470  175.3510  145.2140 N   0  0  0  0  0  0  0  0  0  0  0  0
  188.5440  175.4370  142.2590 N   0  0  0  0  0  0  0  0  0  0  0  0
  184.1880  178.5860  145.2820 N   0  0  0  0  0  0  0  0  0  0  0  0
  190.7510  174.9110  143.0950 C   0  0  2  0  0  0  0  0  0  0  0  0
  187.8830  176.0480  143.4050 C   0  0  0  0  0  0  0  0  0  0  0  0
  186.5790  177.2470  145.6420 C   0  0  0  0  0  0  0  0  0  0  0  0
  186.0130  176.8020  142.0100 O   0  0  0  0  0  1  0  0  0  0  0  0
  189.7840  175.5960  146.6470 C   0  0  2  0  0  3  0  0  0  0  0  0
  184.7920  178.0110  144.2080 C   0  0  0  0  0  3  0  0  0  0  0  0
  190.5980  174.4630  144.5250 C   0  0  0  0  0  2  0  0  0  0  0  0
  188.4220  175.9590  144.7400 C   0  0  0  0  0  0  0  0  0  0  0  0
  188.8700  172.9900  142.8880 C   0  0  0  0  0  1  0  0  0  0  0  0
  187.7800  176.5590  145.7990 C   0  0  0  0  0  0  0  0  0  0  0  0
  185.9380  177.8480  146.7310 C   0  0  0  0  0  3  0  0  0  0  0  0
  188.5370  176.3820  147.0690 C   0  0  0  0  0  2  0  0  0  0  0  0
  189.4630  174.3600  142.5500 C   0  0  2  0  0  0  0  0  0  0  0  0
  190.9060  176.2920  142.9260 O   0  0  0  0  0  1  0  0  0  0  0  0
  191.0380  176.4210  146.9160 C   0  0  0  0  0  2  0  0  0  0  0  0
  192.2250  175.5280  147.2520 C   0  0  0  0  0  2  0  0  0  0  0  0
  193.5490  176.1820  146.8770 C   0  0  0  0  0  2  0  0  0  0  0  0
  194.0530  175.6770  145.5290 C   0  0  2  0  0  3  0  0  0  0  0  0
  195.1320  174.6300  145.7680 C   0  0  0  0  0  1  0  0  0  0  0  0
  194.6060  176.8320  144.6870 C   0  0  1  0  0  3  0  0  0  0  0  0
  194.9430  177.9060  145.5130 O   0  0  0  0  0  1  0  0  0  0  0  0
  195.8540  176.4070  143.9220 C   0  0  0  0  0  2  0  0  0  0  0  0
  195.5760  176.2820  142.4300 C   0  0  0  0  0  2  0  0  0  0  0  0
  194.2020  174.2000  142.0380 N   0  0  0  0  0  1  0  0  0  0  0  0
  195.4680  174.8500  142.0280 C   0  0  0  0  0  0  0  0  0  0  0  0
  196.4940  174.2240  141.6530 O   0  0  0  0  0  0  0  0  0  0  0  0
  188.1870  175.6830  140.8640 C   0  0  0  0  0  2  0  0  0  0  0  0
  187.8290  174.3830  140.1560 C   0  0  0  0  0  2  0  0  0  0  0  0
  188.3070  174.3900  138.7110 C   0  0  0  0  0  2  0  0  0  0  0  0
  188.5970  172.9830  138.2140 C   0  0  0  0  0  2  0  0  0  0  0  0
  189.0880  172.1110  139.3550 C   0  0  0  0  0  2  0  0  0  0  0  0
  192.3880  172.3090  139.2210 C   0  0  0  0  0  2  0  0  0  0  0  0
  190.2200  171.3080  138.9110 N   0  0  0  0  0  0  0  0  0  0  0  0
  190.4430  170.2010  141.4820 O   0  0  0  0  0  0  0  0  0  0  0  0
  191.2880  171.5620  139.7850 N   0  0  0  0  0  0  0  0  0  0  0  0
  190.6460  171.8490  137.6200 C   0  0  0  0  0  2  0  0  0  0  0  0
  192.9040  172.1450  136.9130 O   0  0  0  0  0  1  0  0  0  0  0  0
  191.3730  170.9520  141.0780 C   0  0  0  0  0  0  0  0  0  0  0  0
  191.9490  172.6150  137.8130 C   0  0  2  0  0  3  0  0  0  0  0  0
  192.3850  171.2910  143.2960 C   0  0  0  0  0  1  0  0  0  0  0  0
  192.4890  171.1890  141.8840 O   0  0  0  0  0  0  0  0  0  0  0  0
  1 18  1  0  0  0  0
  2 10  1  0  0  0  0
  3 20  1  0  0  0  0
  3  8  1  0  0  0  0
  4  9  2  0  0  0  0
  4  2  1  0  0  0  0
  5 12  1  0  0  0  0
  6 20  1  0  0  0  0
  6  9  1  0  0  0  0
  7  1  2  0  0  0  0
  8 21  1  6  0  0  0
  8 14  1  0  0  0  0
  9 15  1  0  0  0  0
 10 17  1  0  0  0  0
 10 18  2  0  0  0  0
 11  4  1  0  0  0  0
 12 22  1  6  0  0  0
 12 19  1  0  0  0  0
 13  2  2  0  0  0  0
 13  7  1  0  0  0  0
 14  5  1  0  0  0  0
 15  5  1  0  0  0  0
 15 17  2  0  0  0  0
 17 19  1  0  0  0  0
 20 16  1  1  0  0  0
 20  8  1  0  0  0  0
 22 23  1  0  0  0  0
 24 23  1  0  0  0  0
 25 26  1  1  0  0  0
 25 24  1  0  0  0  0
 27 28  1  1  0  0  0
 27 25  1  0  0  0  0
 29 27  1  0  0  0  0
 30 29  1  0  0  0  0
 32 31  1  0  0  0  0
 32 30  1  0  0  0  0
 33 32  2  0  0  0  0
 34  6  1  0  0  0  0
 35 34  1  0  0  0  0
 36 35  1  0  0  0  0
 37 36  1  0  0  0  0
 37 38  1  0  0  0  0
 39 42  1  0  0  0  0
 40 38  1  0  0  0  0
 40 42  1  0  0  0  0
 42 45  1  0  0  0  0
 43 46  1  0  0  0  0
 43 40  1  0  0  0  0
 45 41  2  0  0  0  0
 45 48  1  0  0  0  0
 46 44  1  6  0  0  0
 46 39  1  0  0  0  0
 48 47  1  0  0  0  0
M  END
>  <MODEL>
7

>  <REMARK>
 VINA RESULT:      -6.2      2.273      7.779
  Name = 
  15 active torsions:
  status: ('A' for Active; 'I' for Inactive)
    1  A    between atoms: C_3  and  C_5
    2  A    between atoms: C_3  and  C_29
    3  A    between atoms: C_4  and  C_9
    4  A    between atoms: C_4  and  N_13
    5  A    between atoms: C_5  and  C_45
    6  A    between atoms: C_6  and  C_20
    7  A    between atoms: C_6  and  C_31
    8  A    between atoms: C_9  and  C_23
    9  A    between atoms: O_14  and  C_43
   10  A    between atoms: N_16  and  C_32
   11  A    between atoms: C_17  and  C_38
   12  A    between atoms: C_20  and  C_29
   13  A    between atoms: C_23  and  C_46
   14  A    between atoms: C_32  and  C_46
   15  A    between atoms: C_38  and  C_45
                            x       y       z     vdW  Elec       q    Type
                         _______ _______ _______ _____ _____    ______ ____

>  <TORSDO>
F 15

$$$$
=
 OpenBabel11042417443D

 48 53  0  0  1  0  0  0  0  0999 V2000
  189.1140  178.6720  148.4880 C   0  0  0  0  0  3  0  0  0  0  0  0
  188.6440  177.0630  146.2650 C   0  0  0  0  0  0  0  0  0  0  0  0
  190.5220  173.2970  141.8190 O   0  0  0  0  0  0  0  0  0  0  0  0
  188.3920  176.2540  145.1400 C   0  0  0  0  0  0  0  0  0  0  0  0
  192.0070  175.0040  144.7320 N   0  0  0  0  0  0  0  0  0  0  0  0
  189.1880  174.6920  143.3480 N   0  0  0  0  0  0  0  0  0  0  0  0
  187.8670  178.5750  147.9540 N   0  0  0  0  0  0  0  0  0  0  0  0
  191.4020  174.1570  142.5360 C   0  0  2  0  0  0  0  0  0  0  0  0
  189.4460  175.5230  144.5180 C   0  0  0  0  0  0  0  0  0  0  0  0
  189.9400  177.1500  146.8090 C   0  0  0  0  0  0  0  0  0  0  0  0
  187.0860  176.1700  144.6630 O   0  0  0  0  0  1  0  0  0  0  0  0
  193.0650  175.4640  145.6250 C   0  0  2  0  0  3  0  0  0  0  0  0
  187.6140  177.7960  146.8690 C   0  0  0  0  0  3  0  0  0  0  0  0
  192.2880  173.9540  143.7380 C   0  0  0  0  0  2  0  0  0  0  0  0
  190.7530  175.6110  145.1230 C   0  0  0  0  0  0  0  0  0  0  0  0
  189.9980  172.3610  143.9780 C   0  0  0  0  0  1  0  0  0  0  0  0
  190.9670  176.4150  146.2200 C   0  0  0  0  0  0  0  0  0  0  0  0
  190.1750  177.9600  147.9260 C   0  0  0  0  0  3  0  0  0  0  0  0
  192.3930  176.3920  146.6450 C   0  0  0  0  0  2  0  0  0  0  0  0
  190.1210  173.6160  143.1090 C   0  0  2  0  0  0  0  0  0  0  0  0
  191.3180  175.4790  142.0850 O   0  0  0  0  0  1  0  0  0  0  0  0
  194.1160  176.2340  144.8330 C   0  0  0  0  0  2  0  0  0  0  0  0
  195.4740  175.5450  144.9020 C   0  0  0  0  0  2  0  0  0  0  0  0
  195.5290  174.5150  146.0230 C   0  0  0  0  0  2  0  0  0  0  0  0
  196.5770  173.4440  145.7390 C   0  0  2  0  0  3  0  0  0  0  0  0
  197.7500  174.0850  145.0110 C   0  0  0  0  0  1  0  0  0  0  0  0
  195.9820  172.3100  144.8980 C   0  0  1  0  0  3  0  0  0  0  0  0
  196.8380  171.2070  144.9100 O   0  0  0  0  0  1  0  0  0  0  0  0
  194.6280  171.8720  145.4430 C   0  0  0  0  0  2  0  0  0  0  0  0
  194.5760  170.3660  145.6590 C   0  0  0  0  0  2  0  0  0  0  0  0
  193.0610  168.4540  145.0100 N   0  0  0  0  0  1  0  0  0  0  0  0
  193.6270  169.7250  144.7060 C   0  0  0  0  0  0  0  0  0  0  0  0
  193.3030  170.3190  143.6450 O   0  0  0  0  0  0  0  0  0  0  0  0
  187.9640  174.7370  142.5510 C   0  0  0  0  0  2  0  0  0  0  0  0
  188.1680  175.5620  141.2870 C   0  0  0  0  0  2  0  0  0  0  0  0
  188.2090  177.0510  141.6000 C   0  0  0  0  0  2  0  0  0  0  0  0
  187.0800  177.7970  140.9070 C   0  0  0  0  0  2  0  0  0  0  0  0
  185.7510  177.4730  141.5660 C   0  0  0  0  0  2  0  0  0  0  0  0
  182.7850  178.4180  142.6860 C   0  0  0  0  0  2  0  0  0  0  0  0
  184.8820  178.6420  141.5240 N   0  0  0  0  0  0  0  0  0  0  0  0
  186.0240  179.5730  143.9150 O   0  0  0  0  0  0  0  0  0  0  0  0
  184.1990  178.7040  142.7480 N   0  0  0  0  0  0  0  0  0  0  0  0
  183.8500  178.3700  140.5250 C   0  0  0  0  0  2  0  0  0  0  0  0
  181.5360  178.9100  140.7320 O   0  0  0  0  0  1  0  0  0  0  0  0
  184.8140  179.2140  143.9370 C   0  0  0  0  0  0  0  0  0  0  0  0
  182.5350  178.0820  141.2390 C   0  0  2  0  0  3  0  0  0  0  0  0
  184.0870  178.2930  146.1010 C   0  0  0  0  0  1  0  0  0  0  0  0
  184.0700  179.3140  145.1150 O   0  0  0  0  0  0  0  0  0  0  0  0
  2 10  1  0  0  0  0
  2 13  1  0  0  0  0
  3  8  1  0  0  0  0
  3 20  1  0  0  0  0
  4  2  2  0  0  0  0
  5 15  1  0  0  0  0
  5 12  1  0  0  0  0
  6  9  1  0  0  0  0
  7  1  1  0  0  0  0
  8 21  1  6  0  0  0
  8 20  1  0  0  0  0
  8 14  1  0  0  0  0
  9 15  2  0  0  0  0
  9  4  1  0  0  0  0
 10 18  1  0  0  0  0
 11  4  1  0  0  0  0
 12 22  1  6  0  0  0
 12 19  1  0  0  0  0
 13  7  2  0  0  0  0
 14  5  1  0  0  0  0
 15 17  1  0  0  0  0
 17 19  1  0  0  0  0
 17 10  2  0  0  0  0
 18  1  2  0  0  0  0
 20  6  1  0  0  0  0
 20 16  1  1  0  0  0
 22 23  1  0  0  0  0
 23 24  1  0  0  0  0
 25 26  1  6  0  0  0
 25 24  1  0  0  0  0
 27 28  1  1  0  0  0
 27 29  1  0  0  0  0
 27 25  1  0  0  0  0
 29 30  1  0  0  0  0
 32 31  1  0  0  0  0
 32 30  1  0  0  0  0
 33 32  2  0  0  0  0
 34  6  1  0  0  0  0
 35 36  1  0  0  0  0
 35 34  1  0  0  0  0
 37 38  1  0  0  0  0
 37 36  1  0  0  0  0
 39 42  1  0  0  0  0
 40 38  1  0  0  0  0
 40 42  1  0  0  0  0
 41 45  2  0  0  0  0
 42 45  1  0  0  0  0
 43 46  1  0  0  0  0
 43 40  1  0  0  0  0
 45 48  1  0  0  0  0
 46 44  1  6  0  0  0
 46 39  1  0  0  0  0
 48 47  1  0  0  0  0
M  END
>  <MODEL>
8

>  <REMARK>
 VINA RESULT:      -6.2      2.320      9.607
  Name = 
  15 active torsions:
  status: ('A' for Active; 'I' for Inactive)
    1  A    between atoms: C_3  and  C_5
    2  A    between atoms: C_3  and  C_29
    3  A    between atoms: C_4  and  C_9
    4  A    between atoms: C_4  and  N_13
    5  A    between atoms: C_5  and  C_45
    6  A    between atoms: C_6  and  C_20
    7  A    between atoms: C_6  and  C_31
    8  A    between atoms: C_9  and  C_23
    9  A    between atoms: O_14  and  C_43
   10  A    between atoms: N_16  and  C_32
   11  A    between atoms: C_17  and  C_38
   12  A    between atoms: C_20  and  C_29
   13  A    between atoms: C_23  and  C_46
   14  A    between atoms: C_32  and  C_46
   15  A    between atoms: C_38  and  C_45
                            x       y       z     vdW  Elec       q    Type
                         _______ _______ _______ _____ _____    ______ ____

>  <TORSDO>
F 15

$$$$
=
 OpenBabel11042417443D

 48 53  0  0  1  0  0  0  0  0999 V2000
  188.2140  178.8610  148.4740 C   0  0  0  0  0  3  0  0  0  0  0  0
  188.0660  177.2100  146.2380 C   0  0  0  0  0  0  0  0  0  0  0  0
  190.6110  173.5700  142.0250 O   0  0  0  0  0  0  0  0  0  0  0  0
  187.9770  176.3780  145.1040 C   0  0  0  0  0  0  0  0  0  0  0  0
  191.6970  175.4000  145.0370 N   0  0  0  0  0  0  0  0  0  0  0  0
  189.0450  174.8700  143.4110 N   0  0  0  0  0  0  0  0  0  0  0  0
  187.0310  178.6690  147.8320 N   0  0  0  0  0  0  0  0  0  0  0  0
  191.3570  174.4970  142.8070 C   0  0  2  0  0  0  0  0  0  0  0  0
  189.1350  175.7240  144.5890 C   0  0  0  0  0  0  0  0  0  0  0  0
  189.2980  177.3960  146.8950 C   0  0  0  0  0  0  0  0  0  0  0  0
  186.7290  176.1940  144.5140 O   0  0  0  0  0  1  0  0  0  0  0  0
  192.6340  175.9420  146.0160 C   0  0  2  0  0  3  0  0  0  0  0  0
  186.9340  177.8670  146.7380 C   0  0  0  0  0  3  0  0  0  0  0  0
  192.1430  174.3680  144.0860 C   0  0  0  0  0  2  0  0  0  0  0  0
  190.3710  175.9130  145.3080 C   0  0  0  0  0  0  0  0  0  0  0  0
  189.9650  172.6100  144.1390 C   0  0  0  0  0  1  0  0  0  0  0  0
  190.4250  176.7370  146.4090 C   0  0  0  0  0  0  0  0  0  0  0  0
  189.3700  178.2280  148.0180 C   0  0  0  0  0  3  0  0  0  0  0  0
  191.8050  176.8230  146.9610 C   0  0  0  0  0  2  0  0  0  0  0  0
  190.0730  173.8650  143.2690 C   0  0  2  0  0  0  0  0  0  0  0  0
  191.2160  175.8070  142.3340 O   0  0  0  0  0  1  0  0  0  0  0  0
  193.6920  176.7840  145.3120 C   0  0  0  0  0  2  0  0  0  0  0  0
  195.0970  176.3690  145.7320 C   0  0  0  0  0  2  0  0  0  0  0  0
  195.1330  174.9350  146.2450 C   0  0  0  0  0  2  0  0  0  0  0  0
  195.7880  174.0010  145.2330 C   0  0  2  0  0  3  0  0  0  0  0  0
  196.9540  173.2890  145.9040 C   0  0  0  0  0  1  0  0  0  0  0  0
  196.2740  174.7820  144.0070 C   0  0  1  0  0  3  0  0  0  0  0  0
  197.6580  174.6550  143.8770 O   0  0  0  0  0  1  0  0  0  0  0  0
  195.6230  174.2630  142.7300 C   0  0  0  0  0  2  0  0  0  0  0  0
  195.0020  175.3950  141.9230 C   0  0  0  0  0  2  0  0  0  0  0  0
  195.1120  175.4370  139.4010 N   0  0  0  0  0  1  0  0  0  0  0  0
  195.7560  175.6200  140.6570 C   0  0  0  0  0  0  0  0  0  0  0  0
  196.9560  176.0000  140.6990 O   0  0  0  0  0  0  0  0  0  0  0  0
  187.8990  174.8190  142.5070 C   0  0  0  0  0  2  0  0  0  0  0  0
  188.1840  175.5850  141.2220 C   0  0  0  0  0  2  0  0  0  0  0  0
  187.9190  177.0730  141.3950 C   0  0  0  0  0  2  0  0  0  0  0  0
  186.7040  177.5190  140.5960 C   0  0  0  0  0  2  0  0  0  0  0  0
  185.4420  177.3670  141.4260 C   0  0  0  0  0  2  0  0  0  0  0  0
  182.6750  178.6270  142.7310 C   0  0  0  0  0  2  0  0  0  0  0  0
  184.6960  178.6190  141.4210 N   0  0  0  0  0  0  0  0  0  0  0  0
  186.0950  179.4580  143.7080 O   0  0  0  0  0  0  0  0  0  0  0  0
  184.1120  178.7670  142.6890 N   0  0  0  0  0  0  0  0  0  0  0  0
  183.5720  178.4430  140.5020 C   0  0  0  0  0  2  0  0  0  0  0  0
  181.3470  179.2200  140.8590 O   0  0  0  0  0  1  0  0  0  0  0  0
  184.8590  179.2260  143.8210 C   0  0  0  0  0  0  0  0  0  0  0  0
  182.2900  178.3000  141.3120 C   0  0  2  0  0  3  0  0  0  0  0  0
  183.9700  178.3400  145.9390 C   0  0  0  0  0  1  0  0  0  0  0  0
  184.2160  179.4160  145.0460 O   0  0  0  0  0  0  0  0  0  0  0  0
  2 13  2  0  0  0  0
  2 10  1  0  0  0  0
  3  8  1  0  0  0  0
  3 20  1  0  0  0  0
  4  2  1  0  0  0  0
  5 15  1  0  0  0  0
  5 12  1  0  0  0  0
  6  9  1  0  0  0  0
  7  1  2  0  0  0  0
  8 21  1  6  0  0  0
  8 20  1  0  0  0  0
  8 14  1  0  0  0  0
  9  4  2  0  0  0  0
  9 15  1  0  0  0  0
 10 18  2  0  0  0  0
 11  4  1  0  0  0  0
 12 22  1  6  0  0  0
 12 19  1  0  0  0  0
 13  7  1  0  0  0  0
 14  5  1  0  0  0  0
 15 17  2  0  0  0  0
 17 10  1  0  0  0  0
 17 19  1  0  0  0  0
 18  1  1  0  0  0  0
 20  6  1  0  0  0  0
 20 16  1  1  0  0  0
 22 23  1  0  0  0  0
 23 24  1  0  0  0  0
 25 26  1  1  0  0  0
 25 24  1  0  0  0  0
 27 28  1  6  0  0  0
 27 25  1  0  0  0  0
 29 27  1  0  0  0  0
 30 29  1  0  0  0  0
 31 32  1  0  0  0  0
 32 33  2  0  0  0  0
 32 30  1  0  0  0  0
 34  6  1  0  0  0  0
 35 36  1  0  0  0  0
 35 34  1  0  0  0  0
 37 36  1  0  0  0  0
 37 38  1  0  0  0  0
 40 38  1  0  0  0  0
 40 42  1  0  0  0  0
 41 45  2  0  0  0  0
 42 39  1  0  0  0  0
 42 45  1  0  0  0  0
 43 46  1  0  0  0  0
 43 40  1  0  0  0  0
 45 48  1  0  0  0  0
 46 44  1  6  0  0  0
 46 39  1  0  0  0  0
 48 47  1  0  0  0  0
M  END
>  <MODEL>
9

>  <REMARK>
 VINA RESULT:      -6.1      2.282      9.641
  Name = 
  15 active torsions:
  status: ('A' for Active; 'I' for Inactive)
    1  A    between atoms: C_3  and  C_5
    2  A    between atoms: C_3  and  C_29
    3  A    between atoms: C_4  and  C_9
    4  A    between atoms: C_4  and  N_13
    5  A    between atoms: C_5  and  C_45
    6  A    between atoms: C_6  and  C_20
    7  A    between atoms: C_6  and  C_31
    8  A    between atoms: C_9  and  C_23
    9  A    between atoms: O_14  and  C_43
   10  A    between atoms: N_16  and  C_32
   11  A    between atoms: C_17  and  C_38
   12  A    between atoms: C_20  and  C_29
   13  A    between atoms: C_23  and  C_46
   14  A    between atoms: C_32  and  C_46
   15  A    between atoms: C_38  and  C_45
                            x       y       z     vdW  Elec       q    Type
                         _______ _______ _______ _____ _____    ______ ____

>  <TORSDO>
F 15

$$$$
