=
 OpenBabel11042416253D

 38 42  0  0  1  0  0  0  0  0999 V2000
  190.1990  178.0480  148.0320 C   0  0  0  0  0  1  0  0  0  0  0  0
  192.7240  175.3450  145.4360 N   0  0  1  0  0  0  0  0  0  0  0  0
  190.4960  176.6680  147.4650 C   0  0  2  0  0  3  0  0  0  0  0  0
  191.9990  176.4860  147.4610 C   0  0  0  0  0  2  0  0  0  0  0  0
  191.6100  174.4850  145.8620 C   0  0  1  0  0  3  0  0  0  0  0  0
  189.9880  176.5330  146.0320 C   0  0  1  0  0  3  0  0  0  0  0  0
  192.4570  175.1480  146.8770 C   0  0  1  0  0  3  0  0  0  0  0  0
  190.2470  175.1160  145.5120 C   0  0  1  0  0  3  0  0  0  0  0  0
  193.8150  174.4570  145.0580 C   0  0  2  0  0  3  0  0  0  0  0  0
  195.2250  175.3890  143.4600 C   0  0  1  0  0  0  0  0  0  0  0  0
  195.0950  175.2420  144.9420 C   0  0  0  0  0  2  0  0  0  0  0  0
  194.2250  174.7600  142.7120 O   0  0  0  0  0  0  0  0  0  0  0  0
  196.1370  176.3770  142.8330 C   0  0  1  0  0  3  0  0  0  0  0  0
  193.5670  173.9360  143.6450 C   0  0  0  0  0  2  0  0  0  0  0  0
  196.5040  175.0240  143.0080 O   0  0  0  0  0  0  0  0  0  0  0  0
  195.7910  176.6250  141.3700 C   0  0  0  0  0  2  0  0  0  0  0  0
  196.2520  175.1170  139.4330 C   0  0  0  0  0  1  0  0  0  0  0  0
  196.8650  176.0520  140.4610 C   0  0  0  0  0  2  0  0  0  0  0  0
  188.5270  176.8610  145.9040 C   0  0  0  0  0  0  0  0  0  0  0  0
  187.5670  176.2400  146.7200 C   0  0  0  0  0  3  0  0  0  0  0  0
  186.7630  178.0910  144.7710 C   0  0  0  0  0  0  0  0  0  0  0  0
  188.1190  177.7810  144.9320 C   0  0  0  0  0  3  0  0  0  0  0  0
  186.2130  176.5470  146.5670 C   0  0  0  0  0  3  0  0  0  0  0  0
  185.8120  177.4680  145.5960 C   0  0  0  0  0  3  0  0  0  0  0  0
  185.2980  179.9050  143.9500 C   0  0  0  0  0  1  0  0  0  0  0  0
  186.3900  179.0120  143.7880 O   0  0  0  0  0  0  0  0  0  0  0  0
  190.0390  175.0610  144.1290 O   0  0  0  0  0  0  0  0  0  0  0  0
  189.7810  173.7150  143.8600 C   0  0  0  0  0  2  0  0  0  0  0  0
  190.7420  174.3980  141.7930 O   0  0  0  0  0  1  0  0  0  0  0  0
  189.8720  173.4720  142.3650 C   0  0  2  0  0  3  0  0  0  0  0  0
  188.4990  173.5940  141.7230 C   0  0  0  0  0  2  0  0  0  0  0  0
  188.3780  174.8900  140.9310 C   0  0  0  0  0  2  0  0  0  0  0  0
  186.7930  175.4590  142.6080 O   0  0  0  0  0  0  0  0  0  0  0  0
  187.4790  175.8550  141.6280 C   0  0  0  0  0  0  0  0  0  0  0  0
  187.3710  177.1650  141.1450 O   0  0  0  0  0  0  0  0  0  0  0  0
  186.4860  177.1500  138.8780 O   0  0  0  0  0  0  0  0  0  0  0  0
  186.4320  177.5870  140.1980 C   0  0  0  0  0  0  0  0  0  0  0  0
  185.5150  178.3750  140.5500 O   0  0  0  0  0  1  0  0  0  0  0  0
  2  9  1  1  0  0  0
  2  5  1  0  0  0  0
  2  7  1  0  0  0  0
  3  1  1  6  0  0  0
  4  3  1  0  0  0  0
  5  7  1  0  0  0  0
  6  3  1  0  0  0  0
  7  4  1  0  0  0  0
  8  5  1  0  0  0  0
  8  6  1  0  0  0  0
 10 11  1  0  0  0  0
 11  9  1  0  0  0  0
 12 10  1  0  0  0  0
 12 14  1  0  0  0  0
 13 15  1  0  0  0  0
 13 10  1  0  0  0  0
 14  9  1  0  0  0  0
 15 10  1  0  0  0  0
 16 13  1  0  0  0  0
 17 18  1  0  0  0  0
 18 16  1  0  0  0  0
 19  6  1  0  0  0  0
 19 20  1  0  0  0  0
 21 22  1  0  0  0  0
 21 24  2  0  0  0  0
 22 19  2  0  0  0  0
 23 20  2  0  0  0  0
 24 23  1  0  0  0  0
 26 25  1  0  0  0  0
 26 21  1  0  0  0  0
 27  8  1  0  0  0  0
 28 27  1  0  0  0  0
 29 30  1  0  0  0  0
 30 28  1  0  0  0  0
 31 30  1  0  0  0  0
 32 34  1  0  0  0  0
 32 31  1  0  0  0  0
 34 33  2  0  0  0  0
 35 34  1  0  0  0  0
 36 37  2  0  0  0  0
 37 38  1  0  0  0  0
 37 35  1  0  0  0  0
M  END
>  <MODEL>
1

>  <REMARK>
 VINA RESULT:      -6.7      0.000      0.000
  Name = 
  13 active torsions:
  status: ('A' for Active; 'I' for Inactive)
    1  A    between atoms: C_1  and  C_18
    2  A    between atoms: C_1  and  C_30
    3  A    between atoms: C_4  and  N_7
    4  A    between atoms: O_5  and  C_22
    5  A    between atoms: O_5  and  C_33
    6  A    between atoms: C_8  and  O_23
    7  A    between atoms: C_8  and  C_32
    8  A    between atoms: C_11  and  C_15
    9  A    between atoms: C_16  and  O_37
   10  A    between atoms: O_23  and  C_34
   11  A    between atoms: C_27  and  C_31
   12  A    between atoms: C_27  and  C_32
   13  A    between atoms: C_31  and  C_33
                            x       y       z     vdW  Elec       q    Type
                         _______ _______ _______ _____ _____    ______ ____

>  <TORSDO>
F 13

$$$$
=
 OpenBabel11042416253D

 38 42  0  0  1  0  0  0  0  0999 V2000
  185.6810  179.2020  145.5320 C   0  0  0  0  0  1  0  0  0  0  0  0
  189.3550  176.6720  146.2510 N   0  0  1  0  0  0  0  0  0  0  0  0
  186.3570  177.8400  145.5590 C   0  0  2  0  0  3  0  0  0  0  0  0
  187.2620  177.7990  146.7720 C   0  0  0  0  0  2  0  0  0  0  0  0
  188.3780  175.7250  145.6950 C   0  0  1  0  0  3  0  0  0  0  0  0
  187.2090  177.6160  144.3120 C   0  0  1  0  0  3  0  0  0  0  0  0
  188.0460  176.4930  146.9140 C   0  0  1  0  0  3  0  0  0  0  0  0
  187.8270  176.2150  144.3400 C   0  0  1  0  0  3  0  0  0  0  0  0
  190.3370  175.8790  146.9780 C   0  0  2  0  0  3  0  0  0  0  0  0
  192.4860  176.0880  146.1120 C   0  0  1  0  0  0  0  0  0  0  0  0
  191.6010  176.6770  147.1630 C   0  0  0  0  0  2  0  0  0  0  0  0
  191.9220  175.0360  145.3840 O   0  0  0  0  0  0  0  0  0  0  0  0
  193.7280  176.7540  145.6490 C   0  0  1  0  0  3  0  0  0  0  0  0
  190.7650  174.6980  146.1110 C   0  0  0  0  0  2  0  0  0  0  0  0
  193.7450  175.7340  146.6260 O   0  0  0  0  0  0  0  0  0  0  0  0
  194.2150  176.1930  144.3200 C   0  0  0  0  0  2  0  0  0  0  0  0
  196.3440  175.3060  143.3610 C   0  0  0  0  0  1  0  0  0  0  0  0
  195.7050  176.4350  144.1500 C   0  0  0  0  0  2  0  0  0  0  0  0
  186.4310  177.8030  143.0400 C   0  0  0  0  0  0  0  0  0  0  0  0
  187.0820  177.9840  141.8090 C   0  0  0  0  0  3  0  0  0  0  0  0
  184.2800  178.0220  141.9320 C   0  0  0  0  0  0  0  0  0  0  0  0
  185.0340  177.8260  143.0960 C   0  0  0  0  0  3  0  0  0  0  0  0
  186.3360  178.1770  140.6440 C   0  0  0  0  0  3  0  0  0  0  0  0
  184.9400  178.1970  140.7050 C   0  0  0  0  0  3  0  0  0  0  0  0
  182.0470  178.2890  140.9030 C   0  0  0  0  0  1  0  0  0  0  0  0
  182.8850  178.0430  142.0240 O   0  0  0  0  0  0  0  0  0  0  0  0
  188.8150  176.1000  143.3560 O   0  0  0  0  0  0  0  0  0  0  0  0
  188.9470  174.7270  143.1410 C   0  0  0  0  0  2  0  0  0  0  0  0
  188.0070  172.8940  141.9500 O   0  0  0  0  0  1  0  0  0  0  0  0
  187.9410  174.2780  142.0970 C   0  0  2  0  0  3  0  0  0  0  0  0
  188.2260  174.9490  140.7620 C   0  0  0  0  0  2  0  0  0  0  0  0
  188.7760  173.9490  139.7520 C   0  0  0  0  0  2  0  0  0  0  0  0
  188.5200  173.4320  137.4480 O   0  0  0  0  0  0  0  0  0  0  0  0
  188.2250  174.2120  138.3920 C   0  0  0  0  0  0  0  0  0  0  0  0
  187.4400  175.3530  138.1780 O   0  0  0  0  0  0  0  0  0  0  0  0
  187.7900  175.9140  135.8360 O   0  0  0  0  0  0  0  0  0  0  0  0
  186.9480  175.7550  136.9320 C   0  0  0  0  0  0  0  0  0  0  0  0
  185.7150  175.9720  136.7980 O   0  0  0  0  0  1  0  0  0  0  0  0
  2  7  1  0  0  0  0
  2  9  1  1  0  0  0
  3  1  1  6  0  0  0
  3  4  1  0  0  0  0
  4  7  1  0  0  0  0
  5  2  1  0  0  0  0
  5  7  1  0  0  0  0
  6  8  1  0  0  0  0
  6  3  1  0  0  0  0
  8  5  1  0  0  0  0
  9 11  1  0  0  0  0
 10 15  1  0  0  0  0
 10 11  1  0  0  0  0
 12 14  1  0  0  0  0
 12 10  1  0  0  0  0
 13 10  1  0  0  0  0
 13 15  1  0  0  0  0
 14  9  1  0  0  0  0
 16 13  1  0  0  0  0
 17 18  1  0  0  0  0
 18 16  1  0  0  0  0
 19 22  1  0  0  0  0
 19  6  1  0  0  0  0
 20 19  2  0  0  0  0
 21 26  1  0  0  0  0
 21 22  2  0  0  0  0
 23 24  2  0  0  0  0
 23 20  1  0  0  0  0
 24 21  1  0  0  0  0
 25 26  1  0  0  0  0
 27  8  1  0  0  0  0
 28 27  1  0  0  0  0
 29 30  1  0  0  0  0
 30 28  1  0  0  0  0
 31 30  1  0  0  0  0
 32 31  1  0  0  0  0
 33 34  2  0  0  0  0
 34 32  1  0  0  0  0
 35 34  1  0  0  0  0
 36 37  2  0  0  0  0
 37 35  1  0  0  0  0
 38 37  1  0  0  0  0
M  END
>  <MODEL>
2

>  <REMARK>
 VINA RESULT:      -6.3      2.259      3.971
  Name = 
  13 active torsions:
  status: ('A' for Active; 'I' for Inactive)
    1  A    between atoms: C_1  and  C_18
    2  A    between atoms: C_1  and  C_30
    3  A    between atoms: C_4  and  N_7
    4  A    between atoms: O_5  and  C_22
    5  A    between atoms: O_5  and  C_33
    6  A    between atoms: C_8  and  O_23
    7  A    between atoms: C_8  and  C_32
    8  A    between atoms: C_11  and  C_15
    9  A    between atoms: C_16  and  O_37
   10  A    between atoms: O_23  and  C_34
   11  A    between atoms: C_27  and  C_31
   12  A    between atoms: C_27  and  C_32
   13  A    between atoms: C_31  and  C_33
                            x       y       z     vdW  Elec       q    Type
                         _______ _______ _______ _____ _____    ______ ____

>  <TORSDO>
F 13

$$$$
=
 OpenBabel11042416253D

 38 42  0  0  1  0  0  0  0  0999 V2000
  189.4580  178.0550  147.6420 C   0  0  0  0  0  1  0  0  0  0  0  0
  192.8400  175.6410  145.8640 N   0  0  1  0  0  0  0  0  0  0  0  0
  190.0070  176.7280  147.1400 C   0  0  2  0  0  3  0  0  0  0  0  0
  191.4450  176.6200  147.6020 C   0  0  0  0  0  2  0  0  0  0  0  0
  191.7080  174.7040  145.8790 C   0  0  1  0  0  3  0  0  0  0  0  0
  189.9830  176.6560  145.6150 C   0  0  1  0  0  3  0  0  0  0  0  0
  192.1490  175.3440  147.1370 C   0  0  1  0  0  3  0  0  0  0  0  0
  190.4840  175.2880  145.1430 C   0  0  1  0  0  3  0  0  0  0  0  0
  194.0500  174.8320  145.8120 C   0  0  2  0  0  3  0  0  0  0  0  0
  195.5510  175.5560  144.1890 C   0  0  1  0  0  0  0  0  0  0  0  0
  195.2530  175.7240  145.6440 C   0  0  0  0  0  2  0  0  0  0  0  0
  194.7180  174.6610  143.5120 O   0  0  0  0  0  0  0  0  0  0  0  0
  196.4340  176.4870  143.4430 C   0  0  1  0  0  3  0  0  0  0  0  0
  194.0310  173.9880  144.5400 C   0  0  0  0  0  2  0  0  0  0  0  0
  196.9060  175.2610  143.9630 O   0  0  0  0  0  0  0  0  0  0  0  0
  196.2510  176.3630  141.9360 C   0  0  0  0  0  2  0  0  0  0  0  0
  197.0770  174.7540  140.2150 C   0  0  0  0  0  1  0  0  0  0  0  0
  197.4790  175.7410  141.2960 C   0  0  0  0  0  2  0  0  0  0  0  0
  188.6170  176.9200  145.0470 C   0  0  0  0  0  0  0  0  0  0  0  0
  187.4570  176.4920  145.7120 C   0  0  0  0  0  3  0  0  0  0  0  0
  187.2510  177.8180  143.2490 C   0  0  0  0  0  0  0  0  0  0  0  0
  188.5080  177.5770  143.8160 C   0  0  0  0  0  3  0  0  0  0  0  0
  186.2000  176.7310  145.1530 C   0  0  0  0  0  3  0  0  0  0  0  0
  186.0970  177.3900  143.9250 C   0  0  0  0  0  3  0  0  0  0  0  0
  186.8990  177.7940  140.8010 C   0  0  0  0  0  1  0  0  0  0  0  0
  187.1780  178.4740  142.0170 O   0  0  0  0  0  0  0  0  0  0  0  0
  190.7230  175.3080  143.7650 O   0  0  0  0  0  0  0  0  0  0  0  0
  190.6080  173.9750  143.3630 C   0  0  0  0  0  2  0  0  0  0  0  0
  189.0550  172.1740  143.2730 O   0  0  0  0  0  1  0  0  0  0  0  0
  189.1490  173.5590  143.4020 C   0  0  2  0  0  3  0  0  0  0  0  0
  188.3750  174.2300  142.2780 C   0  0  0  0  0  2  0  0  0  0  0  0
  188.1240  173.2610  141.1290 C   0  0  0  0  0  2  0  0  0  0  0  0
  188.2870  174.4040  139.0520 O   0  0  0  0  0  0  0  0  0  0  0  0
  188.8680  173.6830  139.9080 C   0  0  0  0  0  0  0  0  0  0  0  0
  190.1750  173.2230  139.7060 O   0  0  0  0  0  0  0  0  0  0  0  0
  190.2250  170.9180  138.9280 O   0  0  0  0  0  0  0  0  0  0  0  0
  190.5800  171.8920  139.8560 C   0  0  0  0  0  0  0  0  0  0  0  0
  191.2850  171.5710  140.8480 O   0  0  0  0  0  1  0  0  0  0  0  0
  2  9  1  1  0  0  0
  2  5  1  0  0  0  0
  2  7  1  0  0  0  0
  3  4  1  0  0  0  0
  3  1  1  6  0  0  0
  5  7  1  0  0  0  0
  6  3  1  0  0  0  0
  7  4  1  0  0  0  0
  8  6  1  0  0  0  0
  8  5  1  0  0  0  0
 10 11  1  0  0  0  0
 11  9  1  0  0  0  0
 12 10  1  0  0  0  0
 12 14  1  0  0  0  0
 13 15  1  0  0  0  0
 13 10  1  0  0  0  0
 14  9  1  0  0  0  0
 15 10  1  0  0  0  0
 16 13  1  0  0  0  0
 17 18  1  0  0  0  0
 18 16  1  0  0  0  0
 19  6  1  0  0  0  0
 19 20  1  0  0  0  0
 21 22  1  0  0  0  0
 21 24  2  0  0  0  0
 22 19  2  0  0  0  0
 23 20  2  0  0  0  0
 24 23  1  0  0  0  0
 25 26  1  0  0  0  0
 26 21  1  0  0  0  0
 27  8  1  0  0  0  0
 28 30  1  0  0  0  0
 28 27  1  0  0  0  0
 29 30  1  0  0  0  0
 31 30  1  0  0  0  0
 32 31  1  0  0  0  0
 33 34  2  0  0  0  0
 34 32  1  0  0  0  0
 35 37  1  0  0  0  0
 35 34  1  0  0  0  0
 36 37  2  0  0  0  0
 37 38  1  0  0  0  0
M  END
>  <MODEL>
3

>  <REMARK>
 VINA RESULT:      -6.2      1.578      2.777
  Name = 
  13 active torsions:
  status: ('A' for Active; 'I' for Inactive)
    1  A    between atoms: C_1  and  C_18
    2  A    between atoms: C_1  and  C_30
    3  A    between atoms: C_4  and  N_7
    4  A    between atoms: O_5  and  C_22
    5  A    between atoms: O_5  and  C_33
    6  A    between atoms: C_8  and  O_23
    7  A    between atoms: C_8  and  C_32
    8  A    between atoms: C_11  and  C_15
    9  A    between atoms: C_16  and  O_37
   10  A    between atoms: O_23  and  C_34
   11  A    between atoms: C_27  and  C_31
   12  A    between atoms: C_27  and  C_32
   13  A    between atoms: C_31  and  C_33
                            x       y       z     vdW  Elec       q    Type
                         _______ _______ _______ _____ _____    ______ ____

>  <TORSDO>
F 13

$$$$
=
 OpenBabel11042416253D

 38 42  0  0  1  0  0  0  0  0999 V2000
  193.7770  171.9450  144.6790 C   0  0  0  0  0  1  0  0  0  0  0  0
  191.1220  175.4600  145.6840 N   0  0  1  0  0  0  0  0  0  0  0  0
  193.1720  173.2890  144.3020 C   0  0  2  0  0  3  0  0  0  0  0  0
  193.1730  174.1580  145.5420 C   0  0  0  0  0  2  0  0  0  0  0  0
  191.5140  175.7020  144.2890 C   0  0  1  0  0  3  0  0  0  0  0  0
  191.7320  173.1360  143.8190 C   0  0  1  0  0  3  0  0  0  0  0  0
  192.5540  175.5400  145.3270 C   0  0  1  0  0  3  0  0  0  0  0  0
  191.1720  174.4960  143.3900 C   0  0  1  0  0  3  0  0  0  0  0  0
  190.7250  176.7490  146.2350 C   0  0  2  0  0  3  0  0  0  0  0  0
  188.4250  176.9390  146.5240 C   0  0  1  0  0  0  0  0  0  0  0  0
  189.6560  176.5510  147.2780 C   0  0  0  0  0  2  0  0  0  0  0  0
  188.6440  177.3730  145.2140 O   0  0  0  0  0  0  0  0  0  0  0  0
  187.0600  176.5940  146.9940 C   0  0  1  0  0  3  0  0  0  0  0  0
  190.0370  177.5670  145.1460 C   0  0  0  0  0  2  0  0  0  0  0  0
  187.6400  177.8580  147.2410 O   0  0  0  0  0  0  0  0  0  0  0  0
  186.0260  176.7170  145.8820 C   0  0  0  0  0  2  0  0  0  0  0  0
  184.5310  178.7180  145.8850 C   0  0  0  0  0  1  0  0  0  0  0  0
  184.7340  177.3090  146.4160 C   0  0  0  0  0  2  0  0  0  0  0  0
  191.6030  172.1550  142.6890 C   0  0  0  0  0  0  0  0  0  0  0  0
  190.8950  170.9520  142.8450 C   0  0  0  0  0  3  0  0  0  0  0  0
  192.1490  171.5320  140.4040 C   0  0  0  0  0  0  0  0  0  0  0  0
  192.2300  172.4360  141.4700 C   0  0  0  0  0  3  0  0  0  0  0  0
  190.8090  170.0470  141.7850 C   0  0  0  0  0  3  0  0  0  0  0  0
  191.4340  170.3350  140.5690 C   0  0  0  0  0  3  0  0  0  0  0  0
  193.9770  171.1910  138.7740 C   0  0  0  0  0  1  0  0  0  0  0  0
  192.7890  171.8430  139.2010 O   0  0  0  0  0  0  0  0  0  0  0  0
  189.7870  174.4150  143.2100 O   0  0  0  0  0  0  0  0  0  0  0  0
  189.5240  175.2270  142.1050 C   0  0  0  0  0  2  0  0  0  0  0  0
  188.0370  175.2630  140.2470 O   0  0  0  0  0  1  0  0  0  0  0  0
  188.1150  174.9620  141.6050 C   0  0  2  0  0  3  0  0  0  0  0  0
  187.1110  175.8060  142.3750 C   0  0  0  0  0  2  0  0  0  0  0  0
  187.3820  177.2930  142.1810 C   0  0  0  0  0  2  0  0  0  0  0  0
  186.2420  179.2570  142.8810 O   0  0  0  0  0  0  0  0  0  0  0  0
  186.1440  178.0920  142.4120 C   0  0  0  0  0  0  0  0  0  0  0  0
  184.8950  177.5100  142.1590 O   0  0  0  0  0  0  0  0  0  0  0  0
  183.4440  178.4870  140.4680 O   0  0  0  0  0  0  0  0  0  0  0  0
  183.7460  178.2220  141.8000 C   0  0  0  0  0  0  0  0  0  0  0  0
  182.9650  178.6270  142.7010 O   0  0  0  0  0  1  0  0  0  0  0  0
  2  9  1  1  0  0  0
  3  1  1  1  0  0  0
  3  4  1  0  0  0  0
  5  7  1  0  0  0  0
  5  2  1  0  0  0  0
  6  3  1  0  0  0  0
  7  4  1  0  0  0  0
  7  2  1  0  0  0  0
  8  6  1  0  0  0  0
  8  5  1  0  0  0  0
  9 11  1  0  0  0  0
 10 13  1  0  0  0  0
 10 15  1  0  0  0  0
 10 11  1  0  0  0  0
 12 10  1  0  0  0  0
 13 15  1  0  0  0  0
 14 12  1  0  0  0  0
 14  9  1  0  0  0  0
 16 18  1  0  0  0  0
 16 13  1  0  0  0  0
 17 18  1  0  0  0  0
 19 20  1  0  0  0  0
 19  6  1  0  0  0  0
 21 24  2  0  0  0  0
 21 22  1  0  0  0  0
 22 19  2  0  0  0  0
 23 20  2  0  0  0  0
 24 23  1  0  0  0  0
 25 26  1  0  0  0  0
 26 21  1  0  0  0  0
 27  8  1  0  0  0  0
 28 27  1  0  0  0  0
 29 30  1  0  0  0  0
 30 28  1  0  0  0  0
 30 31  1  0  0  0  0
 32 31  1  0  0  0  0
 32 34  1  0  0  0  0
 34 33  2  0  0  0  0
 35 34  1  0  0  0  0
 36 37  2  0  0  0  0
 37 35  1  0  0  0  0
 37 38  1  0  0  0  0
M  END
>  <MODEL>
4

>  <REMARK>
 VINA RESULT:      -6.2      2.582      6.972
  Name = 
  13 active torsions:
  status: ('A' for Active; 'I' for Inactive)
    1  A    between atoms: C_1  and  C_18
    2  A    between atoms: C_1  and  C_30
    3  A    between atoms: C_4  and  N_7
    4  A    between atoms: O_5  and  C_22
    5  A    between atoms: O_5  and  C_33
    6  A    between atoms: C_8  and  O_23
    7  A    between atoms: C_8  and  C_32
    8  A    between atoms: C_11  and  C_15
    9  A    between atoms: C_16  and  O_37
   10  A    between atoms: O_23  and  C_34
   11  A    between atoms: C_27  and  C_31
   12  A    between atoms: C_27  and  C_32
   13  A    between atoms: C_31  and  C_33
                            x       y       z     vdW  Elec       q    Type
                         _______ _______ _______ _____ _____    ______ ____

>  <TORSDO>
F 13

$$$$
=
 OpenBabel11042416253D

 38 42  0  0  1  0  0  0  0  0999 V2000
  193.4830  171.9770  144.7120 C   0  0  0  0  0  1  0  0  0  0  0  0
  190.3710  172.7010  141.5170 N   0  0  1  0  0  0  0  0  0  0  0  0
  192.1180  172.5060  144.3000 C   0  0  2  0  0  3  0  0  0  0  0  0
  191.5250  171.5260  143.3080 C   0  0  0  0  0  2  0  0  0  0  0  0
  189.8280  173.3850  142.7000 C   0  0  1  0  0  3  0  0  0  0  0  0
  192.2290  173.8700  143.6230 C   0  0  1  0  0  3  0  0  0  0  0  0
  190.1560  171.9450  142.7690 C   0  0  1  0  0  3  0  0  0  0  0  0
  190.8360  174.4020  143.2750 C   0  0  1  0  0  3  0  0  0  0  0  0
  189.2420  172.4350  140.6350 C   0  0  2  0  0  3  0  0  0  0  0  0
  189.7100  172.9020  138.4050 C   0  0  1  0  0  0  0  0  0  0  0  0
  189.7260  171.7660  139.3760 C   0  0  0  0  0  2  0  0  0  0  0  0
  189.2420  174.1150  138.9200 O   0  0  0  0  0  0  0  0  0  0  0  0
  190.4240  172.8520  137.1050 C   0  0  1  0  0  3  0  0  0  0  0  0
  188.6620  173.7620  140.1530 C   0  0  0  0  0  2  0  0  0  0  0  0
  189.0450  172.5650  137.2140 O   0  0  0  0  0  0  0  0  0  0  0  0
  190.6080  174.2380  136.5010 C   0  0  0  0  0  2  0  0  0  0  0  0
  192.3770  175.9270  135.9920 C   0  0  0  0  0  1  0  0  0  0  0  0
  192.0490  174.4460  136.0670 C   0  0  0  0  0  2  0  0  0  0  0  0
  192.9590  174.8750  144.4680 C   0  0  0  0  0  0  0  0  0  0  0  0
  192.4850  175.2390  145.7390 C   0  0  0  0  0  3  0  0  0  0  0  0
  194.8050  176.4360  144.7130 C   0  0  0  0  0  0  0  0  0  0  0  0
  194.1150  175.4790  143.9600 C   0  0  0  0  0  3  0  0  0  0  0  0
  193.1710  176.1910  146.4960 C   0  0  0  0  0  3  0  0  0  0  0  0
  194.3250  176.7890  145.9850 C   0  0  0  0  0  3  0  0  0  0  0  0
  196.7770  176.3620  143.2220 C   0  0  0  0  0  1  0  0  0  0  0  0
  195.9550  177.0220  144.1750 O   0  0  0  0  0  0  0  0  0  0  0  0
  190.9370  175.5050  142.4210 O   0  0  0  0  0  0  0  0  0  0  0  0
  189.8100  176.2800  142.7040 C   0  0  0  0  0  2  0  0  0  0  0  0
  191.6140  177.8050  142.9920 O   0  0  0  0  0  1  0  0  0  0  0  0
  190.2470  177.6420  143.2110 C   0  0  2  0  0  3  0  0  0  0  0  0
  189.9480  177.7760  144.6960 C   0  0  0  0  0  2  0  0  0  0  0  0
  188.8130  176.8490  145.1130 C   0  0  0  0  0  2  0  0  0  0  0  0
  186.9630  177.5150  146.4490 O   0  0  0  0  0  0  0  0  0  0  0  0
  187.5570  177.6200  145.3420 C   0  0  0  0  0  0  0  0  0  0  0  0
  187.0290  178.3980  144.3030 O   0  0  0  0  0  0  0  0  0  0  0  0
  185.9440  176.5500  143.1520 O   0  0  0  0  0  1  0  0  0  0  0  0
  186.1960  177.9110  143.2910 C   0  0  0  0  0  0  0  0  0  0  0  0
  185.6590  178.7230  142.4920 O   0  0  0  0  0  0  0  0  0  0  0  0
  2  9  1  6  0  0  0
  2  5  1  0  0  0  0
  2  7  1  0  0  0  0
  3  1  1  6  0  0  0
  4  3  1  0  0  0  0
  5  7  1  0  0  0  0
  5  8  1  0  0  0  0
  6  3  1  0  0  0  0
  6 19  1  0  0  0  0
  7  4  1  0  0  0  0
  8  6  1  0  0  0  0
 10 12  1  0  0  0  0
 10 11  1  0  0  0  0
 11  9  1  0  0  0  0
 12 14  1  0  0  0  0
 13 15  1  0  0  0  0
 13 10  1  0  0  0  0
 14  9  1  0  0  0  0
 15 10  1  0  0  0  0
 16 13  1  0  0  0  0
 17 18  1  0  0  0  0
 18 16  1  0  0  0  0
 19 20  1  0  0  0  0
 20 23  2  0  0  0  0
 21 24  2  0  0  0  0
 22 19  2  0  0  0  0
 22 21  1  0  0  0  0
 24 23  1  0  0  0  0
 25 26  1  0  0  0  0
 26 21  1  0  0  0  0
 27 28  1  0  0  0  0
 27  8  1  0  0  0  0
 28 30  1  0  0  0  0
 29 30  1  0  0  0  0
 30 31  1  0  0  0  0
 31 32  1  0  0  0  0
 32 34  1  0  0  0  0
 34 33  2  0  0  0  0
 35 34  1  0  0  0  0
 36 37  1  0  0  0  0
 37 35  1  0  0  0  0
 38 37  2  0  0  0  0
M  END
>  <MODEL>
5

>  <REMARK>
 VINA RESULT:      -6.1      2.756      6.247
  Name = 
  13 active torsions:
  status: ('A' for Active; 'I' for Inactive)
    1  A    between atoms: C_1  and  C_18
    2  A    between atoms: C_1  and  C_30
    3  A    between atoms: C_4  and  N_7
    4  A    between atoms: O_5  and  C_22
    5  A    between atoms: O_5  and  C_33
    6  A    between atoms: C_8  and  O_23
    7  A    between atoms: C_8  and  C_32
    8  A    between atoms: C_11  and  C_15
    9  A    between atoms: C_16  and  O_37
   10  A    between atoms: O_23  and  C_34
   11  A    between atoms: C_27  and  C_31
   12  A    between atoms: C_27  and  C_32
   13  A    between atoms: C_31  and  C_33
                            x       y       z     vdW  Elec       q    Type
                         _______ _______ _______ _____ _____    ______ ____

>  <TORSDO>
F 13

$$$$
=
 OpenBabel11042416253D

 38 42  0  0  1  0  0  0  0  0999 V2000
  194.6140  172.8500  144.0570 C   0  0  0  0  0  1  0  0  0  0  0  0
  191.4400  175.2160  146.2380 N   0  0  1  0  0  0  0  0  0  0  0  0
  194.2280  173.9880  144.9900 C   0  0  2  0  0  3  0  0  0  0  0  0
  193.1190  173.4870  145.8920 C   0  0  0  0  0  2  0  0  0  0  0  0
  192.6770  175.9680  146.4910 C   0  0  1  0  0  3  0  0  0  0  0  0
  193.7100  175.1960  144.2130 C   0  0  1  0  0  3  0  0  0  0  0  0
  192.5950  174.5410  146.8690 C   0  0  1  0  0  3  0  0  0  0  0  0
  193.3880  176.3430  145.1740 C   0  0  1  0  0  3  0  0  0  0  0  0
  190.5050  175.5830  147.2920 C   0  0  2  0  0  3  0  0  0  0  0  0
  188.5270  176.4900  146.4690 C   0  0  1  0  0  0  0  0  0  0  0  0
  189.1080  175.1810  146.8990 C   0  0  0  0  0  2  0  0  0  0  0  0
  189.3790  177.5900  146.6050 O   0  0  0  0  0  0  0  0  0  0  0  0
  187.2820  176.5860  145.6680 C   0  0  1  0  0  3  0  0  0  0  0  0
  190.4410  177.1050  147.3930 C   0  0  0  0  0  2  0  0  0  0  0  0
  187.2820  176.7330  147.0730 O   0  0  0  0  0  0  0  0  0  0  0  0
  187.1280  177.9520  145.0140 C   0  0  0  0  0  2  0  0  0  0  0  0
  185.3880  179.5900  144.2880 C   0  0  0  0  0  1  0  0  0  0  0  0
  185.7650  178.5440  145.3230 C   0  0  0  0  0  2  0  0  0  0  0  0
  194.6810  175.6670  143.1670 C   0  0  0  0  0  0  0  0  0  0  0  0
  195.8600  176.3420  143.5200 C   0  0  0  0  0  3  0  0  0  0  0  0
  195.2540  175.9020  140.8170 C   0  0  0  0  0  0  0  0  0  0  0  0
  194.3820  175.4540  141.8170 C   0  0  0  0  0  3  0  0  0  0  0  0
  196.7360  176.7890  142.5280 C   0  0  0  0  0  3  0  0  0  0  0  0
  196.4340  176.5710  141.1810 C   0  0  0  0  0  3  0  0  0  0  0  0
  195.7480  174.9160  138.6030 C   0  0  0  0  0  1  0  0  0  0  0  0
  194.9240  175.6750  139.4780 O   0  0  0  0  0  0  0  0  0  0  0  0
  192.6650  177.3420  144.5120 O   0  0  0  0  0  0  0  0  0  0  0  0
  191.6450  176.6610  143.8440 C   0  0  0  0  0  2  0  0  0  0  0  0
  190.6050  178.8000  143.7730 O   0  0  0  0  0  1  0  0  0  0  0  0
  190.8310  177.6460  143.0250 C   0  0  2  0  0  3  0  0  0  0  0  0
  189.5000  177.0280  142.6230 C   0  0  0  0  0  2  0  0  0  0  0  0
  189.4740  175.5350  142.9250 C   0  0  0  0  0  2  0  0  0  0  0  0
  187.1630  175.3890  142.3930 O   0  0  0  0  0  0  0  0  0  0  0  0
  188.3090  174.8810  142.2640 C   0  0  0  0  0  0  0  0  0  0  0  0
  188.5010  173.6840  141.5620 O   0  0  0  0  0  0  0  0  0  0  0  0
  190.0230  173.6650  139.6640 O   0  0  0  0  0  0  0  0  0  0  0  0
  189.7060  173.2970  140.9680 C   0  0  0  0  0  0  0  0  0  0  0  0
  190.5240  172.6040  141.6290 O   0  0  0  0  0  1  0  0  0  0  0  0
  2  5  1  0  0  0  0
  2  7  1  0  0  0  0
  2  9  1  1  0  0  0
  3  1  1  6  0  0  0
  3  4  1  0  0  0  0
  4  7  1  0  0  0  0
  5  7  1  0  0  0  0
  6  3  1  0  0  0  0
  6  8  1  0  0  0  0
  8  5  1  0  0  0  0
  9 14  1  0  0  0  0
 10 12  1  0  0  0  0
 10 11  1  0  0  0  0
 10 15  1  0  0  0  0
 11  9  1  0  0  0  0
 12 14  1  0  0  0  0
 13 10  1  0  0  0  0
 13 15  1  0  0  0  0
 16 18  1  0  0  0  0
 16 13  1  0  0  0  0
 17 18  1  0  0  0  0
 19 20  1  0  0  0  0
 19  6  1  0  0  0  0
 21 24  2  0  0  0  0
 21 22  1  0  0  0  0
 22 19  2  0  0  0  0
 23 20  2  0  0  0  0
 24 23  1  0  0  0  0
 25 26  1  0  0  0  0
 26 21  1  0  0  0  0
 27  8  1  0  0  0  0
 28 27  1  0  0  0  0
 30 29  1  0  0  0  0
 30 28  1  0  0  0  0
 31 32  1  0  0  0  0
 31 30  1  0  0  0  0
 34 33  2  0  0  0  0
 34 32  1  0  0  0  0
 35 34  1  0  0  0  0
 36 37  2  0  0  0  0
 37 35  1  0  0  0  0
 37 38  1  0  0  0  0
M  END
>  <MODEL>
6

>  <REMARK>
 VINA RESULT:      -6.1      1.972      7.148
  Name = 
  13 active torsions:
  status: ('A' for Active; 'I' for Inactive)
    1  A    between atoms: C_1  and  C_18
    2  A    between atoms: C_1  and  C_30
    3  A    between atoms: C_4  and  N_7
    4  A    between atoms: O_5  and  C_22
    5  A    between atoms: O_5  and  C_33
    6  A    between atoms: C_8  and  O_23
    7  A    between atoms: C_8  and  C_32
    8  A    between atoms: C_11  and  C_15
    9  A    between atoms: C_16  and  O_37
   10  A    between atoms: O_23  and  C_34
   11  A    between atoms: C_27  and  C_31
   12  A    between atoms: C_27  and  C_32
   13  A    between atoms: C_31  and  C_33
                            x       y       z     vdW  Elec       q    Type
                         _______ _______ _______ _____ _____    ______ ____

>  <TORSDO>
F 13

$$$$
=
 OpenBabel11042416253D

 38 42  0  0  1  0  0  0  0  0999 V2000
  185.5700  179.4770  145.3390 C   0  0  0  0  0  1  0  0  0  0  0  0
  189.0810  176.8400  146.4060 N   0  0  1  0  0  0  0  0  0  0  0  0
  186.1840  178.0910  145.4720 C   0  0  2  0  0  3  0  0  0  0  0  0
  187.0110  178.0750  146.7410 C   0  0  0  0  0  2  0  0  0  0  0  0
  188.1000  175.9070  145.8360 C   0  0  1  0  0  3  0  0  0  0  0  0
  187.1010  177.7720  144.2940 C   0  0  1  0  0  3  0  0  0  0  0  0
  187.7280  176.7470  146.9930 C   0  0  1  0  0  3  0  0  0  0  0  0
  187.6540  176.3500  144.4270 C   0  0  1  0  0  3  0  0  0  0  0  0
  189.9820  176.0460  147.2310 C   0  0  2  0  0  3  0  0  0  0  0  0
  192.0280  175.6410  146.2010 C   0  0  1  0  0  0  0  0  0  0  0  0
  191.3790  176.6030  147.1430 C   0  0  0  0  0  2  0  0  0  0  0  0
  191.2140  174.5880  145.7740 O   0  0  0  0  0  0  0  0  0  0  0  0
  193.3110  175.9380  145.5160 C   0  0  1  0  0  3  0  0  0  0  0  0
  190.1000  174.6460  146.6340 C   0  0  0  0  0  2  0  0  0  0  0  0
  193.2540  175.1670  146.6980 O   0  0  0  0  0  0  0  0  0  0  0  0
  193.5450  175.0210  144.3220 C   0  0  0  0  0  2  0  0  0  0  0  0
  192.5070  175.6340  142.1350 C   0  0  0  0  0  1  0  0  0  0  0  0
  193.7050  175.8320  143.0480 C   0  0  0  0  0  2  0  0  0  0  0  0
  186.4100  177.9260  142.9680 C   0  0  0  0  0  0  0  0  0  0  0  0
  187.1410  178.1230  141.7850 C   0  0  0  0  0  3  0  0  0  0  0  0
  184.3380  178.0660  141.7070 C   0  0  0  0  0  0  0  0  0  0  0  0
  185.0120  177.9020  142.9230 C   0  0  0  0  0  3  0  0  0  0  0  0
  186.4750  178.2850  140.5690 C   0  0  0  0  0  3  0  0  0  0  0  0
  185.0780  178.2580  140.5290 C   0  0  0  0  0  3  0  0  0  0  0  0
  182.1840  177.9180  140.5020 C   0  0  0  0  0  1  0  0  0  0  0  0
  182.9400  178.0410  141.6980 O   0  0  0  0  0  0  0  0  0  0  0  0
  188.6940  176.1470  143.5140 O   0  0  0  0  0  0  0  0  0  0  0  0
  188.6760  174.7760  143.2510 C   0  0  0  0  0  2  0  0  0  0  0  0
  187.4740  173.1560  141.9900 O   0  0  0  0  0  1  0  0  0  0  0  0
  187.8160  174.5060  142.0300 C   0  0  2  0  0  3  0  0  0  0  0  0
  188.5640  174.8810  140.7600 C   0  0  0  0  0  2  0  0  0  0  0  0
  188.5700  173.7270  139.7650 C   0  0  0  0  0  2  0  0  0  0  0  0
  190.2910  173.6960  138.1270 O   0  0  0  0  0  0  0  0  0  0  0  0
  189.9580  173.4250  139.3110 C   0  0  0  0  0  0  0  0  0  0  0  0
  190.8460  172.7940  140.1920 O   0  0  0  0  0  0  0  0  0  0  0  0
  190.3520  171.7110  142.3140 O   0  0  0  0  0  1  0  0  0  0  0  0
  190.5450  171.6490  140.9370 C   0  0  0  0  0  0  0  0  0  0  0  0
  190.4410  170.5400  140.3490 O   0  0  0  0  0  0  0  0  0  0  0  0
  2  7  1  0  0  0  0
  2  9  1  1  0  0  0
  3  1  1  6  0  0  0
  3  4  1  0  0  0  0
  4  7  1  0  0  0  0
  5  2  1  0  0  0  0
  5  7  1  0  0  0  0
  6  8  1  0  0  0  0
  6  3  1  0  0  0  0
  8  5  1  0  0  0  0
 10 15  1  0  0  0  0
 10 11  1  0  0  0  0
 11  9  1  0  0  0  0
 12 10  1  0  0  0  0
 12 14  1  0  0  0  0
 13 10  1  0  0  0  0
 13 15  1  0  0  0  0
 14  9  1  0  0  0  0
 16 13  1  0  0  0  0
 17 18  1  0  0  0  0
 18 16  1  0  0  0  0
 19  6  1  0  0  0  0
 20 19  2  0  0  0  0
 21 22  2  0  0  0  0
 22 19  1  0  0  0  0
 23 20  1  0  0  0  0
 24 23  2  0  0  0  0
 24 21  1  0  0  0  0
 25 26  1  0  0  0  0
 26 21  1  0  0  0  0
 27  8  1  0  0  0  0
 28 27  1  0  0  0  0
 29 30  1  0  0  0  0
 30 28  1  0  0  0  0
 31 30  1  0  0  0  0
 32 31  1  0  0  0  0
 33 34  2  0  0  0  0
 34 32  1  0  0  0  0
 34 35  1  0  0  0  0
 35 37  1  0  0  0  0
 37 36  1  0  0  0  0
 38 37  2  0  0  0  0
M  END
>  <MODEL>
7

>  <REMARK>
 VINA RESULT:      -6.0      2.362      4.714
  Name = 
  13 active torsions:
  status: ('A' for Active; 'I' for Inactive)
    1  A    between atoms: C_1  and  C_18
    2  A    between atoms: C_1  and  C_30
    3  A    between atoms: C_4  and  N_7
    4  A    between atoms: O_5  and  C_22
    5  A    between atoms: O_5  and  C_33
    6  A    between atoms: C_8  and  O_23
    7  A    between atoms: C_8  and  C_32
    8  A    between atoms: C_11  and  C_15
    9  A    between atoms: C_16  and  O_37
   10  A    between atoms: O_23  and  C_34
   11  A    between atoms: C_27  and  C_31
   12  A    between atoms: C_27  and  C_32
   13  A    between atoms: C_31  and  C_33
                            x       y       z     vdW  Elec       q    Type
                         _______ _______ _______ _____ _____    ______ ____

>  <TORSDO>
F 13

$$$$
=
 OpenBabel11042416253D

 38 42  0  0  1  0  0  0  0  0999 V2000
  185.1820  180.5010  144.6160 C   0  0  0  0  0  1  0  0  0  0  0  0
  187.9680  177.3860  146.3360 N   0  0  1  0  0  0  0  0  0  0  0  0
  185.4250  179.0870  145.1210 C   0  0  2  0  0  3  0  0  0  0  0  0
  186.3240  179.1800  146.3370 C   0  0  0  0  0  2  0  0  0  0  0  0
  186.7340  176.6390  146.0550 C   0  0  1  0  0  3  0  0  0  0  0  0
  186.1250  178.2310  144.0680 C   0  0  1  0  0  3  0  0  0  0  0  0
  186.6910  177.8230  146.9390 C   0  0  1  0  0  3  0  0  0  0  0  0
  186.3010  176.7990  144.5830 C   0  0  1  0  0  3  0  0  0  0  0  0
  188.6990  176.6220  147.3380 C   0  0  2  0  0  3  0  0  0  0  0  0
  190.8620  176.0910  146.6690 C   0  0  1  0  0  0  0  0  0  0  0  0
  190.1130  177.1320  147.4370 C   0  0  0  0  0  2  0  0  0  0  0  0
  190.0830  175.0360  146.1850 O   0  0  0  0  0  0  0  0  0  0  0  0
  192.2460  176.3040  146.1780 C   0  0  1  0  0  3  0  0  0  0  0  0
  188.8530  175.1830  146.8540 C   0  0  0  0  0  2  0  0  0  0  0  0
  191.9760  175.6160  147.3810 O   0  0  0  0  0  0  0  0  0  0  0  0
  192.6270  175.3040  145.0940 C   0  0  0  0  0  2  0  0  0  0  0  0
  192.8990  174.9820  142.6320 C   0  0  0  0  0  1  0  0  0  0  0  0
  192.7840  176.0000  143.7540 C   0  0  0  0  0  2  0  0  0  0  0  0
  185.3890  178.2130  142.7580 C   0  0  0  0  0  0  0  0  0  0  0  0
  186.0760  178.2910  141.5360 C   0  0  0  0  0  3  0  0  0  0  0  0
  183.2750  178.1520  141.5620 C   0  0  0  0  0  0  0  0  0  0  0  0
  183.9920  178.1470  142.7650 C   0  0  0  0  0  3  0  0  0  0  0  0
  185.3670  178.2930  140.3320 C   0  0  0  0  0  3  0  0  0  0  0  0
  183.9720  178.2250  140.3450 C   0  0  0  0  0  3  0  0  0  0  0  0
  181.0480  179.0380  140.9510 C   0  0  0  0  0  1  0  0  0  0  0  0
  181.8790  178.0880  141.6050 O   0  0  0  0  0  0  0  0  0  0  0  0
  187.1720  176.0880  143.7510 O   0  0  0  0  0  0  0  0  0  0  0  0
  188.3390  176.8560  143.7160 C   0  0  0  0  0  2  0  0  0  0  0  0
  189.9150  177.4040  142.0200 O   0  0  0  0  0  1  0  0  0  0  0  0
  189.2550  176.3350  142.6240 C   0  0  2  0  0  3  0  0  0  0  0  0
  188.4550  175.5720  141.5790 C   0  0  0  0  0  2  0  0  0  0  0  0
  189.1750  174.2950  141.1630 C   0  0  0  0  0  2  0  0  0  0  0  0
  187.5980  172.6970  141.9410 O   0  0  0  0  0  0  0  0  0  0  0  0
  188.2030  173.1850  140.9490 C   0  0  0  0  0  0  0  0  0  0  0  0
  188.0250  172.6670  139.6600 O   0  0  0  0  0  0  0  0  0  0  0  0
  189.7300  172.8510  137.9330 O   0  0  0  0  0  1  0  0  0  0  0  0
  188.5210  173.2560  138.4920 C   0  0  0  0  0  0  0  0  0  0  0  0
  187.8570  174.1670  137.9320 O   0  0  0  0  0  0  0  0  0  0  0  0
  2  7  1  0  0  0  0
  2  9  1  1  0  0  0
  3  1  1  6  0  0  0
  3  4  1  0  0  0  0
  4  7  1  0  0  0  0
  5  2  1  0  0  0  0
  5  7  1  0  0  0  0
  6  8  1  0  0  0  0
  6  3  1  0  0  0  0
  8  5  1  0  0  0  0
  9 11  1  0  0  0  0
 10 15  1  0  0  0  0
 10 11  1  0  0  0  0
 12 10  1  0  0  0  0
 12 14  1  0  0  0  0
 13 10  1  0  0  0  0
 13 15  1  0  0  0  0
 14  9  1  0  0  0  0
 16 13  1  0  0  0  0
 17 18  1  0  0  0  0
 18 16  1  0  0  0  0
 19 22  1  0  0  0  0
 19  6  1  0  0  0  0
 20 19  2  0  0  0  0
 21 26  1  0  0  0  0
 21 22  2  0  0  0  0
 23 24  2  0  0  0  0
 23 20  1  0  0  0  0
 24 21  1  0  0  0  0
 25 26  1  0  0  0  0
 27  8  1  0  0  0  0
 28 27  1  0  0  0  0
 29 30  1  0  0  0  0
 30 28  1  0  0  0  0
 31 30  1  0  0  0  0
 32 31  1  0  0  0  0
 34 32  1  0  0  0  0
 34 33  2  0  0  0  0
 35 34  1  0  0  0  0
 36 37  1  0  0  0  0
 37 35  1  0  0  0  0
 38 37  2  0  0  0  0
M  END
>  <MODEL>
8

>  <REMARK>
 VINA RESULT:      -6.0      2.682      5.027
  Name = 
  13 active torsions:
  status: ('A' for Active; 'I' for Inactive)
    1  A    between atoms: C_1  and  C_18
    2  A    between atoms: C_1  and  C_30
    3  A    between atoms: C_4  and  N_7
    4  A    between atoms: O_5  and  C_22
    5  A    between atoms: O_5  and  C_33
    6  A    between atoms: C_8  and  O_23
    7  A    between atoms: C_8  and  C_32
    8  A    between atoms: C_11  and  C_15
    9  A    between atoms: C_16  and  O_37
   10  A    between atoms: O_23  and  C_34
   11  A    between atoms: C_27  and  C_31
   12  A    between atoms: C_27  and  C_32
   13  A    between atoms: C_31  and  C_33
                            x       y       z     vdW  Elec       q    Type
                         _______ _______ _______ _____ _____    ______ ____

>  <TORSDO>
F 13

$$$$
=
 OpenBabel11042416253D

 38 42  0  0  1  0  0  0  0  0999 V2000
  185.3900  179.6670  145.1160 C   0  0  0  0  0  1  0  0  0  0  0  0
  188.8600  176.9450  146.1030 N   0  0  1  0  0  0  0  0  0  0  0  0
  185.9580  178.2660  145.2850 C   0  0  2  0  0  3  0  0  0  0  0  0
  186.8630  178.2800  146.4990 C   0  0  0  0  0  2  0  0  0  0  0  0
  187.8090  176.0250  145.6450 C   0  0  1  0  0  3  0  0  0  0  0  0
  186.7850  177.8490  144.0710 C   0  0  1  0  0  3  0  0  0  0  0  0
  187.5440  176.9380  146.7770 C   0  0  1  0  0  3  0  0  0  0  0  0
  187.2910  176.4140  144.2450 C   0  0  1  0  0  3  0  0  0  0  0  0
  189.7800  176.1570  146.9120 C   0  0  2  0  0  3  0  0  0  0  0  0
  191.8600  175.8850  145.9050 C   0  0  1  0  0  0  0  0  0  0  0  0
  191.1520  176.7780  146.8740 C   0  0  0  0  0  2  0  0  0  0  0  0
  191.1000  174.8160  145.4200 O   0  0  0  0  0  0  0  0  0  0  0  0
  193.1400  176.2650  145.2580 C   0  0  1  0  0  3  0  0  0  0  0  0
  189.9710  174.7900  146.2600 C   0  0  0  0  0  2  0  0  0  0  0  0
  193.0960  175.4440  146.4070 O   0  0  0  0  0  0  0  0  0  0  0  0
  193.4350  175.4100  144.0330 C   0  0  0  0  0  2  0  0  0  0  0  0
  195.6990  176.4660  144.0080 C   0  0  0  0  0  1  0  0  0  0  0  0
  194.9280  175.1620  143.9000 C   0  0  0  0  0  2  0  0  0  0  0  0
  186.0180  177.9640  142.7840 C   0  0  0  0  0  0  0  0  0  0  0  0
  186.6770  178.1480  141.5570 C   0  0  0  0  0  3  0  0  0  0  0  0
  183.8750  178.0450  141.6410 C   0  0  0  0  0  0  0  0  0  0  0  0
  184.6200  177.9180  142.8190 C   0  0  0  0  0  3  0  0  0  0  0  0
  185.9400  178.2730  140.3780 C   0  0  0  0  0  3  0  0  0  0  0  0
  184.5440  178.2230  140.4190 C   0  0  0  0  0  3  0  0  0  0  0  0
  181.6440  178.3560  140.6210 C   0  0  0  0  0  1  0  0  0  0  0  0
  182.4800  177.9970  141.7120 O   0  0  0  0  0  0  0  0  0  0  0  0
  188.2630  176.1230  143.2810 O   0  0  0  0  0  0  0  0  0  0  0  0
  187.8370  174.9290  142.6950 C   0  0  0  0  0  2  0  0  0  0  0  0
  188.2260  174.7820  140.3530 O   0  0  0  0  0  1  0  0  0  0  0  0
  188.8040  174.5310  141.5950 C   0  0  2  0  0  3  0  0  0  0  0  0
  189.1580  173.0560  141.7070 C   0  0  0  0  0  2  0  0  0  0  0  0
  189.5910  172.7020  143.1240 C   0  0  0  0  0  2  0  0  0  0  0  0
  190.4540  170.6930  142.1940 O   0  0  0  0  0  0  0  0  0  0  0  0
  190.5340  171.5470  143.1170 C   0  0  0  0  0  0  0  0  0  0  0  0
  191.4500  171.4010  144.1670 O   0  0  0  0  0  0  0  0  0  0  0  0
  193.5080  171.7330  142.9120 O   0  0  0  0  0  0  0  0  0  0  0  0
  192.7940  171.7820  144.1060 C   0  0  0  0  0  0  0  0  0  0  0  0
  193.3690  172.1830  145.1520 O   0  0  0  0  0  1  0  0  0  0  0  0
  2  7  1  0  0  0  0
  2  9  1  1  0  0  0
  3  1  1  6  0  0  0
  3  4  1  0  0  0  0
  4  7  1  0  0  0  0
  5  2  1  0  0  0  0
  5  7  1  0  0  0  0
  6  8  1  0  0  0  0
  6  3  1  0  0  0  0
  8  5  1  0  0  0  0
 10 15  1  0  0  0  0
 10 11  1  0  0  0  0
 11  9  1  0  0  0  0
 12 10  1  0  0  0  0
 12 14  1  0  0  0  0
 13 10  1  0  0  0  0
 13 15  1  0  0  0  0
 14  9  1  0  0  0  0
 16 13  1  0  0  0  0
 18 17  1  0  0  0  0
 18 16  1  0  0  0  0
 19 22  1  0  0  0  0
 19  6  1  0  0  0  0
 20 19  2  0  0  0  0
 21 26  1  0  0  0  0
 21 22  2  0  0  0  0
 23 24  2  0  0  0  0
 23 20  1  0  0  0  0
 24 21  1  0  0  0  0
 25 26  1  0  0  0  0
 27  8  1  0  0  0  0
 28 27  1  0  0  0  0
 29 30  1  0  0  0  0
 30 31  1  0  0  0  0
 30 28  1  0  0  0  0
 31 32  1  0  0  0  0
 33 34  2  0  0  0  0
 34 32  1  0  0  0  0
 34 35  1  0  0  0  0
 36 37  2  0  0  0  0
 37 35  1  0  0  0  0
 37 38  1  0  0  0  0
M  END
>  <MODEL>
9

>  <REMARK>
 VINA RESULT:      -5.9      2.267      5.233
  Name = 
  13 active torsions:
  status: ('A' for Active; 'I' for Inactive)
    1  A    between atoms: C_1  and  C_18
    2  A    between atoms: C_1  and  C_30
    3  A    between atoms: C_4  and  N_7
    4  A    between atoms: O_5  and  C_22
    5  A    between atoms: O_5  and  C_33
    6  A    between atoms: C_8  and  O_23
    7  A    between atoms: C_8  and  C_32
    8  A    between atoms: C_11  and  C_15
    9  A    between atoms: C_16  and  O_37
   10  A    between atoms: O_23  and  C_34
   11  A    between atoms: C_27  and  C_31
   12  A    between atoms: C_27  and  C_32
   13  A    between atoms: C_31  and  C_33
                            x       y       z     vdW  Elec       q    Type
                         _______ _______ _______ _____ _____    ______ ____

>  <TORSDO>
F 13

$$$$
