=
 OpenBabel11042417063D

 44 51  0  0  1  0  0  0  0  0999 V2000
  191.5730  170.7010  139.7550 C   0  0  0  0  0  0  0  0  0  0  0  0
  190.8230  176.4740  143.6150 C   0  0  1  0  0  3  0  0  0  0  0  0
  190.4140  172.6140  138.7080 C   0  0  0  0  0  2  0  0  0  0  0  0
  189.5500  175.4450  141.7390 C   0  0  0  0  0  0  0  0  0  0  0  0
  191.0520  169.4920  139.0860 C   0  0  0  0  0  0  0  0  0  0  0  0
  197.4260  175.2520  142.0860 C   0  0  0  0  0  3  0  0  0  0  0  0
  196.6770  176.3380  142.0390 O   0  0  0  0  0  0  0  0  0  0  0  0
  187.7900  178.0060  140.9320 O   0  0  0  0  0  0  0  0  0  0  0  0
  189.7230  170.6560  137.4190 N   0  0  0  0  0  2  0  0  0  0  0  0
  192.7680  170.7430  140.2570 N   0  0  0  0  0  0  0  0  0  0  0  0
  194.1270  172.4640  141.6200 C   0  0  0  0  0  2  0  0  0  0  0  0
  192.2850  176.8570  143.3500 C   0  0  0  0  0  2  0  0  0  0  0  0
  190.7880  171.9530  140.0130 C   0  0  2  0  0  3  0  0  0  0  0  0
  191.7070  174.0830  141.3280 C   0  0  0  0  0  0  0  0  0  0  0  0
  195.4260  175.9750  141.9380 C   0  0  0  0  0  0  0  0  0  0  0  0
  187.7250  178.0570  142.1900 C   0  0  0  0  0  0  0  0  0  0  0  0
  190.2770  169.5190  138.0390 N   0  0  0  0  0  0  0  0  0  0  0  0
  189.2570  171.8500  138.1110 C   0  0  0  0  0  2  0  0  0  0  0  0
  190.2550  177.2500  144.7960 C   0  0  1  0  0  3  0  0  0  0  0  0
  194.1150  173.9210  141.8050 N   0  0  0  0  0  0  0  0  0  0  0  0
  195.3480  174.6260  141.9140 C   0  0  0  0  0  0  0  0  0  0  0  0
  194.2510  176.8720  141.7800 C   0  0  0  0  0  2  0  0  0  0  0  0
  192.8570  174.6140  142.1560 C   0  0  1  0  0  3  0  0  0  0  0  0
  196.6250  174.1140  142.0040 C   0  0  0  0  0  3  0  0  0  0  0  0
  191.8260  172.7460  140.7310 C   0  0  0  0  0  0  0  0  0  0  0  0
  191.5600  168.1660  139.5360 C   0  0  0  0  0  1  0  0  0  0  0  0
  190.5580  174.6780  141.4460 C   0  0  0  0  0  0  0  0  0  0  0  0
  188.7300  177.4170  142.9870 N   0  0  0  0  0  0  0  0  0  0  0  0
  189.8930  176.7490  142.4270 C   0  0  1  0  0  3  0  0  0  0  0  0
  188.8420  177.6640  144.4110 C   0  0  0  0  0  2  0  0  0  0  0  0
  188.1640  174.8970  141.6710 C   0  0  0  0  0  1  0  0  0  0  0  0
  192.9230  172.0230  140.8430 C   0  0  0  0  0  0  0  0  0  0  0  0
  192.9150  176.1850  142.1200 C   0  0  1  0  0  3  0  0  0  0  0  0
  190.2620  176.4240  146.0450 C   0  0  0  0  0  0  0  0  0  0  0  0
  191.3290  176.4860  146.9550 C   0  0  0  0  0  3  0  0  0  0  0  0
  189.1590  174.8010  147.4680 C   0  0  0  0  0  3  0  0  0  0  0  0
  189.1780  175.5790  146.3070 C   0  0  0  0  0  3  0  0  0  0  0  0
  190.2230  174.8650  148.3720 C   0  0  0  0  0  3  0  0  0  0  0  0
  191.3080  175.7070  148.1150 C   0  0  0  0  0  3  0  0  0  0  0  0
  186.6780  178.7390  142.8150 O   0  0  0  0  0  0  0  0  0  0  0  0
  184.5180  178.8120  144.5690 S   0  0  0  0  0  0  0  0  0  0  0  0
  185.5630  176.3860  143.7540 O   0  0  0  0  0  1  0  0  0  0  0  0
  185.2290  177.9610  143.2720 S   0  0  2  0  0  0  0  0  0  0  0  0
  184.2780  177.9380  142.1090 O   0  0  0  0  0  0  0  0  0  0  0  0
  1 13  1  0  0  0  0
  1 10  2  0  0  0  0
  2 12  1  6  0  0  0
  2 19  1  0  0  0  0
  5 26  1  0  0  0  0
  5  1  1  0  0  0  0
  7  6  1  0  0  0  0
  8 16  2  0  0  0  0
  9 17  1  0  0  0  0
  9 18  1  0  0  0  0
 10 32  1  0  0  0  0
 11 20  1  0  0  0  0
 13  3  1  6  0  0  0
 13 25  1  0  0  0  0
 14 27  2  0  0  0  0
 15  7  1  0  0  0  0
 16 40  1  0  0  0  0
 16 28  1  0  0  0  0
 17  5  2  0  0  0  0
 18  3  1  0  0  0  0
 19 34  1  1  0  0  0
 20 21  1  0  0  0  0
 20 23  1  0  0  0  0
 21 15  2  0  0  0  0
 21 24  1  0  0  0  0
 22 15  1  0  0  0  0
 23 14  1  6  0  0  0
 24  6  2  0  0  0  0
 25 32  2  0  0  0  0
 25 14  1  0  0  0  0
 27  4  2  0  0  0  0
 28 30  1  0  0  0  0
 29  4  1  1  0  0  0
 29 28  1  0  0  0  0
 29  2  1  0  0  0  0
 30 19  1  0  0  0  0
 31  4  1  0  0  0  0
 32 11  1  0  0  0  0
 33 22  1  1  0  0  0
 33 23  1  0  0  0  0
 33 12  1  0  0  0  0
 34 37  2  0  0  0  0
 34 35  1  0  0  0  0
 35 39  2  0  0  0  0
 36 38  2  0  0  0  0
 37 36  1  0  0  0  0
 39 38  1  0  0  0  0
 40 43  1  0  0  0  0
 43 44  2  6  0  0  0
 43 42  1  0  0  0  0
 43 41  2  0  0  0  0
M  END
>  <MODEL>
1

>  <REMARK>
 VINA RESULT:      -7.8      0.000      0.000
  Name = 
  3 active torsions:
  status: ('A' for Active; 'I' for Inactive)
    1  A    between atoms: C_9  and  C_25
    2  A    between atoms: O_18  and  S_21
    3  A    between atoms: O_18  and  C_22
                            x       y       z     vdW  Elec       q    Type
                         _______ _______ _______ _____ _____    ______ ____

>  <TORSDO>
F 3

$$$$
=
 OpenBabel11042417063D

 44 51  0  0  1  0  0  0  0  0999 V2000
  195.9240  174.9200  141.0310 C   0  0  0  0  0  0  0  0  0  0  0  0
  189.0740  174.9000  142.3990 C   0  0  1  0  0  3  0  0  0  0  0  0
  195.2370  175.4000  143.3540 C   0  0  0  0  0  2  0  0  0  0  0  0
  191.0510  176.0540  143.3790 C   0  0  0  0  0  0  0  0  0  0  0  0
  197.2230  175.5970  140.8410 C   0  0  0  0  0  0  0  0  0  0  0  0
  191.3810  168.6210  140.7650 C   0  0  0  0  0  3  0  0  0  0  0  0
  190.6020  169.0700  141.7310 O   0  0  0  0  0  0  0  0  0  0  0  0
  189.7040  176.9930  146.1370 O   0  0  0  0  0  0  0  0  0  0  0  0
  197.4940  176.3150  143.1450 N   0  0  0  0  0  2  0  0  0  0  0  0
  195.6080  173.8500  140.3700 N   0  0  0  0  0  0  0  0  0  0  0  0
  193.5040  172.3650  140.1800 C   0  0  0  0  0  2  0  0  0  0  0  0
  189.0690  173.3660  142.4200 C   0  0  0  0  0  2  0  0  0  0  0  0
  194.8100  175.4160  141.9050 C   0  0  2  0  0  3  0  0  0  0  0  0
  192.4260  174.2460  142.1450 C   0  0  0  0  0  0  0  0  0  0  0  0
  190.8610  170.3370  141.9170 C   0  0  0  0  0  0  0  0  0  0  0  0
  188.7800  177.2510  145.3180 C   0  0  0  0  0  0  0  0  0  0  0  0
  197.8960  176.1580  141.8040 N   0  0  0  0  0  0  0  0  0  0  0  0
  196.1360  176.5900  143.5900 C   0  0  0  0  0  2  0  0  0  0  0  0
  187.6620  175.4540  142.2580 C   0  0  1  0  0  3  0  0  0  0  0  0
  192.3400  172.0600  141.0220 N   0  0  0  0  0  0  0  0  0  0  0  0
  191.8310  170.7300  141.0610 C   0  0  0  0  0  0  0  0  0  0  0  0
  190.2700  171.2220  142.9560 C   0  0  0  0  0  2  0  0  0  0  0  0
  191.5320  173.1560  141.5960 C   0  0  1  0  0  3  0  0  0  0  0  0
  192.2020  169.6440  140.2960 C   0  0  0  0  0  3  0  0  0  0  0  0
  193.8010  174.3520  141.6380 C   0  0  0  0  0  0  0  0  0  0  0  0
  197.8760  175.5020  139.5050 C   0  0  0  0  0  1  0  0  0  0  0  0
  191.8580  175.2240  142.7860 C   0  0  0  0  0  0  0  0  0  0  0  0
  188.7310  176.5750  144.0560 N   0  0  0  0  0  0  0  0  0  0  0  0
  189.6620  175.5280  143.6690 C   0  0  1  0  0  3  0  0  0  0  0  0
  187.5610  176.6440  143.2020 C   0  0  0  0  0  2  0  0  0  0  0  0
  191.4120  177.4990  143.4580 C   0  0  0  0  0  1  0  0  0  0  0  0
  194.2960  173.4930  140.7690 C   0  0  0  0  0  0  0  0  0  0  0  0
  190.4450  172.7200  142.6460 C   0  0  1  0  0  3  0  0  0  0  0  0
  187.3720  175.8520  140.8440 C   0  0  0  0  0  0  0  0  0  0  0  0
  187.8160  175.0740  139.7620 C   0  0  0  0  0  3  0  0  0  0  0  0
  186.3540  177.4100  139.2910 C   0  0  0  0  0  3  0  0  0  0  0  0
  186.6410  177.0200  140.6020 C   0  0  0  0  0  3  0  0  0  0  0  0
  186.7970  176.6340  138.2160 C   0  0  0  0  0  3  0  0  0  0  0  0
  187.5280  175.4660  138.4520 C   0  0  0  0  0  3  0  0  0  0  0  0
  187.8000  178.1940  145.6360 O   0  0  0  0  0  0  0  0  0  0  0  0
  185.0300  178.0050  145.8500 S   0  0  0  0  0  0  0  0  0  0  0  0
  186.5290  178.9130  147.9880 O   0  0  0  0  0  1  0  0  0  0  0  0
  186.5060  177.8420  146.6920 S   0  0  2  0  0  0  0  0  0  0  0  0
  186.6370  176.4350  147.2020 O   0  0  0  0  0  0  0  0  0  0  0  0
  1 13  1  0  0  0  0
  2 12  1  1  0  0  0
  2 29  1  0  0  0  0
  3 18  1  0  0  0  0
  4 31  1  0  0  0  0
  5  1  1  0  0  0  0
  5 17  2  0  0  0  0
  6  7  1  0  0  0  0
  7 15  1  0  0  0  0
  9 18  1  0  0  0  0
 10 32  1  0  0  0  0
 10  1  2  0  0  0  0
 11 32  1  0  0  0  0
 11 20  1  0  0  0  0
 13  3  1  1  0  0  0
 14 27  2  0  0  0  0
 15 22  1  0  0  0  0
 16 40  1  0  0  0  0
 16  8  2  0  0  0  0
 17  9  1  0  0  0  0
 19 34  1  6  0  0  0
 19  2  1  0  0  0  0
 19 30  1  0  0  0  0
 20 21  1  0  0  0  0
 20 23  1  0  0  0  0
 21 15  2  0  0  0  0
 23 14  1  1  0  0  0
 23 33  1  0  0  0  0
 24  6  2  0  0  0  0
 24 21  1  0  0  0  0
 25 13  1  0  0  0  0
 25 14  1  0  0  0  0
 26  5  1  0  0  0  0
 27  4  2  0  0  0  0
 28 16  1  0  0  0  0
 29  4  1  6  0  0  0
 29 28  1  0  0  0  0
 30 28  1  0  0  0  0
 32 25  2  0  0  0  0
 33 12  1  6  0  0  0
 33 22  1  0  0  0  0
 35 34  2  0  0  0  0
 36 37  2  0  0  0  0
 37 34  1  0  0  0  0
 38 39  2  0  0  0  0
 38 36  1  0  0  0  0
 39 35  1  0  0  0  0
 40 43  1  0  0  0  0
 43 41  2  6  0  0  0
 43 44  2  0  0  0  0
 43 42  1  0  0  0  0
M  END
>  <MODEL>
2

>  <REMARK>
 VINA RESULT:      -7.6      2.715      6.228
  Name = 
  3 active torsions:
  status: ('A' for Active; 'I' for Inactive)
    1  A    between atoms: C_9  and  C_25
    2  A    between atoms: O_18  and  S_21
    3  A    between atoms: O_18  and  C_22
                            x       y       z     vdW  Elec       q    Type
                         _______ _______ _______ _____ _____    ______ ____

>  <TORSDO>
F 3

$$$$
=
 OpenBabel11042417063D

 44 51  0  0  1  0  0  0  0  0999 V2000
  195.2120  175.0690  137.4520 C   0  0  0  0  0  0  0  0  0  0  0  0
  190.2010  174.0860  142.2180 C   0  0  1  0  0  3  0  0  0  0  0  0
  195.8880  174.0770  139.6100 C   0  0  0  0  0  2  0  0  0  0  0  0
  192.6550  174.4910  142.3170 C   0  0  0  0  0  0  0  0  0  0  0  0
  196.4070  175.7600  136.9270 C   0  0  0  0  0  0  0  0  0  0  0  0
  189.3500  170.0200  136.7250 C   0  0  0  0  0  3  0  0  0  0  0  0
  189.3030  169.7980  138.0250 O   0  0  0  0  0  0  0  0  0  0  0  0
  193.1360  173.5990  145.3630 O   0  0  0  0  0  0  0  0  0  0  0  0
  197.9400  174.9940  138.6490 N   0  0  0  0  0  2  0  0  0  0  0  0
  194.3030  174.5840  136.6650 N   0  0  0  0  0  0  0  0  0  0  0  0
  192.0090  173.4430  136.9930 C   0  0  0  0  0  2  0  0  0  0  0  0
  189.7210  172.8320  141.4740 C   0  0  0  0  0  2  0  0  0  0  0  0
  194.8610  174.9300  138.9040 C   0  0  2  0  0  3  0  0  0  0  0  0
  192.6380  173.7860  139.8310 C   0  0  0  0  0  0  0  0  0  0  0  0
  190.0050  170.7200  138.6290 C   0  0  0  0  0  0  0  0  0  0  0  0
  192.0720  174.2670  145.4730 C   0  0  0  0  0  0  0  0  0  0  0  0
  197.5920  175.6650  137.4600 N   0  0  0  0  0  0  0  0  0  0  0  0
  197.1160  174.9230  139.8470 C   0  0  0  0  0  2  0  0  0  0  0  0
  189.1460  174.5830  143.1970 C   0  0  1  0  0  3  0  0  0  0  0  0
  191.3480  172.6750  138.0550 N   0  0  0  0  0  0  0  0  0  0  0  0
  190.5270  171.5630  137.7110 C   0  0  0  0  0  0  0  0  0  0  0  0
  190.2850  170.8110  140.0860 C   0  0  0  0  0  2  0  0  0  0  0  0
  191.2980  173.2050  139.4350 C   0  0  1  0  0  3  0  0  0  0  0  0
  190.1300  171.1430  136.4580 C   0  0  0  0  0  3  0  0  0  0  0  0
  193.5670  174.2020  138.7710 C   0  0  0  0  0  0  0  0  0  0  0  0
  196.2890  176.4830  135.6300 C   0  0  0  0  0  1  0  0  0  0  0  0
  192.7790  174.1870  141.0590 C   0  0  0  0  0  0  0  0  0  0  0  0
  191.2250  174.4590  144.3340 N   0  0  0  0  0  0  0  0  0  0  0  0
  191.4800  173.8620  143.0330 C   0  0  1  0  0  3  0  0  0  0  0  0
  189.8820  174.9890  144.4660 C   0  0  0  0  0  2  0  0  0  0  0  0
  193.4460  175.6230  142.8810 C   0  0  0  0  0  1  0  0  0  0  0  0
  193.2960  174.0300  137.4930 C   0  0  0  0  0  0  0  0  0  0  0  0
  190.7580  172.2090  140.5250 C   0  0  1  0  0  3  0  0  0  0  0  0
  188.3690  175.7280  142.6250 C   0  0  0  0  0  0  0  0  0  0  0  0
  186.9670  175.6870  142.5380 C   0  0  0  0  0  3  0  0  0  0  0  0
  188.3530  177.9440  141.6440 C   0  0  0  0  0  3  0  0  0  0  0  0
  189.0570  176.8610  142.1770 C   0  0  0  0  0  3  0  0  0  0  0  0
  186.9580  177.9010  141.5570 C   0  0  0  0  0  3  0  0  0  0  0  0
  186.2660  176.7710  142.0040 C   0  0  0  0  0  3  0  0  0  0  0  0
  191.7110  174.8190  146.7040 O   0  0  0  0  0  0  0  0  0  0  0  0
  193.6860  176.7790  146.8130 S   0  0  0  0  0  0  0  0  0  0  0  0
  191.6920  176.7090  148.7260 O   0  0  0  0  0  1  0  0  0  0  0  0
  192.0370  176.4470  147.1030 S   0  0  2  0  0  0  0  0  0  0  0  0
  191.1890  177.3540  146.2570 O   0  0  0  0  0  0  0  0  0  0  0  0
  1 13  1  0  0  0  0
  2 12  1  1  0  0  0
  2 29  1  0  0  0  0
  2 19  1  0  0  0  0
  3 18  1  0  0  0  0
  4 31  1  0  0  0  0
  5  1  1  0  0  0  0
  5 17  2  0  0  0  0
  6  7  1  0  0  0  0
  7 15  1  0  0  0  0
  8 16  2  0  0  0  0
  9 18  1  0  0  0  0
 10  1  2  0  0  0  0
 10 32  1  0  0  0  0
 11 32  1  0  0  0  0
 11 20  1  0  0  0  0
 13  3  1  1  0  0  0
 14 27  2  0  0  0  0
 15 22  1  0  0  0  0
 16 40  1  0  0  0  0
 17  9  1  0  0  0  0
 19 34  1  6  0  0  0
 19 30  1  0  0  0  0
 20 23  1  0  0  0  0
 21 20  1  0  0  0  0
 21 15  2  0  0  0  0
 23 14  1  1  0  0  0
 23 33  1  0  0  0  0
 24  6  2  0  0  0  0
 24 21  1  0  0  0  0
 25 13  1  0  0  0  0
 25 14  1  0  0  0  0
 26  5  1  0  0  0  0
 27  4  2  0  0  0  0
 28 30  1  0  0  0  0
 28 16  1  0  0  0  0
 29  4  1  6  0  0  0
 29 28  1  0  0  0  0
 32 25  2  0  0  0  0
 33 22  1  6  0  0  0
 33 12  1  0  0  0  0
 35 34  1  0  0  0  0
 36 37  1  0  0  0  0
 37 34  2  0  0  0  0
 38 36  2  0  0  0  0
 38 39  1  0  0  0  0
 39 35  2  0  0  0  0
 40 43  1  0  0  0  0
 41 43  2  0  0  0  0
 43 44  2  6  0  0  0
 43 42  1  0  0  0  0
M  END
>  <MODEL>
3

>  <REMARK>
 VINA RESULT:      -6.9      3.994      6.726
  Name = 
  3 active torsions:
  status: ('A' for Active; 'I' for Inactive)
    1  A    between atoms: C_9  and  C_25
    2  A    between atoms: O_18  and  S_21
    3  A    between atoms: O_18  and  C_22
                            x       y       z     vdW  Elec       q    Type
                         _______ _______ _______ _____ _____    ______ ____

>  <TORSDO>
F 3

$$$$
=
 OpenBabel11042417063D

 44 51  0  0  1  0  0  0  0  0999 V2000
  191.4710  171.8710  136.3090 C   0  0  0  0  0  0  0  0  0  0  0  0
  192.6760  173.7280  142.9340 C   0  0  1  0  0  3  0  0  0  0  0  0
  190.0560  173.6620  137.2520 C   0  0  0  0  0  2  0  0  0  0  0  0
  190.6840  173.7620  141.4410 C   0  0  0  0  0  0  0  0  0  0  0  0
  190.6650  171.2280  135.2510 C   0  0  0  0  0  0  0  0  0  0  0  0
  197.9410  175.3730  138.8110 C   0  0  0  0  0  3  0  0  0  0  0  0
  197.2900  176.0370  139.7470 O   0  0  0  0  0  0  0  0  0  0  0  0
  188.8550  175.7490  143.1770 O   0  0  0  0  0  0  0  0  0  0  0  0
  188.8020  172.7840  135.3470 N   0  0  0  0  0  2  0  0  0  0  0  0
  192.7670  171.8990  136.2590 N   0  0  0  0  0  0  0  0  0  0  0  0
  194.6470  172.7190  137.8270 C   0  0  0  0  0  2  0  0  0  0  0  0
  193.9010  174.5430  142.4960 C   0  0  0  0  0  2  0  0  0  0  0  0
  190.9230  172.4670  137.5710 C   0  0  2  0  0  3  0  0  0  0  0  0
  192.4020  173.5170  139.5270 C   0  0  0  0  0  0  0  0  0  0  0  0
  196.1010  175.5110  139.8780 C   0  0  0  0  0  0  0  0  0  0  0  0
  189.3350  175.0120  144.0820 C   0  0  0  0  0  0  0  0  0  0  0  0
  189.5200  171.6870  134.8320 N   0  0  0  0  0  0  0  0  0  0  0  0
  188.7250  173.1540  136.7530 C   0  0  0  0  0  2  0  0  0  0  0  0
  192.6980  173.4610  144.4330 C   0  0  1  0  0  3  0  0  0  0  0  0
  194.7740  173.7080  138.9050 N   0  0  0  0  0  0  0  0  0  0  0  0
  195.9640  174.4840  139.0100 C   0  0  0  0  0  0  0  0  0  0  0  0
  195.0090  175.9920  140.7640 C   0  0  0  0  0  2  0  0  0  0  0  0
  193.8160  173.7060  140.0310 C   0  0  1  0  0  3  0  0  0  0  0  0
  197.1360  174.3610  138.2930 C   0  0  0  0  0  3  0  0  0  0  0  0
  192.2000  172.8940  138.2110 C   0  0  0  0  0  0  0  0  0  0  0  0
  191.2610  170.0800  134.5130 C   0  0  0  0  0  1  0  0  0  0  0  0
  191.4380  173.6100  140.3930 C   0  0  0  0  0  0  0  0  0  0  0  0
  190.5550  174.2980  143.8520 N   0  0  0  0  0  0  0  0  0  0  0  0
  191.3410  174.4200  142.6350 C   0  0  1  0  0  3  0  0  0  0  0  0
  191.2740  173.6540  144.9340 C   0  0  0  0  0  2  0  0  0  0  0  0
  189.3800  173.0420  141.5190 C   0  0  0  0  0  1  0  0  0  0  0  0
  193.2090  172.5530  137.4350 C   0  0  0  0  0  0  0  0  0  0  0  0
  193.9180  174.9330  141.0100 C   0  0  1  0  0  3  0  0  0  0  0  0
  193.2020  172.0830  144.7340 C   0  0  0  0  0  0  0  0  0  0  0  0
  194.2350  171.8710  145.6620 C   0  0  0  0  0  3  0  0  0  0  0  0
  193.0750  169.6940  144.3470 C   0  0  0  0  0  3  0  0  0  0  0  0
  192.6240  170.9900  144.0800 C   0  0  0  0  0  3  0  0  0  0  0  0
  194.1030  169.4860  145.2710 C   0  0  0  0  0  3  0  0  0  0  0  0
  194.6840  170.5750  145.9270 C   0  0  0  0  0  3  0  0  0  0  0  0
  188.6830  174.8900  145.3100 O   0  0  0  0  0  0  0  0  0  0  0  0
  189.6610  177.4070  145.9890 S   0  0  0  0  0  0  0  0  0  0  0  0
  189.9910  175.2770  147.7190 O   0  0  0  0  0  1  0  0  0  0  0  0
  188.9540  175.9780  146.5980 S   0  0  2  0  0  0  0  0  0  0  0  0
  187.6480  176.3110  147.2630 O   0  0  0  0  0  0  0  0  0  0  0  0
  1 13  1  0  0  0  0
  2 12  1  1  0  0  0
  2 19  1  0  0  0  0
  4 31  1  0  0  0  0
  5  1  1  0  0  0  0
  6  7  1  0  0  0  0
  7 15  1  0  0  0  0
  8 16  2  0  0  0  0
  9 18  1  0  0  0  0
 10  1  2  0  0  0  0
 10 32  1  0  0  0  0
 11 20  1  0  0  0  0
 13  3  1  6  0  0  0
 13 25  1  0  0  0  0
 14 27  2  0  0  0  0
 15 22  1  0  0  0  0
 16 40  1  0  0  0  0
 17  5  2  0  0  0  0
 17  9  1  0  0  0  0
 18  3  1  0  0  0  0
 19 34  1  6  0  0  0
 19 30  1  0  0  0  0
 20 21  1  0  0  0  0
 20 23  1  0  0  0  0
 21 15  2  0  0  0  0
 23 14  1  6  0  0  0
 23 33  1  0  0  0  0
 24  6  2  0  0  0  0
 24 21  1  0  0  0  0
 25 14  1  0  0  0  0
 26  5  1  0  0  0  0
 27  4  2  0  0  0  0
 28 16  1  0  0  0  0
 28 30  1  0  0  0  0
 29  4  1  6  0  0  0
 29  2  1  0  0  0  0
 29 28  1  0  0  0  0
 32 11  1  0  0  0  0
 32 25  2  0  0  0  0
 33 22  1  6  0  0  0
 33 12  1  0  0  0  0
 34 35  1  0  0  0  0
 35 39  2  0  0  0  0
 36 38  2  0  0  0  0
 37 36  1  0  0  0  0
 37 34  2  0  0  0  0
 38 39  1  0  0  0  0
 40 43  1  0  0  0  0
 43 41  2  6  0  0  0
 43 44  2  0  0  0  0
 43 42  1  0  0  0  0
M  END
>  <MODEL>
4

>  <REMARK>
 VINA RESULT:      -6.5      3.181      4.128
  Name = 
  3 active torsions:
  status: ('A' for Active; 'I' for Inactive)
    1  A    between atoms: C_9  and  C_25
    2  A    between atoms: O_18  and  S_21
    3  A    between atoms: O_18  and  C_22
                            x       y       z     vdW  Elec       q    Type
                         _______ _______ _______ _____ _____    ______ ____

>  <TORSDO>
F 3

$$$$
=
 OpenBabel11042417063D

 44 51  0  0  1  0  0  0  0  0999 V2000
  190.6510  171.8570  138.5830 C   0  0  0  0  0  0  0  0  0  0  0  0
  195.0540  174.3470  143.3990 C   0  0  1  0  0  3  0  0  0  0  0  0
  190.0960  174.0400  139.5950 C   0  0  0  0  0  2  0  0  0  0  0  0
  192.6190  174.6100  142.9510 C   0  0  0  0  0  0  0  0  0  0  0  0
  189.3660  171.2640  138.1600 C   0  0  0  0  0  0  0  0  0  0  0  0
  197.9410  174.1350  137.1500 C   0  0  0  0  0  3  0  0  0  0  0  0
  197.8990  175.0590  138.0920 O   0  0  0  0  0  0  0  0  0  0  0  0
  192.1000  177.1920  144.7860 O   0  0  0  0  0  0  0  0  0  0  0  0
  187.9910  173.1970  138.6830 N   0  0  0  0  0  2  0  0  0  0  0  0
  191.7630  171.5830  137.9740 N   0  0  0  0  0  0  0  0  0  0  0  0
  194.2480  172.1790  138.3370 C   0  0  0  0  0  2  0  0  0  0  0  0
  196.0270  174.7910  142.2990 C   0  0  0  0  0  2  0  0  0  0  0  0
  190.8430  172.7400  139.7790 C   0  0  2  0  0  3  0  0  0  0  0  0
  193.1910  173.7040  140.5990 C   0  0  0  0  0  0  0  0  0  0  0  0
  196.8520  174.8400  138.8410 C   0  0  0  0  0  0  0  0  0  0  0  0
  192.8450  176.5080  145.5400 C   0  0  0  0  0  0  0  0  0  0  0  0
  188.2300  171.9020  138.1810 N   0  0  0  0  0  0  0  0  0  0  0  0
  188.6320  173.7780  139.8540 C   0  0  0  0  0  2  0  0  0  0  0  0
  195.7400  174.3050  144.7580 C   0  0  1  0  0  3  0  0  0  0  0  0
  194.9970  173.2610  138.9890 N   0  0  0  0  0  0  0  0  0  0  0  0
  196.1890  173.7540  138.3850 C   0  0  0  0  0  0  0  0  0  0  0  0
  196.3770  175.6810  139.9720 C   0  0  0  0  0  2  0  0  0  0  0  0
  194.6870  173.6420  140.3840 C   0  0  1  0  0  3  0  0  0  0  0  0
  196.8600  173.2660  137.2830 C   0  0  0  0  0  3  0  0  0  0  0  0
  192.3150  172.9570  139.6860 C   0  0  0  0  0  0  0  0  0  0  0  0
  189.3870  169.9140  137.5290 C   0  0  0  0  0  1  0  0  0  0  0  0
  192.7670  174.1390  141.7480 C   0  0  0  0  0  0  0  0  0  0  0  0
  193.7080  175.5100  144.9810 N   0  0  0  0  0  0  0  0  0  0  0  0
  193.8400  175.2710  143.5530 C   0  0  1  0  0  3  0  0  0  0  0  0
  194.7570  174.8870  145.7640 C   0  0  0  0  0  2  0  0  0  0  0  0
  191.4210  174.2230  143.7500 C   0  0  0  0  0  1  0  0  0  0  0  0
  192.7870  172.2860  138.6540 C   0  0  0  0  0  0  0  0  0  0  0  0
  195.3980  174.9440  140.9050 C   0  0  1  0  0  3  0  0  0  0  0  0
  196.1370  172.9090  145.1260 C   0  0  0  0  0  0  0  0  0  0  0  0
  195.2100  172.0090  145.6750 C   0  0  0  0  0  3  0  0  0  0  0  0
  197.8500  171.1990  145.2430 C   0  0  0  0  0  3  0  0  0  0  0  0
  197.4570  172.4980  144.9120 C   0  0  0  0  0  3  0  0  0  0  0  0
  196.9250  170.3040  145.7900 C   0  0  0  0  0  3  0  0  0  0  0  0
  195.6050  170.7100  146.0070 C   0  0  0  0  0  3  0  0  0  0  0  0
  192.8350  176.7190  146.9200 O   0  0  0  0  0  0  0  0  0  0  0  0
  190.0770  177.1040  146.9030 S   0  0  0  0  0  0  0  0  0  0  0  0
  191.5330  177.5940  149.2010 O   0  0  0  0  0  1  0  0  0  0  0  0
  191.4070  176.6040  147.8490 S   0  0  2  0  0  0  0  0  0  0  0  0
  191.2010  175.1820  148.2870 O   0  0  0  0  0  0  0  0  0  0  0  0
  1 13  1  0  0  0  0
  2 12  1  6  0  0  0
  2 29  1  0  0  0  0
  2 19  1  0  0  0  0
  3 18  1  0  0  0  0
  4 31  1  0  0  0  0
  5 17  2  0  0  0  0
  5  1  1  0  0  0  0
  6 24  2  0  0  0  0
  6  7  1  0  0  0  0
  7 15  1  0  0  0  0
  8 16  2  0  0  0  0
  9 18  1  0  0  0  0
 10  1  2  0  0  0  0
 10 32  1  0  0  0  0
 11 32  1  0  0  0  0
 11 20  1  0  0  0  0
 13  3  1  6  0  0  0
 14 27  2  0  0  0  0
 15 22  1  0  0  0  0
 16 40  1  0  0  0  0
 17  9  1  0  0  0  0
 19 34  1  1  0  0  0
 19 30  1  0  0  0  0
 20 23  1  0  0  0  0
 21 15  2  0  0  0  0
 21 20  1  0  0  0  0
 23 14  1  6  0  0  0
 23 33  1  0  0  0  0
 24 21  1  0  0  0  0
 25 13  1  0  0  0  0
 25 14  1  0  0  0  0
 26  5  1  0  0  0  0
 27  4  2  0  0  0  0
 28 16  1  0  0  0  0
 28 30  1  0  0  0  0
 29  4  1  1  0  0  0
 29 28  1  0  0  0  0
 32 25  2  0  0  0  0
 33 22  1  6  0  0  0
 33 12  1  0  0  0  0
 34 35  1  0  0  0  0
 35 39  2  0  0  0  0
 36 38  2  0  0  0  0
 37 34  2  0  0  0  0
 37 36  1  0  0  0  0
 38 39  1  0  0  0  0
 40 43  1  0  0  0  0
 43 41  2  6  0  0  0
 43 44  2  0  0  0  0
 43 42  1  0  0  0  0
M  END
>  <MODEL>
5

>  <REMARK>
 VINA RESULT:      -6.3      3.737      5.202
  Name = 
  3 active torsions:
  status: ('A' for Active; 'I' for Inactive)
    1  A    between atoms: C_9  and  C_25
    2  A    between atoms: O_18  and  S_21
    3  A    between atoms: O_18  and  C_22
                            x       y       z     vdW  Elec       q    Type
                         _______ _______ _______ _____ _____    ______ ____

>  <TORSDO>
F 3

$$$$
=
 OpenBabel11042417063D

 44 51  0  0  1  0  0  0  0  0999 V2000
  195.8210  173.2440  136.7990 C   0  0  0  0  0  0  0  0  0  0  0  0
  192.8120  172.3080  143.0330 C   0  0  1  0  0  3  0  0  0  0  0  0
  195.9190  170.9750  137.7680 C   0  0  0  0  0  2  0  0  0  0  0  0
  194.6930  171.2210  141.8160 C   0  0  0  0  0  0  0  0  0  0  0  0
  196.9970  173.3620  135.9130 C   0  0  0  0  0  0  0  0  0  0  0  0
  188.1800  173.7160  138.1350 C   0  0  0  0  0  3  0  0  0  0  0  0
  188.2320  172.8070  139.0900 O   0  0  0  0  0  0  0  0  0  0  0  0
  194.9110  168.5640  143.6050 O   0  0  0  0  0  0  0  0  0  0  0  0
  197.7250  171.0530  136.1220 N   0  0  0  0  0  2  0  0  0  0  0  0
  194.7300  173.9100  136.5780 N   0  0  0  0  0  0  0  0  0  0  0  0
  192.4830  174.2130  137.8140 C   0  0  0  0  0  2  0  0  0  0  0  0
  191.4270  172.2680  142.3730 C   0  0  0  0  0  2  0  0  0  0  0  0
  195.7710  172.4480  138.0690 C   0  0  2  0  0  3  0  0  0  0  0  0
  193.6800  172.3430  139.7200 C   0  0  0  0  0  0  0  0  0  0  0  0
  189.4830  172.6200  139.4180 C   0  0  0  0  0  0  0  0  0  0  0  0
  194.7560  169.4420  144.4970 C   0  0  0  0  0  0  0  0  0  0  0  0
  197.7800  172.3650  135.6110 N   0  0  0  0  0  0  0  0  0  0  0  0
  197.3770  170.6980  137.4910 C   0  0  0  0  0  2  0  0  0  0  0  0
  192.7010  172.5440  144.5330 C   0  0  1  0  0  3  0  0  0  0  0  0
  191.6900  173.4430  138.7800 N   0  0  0  0  0  0  0  0  0  0  0  0
  190.2710  173.4180  138.6630 C   0  0  0  0  0  0  0  0  0  0  0  0
  190.0070  171.6310  140.3970 C   0  0  0  0  0  2  0  0  0  0  0  0
  192.3190  172.9340  140.0180 C   0  0  1  0  0  3  0  0  0  0  0  0
  189.4660  174.1460  137.8120 C   0  0  0  0  0  3  0  0  0  0  0  0
  194.3790  172.7640  138.4990 C   0  0  0  0  0  0  0  0  0  0  0  0
  197.2160  174.6520  135.2020 C   0  0  0  0  0  1  0  0  0  0  0  0
  194.3040  171.7510  140.6940 C   0  0  0  0  0  0  0  0  0  0  0  0
  194.1450  170.6970  144.1700 N   0  0  0  0  0  0  0  0  0  0  0  0
  193.6120  171.0120  142.8540 C   0  0  1  0  0  3  0  0  0  0  0  0
  193.7140  171.6230  145.1980 C   0  0  0  0  0  2  0  0  0  0  0  0
  196.1500  171.1370  142.1230 C   0  0  0  0  0  1  0  0  0  0  0  0
  193.8340  173.5900  137.6280 C   0  0  0  0  0  0  0  0  0  0  0  0
  191.4380  171.9480  140.8700 C   0  0  1  0  0  3  0  0  0  0  0  0
  192.9570  173.9790  144.8790 C   0  0  0  0  0  0  0  0  0  0  0  0
  192.3610  174.5750  146.0020 C   0  0  0  0  0  3  0  0  0  0  0  0
  194.0680  176.0720  144.3720 C   0  0  0  0  0  3  0  0  0  0  0  0
  193.8110  174.7330  144.0670 C   0  0  0  0  0  3  0  0  0  0  0  0
  193.4730  176.6630  145.4900 C   0  0  0  0  0  3  0  0  0  0  0  0
  192.6190  175.9140  146.3050 C   0  0  0  0  0  3  0  0  0  0  0  0
  195.1750  169.1980  145.8060 O   0  0  0  0  0  0  0  0  0  0  0  0
  197.9010  169.0850  145.2500 S   0  0  0  0  0  0  0  0  0  0  0  0
  197.0100  168.9320  147.8620 O   0  0  0  0  0  1  0  0  0  0  0  0
  196.7290  169.6360  146.3620 S   0  0  2  0  0  0  0  0  0  0  0  0
  196.8210  171.1300  146.4840 O   0  0  0  0  0  0  0  0  0  0  0  0
  1 13  1  0  0  0  0
  2 12  1  1  0  0  0
  2 19  1  0  0  0  0
  4 31  1  0  0  0  0
  5  1  1  0  0  0  0
  6  7  1  0  0  0  0
  7 15  1  0  0  0  0
  8 16  2  0  0  0  0
  9 18  1  0  0  0  0
 10  1  2  0  0  0  0
 10 32  1  0  0  0  0
 11 20  1  0  0  0  0
 13  3  1  6  0  0  0
 13 25  1  0  0  0  0
 14 27  2  0  0  0  0
 15 22  1  0  0  0  0
 16 40  1  0  0  0  0
 17  5  2  0  0  0  0
 17  9  1  0  0  0  0
 18  3  1  0  0  0  0
 19 34  1  6  0  0  0
 19 30  1  0  0  0  0
 20 23  1  0  0  0  0
 21 20  1  0  0  0  0
 21 15  2  0  0  0  0
 23 14  1  6  0  0  0
 23 33  1  0  0  0  0
 24  6  2  0  0  0  0
 24 21  1  0  0  0  0
 25 14  1  0  0  0  0
 26  5  1  0  0  0  0
 27  4  2  0  0  0  0
 28 16  1  0  0  0  0
 28 30  1  0  0  0  0
 29  4  1  6  0  0  0
 29  2  1  0  0  0  0
 29 28  1  0  0  0  0
 32 11  1  0  0  0  0
 32 25  2  0  0  0  0
 33 22  1  6  0  0  0
 33 12  1  0  0  0  0
 34 35  1  0  0  0  0
 35 39  2  0  0  0  0
 36 38  2  0  0  0  0
 37 36  1  0  0  0  0
 37 34  2  0  0  0  0
 38 39  1  0  0  0  0
 40 43  1  0  0  0  0
 43 41  2  6  0  0  0
 43 44  2  0  0  0  0
 43 42  1  0  0  0  0
M  END
>  <MODEL>
6

>  <REMARK>
 VINA RESULT:      -6.1      5.251      8.054
  Name = 
  3 active torsions:
  status: ('A' for Active; 'I' for Inactive)
    1  A    between atoms: C_9  and  C_25
    2  A    between atoms: O_18  and  S_21
    3  A    between atoms: O_18  and  C_22
                            x       y       z     vdW  Elec       q    Type
                         _______ _______ _______ _____ _____    ______ ____

>  <TORSDO>
F 3

$$$$
=
 OpenBabel11042417063D

 44 51  0  0  1  0  0  0  0  0999 V2000
  191.9100  175.1820  146.3570 C   0  0  0  0  0  0  0  0  0  0  0  0
  193.8660  172.1620  140.3710 C   0  0  1  0  0  3  0  0  0  0  0  0
  190.2120  173.8470  145.1610 C   0  0  0  0  0  2  0  0  0  0  0  0
  191.7050  172.9860  141.2910 C   0  0  0  0  0  0  0  0  0  0  0  0
  191.1630  176.1900  147.1370 C   0  0  0  0  0  0  0  0  0  0  0  0
  197.1210  169.4440  145.7970 C   0  0  0  0  0  3  0  0  0  0  0  0
  196.5100  168.9130  144.7550 O   0  0  0  0  0  0  0  0  0  0  0  0
  189.7430  171.4970  139.2320 O   0  0  0  0  0  0  0  0  0  0  0  0
  188.9460  175.3360  146.6290 N   0  0  0  0  0  2  0  0  0  0  0  0
  193.0650  174.7370  146.7450 N   0  0  0  0  0  0  0  0  0  0  0  0
  194.8410  173.1410  145.7620 C   0  0  0  0  0  2  0  0  0  0  0  0
  194.5900  171.0560  141.1500 C   0  0  0  0  0  2  0  0  0  0  0  0
  191.4920  174.6360  145.0240 C   0  0  2  0  0  3  0  0  0  0  0  0
  192.9120  172.9060  143.5740 C   0  0  0  0  0  0  0  0  0  0  0  0
  195.6470  169.7780  144.2940 C   0  0  0  0  0  0  0  0  0  0  0  0
  190.6440  171.9070  138.4500 C   0  0  0  0  0  0  0  0  0  0  0  0
  189.8670  176.1950  147.2630 N   0  0  0  0  0  0  0  0  0  0  0  0
  189.0680  174.8270  145.2710 C   0  0  0  0  0  2  0  0  0  0  0  0
  194.3240  172.2030  138.9180 C   0  0  1  0  0  3  0  0  0  0  0  0
  194.8550  172.0300  144.8020 N   0  0  0  0  0  0  0  0  0  0  0  0
  195.6860  170.9000  145.0480 C   0  0  0  0  0  0  0  0  0  0  0  0
  194.6890  169.5690  143.1760 C   0  0  0  0  0  2  0  0  0  0  0  0
  194.2440  172.1960  143.4660 C   0  0  1  0  0  3  0  0  0  0  0  0
  196.6280  170.7250  146.0400 C   0  0  0  0  0  3  0  0  0  0  0  0
  192.6470  173.7310  144.7610 C   0  0  0  0  0  0  0  0  0  0  0  0
  191.9400  177.1670  147.9500 C   0  0  0  0  0  1  0  0  0  0  0  0
  192.2030  173.0200  142.4910 C   0  0  0  0  0  0  0  0  0  0  0  0
  191.9510  172.2040  138.9570 N   0  0  0  0  0  0  0  0  0  0  0  0
  192.3430  171.9940  140.3420 C   0  0  1  0  0  3  0  0  0  0  0  0
  193.0780  172.4240  138.0720 C   0  0  0  0  0  2  0  0  0  0  0  0
  190.7930  174.0770  140.8410 C   0  0  0  0  0  1  0  0  0  0  0  0
  193.5050  173.8220  145.7570 C   0  0  0  0  0  0  0  0  0  0  0  0
  194.1280  170.8850  142.6060 C   0  0  1  0  0  3  0  0  0  0  0  0
  195.3350  173.2850  138.6960 C   0  0  0  0  0  0  0  0  0  0  0  0
  195.5460  174.2930  139.6510 C   0  0  0  0  0  3  0  0  0  0  0  0
  197.0370  174.2800  137.2860 C   0  0  0  0  0  3  0  0  0  0  0  0
  196.0850  173.2830  137.5150 C   0  0  0  0  0  3  0  0  0  0  0  0
  197.2450  175.2820  138.2380 C   0  0  0  0  0  3  0  0  0  0  0  0
  196.4980  175.2890  139.4200 C   0  0  0  0  0  3  0  0  0  0  0  0
  190.3770  172.0700  137.0900 O   0  0  0  0  0  0  0  0  0  0  0  0
  188.5670  174.1660  137.3850 S   0  0  0  0  0  0  0  0  0  0  0  0
  189.3160  173.3230  134.8610 O   0  0  0  0  0  0  0  0  0  0  0  0
  189.8500  173.5570  136.4370 S   0  0  2  0  0  0  0  0  0  0  0  0
  190.9840  174.5420  136.4410 O   0  0  0  0  0  1  0  0  0  0  0  0
  1 10  2  0  0  0  0
  1  5  1  0  0  0  0
  2 12  1  1  0  0  0
  3 18  1  0  0  0  0
  4 27  2  0  0  0  0
  5 17  2  0  0  0  0
  5 26  1  0  0  0  0
  6 24  2  0  0  0  0
  7  6  1  0  0  0  0
  9 17  1  0  0  0  0
 13  3  1  1  0  0  0
 13  1  1  0  0  0  0
 14 25  1  0  0  0  0
 15  7  1  0  0  0  0
 15 21  2  0  0  0  0
 16 28  1  0  0  0  0
 16  8  2  0  0  0  0
 18  9  1  0  0  0  0
 19 34  1  1  0  0  0
 19  2  1  0  0  0  0
 20 21  1  0  0  0  0
 20 11  1  0  0  0  0
 21 24  1  0  0  0  0
 22 15  1  0  0  0  0
 23 14  1  1  0  0  0
 23 20  1  0  0  0  0
 25 13  1  0  0  0  0
 25 32  2  0  0  0  0
 27 14  2  0  0  0  0
 28 29  1  0  0  0  0
 29  2  1  0  0  0  0
 29  4  1  1  0  0  0
 30 19  1  0  0  0  0
 30 28  1  0  0  0  0
 31  4  1  0  0  0  0
 32 11  1  0  0  0  0
 32 10  1  0  0  0  0
 33 12  1  6  0  0  0
 33 22  1  0  0  0  0
 33 23  1  0  0  0  0
 34 35  1  0  0  0  0
 36 37  1  0  0  0  0
 36 38  2  0  0  0  0
 37 34  2  0  0  0  0
 38 39  1  0  0  0  0
 39 35  2  0  0  0  0
 40 16  1  0  0  0  0
 43 42  2  6  0  0  0
 43 44  1  0  0  0  0
 43 40  1  0  0  0  0
 43 41  2  0  0  0  0
M  END
>  <MODEL>
7

>  <REMARK>
 VINA RESULT:      -6.1      4.213      7.955
  Name = 
  3 active torsions:
  status: ('A' for Active; 'I' for Inactive)
    1  A    between atoms: C_9  and  C_25
    2  A    between atoms: O_18  and  S_21
    3  A    between atoms: O_18  and  C_22
                            x       y       z     vdW  Elec       q    Type
                         _______ _______ _______ _____ _____    ______ ____

>  <TORSDO>
F 3

$$$$
=
 OpenBabel11042417063D

 44 51  0  0  1  0  0  0  0  0999 V2000
  189.7400  176.0890  142.7800 C   0  0  0  0  0  0  0  0  0  0  0  0
  194.6870  172.1480  139.8170 C   0  0  1  0  0  3  0  0  0  0  0  0
  189.1950  173.7160  142.3720 C   0  0  0  0  0  2  0  0  0  0  0  0
  192.1980  172.0910  139.8630 C   0  0  0  0  0  0  0  0  0  0  0  0
  188.4530  176.8130  142.7640 C   0  0  0  0  0  0  0  0  0  0  0  0
  196.4790  174.1830  146.1470 C   0  0  0  0  0  3  0  0  0  0  0  0
  196.5250  173.0170  145.5300 O   0  0  0  0  0  0  0  0  0  0  0  0
  191.7960  169.0860  138.8080 O   0  0  0  0  0  0  0  0  0  0  0  0
  187.0390  174.8460  142.5880 N   0  0  0  0  0  2  0  0  0  0  0  0
  190.7510  176.5090  143.4770 N   0  0  0  0  0  0  0  0  0  0  0  0
  193.2070  175.7720  143.7740 C   0  0  0  0  0  2  0  0  0  0  0  0
  195.4210  172.0370  141.1600 C   0  0  0  0  0  2  0  0  0  0  0  0
  190.0630  174.8790  141.9550 C   0  0  2  0  0  3  0  0  0  0  0  0
  192.4320  173.6560  141.9070 C   0  0  0  0  0  0  0  0  0  0  0  0
  195.6410  173.0220  144.5680 C   0  0  0  0  0  0  0  0  0  0  0  0
  192.7100  169.4910  138.0380 C   0  0  0  0  0  0  0  0  0  0  0  0
  187.2910  176.2250  142.7210 N   0  0  0  0  0  0  0  0  0  0  0  0
  187.8210  173.9210  141.7810 C   0  0  0  0  0  2  0  0  0  0  0  0
  195.5950  171.7570  138.6580 C   0  0  1  0  0  3  0  0  0  0  0  0
  193.9680  174.5250  143.6200 N   0  0  0  0  0  0  0  0  0  0  0  0
  194.9970  174.2110  144.5530 C   0  0  0  0  0  0  0  0  0  0  0  0
  195.3000  171.8890  143.6680 C   0  0  0  0  0  2  0  0  0  0  0  0
  193.8700  173.7460  142.3670 C   0  0  1  0  0  3  0  0  0  0  0  0
  195.5090  174.9950  145.5660 C   0  0  0  0  0  3  0  0  0  0  0  0
  191.4760  174.6660  142.3800 C   0  0  0  0  0  0  0  0  0  0  0  0
  188.4730  178.2890  142.9610 C   0  0  0  0  0  1  0  0  0  0  0  0
  192.1760  172.9020  140.8790 C   0  0  0  0  0  0  0  0  0  0  0  0
  193.5410  170.5910  138.4280 N   0  0  0  0  0  0  0  0  0  0  0  0
  193.4480  171.2500  139.7200 C   0  0  1  0  0  3  0  0  0  0  0  0
  194.7540  170.9210  137.7040 C   0  0  0  0  0  2  0  0  0  0  0  0
  191.1870  172.2450  138.7780 C   0  0  0  0  0  1  0  0  0  0  0  0
  191.8170  175.6080  143.2370 C   0  0  0  0  0  0  0  0  0  0  0  0
  194.5550  172.3300  142.3950 C   0  0  1  0  0  3  0  0  0  0  0  0
  196.1570  172.9650  137.9750 C   0  0  0  0  0  0  0  0  0  0  0  0
  197.4350  172.9450  137.3930 C   0  0  0  0  0  3  0  0  0  0  0  0
  195.8890  175.2710  137.2780 C   0  0  0  0  0  3  0  0  0  0  0  0
  195.3880  174.1320  137.9130 C   0  0  0  0  0  3  0  0  0  0  0  0
  197.1620  175.2480  136.7000 C   0  0  0  0  0  3  0  0  0  0  0  0
  197.9350  174.0850  136.7590 C   0  0  0  0  0  3  0  0  0  0  0  0
  192.9170  168.8710  136.8040 O   0  0  0  0  0  0  0  0  0  0  0  0
  193.0990  170.4480  134.5170 S   0  0  0  0  0  0  0  0  0  0  0  0
  190.6710  170.1380  135.7990 O   0  0  0  0  0  1  0  0  0  0  0  0
  192.1060  169.3670  135.3870 S   0  0  2  0  0  0  0  0  0  0  0  0
  191.8030  168.1690  134.5310 O   0  0  0  0  0  0  0  0  0  0  0  0
  1 10  2  0  0  0  0
  2 12  1  1  0  0  0
  4 27  2  0  0  0  0
  5  1  1  0  0  0  0
  5 26  1  0  0  0  0
  7  6  1  0  0  0  0
  9 17  1  0  0  0  0
 13  3  1  1  0  0  0
 13 25  1  0  0  0  0
 13  1  1  0  0  0  0
 14 25  1  0  0  0  0
 15  7  1  0  0  0  0
 16 28  1  0  0  0  0
 16  8  2  0  0  0  0
 17  5  2  0  0  0  0
 18  3  1  0  0  0  0
 18  9  1  0  0  0  0
 19 34  1  6  0  0  0
 19  2  1  0  0  0  0
 20 11  1  0  0  0  0
 20 21  1  0  0  0  0
 21 15  2  0  0  0  0
 21 24  1  0  0  0  0
 22 15  1  0  0  0  0
 23 14  1  1  0  0  0
 23 33  1  0  0  0  0
 23 20  1  0  0  0  0
 24  6  2  0  0  0  0
 25 32  2  0  0  0  0
 27 14  2  0  0  0  0
 28 29  1  0  0  0  0
 29  2  1  0  0  0  0
 29  4  1  6  0  0  0
 30 28  1  0  0  0  0
 30 19  1  0  0  0  0
 31  4  1  0  0  0  0
 32 10  1  0  0  0  0
 32 11  1  0  0  0  0
 33 12  1  6  0  0  0
 33 22  1  0  0  0  0
 35 34  2  0  0  0  0
 36 37  2  0  0  0  0
 37 34  1  0  0  0  0
 38 39  2  0  0  0  0
 38 36  1  0  0  0  0
 39 35  1  0  0  0  0
 40 16  1  0  0  0  0
 43 41  2  6  0  0  0
 43 42  1  0  0  0  0
 43 40  1  0  0  0  0
 44 43  2  0  0  0  0
M  END
>  <MODEL>
8

>  <REMARK>
 VINA RESULT:      -5.8      5.132      8.484
  Name = 
  3 active torsions:
  status: ('A' for Active; 'I' for Inactive)
    1  A    between atoms: C_9  and  C_25
    2  A    between atoms: O_18  and  S_21
    3  A    between atoms: O_18  and  C_22
                            x       y       z     vdW  Elec       q    Type
                         _______ _______ _______ _____ _____    ______ ____

>  <TORSDO>
F 3

$$$$
=
 OpenBabel11042417063D

 44 51  0  0  1  0  0  0  0  0999 V2000
  194.4110  176.4660  135.9330 C   0  0  0  0  0  0  0  0  0  0  0  0
  192.2590  173.0970  141.6610 C   0  0  1  0  0  3  0  0  0  0  0  0
  196.0100  174.9130  136.9940 C   0  0  0  0  0  2  0  0  0  0  0  0
  194.4720  173.8360  140.7920 C   0  0  0  0  0  0  0  0  0  0  0  0
  195.2270  177.4790  135.2340 C   0  0  0  0  0  0  0  0  0  0  0  0
  188.7910  171.1000  136.0560 C   0  0  0  0  0  3  0  0  0  0  0  0
  189.3650  170.4380  137.0430 O   0  0  0  0  0  0  0  0  0  0  0  0
  196.3260  172.0370  142.6970 O   0  0  0  0  0  0  0  0  0  0  0  0
  197.3770  176.4250  135.6450 N   0  0  0  0  0  2  0  0  0  0  0  0
  193.2240  176.1420  135.5200 N   0  0  0  0  0  0  0  0  0  0  0  0
  191.3390  174.6020  136.3820 C   0  0  0  0  0  2  0  0  0  0  0  0
  191.4520  172.1180  140.7980 C   0  0  0  0  0  2  0  0  0  0  0  0
  194.7920  175.7790  137.2100 C   0  0  2  0  0  3  0  0  0  0  0  0
  193.2540  174.0400  138.5230 C   0  0  0  0  0  0  0  0  0  0  0  0
  190.2920  171.1950  137.5670 C   0  0  0  0  0  0  0  0  0  0  0  0
  195.4600  172.4430  143.5200 C   0  0  0  0  0  0  0  0  0  0  0  0
  196.5200  177.4000  135.0960 N   0  0  0  0  0  0  0  0  0  0  0  0
  197.2230  175.8110  136.9570 C   0  0  0  0  0  2  0  0  0  0  0  0
  191.8110  173.0480  143.1160 C   0  0  1  0  0  3  0  0  0  0  0  0
  191.2460  173.4180  137.2450 N   0  0  0  0  0  0  0  0  0  0  0  0
  190.3330  172.3760  136.9120 C   0  0  0  0  0  0  0  0  0  0  0  0
  191.2360  170.8210  138.6530 C   0  0  0  0  0  2  0  0  0  0  0  0
  191.8730  173.4230  138.5830 C   0  0  1  0  0  3  0  0  0  0  0  0
  189.3760  172.3570  135.9180 C   0  0  0  0  0  3  0  0  0  0  0  0
  193.5740  174.9420  137.4080 C   0  0  0  0  0  0  0  0  0  0  0  0
  194.5220  178.5770  134.5150 C   0  0  0  0  0  1  0  0  0  0  0  0
  193.9730  174.0090  139.6040 C   0  0  0  0  0  0  0  0  0  0  0  0
  194.1770  172.8770  143.0530 N   0  0  0  0  0  0  0  0  0  0  0  0
  193.7660  172.8160  141.6600 C   0  0  1  0  0  3  0  0  0  0  0  0
  193.0730  173.1030  143.9650 C   0  0  0  0  0  2  0  0  0  0  0  0
  195.4640  174.8150  141.3230 C   0  0  0  0  0  1  0  0  0  0  0  0
  192.7220  175.1800  136.4310 C   0  0  0  0  0  0  0  0  0  0  0  0
  191.8940  172.0380  139.3280 C   0  0  1  0  0  3  0  0  0  0  0  0
  190.8840  174.1780  143.4400 C   0  0  0  0  0  0  0  0  0  0  0  0
  190.7570  175.2840  142.5840 C   0  0  0  0  0  3  0  0  0  0  0  0
  189.2530  175.1630  144.9370 C   0  0  0  0  0  3  0  0  0  0  0  0
  190.1280  174.1220  144.6160 C   0  0  0  0  0  3  0  0  0  0  0  0
  189.1290  176.2640  144.0850 C   0  0  0  0  0  3  0  0  0  0  0  0
  189.8810  176.3240  142.9080 C   0  0  0  0  0  3  0  0  0  0  0  0
  195.7440  172.4700  144.8870 O   0  0  0  0  0  0  0  0  0  0  0  0
  195.3050  174.9690  146.0320 S   0  0  0  0  0  0  0  0  0  0  0  0
  197.6100  174.4920  144.5830 O   0  0  0  0  0  0  0  0  0  0  0  0
  196.4920  173.8090  145.6360 S   0  0  2  0  0  0  0  0  0  0  0  0
  197.1910  173.3630  146.8880 O   0  0  0  0  0  1  0  0  0  0  0  0
  1 13  1  0  0  0  0
  2 12  1  6  0  0  0
  2 19  1  0  0  0  0
  4 31  1  0  0  0  0
  5  1  1  0  0  0  0
  6  7  1  0  0  0  0
  7 15  1  0  0  0  0
  8 16  2  0  0  0  0
  9 18  1  0  0  0  0
 10  1  2  0  0  0  0
 10 32  1  0  0  0  0
 11 32  1  0  0  0  0
 11 20  1  0  0  0  0
 13  3  1  6  0  0  0
 13 25  1  0  0  0  0
 14 27  2  0  0  0  0
 15 22  1  0  0  0  0
 16 40  1  0  0  0  0
 17  5  2  0  0  0  0
 17  9  1  0  0  0  0
 18  3  1  0  0  0  0
 19 34  1  1  0  0  0
 19 30  1  0  0  0  0
 20 23  1  0  0  0  0
 21 20  1  0  0  0  0
 21 15  2  0  0  0  0
 23 14  1  6  0  0  0
 23 33  1  0  0  0  0
 24  6  2  0  0  0  0
 24 21  1  0  0  0  0
 25 14  1  0  0  0  0
 26  5  1  0  0  0  0
 27  4  2  0  0  0  0
 28 16  1  0  0  0  0
 28 30  1  0  0  0  0
 29  4  1  6  0  0  0
 29  2  1  0  0  0  0
 29 28  1  0  0  0  0
 32 25  2  0  0  0  0
 33 22  1  6  0  0  0
 33 12  1  0  0  0  0
 34 37  1  0  0  0  0
 35 39  1  0  0  0  0
 35 34  2  0  0  0  0
 37 36  2  0  0  0  0
 38 36  1  0  0  0  0
 39 38  2  0  0  0  0
 40 43  1  0  0  0  0
 43 42  2  6  0  0  0
 43 41  2  0  0  0  0
 43 44  1  0  0  0  0
M  END
>  <MODEL>
9

>  <REMARK>
 VINA RESULT:      -5.6      4.596      7.903
  Name = 
  3 active torsions:
  status: ('A' for Active; 'I' for Inactive)
    1  A    between atoms: C_9  and  C_25
    2  A    between atoms: O_18  and  S_21
    3  A    between atoms: O_18  and  C_22
                            x       y       z     vdW  Elec       q    Type
                         _______ _______ _______ _____ _____    ______ ____

>  <TORSDO>
F 3

$$$$
