=
 OpenBabel11042416533D

 35 39  0  0  1  0  0  0  0  0999 V2000
  195.1900  171.5110  145.4560 C   0  0  0  0  0  0  0  0  0  0  0  0
  193.9850  172.1950  145.6510 C   0  0  0  0  0  3  0  0  0  0  0  0
  196.2120  172.1240  144.7220 C   0  0  0  0  0  3  0  0  0  0  0  0
  194.8280  174.0980  144.3980 C   0  0  0  0  0  0  0  0  0  0  0  0
  193.7880  173.4860  145.1370 C   0  0  0  0  0  0  0  0  0  0  0  0
  196.0300  173.4020  144.1930 C   0  0  0  0  0  3  0  0  0  0  0  0
  196.5480  176.5730  141.9070 N   0  0  0  0  0  0  0  0  0  0  0  0
  195.6920  176.4240  144.1660 C   0  0  0  0  0  3  0  0  0  0  0  0
  196.5820  176.9210  143.3000 C   0  0  0  0  0  3  0  0  0  0  0  0
  194.6280  175.4380  143.7450 C   0  0  1  0  0  3  0  0  0  0  0  0
  195.6030  175.8410  141.3980 C   0  0  0  0  0  0  0  0  0  0  0  0
  194.5290  175.3070  142.2490 C   0  0  0  0  0  0  0  0  0  0  0  0
  195.6150  175.5000  140.0120 N   0  0  0  0  0  0  0  0  0  0  0  0
  193.3690  174.5270  140.2510 C   0  0  0  0  0  2  0  0  0  0  0  0
  193.5420  174.6610  141.7030 N   0  0  0  0  0  0  0  0  0  0  0  0
  194.6190  174.8650  139.4710 C   0  0  0  0  0  3  0  0  0  0  0  0
  191.3990  173.7710  144.4870 C   0  0  0  0  0  2  0  0  0  0  0  0
  190.1210  175.9130  144.7240 C   0  0  2  0  0  3  0  0  0  0  0  0
  191.9750  176.4170  146.1060 C   0  0  0  0  0  2  0  0  0  0  0  0
  192.5270  174.1410  145.3560 N   0  0  0  0  0  0  0  0  0  0  0  0
  192.3720  175.0070  146.5270 C   0  0  0  0  0  2  0  0  0  0  0  0
  190.0660  174.4020  144.8810 C   0  0  0  0  0  2  0  0  0  0  0  0
  190.5270  176.5190  145.9850 N   0  0  0  0  0  2  0  0  0  0  0  0
  188.7420  176.4180  144.3450 C   0  0  0  0  0  2  0  0  0  0  0  0
  187.8930  176.4040  145.4860 O   0  0  0  0  0  0  0  0  0  0  0  0
  184.5790  177.7160  146.5450 C   0  0  0  0  0  3  0  0  0  0  0  0
  186.7560  177.2090  145.5890 C   0  0  0  0  0  0  0  0  0  0  0  0
  185.5390  179.1850  144.8770 C   0  0  0  0  0  3  0  0  0  0  0  0
  184.4980  178.8630  145.7510 C   0  0  0  0  0  3  0  0  0  0  0  0
  186.6650  178.3590  144.7970 C   0  0  0  0  0  3  0  0  0  0  0  0
  185.7050  176.8910  146.4650 C   0  0  0  0  0  3  0  0  0  0  0  0
  196.7570  168.5510  147.3810 C   0  0  0  0  0  1  0  0  0  0  0  0
  196.5270  169.8680  146.8120 N   0  0  0  0  0  2  0  0  0  0  0  0
  195.3780  170.1600  146.0120 C   0  0  0  0  0  0  0  0  0  0  0  0
  194.5250  169.2580  145.7830 O   0  0  0  0  0  0  0  0  0  0  0  0
  1  2  1  0  0  0  0
  1 34  1  0  0  0  0
  3  1  2  0  0  0  0
  4  5  1  0  0  0  0
  5 20  1  0  0  0  0
  5  2  2  0  0  0  0
  6  4  2  0  0  0  0
  6  3  1  0  0  0  0
  7  9  1  0  0  0  0
  9  8  2  0  0  0  0
 10  8  1  0  0  0  0
 10  4  1  1  0  0  0
 11  7  2  0  0  0  0
 11 12  1  0  0  0  0
 12 10  1  0  0  0  0
 13 11  1  0  0  0  0
 14 15  1  0  0  0  0
 15 12  2  0  0  0  0
 16 13  2  0  0  0  0
 16 14  1  0  0  0  0
 17 22  1  0  0  0  0
 17 20  1  0  0  0  0
 18 24  1  1  0  0  0
 18 22  1  0  0  0  0
 18 23  1  0  0  0  0
 19 21  1  0  0  0  0
 20 21  1  0  0  0  0
 23 19  1  0  0  0  0
 24 25  1  0  0  0  0
 25 27  1  0  0  0  0
 27 31  2  0  0  0  0
 28 29  1  0  0  0  0
 29 26  2  0  0  0  0
 30 28  2  0  0  0  0
 30 27  1  0  0  0  0
 31 26  1  0  0  0  0
 33 32  1  0  0  0  0
 34 33  1  0  0  0  0
 35 34  2  0  0  0  0
M  END
>  <MODEL>
1

>  <REMARK>
 VINA RESULT:      -7.9      0.000      0.000
  Name = 
  6 active torsions:
  status: ('A' for Active; 'I' for Inactive)
    1  A    between atoms: C_3  and  O_24
    2  A    between atoms: C_6  and  C_21
    3  A    between atoms: C_10  and  C_18
    4  A    between atoms: C_12  and  C_23
    5  A    between atoms: N_14  and  C_26
    6  A    between atoms: C_18  and  O_24
                            x       y       z     vdW  Elec       q    Type
                         _______ _______ _______ _____ _____    ______ ____

>  <TORSDO>
F 6

$$$$
=
 OpenBabel11042416533D

 35 39  0  0  1  0  0  0  0  0999 V2000
  191.2100  173.4980  140.9490 C   0  0  0  0  0  0  0  0  0  0  0  0
  190.6740  174.1910  142.0400 C   0  0  0  0  0  3  0  0  0  0  0  0
  192.4620  172.8880  141.0760 C   0  0  0  0  0  3  0  0  0  0  0  0
  192.6260  173.6500  143.3800 C   0  0  0  0  0  0  0  0  0  0  0  0
  191.3610  174.2730  143.2600 C   0  0  0  0  0  0  0  0  0  0  0  0
  193.1660  172.9690  142.2780 C   0  0  0  0  0  3  0  0  0  0  0  0
  196.0260  172.5370  144.9590 N   0  0  0  0  0  0  0  0  0  0  0  0
  193.6350  172.4640  145.3260 C   0  0  0  0  0  3  0  0  0  0  0  0
  194.8390  171.8930  145.4470 C   0  0  0  0  0  3  0  0  0  0  0  0
  193.4440  173.7930  144.6350 C   0  0  1  0  0  3  0  0  0  0  0  0
  196.0110  173.7390  144.4650 C   0  0  0  0  0  0  0  0  0  0  0  0
  194.7500  174.4880  144.3590 C   0  0  0  0  0  0  0  0  0  0  0  0
  197.2090  174.3370  143.9720 N   0  0  0  0  0  0  0  0  0  0  0  0
  196.0120  176.4690  143.7030 C   0  0  0  0  0  2  0  0  0  0  0  0
  194.7720  175.7230  143.9550 N   0  0  0  0  0  0  0  0  0  0  0  0
  197.2260  175.5760  143.5810 C   0  0  0  0  0  3  0  0  0  0  0  0
  189.8190  174.3000  145.2170 C   0  0  0  0  0  2  0  0  0  0  0  0
  188.5590  176.3230  145.9910 C   0  0  2  0  0  3  0  0  0  0  0  0
  190.1360  177.3710  144.5700 C   0  0  0  0  0  2  0  0  0  0  0  0
  190.7720  175.0060  144.3470 N   0  0  0  0  0  0  0  0  0  0  0  0
  191.2670  176.3530  144.6450 C   0  0  0  0  0  2  0  0  0  0  0  0
  189.3550  175.1040  146.4290 C   0  0  0  0  0  2  0  0  0  0  0  0
  189.4540  177.4650  145.8540 N   0  0  0  0  0  2  0  0  0  0  0  0
  187.5100  176.6300  147.0420 C   0  0  0  0  0  2  0  0  0  0  0  0
  186.2180  176.6290  146.4480 O   0  0  0  0  0  0  0  0  0  0  0  0
  185.5340  179.6300  144.3620 C   0  0  0  0  0  3  0  0  0  0  0  0
  185.8860  177.4430  145.3610 C   0  0  0  0  0  0  0  0  0  0  0  0
  185.2240  177.6300  143.0350 C   0  0  0  0  0  3  0  0  0  0  0  0
  185.2110  179.0230  143.1460 C   0  0  0  0  0  3  0  0  0  0  0  0
  185.5610  176.8430  144.1400 C   0  0  0  0  0  3  0  0  0  0  0  0
  185.8710  178.8430  145.4680 C   0  0  0  0  0  3  0  0  0  0  0  0
  188.3260  173.7760  138.3930 C   0  0  0  0  0  1  0  0  0  0  0  0
  189.1000  173.8360  139.6220 N   0  0  0  0  0  2  0  0  0  0  0  0
  190.4670  173.4190  139.6790 C   0  0  0  0  0  0  0  0  0  0  0  0
  191.0360  172.9820  138.6400 O   0  0  0  0  0  0  0  0  0  0  0  0
  1  3  2  0  0  0  0
  1  2  1  0  0  0  0
  2  5  2  0  0  0  0
  3  6  1  0  0  0  0
  5  4  1  0  0  0  0
  5 20  1  0  0  0  0
  6  4  2  0  0  0  0
  7  9  1  0  0  0  0
  8  9  2  0  0  0  0
 10  4  1  6  0  0  0
 10  8  1  0  0  0  0
 11  7  2  0  0  0  0
 12 11  1  0  0  0  0
 12 10  1  0  0  0  0
 13 11  1  0  0  0  0
 14 15  1  0  0  0  0
 15 12  2  0  0  0  0
 16 14  1  0  0  0  0
 16 13  2  0  0  0  0
 17 22  1  0  0  0  0
 18 22  1  0  0  0  0
 18 24  1  1  0  0  0
 19 21  1  0  0  0  0
 19 23  1  0  0  0  0
 20 21  1  0  0  0  0
 20 17  1  0  0  0  0
 23 18  1  0  0  0  0
 25 24  1  0  0  0  0
 26 31  1  0  0  0  0
 27 31  2  0  0  0  0
 27 25  1  0  0  0  0
 28 29  1  0  0  0  0
 28 30  2  0  0  0  0
 29 26  2  0  0  0  0
 30 27  1  0  0  0  0
 32 33  1  0  0  0  0
 33 34  1  0  0  0  0
 34  1  1  0  0  0  0
 35 34  2  0  0  0  0
M  END
>  <MODEL>
2

>  <REMARK>
 VINA RESULT:      -7.5      2.570      4.876
  Name = 
  6 active torsions:
  status: ('A' for Active; 'I' for Inactive)
    1  A    between atoms: C_3  and  O_24
    2  A    between atoms: C_6  and  C_21
    3  A    between atoms: C_10  and  C_18
    4  A    between atoms: C_12  and  C_23
    5  A    between atoms: N_14  and  C_26
    6  A    between atoms: C_18  and  O_24
                            x       y       z     vdW  Elec       q    Type
                         _______ _______ _______ _____ _____    ______ ____

>  <TORSDO>
F 6

$$$$
=
 OpenBabel11042416533D

 35 39  0  0  1  0  0  0  0  0999 V2000
  193.6620  175.2020  141.5340 C   0  0  0  0  0  0  0  0  0  0  0  0
  192.6820  175.2490  142.5320 C   0  0  0  0  0  3  0  0  0  0  0  0
  193.3820  174.5440  140.3320 C   0  0  0  0  0  3  0  0  0  0  0  0
  191.1480  173.9990  141.1230 C   0  0  0  0  0  0  0  0  0  0  0  0
  191.4220  174.6600  142.3440 C   0  0  0  0  0  0  0  0  0  0  0  0
  192.1400  173.9420  140.1310 C   0  0  0  0  0  3  0  0  0  0  0  0
  189.0010  172.3210  138.3180 N   0  0  0  0  0  0  0  0  0  0  0  0
  188.9170  174.0460  140.0140 C   0  0  0  0  0  3  0  0  0  0  0  0
  188.5530  173.5940  138.8070 C   0  0  0  0  0  3  0  0  0  0  0  0
  189.8490  173.2690  140.9130 C   0  0  1  0  0  3  0  0  0  0  0  0
  189.6970  171.5020  139.0490 C   0  0  0  0  0  0  0  0  0  0  0  0
  190.0830  171.8670  140.4200 C   0  0  0  0  0  0  0  0  0  0  0  0
  190.1400  170.2530  138.5200 N   0  0  0  0  0  0  0  0  0  0  0  0
  190.9210  169.6020  140.7590 C   0  0  0  0  0  2  0  0  0  0  0  0
  190.6930  170.9940  141.1660 N   0  0  0  0  0  0  0  0  0  0  0  0
  190.7370  169.3810  139.2750 C   0  0  0  0  0  3  0  0  0  0  0  0
  189.4530  175.8040  143.3550 C   0  0  0  0  0  2  0  0  0  0  0  0
  188.9860  175.8920  145.8150 C   0  0  2  0  0  3  0  0  0  0  0  0
  190.6040  174.1650  145.7930 C   0  0  0  0  0  2  0  0  0  0  0  0
  190.4540  174.7260  143.4040 N   0  0  0  0  0  0  0  0  0  0  0  0
  190.3950  173.6350  144.3790 C   0  0  0  0  0  2  0  0  0  0  0  0
  188.3770  175.7140  144.4340 C   0  0  0  0  0  2  0  0  0  0  0  0
  189.3340  174.5890  146.3660 N   0  0  0  0  0  2  0  0  0  0  0  0
  187.9700  176.5640  146.7180 C   0  0  0  0  0  2  0  0  0  0  0  0
  187.7060  177.8810  146.2500 O   0  0  0  0  0  0  0  0  0  0  0  0
  185.0300  179.1950  144.0280 C   0  0  0  0  0  3  0  0  0  0  0  0
  186.4540  178.2740  145.7690 C   0  0  0  0  0  0  0  0  0  0  0  0
  184.0680  178.5100  146.1410 C   0  0  0  0  0  3  0  0  0  0  0  0
  183.9170  179.0440  144.8590 C   0  0  0  0  0  3  0  0  0  0  0  0
  185.3350  178.1270  146.5940 C   0  0  0  0  0  3  0  0  0  0  0  0
  186.2960  178.8110  144.4800 C   0  0  0  0  0  3  0  0  0  0  0  0
  196.7370  176.6840  143.3440 C   0  0  0  0  0  1  0  0  0  0  0  0
  195.4490  176.0640  143.0800 N   0  0  0  0  0  2  0  0  0  0  0  0
  194.9760  175.8340  141.7510 C   0  0  0  0  0  0  0  0  0  0  0  0
  195.6840  176.1720  140.7620 O   0  0  0  0  0  0  0  0  0  0  0  0
  1 34  1  0  0  0  0
  1  2  1  0  0  0  0
  3  1  2  0  0  0  0
  4  5  1  0  0  0  0
  5  2  2  0  0  0  0
  5 20  1  0  0  0  0
  6  3  1  0  0  0  0
  6  4  2  0  0  0  0
  7  9  1  0  0  0  0
  7 11  2  0  0  0  0
  8 10  1  0  0  0  0
  9  8  2  0  0  0  0
 10  4  1  6  0  0  0
 11 12  1  0  0  0  0
 12 10  1  0  0  0  0
 12 15  2  0  0  0  0
 13 11  1  0  0  0  0
 13 16  2  0  0  0  0
 14 15  1  0  0  0  0
 16 14  1  0  0  0  0
 17 20  1  0  0  0  0
 17 22  1  0  0  0  0
 18 23  1  0  0  0  0
 18 24  1  1  0  0  0
 19 23  1  0  0  0  0
 20 21  1  0  0  0  0
 21 19  1  0  0  0  0
 22 18  1  0  0  0  0
 25 24  1  0  0  0  0
 26 31  2  0  0  0  0
 26 29  1  0  0  0  0
 27 25  1  0  0  0  0
 27 30  2  0  0  0  0
 28 30  1  0  0  0  0
 29 28  2  0  0  0  0
 31 27  1  0  0  0  0
 33 32  1  0  0  0  0
 34 33  1  0  0  0  0
 35 34  2  0  0  0  0
M  END
>  <MODEL>
3

>  <REMARK>
 VINA RESULT:      -7.2      3.405      5.455
  Name = 
  6 active torsions:
  status: ('A' for Active; 'I' for Inactive)
    1  A    between atoms: C_3  and  O_24
    2  A    between atoms: C_6  and  C_21
    3  A    between atoms: C_10  and  C_18
    4  A    between atoms: C_12  and  C_23
    5  A    between atoms: N_14  and  C_26
    6  A    between atoms: C_18  and  O_24
                            x       y       z     vdW  Elec       q    Type
                         _______ _______ _______ _____ _____    ______ ____

>  <TORSDO>
F 6

$$$$
=
 OpenBabel11042416533D

 35 39  0  0  1  0  0  0  0  0999 V2000
  192.4430  170.6450  142.5210 C   0  0  0  0  0  0  0  0  0  0  0  0
  191.5100  171.5970  142.9490 C   0  0  0  0  0  3  0  0  0  0  0  0
  193.8070  170.8990  142.6980 C   0  0  0  0  0  3  0  0  0  0  0  0
  193.3000  173.0380  143.7380 C   0  0  0  0  0  0  0  0  0  0  0  0
  191.9180  172.7920  143.5610 C   0  0  0  0  0  0  0  0  0  0  0  0
  194.2320  172.0860  143.2940 C   0  0  0  0  0  3  0  0  0  0  0  0
  196.5970  174.9600  144.5890 N   0  0  0  0  0  0  0  0  0  0  0  0
  194.5490  174.1450  145.5880 C   0  0  0  0  0  3  0  0  0  0  0  0
  195.8540  174.4190  145.6930 C   0  0  0  0  0  3  0  0  0  0  0  0
  193.7880  174.3460  144.2990 C   0  0  1  0  0  3  0  0  0  0  0  0
  196.0290  175.3010  143.4710 C   0  0  0  0  0  0  0  0  0  0  0  0
  194.5830  175.1150  143.2790 C   0  0  0  0  0  0  0  0  0  0  0  0
  196.8050  175.8170  142.3900 N   0  0  0  0  0  0  0  0  0  0  0  0
  194.7310  176.3400  141.1750 C   0  0  0  0  0  2  0  0  0  0  0  0
  194.0210  175.5530  142.1920 N   0  0  0  0  0  0  0  0  0  0  0  0
  196.2350  176.2640  141.3110 C   0  0  0  0  0  3  0  0  0  0  0  0
  190.5090  174.7710  143.0040 C   0  0  0  0  0  2  0  0  0  0  0  0
  189.7460  176.4720  144.6770 C   0  0  2  0  0  3  0  0  0  0  0  0
  190.4320  174.7580  146.1580 C   0  0  0  0  0  2  0  0  0  0  0  0
  190.9210  173.7420  143.9720 N   0  0  0  0  0  0  0  0  0  0  0  0
  190.2400  173.5460  145.2540 C   0  0  0  0  0  2  0  0  0  0  0  0
  189.3460  175.6440  143.4670 C   0  0  0  0  0  2  0  0  0  0  0  0
  189.4000  175.7520  145.8960 N   0  0  0  0  0  2  0  0  0  0  0  0
  188.9950  177.7890  144.6420 C   0  0  0  0  0  2  0  0  0  0  0  0
  187.7330  177.6080  144.0110 O   0  0  0  0  0  0  0  0  0  0  0  0
  184.5770  179.3660  144.8900 C   0  0  0  0  0  3  0  0  0  0  0  0
  186.5250  177.9360  144.6310 C   0  0  0  0  0  0  0  0  0  0  0  0
  184.8430  177.4180  146.3020 C   0  0  0  0  0  3  0  0  0  0  0  0
  184.1080  178.5420  145.9160 C   0  0  0  0  0  3  0  0  0  0  0  0
  186.0490  177.1170  145.6610 C   0  0  0  0  0  3  0  0  0  0  0  0
  185.7820  179.0650  144.2480 C   0  0  0  0  0  3  0  0  0  0  0  0
  190.7040  168.2320  140.0550 C   0  0  0  0  0  1  0  0  0  0  0  0
  191.1740  169.4390  140.7150 N   0  0  0  0  0  2  0  0  0  0  0  0
  191.9920  169.3940  141.8870 C   0  0  0  0  0  0  0  0  0  0  0  0
  192.3280  168.2800  142.3780 O   0  0  0  0  0  0  0  0  0  0  0  0
  1  3  2  0  0  0  0
  1  2  1  0  0  0  0
  2  5  2  0  0  0  0
  3  6  1  0  0  0  0
  5  4  1  0  0  0  0
  5 20  1  0  0  0  0
  6  4  2  0  0  0  0
  7  9  1  0  0  0  0
  8  9  2  0  0  0  0
 10  4  1  6  0  0  0
 10  8  1  0  0  0  0
 11  7  2  0  0  0  0
 12 11  1  0  0  0  0
 12 10  1  0  0  0  0
 13 11  1  0  0  0  0
 14 16  1  0  0  0  0
 14 15  1  0  0  0  0
 15 12  2  0  0  0  0
 16 13  2  0  0  0  0
 17 22  1  0  0  0  0
 17 20  1  0  0  0  0
 18 24  1  1  0  0  0
 18 23  1  0  0  0  0
 20 21  1  0  0  0  0
 21 19  1  0  0  0  0
 22 18  1  0  0  0  0
 23 19  1  0  0  0  0
 25 27  1  0  0  0  0
 25 24  1  0  0  0  0
 26 29  1  0  0  0  0
 27 30  2  0  0  0  0
 29 28  2  0  0  0  0
 30 28  1  0  0  0  0
 31 27  1  0  0  0  0
 31 26  2  0  0  0  0
 32 33  1  0  0  0  0
 33 34  1  0  0  0  0
 34 35  2  0  0  0  0
 34  1  1  0  0  0  0
M  END
>  <MODEL>
4

>  <REMARK>
 VINA RESULT:      -7.1      2.451      3.302
  Name = 
  6 active torsions:
  status: ('A' for Active; 'I' for Inactive)
    1  A    between atoms: C_3  and  O_24
    2  A    between atoms: C_6  and  C_21
    3  A    between atoms: C_10  and  C_18
    4  A    between atoms: C_12  and  C_23
    5  A    between atoms: N_14  and  C_26
    6  A    between atoms: C_18  and  O_24
                            x       y       z     vdW  Elec       q    Type
                         _______ _______ _______ _____ _____    ______ ____

>  <TORSDO>
F 6

$$$$
=
 OpenBabel11042416533D

 35 39  0  0  1  0  0  0  0  0999 V2000
  187.0420  176.9320  143.0810 C   0  0  0  0  0  0  0  0  0  0  0  0
  188.1710  177.1870  143.8690 C   0  0  0  0  0  3  0  0  0  0  0  0
  186.9530  175.7210  142.3870 C   0  0  0  0  0  3  0  0  0  0  0  0
  189.1040  175.0220  143.2830 C   0  0  0  0  0  0  0  0  0  0  0  0
  189.2050  176.2460  143.9860 C   0  0  0  0  0  0  0  0  0  0  0  0
  187.9770  174.7780  142.4820 C   0  0  0  0  0  3  0  0  0  0  0  0
  189.8270  171.2150  142.7600 N   0  0  0  0  0  0  0  0  0  0  0  0
  190.0430  172.9940  144.3860 C   0  0  0  0  0  3  0  0  0  0  0  0
  189.8380  171.7010  144.1110 C   0  0  0  0  0  3  0  0  0  0  0  0
  190.2310  174.0250  143.2990 C   0  0  1  0  0  3  0  0  0  0  0  0
  190.1080  171.9770  141.7460 C   0  0  0  0  0  0  0  0  0  0  0  0
  190.4260  173.3990  141.9440 C   0  0  0  0  0  0  0  0  0  0  0  0
  190.0670  171.4620  140.4160 N   0  0  0  0  0  0  0  0  0  0  0  0
  191.0420  173.5630  139.5900 C   0  0  0  0  0  2  0  0  0  0  0  0
  190.8000  174.1180  140.9280 N   0  0  0  0  0  0  0  0  0  0  0  0
  190.4550  172.1830  139.4070 C   0  0  0  0  0  3  0  0  0  0  0  0
  191.6410  176.7480  144.1250 C   0  0  0  0  0  2  0  0  0  0  0  0
  193.0900  176.1670  146.0860 C   0  0  2  0  0  3  0  0  0  0  0  0
  190.9620  175.8920  147.0850 C   0  0  0  0  0  2  0  0  0  0  0  0
  190.3470  176.5610  144.7990 N   0  0  0  0  0  0  0  0  0  0  0  0
  190.1470  176.8490  146.2220 C   0  0  0  0  0  2  0  0  0  0  0  0
  192.7670  177.2220  145.0410 C   0  0  0  0  0  2  0  0  0  0  0  0
  192.3060  176.4160  147.2880 N   0  0  0  0  0  2  0  0  0  0  0  0
  194.5660  176.2440  146.4230 C   0  0  0  0  0  2  0  0  0  0  0  0
  195.3150  175.4760  145.4890 O   0  0  0  0  0  0  0  0  0  0  0  0
  194.4760  171.8530  145.4410 C   0  0  0  0  0  3  0  0  0  0  0  0
  195.4290  174.0860  145.5750 C   0  0  0  0  0  0  0  0  0  0  0  0
  196.8160  172.1390  145.9910 C   0  0  0  0  0  3  0  0  0  0  0  0
  195.7210  171.3030  145.7630 C   0  0  0  0  0  3  0  0  0  0  0  0
  196.6700  173.5260  145.8980 C   0  0  0  0  0  3  0  0  0  0  0  0
  194.3300  173.2400  145.3460 C   0  0  0  0  0  3  0  0  0  0  0  0
  183.9330  179.0410  143.9830 C   0  0  0  0  0  1  0  0  0  0  0  0
  185.0140  178.0710  144.0390 N   0  0  0  0  0  2  0  0  0  0  0  0
  185.9640  177.9320  142.9790 C   0  0  0  0  0  0  0  0  0  0  0  0
  185.8790  178.6660  141.9560 O   0  0  0  0  0  0  0  0  0  0  0  0
  1  2  1  0  0  0  0
  2  5  2  0  0  0  0
  3  6  1  0  0  0  0
  3  1  2  0  0  0  0
  4  5  1  0  0  0  0
  5 20  1  0  0  0  0
  6  4  2  0  0  0  0
  7  9  1  0  0  0  0
  9  8  2  0  0  0  0
 10  4  1  6  0  0  0
 10  8  1  0  0  0  0
 11 12  1  0  0  0  0
 11  7  2  0  0  0  0
 12 10  1  0  0  0  0
 13 11  1  0  0  0  0
 14 15  1  0  0  0  0
 15 12  2  0  0  0  0
 16 14  1  0  0  0  0
 16 13  2  0  0  0  0
 17 20  1  0  0  0  0
 17 22  1  0  0  0  0
 18 24  1  1  0  0  0
 18 23  1  0  0  0  0
 19 23  1  0  0  0  0
 20 21  1  0  0  0  0
 21 19  1  0  0  0  0
 22 18  1  0  0  0  0
 25 27  1  0  0  0  0
 25 24  1  0  0  0  0
 26 29  1  0  0  0  0
 27 30  2  0  0  0  0
 29 28  2  0  0  0  0
 30 28  1  0  0  0  0
 31 26  2  0  0  0  0
 31 27  1  0  0  0  0
 32 33  1  0  0  0  0
 34  1  1  0  0  0  0
 34 33  1  0  0  0  0
 35 34  2  0  0  0  0
M  END
>  <MODEL>
5

>  <REMARK>
 VINA RESULT:      -7.1      3.190      8.530
  Name = 
  6 active torsions:
  status: ('A' for Active; 'I' for Inactive)
    1  A    between atoms: C_3  and  O_24
    2  A    between atoms: C_6  and  C_21
    3  A    between atoms: C_10  and  C_18
    4  A    between atoms: C_12  and  C_23
    5  A    between atoms: N_14  and  C_26
    6  A    between atoms: C_18  and  O_24
                            x       y       z     vdW  Elec       q    Type
                         _______ _______ _______ _____ _____    ______ ____

>  <TORSDO>
F 6

$$$$
=
 OpenBabel11042416533D

 35 39  0  0  1  0  0  0  0  0999 V2000
  189.0820  173.4620  141.0870 C   0  0  0  0  0  0  0  0  0  0  0  0
  188.1620  174.5130  141.1660 C   0  0  0  0  0  3  0  0  0  0  0  0
  190.0090  173.2870  142.1200 C   0  0  0  0  0  3  0  0  0  0  0  0
  189.0840  175.1970  143.3070 C   0  0  0  0  0  0  0  0  0  0  0  0
  188.1440  175.3850  142.2650 C   0  0  0  0  0  0  0  0  0  0  0  0
  190.0140  174.1510  143.2160 C   0  0  0  0  0  3  0  0  0  0  0  0
  190.3600  175.4610  146.9930 N   0  0  0  0  0  0  0  0  0  0  0  0
  188.3640  175.6830  145.6430 C   0  0  0  0  0  3  0  0  0  0  0  0
  188.9410  175.3450  146.8010 C   0  0  0  0  0  3  0  0  0  0  0  0
  189.1660  176.1640  144.4570 C   0  0  1  0  0  3  0  0  0  0  0  0
  191.1410  175.9860  146.0970 C   0  0  0  0  0  0  0  0  0  0  0  0
  190.5960  176.4630  144.8170 C   0  0  0  0  0  0  0  0  0  0  0  0
  192.5490  176.0650  146.3170 N   0  0  0  0  0  0  0  0  0  0  0  0
  192.7720  177.4250  144.2800 C   0  0  0  0  0  2  0  0  0  0  0  0
  191.3790  177.0730  143.9780 N   0  0  0  0  0  0  0  0  0  0  0  0
  193.3220  176.6870  145.4790 C   0  0  0  0  0  3  0  0  0  0  0  0
  186.0830  176.3680  143.2630 C   0  0  0  0  0  2  0  0  0  0  0  0
  184.4640  177.8150  142.0120 C   0  0  2  0  0  3  0  0  0  0  0  0
  186.2940  177.8980  140.5120 C   0  0  0  0  0  2  0  0  0  0  0  0
  187.1850  176.4550  142.2930 N   0  0  0  0  0  0  0  0  0  0  0  0
  187.4380  177.6540  141.4890 C   0  0  0  0  0  2  0  0  0  0  0  0
  185.1980  177.6100  143.3270 C   0  0  0  0  0  2  0  0  0  0  0  0
  185.2480  178.6880  141.1480 N   0  0  0  0  0  2  0  0  0  0  0  0
  183.1210  178.4590  142.2930 C   0  0  0  0  0  2  0  0  0  0  0  0
  182.2280  178.2010  141.2170 O   0  0  0  0  0  0  0  0  0  0  0  0
  178.5770  178.3670  141.9030 C   0  0  0  0  0  3  0  0  0  0  0  0
  180.8960  178.6250  141.2240 C   0  0  0  0  0  0  0  0  0  0  0  0
  179.2280  180.2350  140.5070 C   0  0  0  0  0  3  0  0  0  0  0  0
  178.2420  179.5270  141.1980 C   0  0  0  0  0  3  0  0  0  0  0  0
  180.5510  179.7840  140.5200 C   0  0  0  0  0  3  0  0  0  0  0  0
  179.9000  177.9170  141.9170 C   0  0  0  0  0  3  0  0  0  0  0  0
  190.1210  170.6250  138.6790 C   0  0  0  0  0  1  0  0  0  0  0  0
  190.0830  171.5430  139.8050 N   0  0  0  0  0  2  0  0  0  0  0  0
  189.0790  172.5540  139.9260 C   0  0  0  0  0  0  0  0  0  0  0  0
  188.1890  172.6680  139.0380 O   0  0  0  0  0  0  0  0  0  0  0  0
  1  2  2  0  0  0  0
  1  3  1  0  0  0  0
  2  5  1  0  0  0  0
  3  6  2  0  0  0  0
  5 20  1  0  0  0  0
  5  4  2  0  0  0  0
  6  4  1  0  0  0  0
  8  9  2  0  0  0  0
  9  7  1  0  0  0  0
 10  4  1  6  0  0  0
 10 12  1  0  0  0  0
 10  8  1  0  0  0  0
 11 13  1  0  0  0  0
 11  7  2  0  0  0  0
 12 11  1  0  0  0  0
 14 16  1  0  0  0  0
 15 14  1  0  0  0  0
 15 12  2  0  0  0  0
 16 13  2  0  0  0  0
 17 22  1  0  0  0  0
 18 24  1  1  0  0  0
 18 22  1  0  0  0  0
 19 23  1  0  0  0  0
 19 21  1  0  0  0  0
 20 17  1  0  0  0  0
 21 20  1  0  0  0  0
 23 18  1  0  0  0  0
 25 27  1  0  0  0  0
 25 24  1  0  0  0  0
 26 31  1  0  0  0  0
 27 31  2  0  0  0  0
 28 30  2  0  0  0  0
 28 29  1  0  0  0  0
 29 26  2  0  0  0  0
 30 27  1  0  0  0  0
 32 33  1  0  0  0  0
 33 34  1  0  0  0  0
 34  1  1  0  0  0  0
 35 34  2  0  0  0  0
M  END
>  <MODEL>
6

>  <REMARK>
 VINA RESULT:      -7.1      4.489      7.330
  Name = 
  6 active torsions:
  status: ('A' for Active; 'I' for Inactive)
    1  A    between atoms: C_3  and  O_24
    2  A    between atoms: C_6  and  C_21
    3  A    between atoms: C_10  and  C_18
    4  A    between atoms: C_12  and  C_23
    5  A    between atoms: N_14  and  C_26
    6  A    between atoms: C_18  and  O_24
                            x       y       z     vdW  Elec       q    Type
                         _______ _______ _______ _____ _____    ______ ____

>  <TORSDO>
F 6

$$$$
=
 OpenBabel11042416533D

 35 39  0  0  1  0  0  0  0  0999 V2000
  192.0200  172.9860  139.9830 C   0  0  0  0  0  0  0  0  0  0  0  0
  191.1590  173.6150  140.8890 C   0  0  0  0  0  3  0  0  0  0  0  0
  193.3140  172.6480  140.3930 C   0  0  0  0  0  3  0  0  0  0  0  0
  192.8750  173.5510  142.6080 C   0  0  0  0  0  0  0  0  0  0  0  0
  191.5640  173.9000  142.2020 C   0  0  0  0  0  0  0  0  0  0  0  0
  193.7390  172.9340  141.6910 C   0  0  0  0  0  3  0  0  0  0  0  0
  195.8310  172.8390  145.0650 N   0  0  0  0  0  0  0  0  0  0  0  0
  193.4200  172.7310  144.8970 C   0  0  0  0  0  3  0  0  0  0  0  0
  194.5660  172.2340  145.3750 C   0  0  0  0  0  3  0  0  0  0  0  0
  193.3870  173.9250  143.9730 C   0  0  1  0  0  3  0  0  0  0  0  0
  195.9250  173.9450  144.3900 C   0  0  0  0  0  0  0  0  0  0  0  0
  194.7190  174.6180  143.8850 C   0  0  0  0  0  0  0  0  0  0  0  0
  197.2030  174.5040  144.0850 N   0  0  0  0  0  0  0  0  0  0  0  0
  196.0930  176.5170  143.2110 C   0  0  0  0  0  2  0  0  0  0  0  0
  194.8300  175.7730  143.2990 N   0  0  0  0  0  0  0  0  0  0  0  0
  197.3050  175.6650  143.5110 C   0  0  0  0  0  3  0  0  0  0  0  0
  190.5600  176.0250  143.0300 C   0  0  0  0  0  2  0  0  0  0  0  0
  189.7370  176.3760  145.3700 C   0  0  2  0  0  3  0  0  0  0  0  0
  189.9060  174.0150  145.3720 C   0  0  0  0  0  2  0  0  0  0  0  0
  190.6450  174.5570  143.0900 N   0  0  0  0  0  0  0  0  0  0  0  0
  189.7210  173.7430  143.8840 C   0  0  0  0  0  2  0  0  0  0  0  0
  189.4590  176.6290  143.8980 C   0  0  0  0  0  2  0  0  0  0  0  0
  189.0810  175.1430  145.7850 N   0  0  0  0  0  2  0  0  0  0  0  0
  189.1890  177.5340  146.1810 C   0  0  0  0  0  2  0  0  0  0  0  0
  187.9410  177.1700  146.7590 O   0  0  0  0  0  0  0  0  0  0  0  0
  185.3500  178.9160  144.7420 C   0  0  0  0  0  3  0  0  0  0  0  0
  186.7310  177.7480  146.3670 C   0  0  0  0  0  0  0  0  0  0  0  0
  184.4270  178.2990  146.8940 C   0  0  0  0  0  3  0  0  0  0  0  0
  184.2770  178.8910  145.6380 C   0  0  0  0  0  3  0  0  0  0  0  0
  185.6520  177.7290  147.2560 C   0  0  0  0  0  3  0  0  0  0  0  0
  186.5740  178.3450  145.1050 C   0  0  0  0  0  3  0  0  0  0  0  0
  191.2110  173.4530  136.2350 C   0  0  0  0  0  1  0  0  0  0  0  0
  191.6430  173.6980  137.6000 N   0  0  0  0  0  2  0  0  0  0  0  0
  191.5710  172.6890  138.6110 C   0  0  0  0  0  0  0  0  0  0  0  0
  191.1220  171.5440  138.3280 O   0  0  0  0  0  0  0  0  0  0  0  0
  1  3  2  0  0  0  0
  1  2  1  0  0  0  0
  2  5  2  0  0  0  0
  3  6  1  0  0  0  0
  5  4  1  0  0  0  0
  5 20  1  0  0  0  0
  6  4  2  0  0  0  0
  7  9  1  0  0  0  0
  8  9  2  0  0  0  0
 10  4  1  6  0  0  0
 10  8  1  0  0  0  0
 11  7  2  0  0  0  0
 12 10  1  0  0  0  0
 12 11  1  0  0  0  0
 13 11  1  0  0  0  0
 14 15  1  0  0  0  0
 14 16  1  0  0  0  0
 15 12  2  0  0  0  0
 16 13  2  0  0  0  0
 17 20  1  0  0  0  0
 17 22  1  0  0  0  0
 18 23  1  0  0  0  0
 18 24  1  1  0  0  0
 19 23  1  0  0  0  0
 20 21  1  0  0  0  0
 21 19  1  0  0  0  0
 22 18  1  0  0  0  0
 24 25  1  0  0  0  0
 26 31  2  0  0  0  0
 26 29  1  0  0  0  0
 27 25  1  0  0  0  0
 27 30  2  0  0  0  0
 28 30  1  0  0  0  0
 29 28  2  0  0  0  0
 31 27  1  0  0  0  0
 32 33  1  0  0  0  0
 33 34  1  0  0  0  0
 34  1  1  0  0  0  0
 35 34  2  0  0  0  0
M  END
>  <MODEL>
7

>  <REMARK>
 VINA RESULT:      -7.0      2.494      4.884
  Name = 
  6 active torsions:
  status: ('A' for Active; 'I' for Inactive)
    1  A    between atoms: C_3  and  O_24
    2  A    between atoms: C_6  and  C_21
    3  A    between atoms: C_10  and  C_18
    4  A    between atoms: C_12  and  C_23
    5  A    between atoms: N_14  and  C_26
    6  A    between atoms: C_18  and  O_24
                            x       y       z     vdW  Elec       q    Type
                         _______ _______ _______ _____ _____    ______ ____

>  <TORSDO>
F 6

$$$$
=
 OpenBabel11042416533D

 35 39  0  0  1  0  0  0  0  0999 V2000
  192.2940  171.2390  142.9440 C   0  0  0  0  0  0  0  0  0  0  0  0
  191.3010  172.1900  142.6840 C   0  0  0  0  0  3  0  0  0  0  0  0
  193.4680  171.6360  143.5940 C   0  0  0  0  0  3  0  0  0  0  0  0
  192.6440  173.9200  143.7350 C   0  0  0  0  0  0  0  0  0  0  0  0
  191.4550  173.5290  143.0760 C   0  0  0  0  0  0  0  0  0  0  0  0
  193.6440  172.9650  143.9800 C   0  0  0  0  0  3  0  0  0  0  0  0
  195.3200  176.2430  145.3900 N   0  0  0  0  0  0  0  0  0  0  0  0
  193.0070  175.5570  145.5790 C   0  0  0  0  0  3  0  0  0  0  0  0
  194.1460  175.9480  146.1620 C   0  0  0  0  0  3  0  0  0  0  0  0
  192.8960  175.3620  144.0860 C   0  0  1  0  0  3  0  0  0  0  0  0
  195.3150  176.2410  144.0900 C   0  0  0  0  0  0  0  0  0  0  0  0
  194.0910  175.9020  143.3480 C   0  0  0  0  0  0  0  0  0  0  0  0
  196.5070  176.5200  143.3590 N   0  0  0  0  0  0  0  0  0  0  0  0
  195.2000  176.5540  141.2760 C   0  0  0  0  0  2  0  0  0  0  0  0
  194.0820  176.0030  142.0520 N   0  0  0  0  0  0  0  0  0  0  0  0
  196.4870  176.6310  142.0640 C   0  0  0  0  0  3  0  0  0  0  0  0
  189.7000  175.0910  143.9040 C   0  0  0  0  0  2  0  0  0  0  0  0
  187.5740  175.5990  142.6780 C   0  0  2  0  0  3  0  0  0  0  0  0
  188.7970  174.5860  140.9230 C   0  0  0  0  0  2  0  0  0  0  0  0
  190.4100  174.4690  142.7760 N   0  0  0  0  0  0  0  0  0  0  0  0
  190.2160  174.8940  141.3870 C   0  0  0  0  0  2  0  0  0  0  0  0
  188.7110  176.1820  143.5020 C   0  0  0  0  0  2  0  0  0  0  0  0
  187.9050  175.6860  141.2620 N   0  0  0  0  0  2  0  0  0  0  0  0
  186.3120  176.3950  142.9490 C   0  0  0  0  0  2  0  0  0  0  0  0
  185.8610  176.1460  144.2750 O   0  0  0  0  0  0  0  0  0  0  0  0
  185.5800  179.4900  145.8760 C   0  0  0  0  0  3  0  0  0  0  0  0
  185.7660  177.1510  145.2410 C   0  0  0  0  0  0  0  0  0  0  0  0
  185.6710  177.7760  147.5830 C   0  0  0  0  0  3  0  0  0  0  0  0
  185.5790  179.1230  147.2250 C   0  0  0  0  0  3  0  0  0  0  0  0
  185.7650  176.7930  146.5930 C   0  0  0  0  0  3  0  0  0  0  0  0
  185.6730  178.5070  144.8860 C   0  0  0  0  0  3  0  0  0  0  0  0
  191.4850  168.1660  140.7470 C   0  0  0  0  0  1  0  0  0  0  0  0
  191.6830  169.5330  141.2000 N   0  0  0  0  0  2  0  0  0  0  0  0
  192.1090  169.8370  142.5310 C   0  0  0  0  0  0  0  0  0  0  0  0
  192.3260  168.9030  143.3520 O   0  0  0  0  0  0  0  0  0  0  0  0
  1  3  1  0  0  0  0
  2  1  2  0  0  0  0
  2  5  1  0  0  0  0
  3  6  2  0  0  0  0
  4  6  1  0  0  0  0
  5  4  2  0  0  0  0
  7  9  1  0  0  0  0
  8  9  2  0  0  0  0
 10  4  1  1  0  0  0
 10  8  1  0  0  0  0
 11  7  2  0  0  0  0
 12 10  1  0  0  0  0
 12 11  1  0  0  0  0
 13 11  1  0  0  0  0
 14 15  1  0  0  0  0
 14 16  1  0  0  0  0
 15 12  2  0  0  0  0
 16 13  2  0  0  0  0
 18 24  1  6  0  0  0
 18 22  1  0  0  0  0
 19 23  1  0  0  0  0
 19 21  1  0  0  0  0
 20  5  1  0  0  0  0
 20 17  1  0  0  0  0
 21 20  1  0  0  0  0
 22 17  1  0  0  0  0
 23 18  1  0  0  0  0
 24 25  1  0  0  0  0
 25 27  1  0  0  0  0
 26 29  1  0  0  0  0
 27 30  2  0  0  0  0
 29 28  2  0  0  0  0
 30 28  1  0  0  0  0
 31 27  1  0  0  0  0
 31 26  2  0  0  0  0
 32 33  1  0  0  0  0
 33 34  1  0  0  0  0
 34  1  1  0  0  0  0
 34 35  2  0  0  0  0
M  END
>  <MODEL>
8

>  <REMARK>
 VINA RESULT:      -6.9      2.695      3.736
  Name = 
  6 active torsions:
  status: ('A' for Active; 'I' for Inactive)
    1  A    between atoms: C_3  and  O_24
    2  A    between atoms: C_6  and  C_21
    3  A    between atoms: C_10  and  C_18
    4  A    between atoms: C_12  and  C_23
    5  A    between atoms: N_14  and  C_26
    6  A    between atoms: C_18  and  O_24
                            x       y       z     vdW  Elec       q    Type
                         _______ _______ _______ _____ _____    ______ ____

>  <TORSDO>
F 6

$$$$
=
 OpenBabel11042416533D

 35 39  0  0  1  0  0  0  0  0999 V2000
  187.5690  177.0800  143.0180 C   0  0  0  0  0  0  0  0  0  0  0  0
  188.7390  177.2110  143.7760 C   0  0  0  0  0  3  0  0  0  0  0  0
  187.3260  175.8810  142.3400 C   0  0  0  0  0  3  0  0  0  0  0  0
  189.4050  174.9490  143.1890 C   0  0  0  0  0  0  0  0  0  0  0  0
  189.6620  176.1590  143.8770 C   0  0  0  0  0  0  0  0  0  0  0  0
  188.2380  174.8290  142.4190 C   0  0  0  0  0  3  0  0  0  0  0  0
  189.7930  171.1850  142.2060 N   0  0  0  0  0  0  0  0  0  0  0  0
  189.9790  172.6960  144.0870 C   0  0  0  0  0  3  0  0  0  0  0  0
  189.6800  171.4840  143.6050 C   0  0  0  0  0  3  0  0  0  0  0  0
  190.4120  173.8310  143.1890 C   0  0  1  0  0  3  0  0  0  0  0  0
  190.2800  172.0350  141.3510 C   0  0  0  0  0  0  0  0  0  0  0  0
  190.7150  173.3700  141.7890 C   0  0  0  0  0  0  0  0  0  0  0  0
  190.3580  171.7070  139.9650 N   0  0  0  0  0  0  0  0  0  0  0  0
  191.6430  173.7660  139.5690 C   0  0  0  0  0  2  0  0  0  0  0  0
  191.2890  174.1660  140.9370 N   0  0  0  0  0  0  0  0  0  0  0  0
  190.9450  172.5020  139.1210 C   0  0  0  0  0  3  0  0  0  0  0  0
  192.0490  176.8690  143.9770 C   0  0  0  0  0  2  0  0  0  0  0  0
  193.7400  175.9060  145.5550 C   0  0  2  0  0  3  0  0  0  0  0  0
  191.7600  175.1130  146.5830 C   0  0  0  0  0  2  0  0  0  0  0  0
  190.8540  176.3480  144.6590 N   0  0  0  0  0  0  0  0  0  0  0  0
  190.7810  176.1830  146.1130 C   0  0  0  0  0  2  0  0  0  0  0  0
  193.2200  177.1780  144.9060 C   0  0  0  0  0  2  0  0  0  0  0  0
  193.0690  175.7020  146.8330 N   0  0  0  0  0  2  0  0  0  0  0  0
  195.2320  176.0460  145.7880 C   0  0  0  0  0  2  0  0  0  0  0  0
  195.9430  175.2380  144.8580 O   0  0  0  0  0  0  0  0  0  0  0  0
  194.8570  174.5160  141.3750 C   0  0  0  0  0  3  0  0  0  0  0  0
  195.7600  175.3410  143.4760 C   0  0  0  0  0  0  0  0  0  0  0  0
  196.1650  176.5520  141.4130 C   0  0  0  0  0  3  0  0  0  0  0  0
  195.4290  175.6010  140.7040 C   0  0  0  0  0  3  0  0  0  0  0  0
  196.3300  176.4220  142.7960 C   0  0  0  0  0  3  0  0  0  0  0  0
  195.0210  174.3860  142.7580 C   0  0  0  0  0  3  0  0  0  0  0  0
  185.0500  179.8080  144.0840 C   0  0  0  0  0  1  0  0  0  0  0  0
  186.0030  178.7110  144.1190 N   0  0  0  0  0  2  0  0  0  0  0  0
  186.6090  178.1950  142.9320 C   0  0  0  0  0  0  0  0  0  0  0  0
  186.3220  178.6950  141.8090 O   0  0  0  0  0  0  0  0  0  0  0  0
  1  2  1  0  0  0  0
  2  5  2  0  0  0  0
  3  6  1  0  0  0  0
  3  1  2  0  0  0  0
  4  5  1  0  0  0  0
  5 20  1  0  0  0  0
  6  4  2  0  0  0  0
  7  9  1  0  0  0  0
  9  8  2  0  0  0  0
 10  4  1  6  0  0  0
 10  8  1  0  0  0  0
 11 12  1  0  0  0  0
 11  7  2  0  0  0  0
 12 10  1  0  0  0  0
 13 11  1  0  0  0  0
 14 15  1  0  0  0  0
 15 12  2  0  0  0  0
 16 14  1  0  0  0  0
 16 13  2  0  0  0  0
 17 20  1  0  0  0  0
 17 22  1  0  0  0  0
 18 24  1  1  0  0  0
 18 23  1  0  0  0  0
 19 23  1  0  0  0  0
 20 21  1  0  0  0  0
 21 19  1  0  0  0  0
 22 18  1  0  0  0  0
 25 24  1  0  0  0  0
 26 31  1  0  0  0  0
 27 25  1  0  0  0  0
 28 30  2  0  0  0  0
 29 26  2  0  0  0  0
 29 28  1  0  0  0  0
 30 27  1  0  0  0  0
 31 27  2  0  0  0  0
 32 33  1  0  0  0  0
 34  1  1  0  0  0  0
 34 33  1  0  0  0  0
 35 34  2  0  0  0  0
M  END
>  <MODEL>
9

>  <REMARK>
 VINA RESULT:      -6.8      3.281      8.316
  Name = 
  6 active torsions:
  status: ('A' for Active; 'I' for Inactive)
    1  A    between atoms: C_3  and  O_24
    2  A    between atoms: C_6  and  C_21
    3  A    between atoms: C_10  and  C_18
    4  A    between atoms: C_12  and  C_23
    5  A    between atoms: N_14  and  C_26
    6  A    between atoms: C_18  and  O_24
                            x       y       z     vdW  Elec       q    Type
                         _______ _______ _______ _____ _____    ______ ____

>  <TORSDO>
F 6

$$$$
