=
 OpenBabel11042413493D

 25 28  0  0  1  0  0  0  0  0999 V2000
  189.6470  177.7850  143.9970 N   0  0  0  0  0  0  0  0  0  0  0  0
  188.2110  177.9290  143.8020 C   0  0  2  0  0  3  0  0  0  0  0  0
  189.8720  176.7910  144.7850 C   0  0  0  0  0  0  0  0  0  0  0  0
  188.7200  176.1540  145.2040 O   0  0  0  0  0  0  0  0  0  0  0  0
  187.5960  176.7890  144.6200 C   0  0  1  0  0  3  0  0  0  0  0  0
  191.2340  176.3890  145.1870 C   0  0  0  0  0  0  0  0  0  0  0  0
  192.1110  175.9850  144.2260 N   0  0  0  0  0  0  0  0  0  0  0  0
  190.8010  176.8220  147.5850 N   0  0  0  0  0  1  0  0  0  0  0  0
  193.7980  175.6240  145.8580 C   0  0  0  0  0  0  0  0  0  0  0  0
  191.6650  176.4080  146.5300 C   0  0  0  0  0  0  0  0  0  0  0  0
  192.9350  176.0250  146.8260 N   0  0  0  0  0  0  0  0  0  0  0  0
  193.3790  175.6020  144.5300 C   0  0  0  0  0  3  0  0  0  0  0  0
  195.1210  175.2270  146.1990 N   0  0  0  0  0  1  0  0  0  0  0  0
  185.3130  177.4360  145.4000 C   0  0  0  0  0  3  0  0  0  0  0  0
  187.1720  177.7410  146.9220 C   0  0  0  0  0  3  0  0  0  0  0  0
  186.6800  177.3250  145.6760 C   0  0  0  0  0  0  0  0  0  0  0  0
  184.9330  178.3570  147.6070 C   0  0  0  0  0  3  0  0  0  0  0  0
  186.2990  178.2540  147.8850 C   0  0  0  0  0  3  0  0  0  0  0  0
  184.4400  177.9490  146.3640 C   0  0  0  0  0  3  0  0  0  0  0  0
  187.8610  177.7520  142.3320 C   0  0  0  0  0  2  0  0  0  0  0  0
  186.6160  178.5450  141.9670 C   0  0  0  0  0  2  0  0  0  0  0  0
  185.4890  177.6140  141.5340 C   0  0  1  0  0  3  0  0  0  0  0  0
  184.1630  178.1570  141.9880 C   0  0  0  0  0  2  0  0  0  0  0  0
  185.1840  177.8140  140.1770 O   0  0  0  0  0  0  0  0  0  0  0  0
  183.9170  178.3180  140.5130 C   0  0  0  0  0  2  0  0  0  0  0  0
  1  3  2  0  0  0  0
  2 20  1  6  0  0  0
  2  1  1  0  0  0  0
  2  5  1  0  0  0  0
  3  6  1  0  0  0  0
  3  4  1  0  0  0  0
  5  4  1  0  0  0  0
  5 16  1  1  0  0  0
  6 10  1  0  0  0  0
  7 12  1  0  0  0  0
  7  6  2  0  0  0  0
  9 13  1  0  0  0  0
  9 11  1  0  0  0  0
 10 11  2  0  0  0  0
 10  8  1  0  0  0  0
 12  9  2  0  0  0  0
 14 16  2  0  0  0  0
 14 19  1  0  0  0  0
 15 18  2  0  0  0  0
 16 15  1  0  0  0  0
 17 18  1  0  0  0  0
 19 17  2  0  0  0  0
 21 20  1  0  0  0  0
 22 21  1  1  0  0  0
 22 23  1  0  0  0  0
 24 25  1  0  0  0  0
 24 22  1  0  0  0  0
 25 23  1  0  0  0  0
M  END
>  <MODEL>
1

>  <REMARK>
 VINA RESULT:      -7.3      0.000      0.000
  Name = 
  5 active torsions:
  status: ('A' for Active; 'I' for Inactive)
    1  A    between atoms: C_1  and  C_9
    2  A    between atoms: C_4  and  C_13
    3  A    between atoms: C_8  and  C_16
    4  A    between atoms: C_13  and  C_16
    5  A    between atoms: C_17  and  C_25
                            x       y       z     vdW  Elec       q    Type
                         _______ _______ _______ _____ _____    ______ ____

>  <TORSDO>
F 5

$$$$
=
 OpenBabel11042413493D

 25 28  0  0  1  0  0  0  0  0999 V2000
  189.9010  175.7040  145.0580 N   0  0  0  0  0  0  0  0  0  0  0  0
  188.5240  176.1770  145.1170 C   0  0  2  0  0  3  0  0  0  0  0  0
  190.6520  176.6410  144.5910 C   0  0  0  0  0  0  0  0  0  0  0  0
  189.9610  177.8000  144.2940 O   0  0  0  0  0  0  0  0  0  0  0  0
  188.5920  177.6210  144.6110 C   0  0  1  0  0  3  0  0  0  0  0  0
  192.1060  176.4720  144.4000 C   0  0  0  0  0  0  0  0  0  0  0  0
  192.9520  176.8800  145.3870 N   0  0  0  0  0  0  0  0  0  0  0  0
  191.8310  175.4490  142.1630 N   0  0  0  0  0  1  0  0  0  0  0  0
  194.8360  176.1870  144.1190 C   0  0  0  0  0  0  0  0  0  0  0  0
  192.6560  175.9000  143.2330 C   0  0  0  0  0  0  0  0  0  0  0  0
  194.0060  175.7750  143.1280 N   0  0  0  0  0  0  0  0  0  0  0  0
  194.2990  176.7520  145.2740 C   0  0  0  0  0  3  0  0  0  0  0  0
  196.2440  176.0430  143.9790 N   0  0  0  0  0  1  0  0  0  0  0  0
  186.4840  178.4040  143.5240 C   0  0  0  0  0  3  0  0  0  0  0  0
  188.1630  177.3460  142.1350 C   0  0  0  0  0  3  0  0  0  0  0  0
  187.7380  177.7990  143.3940 C   0  0  0  0  0  0  0  0  0  0  0  0
  186.0910  178.1190  141.1510 C   0  0  0  0  0  3  0  0  0  0  0  0
  187.3410  177.5090  141.0180 C   0  0  0  0  0  3  0  0  0  0  0  0
  185.6620  178.5660  142.4050 C   0  0  0  0  0  3  0  0  0  0  0  0
  188.0260  176.1610  146.5550 C   0  0  0  0  0  2  0  0  0  0  0  0
  187.4350  177.5080  146.9430 C   0  0  0  0  0  2  0  0  0  0  0  0
  186.0280  177.3400  147.5030 C   0  0  1  0  0  3  0  0  0  0  0  0
  185.2820  178.6420  147.4360 C   0  0  0  0  0  2  0  0  0  0  0  0
  185.1920  176.7330  146.5500 O   0  0  0  0  0  0  0  0  0  0  0  0
  184.4290  177.9080  146.4390 C   0  0  0  0  0  2  0  0  0  0  0  0
  1  2  1  0  0  0  0
  2 20  1  1  0  0  0
  3  1  2  0  0  0  0
  4  3  1  0  0  0  0
  4  5  1  0  0  0  0
  5 16  1  6  0  0  0
  5  2  1  0  0  0  0
  6  3  1  0  0  0  0
  6  7  1  0  0  0  0
  8 10  1  0  0  0  0
  9 12  1  0  0  0  0
 10  6  2  0  0  0  0
 11 10  1  0  0  0  0
 11  9  2  0  0  0  0
 12  7  2  0  0  0  0
 13  9  1  0  0  0  0
 15 16  2  0  0  0  0
 16 14  1  0  0  0  0
 17 19  1  0  0  0  0
 18 17  2  0  0  0  0
 18 15  1  0  0  0  0
 19 14  2  0  0  0  0
 20 21  1  0  0  0  0
 22 21  1  6  0  0  0
 23 22  1  0  0  0  0
 24 22  1  0  0  0  0
 25 24  1  0  0  0  0
 25 23  1  0  0  0  0
M  END
>  <MODEL>
2

>  <REMARK>
 VINA RESULT:      -7.2      1.992      4.160
  Name = 
  5 active torsions:
  status: ('A' for Active; 'I' for Inactive)
    1  A    between atoms: C_1  and  C_9
    2  A    between atoms: C_4  and  C_13
    3  A    between atoms: C_8  and  C_16
    4  A    between atoms: C_13  and  C_16
    5  A    between atoms: C_17  and  C_25
                            x       y       z     vdW  Elec       q    Type
                         _______ _______ _______ _____ _____    ______ ____

>  <TORSDO>
F 5

$$$$
=
 OpenBabel11042413493D

 25 28  0  0  1  0  0  0  0  0999 V2000
  189.9040  175.6580  145.0670 N   0  0  0  0  0  0  0  0  0  0  0  0
  188.5300  176.1370  145.1420 C   0  0  2  0  0  3  0  0  0  0  0  0
  190.6560  176.5960  144.6030 C   0  0  0  0  0  0  0  0  0  0  0  0
  189.9680  177.7610  144.3240 O   0  0  0  0  0  0  0  0  0  0  0  0
  188.6000  177.5860  144.6500 C   0  0  1  0  0  3  0  0  0  0  0  0
  192.1070  176.4210  144.3990 C   0  0  0  0  0  0  0  0  0  0  0  0
  192.5820  176.2890  143.1280 N   0  0  0  0  0  0  0  0  0  0  0  0
  192.5990  176.5220  146.8220 N   0  0  0  0  0  1  0  0  0  0  0  0
  194.8070  176.0920  143.9340 C   0  0  0  0  0  0  0  0  0  0  0  0
  193.0250  176.3870  145.4690 C   0  0  0  0  0  0  0  0  0  0  0  0
  194.3490  176.2230  145.2040 N   0  0  0  0  0  0  0  0  0  0  0  0
  193.9050  176.1250  142.8720 C   0  0  0  0  0  3  0  0  0  0  0  0
  196.1970  175.9210  143.6880 N   0  0  0  0  0  1  0  0  0  0  0  0
  188.2070  177.3580  142.1940 C   0  0  0  0  0  3  0  0  0  0  0  0
  186.4830  178.4020  143.5380 C   0  0  0  0  0  3  0  0  0  0  0  0
  187.7380  177.7800  143.4420 C   0  0  0  0  0  0  0  0  0  0  0  0
  186.1740  178.1570  141.1490 C   0  0  0  0  0  3  0  0  0  0  0  0
  185.7040  178.5870  142.3930 C   0  0  0  0  0  3  0  0  0  0  0  0
  187.4260  177.5430  141.0500 C   0  0  0  0  0  3  0  0  0  0  0  0
  188.0430  176.1090  146.5840 C   0  0  0  0  0  2  0  0  0  0  0  0
  187.4190  177.4390  146.9760 C   0  0  0  0  0  2  0  0  0  0  0  0
  185.9940  177.2400  147.4800 C   0  0  1  0  0  3  0  0  0  0  0  0
  185.2570  178.5490  147.4840 C   0  0  0  0  0  2  0  0  0  0  0  0
  185.1850  176.7080  146.4620 O   0  0  0  0  0  0  0  0  0  0  0  0
  184.4310  177.8930  146.4120 C   0  0  0  0  0  2  0  0  0  0  0  0
  1  2  1  0  0  0  0
  2 20  1  1  0  0  0
  3  1  2  0  0  0  0
  4  3  1  0  0  0  0
  4  5  1  0  0  0  0
  5 16  1  6  0  0  0
  5  2  1  0  0  0  0
  6  3  1  0  0  0  0
  6 10  1  0  0  0  0
  7  6  2  0  0  0  0
  9 11  1  0  0  0  0
 10  8  1  0  0  0  0
 11 10  2  0  0  0  0
 12  7  1  0  0  0  0
 12  9  2  0  0  0  0
 13  9  1  0  0  0  0
 14 16  1  0  0  0  0
 16 15  2  0  0  0  0
 17 18  2  0  0  0  0
 18 15  1  0  0  0  0
 19 17  1  0  0  0  0
 19 14  2  0  0  0  0
 20 21  1  0  0  0  0
 22 21  1  6  0  0  0
 22 23  1  0  0  0  0
 24 22  1  0  0  0  0
 25 24  1  0  0  0  0
 25 23  1  0  0  0  0
M  END
>  <MODEL>
3

>  <REMARK>
 VINA RESULT:      -7.1      1.841      3.941
  Name = 
  5 active torsions:
  status: ('A' for Active; 'I' for Inactive)
    1  A    between atoms: C_1  and  C_9
    2  A    between atoms: C_4  and  C_13
    3  A    between atoms: C_8  and  C_16
    4  A    between atoms: C_13  and  C_16
    5  A    between atoms: C_17  and  C_25
                            x       y       z     vdW  Elec       q    Type
                         _______ _______ _______ _____ _____    ______ ____

>  <TORSDO>
F 5

$$$$
=
 OpenBabel11042413493D

 25 28  0  0  1  0  0  0  0  0999 V2000
  189.4940  177.6410  143.7620 N   0  0  0  0  0  0  0  0  0  0  0  0
  188.0610  177.7250  143.5140 C   0  0  2  0  0  3  0  0  0  0  0  0
  189.7220  176.7130  144.6270 C   0  0  0  0  0  0  0  0  0  0  0  0
  188.5770  176.0720  145.0560 O   0  0  0  0  0  0  0  0  0  0  0  0
  187.4540  176.6270  144.3930 C   0  0  1  0  0  3  0  0  0  0  0  0
  191.0820  176.3840  145.0980 C   0  0  0  0  0  0  0  0  0  0  0  0
  192.0060  175.9540  144.1940 N   0  0  0  0  0  0  0  0  0  0  0  0
  190.5500  176.9450  147.4490 N   0  0  0  0  0  1  0  0  0  0  0  0
  193.6450  175.7520  145.9000 C   0  0  0  0  0  0  0  0  0  0  0  0
  191.4640  176.4990  146.4510 C   0  0  0  0  0  0  0  0  0  0  0  0
  192.7350  176.1800  146.8120 N   0  0  0  0  0  0  0  0  0  0  0  0
  193.2740  175.6360  144.5620 C   0  0  0  0  0  3  0  0  0  0  0  0
  194.9670  175.4240  146.3080 N   0  0  0  0  0  1  0  0  0  0  0  0
  185.3140  177.8060  144.9110 C   0  0  0  0  0  3  0  0  0  0  0  0
  186.7550  177.1840  146.7570 C   0  0  0  0  0  3  0  0  0  0  0  0
  186.4880  177.2070  145.3790 C   0  0  0  0  0  0  0  0  0  0  0  0
  184.6710  178.3390  147.1840 C   0  0  0  0  0  3  0  0  0  0  0  0
  185.8460  177.7470  147.6560 C   0  0  0  0  0  3  0  0  0  0  0  0
  184.4050  178.3700  145.8120 C   0  0  0  0  0  3  0  0  0  0  0  0
  187.7650  177.4320  142.0510 C   0  0  0  0  0  2  0  0  0  0  0  0
  187.3970  175.9700  141.8500 C   0  0  0  0  0  2  0  0  0  0  0  0
  188.5980  175.1730  141.3530 C   0  0  1  0  0  3  0  0  0  0  0  0
  188.7440  173.9060  142.1460 C   0  0  0  0  0  2  0  0  0  0  0  0
  188.2700  174.4810  140.1750 O   0  0  0  0  0  0  0  0  0  0  0  0
  188.4040  173.2480  140.8360 C   0  0  0  0  0  2  0  0  0  0  0  0
  1  3  2  0  0  0  0
  2 20  1  6  0  0  0
  2  1  1  0  0  0  0
  2  5  1  0  0  0  0
  3  4  1  0  0  0  0
  3  6  1  0  0  0  0
  5  4  1  0  0  0  0
  5 16  1  1  0  0  0
  6 10  1  0  0  0  0
  7 12  1  0  0  0  0
  7  6  2  0  0  0  0
  9 13  1  0  0  0  0
  9 11  1  0  0  0  0
 10 11  2  0  0  0  0
 10  8  1  0  0  0  0
 12  9  2  0  0  0  0
 14 16  2  0  0  0  0
 14 19  1  0  0  0  0
 15 18  2  0  0  0  0
 16 15  1  0  0  0  0
 17 18  1  0  0  0  0
 19 17  2  0  0  0  0
 21 20  1  0  0  0  0
 22 21  1  1  0  0  0
 22 23  1  0  0  0  0
 24 25  1  0  0  0  0
 24 22  1  0  0  0  0
 25 23  1  0  0  0  0
M  END
>  <MODEL>
4

>  <REMARK>
 VINA RESULT:      -7.0      1.722      2.297
  Name = 
  5 active torsions:
  status: ('A' for Active; 'I' for Inactive)
    1  A    between atoms: C_1  and  C_9
    2  A    between atoms: C_4  and  C_13
    3  A    between atoms: C_8  and  C_16
    4  A    between atoms: C_13  and  C_16
    5  A    between atoms: C_17  and  C_25
                            x       y       z     vdW  Elec       q    Type
                         _______ _______ _______ _____ _____    ______ ____

>  <TORSDO>
F 5

$$$$
=
 OpenBabel11042413493D

 25 28  0  0  1  0  0  0  0  0999 V2000
  188.9690  175.4180  144.8900 N   0  0  0  0  0  0  0  0  0  0  0  0
  188.6450  176.5650  145.7280 C   0  0  2  0  0  3  0  0  0  0  0  0
  188.6720  175.6900  143.6660 C   0  0  0  0  0  0  0  0  0  0  0  0
  188.1550  176.9600  143.4970 O   0  0  0  0  0  0  0  0  0  0  0  0
  188.1110  177.6180  144.7520 C   0  0  1  0  0  3  0  0  0  0  0  0
  188.8740  174.7250  142.5680 C   0  0  0  0  0  0  0  0  0  0  0  0
  187.8220  173.9570  142.1640 N   0  0  0  0  0  0  0  0  0  0  0  0
  191.2550  175.3380  142.2840 N   0  0  0  0  0  1  0  0  0  0  0  0
  189.1710  172.8990  140.5210 C   0  0  0  0  0  0  0  0  0  0  0  0
  190.1150  174.5660  141.9160 C   0  0  0  0  0  0  0  0  0  0  0  0
  190.2260  173.6570  140.9110 N   0  0  0  0  0  0  0  0  0  0  0  0
  187.9420  173.0510  141.1600 C   0  0  0  0  0  3  0  0  0  0  0  0
  189.3180  171.9560  139.4670 N   0  0  0  0  0  1  0  0  0  0  0  0
  186.0550  177.3330  146.1400 C   0  0  0  0  0  3  0  0  0  0  0  0
  186.0300  179.0030  144.3860 C   0  0  0  0  0  3  0  0  0  0  0  0
  186.7070  178.0030  145.1000 C   0  0  0  0  0  0  0  0  0  0  0  0
  184.0680  178.6650  145.7640 C   0  0  0  0  0  3  0  0  0  0  0  0
  184.7140  179.3330  144.7200 C   0  0  0  0  0  3  0  0  0  0  0  0
  184.7380  177.6640  146.4730 C   0  0  0  0  0  3  0  0  0  0  0  0
  189.9030  177.0890  146.4070 C   0  0  0  0  0  2  0  0  0  0  0  0
  190.7230  175.9490  146.9930 C   0  0  0  0  0  2  0  0  0  0  0  0
  192.2150  176.2240  146.8450 C   0  0  1  0  0  3  0  0  0  0  0  0
  192.9470  174.9540  146.5130 C   0  0  0  0  0  2  0  0  0  0  0  0
  192.4850  176.7910  145.5890 O   0  0  0  0  0  0  0  0  0  0  0  0
  193.2030  175.6460  145.2020 C   0  0  0  0  0  2  0  0  0  0  0  0
  1  2  1  0  0  0  0
  2 20  1  6  0  0  0
  3  1  2  0  0  0  0
  4  3  1  0  0  0  0
  4  5  1  0  0  0  0
  5 16  1  1  0  0  0
  5  2  1  0  0  0  0
  6  3  1  0  0  0  0
  7  6  1  0  0  0  0
  9 11  2  0  0  0  0
  9 12  1  0  0  0  0
 10  8  1  0  0  0  0
 10  6  2  0  0  0  0
 11 10  1  0  0  0  0
 12  7  2  0  0  0  0
 13  9  1  0  0  0  0
 14 19  1  0  0  0  0
 15 18  2  0  0  0  0
 15 16  1  0  0  0  0
 16 14  2  0  0  0  0
 17 19  2  0  0  0  0
 18 17  1  0  0  0  0
 20 21  1  0  0  0  0
 22 21  1  6  0  0  0
 23 22  1  0  0  0  0
 24 22  1  0  0  0  0
 25 24  1  0  0  0  0
 25 23  1  0  0  0  0
M  END
>  <MODEL>
5

>  <REMARK>
 VINA RESULT:      -6.9      2.953      5.814
  Name = 
  5 active torsions:
  status: ('A' for Active; 'I' for Inactive)
    1  A    between atoms: C_1  and  C_9
    2  A    between atoms: C_4  and  C_13
    3  A    between atoms: C_8  and  C_16
    4  A    between atoms: C_13  and  C_16
    5  A    between atoms: C_17  and  C_25
                            x       y       z     vdW  Elec       q    Type
                         _______ _______ _______ _____ _____    ______ ____

>  <TORSDO>
F 5

$$$$
=
 OpenBabel11042413493D

 25 28  0  0  1  0  0  0  0  0999 V2000
  189.1400  175.2920  145.2800 N   0  0  0  0  0  0  0  0  0  0  0  0
  188.7280  176.2430  146.3040 C   0  0  2  0  0  3  0  0  0  0  0  0
  189.0350  175.8430  144.1210 C   0  0  0  0  0  0  0  0  0  0  0  0
  188.5840  177.1470  144.1740 O   0  0  0  0  0  0  0  0  0  0  0  0
  188.3730  177.5140  145.5270 C   0  0  1  0  0  3  0  0  0  0  0  0
  189.3720  175.1340  142.8710 C   0  0  0  0  0  0  0  0  0  0  0  0
  190.6370  174.6540  142.7060 N   0  0  0  0  0  0  0  0  0  0  0  0
  187.0920  175.4010  141.9460 N   0  0  0  0  0  1  0  0  0  0  0  0
  190.0770  173.7940  140.5650 C   0  0  0  0  0  0  0  0  0  0  0  0
  188.4320  174.9290  141.8390 C   0  0  0  0  0  0  0  0  0  0  0  0
  188.8130  174.2650  140.7160 N   0  0  0  0  0  0  0  0  0  0  0  0
  191.0100  173.9920  141.5810 C   0  0  0  0  0  3  0  0  0  0  0  0
  190.4470  173.1040  139.3780 N   0  0  0  0  0  1  0  0  0  0  0  0
  186.2920  178.6970  144.8120 C   0  0  0  0  0  3  0  0  0  0  0  0
  186.2590  177.4900  146.9120 C   0  0  0  0  0  3  0  0  0  0  0  0
  186.9440  177.8970  145.7560 C   0  0  0  0  0  0  0  0  0  0  0  0
  184.2820  178.6680  146.1620 C   0  0  0  0  0  3  0  0  0  0  0  0
  184.9310  177.8740  147.1120 C   0  0  0  0  0  3  0  0  0  0  0  0
  184.9630  179.0800  145.0130 C   0  0  0  0  0  3  0  0  0  0  0  0
  189.8850  176.5280  147.2500 C   0  0  0  0  0  2  0  0  0  0  0  0
  190.8780  175.3760  147.2620 C   0  0  0  0  0  2  0  0  0  0  0  0
  192.2810  175.8670  146.9240 C   0  0  1  0  0  3  0  0  0  0  0  0
  193.0020  174.8470  146.0900 C   0  0  0  0  0  2  0  0  0  0  0  0
  192.2320  176.7950  145.8700 O   0  0  0  0  0  0  0  0  0  0  0  0
  192.9200  175.9070  145.0260 C   0  0  0  0  0  2  0  0  0  0  0  0
  1  2  1  0  0  0  0
  2 20  1  1  0  0  0
  3  4  1  0  0  0  0
  3  1  2  0  0  0  0
  4  5  1  0  0  0  0
  5 16  1  6  0  0  0
  5  2  1  0  0  0  0
  6  3  1  0  0  0  0
  7  6  1  0  0  0  0
  9 11  2  0  0  0  0
  9 12  1  0  0  0  0
 10  8  1  0  0  0  0
 10  6  2  0  0  0  0
 11 10  1  0  0  0  0
 12  7  2  0  0  0  0
 13  9  1  0  0  0  0
 14 19  2  0  0  0  0
 14 16  1  0  0  0  0
 15 18  1  0  0  0  0
 16 15  2  0  0  0  0
 17 18  2  0  0  0  0
 19 17  1  0  0  0  0
 20 21  1  0  0  0  0
 22 21  1  6  0  0  0
 23 22  1  0  0  0  0
 24 22  1  0  0  0  0
 25 24  1  0  0  0  0
 25 23  1  0  0  0  0
M  END
>  <MODEL>
6

>  <REMARK>
 VINA RESULT:      -6.7      2.728      5.615
  Name = 
  5 active torsions:
  status: ('A' for Active; 'I' for Inactive)
    1  A    between atoms: C_1  and  C_9
    2  A    between atoms: C_4  and  C_13
    3  A    between atoms: C_8  and  C_16
    4  A    between atoms: C_13  and  C_16
    5  A    between atoms: C_17  and  C_25
                            x       y       z     vdW  Elec       q    Type
                         _______ _______ _______ _____ _____    ______ ____

>  <TORSDO>
F 5

$$$$
=
 OpenBabel11042413493D

 25 28  0  0  1  0  0  0  0  0999 V2000
  189.2540  175.3980  144.5390 N   0  0  0  0  0  0  0  0  0  0  0  0
  188.9530  176.5040  145.4390 C   0  0  2  0  0  3  0  0  0  0  0  0
  188.7300  175.6340  143.3860 C   0  0  0  0  0  0  0  0  0  0  0  0
  188.0590  176.8400  143.3260 O   0  0  0  0  0  0  0  0  0  0  0  0
  188.1550  177.4900  144.5810 C   0  0  1  0  0  3  0  0  0  0  0  0
  188.8490  174.6950  142.2530 C   0  0  0  0  0  0  0  0  0  0  0  0
  189.4780  173.5020  142.4500 N   0  0  0  0  0  0  0  0  0  0  0  0
  187.6640  176.2090  140.6960 N   0  0  0  0  0  1  0  0  0  0  0  0
  189.1100  172.8850  140.1870 C   0  0  0  0  0  0  0  0  0  0  0  0
  188.3350  174.9830  140.9720 C   0  0  0  0  0  0  0  0  0  0  0  0
  188.4810  174.0690  139.9760 N   0  0  0  0  0  0  0  0  0  0  0  0
  189.6200  172.5940  141.4500 C   0  0  0  0  0  3  0  0  0  0  0  0
  189.2480  171.9490  139.1250 N   0  0  0  0  0  1  0  0  0  0  0  0
  186.1000  178.8880  144.8290 C   0  0  0  0  0  3  0  0  0  0  0  0
  186.2220  176.8040  146.0580 C   0  0  0  0  0  3  0  0  0  0  0  0
  186.7950  177.7220  145.1640 C   0  0  0  0  0  0  0  0  0  0  0  0
  184.2650  178.2160  146.2590 C   0  0  0  0  0  3  0  0  0  0  0  0
  184.9580  177.0520  146.6020 C   0  0  0  0  0  3  0  0  0  0  0  0
  184.8360  179.1350  145.3740 C   0  0  0  0  0  3  0  0  0  0  0  0
  190.2430  177.1610  145.9080 C   0  0  0  0  0  2  0  0  0  0  0  0
  191.2880  176.1170  146.2720 C   0  0  0  0  0  2  0  0  0  0  0  0
  192.6210  176.4290  145.6010 C   0  0  1  0  0  3  0  0  0  0  0  0
  193.6980  176.5900  146.6360 C   0  0  0  0  0  2  0  0  0  0  0  0
  193.1950  175.2550  145.0860 O   0  0  0  0  0  0  0  0  0  0  0  0
  194.2500  175.3390  146.0090 C   0  0  0  0  0  2  0  0  0  0  0  0
  1  2  1  0  0  0  0
  2 20  1  6  0  0  0
  3  1  2  0  0  0  0
  4  3  1  0  0  0  0
  4  5  1  0  0  0  0
  5 16  1  1  0  0  0
  5  2  1  0  0  0  0
  6  7  1  0  0  0  0
  6  3  1  0  0  0  0
  8 10  1  0  0  0  0
  9 12  1  0  0  0  0
 10  6  2  0  0  0  0
 11  9  2  0  0  0  0
 11 10  1  0  0  0  0
 12  7  2  0  0  0  0
 13  9  1  0  0  0  0
 14 16  2  0  0  0  0
 14 19  1  0  0  0  0
 15 18  2  0  0  0  0
 16 15  1  0  0  0  0
 17 18  1  0  0  0  0
 19 17  2  0  0  0  0
 20 21  1  0  0  0  0
 22 21  1  1  0  0  0
 22 23  1  0  0  0  0
 24 22  1  0  0  0  0
 24 25  1  0  0  0  0
 25 23  1  0  0  0  0
M  END
>  <MODEL>
7

>  <REMARK>
 VINA RESULT:      -6.5      3.132      6.072
  Name = 
  5 active torsions:
  status: ('A' for Active; 'I' for Inactive)
    1  A    between atoms: C_1  and  C_9
    2  A    between atoms: C_4  and  C_13
    3  A    between atoms: C_8  and  C_16
    4  A    between atoms: C_13  and  C_16
    5  A    between atoms: C_17  and  C_25
                            x       y       z     vdW  Elec       q    Type
                         _______ _______ _______ _____ _____    ______ ____

>  <TORSDO>
F 5

$$$$
=
 OpenBabel11042413493D

 25 28  0  0  1  0  0  0  0  0999 V2000
  183.9850  179.4580  143.9370 N   0  0  0  0  0  0  0  0  0  0  0  0
  185.2150  179.1110  144.6350 C   0  0  2  0  0  3  0  0  0  0  0  0
  183.7000  178.5300  143.0900 C   0  0  0  0  0  0  0  0  0  0  0  0
  184.6120  177.4930  143.0890 O   0  0  0  0  0  0  0  0  0  0  0  0
  185.6150  177.7510  144.0550 C   0  0  1  0  0  3  0  0  0  0  0  0
  182.5120  178.5910  142.2170 C   0  0  0  0  0  0  0  0  0  0  0  0
  181.3240  178.9930  142.7480 N   0  0  0  0  0  0  0  0  0  0  0  0
  183.7670  177.8220  140.2270 N   0  0  0  0  0  1  0  0  0  0  0  0
  180.2460  178.7310  140.6490 C   0  0  0  0  0  0  0  0  0  0  0  0
  182.5580  178.2490  140.8490 C   0  0  0  0  0  0  0  0  0  0  0  0
  181.4230  178.3290  140.1050 N   0  0  0  0  0  0  0  0  0  0  0  0
  180.1940  179.0700  141.9990 C   0  0  0  0  0  3  0  0  0  0  0  0
  179.0750  178.8040  139.8460 N   0  0  0  0  0  1  0  0  0  0  0  0
  188.1050  177.6170  144.1970 C   0  0  0  0  0  3  0  0  0  0  0  0
  187.1060  178.1180  142.0480 C   0  0  0  0  0  3  0  0  0  0  0  0
  186.9660  177.8220  143.4130 C   0  0  0  0  0  0  0  0  0  0  0  0
  189.5140  177.9840  142.2610 C   0  0  0  0  0  3  0  0  0  0  0  0
  188.3780  178.1960  141.4750 C   0  0  0  0  0  3  0  0  0  0  0  0
  189.3780  177.6950  143.6220 C   0  0  0  0  0  3  0  0  0  0  0  0
  184.9500  178.9730  146.1270 C   0  0  0  0  0  2  0  0  0  0  0  0
  185.0030  177.5160  146.5590 C   0  0  0  0  0  2  0  0  0  0  0  0
  185.9970  177.3250  147.6990 C   0  0  1  0  0  3  0  0  0  0  0  0
  187.1070  176.4070  147.2730 C   0  0  0  0  0  2  0  0  0  0  0  0
  186.8550  178.4340  147.7900 O   0  0  0  0  0  0  0  0  0  0  0  0
  187.9530  177.6420  147.4140 C   0  0  0  0  0  2  0  0  0  0  0  0
  1  2  1  0  0  0  0
  2 20  1  1  0  0  0
  3  1  2  0  0  0  0
  4  3  1  0  0  0  0
  4  5  1  0  0  0  0
  5 16  1  6  0  0  0
  5  2  1  0  0  0  0
  6  7  1  0  0  0  0
  6  3  1  0  0  0  0
  8 10  1  0  0  0  0
  9 12  1  0  0  0  0
 10  6  2  0  0  0  0
 11  9  2  0  0  0  0
 11 10  1  0  0  0  0
 12  7  2  0  0  0  0
 13  9  1  0  0  0  0
 15 16  1  0  0  0  0
 16 14  2  0  0  0  0
 17 19  2  0  0  0  0
 18 15  2  0  0  0  0
 18 17  1  0  0  0  0
 19 14  1  0  0  0  0
 20 21  1  0  0  0  0
 22 21  1  6  0  0  0
 22 24  1  0  0  0  0
 23 25  1  0  0  0  0
 23 22  1  0  0  0  0
 25 24  1  0  0  0  0
M  END
>  <MODEL>
8

>  <REMARK>
 VINA RESULT:      -6.4      4.670      8.680
  Name = 
  5 active torsions:
  status: ('A' for Active; 'I' for Inactive)
    1  A    between atoms: C_1  and  C_9
    2  A    between atoms: C_4  and  C_13
    3  A    between atoms: C_8  and  C_16
    4  A    between atoms: C_13  and  C_16
    5  A    between atoms: C_17  and  C_25
                            x       y       z     vdW  Elec       q    Type
                         _______ _______ _______ _____ _____    ______ ____

>  <TORSDO>
F 5

$$$$
=
 OpenBabel11042413493D

 25 28  0  0  1  0  0  0  0  0999 V2000
  191.2570  177.5200  143.0740 N   0  0  0  0  0  0  0  0  0  0  0  0
  189.8400  177.2860  143.3160 C   0  0  2  0  0  3  0  0  0  0  0  0
  191.9120  176.4320  143.2950 C   0  0  0  0  0  0  0  0  0  0  0  0
  191.1060  175.3780  143.6780 O   0  0  0  0  0  0  0  0  0  0  0  0
  189.7560  175.8070  143.7060 C   0  0  1  0  0  3  0  0  0  0  0  0
  193.3770  176.3440  143.1460 C   0  0  0  0  0  0  0  0  0  0  0  0
  193.9060  176.2240  141.8960 N   0  0  0  0  0  0  0  0  0  0  0  0
  193.7720  176.5070  145.5840 N   0  0  0  0  0  1  0  0  0  0  0  0
  196.1070  176.1750  142.7850 C   0  0  0  0  0  0  0  0  0  0  0  0
  194.2550  176.3810  144.2490 C   0  0  0  0  0  0  0  0  0  0  0  0
  195.5950  176.2950  144.0360 N   0  0  0  0  0  0  0  0  0  0  0  0
  195.2460  176.1390  141.6900 C   0  0  0  0  0  3  0  0  0  0  0  0
  197.5140  176.0870  142.5920 N   0  0  0  0  0  1  0  0  0  0  0  0
  188.1490  176.5060  145.4850 C   0  0  0  0  0  3  0  0  0  0  0  0
  189.6670  174.6810  145.9670 C   0  0  0  0  0  3  0  0  0  0  0  0
  189.1770  175.6500  145.0770 C   0  0  0  0  0  0  0  0  0  0  0  0
  188.0900  175.4200  147.6480 C   0  0  0  0  0  3  0  0  0  0  0  0
  189.1210  174.5660  147.2480 C   0  0  0  0  0  3  0  0  0  0  0  0
  187.6040  176.3900  146.7670 C   0  0  0  0  0  3  0  0  0  0  0  0
  189.0450  177.5240  142.0400 C   0  0  0  0  0  2  0  0  0  0  0  0
  187.7960  178.3460  142.3200 C   0  0  0  0  0  2  0  0  0  0  0  0
  186.5620  177.6740  141.7300 C   0  0  1  0  0  3  0  0  0  0  0  0
  185.9720  176.7110  142.7200 C   0  0  0  0  0  2  0  0  0  0  0  0
  185.4550  178.5350  141.8030 O   0  0  0  0  0  0  0  0  0  0  0  0
  184.8220  177.6800  142.7210 C   0  0  0  0  0  2  0  0  0  0  0  0
  1  3  2  0  0  0  0
  1  2  1  0  0  0  0
  2 20  1  6  0  0  0
  2  5  1  0  0  0  0
  3  4  1  0  0  0  0
  4  5  1  0  0  0  0
  5 16  1  1  0  0  0
  6  3  1  0  0  0  0
  6 10  1  0  0  0  0
  7  6  2  0  0  0  0
  9 11  1  0  0  0  0
 10  8  1  0  0  0  0
 11 10  2  0  0  0  0
 12  7  1  0  0  0  0
 12  9  2  0  0  0  0
 13  9  1  0  0  0  0
 14 19  1  0  0  0  0
 15 18  2  0  0  0  0
 16 14  2  0  0  0  0
 16 15  1  0  0  0  0
 18 17  1  0  0  0  0
 19 17  2  0  0  0  0
 20 21  1  0  0  0  0
 22 24  1  0  0  0  0
 22 21  1  1  0  0  0
 22 23  1  0  0  0  0
 23 25  1  0  0  0  0
 24 25  1  0  0  0  0
M  END
>  <MODEL>
9

>  <REMARK>
 VINA RESULT:      -6.3      2.206      3.096
  Name = 
  5 active torsions:
  status: ('A' for Active; 'I' for Inactive)
    1  A    between atoms: C_1  and  C_9
    2  A    between atoms: C_4  and  C_13
    3  A    between atoms: C_8  and  C_16
    4  A    between atoms: C_13  and  C_16
    5  A    between atoms: C_17  and  C_25
                            x       y       z     vdW  Elec       q    Type
                         _______ _______ _______ _____ _____    ______ ____

>  <TORSDO>
F 5

$$$$
