=
 OpenBabel11042417453D

 48 54  0  0  1  0  0  0  0  0999 V2000
  193.1530  173.1580  143.0110 C   0  0  2  0  0  3  0  0  0  0  0  0
  191.6770  172.8910  143.2310 C   0  0  0  0  0  2  0  0  0  0  0  0
  190.9760  173.9200  142.4910 N   0  0  0  0  0  0  0  0  0  0  0  0
  193.2490  174.1520  141.8570 C   0  0  0  0  0  2  0  0  0  0  0  0
  191.8590  174.7270  141.6690 C   0  0  0  0  0  2  0  0  0  0  0  0
  188.7940  174.9380  142.8260 C   0  0  0  0  0  3  0  0  0  0  0  0
  189.5440  173.9210  142.3690 C   0  0  0  0  0  0  0  0  0  0  0  0
  189.3200  176.1410  143.5470 C   0  0  1  0  0  3  0  0  0  0  0  0
  189.5580  177.2680  142.5590 C   0  0  0  0  0  1  0  0  0  0  0  0
  187.5320  176.3000  146.8890 C   0  0  0  0  0  3  0  0  0  0  0  0
  186.6650  178.0730  145.4860 C   0  0  0  0  0  0  0  0  0  0  0  0
  186.6690  177.3840  146.7020 C   0  0  0  0  0  3  0  0  0  0  0  0
  187.5230  177.6780  144.4550 C   0  0  0  0  0  3  0  0  0  0  0  0
  188.3870  176.5850  144.6360 C   0  0  0  0  0  0  0  0  0  0  0  0
  185.5860  179.4310  145.2530 Cl  0  0  0  0  0  0  0  0  0  0  0  0
  188.3900  175.9030  145.8580 C   0  0  0  0  0  3  0  0  0  0  0  0
  188.9050  172.7810  141.7770 N   0  0  0  0  0  2  0  0  0  0  0  0
  188.6300  172.6440  140.3520 C   0  0  2  0  0  3  0  0  0  0  0  0
  189.7270  171.8450  139.7090 C   0  0  0  0  0  2  0  0  0  0  0  0
  188.7370  173.9890  139.6800 C   0  0  0  0  0  2  0  0  0  0  0  0
  189.7580  173.8740  138.6480 N   0  0  0  0  0  2  0  0  0  0  0  0
  190.5820  172.7930  139.0110 N   0  0  2  0  0  0  0  0  0  0  0  0
  193.1170  173.0180  138.5370 O   0  0  0  0  0  1  0  0  0  0  0  0
  191.0190  172.1520  137.7740 C   0  0  2  0  0  3  0  0  0  0  0  0
  192.4680  172.2940  137.5320 C   0  0  1  0  0  3  0  0  0  0  0  0
  191.5160  173.1720  136.8360 N   0  0  0  0  0  0  0  0  0  0  0  0
  191.3450  172.6240  135.5030 C   0  0  0  0  0  1  0  0  0  0  0  0
  193.9230  171.5270  141.3770 O   0  0  0  0  0  1  0  0  0  0  0  0
  193.8960  171.8500  142.7380 C   0  0  1  0  0  3  0  0  0  0  0  0
  195.9350  173.1620  143.5350 C   0  0  2  0  0  3  0  0  0  0  0  0
  196.9540  173.0160  144.6580 C   0  0  2  0  0  3  0  0  0  0  0  0
  195.2890  171.7990  143.3870 C   0  0  1  0  0  3  0  0  0  0  0  0
  195.4370  171.1000  144.7380 C   0  0  2  0  0  3  0  0  0  0  0  0
  194.3380  171.4560  145.7310 C   0  0  0  0  0  1  0  0  0  0  0  0
  196.7480  171.6380  145.2760 C   0  0  0  0  0  2  0  0  0  0  0  0
  196.7340  174.0900  145.7140 C   0  0  0  0  0  2  0  0  0  0  0  0
  195.6780  174.9970  145.2950 N   0  0  0  0  0  0  0  0  0  0  0  0
  195.6080  176.1510  144.4640 C   0  0  0  0  0  0  0  0  0  0  0  0
  193.0610  177.0450  144.7000 C   0  0  0  0  0  3  0  0  0  0  0  0
  196.4120  176.7780  143.7280 O   0  0  0  0  0  0  0  0  0  0  0  0
  191.9550  176.5800  145.4560 C   0  0  0  0  0  3  0  0  0  0  0  0
  194.2170  176.2960  144.8440 C   0  0  0  0  0  0  0  0  0  0  0  0
  194.3070  175.1930  145.6470 C   0  0  0  0  0  0  0  0  0  0  0  0
  192.0560  175.4270  146.2950 C   0  0  0  0  0  3  0  0  0  0  0  0
  193.2650  174.6950  146.4080 C   0  0  0  0  0  3  0  0  0  0  0  0
  196.6460  173.5720  142.2550 C   0  0  0  0  0  2  0  0  0  0  0  0
  197.0890  172.7300  140.2640 C   0  0  0  0  0  1  0  0  0  0  0  0
  197.1850  172.4490  141.6260 O   0  0  0  0  0  0  0  0  0  0  0  0
  1 29  1  6  0  0  0
  1  2  1  0  0  0  0
  3  2  1  0  0  0  0
  4  1  1  0  0  0  0
  5  4  1  0  0  0  0
  5  3  1  0  0  0  0
  6  8  1  0  0  0  0
  7  3  1  0  0  0  0
  7  6  2  0  0  0  0
  8  9  1  6  0  0  0
  8 14  1  0  0  0  0
 11 12  2  0  0  0  0
 12 10  1  0  0  0  0
 13 14  2  0  0  0  0
 13 11  1  0  0  0  0
 14 16  1  0  0  0  0
 15 11  1  0  0  0  0
 16 10  2  0  0  0  0
 17  7  1  0  0  0  0
 18 17  1  1  0  0  0
 19 18  1  0  0  0  0
 20 18  1  0  0  0  0
 21 22  1  0  0  0  0
 21 20  1  0  0  0  0
 22 19  1  1  0  0  0
 24 26  1  6  0  0  0
 24 22  1  0  0  0  0
 25 24  1  0  0  0  0
 25 23  1  1  0  0  0
 26 25  1  0  0  0  0
 27 26  1  0  0  0  0
 29 28  1  6  0  0  0
 30 46  1  6  0  0  0
 30 31  1  0  0  0  0
 31 35  1  0  0  0  0
 31 36  1  1  0  0  0
 32 29  1  1  0  0  0
 32 30  1  0  0  0  0
 32 33  1  0  0  0  0
 33 35  1  0  0  0  0
 33 34  1  1  0  0  0
 37 43  1  0  0  0  0
 37 36  1  0  0  0  0
 38 42  1  0  0  0  0
 38 37  1  0  0  0  0
 39 42  2  0  0  0  0
 39 41  1  0  0  0  0
 40 38  2  0  0  0  0
 41 44  2  0  0  0  0
 42 43  1  0  0  0  0
 43 45  2  0  0  0  0
 44 45  1  0  0  0  0
 47 48  1  0  0  0  0
 48 46  1  0  0  0  0
M  END
>  <MODEL>
1

>  <REMARK>
 VINA RESULT:      -7.0      0.000      0.000
  Name = 
  12 active torsions:
  status: ('A' for Active; 'I' for Inactive)
    1  A    between atoms: C_1  and  N_16
    2  A    between atoms: C_3  and  C_7
    3  A    between atoms: C_3  and  C_43
    4  A    between atoms: C_4  and  C_35
    5  A    between atoms: N_5  and  C_40
    6  A    between atoms: C_9  and  N_16
    7  A    between atoms: C_9  and  N_22
    8  A    between atoms: O_10  and  C_41
    9  A    between atoms: C_11  and  C_41
   10  A    between atoms: C_17  and  C_40
   11  A    between atoms: C_18  and  N_26
   12  A    between atoms: C_19  and  C_35
                            x       y       z     vdW  Elec       q    Type
                         _______ _______ _______ _____ _____    ______ ____

>  <TORSDO>
F 12

$$$$
=
 OpenBabel11042417453D

 48 54  0  0  1  0  0  0  0  0999 V2000
  192.1450  173.6520  142.3230 C   0  0  2  0  0  3  0  0  0  0  0  0
  193.5150  174.2310  142.6160 C   0  0  0  0  0  2  0  0  0  0  0  0
  194.4320  173.1110  142.5760 N   0  0  0  0  0  0  0  0  0  0  0  0
  192.3730  172.2430  141.7840 C   0  0  0  0  0  2  0  0  0  0  0  0
  193.8090  171.8850  142.1130 C   0  0  0  0  0  2  0  0  0  0  0  0
  196.4850  173.1870  143.8770 C   0  0  0  0  0  3  0  0  0  0  0  0
  195.8530  173.2920  142.6960 C   0  0  0  0  0  0  0  0  0  0  0  0
  195.8160  172.9300  145.1930 C   0  0  1  0  0  3  0  0  0  0  0  0
  196.8650  172.6790  146.2610 C   0  0  0  0  0  1  0  0  0  0  0  0
  192.7750  174.8370  146.4200 C   0  0  0  0  0  3  0  0  0  0  0  0
  194.5140  176.4420  145.9080 C   0  0  0  0  0  0  0  0  0  0  0  0
  193.2190  176.1600  146.3520 C   0  0  0  0  0  3  0  0  0  0  0  0
  195.3660  175.3990  145.5300 C   0  0  0  0  0  3  0  0  0  0  0  0
  194.9220  174.0680  145.5900 C   0  0  0  0  0  0  0  0  0  0  0  0
  195.0710  178.0990  145.8260 Cl  0  0  0  0  0  0  0  0  0  0  0  0
  193.6260  173.7920  146.0410 C   0  0  0  0  0  3  0  0  0  0  0  0
  196.6020  173.6340  141.5210 N   0  0  0  0  0  2  0  0  0  0  0  0
  196.3960  174.8490  140.7420 C   0  0  2  0  0  3  0  0  0  0  0  0
  195.8060  174.4910  139.4080 C   0  0  0  0  0  2  0  0  0  0  0  0
  197.7270  175.4580  140.3850 C   0  0  0  0  0  2  0  0  0  0  0  0
  197.7900  175.5290  138.9320 N   0  0  0  0  0  2  0  0  0  0  0  0
  196.8870  174.5700  138.4370 N   0  0  2  0  0  0  0  0  0  0  0  0
  197.6070  173.3000  136.2990 O   0  0  0  0  0  1  0  0  0  0  0  0
  196.3220  175.1070  137.2030 C   0  0  2  0  0  3  0  0  0  0  0  0
  196.7480  174.3620  136.0020 C   0  0  1  0  0  3  0  0  0  0  0  0
  197.4020  175.6310  136.3510 N   0  0  0  0  0  0  0  0  0  0  0  0
  196.8040  176.6520  135.5090 C   0  0  0  0  0  1  0  0  0  0  0  0
  191.1960  173.9440  140.1000 O   0  0  0  0  0  1  0  0  0  0  0  0
  191.3850  174.5510  141.3460 C   0  0  1  0  0  3  0  0  0  0  0  0
  189.5480  174.3120  143.1030 C   0  0  2  0  0  3  0  0  0  0  0  0
  188.6670  175.2690  143.8950 C   0  0  2  0  0  3  0  0  0  0  0  0
  190.0820  175.1170  141.9340 C   0  0  1  0  0  3  0  0  0  0  0  0
  190.0550  176.5820  142.3680 C   0  0  2  0  0  3  0  0  0  0  0  0
  191.2880  177.0060  143.1570 C   0  0  0  0  0  1  0  0  0  0  0  0
  188.8570  176.6570  143.2950 C   0  0  0  0  0  2  0  0  0  0  0  0
  189.0840  175.2820  145.3590 C   0  0  0  0  0  2  0  0  0  0  0  0
  188.4070  176.3580  146.0640 N   0  0  0  0  0  0  0  0  0  0  0  0
  188.8010  177.3590  146.9970 C   0  0  0  0  0  0  0  0  0  0  0  0
  186.5060  178.6060  147.7150 C   0  0  0  0  0  3  0  0  0  0  0  0
  189.8870  177.7320  147.5090 O   0  0  0  0  0  0  0  0  0  0  0  0
  185.1530  178.4010  147.3400 C   0  0  0  0  0  3  0  0  0  0  0  0
  187.4100  177.7500  147.1110 C   0  0  0  0  0  0  0  0  0  0  0  0
  187.0490  176.7750  146.2220 C   0  0  0  0  0  0  0  0  0  0  0  0
  184.7820  177.3790  146.4120 C   0  0  0  0  0  3  0  0  0  0  0  0
  185.7490  176.5260  145.8220 C   0  0  0  0  0  3  0  0  0  0  0  0
  188.7150  173.1350  142.6200 C   0  0  0  0  0  2  0  0  0  0  0  0
  188.0440  172.6960  140.5650 C   0  0  0  0  0  1  0  0  0  0  0  0
  187.8170  173.5560  141.6390 O   0  0  0  0  0  0  0  0  0  0  0  0
  1 29  1  6  0  0  0
  1  2  1  0  0  0  0
  3  2  1  0  0  0  0
  3  7  1  0  0  0  0
  4  5  1  0  0  0  0
  4  1  1  0  0  0  0
  5  3  1  0  0  0  0
  6  8  1  0  0  0  0
  7  6  2  0  0  0  0
  8 14  1  0  0  0  0
  8  9  1  1  0  0  0
 11 12  2  0  0  0  0
 12 10  1  0  0  0  0
 13 14  2  0  0  0  0
 13 11  1  0  0  0  0
 14 16  1  0  0  0  0
 15 11  1  0  0  0  0
 16 10  2  0  0  0  0
 17  7  1  0  0  0  0
 18 17  1  1  0  0  0
 19 18  1  0  0  0  0
 20 18  1  0  0  0  0
 21 20  1  0  0  0  0
 22 21  1  0  0  0  0
 22 19  1  1  0  0  0
 24 26  1  6  0  0  0
 24 22  1  0  0  0  0
 25 23  1  1  0  0  0
 25 26  1  0  0  0  0
 25 24  1  0  0  0  0
 27 26  1  0  0  0  0
 29 28  1  6  0  0  0
 30 46  1  6  0  0  0
 30 31  1  0  0  0  0
 31 36  1  1  0  0  0
 32 29  1  1  0  0  0
 32 33  1  0  0  0  0
 32 30  1  0  0  0  0
 33 34  1  1  0  0  0
 33 35  1  0  0  0  0
 35 31  1  0  0  0  0
 36 37  1  0  0  0  0
 37 43  1  0  0  0  0
 37 38  1  0  0  0  0
 38 42  1  0  0  0  0
 38 40  2  0  0  0  0
 41 39  1  0  0  0  0
 42 39  2  0  0  0  0
 43 42  1  0  0  0  0
 44 41  2  0  0  0  0
 45 43  2  0  0  0  0
 45 44  1  0  0  0  0
 47 48  1  0  0  0  0
 48 46  1  0  0  0  0
M  END
>  <MODEL>
2

>  <REMARK>
 VINA RESULT:      -6.9      3.331      7.052
  Name = 
  12 active torsions:
  status: ('A' for Active; 'I' for Inactive)
    1  A    between atoms: C_1  and  N_16
    2  A    between atoms: C_3  and  C_7
    3  A    between atoms: C_3  and  C_43
    4  A    between atoms: C_4  and  C_35
    5  A    between atoms: N_5  and  C_40
    6  A    between atoms: C_9  and  N_16
    7  A    between atoms: C_9  and  N_22
    8  A    between atoms: O_10  and  C_41
    9  A    between atoms: C_11  and  C_41
   10  A    between atoms: C_17  and  C_40
   11  A    between atoms: C_18  and  N_26
   12  A    between atoms: C_19  and  C_35
                            x       y       z     vdW  Elec       q    Type
                         _______ _______ _______ _____ _____    ______ ____

>  <TORSDO>
F 12

$$$$
=
 OpenBabel11042417453D

 48 54  0  0  1  0  0  0  0  0999 V2000
  190.9700  173.4800  142.2130 C   0  0  2  0  0  3  0  0  0  0  0  0
  191.3540  173.2910  143.6660 C   0  0  0  0  0  2  0  0  0  0  0  0
  191.3320  174.6130  144.2560 N   0  0  0  0  0  0  0  0  0  0  0  0
  190.4020  174.8920  142.0920 C   0  0  0  0  0  2  0  0  0  0  0  0
  190.7990  175.6230  143.3600 C   0  0  0  0  0  2  0  0  0  0  0  0
  192.7390  175.1320  146.1690 C   0  0  0  0  0  3  0  0  0  0  0  0
  191.5350  174.8180  145.6640 C   0  0  0  0  0  0  0  0  0  0  0  0
  194.0030  175.2540  145.3740 C   0  0  1  0  0  3  0  0  0  0  0  0
  194.7350  176.5240  145.7670 C   0  0  0  0  0  1  0  0  0  0  0  0
  197.0960  173.1490  145.9980 C   0  0  0  0  0  3  0  0  0  0  0  0
  195.2220  171.6520  145.6590 C   0  0  0  0  0  0  0  0  0  0  0  0
  196.5820  171.8510  145.9160 C   0  0  0  0  0  3  0  0  0  0  0  0
  194.3760  172.7520  145.4820 C   0  0  0  0  0  3  0  0  0  0  0  0
  194.8890  174.0570  145.5570 C   0  0  0  0  0  0  0  0  0  0  0  0
  194.5790  170.0280  145.5590 Cl  0  0  0  0  0  0  0  0  0  0  0  0
  196.2500  174.2490  145.8200 C   0  0  0  0  0  3  0  0  0  0  0  0
  190.4200  174.6410  146.5500 N   0  0  0  0  0  2  0  0  0  0  0  0
  189.7070  175.7350  147.1990 C   0  0  2  0  0  3  0  0  0  0  0  0
  188.2330  175.5770  146.9610 C   0  0  0  0  0  2  0  0  0  0  0  0
  190.0350  177.0360  146.5120 C   0  0  0  0  0  2  0  0  0  0  0  0
  188.7790  177.6000  146.0390 N   0  0  0  0  0  2  0  0  0  0  0  0
  187.8700  176.5320  145.9250 N   0  0  2  0  0  0  0  0  0  0  0  0
  186.1920  176.5160  143.9540 O   0  0  0  0  0  1  0  0  0  0  0  0
  186.5490  177.0540  146.2590 C   0  0  2  0  0  3  0  0  0  0  0  0
  185.6130  177.0300  145.1180 C   0  0  1  0  0  3  0  0  0  0  0  0
  186.2910  178.2810  145.4890 N   0  0  0  0  0  0  0  0  0  0  0  0
  185.3360  179.0580  146.2580 C   0  0  0  0  0  1  0  0  0  0  0  0
  188.7150  172.9190  141.4870 O   0  0  0  0  0  1  0  0  0  0  0  0
  189.9800  172.3980  141.7790 C   0  0  1  0  0  3  0  0  0  0  0  0
  191.7210  172.0840  139.9390 C   0  0  2  0  0  3  0  0  0  0  0  0
  192.4550  170.9000  139.3240 C   0  0  2  0  0  3  0  0  0  0  0  0
  190.5220  171.4960  140.6580 C   0  0  1  0  0  3  0  0  0  0  0  0
  190.8860  170.0520  140.9970 C   0  0  2  0  0  3  0  0  0  0  0  0
  191.6700  169.9110  142.2960 C   0  0  0  0  0  1  0  0  0  0  0  0
  191.7920  169.6340  139.8560 C   0  0  0  0  0  2  0  0  0  0  0  0
  193.9220  170.9190  139.7290 C   0  0  0  0  0  2  0  0  0  0  0  0
  194.4670  172.2580  139.5790 N   0  0  0  0  0  0  0  0  0  0  0  0
  195.0130  173.0120  138.5010 C   0  0  0  0  0  0  0  0  0  0  0  0
  195.8790  175.3250  139.6160 C   0  0  0  0  0  3  0  0  0  0  0  0
  195.1670  172.8310  137.2660 O   0  0  0  0  0  0  0  0  0  0  0  0
  195.8700  175.7990  140.9530 C   0  0  0  0  0  3  0  0  0  0  0  0
  195.3250  174.0680  139.4450 C   0  0  0  0  0  0  0  0  0  0  0  0
  194.8080  173.3240  140.4680 C   0  0  0  0  0  0  0  0  0  0  0  0
  195.3290  175.0170  142.0190 C   0  0  0  0  0  3  0  0  0  0  0  0
  194.7750  173.7320  141.7900 C   0  0  0  0  0  3  0  0  0  0  0  0
  191.2840  173.0380  138.8380 C   0  0  0  0  0  2  0  0  0  0  0  0
  189.3990  173.7440  137.9350 C   0  0  0  0  0  1  0  0  0  0  0  0
  190.1020  172.5830  138.2530 O   0  0  0  0  0  0  0  0  0  0  0  0
  1 29  1  1  0  0  0
  1  2  1  0  0  0  0
  2  3  1  0  0  0  0
  3  7  1  0  0  0  0
  4  1  1  0  0  0  0
  4  5  1  0  0  0  0
  5  3  1  0  0  0  0
  7  6  2  0  0  0  0
  7 17  1  0  0  0  0
  8 14  1  0  0  0  0
  8  9  1  1  0  0  0
  8  6  1  0  0  0  0
 11 12  2  0  0  0  0
 12 10  1  0  0  0  0
 13 14  2  0  0  0  0
 13 11  1  0  0  0  0
 14 16  1  0  0  0  0
 15 11  1  0  0  0  0
 16 10  2  0  0  0  0
 18 17  1  6  0  0  0
 19 18  1  0  0  0  0
 20 18  1  0  0  0  0
 21 20  1  0  0  0  0
 22 21  1  0  0  0  0
 22 24  1  0  0  0  0
 22 19  1  1  0  0  0
 24 26  1  6  0  0  0
 25 23  1  6  0  0  0
 25 26  1  0  0  0  0
 25 24  1  0  0  0  0
 26 27  1  0  0  0  0
 29 28  1  6  0  0  0
 30 46  1  6  0  0  0
 30 32  1  0  0  0  0
 31 36  1  1  0  0  0
 31 35  1  0  0  0  0
 31 30  1  0  0  0  0
 32 33  1  0  0  0  0
 32 29  1  1  0  0  0
 33 34  1  1  0  0  0
 35 33  1  0  0  0  0
 37 36  1  0  0  0  0
 37 43  1  0  0  0  0
 38 42  1  0  0  0  0
 38 37  1  0  0  0  0
 39 41  1  0  0  0  0
 40 38  2  0  0  0  0
 41 44  2  0  0  0  0
 42 39  2  0  0  0  0
 42 43  1  0  0  0  0
 43 45  2  0  0  0  0
 45 44  1  0  0  0  0
 47 48  1  0  0  0  0
 48 46  1  0  0  0  0
M  END
>  <MODEL>
3

>  <REMARK>
 VINA RESULT:      -6.8      3.450      7.462
  Name = 
  12 active torsions:
  status: ('A' for Active; 'I' for Inactive)
    1  A    between atoms: C_1  and  N_16
    2  A    between atoms: C_3  and  C_7
    3  A    between atoms: C_3  and  C_43
    4  A    between atoms: C_4  and  C_35
    5  A    between atoms: N_5  and  C_40
    6  A    between atoms: C_9  and  N_16
    7  A    between atoms: C_9  and  N_22
    8  A    between atoms: O_10  and  C_41
    9  A    between atoms: C_11  and  C_41
   10  A    between atoms: C_17  and  C_40
   11  A    between atoms: C_18  and  N_26
   12  A    between atoms: C_19  and  C_35
                            x       y       z     vdW  Elec       q    Type
                         _______ _______ _______ _____ _____    ______ ____

>  <TORSDO>
F 12

$$$$
=
 OpenBabel11042417453D

 48 54  0  0  1  0  0  0  0  0999 V2000
  192.1280  172.7900  142.3040 C   0  0  2  0  0  3  0  0  0  0  0  0
  193.3320  173.6690  142.5740 C   0  0  0  0  0  2  0  0  0  0  0  0
  194.4830  172.7920  142.5150 N   0  0  0  0  0  0  0  0  0  0  0  0
  192.6660  171.4700  141.7570 C   0  0  0  0  0  2  0  0  0  0  0  0
  194.1520  171.4550  142.0600 C   0  0  0  0  0  2  0  0  0  0  0  0
  196.4320  173.4820  143.7940 C   0  0  0  0  0  3  0  0  0  0  0  0
  195.8250  173.2970  142.6100 C   0  0  0  0  0  0  0  0  0  0  0  0
  195.8010  173.2480  145.1320 C   0  0  1  0  0  3  0  0  0  0  0  0
  196.8740  172.9330  146.1580 C   0  0  0  0  0  1  0  0  0  0  0  0
  194.7510  176.8330  145.7920 C   0  0  0  0  0  3  0  0  0  0  0  0
  192.9680  175.3760  146.5430 C   0  0  0  0  0  0  0  0  0  0  0  0
  193.4880  176.6620  146.3670 C   0  0  0  0  0  3  0  0  0  0  0  0
  193.7110  174.2600  146.1440 C   0  0  0  0  0  3  0  0  0  0  0  0
  194.9830  174.4270  145.5720 C   0  0  0  0  0  0  0  0  0  0  0  0
  191.3870  175.1620  147.2600 Cl  0  0  0  0  0  0  0  0  0  0  0  0
  195.4960  175.7180  145.3940 C   0  0  0  0  0  3  0  0  0  0  0  0
  196.5130  173.6480  141.4010 N   0  0  0  0  0  2  0  0  0  0  0  0
  196.3020  174.8920  140.6700 C   0  0  2  0  0  3  0  0  0  0  0  0
  195.6580  174.5890  139.3480 C   0  0  0  0  0  2  0  0  0  0  0  0
  197.6320  175.4880  140.2840 C   0  0  0  0  0  2  0  0  0  0  0  0
  197.6440  175.6060  138.8320 N   0  0  0  0  0  2  0  0  0  0  0  0
  196.7050  174.6810  138.3410 N   0  0  2  0  0  0  0  0  0  0  0  0
  197.1540  173.3530  136.1640 O   0  0  0  0  0  1  0  0  0  0  0  0
  196.1060  175.2690  137.1470 C   0  0  2  0  0  3  0  0  0  0  0  0
  196.3760  174.4900  135.9220 C   0  0  1  0  0  3  0  0  0  0  0  0
  197.1670  175.6930  136.2180 N   0  0  0  0  0  0  0  0  0  0  0  0
  196.6070  176.7650  135.4150 C   0  0  0  0  0  1  0  0  0  0  0  0
  191.0450  172.8110  140.1240 O   0  0  0  0  0  1  0  0  0  0  0  0
  191.1640  173.4870  141.3430 C   0  0  1  0  0  3  0  0  0  0  0  0
  189.6550  175.2570  142.3960 C   0  0  2  0  0  3  0  0  0  0  0  0
  188.1570  175.5250  142.4400 C   0  0  2  0  0  3  0  0  0  0  0  0
  189.8010  173.8060  141.9800 C   0  0  1  0  0  3  0  0  0  0  0  0
  188.5340  173.4480  141.2050 C   0  0  2  0  0  3  0  0  0  0  0  0
  188.5960  173.8240  139.7300 C   0  0  0  0  0  1  0  0  0  0  0  0
  187.4630  174.2970  141.8610 C   0  0  0  0  0  2  0  0  0  0  0  0
  187.8150  176.7500  141.6040 C   0  0  0  0  0  2  0  0  0  0  0  0
  186.7560  177.5140  142.2430 N   0  0  0  0  0  0  0  0  0  0  0  0
  185.6370  178.2680  141.7870 C   0  0  0  0  0  0  0  0  0  0  0  0
  184.5790  179.3920  144.0130 C   0  0  0  0  0  3  0  0  0  0  0  0
  185.1060  178.5000  140.6710 O   0  0  0  0  0  0  0  0  0  0  0  0
  184.9600  179.3410  145.3790 C   0  0  0  0  0  3  0  0  0  0  0  0
  185.3870  178.6610  143.1600 C   0  0  0  0  0  0  0  0  0  0  0  0
  186.4720  177.9410  143.5770 C   0  0  0  0  0  0  0  0  0  0  0  0
  186.0970  178.5880  145.8090 C   0  0  0  0  0  3  0  0  0  0  0  0
  186.8930  177.8570  144.8920 C   0  0  0  0  0  3  0  0  0  0  0  0
  190.2540  175.4920  143.7750 C   0  0  0  0  0  2  0  0  0  0  0  0
  190.5440  177.5920  144.3850 C   0  0  0  0  0  1  0  0  0  0  0  0
  191.1750  176.5380  143.7240 O   0  0  0  0  0  0  0  0  0  0  0  0
  1 29  1  6  0  0  0
  1  2  1  0  0  0  0
  3  2  1  0  0  0  0
  3  7  1  0  0  0  0
  4  5  1  0  0  0  0
  4  1  1  0  0  0  0
  5  3  1  0  0  0  0
  6  8  1  0  0  0  0
  7  6  2  0  0  0  0
  8 14  1  0  0  0  0
  8  9  1  1  0  0  0
 10 12  1  0  0  0  0
 11 15  1  0  0  0  0
 12 11  2  0  0  0  0
 13 11  1  0  0  0  0
 14 13  2  0  0  0  0
 16 14  1  0  0  0  0
 16 10  2  0  0  0  0
 17  7  1  0  0  0  0
 18 17  1  1  0  0  0
 19 18  1  0  0  0  0
 20 18  1  0  0  0  0
 21 20  1  0  0  0  0
 22 21  1  0  0  0  0
 22 19  1  1  0  0  0
 24 26  1  6  0  0  0
 24 22  1  0  0  0  0
 25 23  1  1  0  0  0
 25 26  1  0  0  0  0
 25 24  1  0  0  0  0
 27 26  1  0  0  0  0
 29 28  1  6  0  0  0
 30 31  1  0  0  0  0
 30 46  1  1  0  0  0
 31 36  1  6  0  0  0
 32 29  1  6  0  0  0
 32 30  1  0  0  0  0
 33 34  1  6  0  0  0
 33 35  1  0  0  0  0
 33 32  1  0  0  0  0
 35 31  1  0  0  0  0
 36 37  1  0  0  0  0
 37 43  1  0  0  0  0
 38 37  1  0  0  0  0
 38 42  1  0  0  0  0
 39 41  1  0  0  0  0
 40 38  2  0  0  0  0
 41 44  2  0  0  0  0
 42 43  1  0  0  0  0
 42 39  2  0  0  0  0
 43 45  2  0  0  0  0
 45 44  1  0  0  0  0
 48 46  1  0  0  0  0
 48 47  1  0  0  0  0
M  END
>  <MODEL>
4

>  <REMARK>
 VINA RESULT:      -6.7      3.396      7.398
  Name = 
  12 active torsions:
  status: ('A' for Active; 'I' for Inactive)
    1  A    between atoms: C_1  and  N_16
    2  A    between atoms: C_3  and  C_7
    3  A    between atoms: C_3  and  C_43
    4  A    between atoms: C_4  and  C_35
    5  A    between atoms: N_5  and  C_40
    6  A    between atoms: C_9  and  N_16
    7  A    between atoms: C_9  and  N_22
    8  A    between atoms: O_10  and  C_41
    9  A    between atoms: C_11  and  C_41
   10  A    between atoms: C_17  and  C_40
   11  A    between atoms: C_18  and  N_26
   12  A    between atoms: C_19  and  C_35
                            x       y       z     vdW  Elec       q    Type
                         _______ _______ _______ _____ _____    ______ ____

>  <TORSDO>
F 12

$$$$
=
 OpenBabel11042417453D

 48 54  0  0  1  0  0  0  0  0999 V2000
  193.7630  175.9160  144.4140 C   0  0  2  0  0  3  0  0  0  0  0  0
  193.4520  174.6100  143.7110 C   0  0  0  0  0  2  0  0  0  0  0  0
  194.6380  174.2810  142.9480 N   0  0  0  0  0  0  0  0  0  0  0  0
  195.2700  176.1270  144.2940 C   0  0  0  0  0  2  0  0  0  0  0  0
  195.7550  175.1640  143.2280 C   0  0  0  0  0  2  0  0  0  0  0  0
  194.6310  171.8510  142.8490 C   0  0  0  0  0  3  0  0  0  0  0  0
  194.7580  173.0390  142.2340 C   0  0  0  0  0  0  0  0  0  0  0  0
  194.4090  171.6610  144.3180 C   0  0  1  0  0  3  0  0  0  0  0  0
  193.0550  171.0170  144.5530 C   0  0  0  0  0  1  0  0  0  0  0  0
  197.8220  170.1390  144.9680 C   0  0  0  0  0  3  0  0  0  0  0  0
  196.2810  169.2620  146.6160 C   0  0  0  0  0  0  0  0  0  0  0  0
  197.5670  169.3220  146.0730 C   0  0  0  0  0  3  0  0  0  0  0  0
  195.2480  170.0190  146.0540 C   0  0  0  0  0  3  0  0  0  0  0  0
  195.4980  170.8360  144.9400 C   0  0  0  0  0  0  0  0  0  0  0  0
  195.9620  168.2410  148.0010 Cl  0  0  0  0  0  0  0  0  0  0  0  0
  196.7900  170.8960  144.4040 C   0  0  0  0  0  3  0  0  0  0  0  0
  195.0620  173.0810  140.8320 N   0  0  0  0  0  2  0  0  0  0  0  0
  194.0650  173.2490  139.7820 C   0  0  2  0  0  3  0  0  0  0  0  0
  192.8050  173.8090  140.3780 C   0  0  0  0  0  2  0  0  0  0  0  0
  193.6370  171.9000  139.2640 C   0  0  0  0  0  2  0  0  0  0  0  0
  192.1990  171.7980  139.4650 N   0  0  0  0  0  2  0  0  0  0  0  0
  191.8670  172.7020  140.4920 N   0  0  2  0  0  0  0  0  0  0  0  0
  190.0640  172.1080  142.2510 O   0  0  0  0  0  1  0  0  0  0  0  0
  190.5390  173.2270  140.1890 C   0  0  2  0  0  3  0  0  0  0  0  0
  189.5340  172.8750  141.2110 C   0  0  1  0  0  3  0  0  0  0  0  0
  189.6070  172.1130  139.9560 N   0  0  0  0  0  0  0  0  0  0  0  0
  188.5560  172.6270  139.0960 C   0  0  0  0  0  1  0  0  0  0  0  0
  194.3140  176.0910  146.7790 O   0  0  0  0  0  1  0  0  0  0  0  0
  193.2790  175.8670  145.8650 C   0  0  1  0  0  3  0  0  0  0  0  0
  190.9570  176.5930  145.0910 C   0  0  2  0  0  3  0  0  0  0  0  0
  189.6750  177.0510  145.7730 C   0  0  2  0  0  3  0  0  0  0  0  0
  192.0550  176.7610  146.1230 C   0  0  1  0  0  3  0  0  0  0  0  0
  191.3780  176.6900  147.4910 C   0  0  2  0  0  3  0  0  0  0  0  0
  191.1860  175.2680  148.0020 C   0  0  0  0  0  1  0  0  0  0  0  0
  190.0070  177.2880  147.2420 C   0  0  0  0  0  2  0  0  0  0  0  0
  188.6020  175.9780  145.6570 C   0  0  0  0  0  2  0  0  0  0  0  0
  187.3180  176.5840  145.3440 N   0  0  0  0  0  0  0  0  0  0  0  0
  186.5500  176.7680  144.1590 C   0  0  0  0  0  0  0  0  0  0  0  0
  184.4230  178.2660  144.9140 C   0  0  0  0  0  3  0  0  0  0  0  0
  186.6580  176.4200  142.9550 O   0  0  0  0  0  0  0  0  0  0  0  0
  184.0450  178.8220  146.1630 C   0  0  0  0  0  3  0  0  0  0  0  0
  185.6010  177.5400  144.9360 C   0  0  0  0  0  0  0  0  0  0  0  0
  186.3580  177.3630  146.0610 C   0  0  0  0  0  0  0  0  0  0  0  0
  184.8410  178.6340  147.3350 C   0  0  0  0  0  3  0  0  0  0  0  0
  186.0430  177.8830  147.3030 C   0  0  0  0  0  3  0  0  0  0  0  0
  191.2200  177.4590  143.8690 C   0  0  0  0  0  2  0  0  0  0  0  0
  189.6970  177.9260  142.3420 C   0  0  0  0  0  1  0  0  0  0  0  0
  190.5740  176.9230  142.7550 O   0  0  0  0  0  0  0  0  0  0  0  0
  1 29  1  1  0  0  0
  2  1  1  0  0  0  0
  3  5  1  0  0  0  0
  3  2  1  0  0  0  0
  4  1  1  0  0  0  0
  5  4  1  0  0  0  0
  6  8  1  0  0  0  0
  7  6  2  0  0  0  0
  7  3  1  0  0  0  0
  8  9  1  6  0  0  0
  8 14  1  0  0  0  0
 10 12  1  0  0  0  0
 11 15  1  0  0  0  0
 12 11  2  0  0  0  0
 13 11  1  0  0  0  0
 14 13  2  0  0  0  0
 16 14  1  0  0  0  0
 16 10  2  0  0  0  0
 17  7  1  0  0  0  0
 18 19  1  0  0  0  0
 18 17  1  1  0  0  0
 20 21  1  0  0  0  0
 20 18  1  0  0  0  0
 21 22  1  0  0  0  0
 22 19  1  6  0  0  0
 24 26  1  6  0  0  0
 24 22  1  0  0  0  0
 24 25  1  0  0  0  0
 25 23  1  1  0  0  0
 26 25  1  0  0  0  0
 27 26  1  0  0  0  0
 29 28  1  1  0  0  0
 30 46  1  6  0  0  0
 30 31  1  0  0  0  0
 30 32  1  0  0  0  0
 31 36  1  1  0  0  0
 31 35  1  0  0  0  0
 32 29  1  1  0  0  0
 32 33  1  0  0  0  0
 33 34  1  6  0  0  0
 35 33  1  0  0  0  0
 37 36  1  0  0  0  0
 37 43  1  0  0  0  0
 38 42  1  0  0  0  0
 38 37  1  0  0  0  0
 39 42  2  0  0  0  0
 39 41  1  0  0  0  0
 40 38  2  0  0  0  0
 41 44  2  0  0  0  0
 42 43  1  0  0  0  0
 43 45  2  0  0  0  0
 45 44  1  0  0  0  0
 47 48  1  0  0  0  0
 48 46  1  0  0  0  0
M  END
>  <MODEL>
5

>  <REMARK>
 VINA RESULT:      -6.6      3.375      7.670
  Name = 
  12 active torsions:
  status: ('A' for Active; 'I' for Inactive)
    1  A    between atoms: C_1  and  N_16
    2  A    between atoms: C_3  and  C_7
    3  A    between atoms: C_3  and  C_43
    4  A    between atoms: C_4  and  C_35
    5  A    between atoms: N_5  and  C_40
    6  A    between atoms: C_9  and  N_16
    7  A    between atoms: C_9  and  N_22
    8  A    between atoms: O_10  and  C_41
    9  A    between atoms: C_11  and  C_41
   10  A    between atoms: C_17  and  C_40
   11  A    between atoms: C_18  and  N_26
   12  A    between atoms: C_19  and  C_35
                            x       y       z     vdW  Elec       q    Type
                         _______ _______ _______ _____ _____    ______ ____

>  <TORSDO>
F 12

$$$$
=
 OpenBabel11042417453D

 48 54  0  0  1  0  0  0  0  0999 V2000
  189.9080  173.1860  141.5740 C   0  0  2  0  0  3  0  0  0  0  0  0
  190.0910  174.6910  141.5500 C   0  0  0  0  0  2  0  0  0  0  0  0
  188.7590  175.2520  141.6510 N   0  0  0  0  0  0  0  0  0  0  0  0
  188.4750  172.9290  142.0330 C   0  0  0  0  0  2  0  0  0  0  0  0
  187.7420  174.2500  141.9120 C   0  0  0  0  0  2  0  0  0  0  0  0
  189.3690  177.4530  142.4840 C   0  0  0  0  0  3  0  0  0  0  0  0
  188.5410  176.6670  141.7750 C   0  0  0  0  0  0  0  0  0  0  0  0
  190.5590  176.9750  143.2580 C   0  0  1  0  0  3  0  0  0  0  0  0
  191.6290  178.0510  143.2710 C   0  0  0  0  0  1  0  0  0  0  0  0
  189.5660  174.8570  146.2440 C   0  0  0  0  0  3  0  0  0  0  0  0
  189.7750  177.1520  146.9860 C   0  0  0  0  0  0  0  0  0  0  0  0
  189.4970  175.8110  147.2640 C   0  0  0  0  0  3  0  0  0  0  0  0
  190.1230  177.5400  145.6880 C   0  0  0  0  0  3  0  0  0  0  0  0
  190.1870  176.5860  144.6590 C   0  0  0  0  0  0  0  0  0  0  0  0
  189.6910  178.3460  148.2620 Cl  0  0  0  0  0  0  0  0  0  0  0  0
  189.9120  175.2440  144.9450 C   0  0  0  0  0  3  0  0  0  0  0  0
  187.3820  177.2390  141.1540 N   0  0  0  0  0  2  0  0  0  0  0  0
  186.5540  178.2740  141.7610 C   0  0  2  0  0  3  0  0  0  0  0  0
  186.8360  178.3360  143.2350 C   0  0  0  0  0  2  0  0  0  0  0  0
  185.1030  177.8690  141.6990 C   0  0  0  0  0  2  0  0  0  0  0  0
  184.6080  177.8350  143.0680 N   0  0  0  0  0  2  0  0  0  0  0  0
  185.7290  177.6680  143.9020 N   0  0  2  0  0  0  0  0  0  0  0  0
  186.4300  176.4160  146.0570 O   0  0  0  0  0  1  0  0  0  0  0  0
  185.4600  178.4010  145.1350 C   0  0  2  0  0  3  0  0  0  0  0  0
  185.8730  177.6650  146.3460 C   0  0  1  0  0  3  0  0  0  0  0  0
  184.4610  177.6750  145.9360 N   0  0  0  0  0  0  0  0  0  0  0  0
  183.7960  178.6660  146.7630 C   0  0  0  0  0  1  0  0  0  0  0  0
  190.4620  171.3990  143.1310 O   0  0  0  0  0  1  0  0  0  0  0  0
  190.9530  172.5370  142.4820 C   0  0  1  0  0  3  0  0  0  0  0  0
  193.3220  173.3730  142.0250 C   0  0  2  0  0  3  0  0  0  0  0  0
  194.6780  172.7240  141.7820 C   0  0  2  0  0  3  0  0  0  0  0  0
  192.2950  172.2850  141.7750 C   0  0  1  0  0  3  0  0  0  0  0  0
  193.0070  170.9540  142.0170 C   0  0  2  0  0  3  0  0  0  0  0  0
  193.0240  170.5300  143.4800 C   0  0  0  0  0  1  0  0  0  0  0  0
  194.4350  171.2310  141.5910 C   0  0  0  0  0  2  0  0  0  0  0  0
  195.5920  172.9460  142.9790 C   0  0  0  0  0  2  0  0  0  0  0  0
  195.3040  174.2280  143.5990 N   0  0  0  0  0  0  0  0  0  0  0  0
  195.7990  175.5560  143.4520 C   0  0  0  0  0  0  0  0  0  0  0  0
  194.5670  176.9940  145.3900 C   0  0  0  0  0  3  0  0  0  0  0  0
  196.6160  176.1300  142.6890 O   0  0  0  0  0  0  0  0  0  0  0  0
  193.6360  176.6330  146.3980 C   0  0  0  0  0  3  0  0  0  0  0  0
  194.9640  175.9530  144.5690 C   0  0  0  0  0  0  0  0  0  0  0  0
  194.5100  174.6700  144.7030 C   0  0  0  0  0  0  0  0  0  0  0  0
  193.1660  175.2900  146.5340 C   0  0  0  0  0  3  0  0  0  0  0  0
  193.6070  174.2580  145.6670 C   0  0  0  0  0  3  0  0  0  0  0  0
  193.1340  174.5330  141.0610 C   0  0  0  0  0  2  0  0  0  0  0  0
  193.8460  174.8890  139.0040 C   0  0  0  0  0  1  0  0  0  0  0  0
  193.0180  174.0560  139.7550 O   0  0  0  0  0  0  0  0  0  0  0  0
  1  4  1  0  0  0  0
  1 29  1  1  0  0  0
  2  1  1  0  0  0  0
  2  3  1  0  0  0  0
  3  7  1  0  0  0  0
  3  5  1  0  0  0  0
  5  4  1  0  0  0  0
  6  8  1  0  0  0  0
  7  6  2  0  0  0  0
  8  9  1  1  0  0  0
  8 14  1  0  0  0  0
 10 12  1  0  0  0  0
 11 12  2  0  0  0  0
 11 15  1  0  0  0  0
 13 11  1  0  0  0  0
 14 16  1  0  0  0  0
 14 13  2  0  0  0  0
 16 10  2  0  0  0  0
 17  7  1  0  0  0  0
 18 17  1  6  0  0  0
 18 19  1  0  0  0  0
 20 18  1  0  0  0  0
 20 21  1  0  0  0  0
 21 22  1  0  0  0  0
 22 19  1  6  0  0  0
 22 24  1  0  0  0  0
 24 26  1  1  0  0  0
 24 25  1  0  0  0  0
 25 23  1  6  0  0  0
 26 25  1  0  0  0  0
 26 27  1  0  0  0  0
 29 28  1  6  0  0  0
 30 46  1  6  0  0  0
 31 30  1  0  0  0  0
 31 36  1  1  0  0  0
 32 33  1  0  0  0  0
 32 30  1  0  0  0  0
 32 29  1  1  0  0  0
 33 34  1  1  0  0  0
 35 31  1  0  0  0  0
 35 33  1  0  0  0  0
 36 37  1  0  0  0  0
 37 43  1  0  0  0  0
 38 37  1  0  0  0  0
 38 42  1  0  0  0  0
 39 41  1  0  0  0  0
 40 38  2  0  0  0  0
 41 44  2  0  0  0  0
 42 43  1  0  0  0  0
 42 39  2  0  0  0  0
 43 45  2  0  0  0  0
 45 44  1  0  0  0  0
 47 48  1  0  0  0  0
 48 46  1  0  0  0  0
M  END
>  <MODEL>
6

>  <REMARK>
 VINA RESULT:      -6.5      2.999      5.393
  Name = 
  12 active torsions:
  status: ('A' for Active; 'I' for Inactive)
    1  A    between atoms: C_1  and  N_16
    2  A    between atoms: C_3  and  C_7
    3  A    between atoms: C_3  and  C_43
    4  A    between atoms: C_4  and  C_35
    5  A    between atoms: N_5  and  C_40
    6  A    between atoms: C_9  and  N_16
    7  A    between atoms: C_9  and  N_22
    8  A    between atoms: O_10  and  C_41
    9  A    between atoms: C_11  and  C_41
   10  A    between atoms: C_17  and  C_40
   11  A    between atoms: C_18  and  N_26
   12  A    between atoms: C_19  and  C_35
                            x       y       z     vdW  Elec       q    Type
                         _______ _______ _______ _____ _____    ______ ____

>  <TORSDO>
F 12

$$$$
=
 OpenBabel11042417453D

 48 54  0  0  1  0  0  0  0  0999 V2000
  190.0320  172.3280  144.6430 C   0  0  2  0  0  3  0  0  0  0  0  0
  191.4930  172.2000  144.2620 C   0  0  0  0  0  2  0  0  0  0  0  0
  191.5150  171.4280  143.0370 N   0  0  0  0  0  0  0  0  0  0  0  0
  189.2240  171.9020  143.4200 C   0  0  0  0  0  2  0  0  0  0  0  0
  190.1910  171.1900  142.4930 C   0  0  0  0  0  2  0  0  0  0  0  0
  193.9380  171.4760  142.8350 C   0  0  0  0  0  3  0  0  0  0  0  0
  192.7330  171.1990  142.3080 C   0  0  0  0  0  0  0  0  0  0  0  0
  194.1690  172.0890  144.1820 C   0  0  1  0  0  3  0  0  0  0  0  0
  195.1750  171.2580  144.9570 C   0  0  0  0  0  1  0  0  0  0  0  0
  195.6370  175.4620  145.1090 C   0  0  0  0  0  3  0  0  0  0  0  0
  194.9840  175.5400  142.7780 C   0  0  0  0  0  0  0  0  0  0  0  0
  195.5320  176.1620  143.9040 C   0  0  0  0  0  3  0  0  0  0  0  0
  194.5390  174.2160  142.8580 C   0  0  0  0  0  3  0  0  0  0  0  0
  194.6370  173.5110  144.0690 C   0  0  0  0  0  0  0  0  0  0  0  0
  194.8550  176.4150  141.2690 Cl  0  0  0  0  0  0  0  0  0  0  0  0
  195.1920  174.1380  145.1910 C   0  0  0  0  0  3  0  0  0  0  0  0
  192.6460  170.6980  140.9670 N   0  0  0  0  0  2  0  0  0  0  0  0
  192.7970  171.5210  139.7730 C   0  0  2  0  0  3  0  0  0  0  0  0
  191.8180  172.6580  139.8260 C   0  0  0  0  0  2  0  0  0  0  0  0
  192.3620  170.7410  138.5580 C   0  0  0  0  0  2  0  0  0  0  0  0
  191.2850  171.4920  137.9290 N   0  0  0  0  0  2  0  0  0  0  0  0
  190.7280  172.3160  138.9250 N   0  0  2  0  0  0  0  0  0  0  0  0
  188.1890  172.7870  139.0990 O   0  0  0  0  0  1  0  0  0  0  0  0
  190.3020  173.5500  138.2720 C   0  0  2  0  0  3  0  0  0  0  0  0
  188.8510  173.7940  138.3900 C   0  0  1  0  0  3  0  0  0  0  0  0
  189.4050  173.2330  137.1490 N   0  0  0  0  0  0  0  0  0  0  0  0
  189.5160  174.3350  136.2100 C   0  0  0  0  0  1  0  0  0  0  0  0
  189.5730  173.8530  146.4840 O   0  0  0  0  0  1  0  0  0  0  0  0
  189.7230  173.7550  145.0960 C   0  0  1  0  0  3  0  0  0  0  0  0
  190.0440  175.8190  143.6280 C   0  0  2  0  0  3  0  0  0  0  0  0
  190.9600  177.0350  143.6430 C   0  0  2  0  0  3  0  0  0  0  0  0
  190.7040  174.7950  144.5310 C   0  0  1  0  0  3  0  0  0  0  0  0
  191.5770  175.5800  145.5090 C   0  0  2  0  0  3  0  0  0  0  0  0
  190.8180  176.0900  146.7280 C   0  0  0  0  0  1  0  0  0  0  0  0
  192.0280  176.7810  144.7010 C   0  0  0  0  0  2  0  0  0  0  0  0
  190.1710  178.2860  144.0010 C   0  0  0  0  0  2  0  0  0  0  0  0
  188.7570  177.9730  144.1130 N   0  0  0  0  0  0  0  0  0  0  0  0
  187.6210  178.1090  143.2650 C   0  0  0  0  0  0  0  0  0  0  0  0
  185.5060  177.3430  144.7760 C   0  0  0  0  0  3  0  0  0  0  0  0
  187.4240  178.4850  142.0810 O   0  0  0  0  0  0  0  0  0  0  0  0
  185.4070  176.9030  146.1210 C   0  0  0  0  0  3  0  0  0  0  0  0
  186.7920  177.6400  144.3580 C   0  0  0  0  0  0  0  0  0  0  0  0
  187.8930  177.5280  145.1620 C   0  0  0  0  0  0  0  0  0  0  0  0
  186.5610  176.7890  146.9570 C   0  0  0  0  0  3  0  0  0  0  0  0
  187.8570  177.1090  146.4790 C   0  0  0  0  0  3  0  0  0  0  0  0
  189.9200  175.2930  142.2060 C   0  0  0  0  0  2  0  0  0  0  0  0
  187.8090  174.6810  142.0210 C   0  0  0  0  0  1  0  0  0  0  0  0
  188.7010  175.6870  141.6540 O   0  0  0  0  0  0  0  0  0  0  0  0
  1 29  1  6  0  0  0
  2  1  1  0  0  0  0
  3  2  1  0  0  0  0
  4  1  1  0  0  0  0
  5  3  1  0  0  0  0
  5  4  1  0  0  0  0
  6  8  1  0  0  0  0
  7  6  2  0  0  0  0
  7  3  1  0  0  0  0
  8  9  1  6  0  0  0
 10 16  1  0  0  0  0
 11 13  2  0  0  0  0
 11 12  1  0  0  0  0
 12 10  2  0  0  0  0
 13 14  1  0  0  0  0
 14  8  1  0  0  0  0
 14 16  2  0  0  0  0
 15 11  1  0  0  0  0
 17  7  1  0  0  0  0
 18 19  1  0  0  0  0
 18 17  1  1  0  0  0
 20 18  1  0  0  0  0
 21 20  1  0  0  0  0
 21 22  1  0  0  0  0
 22 19  1  1  0  0  0
 24 26  1  6  0  0  0
 24 25  1  0  0  0  0
 24 22  1  0  0  0  0
 25 23  1  1  0  0  0
 26 25  1  0  0  0  0
 27 26  1  0  0  0  0
 29 28  1  1  0  0  0
 30 46  1  6  0  0  0
 30 31  1  0  0  0  0
 30 32  1  0  0  0  0
 31 36  1  1  0  0  0
 31 35  1  0  0  0  0
 32 29  1  1  0  0  0
 32 33  1  0  0  0  0
 33 34  1  1  0  0  0
 35 33  1  0  0  0  0
 36 37  1  0  0  0  0
 37 43  1  0  0  0  0
 38 37  1  0  0  0  0
 38 42  1  0  0  0  0
 39 41  1  0  0  0  0
 40 38  2  0  0  0  0
 41 44  2  0  0  0  0
 42 39  2  0  0  0  0
 42 43  1  0  0  0  0
 43 45  2  0  0  0  0
 45 44  1  0  0  0  0
 48 47  1  0  0  0  0
 48 46  1  0  0  0  0
M  END
>  <MODEL>
7

>  <REMARK>
 VINA RESULT:      -6.5      3.160      6.409
  Name = 
  12 active torsions:
  status: ('A' for Active; 'I' for Inactive)
    1  A    between atoms: C_1  and  N_16
    2  A    between atoms: C_3  and  C_7
    3  A    between atoms: C_3  and  C_43
    4  A    between atoms: C_4  and  C_35
    5  A    between atoms: N_5  and  C_40
    6  A    between atoms: C_9  and  N_16
    7  A    between atoms: C_9  and  N_22
    8  A    between atoms: O_10  and  C_41
    9  A    between atoms: C_11  and  C_41
   10  A    between atoms: C_17  and  C_40
   11  A    between atoms: C_18  and  N_26
   12  A    between atoms: C_19  and  C_35
                            x       y       z     vdW  Elec       q    Type
                         _______ _______ _______ _____ _____    ______ ____

>  <TORSDO>
F 12

$$$$
=
 OpenBabel11042417453D

 48 54  0  0  1  0  0  0  0  0999 V2000
  191.9340  174.5310  143.7570 C   0  0  2  0  0  3  0  0  0  0  0  0
  190.9570  174.5700  142.5990 C   0  0  0  0  0  2  0  0  0  0  0  0
  189.6410  174.4300  143.1880 N   0  0  0  0  0  0  0  0  0  0  0  0
  191.1100  174.7080  145.0290 C   0  0  0  0  0  2  0  0  0  0  0  0
  189.6630  174.4770  144.6380 C   0  0  0  0  0  2  0  0  0  0  0  0
  187.7660  175.6930  142.2940 C   0  0  0  0  0  3  0  0  0  0  0  0
  188.4440  174.5380  142.4010 C   0  0  0  0  0  0  0  0  0  0  0  0
  188.1200  176.9680  142.9970 C   0  0  1  0  0  3  0  0  0  0  0  0
  188.7340  177.9440  142.0100 C   0  0  0  0  0  1  0  0  0  0  0  0
  184.6070  178.2890  143.5450 C   0  0  0  0  0  3  0  0  0  0  0  0
  185.8430  178.5600  145.6090 C   0  0  0  0  0  0  0  0  0  0  0  0
  184.6610  178.7080  144.8770 C   0  0  0  0  0  3  0  0  0  0  0  0
  186.9720  177.9950  145.0070 C   0  0  0  0  0  3  0  0  0  0  0  0
  186.9240  177.5800  143.6660 C   0  0  0  0  0  0  0  0  0  0  0  0
  185.9110  179.0820  147.2770 Cl  0  0  0  0  0  0  0  0  0  0  0  0
  185.7350  177.7250  142.9410 C   0  0  0  0  0  3  0  0  0  0  0  0
  187.9450  173.3620  141.7470 N   0  0  0  0  0  2  0  0  0  0  0  0
  188.1880  173.0380  140.3460 C   0  0  2  0  0  3  0  0  0  0  0  0
  189.1510  171.8880  140.2610 C   0  0  0  0  0  2  0  0  0  0  0  0
  188.9340  174.1680  139.6830 C   0  0  0  0  0  2  0  0  0  0  0  0
  190.1780  173.6170  139.1650 N   0  0  0  0  0  2  0  0  0  0  0  0
  190.4450  172.4500  139.9060 N   0  0  2  0  0  0  0  0  0  0  0  0
  192.5710  171.3380  140.8790 O   0  0  0  0  0  1  0  0  0  0  0  0
  191.0940  171.5060  139.0020 C   0  0  2  0  0  3  0  0  0  0  0  0
  192.3000  170.8860  139.5840 C   0  0  1  0  0  3  0  0  0  0  0  0
  192.4300  172.0050  138.6390 N   0  0  0  0  0  0  0  0  0  0  0  0
  192.7510  171.4230  137.3480 C   0  0  0  0  0  1  0  0  0  0  0  0
  192.8950  176.6290  144.5330 O   0  0  0  0  0  1  0  0  0  0  0  0
  193.0080  175.6070  143.5840 C   0  0  1  0  0  3  0  0  0  0  0  0
  194.5650  173.6570  144.1210 C   0  0  2  0  0  3  0  0  0  0  0  0
  195.7830  173.0220  143.4630 C   0  0  2  0  0  3  0  0  0  0  0  0
  194.4310  175.0330  143.4980 C   0  0  1  0  0  3  0  0  0  0  0  0
  195.1030  174.9550  142.1270 C   0  0  2  0  0  3  0  0  0  0  0  0
  194.1870  174.4250  141.0300 C   0  0  0  0  0  1  0  0  0  0  0  0
  196.2180  173.9490  142.3330 C   0  0  0  0  0  2  0  0  0  0  0  0
  195.4250  171.6560  142.8960 C   0  0  0  0  0  2  0  0  0  0  0  0
  195.0800  170.7410  143.9710 N   0  0  0  0  0  0  0  0  0  0  0  0
  193.8820  170.1140  144.4200 C   0  0  0  0  0  0  0  0  0  0  0  0
  194.5690  168.8090  146.6930 C   0  0  0  0  0  3  0  0  0  0  0  0
  192.6920  170.0600  144.0180 O   0  0  0  0  0  0  0  0  0  0  0  0
  195.7960  168.7050  147.3970 C   0  0  0  0  0  3  0  0  0  0  0  0
  194.6260  169.5780  145.5430 C   0  0  0  0  0  0  0  0  0  0  0  0
  195.7630  170.1970  145.1030 C   0  0  0  0  0  0  0  0  0  0  0  0
  196.9810  169.3560  146.9330 C   0  0  0  0  0  3  0  0  0  0  0  0
  196.9850  170.1340  145.7480 C   0  0  0  0  0  3  0  0  0  0  0  0
  194.7920  173.7570  145.6210 C   0  0  0  0  0  2  0  0  0  0  0  0
  196.8170  173.7890  146.4970 C   0  0  0  0  0  1  0  0  0  0  0  0
  195.8670  174.6070  145.8860 O   0  0  0  0  0  0  0  0  0  0  0  0
  1 29  1  6  0  0  0
  1  4  1  0  0  0  0
  2  3  1  0  0  0  0
  2  1  1  0  0  0  0
  3  5  1  0  0  0  0
  5  4  1  0  0  0  0
  6  7  2  0  0  0  0
  6  8  1  0  0  0  0
  7  3  1  0  0  0  0
  8  9  1  6  0  0  0
  8 14  1  0  0  0  0
 10 12  1  0  0  0  0
 11 15  1  0  0  0  0
 12 11  2  0  0  0  0
 13 11  1  0  0  0  0
 14 13  2  0  0  0  0
 16 10  2  0  0  0  0
 16 14  1  0  0  0  0
 17  7  1  0  0  0  0
 18 17  1  1  0  0  0
 19 18  1  0  0  0  0
 20 18  1  0  0  0  0
 21 20  1  0  0  0  0
 21 22  1  0  0  0  0
 22 19  1  6  0  0  0
 24 26  1  6  0  0  0
 24 25  1  0  0  0  0
 24 22  1  0  0  0  0
 25 23  1  1  0  0  0
 26 25  1  0  0  0  0
 27 26  1  0  0  0  0
 29 28  1  1  0  0  0
 30 46  1  1  0  0  0
 31 36  1  6  0  0  0
 31 30  1  0  0  0  0
 32 29  1  6  0  0  0
 32 30  1  0  0  0  0
 33 34  1  6  0  0  0
 33 35  1  0  0  0  0
 33 32  1  0  0  0  0
 35 31  1  0  0  0  0
 36 37  1  0  0  0  0
 37 38  1  0  0  0  0
 37 43  1  0  0  0  0
 38 42  1  0  0  0  0
 39 41  1  0  0  0  0
 40 38  2  0  0  0  0
 42 39  2  0  0  0  0
 43 42  1  0  0  0  0
 43 45  2  0  0  0  0
 44 41  2  0  0  0  0
 45 44  1  0  0  0  0
 46 48  1  0  0  0  0
 48 47  1  0  0  0  0
M  END
>  <MODEL>
8

>  <REMARK>
 VINA RESULT:      -6.5      1.915      4.120
  Name = 
  12 active torsions:
  status: ('A' for Active; 'I' for Inactive)
    1  A    between atoms: C_1  and  N_16
    2  A    between atoms: C_3  and  C_7
    3  A    between atoms: C_3  and  C_43
    4  A    between atoms: C_4  and  C_35
    5  A    between atoms: N_5  and  C_40
    6  A    between atoms: C_9  and  N_16
    7  A    between atoms: C_9  and  N_22
    8  A    between atoms: O_10  and  C_41
    9  A    between atoms: C_11  and  C_41
   10  A    between atoms: C_17  and  C_40
   11  A    between atoms: C_18  and  N_26
   12  A    between atoms: C_19  and  C_35
                            x       y       z     vdW  Elec       q    Type
                         _______ _______ _______ _____ _____    ______ ____

>  <TORSDO>
F 12

$$$$
=
 OpenBabel11042417453D

 48 54  0  0  1  0  0  0  0  0999 V2000
  189.9820  172.9740  143.5330 C   0  0  2  0  0  3  0  0  0  0  0  0
  190.3510  174.4160  143.2490 C   0  0  0  0  0  2  0  0  0  0  0  0
  190.0490  175.1470  144.4630 N   0  0  0  0  0  0  0  0  0  0  0  0
  189.7880  172.8620  145.0420 C   0  0  0  0  0  2  0  0  0  0  0  0
  189.6800  174.2810  145.5670 C   0  0  0  0  0  2  0  0  0  0  0  0
  189.5010  177.4260  145.1050 C   0  0  0  0  0  3  0  0  0  0  0  0
  190.3790  176.5380  144.6110 C   0  0  0  0  0  0  0  0  0  0  0  0
  188.0920  177.1140  145.5060 C   0  0  1  0  0  3  0  0  0  0  0  0
  187.8610  177.5430  146.9440 C   0  0  0  0  0  1  0  0  0  0  0  0
  185.2650  179.3350  144.2950 C   0  0  0  0  0  3  0  0  0  0  0  0
  186.1330  178.1160  142.3920 C   0  0  0  0  0  0  0  0  0  0  0  0
  185.2320  179.0400  142.9290 C   0  0  0  0  0  3  0  0  0  0  0  0
  187.0670  177.4860  143.2200 C   0  0  0  0  0  3  0  0  0  0  0  0
  187.0990  177.7740  144.5950 C   0  0  0  0  0  0  0  0  0  0  0  0
  186.0940  177.7480  140.6810 Cl  0  0  0  0  0  0  0  0  0  0  0  0
  186.1980  178.7050  145.1260 C   0  0  0  0  0  3  0  0  0  0  0  0
  191.6710  176.9860  144.1770 N   0  0  0  0  0  2  0  0  0  0  0  0
  192.8630  176.9850  145.0170 C   0  0  2  0  0  3  0  0  0  0  0  0
  193.9870  176.3120  144.2830 C   0  0  0  0  0  2  0  0  0  0  0  0
  192.6430  176.0950  146.2130 C   0  0  0  0  0  2  0  0  0  0  0  0
  193.6760  175.0690  146.1810 N   0  0  0  0  0  2  0  0  0  0  0  0
  194.1170  174.9770  144.8470 N   0  0  2  0  0  0  0  0  0  0  0  0
  194.7830  172.9140  143.4320 O   0  0  0  0  0  1  0  0  0  0  0  0
  195.5410  174.6590  144.8860 C   0  0  2  0  0  3  0  0  0  0  0  0
  195.8910  173.4810  144.0680 C   0  0  1  0  0  3  0  0  0  0  0  0
  195.7390  173.3480  145.5240 N   0  0  0  0  0  0  0  0  0  0  0  0
  197.0780  173.3600  146.0840 C   0  0  0  0  0  1  0  0  0  0  0  0
  191.7190  171.3390  144.0180 O   0  0  0  0  0  1  0  0  0  0  0  0
  191.0610  172.0320  142.9960 C   0  0  1  0  0  3  0  0  0  0  0  0
  190.5030  171.7690  140.5190 C   0  0  2  0  0  3  0  0  0  0  0  0
  190.5610  170.6360  139.5040 C   0  0  2  0  0  3  0  0  0  0  0  0
  190.5540  171.1040  141.8810 C   0  0  1  0  0  3  0  0  0  0  0  0
  191.2510  169.7590  141.6800 C   0  0  2  0  0  3  0  0  0  0  0  0
  192.7710  169.8490  141.7230 C   0  0  0  0  0  1  0  0  0  0  0  0
  190.8450  169.3530  140.2770 C   0  0  0  0  0  2  0  0  0  0  0  0
  191.6760  170.8850  138.4980 C   0  0  0  0  0  2  0  0  0  0  0  0
  191.3640  172.0470  137.6810 N   0  0  0  0  0  0  0  0  0  0  0  0
  190.3570  172.3710  136.7280 C   0  0  0  0  0  0  0  0  0  0  0  0
  191.0510  174.8040  135.7590 C   0  0  0  0  0  3  0  0  0  0  0  0
  189.3250  171.8070  136.2850 O   0  0  0  0  0  0  0  0  0  0  0  0
  192.1470  175.6620  136.0340 C   0  0  0  0  0  3  0  0  0  0  0  0
  191.0450  173.6230  136.4810 C   0  0  0  0  0  0  0  0  0  0  0  0
  192.0090  173.2890  137.3910 C   0  0  0  0  0  0  0  0  0  0  0  0
  193.1530  175.3060  136.9850 C   0  0  0  0  0  3  0  0  0  0  0  0
  193.1000  174.0820  137.6980 C   0  0  0  0  0  3  0  0  0  0  0  0
  189.2070  172.5450  140.3400 C   0  0  0  0  0  2  0  0  0  0  0  0
  188.4170  174.6050  140.3050 C   0  0  0  0  0  1  0  0  0  0  0  0
  189.4790  173.8230  139.8510 O   0  0  0  0  0  0  0  0  0  0  0  0
  1 29  1  1  0  0  0
  1  4  1  0  0  0  0
  2  1  1  0  0  0  0
  2  3  1  0  0  0  0
  3  7  1  0  0  0  0
  3  5  1  0  0  0  0
  4  5  1  0  0  0  0
  6  8  1  0  0  0  0
  7  6  2  0  0  0  0
  8  9  1  1  0  0  0
 10 16  1  0  0  0  0
 11 12  1  0  0  0  0
 11 13  2  0  0  0  0
 12 10  2  0  0  0  0
 13 14  1  0  0  0  0
 14 16  2  0  0  0  0
 14  8  1  0  0  0  0
 15 11  1  0  0  0  0
 17  7  1  0  0  0  0
 18 17  1  6  0  0  0
 18 20  1  0  0  0  0
 19 18  1  0  0  0  0
 21 20  1  0  0  0  0
 22 19  1  1  0  0  0
 22 24  1  0  0  0  0
 22 21  1  0  0  0  0
 24 26  1  1  0  0  0
 25 23  1  6  0  0  0
 25 24  1  0  0  0  0
 25 26  1  0  0  0  0
 26 27  1  0  0  0  0
 29 28  1  1  0  0  0
 30 46  1  1  0  0  0
 30 32  1  0  0  0  0
 31 36  1  6  0  0  0
 31 35  1  0  0  0  0
 31 30  1  0  0  0  0
 32 29  1  1  0  0  0
 33 34  1  6  0  0  0
 33 32  1  0  0  0  0
 35 33  1  0  0  0  0
 37 36  1  0  0  0  0
 38 37  1  0  0  0  0
 39 41  2  0  0  0  0
 39 42  1  0  0  0  0
 40 38  2  0  0  0  0
 41 44  1  0  0  0  0
 42 38  1  0  0  0  0
 42 43  2  0  0  0  0
 43 37  1  0  0  0  0
 43 45  1  0  0  0  0
 44 45  2  0  0  0  0
 48 47  1  0  0  0  0
 48 46  1  0  0  0  0
M  END
>  <MODEL>
9

>  <REMARK>
 VINA RESULT:      -6.4      2.207      6.972
  Name = 
  12 active torsions:
  status: ('A' for Active; 'I' for Inactive)
    1  A    between atoms: C_1  and  N_16
    2  A    between atoms: C_3  and  C_7
    3  A    between atoms: C_3  and  C_43
    4  A    between atoms: C_4  and  C_35
    5  A    between atoms: N_5  and  C_40
    6  A    between atoms: C_9  and  N_16
    7  A    between atoms: C_9  and  N_22
    8  A    between atoms: O_10  and  C_41
    9  A    between atoms: C_11  and  C_41
   10  A    between atoms: C_17  and  C_40
   11  A    between atoms: C_18  and  N_26
   12  A    between atoms: C_19  and  C_35
                            x       y       z     vdW  Elec       q    Type
                         _______ _______ _______ _____ _____    ______ ____

>  <TORSDO>
F 12

$$$$
