=
 OpenBabel11042419173D

 43 48  0  0  1  0  0  0  0  0999 V2000
  188.1770  176.0860  144.4200 C   0  0  0  0  0  0  0  0  0  0  0  0
  189.8170  173.7040  141.2840 C   0  0  0  0  0  0  0  0  0  0  0  0
  186.9680  176.8130  144.1760 C   0  0  0  0  0  0  0  0  0  0  0  0
  188.6320  174.4360  141.0990 C   0  0  0  0  0  3  0  0  0  0  0  0
  186.9500  175.9640  141.8850 C   0  0  0  0  0  3  0  0  0  0  0  0
  184.4370  179.0930  145.7550 O   0  0  0  0  0  1  0  0  0  0  0  0
  188.7460  175.3030  143.3740 C   0  0  0  0  0  0  0  0  0  0  0  0
  185.1160  178.3000  144.8290 C   0  0  0  0  0  0  0  0  0  0  0  0
  190.4780  173.7960  142.5060 C   0  0  0  0  0  3  0  0  0  0  0  0
  186.2980  177.5940  145.1760 C   0  0  0  0  0  0  0  0  0  0  0  0
  186.3820  176.7420  142.8820 C   0  0  0  0  0  0  0  0  0  0  0  0
  188.1090  175.2350  142.1170 C   0  0  0  0  0  0  0  0  0  0  0  0
  185.2200  177.4440  142.5780 C   0  0  0  0  0  3  0  0  0  0  0  0
  189.9500  174.5900  143.5370 C   0  0  0  0  0  3  0  0  0  0  0  0
  184.5960  178.2180  143.5420 C   0  0  0  0  0  3  0  0  0  0  0  0
  190.3130  172.7840  140.3090 N   0  0  0  0  0  0  0  0  0  0  0  0
  191.3080  172.9690  139.4920 C   0  0  0  0  0  0  0  0  0  0  0  0
  191.6240  171.8920  138.5220 C   0  0  0  0  0  0  0  0  0  0  0  0
  192.0020  170.7560  138.9040 O   0  0  0  0  0  1  0  0  0  0  0  0
  191.4880  172.1430  137.1630 O   0  0  0  0  0  0  0  0  0  0  0  0
  192.0870  174.1340  139.5840 O   0  0  0  0  0  0  0  0  0  0  0  0
  193.6650  175.3600  141.5010 C   0  0  0  0  0  2  0  0  0  0  0  0
  195.9300  175.3140  142.3070 O   0  0  0  0  0  0  0  0  0  0  0  0
  195.7150  174.7150  139.9940 C   0  0  0  0  0  2  0  0  0  0  0  0
  193.4530  174.1460  139.3830 N   0  0  0  0  0  0  0  0  0  0  0  0
  194.2330  174.7630  140.2270 C   0  0  0  0  0  0  0  0  0  0  0  0
  196.4520  175.5480  141.0180 C   0  0  0  0  0  2  0  0  0  0  0  0
  194.7300  176.0500  142.3420 C   0  0  0  0  0  2  0  0  0  0  0  0
  186.2980  177.0730  147.6370 C   0  0  0  0  0  2  0  0  0  0  0  0
  186.8270  177.6580  146.5690 C   0  0  0  0  0  3  0  0  0  0  0  0
  188.7910  176.1810  145.6860 O   0  0  0  0  0  0  0  0  0  0  0  0
  190.3490  176.8270  147.3890 C   0  0  0  0  0  2  0  0  0  0  0  0
  190.1500  176.5270  145.9160 C   0  0  1  0  0  3  0  0  0  0  0  0
  190.7760  175.4770  146.8260 C   0  0  1  0  0  3  0  0  0  0  0  0
  192.2530  175.4210  146.5780 C   0  0  0  0  0  0  0  0  0  0  0  0
  194.9980  175.4160  145.9720 C   0  0  0  0  0  3  0  0  0  0  0  0
  194.2110  174.2920  145.6640 C   0  0  0  0  0  0  0  0  0  0  0  0
  194.4180  176.5380  146.5740 C   0  0  0  0  0  3  0  0  0  0  0  0
  193.0490  176.5410  146.8710 C   0  0  0  0  0  3  0  0  0  0  0  0
  192.8380  174.3060  145.9630 C   0  0  0  0  0  3  0  0  0  0  0  0
  195.7930  172.3760  145.6710 O   0  0  0  0  0  1  0  0  0  0  0  0
  194.4200  172.7520  143.8630 O   0  0  0  0  0  0  0  0  0  0  0  0
  194.8080  173.1160  145.0090 C   0  0  0  0  0  0  0  0  0  0  0  0
  1 31  1  0  0  0  0
  2  9  1  0  0  0  0
  3  1  1  0  0  0  0
  3 10  1  0  0  0  0
  4  2  2  0  0  0  0
  4 12  1  0  0  0  0
  5 12  2  0  0  0  0
  5 11  1  0  0  0  0
  7 14  1  0  0  0  0
  7  1  2  0  0  0  0
  8 10  2  0  0  0  0
  8  6  1  0  0  0  0
  9 14  2  0  0  0  0
 10 30  1  0  0  0  0
 11  3  2  0  0  0  0
 12  7  1  0  0  0  0
 13 11  1  0  0  0  0
 13 15  2  0  0  0  0
 15  8  1  0  0  0  0
 16  2  1  0  0  0  0
 17 21  1  0  0  0  0
 17 16  2  0  0  0  0
 18 19  1  0  0  0  0
 18 17  1  0  0  0  0
 20 18  2  0  0  0  0
 22 28  1  0  0  0  0
 23 28  1  0  0  0  0
 24 26  1  0  0  0  0
 24 27  1  0  0  0  0
 25 21  1  0  0  0  0
 25 26  2  0  0  0  0
 26 22  1  0  0  0  0
 27 23  1  0  0  0  0
 30 29  2  0  0  0  0
 33 31  1  1  0  0  0
 33 34  1  0  0  0  0
 33 32  1  0  0  0  0
 34 35  1  6  0  0  0
 34 32  1  0  0  0  0
 35 39  1  0  0  0  0
 36 38  1  0  0  0  0
 37 40  1  0  0  0  0
 37 36  2  0  0  0  0
 38 39  2  0  0  0  0
 40 35  2  0  0  0  0
 42 43  2  0  0  0  0
 43 37  1  0  0  0  0
 43 41  1  0  0  0  0
M  END
>  <MODEL>
1

>  <REMARK>
 VINA RESULT:      -8.2      0.000      0.000
  Name = 
  9 active torsions:
  status: ('A' for Active; 'I' for Inactive)
    1  A    between atoms: C_2  and  O_43
    2  A    between atoms: C_3  and  N_10
    3  A    between atoms: C_6  and  C_36
    4  A    between atoms: C_11  and  O_43
    5  A    between atoms: C_18  and  C_31
    6  A    between atoms: C_19  and  C_32
    7  A    between atoms: C_20  and  C_38
    8  A    between atoms: N_22  and  O_35
    9  A    between atoms: C_31  and  O_35
                            x       y       z     vdW  Elec       q    Type
                         _______ _______ _______ _____ _____    ______ ____

>  <TORSDO>
F 9

$$$$
=
 OpenBabel11042419173D

 43 48  0  0  1  0  0  0  0  0999 V2000
  188.2140  176.0440  144.4060 C   0  0  0  0  0  0  0  0  0  0  0  0
  189.8270  173.4400  141.4380 C   0  0  0  0  0  0  0  0  0  0  0  0
  187.0190  176.7750  144.1100 C   0  0  0  0  0  0  0  0  0  0  0  0
  188.6560  174.1790  141.1990 C   0  0  0  0  0  3  0  0  0  0  0  0
  186.9960  175.7820  141.8770 C   0  0  0  0  0  3  0  0  0  0  0  0
  184.5200  179.1920  145.5260 O   0  0  0  0  0  1  0  0  0  0  0  0
  188.7740  175.1870  143.4150 C   0  0  0  0  0  0  0  0  0  0  0  0
  185.1900  178.3320  144.6570 C   0  0  0  0  0  0  0  0  0  0  0  0
  190.4830  173.5980  142.6550 C   0  0  0  0  0  3  0  0  0  0  0  0
  186.3580  177.6290  145.0550 C   0  0  0  0  0  0  0  0  0  0  0  0
  186.4380  176.6320  142.8200 C   0  0  0  0  0  0  0  0  0  0  0  0
  188.1420  175.0500  142.1620 C   0  0  0  0  0  0  0  0  0  0  0  0
  185.2890  177.3320  142.4650 C   0  0  0  0  0  3  0  0  0  0  0  0
  189.9650  174.4660  143.6300 C   0  0  0  0  0  3  0  0  0  0  0  0
  184.6740  178.1760  143.3740 C   0  0  0  0  0  3  0  0  0  0  0  0
  190.3120  172.4520  140.5250 N   0  0  0  0  0  0  0  0  0  0  0  0
  190.0020  172.3270  139.2680 C   0  0  0  0  0  0  0  0  0  0  0  0
  190.5880  171.1920  138.5150 C   0  0  0  0  0  0  0  0  0  0  0  0
  191.7640  171.2360  138.0740 O   0  0  0  0  0  0  0  0  0  0  0  0
  189.8230  170.0520  138.3020 O   0  0  0  0  0  1  0  0  0  0  0  0
  189.1840  173.2850  138.6460 O   0  0  0  0  0  0  0  0  0  0  0  0
  187.4080  175.1440  137.6170 C   0  0  0  0  0  2  0  0  0  0  0  0
  187.3510  176.9080  135.9850 O   0  0  0  0  0  0  0  0  0  0  0  0
  188.9310  175.1760  135.4800 C   0  0  0  0  0  2  0  0  0  0  0  0
  189.4360  173.7870  137.3860 N   0  0  0  0  0  0  0  0  0  0  0  0
  188.5980  174.6200  136.8340 C   0  0  0  0  0  0  0  0  0  0  0  0
  187.8140  176.0540  134.9640 C   0  0  0  0  0  2  0  0  0  0  0  0
  186.5430  176.0870  136.7940 C   0  0  0  0  0  2  0  0  0  0  0  0
  186.3420  177.2570  147.5430 C   0  0  0  0  0  2  0  0  0  0  0  0
  186.8810  177.7720  146.4430 C   0  0  0  0  0  3  0  0  0  0  0  0
  188.8230  176.2090  145.6680 O   0  0  0  0  0  0  0  0  0  0  0  0
  190.3820  176.9330  147.3380 C   0  0  0  0  0  2  0  0  0  0  0  0
  190.1840  176.5550  145.8830 C   0  0  1  0  0  3  0  0  0  0  0  0
  190.7980  175.5510  146.8510 C   0  0  1  0  0  3  0  0  0  0  0  0
  192.2760  175.4680  146.6120 C   0  0  0  0  0  0  0  0  0  0  0  0
  195.0220  175.4030  146.0150 C   0  0  0  0  0  3  0  0  0  0  0  0
  194.2270  174.2660  145.7820 C   0  0  0  0  0  0  0  0  0  0  0  0
  194.4480  176.5670  146.5370 C   0  0  0  0  0  3  0  0  0  0  0  0
  193.0790  176.6000  146.8300 C   0  0  0  0  0  3  0  0  0  0  0  0
  192.8540  174.3090  146.0760 C   0  0  0  0  0  3  0  0  0  0  0  0
  194.0030  172.1190  144.5520 O   0  0  0  0  0  0  0  0  0  0  0  0
  196.0620  172.8360  145.2860 O   0  0  0  0  0  1  0  0  0  0  0  0
  194.8180  173.0440  145.2100 C   0  0  0  0  0  0  0  0  0  0  0  0
  1 31  1  0  0  0  0
  2  9  1  0  0  0  0
  3  1  1  0  0  0  0
  3 10  1  0  0  0  0
  4  2  2  0  0  0  0
  4 12  1  0  0  0  0
  5 12  2  0  0  0  0
  5 11  1  0  0  0  0
  7 14  1  0  0  0  0
  7  1  2  0  0  0  0
  8 10  2  0  0  0  0
  8  6  1  0  0  0  0
  9 14  2  0  0  0  0
 10 30  1  0  0  0  0
 11  3  2  0  0  0  0
 12  7  1  0  0  0  0
 13 11  1  0  0  0  0
 13 15  2  0  0  0  0
 15  8  1  0  0  0  0
 16  2  1  0  0  0  0
 17 16  2  0  0  0  0
 18 17  1  0  0  0  0
 19 18  2  0  0  0  0
 20 18  1  0  0  0  0
 21 17  1  0  0  0  0
 23 28  1  0  0  0  0
 24 26  1  0  0  0  0
 25 21  1  0  0  0  0
 26 25  2  0  0  0  0
 26 22  1  0  0  0  0
 27 24  1  0  0  0  0
 27 23  1  0  0  0  0
 28 22  1  0  0  0  0
 30 29  2  0  0  0  0
 33 31  1  1  0  0  0
 33 34  1  0  0  0  0
 33 32  1  0  0  0  0
 34 35  1  6  0  0  0
 34 32  1  0  0  0  0
 35 39  1  0  0  0  0
 36 38  1  0  0  0  0
 37 36  2  0  0  0  0
 37 40  1  0  0  0  0
 38 39  2  0  0  0  0
 40 35  2  0  0  0  0
 41 43  2  0  0  0  0
 43 42  1  0  0  0  0
 43 37  1  0  0  0  0
M  END
>  <MODEL>
2

>  <REMARK>
 VINA RESULT:      -7.8      2.143      3.554
  Name = 
  9 active torsions:
  status: ('A' for Active; 'I' for Inactive)
    1  A    between atoms: C_2  and  O_43
    2  A    between atoms: C_3  and  N_10
    3  A    between atoms: C_6  and  C_36
    4  A    between atoms: C_11  and  O_43
    5  A    between atoms: C_18  and  C_31
    6  A    between atoms: C_19  and  C_32
    7  A    between atoms: C_20  and  C_38
    8  A    between atoms: N_22  and  O_35
    9  A    between atoms: C_31  and  O_35
                            x       y       z     vdW  Elec       q    Type
                         _______ _______ _______ _____ _____    ______ ____

>  <TORSDO>
F 9

$$$$
=
 OpenBabel11042419173D

 43 48  0  0  1  0  0  0  0  0999 V2000
  187.7360  177.7790  144.1920 C   0  0  0  0  0  0  0  0  0  0  0  0
  191.9010  176.8550  144.1540 C   0  0  0  0  0  0  0  0  0  0  0  0
  187.0350  177.7640  145.4400 C   0  0  0  0  0  0  0  0  0  0  0  0
  191.1660  176.8560  145.3520 C   0  0  0  0  0  3  0  0  0  0  0  0
  189.1020  177.0990  146.5620 C   0  0  0  0  0  3  0  0  0  0  0  0
  183.6920  178.3570  147.0420 O   0  0  0  0  0  1  0  0  0  0  0  0
  189.1230  177.4520  144.1630 C   0  0  0  0  0  0  0  0  0  0  0  0
  185.0390  178.0470  146.8550 C   0  0  0  0  0  0  0  0  0  0  0  0
  191.2380  177.1260  142.9610 C   0  0  0  0  0  3  0  0  0  0  0  0
  185.6520  178.1180  145.5760 C   0  0  0  0  0  0  0  0  0  0  0  0
  187.7500  177.4010  146.6150 C   0  0  0  0  0  0  0  0  0  0  0  0
  189.7980  177.1340  145.3610 C   0  0  0  0  0  0  0  0  0  0  0  0
  187.1190  177.3460  147.8540 C   0  0  0  0  0  3  0  0  0  0  0  0
  189.8640  177.4170  142.9660 C   0  0  0  0  0  3  0  0  0  0  0  0
  185.7760  177.6630  147.9710 C   0  0  0  0  0  3  0  0  0  0  0  0
  193.3210  176.6950  144.1240 N   0  0  0  0  0  0  0  0  0  0  0  0
  193.9840  175.5760  144.1140 C   0  0  0  0  0  0  0  0  0  0  0  0
  195.4650  175.6420  144.1320 C   0  0  0  0  0  0  0  0  0  0  0  0
  196.0810  176.6480  143.6980 O   0  0  0  0  0  0  0  0  0  0  0  0
  196.1850  174.5720  144.6470 O   0  0  0  0  0  1  0  0  0  0  0  0
  193.2970  174.3530  144.0270 O   0  0  0  0  0  0  0  0  0  0  0  0
  190.7360  173.3040  143.9390 C   0  0  0  0  0  2  0  0  0  0  0  0
  189.0130  172.8190  142.3350 O   0  0  0  0  0  0  0  0  0  0  0  0
  191.2310  172.7280  141.4270 C   0  0  0  0  0  2  0  0  0  0  0  0
  192.8610  173.8180  142.8310 N   0  0  0  0  0  0  0  0  0  0  0  0
  191.6850  173.2590  142.7560 C   0  0  0  0  0  0  0  0  0  0  0  0
  189.8880  172.0450  141.5460 C   0  0  0  0  0  2  0  0  0  0  0  0
  189.4260  172.5820  143.6600 C   0  0  0  0  0  2  0  0  0  0  0  0
  184.5350  179.8190  144.0980 C   0  0  0  0  0  2  0  0  0  0  0  0
  184.8640  178.5670  144.3930 C   0  0  0  0  0  3  0  0  0  0  0  0
  187.0300  178.0960  143.0130 O   0  0  0  0  0  0  0  0  0  0  0  0
  185.5320  177.7650  141.1720 C   0  0  0  0  0  2  0  0  0  0  0  0
  186.6400  177.1640  142.0130 C   0  0  1  0  0  3  0  0  0  0  0  0
  186.9610  177.7510  140.6440 C   0  0  1  0  0  3  0  0  0  0  0  0
  187.1800  176.6370  139.6650 C   0  0  0  0  0  0  0  0  0  0  0  0
  187.7550  174.6060  137.8090 C   0  0  0  0  0  3  0  0  0  0  0  0
  187.0260  175.7380  137.4040 C   0  0  0  0  0  0  0  0  0  0  0  0
  188.2000  174.4910  139.1300 C   0  0  0  0  0  3  0  0  0  0  0  0
  187.9160  175.5060  140.0540 C   0  0  0  0  0  3  0  0  0  0  0  0
  186.7490  176.7530  138.3360 C   0  0  0  0  0  3  0  0  0  0  0  0
  185.2080  175.9620  135.7250 O   0  0  0  0  0  1  0  0  0  0  0  0
  187.4130  175.9520  135.0670 O   0  0  0  0  0  0  0  0  0  0  0  0
  186.5750  175.8790  136.0090 C   0  0  0  0  0  0  0  0  0  0  0  0
  1  3  1  0  0  0  0
  2  4  2  0  0  0  0
  3 10  2  0  0  0  0
  3 11  1  0  0  0  0
  4 12  1  0  0  0  0
  5 11  1  0  0  0  0
  7  1  2  0  0  0  0
  7 12  1  0  0  0  0
  8  6  1  0  0  0  0
  8 15  2  0  0  0  0
  9 14  2  0  0  0  0
  9  2  1  0  0  0  0
 10  8  1  0  0  0  0
 11 13  2  0  0  0  0
 12  5  2  0  0  0  0
 13 15  1  0  0  0  0
 14  7  1  0  0  0  0
 16  2  1  0  0  0  0
 17 16  2  0  0  0  0
 17 18  1  0  0  0  0
 18 20  1  0  0  0  0
 19 18  2  0  0  0  0
 21 17  1  0  0  0  0
 23 28  1  0  0  0  0
 24 27  1  0  0  0  0
 24 26  1  0  0  0  0
 25 21  1  0  0  0  0
 26 25  2  0  0  0  0
 26 22  1  0  0  0  0
 27 23  1  0  0  0  0
 28 22  1  0  0  0  0
 29 30  2  0  0  0  0
 30 10  1  0  0  0  0
 31  1  1  0  0  0  0
 32 33  1  0  0  0  0
 33 31  1  1  0  0  0
 34 35  1  6  0  0  0
 34 32  1  0  0  0  0
 34 33  1  0  0  0  0
 35 39  1  0  0  0  0
 36 38  1  0  0  0  0
 37 36  2  0  0  0  0
 37 40  1  0  0  0  0
 38 39  2  0  0  0  0
 40 35  2  0  0  0  0
 41 43  1  0  0  0  0
 42 43  2  0  0  0  0
 43 37  1  0  0  0  0
M  END
>  <MODEL>
3

>  <REMARK>
 VINA RESULT:      -7.7      2.803      6.898
  Name = 
  9 active torsions:
  status: ('A' for Active; 'I' for Inactive)
    1  A    between atoms: C_2  and  O_43
    2  A    between atoms: C_3  and  N_10
    3  A    between atoms: C_6  and  C_36
    4  A    between atoms: C_11  and  O_43
    5  A    between atoms: C_18  and  C_31
    6  A    between atoms: C_19  and  C_32
    7  A    between atoms: C_20  and  C_38
    8  A    between atoms: N_22  and  O_35
    9  A    between atoms: C_31  and  O_35
                            x       y       z     vdW  Elec       q    Type
                         _______ _______ _______ _____ _____    ______ ____

>  <TORSDO>
F 9

$$$$
=
 OpenBabel11042419173D

 43 48  0  0  1  0  0  0  0  0999 V2000
  191.0420  174.5530  143.6000 C   0  0  0  0  0  0  0  0  0  0  0  0
  187.8090  176.6960  141.8250 C   0  0  0  0  0  0  0  0  0  0  0  0
  192.0700  175.2860  144.2750 C   0  0  0  0  0  0  0  0  0  0  0  0
  188.8430  177.3670  142.5010 C   0  0  0  0  0  3  0  0  0  0  0  0
  190.9290  177.3680  143.6970 C   0  0  0  0  0  3  0  0  0  0  0  0
  195.2520  174.9300  146.2360 O   0  0  0  0  0  1  0  0  0  0  0  0
  189.9680  175.2590  142.9850 C   0  0  0  0  0  0  0  0  0  0  0  0
  194.1520  175.4790  145.5780 C   0  0  0  0  0  0  0  0  0  0  0  0
  187.8730  175.3110  141.7080 C   0  0  0  0  0  3  0  0  0  0  0  0
  193.1680  174.6640  144.9590 C   0  0  0  0  0  0  0  0  0  0  0  0
  191.9920  176.7060  144.2930 C   0  0  0  0  0  0  0  0  0  0  0  0
  189.9130  176.6670  143.0600 C   0  0  0  0  0  0  0  0  0  0  0  0
  192.9720  177.4740  144.9130 C   0  0  0  0  0  3  0  0  0  0  0  0
  188.9420  174.6010  142.2780 C   0  0  0  0  0  3  0  0  0  0  0  0
  194.0430  176.8660  145.5470 C   0  0  0  0  0  3  0  0  0  0  0  0
  186.6400  177.3680  141.3480 N   0  0  0  0  0  0  0  0  0  0  0  0
  185.5010  177.4900  141.9640 C   0  0  0  0  0  0  0  0  0  0  0  0
  184.4000  178.1900  141.2590 C   0  0  0  0  0  0  0  0  0  0  0  0
  184.5910  178.7760  140.1640 O   0  0  0  0  0  0  0  0  0  0  0  0
  183.1290  178.1890  141.8180 O   0  0  0  0  0  1  0  0  0  0  0  0
  185.3590  177.0210  143.2800 O   0  0  0  0  0  0  0  0  0  0  0  0
  186.9520  176.6860  145.5200 C   0  0  0  0  0  2  0  0  0  0  0  0
  187.7170  177.9390  147.4230 O   0  0  0  0  0  0  0  0  0  0  0  0
  185.5850  178.6540  146.5900 C   0  0  0  0  0  2  0  0  0  0  0  0
  185.1390  177.8560  144.3580 N   0  0  0  0  0  0  0  0  0  0  0  0
  185.8240  177.6980  145.4570 C   0  0  0  0  0  0  0  0  0  0  0  0
  186.4010  178.2710  147.8030 C   0  0  0  0  0  2  0  0  0  0  0  0
  187.6140  176.6400  146.8890 C   0  0  0  0  0  2  0  0  0  0  0  0
  194.3220  172.4480  144.6690 C   0  0  0  0  0  2  0  0  0  0  0  0
  193.2740  173.1790  145.0300 C   0  0  0  0  0  3  0  0  0  0  0  0
  191.1310  173.1470  143.5390 O   0  0  0  0  0  0  0  0  0  0  0  0
  191.5890  170.9320  142.7470 C   0  0  0  0  0  2  0  0  0  0  0  0
  191.4310  172.3920  142.3730 C   0  0  1  0  0  3  0  0  0  0  0  0
  190.2910  171.4160  142.1130 C   0  0  1  0  0  3  0  0  0  0  0  0
  190.2350  171.0950  140.6490 C   0  0  0  0  0  0  0  0  0  0  0  0
  190.2980  170.5430  137.8940 C   0  0  0  0  0  3  0  0  0  0  0  0
  189.6950  171.7260  138.3570 C   0  0  0  0  0  0  0  0  0  0  0  0
  190.8700  169.6430  138.8000 C   0  0  0  0  0  3  0  0  0  0  0  0
  190.8420  169.9220  140.1720 C   0  0  0  0  0  3  0  0  0  0  0  0
  189.6750  171.9990  139.7350 C   0  0  0  0  0  3  0  0  0  0  0  0
  188.2850  173.7150  137.8790 O   0  0  0  0  0  1  0  0  0  0  0  0
  189.3720  172.6150  136.1750 O   0  0  0  0  0  0  0  0  0  0  0  0
  189.1110  172.6900  137.4090 C   0  0  0  0  0  0  0  0  0  0  0  0
  1  3  1  0  0  0  0
  2  4  2  0  0  0  0
  3 11  2  0  0  0  0
  3 10  1  0  0  0  0
  4 12  1  0  0  0  0
  5 11  1  0  0  0  0
  7 12  1  0  0  0  0
  7  1  2  0  0  0  0
  8  6  1  0  0  0  0
  9  2  1  0  0  0  0
  9 14  2  0  0  0  0
 10 30  1  0  0  0  0
 10  8  2  0  0  0  0
 11 13  1  0  0  0  0
 12  5  2  0  0  0  0
 13 15  2  0  0  0  0
 14  7  1  0  0  0  0
 15  8  1  0  0  0  0
 16  2  1  0  0  0  0
 16 17  2  0  0  0  0
 17 21  1  0  0  0  0
 18 20  1  0  0  0  0
 18 17  1  0  0  0  0
 19 18  2  0  0  0  0
 21 25  1  0  0  0  0
 22 28  1  0  0  0  0
 23 27  1  0  0  0  0
 24 27  1  0  0  0  0
 25 26  2  0  0  0  0
 26 22  1  0  0  0  0
 26 24  1  0  0  0  0
 28 23  1  0  0  0  0
 29 30  2  0  0  0  0
 31  1  1  0  0  0  0
 33 32  1  0  0  0  0
 33 31  1  1  0  0  0
 34 35  1  6  0  0  0
 34 33  1  0  0  0  0
 34 32  1  0  0  0  0
 36 37  2  0  0  0  0
 36 38  1  0  0  0  0
 37 40  1  0  0  0  0
 38 39  2  0  0  0  0
 39 35  1  0  0  0  0
 40 35  2  0  0  0  0
 42 43  2  0  0  0  0
 43 41  1  0  0  0  0
 43 37  1  0  0  0  0
M  END
>  <MODEL>
4

>  <REMARK>
 VINA RESULT:      -7.6      2.864      8.316
  Name = 
  9 active torsions:
  status: ('A' for Active; 'I' for Inactive)
    1  A    between atoms: C_2  and  O_43
    2  A    between atoms: C_3  and  N_10
    3  A    between atoms: C_6  and  C_36
    4  A    between atoms: C_11  and  O_43
    5  A    between atoms: C_18  and  C_31
    6  A    between atoms: C_19  and  C_32
    7  A    between atoms: C_20  and  C_38
    8  A    between atoms: N_22  and  O_35
    9  A    between atoms: C_31  and  O_35
                            x       y       z     vdW  Elec       q    Type
                         _______ _______ _______ _____ _____    ______ ____

>  <TORSDO>
F 9

$$$$
=
 OpenBabel11042419173D

 43 48  0  0  1  0  0  0  0  0999 V2000
  191.9870  173.5620  145.0470 C   0  0  0  0  0  0  0  0  0  0  0  0
  189.0370  176.2020  146.6360 C   0  0  0  0  0  0  0  0  0  0  0  0
  193.3700  173.8450  145.2870 C   0  0  0  0  0  0  0  0  0  0  0  0
  190.4070  176.4320  146.8440 C   0  0  0  0  0  3  0  0  0  0  0  0
  192.7180  175.8580  146.5090 C   0  0  0  0  0  3  0  0  0  0  0  0
  196.8610  172.5950  144.7010 O   0  0  0  0  0  1  0  0  0  0  0  0
  190.9930  174.4480  145.5540 C   0  0  0  0  0  0  0  0  0  0  0  0
  195.7820  173.3730  145.1190 C   0  0  0  0  0  0  0  0  0  0  0  0
  188.6500  175.1100  145.8640 C   0  0  0  0  0  3  0  0  0  0  0  0
  194.4400  172.9930  144.8530 C   0  0  0  0  0  0  0  0  0  0  0  0
  193.7060  175.0190  146.0160 C   0  0  0  0  0  0  0  0  0  0  0  0
  191.3730  175.5810  146.3030 C   0  0  0  0  0  0  0  0  0  0  0  0
  195.0320  175.3590  146.2630 C   0  0  0  0  0  3  0  0  0  0  0  0
  189.6170  174.2460  145.3260 C   0  0  0  0  0  3  0  0  0  0  0  0
  196.0590  174.5450  145.8160 C   0  0  0  0  0  3  0  0  0  0  0  0
  188.0210  176.9790  147.2750 N   0  0  0  0  0  0  0  0  0  0  0  0
  187.2600  177.8790  146.7230 C   0  0  0  0  0  0  0  0  0  0  0  0
  186.3000  178.6050  147.5880 C   0  0  0  0  0  0  0  0  0  0  0  0
  185.0840  178.2880  147.6270 O   0  0  0  0  0  0  0  0  0  0  0  0
  186.7560  179.6510  148.3790 O   0  0  0  0  0  1  0  0  0  0  0  0
  187.3180  178.0960  145.3360 O   0  0  0  0  0  0  0  0  0  0  0  0
  187.6050  177.7960  142.5980 C   0  0  0  0  0  2  0  0  0  0  0  0
  186.2740  177.2640  140.6690 O   0  0  0  0  0  0  0  0  0  0  0  0
  185.0370  178.3140  142.4350 C   0  0  0  0  0  2  0  0  0  0  0  0
  186.1950  178.2530  144.5500 N   0  0  0  0  0  0  0  0  0  0  0  0
  186.2900  178.1800  143.2510 C   0  0  0  0  0  0  0  0  0  0  0  0
  185.3490  178.2870  140.9560 C   0  0  0  0  0  2  0  0  0  0  0  0
  187.5160  177.7840  141.0800 C   0  0  0  0  0  2  0  0  0  0  0  0
  194.2450  170.4930  144.6490 C   0  0  0  0  0  2  0  0  0  0  0  0
  194.1510  171.7160  144.1400 C   0  0  0  0  0  3  0  0  0  0  0  0
  191.6420  172.4230  144.2890 O   0  0  0  0  0  0  0  0  0  0  0  0
  191.0070  171.0110  142.4610 C   0  0  0  0  0  2  0  0  0  0  0  0
  191.4080  172.4090  142.8880 C   0  0  1  0  0  3  0  0  0  0  0  0
  189.9400  172.0840  142.6390 C   0  0  1  0  0  3  0  0  0  0  0  0
  189.5170  172.6690  141.3250 C   0  0  0  0  0  0  0  0  0  0  0  0
  188.5610  173.7030  138.8930 C   0  0  0  0  0  3  0  0  0  0  0  0
  189.3270  172.5240  138.8990 C   0  0  0  0  0  0  0  0  0  0  0  0
  188.2690  174.3600  140.0930 C   0  0  0  0  0  3  0  0  0  0  0  0
  188.7420  173.8410  141.3060 C   0  0  0  0  0  3  0  0  0  0  0  0
  189.7940  172.0090  140.1200 C   0  0  0  0  0  3  0  0  0  0  0  0
  190.1600  170.5250  137.6810 O   0  0  0  0  0  1  0  0  0  0  0  0
  189.3590  172.3480  136.5280 O   0  0  0  0  0  0  0  0  0  0  0  0
  189.6190  171.8140  137.6430 C   0  0  0  0  0  0  0  0  0  0  0  0
  1  3  2  0  0  0  0
  1  7  1  0  0  0  0
  2  4  1  0  0  0  0
  2 16  1  0  0  0  0
  3 11  1  0  0  0  0
  6  8  1  0  0  0  0
  7 12  1  0  0  0  0
  8 15  1  0  0  0  0
  9  2  2  0  0  0  0
 10  8  2  0  0  0  0
 10  3  1  0  0  0  0
 11 13  1  0  0  0  0
 11  5  2  0  0  0  0
 12  5  1  0  0  0  0
 12  4  2  0  0  0  0
 14  7  2  0  0  0  0
 14  9  1  0  0  0  0
 15 13  2  0  0  0  0
 17 16  2  0  0  0  0
 17 18  1  0  0  0  0
 18 19  2  0  0  0  0
 18 20  1  0  0  0  0
 21 17  1  0  0  0  0
 22 26  1  0  0  0  0
 23 27  1  0  0  0  0
 23 28  1  0  0  0  0
 24 26  1  0  0  0  0
 25 21  1  0  0  0  0
 26 25  2  0  0  0  0
 27 24  1  0  0  0  0
 28 22  1  0  0  0  0
 30 29  2  0  0  0  0
 30 10  1  0  0  0  0
 31  1  1  0  0  0  0
 32 34  1  0  0  0  0
 32 33  1  0  0  0  0
 33 31  1  1  0  0  0
 34 35  1  6  0  0  0
 34 33  1  0  0  0  0
 36 37  2  0  0  0  0
 36 38  1  0  0  0  0
 37 40  1  0  0  0  0
 38 39  2  0  0  0  0
 39 35  1  0  0  0  0
 40 35  2  0  0  0  0
 42 43  2  0  0  0  0
 43 41  1  0  0  0  0
 43 37  1  0  0  0  0
M  END
>  <MODEL>
5

>  <REMARK>
 VINA RESULT:      -7.4      2.985      8.954
  Name = 
  9 active torsions:
  status: ('A' for Active; 'I' for Inactive)
    1  A    between atoms: C_2  and  O_43
    2  A    between atoms: C_3  and  N_10
    3  A    between atoms: C_6  and  C_36
    4  A    between atoms: C_11  and  O_43
    5  A    between atoms: C_18  and  C_31
    6  A    between atoms: C_19  and  C_32
    7  A    between atoms: C_20  and  C_38
    8  A    between atoms: N_22  and  O_35
    9  A    between atoms: C_31  and  O_35
                            x       y       z     vdW  Elec       q    Type
                         _______ _______ _______ _____ _____    ______ ____

>  <TORSDO>
F 9

$$$$
=
 OpenBabel11042419173D

 43 48  0  0  1  0  0  0  0  0999 V2000
  191.6660  175.6790  143.1600 C   0  0  0  0  0  0  0  0  0  0  0  0
  188.5560  176.9440  145.7930 C   0  0  0  0  0  0  0  0  0  0  0  0
  191.3980  174.6240  142.2300 C   0  0  0  0  0  0  0  0  0  0  0  0
  188.3460  175.9140  144.8600 C   0  0  0  0  0  3  0  0  0  0  0  0
  189.1320  174.4450  143.1260 C   0  0  0  0  0  3  0  0  0  0  0  0
  192.8900  172.5890  139.4510 O   0  0  0  0  0  1  0  0  0  0  0  0
  190.6410  176.0960  144.0600 C   0  0  0  0  0  0  0  0  0  0  0  0
  191.9980  173.0920  140.3970 C   0  0  0  0  0  0  0  0  0  0  0  0
  189.8170  177.5280  145.8740 C   0  0  0  0  0  3  0  0  0  0  0  0
  192.3500  174.1630  141.2600 C   0  0  0  0  0  0  0  0  0  0  0  0
  190.1150  174.0120  142.2490 C   0  0  0  0  0  0  0  0  0  0  0  0
  189.3720  175.4840  144.0160 C   0  0  0  0  0  0  0  0  0  0  0  0
  189.8020  172.9670  141.3850 C   0  0  0  0  0  3  0  0  0  0  0  0
  190.8490  177.1060  145.0200 C   0  0  0  0  0  3  0  0  0  0  0  0
  190.7360  172.5100  140.4700 C   0  0  0  0  0  3  0  0  0  0  0  0
  187.4990  177.4900  146.5860 N   0  0  0  0  0  0  0  0  0  0  0  0
  186.6700  178.4320  146.2440 C   0  0  0  0  0  0  0  0  0  0  0  0
  185.6750  178.8830  147.2460 C   0  0  0  0  0  0  0  0  0  0  0  0
  185.9410  179.7950  148.0700 O   0  0  0  0  0  1  0  0  0  0  0  0
  184.4190  178.2910  147.2690 O   0  0  0  0  0  0  0  0  0  0  0  0
  186.6930  178.9500  144.9380 O   0  0  0  0  0  0  0  0  0  0  0  0
  187.3200  178.2130  142.3430 C   0  0  0  0  0  2  0  0  0  0  0  0
  186.2960  177.1450  140.4480 O   0  0  0  0  0  0  0  0  0  0  0  0
  184.7400  178.2910  141.8690 C   0  0  0  0  0  2  0  0  0  0  0  0
  185.6530  178.7890  144.0450 N   0  0  0  0  0  0  0  0  0  0  0  0
  185.9010  178.5000  142.7970 C   0  0  0  0  0  0  0  0  0  0  0  0
  185.2140  178.0490  140.4540 C   0  0  0  0  0  2  0  0  0  0  0  0
  187.4020  177.9160  140.8530 C   0  0  0  0  0  2  0  0  0  0  0  0
  194.1940  175.3880  140.0650 C   0  0  0  0  0  2  0  0  0  0  0  0
  193.6900  174.8060  141.1480 C   0  0  0  0  0  3  0  0  0  0  0  0
  192.9480  176.2660  143.1810 O   0  0  0  0  0  0  0  0  0  0  0  0
  194.6060  176.5120  144.8930 C   0  0  0  0  0  2  0  0  0  0  0  0
  194.1150  175.6710  143.7320 C   0  0  1  0  0  3  0  0  0  0  0  0
  193.8160  175.2380  145.1610 C   0  0  1  0  0  3  0  0  0  0  0  0
  194.7140  174.0960  145.5330 C   0  0  0  0  0  0  0  0  0  0  0  0
  196.4700  171.9670  146.0700 C   0  0  0  0  0  3  0  0  0  0  0  0
  195.1260  171.7030  145.7490 C   0  0  0  0  0  0  0  0  0  0  0  0
  196.9350  173.2860  146.1180 C   0  0  0  0  0  3  0  0  0  0  0  0
  196.0610  174.3460  145.8450 C   0  0  0  0  0  3  0  0  0  0  0  0
  194.2570  172.7720  145.4740 C   0  0  0  0  0  3  0  0  0  0  0  0
  195.1400  169.3500  146.5470 O   0  0  0  0  0  1  0  0  0  0  0  0
  193.7350  169.9990  144.8440 O   0  0  0  0  0  0  0  0  0  0  0  0
  194.6330  170.3180  145.6740 C   0  0  0  0  0  0  0  0  0  0  0  0
  1 31  1  0  0  0  0
  1  7  1  0  0  0  0
  2  9  1  0  0  0  0
  2 16  1  0  0  0  0
  3 11  1  0  0  0  0
  3  1  2  0  0  0  0
  4  2  2  0  0  0  0
  5 12  1  0  0  0  0
  6  8  1  0  0  0  0
  7 14  1  0  0  0  0
  8 15  1  0  0  0  0
  8 10  2  0  0  0  0
 10  3  1  0  0  0  0
 11  5  2  0  0  0  0
 12  7  2  0  0  0  0
 12  4  1  0  0  0  0
 13 11  1  0  0  0  0
 14  9  2  0  0  0  0
 15 13  2  0  0  0  0
 17 16  2  0  0  0  0
 17 18  1  0  0  0  0
 18 20  2  0  0  0  0
 18 19  1  0  0  0  0
 21 17  1  0  0  0  0
 22 26  1  0  0  0  0
 23 27  1  0  0  0  0
 23 28  1  0  0  0  0
 24 26  1  0  0  0  0
 25 21  1  0  0  0  0
 26 25  2  0  0  0  0
 27 24  1  0  0  0  0
 28 22  1  0  0  0  0
 29 30  2  0  0  0  0
 30 10  1  0  0  0  0
 32 34  1  0  0  0  0
 33 31  1  6  0  0  0
 33 32  1  0  0  0  0
 33 34  1  0  0  0  0
 34 35  1  1  0  0  0
 35 39  1  0  0  0  0
 36 38  1  0  0  0  0
 37 36  2  0  0  0  0
 39 38  2  0  0  0  0
 40 35  2  0  0  0  0
 40 37  1  0  0  0  0
 42 43  2  0  0  0  0
 43 37  1  0  0  0  0
 43 41  1  0  0  0  0
M  END
>  <MODEL>
6

>  <REMARK>
 VINA RESULT:      -7.4      2.686      7.556
  Name = 
  9 active torsions:
  status: ('A' for Active; 'I' for Inactive)
    1  A    between atoms: C_2  and  O_43
    2  A    between atoms: C_3  and  N_10
    3  A    between atoms: C_6  and  C_36
    4  A    between atoms: C_11  and  O_43
    5  A    between atoms: C_18  and  C_31
    6  A    between atoms: C_19  and  C_32
    7  A    between atoms: C_20  and  C_38
    8  A    between atoms: N_22  and  O_35
    9  A    between atoms: C_31  and  O_35
                            x       y       z     vdW  Elec       q    Type
                         _______ _______ _______ _____ _____    ______ ____

>  <TORSDO>
F 9

$$$$
=
 OpenBabel11042419173D

 43 48  0  0  1  0  0  0  0  0999 V2000
  190.8550  175.2870  144.3150 C   0  0  0  0  0  0  0  0  0  0  0  0
  190.1220  173.5750  140.4780 C   0  0  0  0  0  0  0  0  0  0  0  0
  192.1710  175.7580  144.6230 C   0  0  0  0  0  0  0  0  0  0  0  0
  191.3950  174.0540  140.8300 C   0  0  0  0  0  3  0  0  0  0  0  0
  192.9190  175.0310  142.4130 C   0  0  0  0  0  3  0  0  0  0  0  0
  194.2470  177.4290  147.2670 O   0  0  0  0  0  1  0  0  0  0  0  0
  190.6030  174.6940  143.0440 C   0  0  0  0  0  0  0  0  0  0  0  0
  193.8540  176.8160  146.0780 C   0  0  0  0  0  0  0  0  0  0  0  0
  189.1000  173.6320  141.4200 C   0  0  0  0  0  3  0  0  0  0  0  0
  192.5130  176.4060  145.8570 C   0  0  0  0  0  0  0  0  0  0  0  0
  193.1940  175.6000  143.6470 C   0  0  0  0  0  0  0  0  0  0  0  0
  191.6400  174.5920  142.0950 C   0  0  0  0  0  0  0  0  0  0  0  0
  194.4980  176.0180  143.8950 C   0  0  0  0  0  3  0  0  0  0  0  0
  189.3390  174.1810  142.6910 C   0  0  0  0  0  3  0  0  0  0  0  0
  194.8240  176.6170  145.1000 C   0  0  0  0  0  3  0  0  0  0  0  0
  189.8060  173.1320  139.1550 N   0  0  0  0  0  0  0  0  0  0  0  0
  189.9260  171.9250  138.6840 C   0  0  0  0  0  0  0  0  0  0  0  0
  189.5840  171.6970  137.2590 C   0  0  0  0  0  0  0  0  0  0  0  0
  189.2080  172.6380  136.5170 O   0  0  0  0  0  0  0  0  0  0  0  0
  189.6920  170.4160  136.7330 O   0  0  0  0  0  1  0  0  0  0  0  0
  190.3100  170.8730  139.5320 O   0  0  0  0  0  0  0  0  0  0  0  0
  191.3570  170.6180  142.0830 C   0  0  0  0  0  2  0  0  0  0  0  0
  193.1000  169.4260  143.2320 O   0  0  0  0  0  0  0  0  0  0  0  0
  193.5780  169.8420  140.9190 C   0  0  0  0  0  2  0  0  0  0  0  0
  191.6150  170.4390  139.6520 N   0  0  0  0  0  0  0  0  0  0  0  0
  192.1720  170.3600  140.8290 C   0  0  0  0  0  0  0  0  0  0  0  0
  194.0860  169.8980  142.3420 C   0  0  0  0  0  2  0  0  0  0  0  0
  192.1900  170.4940  143.3500 C   0  0  0  0  0  2  0  0  0  0  0  0
  191.2920  175.9610  148.0110 C   0  0  0  0  0  2  0  0  0  0  0  0
  191.4730  176.6580  146.8940 C   0  0  0  0  0  3  0  0  0  0  0  0
  189.8420  175.4000  145.2900 O   0  0  0  0  0  0  0  0  0  0  0  0
  187.9350  176.4180  146.3250 C   0  0  0  0  0  2  0  0  0  0  0  0
  188.5140  175.8440  145.0470 C   0  0  1  0  0  3  0  0  0  0  0  0
  188.4580  177.3540  145.2430 C   0  0  1  0  0  3  0  0  0  0  0  0
  187.3450  177.9220  144.4150 C   0  0  0  0  0  0  0  0  0  0  0  0
  185.1540  178.8590  142.9230 C   0  0  0  0  0  3  0  0  0  0  0  0
  186.1750  178.1290  142.2860 C   0  0  0  0  0  0  0  0  0  0  0  0
  185.2240  179.1140  144.2960 C   0  0  0  0  0  3  0  0  0  0  0  0
  186.3140  178.6430  145.0400 C   0  0  0  0  0  3  0  0  0  0  0  0
  187.2620  177.6580  143.0410 C   0  0  0  0  0  3  0  0  0  0  0  0
  187.0650  177.0210  140.2490 O   0  0  0  0  0  1  0  0  0  0  0  0
  185.1490  178.2910  140.1470 O   0  0  0  0  0  0  0  0  0  0  0  0
  186.0980  177.8350  140.8460 C   0  0  0  0  0  0  0  0  0  0  0  0
  1  3  1  0  0  0  0
  1 31  1  0  0  0  0
  2  4  2  0  0  0  0
  2  9  1  0  0  0  0
  3 10  1  0  0  0  0
  4 12  1  0  0  0  0
  5 11  1  0  0  0  0
  7  1  2  0  0  0  0
  8  6  1  0  0  0  0
  9 14  2  0  0  0  0
 10  8  2  0  0  0  0
 10 30  1  0  0  0  0
 11 13  1  0  0  0  0
 11  3  2  0  0  0  0
 12  5  2  0  0  0  0
 12  7  1  0  0  0  0
 13 15  2  0  0  0  0
 14  7  1  0  0  0  0
 15  8  1  0  0  0  0
 16  2  1  0  0  0  0
 17 16  2  0  0  0  0
 17 21  1  0  0  0  0
 18 17  1  0  0  0  0
 19 18  2  0  0  0  0
 20 18  1  0  0  0  0
 21 25  1  0  0  0  0
 22 28  1  0  0  0  0
 23 28  1  0  0  0  0
 24 27  1  0  0  0  0
 25 26  2  0  0  0  0
 26 24  1  0  0  0  0
 26 22  1  0  0  0  0
 27 23  1  0  0  0  0
 30 29  2  0  0  0  0
 33 34  1  0  0  0  0
 33 31  1  1  0  0  0
 33 32  1  0  0  0  0
 34 35  1  6  0  0  0
 34 32  1  0  0  0  0
 35 39  1  0  0  0  0
 36 38  1  0  0  0  0
 37 36  2  0  0  0  0
 37 40  1  0  0  0  0
 38 39  2  0  0  0  0
 40 35  2  0  0  0  0
 41 43  1  0  0  0  0
 42 43  2  0  0  0  0
 43 37  1  0  0  0  0
M  END
>  <MODEL>
7

>  <REMARK>
 VINA RESULT:      -7.4      2.448      6.345
  Name = 
  9 active torsions:
  status: ('A' for Active; 'I' for Inactive)
    1  A    between atoms: C_2  and  O_43
    2  A    between atoms: C_3  and  N_10
    3  A    between atoms: C_6  and  C_36
    4  A    between atoms: C_11  and  O_43
    5  A    between atoms: C_18  and  C_31
    6  A    between atoms: C_19  and  C_32
    7  A    between atoms: C_20  and  C_38
    8  A    between atoms: N_22  and  O_35
    9  A    between atoms: C_31  and  O_35
                            x       y       z     vdW  Elec       q    Type
                         _______ _______ _______ _____ _____    ______ ____

>  <TORSDO>
F 9

$$$$
=
 OpenBabel11042419173D

 43 48  0  0  1  0  0  0  0  0999 V2000
  190.8080  174.0820  142.8380 C   0  0  0  0  0  0  0  0  0  0  0  0
  193.6410  171.6230  144.8690 C   0  0  0  0  0  0  0  0  0  0  0  0
  190.2540  173.6220  141.6010 C   0  0  0  0  0  0  0  0  0  0  0  0
  193.0650  171.2180  143.6520 C   0  0  0  0  0  3  0  0  0  0  0  0
  191.6310  171.6100  141.7630 C   0  0  0  0  0  3  0  0  0  0  0  0
  187.8240  174.4760  138.8700 O   0  0  0  0  0  1  0  0  0  0  0  0
  191.7710  173.2790  143.5150 C   0  0  0  0  0  0  0  0  0  0  0  0
  188.7810  173.8110  139.6350 C   0  0  0  0  0  0  0  0  0  0  0  0
  193.3000  172.8670  145.3910 C   0  0  0  0  0  3  0  0  0  0  0  0
  189.2500  174.3390  140.8670 C   0  0  0  0  0  0  0  0  0  0  0  0
  190.7010  172.3780  141.0770 C   0  0  0  0  0  0  0  0  0  0  0  0
  192.1570  172.0350  142.9760 C   0  0  0  0  0  0  0  0  0  0  0  0
  190.2170  171.8880  139.8690 C   0  0  0  0  0  3  0  0  0  0  0  0
  192.3780  173.6880  144.7190 C   0  0  0  0  0  3  0  0  0  0  0  0
  189.2680  172.6000  139.1540 C   0  0  0  0  0  3  0  0  0  0  0  0
  194.4780  170.7640  145.6470 N   0  0  0  0  0  0  0  0  0  0  0  0
  195.7550  170.5660  145.4950 C   0  0  0  0  0  0  0  0  0  0  0  0
  196.4200  169.5880  146.3890 C   0  0  0  0  0  0  0  0  0  0  0  0
  197.6430  169.3220  146.2740 O   0  0  0  0  0  0  0  0  0  0  0  0
  195.6760  168.9600  147.3800 O   0  0  0  0  0  1  0  0  0  0  0  0
  196.4750  171.3150  144.5490 O   0  0  0  0  0  0  0  0  0  0  0  0
  195.9320  173.3090  142.7060 C   0  0  0  0  0  2  0  0  0  0  0  0
  195.7840  175.7060  142.5980 O   0  0  0  0  0  0  0  0  0  0  0  0
  197.3030  174.9070  144.2730 C   0  0  0  0  0  2  0  0  0  0  0  0
  196.9670  172.5780  144.8040 N   0  0  0  0  0  0  0  0  0  0  0  0
  196.7890  173.5370  143.9380 C   0  0  0  0  0  0  0  0  0  0  0  0
  197.0820  175.8650  143.1250 C   0  0  0  0  0  2  0  0  0  0  0  0
  195.8620  174.5390  141.8140 C   0  0  0  0  0  2  0  0  0  0  0  0
  187.4340  175.8390  141.7490 C   0  0  0  0  0  2  0  0  0  0  0  0
  188.6940  175.6180  141.3940 C   0  0  0  0  0  3  0  0  0  0  0  0
  190.4040  175.3350  143.3460 O   0  0  0  0  0  0  0  0  0  0  0  0
  190.3640  176.3650  145.5100 C   0  0  0  0  0  2  0  0  0  0  0  0
  189.5990  175.5320  144.5010 C   0  0  1  0  0  3  0  0  0  0  0  0
  189.2970  177.0180  144.6410 C   0  0  1  0  0  3  0  0  0  0  0  0
  188.0070  177.1970  145.3840 C   0  0  0  0  0  0  0  0  0  0  0  0
  185.5560  177.3610  146.7500 C   0  0  0  0  0  3  0  0  0  0  0  0
  185.6590  177.8490  145.4350 C   0  0  0  0  0  0  0  0  0  0  0  0
  186.6680  176.7890  147.3770 C   0  0  0  0  0  3  0  0  0  0  0  0
  187.8880  176.7030  146.6940 C   0  0  0  0  0  3  0  0  0  0  0  0
  186.8860  177.7560  144.7560 C   0  0  0  0  0  3  0  0  0  0  0  0
  184.3360  178.2800  143.3770 O   0  0  0  0  0  0  0  0  0  0  0  0
  183.6030  179.0440  145.4200 O   0  0  0  0  0  1  0  0  0  0  0  0
  184.4880  178.4310  144.7590 C   0  0  0  0  0  0  0  0  0  0  0  0
  1 31  1  0  0  0  0
  1  7  1  0  0  0  0
  2  9  1  0  0  0  0
  2 16  1  0  0  0  0
  3  1  2  0  0  0  0
  4  2  2  0  0  0  0
  5 12  1  0  0  0  0
  6  8  1  0  0  0  0
  7 14  1  0  0  0  0
  8 10  2  0  0  0  0
 10 30  1  0  0  0  0
 10  3  1  0  0  0  0
 11  3  1  0  0  0  0
 11  5  2  0  0  0  0
 12  7  2  0  0  0  0
 12  4  1  0  0  0  0
 13 11  1  0  0  0  0
 14  9  2  0  0  0  0
 15  8  1  0  0  0  0
 15 13  2  0  0  0  0
 17 16  2  0  0  0  0
 17 18  1  0  0  0  0
 18 20  1  0  0  0  0
 19 18  2  0  0  0  0
 21 25  1  0  0  0  0
 21 17  1  0  0  0  0
 22 26  1  0  0  0  0
 23 27  1  0  0  0  0
 26 24  1  0  0  0  0
 26 25  2  0  0  0  0
 27 24  1  0  0  0  0
 28 23  1  0  0  0  0
 28 22  1  0  0  0  0
 30 29  2  0  0  0  0
 33 31  1  6  0  0  0
 33 34  1  0  0  0  0
 33 32  1  0  0  0  0
 34 35  1  1  0  0  0
 34 32  1  0  0  0  0
 35 39  1  0  0  0  0
 36 38  1  0  0  0  0
 37 36  2  0  0  0  0
 39 38  2  0  0  0  0
 40 35  2  0  0  0  0
 40 37  1  0  0  0  0
 41 43  2  0  0  0  0
 43 42  1  0  0  0  0
 43 37  1  0  0  0  0
M  END
>  <MODEL>
8

>  <REMARK>
 VINA RESULT:      -7.3      2.585      6.909
  Name = 
  9 active torsions:
  status: ('A' for Active; 'I' for Inactive)
    1  A    between atoms: C_2  and  O_43
    2  A    between atoms: C_3  and  N_10
    3  A    between atoms: C_6  and  C_36
    4  A    between atoms: C_11  and  O_43
    5  A    between atoms: C_18  and  C_31
    6  A    between atoms: C_19  and  C_32
    7  A    between atoms: C_20  and  C_38
    8  A    between atoms: N_22  and  O_35
    9  A    between atoms: C_31  and  O_35
                            x       y       z     vdW  Elec       q    Type
                         _______ _______ _______ _____ _____    ______ ____

>  <TORSDO>
F 9

$$$$
=
 OpenBabel11042419173D

 43 48  0  0  1  0  0  0  0  0999 V2000
  186.7590  176.8890  143.7220 C   0  0  0  0  0  0  0  0  0  0  0  0
  186.6930  177.0140  139.4590 C   0  0  0  0  0  0  0  0  0  0  0  0
  185.7440  177.5880  144.4510 C   0  0  0  0  0  0  0  0  0  0  0  0
  185.7190  177.6810  140.2220 C   0  0  0  0  0  3  0  0  0  0  0  0
  184.7900  178.3540  142.3350 C   0  0  0  0  0  3  0  0  0  0  0  0
  184.4670  178.3390  147.9000 O   0  0  0  0  0  1  0  0  0  0  0  0
  186.7600  176.9410  142.2980 C   0  0  0  0  0  0  0  0  0  0  0  0
  184.6060  178.3090  146.5130 C   0  0  0  0  0  0  0  0  0  0  0  0
  187.7130  176.3360  140.1190 C   0  0  0  0  0  3  0  0  0  0  0  0
  185.6350  177.5620  145.8810 C   0  0  0  0  0  0  0  0  0  0  0  0
  184.7740  178.3300  143.7210 C   0  0  0  0  0  0  0  0  0  0  0  0
  185.7560  177.6600  141.6170 C   0  0  0  0  0  0  0  0  0  0  0  0
  183.7760  179.0480  144.3730 C   0  0  0  0  0  3  0  0  0  0  0  0
  187.7480  176.3030  141.5230 C   0  0  0  0  0  3  0  0  0  0  0  0
  183.6950  179.0390  145.7550 C   0  0  0  0  0  3  0  0  0  0  0  0
  186.6180  176.9130  138.0340 N   0  0  0  0  0  0  0  0  0  0  0  0
  187.0160  175.9190  137.2970 C   0  0  0  0  0  0  0  0  0  0  0  0
  186.8860  176.0450  135.8260 C   0  0  0  0  0  0  0  0  0  0  0  0
  185.7610  176.0480  135.2650 O   0  0  0  0  0  1  0  0  0  0  0  0
  188.0320  176.1730  135.0520 O   0  0  0  0  0  0  0  0  0  0  0  0
  187.4950  174.7430  137.9000 O   0  0  0  0  0  0  0  0  0  0  0  0
  188.7290  173.0500  139.7100 C   0  0  0  0  0  2  0  0  0  0  0  0
  190.2390  171.1790  139.7270 O   0  0  0  0  0  0  0  0  0  0  0  0
  190.5390  172.6460  137.8530 C   0  0  0  0  0  2  0  0  0  0  0  0
  188.6560  174.1110  137.5030 N   0  0  0  0  0  0  0  0  0  0  0  0
  189.3050  173.3500  138.3390 C   0  0  0  0  0  0  0  0  0  0  0  0
  191.2030  171.8800  138.9750 C   0  0  0  0  0  2  0  0  0  0  0  0
  189.6430  172.1610  140.5410 C   0  0  0  0  0  2  0  0  0  0  0  0
  187.4430  177.2200  147.5960 C   0  0  0  0  0  2  0  0  0  0  0  0
  186.5820  176.7530  146.6990 C   0  0  0  0  0  3  0  0  0  0  0  0
  187.7510  176.1840  144.4350 O   0  0  0  0  0  0  0  0  0  0  0  0
  189.6490  177.6460  144.3750 C   0  0  0  0  0  2  0  0  0  0  0  0
  189.1460  176.2320  144.1660 C   0  0  1  0  0  3  0  0  0  0  0  0
  189.8810  176.5920  145.4500 C   0  0  1  0  0  3  0  0  0  0  0  0
  191.2750  176.0420  145.3970 C   0  0  0  0  0  0  0  0  0  0  0  0
  193.9390  175.1440  145.3990 C   0  0  0  0  0  3  0  0  0  0  0  0
  193.4330  175.8310  144.2820 C   0  0  0  0  0  0  0  0  0  0  0  0
  193.1220  174.9110  146.5110 C   0  0  0  0  0  3  0  0  0  0  0  0
  191.7960  175.3630  146.5110 C   0  0  0  0  0  3  0  0  0  0  0  0
  192.1020  176.2840  144.2910 C   0  0  0  0  0  3  0  0  0  0  0  0
  195.6430  176.4070  143.3050 O   0  0  0  0  0  1  0  0  0  0  0  0
  193.8250  176.0330  141.9450 O   0  0  0  0  0  0  0  0  0  0  0  0
  194.2920  176.1010  143.1170 C   0  0  0  0  0  0  0  0  0  0  0  0
  1 31  1  0  0  0  0
  1  3  1  0  0  0  0
  2  9  1  0  0  0  0
  2  4  2  0  0  0  0
  3 10  1  0  0  0  0
  4 12  1  0  0  0  0
  5 11  1  0  0  0  0
  7  1  2  0  0  0  0
  8  6  1  0  0  0  0
  9 14  2  0  0  0  0
 10  8  2  0  0  0  0
 10 30  1  0  0  0  0
 11 13  1  0  0  0  0
 11  3  2  0  0  0  0
 12  7  1  0  0  0  0
 12  5  2  0  0  0  0
 13 15  2  0  0  0  0
 14  7  1  0  0  0  0
 15  8  1  0  0  0  0
 16  2  1  0  0  0  0
 17 21  1  0  0  0  0
 17 16  2  0  0  0  0
 18 17  1  0  0  0  0
 19 18  1  0  0  0  0
 20 18  2  0  0  0  0
 22 28  1  0  0  0  0
 23 28  1  0  0  0  0
 24 26  1  0  0  0  0
 24 27  1  0  0  0  0
 25 21  1  0  0  0  0
 25 26  2  0  0  0  0
 26 22  1  0  0  0  0
 27 23  1  0  0  0  0
 30 29  2  0  0  0  0
 32 34  1  0  0  0  0
 33 32  1  0  0  0  0
 33 31  1  1  0  0  0
 33 34  1  0  0  0  0
 34 35  1  6  0  0  0
 35 39  1  0  0  0  0
 36 38  1  0  0  0  0
 37 40  1  0  0  0  0
 37 36  2  0  0  0  0
 38 39  2  0  0  0  0
 40 35  2  0  0  0  0
 42 43  2  0  0  0  0
 43 41  1  0  0  0  0
 43 37  1  0  0  0  0
M  END
>  <MODEL>
9

>  <REMARK>
 VINA RESULT:      -7.2      2.625      4.201
  Name = 
  9 active torsions:
  status: ('A' for Active; 'I' for Inactive)
    1  A    between atoms: C_2  and  O_43
    2  A    between atoms: C_3  and  N_10
    3  A    between atoms: C_6  and  C_36
    4  A    between atoms: C_11  and  O_43
    5  A    between atoms: C_18  and  C_31
    6  A    between atoms: C_19  and  C_32
    7  A    between atoms: C_20  and  C_38
    8  A    between atoms: N_22  and  O_35
    9  A    between atoms: C_31  and  O_35
                            x       y       z     vdW  Elec       q    Type
                         _______ _______ _______ _____ _____    ______ ____

>  <TORSDO>
F 9

$$$$
