=
 OpenBabel11042414213D

 27 28  0  0  1  0  0  0  0  0999 V2000
  192.4250  176.1220  144.7560 C   0  0  0  0  0  0  0  0  0  0  0  0
  191.2280  176.1710  145.3900 C   0  0  0  0  0  0  0  0  0  0  0  0
  189.0520  175.6830  142.4750 O   0  0  0  0  0  0  0  0  0  0  0  0
  192.4850  176.0780  143.2770 C   0  0  0  0  0  3  0  0  0  0  0  0
  191.3880  175.9820  142.5300 C   0  0  0  0  0  3  0  0  0  0  0  0
  190.0700  175.9510  143.1650 C   0  0  0  0  0  0  0  0  0  0  0  0
  189.9250  176.2880  144.6230 C   0  0  2  0  0  3  0  0  0  0  0  0
  194.2200  177.2250  145.9370 O   0  0  0  0  0  1  0  0  0  0  0  0
  194.3720  174.8440  145.7000 C   0  0  0  0  0  0  0  0  0  0  0  0
  195.6360  174.8640  146.2760 O   0  0  0  0  0  1  0  0  0  0  0  0
  193.6610  176.0720  145.4940 N   0  0  0  0  0  0  0  0  0  0  0  0
  193.8550  173.7390  145.3850 O   0  0  0  0  0  0  0  0  0  0  0  0
  191.1410  176.0710  146.8850 C   0  0  0  0  0  2  0  0  0  0  0  0
  189.1430  174.5310  147.6070 N   0  0  0  0  0  0  0  0  0  0  0  0
  190.0240  175.2090  147.2880 C   0  0  0  0  0  0  0  0  0  0  0  0
  189.3560  177.6980  144.7650 C   0  0  0  0  0  2  0  0  0  0  0  0
  187.8830  177.6860  145.1570 C   0  0  2  0  0  3  0  0  0  0  0  0
  187.4940  176.4230  145.5640 F   0  0  0  0  0  0  0  0  0  0  0  0
  187.0060  178.1720  144.0110 C   0  0  0  0  0  2  0  0  0  0  0  0
  183.9600  178.2470  142.7390 C   0  0  0  0  0  0  0  0  0  0  0  0
  184.9530  177.4500  142.9240 N   0  0  0  0  0  0  0  0  0  0  0  0
  183.7540  179.1330  143.7740 O   0  0  0  0  0  0  0  0  0  0  0  0
  185.5600  177.7460  144.2150 C   0  0  2  0  0  3  0  0  0  0  0  0
  184.7330  178.9120  144.7740 C   0  0  2  0  0  3  0  0  0  0  0  0
  183.1170  178.2080  141.5150 C   0  0  0  0  0  1  0  0  0  0  0  0
  184.0630  178.4870  146.0680 C   0  0  0  0  0  2  0  0  0  0  0  0
  184.5270  177.2270  146.4480 O   0  0  0  0  0  1  0  0  0  0  0  0
  1  2  2  0  0  0  0
  1 11  1  0  0  0  0
  2 13  1  0  0  0  0
  3  6  2  0  0  0  0
  4  1  1  0  0  0  0
  5  6  1  0  0  0  0
  5  4  2  0  0  0  0
  6  7  1  0  0  0  0
  7 16  1  6  0  0  0
  7  2  1  0  0  0  0
  9 10  1  0  0  0  0
 11  9  1  0  0  0  0
 11  8  1  0  0  0  0
 12  9  2  0  0  0  0
 13 15  1  0  0  0  0
 15 14  3  0  0  0  0
 16 17  1  0  0  0  0
 17 18  1  6  0  0  0
 19 17  1  0  0  0  0
 20 21  2  0  0  0  0
 20 22  1  0  0  0  0
 21 23  1  0  0  0  0
 22 24  1  0  0  0  0
 23 19  1  6  0  0  0
 23 24  1  0  0  0  0
 24 26  1  1  0  0  0
 25 20  1  0  0  0  0
 26 27  1  0  0  0  0
M  END
>  <MODEL>
1

>  <REMARK>
 VINA RESULT:      -6.6      0.000      0.000
  Name = 
  8 active torsions:
  status: ('A' for Active; 'I' for Inactive)
    1  A    between atoms: C_1  and  N_20
    2  A    between atoms: C_2  and  C_5
    3  A    between atoms: C_2  and  C_19
    4  A    between atoms: C_3  and  C_23
    5  A    between atoms: C_5  and  C_21
    6  A    between atoms: C_9  and  C_17
    7  A    between atoms: C_17  and  C_22
    8  A    between atoms: C_19  and  C_24
                            x       y       z     vdW  Elec       q    Type
                         _______ _______ _______ _____ _____    ______ ____

>  <TORSDO>
F 8

$$$$
=
 OpenBabel11042414213D

 27 28  0  0  1  0  0  0  0  0999 V2000
  185.8530  178.1840  143.5710 C   0  0  0  0  0  0  0  0  0  0  0  0
  186.2930  177.0030  144.0710 C   0  0  0  0  0  0  0  0  0  0  0  0
  185.9160  177.7560  147.6430 O   0  0  0  0  0  0  0  0  0  0  0  0
  185.5680  179.3180  144.4780 C   0  0  0  0  0  3  0  0  0  0  0  0
  185.6330  179.1970  145.8010 C   0  0  0  0  0  3  0  0  0  0  0  0
  186.0260  177.9210  146.4000 C   0  0  0  0  0  0  0  0  0  0  0  0
  186.6080  176.8300  145.5440 C   0  0  2  0  0  3  0  0  0  0  0  0
  186.6570  178.6060  141.3330 O   0  0  0  0  0  1  0  0  0  0  0  0
  184.2890  178.3600  141.6120 C   0  0  0  0  0  0  0  0  0  0  0  0
  184.0940  178.6880  140.2760 O   0  0  0  0  0  0  0  0  0  0  0  0
  185.6130  178.3550  142.1610 N   0  0  0  0  0  0  0  0  0  0  0  0
  183.2960  178.0470  142.3210 O   0  0  0  0  0  1  0  0  0  0  0  0
  186.4480  175.7990  143.1880 C   0  0  0  0  0  2  0  0  0  0  0  0
  188.8600  175.6960  142.1590 N   0  0  0  0  0  0  0  0  0  0  0  0
  187.7980  175.7420  142.6130 C   0  0  0  0  0  0  0  0  0  0  0  0
  188.1200  176.7720  145.7550 C   0  0  0  0  0  2  0  0  0  0  0  0
  188.5920  175.3760  146.1460 C   0  0  2  0  0  3  0  0  0  0  0  0
  188.4910  175.1900  147.5130 F   0  0  0  0  0  0  0  0  0  0  0  0
  190.0190  175.1270  145.6770 C   0  0  0  0  0  2  0  0  0  0  0  0
  193.0900  176.3270  145.5060 C   0  0  0  0  0  0  0  0  0  0  0  0
  191.9140  176.5010  145.0150 N   0  0  0  0  0  0  0  0  0  0  0  0
  193.0940  175.9890  146.8420 O   0  0  0  0  0  0  0  0  0  0  0  0
  190.9280  176.2830  146.0650 C   0  0  2  0  0  3  0  0  0  0  0  0
  191.7560  175.9180  147.3050 C   0  0  2  0  0  3  0  0  0  0  0  0
  194.3280  176.4780  144.6970 C   0  0  0  0  0  1  0  0  0  0  0  0
  191.5300  176.9540  148.3910 C   0  0  0  0  0  2  0  0  0  0  0  0
  190.4560  177.7750  148.0450 O   0  0  0  0  0  1  0  0  0  0  0  0
  1  2  2  0  0  0  0
  1  4  1  0  0  0  0
  2  7  1  0  0  0  0
  4  5  2  0  0  0  0
  5  6  1  0  0  0  0
  6  3  2  0  0  0  0
  7 16  1  6  0  0  0
  7  6  1  0  0  0  0
  8 11  1  0  0  0  0
  9 11  1  0  0  0  0
  9 12  1  0  0  0  0
 10  9  2  0  0  0  0
 11  1  1  0  0  0  0
 13  2  1  0  0  0  0
 14 15  3  0  0  0  0
 15 13  1  0  0  0  0
 16 17  1  0  0  0  0
 17 18  1  1  0  0  0
 19 17  1  0  0  0  0
 20 22  1  0  0  0  0
 21 20  2  0  0  0  0
 21 23  1  0  0  0  0
 22 24  1  0  0  0  0
 23 19  1  6  0  0  0
 23 24  1  0  0  0  0
 24 26  1  1  0  0  0
 25 20  1  0  0  0  0
 27 26  1  0  0  0  0
M  END
>  <MODEL>
2

>  <REMARK>
 VINA RESULT:      -6.6      2.174      7.733
  Name = 
  8 active torsions:
  status: ('A' for Active; 'I' for Inactive)
    1  A    between atoms: C_1  and  N_20
    2  A    between atoms: C_2  and  C_5
    3  A    between atoms: C_2  and  C_19
    4  A    between atoms: C_3  and  C_23
    5  A    between atoms: C_5  and  C_21
    6  A    between atoms: C_9  and  C_17
    7  A    between atoms: C_17  and  C_22
    8  A    between atoms: C_19  and  C_24
                            x       y       z     vdW  Elec       q    Type
                         _______ _______ _______ _____ _____    ______ ____

>  <TORSDO>
F 8

$$$$
=
 OpenBabel11042414213D

 27 28  0  0  1  0  0  0  0  0999 V2000
  191.0250  175.7280  146.2470 C   0  0  0  0  0  0  0  0  0  0  0  0
  190.4750  176.4630  145.2490 C   0  0  0  0  0  0  0  0  0  0  0  0
  186.9800  176.3630  146.3660 O   0  0  0  0  0  0  0  0  0  0  0  0
  190.1590  175.0530  147.2400 C   0  0  0  0  0  3  0  0  0  0  0  0
  188.8390  175.2190  147.2540 C   0  0  0  0  0  3  0  0  0  0  0  0
  188.1970  176.0650  146.2460 C   0  0  0  0  0  0  0  0  0  0  0  0
  188.9740  176.5350  145.0470 C   0  0  2  0  0  3  0  0  0  0  0  0
  193.1380  176.6070  147.0190 O   0  0  0  0  0  1  0  0  0  0  0  0
  193.1940  174.5340  145.8160 C   0  0  0  0  0  0  0  0  0  0  0  0
  194.5820  174.5520  145.8430 O   0  0  0  0  0  1  0  0  0  0  0  0
  192.4530  175.6180  146.3940 N   0  0  0  0  0  0  0  0  0  0  0  0
  192.5990  173.5500  145.3010 O   0  0  0  0  0  0  0  0  0  0  0  0
  191.3340  177.2710  144.3210 C   0  0  0  0  0  2  0  0  0  0  0  0
  192.1190  175.8290  142.2740 N   0  0  0  0  0  0  0  0  0  0  0  0
  191.7730  176.4640  143.1760 C   0  0  0  0  0  0  0  0  0  0  0  0
  188.5670  175.7130  143.8260 C   0  0  0  0  0  2  0  0  0  0  0  0
  187.8530  176.5580  142.7770 C   0  0  2  0  0  3  0  0  0  0  0  0
  188.4020  176.3510  141.5230 F   0  0  0  0  0  0  0  0  0  0  0  0
  187.8950  178.0360  143.1410 C   0  0  0  0  0  2  0  0  0  0  0  0
  184.8990  178.4980  144.4500 C   0  0  0  0  0  0  0  0  0  0  0  0
  186.0040  179.1160  144.2260 N   0  0  0  0  0  0  0  0  0  0  0  0
  184.5350  177.6240  143.4490 O   0  0  0  0  0  0  0  0  0  0  0  0
  186.5330  178.6840  142.9390 C   0  0  2  0  0  3  0  0  0  0  0  0
  185.5200  177.6500  142.4300 C   0  0  2  0  0  3  0  0  0  0  0  0
  184.0940  178.7130  145.6810 C   0  0  0  0  0  1  0  0  0  0  0  0
  184.9050  178.1360  141.1300 C   0  0  0  0  0  2  0  0  0  0  0  0
  185.8210  177.9830  140.0890 O   0  0  0  0  0  1  0  0  0  0  0  0
  1 11  1  0  0  0  0
  1  4  1  0  0  0  0
  2  1  2  0  0  0  0
  4  5  2  0  0  0  0
  6  3  2  0  0  0  0
  6  5  1  0  0  0  0
  7 16  1  6  0  0  0
  7  2  1  0  0  0  0
  7  6  1  0  0  0  0
  9 10  1  0  0  0  0
  9 11  1  0  0  0  0
 11  8  1  0  0  0  0
 12  9  2  0  0  0  0
 13  2  1  0  0  0  0
 14 15  3  0  0  0  0
 15 13  1  0  0  0  0
 17 18  1  6  0  0  0
 17 19  1  0  0  0  0
 17 16  1  0  0  0  0
 20 25  1  0  0  0  0
 21 20  2  0  0  0  0
 22 20  1  0  0  0  0
 23 19  1  1  0  0  0
 23 21  1  0  0  0  0
 24 26  1  6  0  0  0
 24 23  1  0  0  0  0
 24 22  1  0  0  0  0
 27 26  1  0  0  0  0
M  END
>  <MODEL>
3

>  <REMARK>
 VINA RESULT:      -6.6      1.948      3.389
  Name = 
  8 active torsions:
  status: ('A' for Active; 'I' for Inactive)
    1  A    between atoms: C_1  and  N_20
    2  A    between atoms: C_2  and  C_5
    3  A    between atoms: C_2  and  C_19
    4  A    between atoms: C_3  and  C_23
    5  A    between atoms: C_5  and  C_21
    6  A    between atoms: C_9  and  C_17
    7  A    between atoms: C_17  and  C_22
    8  A    between atoms: C_19  and  C_24
                            x       y       z     vdW  Elec       q    Type
                         _______ _______ _______ _____ _____    ______ ____

>  <TORSDO>
F 8

$$$$
=
 OpenBabel11042414213D

 27 28  0  0  1  0  0  0  0  0999 V2000
  185.9740  178.1890  143.6650 C   0  0  0  0  0  0  0  0  0  0  0  0
  186.4520  177.0240  144.1670 C   0  0  0  0  0  0  0  0  0  0  0  0
  186.0030  177.7480  147.7370 O   0  0  0  0  0  0  0  0  0  0  0  0
  185.6350  179.3080  144.5730 C   0  0  0  0  0  3  0  0  0  0  0  0
  185.6880  179.1840  145.8960 C   0  0  0  0  0  3  0  0  0  0  0  0
  186.1230  177.9220  146.4960 C   0  0  0  0  0  0  0  0  0  0  0  0
  186.7560  176.8580  145.6430 C   0  0  2  0  0  3  0  0  0  0  0  0
  186.7930  178.6160  141.4340 O   0  0  0  0  0  1  0  0  0  0  0  0
  184.4250  178.3480  141.6930 C   0  0  0  0  0  0  0  0  0  0  0  0
  184.2380  178.6720  140.3550 O   0  0  0  0  0  0  0  0  0  0  0  0
  185.7450  178.3560  142.2530 N   0  0  0  0  0  0  0  0  0  0  0  0
  183.4290  178.0260  142.3940 O   0  0  0  0  0  1  0  0  0  0  0  0
  186.6640  175.8300  143.2820 C   0  0  0  0  0  2  0  0  0  0  0  0
  189.1320  175.7500  142.3940 N   0  0  0  0  0  0  0  0  0  0  0  0
  188.0450  175.7850  142.7850 C   0  0  0  0  0  0  0  0  0  0  0  0
  188.2670  176.8560  145.8720 C   0  0  0  0  0  2  0  0  0  0  0  0
  188.7580  175.5350  146.4530 C   0  0  2  0  0  3  0  0  0  0  0  0
  188.0430  175.2030  147.5900 F   0  0  0  0  0  0  0  0  0  0  0  0
  190.2500  175.5890  146.7560 C   0  0  0  0  0  2  0  0  0  0  0  0
  192.9280  174.1530  145.4640 C   0  0  0  0  0  0  0  0  0  0  0  0
  191.6460  174.0530  145.4860 N   0  0  0  0  0  0  0  0  0  0  0  0
  193.3870  175.4520  145.4540 O   0  0  0  0  0  0  0  0  0  0  0  0
  191.0690  175.3910  145.4890 C   0  0  2  0  0  3  0  0  0  0  0  0
  192.2780  176.3350  145.4820 C   0  0  2  0  0  3  0  0  0  0  0  0
  193.8250  172.9690  145.4510 C   0  0  0  0  0  1  0  0  0  0  0  0
  192.2590  177.1800  144.2210 C   0  0  0  0  0  2  0  0  0  0  0  0
  191.0970  177.9520  144.1880 O   0  0  0  0  0  1  0  0  0  0  0  0
  1  2  2  0  0  0  0
  1  4  1  0  0  0  0
  2  7  1  0  0  0  0
  4  5  2  0  0  0  0
  5  6  1  0  0  0  0
  6  3  2  0  0  0  0
  7 16  1  6  0  0  0
  7  6  1  0  0  0  0
  8 11  1  0  0  0  0
  9 11  1  0  0  0  0
  9 12  1  0  0  0  0
 10  9  2  0  0  0  0
 11  1  1  0  0  0  0
 13  2  1  0  0  0  0
 14 15  3  0  0  0  0
 15 13  1  0  0  0  0
 16 17  1  0  0  0  0
 17 19  1  0  0  0  0
 17 18  1  1  0  0  0
 20 21  2  0  0  0  0
 21 23  1  0  0  0  0
 22 20  1  0  0  0  0
 22 24  1  0  0  0  0
 23 19  1  1  0  0  0
 24 26  1  6  0  0  0
 24 23  1  0  0  0  0
 25 20  1  0  0  0  0
 27 26  1  0  0  0  0
M  END
>  <MODEL>
4

>  <REMARK>
 VINA RESULT:      -6.5      2.136      7.820
  Name = 
  8 active torsions:
  status: ('A' for Active; 'I' for Inactive)
    1  A    between atoms: C_1  and  N_20
    2  A    between atoms: C_2  and  C_5
    3  A    between atoms: C_2  and  C_19
    4  A    between atoms: C_3  and  C_23
    5  A    between atoms: C_5  and  C_21
    6  A    between atoms: C_9  and  C_17
    7  A    between atoms: C_17  and  C_22
    8  A    between atoms: C_19  and  C_24
                            x       y       z     vdW  Elec       q    Type
                         _______ _______ _______ _____ _____    ______ ____

>  <TORSDO>
F 8

$$$$
=
 OpenBabel11042414213D

 27 28  0  0  1  0  0  0  0  0999 V2000
  191.5190  175.0430  145.5470 C   0  0  0  0  0  0  0  0  0  0  0  0
  190.4280  175.7230  145.1160 C   0  0  0  0  0  0  0  0  0  0  0  0
  190.0870  178.0410  147.9420 O   0  0  0  0  0  0  0  0  0  0  0  0
  192.0560  175.2780  146.9060 C   0  0  0  0  0  3  0  0  0  0  0  0
  191.5640  176.2200  147.7060 C   0  0  0  0  0  3  0  0  0  0  0  0
  190.4350  177.0400  147.2630 C   0  0  0  0  0  0  0  0  0  0  0  0
  189.6620  176.6590  146.0310 C   0  0  2  0  0  3  0  0  0  0  0  0
  191.7990  172.8180  144.6510 O   0  0  0  0  0  1  0  0  0  0  0  0
  193.3670  174.4850  143.9380 C   0  0  0  0  0  0  0  0  0  0  0  0
  194.0900  173.5170  143.2520 O   0  0  0  0  0  0  0  0  0  0  0  0
  192.2040  174.1110  144.6890 N   0  0  0  0  0  0  0  0  0  0  0  0
  193.7320  175.6890  143.8720 O   0  0  0  0  0  1  0  0  0  0  0  0
  189.9550  175.6070  143.6960 C   0  0  0  0  0  2  0  0  0  0  0  0
  190.0230  177.9380  142.4940 N   0  0  0  0  0  0  0  0  0  0  0  0
  189.9930  176.9110  143.0230 C   0  0  0  0  0  0  0  0  0  0  0  0
  188.3340  176.0240  146.4410 C   0  0  0  0  0  2  0  0  0  0  0  0
  187.1900  177.0320  146.4380 C   0  0  2  0  0  3  0  0  0  0  0  0
  185.9680  176.3880  146.5160 F   0  0  0  0  0  0  0  0  0  0  0  0
  187.2470  177.9240  145.2050 C   0  0  0  0  0  2  0  0  0  0  0  0
  186.2310  177.8520  142.0640 C   0  0  0  0  0  0  0  0  0  0  0  0
  186.5510  177.0720  143.0350 N   0  0  0  0  0  0  0  0  0  0  0  0
  185.5490  178.9830  142.4570 O   0  0  0  0  0  0  0  0  0  0  0  0
  186.0680  177.6500  144.2820 C   0  0  2  0  0  3  0  0  0  0  0  0
  185.3980  178.9660  143.8660 C   0  0  2  0  0  3  0  0  0  0  0  0
  186.5720  177.5530  140.6490 C   0  0  0  0  0  1  0  0  0  0  0  0
  183.9250  178.9250  144.2280 C   0  0  0  0  0  2  0  0  0  0  0  0
  183.7750  179.0350  145.6110 O   0  0  0  0  0  1  0  0  0  0  0  0
  1  4  1  0  0  0  0
  2  1  2  0  0  0  0
  2  7  1  0  0  0  0
  4  5  2  0  0  0  0
  6  5  1  0  0  0  0
  6  3  2  0  0  0  0
  7 16  1  1  0  0  0
  7  6  1  0  0  0  0
  8 11  1  0  0  0  0
  9 11  1  0  0  0  0
 10  9  2  0  0  0  0
 11  1  1  0  0  0  0
 12  9  1  0  0  0  0
 13  2  1  0  0  0  0
 14 15  3  0  0  0  0
 15 13  1  0  0  0  0
 17 16  1  0  0  0  0
 17 18  1  6  0  0  0
 19 17  1  0  0  0  0
 20 22  1  0  0  0  0
 20 21  2  0  0  0  0
 21 23  1  0  0  0  0
 22 24  1  0  0  0  0
 23 19  1  1  0  0  0
 24 26  1  6  0  0  0
 24 23  1  0  0  0  0
 25 20  1  0  0  0  0
 26 27  1  0  0  0  0
M  END
>  <MODEL>
5

>  <REMARK>
 VINA RESULT:      -6.4      2.144      3.221
  Name = 
  8 active torsions:
  status: ('A' for Active; 'I' for Inactive)
    1  A    between atoms: C_1  and  N_20
    2  A    between atoms: C_2  and  C_5
    3  A    between atoms: C_2  and  C_19
    4  A    between atoms: C_3  and  C_23
    5  A    between atoms: C_5  and  C_21
    6  A    between atoms: C_9  and  C_17
    7  A    between atoms: C_17  and  C_22
    8  A    between atoms: C_19  and  C_24
                            x       y       z     vdW  Elec       q    Type
                         _______ _______ _______ _____ _____    ______ ____

>  <TORSDO>
F 8

$$$$
=
 OpenBabel11042414213D

 27 28  0  0  1  0  0  0  0  0999 V2000
  191.9340  175.7450  144.7460 C   0  0  0  0  0  0  0  0  0  0  0  0
  190.6170  175.6290  145.0440 C   0  0  0  0  0  0  0  0  0  0  0  0
  189.2970  178.0350  142.6060 O   0  0  0  0  0  0  0  0  0  0  0  0
  192.3950  176.7840  143.7970 C   0  0  0  0  0  3  0  0  0  0  0  0
  191.5440  177.5620  143.1350 C   0  0  0  0  0  3  0  0  0  0  0  0
  190.1040  177.4280  143.3580 C   0  0  0  0  0  0  0  0  0  0  0  0
  189.5900  176.6090  144.5100 C   0  0  2  0  0  3  0  0  0  0  0  0
  193.4460  175.1150  146.5200 O   0  0  0  0  0  1  0  0  0  0  0  0
  193.4030  173.7120  144.5770 C   0  0  0  0  0  0  0  0  0  0  0  0
  194.4560  172.9650  145.0880 O   0  0  0  0  0  1  0  0  0  0  0  0
  192.9090  174.8450  145.3060 N   0  0  0  0  0  0  0  0  0  0  0  0
  192.8760  173.3700  143.4850 O   0  0  0  0  0  0  0  0  0  0  0  0
  190.1120  174.4940  145.8870 C   0  0  0  0  0  2  0  0  0  0  0  0
  189.5020  172.4210  144.3980 N   0  0  0  0  0  0  0  0  0  0  0  0
  189.7700  173.3340  145.0550 C   0  0  0  0  0  0  0  0  0  0  0  0
  189.1230  177.5410  145.6270 C   0  0  0  0  0  2  0  0  0  0  0  0
  187.6080  177.5250  145.7920 C   0  0  2  0  0  3  0  0  0  0  0  0
  187.2590  177.1760  147.0850 F   0  0  0  0  0  0  0  0  0  0  0  0
  186.9560  176.5820  144.7900 C   0  0  0  0  0  2  0  0  0  0  0  0
  185.8260  177.9380  141.9990 C   0  0  0  0  0  0  0  0  0  0  0  0
  185.7250  176.8720  142.7120 N   0  0  0  0  0  0  0  0  0  0  0  0
  185.9420  179.0950  142.7380 O   0  0  0  0  0  0  0  0  0  0  0  0
  185.7600  177.2420  144.1200 C   0  0  2  0  0  3  0  0  0  0  0  0
  185.9250  178.7680  144.1170 C   0  0  2  0  0  3  0  0  0  0  0  0
  185.8200  177.9130  140.5130 C   0  0  0  0  0  1  0  0  0  0  0  0
  184.7230  179.4110  144.7860 C   0  0  0  0  0  2  0  0  0  0  0  0
  184.1380  178.5090  145.6740 O   0  0  0  0  0  1  0  0  0  0  0  0
  1  2  2  0  0  0  0
  1 11  1  0  0  0  0
  2 13  1  0  0  0  0
  3  6  2  0  0  0  0
  4  1  1  0  0  0  0
  5  6  1  0  0  0  0
  5  4  2  0  0  0  0
  6  7  1  0  0  0  0
  7  2  1  0  0  0  0
  7 16  1  1  0  0  0
  9 10  1  0  0  0  0
  9 11  1  0  0  0  0
 11  8  1  0  0  0  0
 12  9  2  0  0  0  0
 14 15  3  0  0  0  0
 15 13  1  0  0  0  0
 16 17  1  0  0  0  0
 17 18  1  1  0  0  0
 19 17  1  0  0  0  0
 20 21  2  0  0  0  0
 20 22  1  0  0  0  0
 21 23  1  0  0  0  0
 22 24  1  0  0  0  0
 23 19  1  1  0  0  0
 24 23  1  0  0  0  0
 24 26  1  1  0  0  0
 25 20  1  0  0  0  0
 26 27  1  0  0  0  0
M  END
>  <MODEL>
6

>  <REMARK>
 VINA RESULT:      -6.3      1.758      1.898
  Name = 
  8 active torsions:
  status: ('A' for Active; 'I' for Inactive)
    1  A    between atoms: C_1  and  N_20
    2  A    between atoms: C_2  and  C_5
    3  A    between atoms: C_2  and  C_19
    4  A    between atoms: C_3  and  C_23
    5  A    between atoms: C_5  and  C_21
    6  A    between atoms: C_9  and  C_17
    7  A    between atoms: C_17  and  C_22
    8  A    between atoms: C_19  and  C_24
                            x       y       z     vdW  Elec       q    Type
                         _______ _______ _______ _____ _____    ______ ____

>  <TORSDO>
F 8

$$$$
=
 OpenBabel11042414213D

 27 28  0  0  1  0  0  0  0  0999 V2000
  192.0360  175.9590  146.3600 C   0  0  0  0  0  0  0  0  0  0  0  0
  191.2890  176.5180  145.3760 C   0  0  0  0  0  0  0  0  0  0  0  0
  187.9750  176.0480  146.8840 O   0  0  0  0  0  0  0  0  0  0  0  0
  191.3810  175.2660  147.4920 C   0  0  0  0  0  3  0  0  0  0  0  0
  190.0590  175.2520  147.6410 C   0  0  0  0  0  3  0  0  0  0  0  0
  189.2040  175.9080  146.6510 C   0  0  0  0  0  0  0  0  0  0  0  0
  189.7800  176.3670  145.3400 C   0  0  2  0  0  3  0  0  0  0  0  0
  194.0690  177.1620  146.8640 O   0  0  0  0  0  1  0  0  0  0  0  0
  194.2990  175.0590  145.7360 C   0  0  0  0  0  0  0  0  0  0  0  0
  195.6660  175.2720  145.6110 O   0  0  0  0  0  1  0  0  0  0  0  0
  193.4730  176.0570  146.3530 N   0  0  0  0  0  0  0  0  0  0  0  0
  193.8030  173.9770  145.3240 O   0  0  0  0  0  0  0  0  0  0  0  0
  191.9240  177.3470  144.2990 C   0  0  0  0  0  2  0  0  0  0  0  0
  192.6750  175.8470  142.2810 N   0  0  0  0  0  0  0  0  0  0  0  0
  192.3440  176.5080  143.1700 C   0  0  0  0  0  0  0  0  0  0  0  0
  189.3760  175.3890  144.2380 C   0  0  0  0  0  2  0  0  0  0  0  0
  188.5120  176.0530  143.1710 C   0  0  2  0  0  3  0  0  0  0  0  0
  189.2140  176.1900  141.9860 F   0  0  0  0  0  0  0  0  0  0  0  0
  187.9950  177.4040  143.6450 C   0  0  0  0  0  2  0  0  0  0  0  0
  184.9930  178.1650  142.5000 C   0  0  0  0  0  0  0  0  0  0  0  0
  185.7750  177.1600  142.6790 N   0  0  0  0  0  0  0  0  0  0  0  0
  185.0570  179.1090  143.5010 O   0  0  0  0  0  0  0  0  0  0  0  0
  186.5010  177.3450  143.9280 C   0  0  2  0  0  3  0  0  0  0  0  0
  186.0060  178.6940  144.4690 C   0  0  2  0  0  3  0  0  0  0  0  0
  184.1030  178.2890  141.3150 C   0  0  0  0  0  1  0  0  0  0  0  0
  185.3220  178.4860  145.8070 C   0  0  0  0  0  2  0  0  0  0  0  0
  184.0300  179.0130  145.7640 O   0  0  0  0  0  1  0  0  0  0  0  0
  1  4  1  0  0  0  0
  2  1  2  0  0  0  0
  4  5  2  0  0  0  0
  6  3  2  0  0  0  0
  6  5  1  0  0  0  0
  7 16  1  6  0  0  0
  7  2  1  0  0  0  0
  7  6  1  0  0  0  0
  9 11  1  0  0  0  0
 10  9  1  0  0  0  0
 11  1  1  0  0  0  0
 11  8  1  0  0  0  0
 12  9  2  0  0  0  0
 13  2  1  0  0  0  0
 14 15  3  0  0  0  0
 15 13  1  0  0  0  0
 17 18  1  6  0  0  0
 17 19  1  0  0  0  0
 17 16  1  0  0  0  0
 20 21  2  0  0  0  0
 20 22  1  0  0  0  0
 21 23  1  0  0  0  0
 22 24  1  0  0  0  0
 23 19  1  6  0  0  0
 23 24  1  0  0  0  0
 24 26  1  1  0  0  0
 25 20  1  0  0  0  0
 27 26  1  0  0  0  0
M  END
>  <MODEL>
7

>  <REMARK>
 VINA RESULT:      -6.3      1.802      2.765
  Name = 
  8 active torsions:
  status: ('A' for Active; 'I' for Inactive)
    1  A    between atoms: C_1  and  N_20
    2  A    between atoms: C_2  and  C_5
    3  A    between atoms: C_2  and  C_19
    4  A    between atoms: C_3  and  C_23
    5  A    between atoms: C_5  and  C_21
    6  A    between atoms: C_9  and  C_17
    7  A    between atoms: C_17  and  C_22
    8  A    between atoms: C_19  and  C_24
                            x       y       z     vdW  Elec       q    Type
                         _______ _______ _______ _____ _____    ______ ____

>  <TORSDO>
F 8

$$$$
=
 OpenBabel11042414213D

 27 28  0  0  1  0  0  0  0  0999 V2000
  187.7500  176.3710  146.3330 C   0  0  0  0  0  0  0  0  0  0  0  0
  188.5260  176.7120  145.2740 C   0  0  0  0  0  0  0  0  0  0  0  0
  191.1090  174.1310  145.6450 O   0  0  0  0  0  0  0  0  0  0  0  0
  188.2030  175.3330  147.2860 C   0  0  0  0  0  3  0  0  0  0  0  0
  189.3190  174.6350  147.0910 C   0  0  0  0  0  3  0  0  0  0  0  0
  190.1560  174.9060  145.9220 C   0  0  0  0  0  0  0  0  0  0  0  0
  189.9130  176.1320  145.0850 C   0  0  2  0  0  3  0  0  0  0  0  0
  185.3750  176.4590  145.9030 O   0  0  0  0  0  1  0  0  0  0  0  0
  186.2900  178.1640  147.3180 C   0  0  0  0  0  0  0  0  0  0  0  0
  185.0550  178.8000  147.3550 O   0  0  0  0  0  0  0  0  0  0  0  0
  186.4570  176.9740  146.5360 N   0  0  0  0  0  0  0  0  0  0  0  0
  187.2440  178.6310  147.9940 O   0  0  0  0  0  1  0  0  0  0  0  0
  188.0230  177.6540  144.2190 C   0  0  0  0  0  2  0  0  0  0  0  0
  187.0900  176.3340  142.1530 N   0  0  0  0  0  0  0  0  0  0  0  0
  187.5010  176.9160  143.0630 C   0  0  0  0  0  0  0  0  0  0  0  0
  190.9720  177.1840  145.4070 C   0  0  0  0  0  2  0  0  0  0  0  0
  192.1400  177.1440  144.4270 C   0  0  2  0  0  3  0  0  0  0  0  0
  191.8850  176.2540  143.3980 F   0  0  0  0  0  0  0  0  0  0  0  0
  193.4390  176.7840  145.1350 C   0  0  0  0  0  2  0  0  0  0  0  0
  195.9600  174.6570  145.2680 C   0  0  0  0  0  0  0  0  0  0  0  0
  194.6790  174.7040  145.3670 N   0  0  0  0  0  0  0  0  0  0  0  0
  196.4790  175.5040  144.3140 O   0  0  0  0  0  0  0  0  0  0  0  0
  194.1670  175.6680  144.4010 C   0  0  2  0  0  3  0  0  0  0  0  0
  195.4180  176.2170  143.7010 C   0  0  2  0  0  3  0  0  0  0  0  0
  196.7980  173.7650  146.1120 C   0  0  0  0  0  1  0  0  0  0  0  0
  195.3600  175.8850  142.2210 C   0  0  0  0  0  2  0  0  0  0  0  0
  196.1160  176.8090  141.5000 O   0  0  0  0  0  1  0  0  0  0  0  0
  1 11  1  0  0  0  0
  1  4  1  0  0  0  0
  2  1  2  0  0  0  0
  3  6  2  0  0  0  0
  5  4  2  0  0  0  0
  6  5  1  0  0  0  0
  7  2  1  0  0  0  0
  7 16  1  1  0  0  0
  7  6  1  0  0  0  0
  8 11  1  0  0  0  0
  9 10  2  0  0  0  0
  9 12  1  0  0  0  0
 11  9  1  0  0  0  0
 13  2  1  0  0  0  0
 14 15  3  0  0  0  0
 15 13  1  0  0  0  0
 17 18  1  6  0  0  0
 17 19  1  0  0  0  0
 17 16  1  0  0  0  0
 20 21  2  0  0  0  0
 20 25  1  0  0  0  0
 22 20  1  0  0  0  0
 23 19  1  1  0  0  0
 23 21  1  0  0  0  0
 24 26  1  6  0  0  0
 24 22  1  0  0  0  0
 24 23  1  0  0  0  0
 27 26  1  0  0  0  0
M  END
>  <MODEL>
8

>  <REMARK>
 VINA RESULT:      -6.3      2.641      8.373
  Name = 
  8 active torsions:
  status: ('A' for Active; 'I' for Inactive)
    1  A    between atoms: C_1  and  N_20
    2  A    between atoms: C_2  and  C_5
    3  A    between atoms: C_2  and  C_19
    4  A    between atoms: C_3  and  C_23
    5  A    between atoms: C_5  and  C_21
    6  A    between atoms: C_9  and  C_17
    7  A    between atoms: C_17  and  C_22
    8  A    between atoms: C_19  and  C_24
                            x       y       z     vdW  Elec       q    Type
                         _______ _______ _______ _____ _____    ______ ____

>  <TORSDO>
F 8

$$$$
=
 OpenBabel11042414213D

 27 28  0  0  1  0  0  0  0  0999 V2000
  190.8110  174.7650  144.9730 C   0  0  0  0  0  0  0  0  0  0  0  0
  191.1190  176.0690  144.7710 C   0  0  0  0  0  0  0  0  0  0  0  0
  188.9470  177.5410  147.3380 O   0  0  0  0  0  0  0  0  0  0  0  0
  189.7200  174.3910  145.9020 C   0  0  0  0  0  3  0  0  0  0  0  0
  189.0800  175.2950  146.6380 C   0  0  0  0  0  3  0  0  0  0  0  0
  189.4250  176.7130  146.5190 C   0  0  0  0  0  0  0  0  0  0  0  0
  190.3040  177.1860  145.3940 C   0  0  2  0  0  3  0  0  0  0  0  0
  191.1050  173.2010  143.1560 O   0  0  0  0  0  1  0  0  0  0  0  0
  192.7120  173.1210  144.9330 C   0  0  0  0  0  0  0  0  0  0  0  0
  193.3020  172.0050  144.3540 O   0  0  0  0  0  0  0  0  0  0  0  0
  191.5540  173.7130  144.3280 N   0  0  0  0  0  0  0  0  0  0  0  0
  193.2180  173.6160  145.9750 O   0  0  0  0  0  1  0  0  0  0  0  0
  192.3110  176.4640  143.9480 C   0  0  0  0  0  2  0  0  0  0  0  0
  194.3230  177.1550  145.4840 N   0  0  0  0  0  0  0  0  0  0  0  0
  193.4360  176.8500  144.8080 C   0  0  0  0  0  0  0  0  0  0  0  0
  189.4450  177.8670  144.3310 C   0  0  0  0  0  2  0  0  0  0  0  0
  188.0840  177.1970  144.1760 C   0  0  2  0  0  3  0  0  0  0  0  0
  188.1660  176.1120  143.3210 F   0  0  0  0  0  0  0  0  0  0  0  0
  187.0370  178.1870  143.6840 C   0  0  0  0  0  2  0  0  0  0  0  0
  183.8810  178.2260  142.7170 C   0  0  0  0  0  0  0  0  0  0  0  0
  184.9120  177.4580  142.7510 N   0  0  0  0  0  0  0  0  0  0  0  0
  183.7480  179.0340  143.8250 O   0  0  0  0  0  0  0  0  0  0  0  0
  185.6330  177.6930  143.9960 C   0  0  2  0  0  3  0  0  0  0  0  0
  184.8280  178.7870  144.7100 C   0  0  2  0  0  3  0  0  0  0  0  0
  182.9230  178.2330  141.5800 C   0  0  0  0  0  1  0  0  0  0  0  0
  184.3020  178.2530  146.0300 C   0  0  0  0  0  2  0  0  0  0  0  0
  185.0290  178.8040  147.0850 O   0  0  0  0  0  1  0  0  0  0  0  0
  1  4  1  0  0  0  0
  2  1  2  0  0  0  0
  2  7  1  0  0  0  0
  4  5  2  0  0  0  0
  6  5  1  0  0  0  0
  6  3  2  0  0  0  0
  7 16  1  6  0  0  0
  7  6  1  0  0  0  0
  8 11  1  0  0  0  0
  9 12  1  0  0  0  0
 10  9  2  0  0  0  0
 11  9  1  0  0  0  0
 11  1  1  0  0  0  0
 13  2  1  0  0  0  0
 13 15  1  0  0  0  0
 15 14  3  0  0  0  0
 17 18  1  6  0  0  0
 17 16  1  0  0  0  0
 19 17  1  0  0  0  0
 20 21  2  0  0  0  0
 20 22  1  0  0  0  0
 21 23  1  0  0  0  0
 22 24  1  0  0  0  0
 23 19  1  6  0  0  0
 23 24  1  0  0  0  0
 24 26  1  1  0  0  0
 25 20  1  0  0  0  0
 26 27  1  0  0  0  0
M  END
>  <MODEL>
9

>  <REMARK>
 VINA RESULT:      -6.2      1.755      2.948
  Name = 
  8 active torsions:
  status: ('A' for Active; 'I' for Inactive)
    1  A    between atoms: C_1  and  N_20
    2  A    between atoms: C_2  and  C_5
    3  A    between atoms: C_2  and  C_19
    4  A    between atoms: C_3  and  C_23
    5  A    between atoms: C_5  and  C_21
    6  A    between atoms: C_9  and  C_17
    7  A    between atoms: C_17  and  C_22
    8  A    between atoms: C_19  and  C_24
                            x       y       z     vdW  Elec       q    Type
                         _______ _______ _______ _____ _____    ______ ____

>  <TORSDO>
F 8

$$$$
