=
 OpenBabel11042416413D

 55 64  0  0  1  0  0  0  0  0999 V2000
  189.9720  174.9590  142.9330 O   0  0  0  0  0  0  0  0  0  0  0  0
  191.1260  173.8740  144.7050 C   0  0  1  0  0  3  0  0  0  0  0  0
  189.5900  174.9990  146.2970 C   0  0  0  0  0  0  0  0  0  0  0  0
  190.4110  175.0380  145.1180 N   0  0  0  0  0  0  0  0  0  0  0  0
  190.6480  171.3070  142.8180 C   0  0  0  0  0  2  0  0  0  0  0  0
  193.9540  170.3340  141.3200 C   0  0  0  0  0  0  0  0  0  0  0  0
  192.7540  169.4690  141.5980 C   0  0  0  0  0  2  0  0  0  0  0  0
  194.6270  170.3270  140.0820 C   0  0  0  0  0  0  0  0  0  0  0  0
  190.7170  173.7980  143.2520 C   0  0  1  0  0  3  0  0  0  0  0  0
  195.6890  171.2110  139.8730 C   0  0  0  0  0  3  0  0  0  0  0  0
  197.1980  173.3220  143.3480 C   0  0  0  0  0  3  0  0  0  0  0  0
  197.6360  174.1450  144.3850 C   0  0  0  0  0  3  0  0  0  0  0  0
  194.3670  171.2100  142.3240 C   0  0  0  0  0  3  0  0  0  0  0  0
  196.0870  172.0910  140.8860 C   0  0  0  0  0  3  0  0  0  0  0  0
  196.7420  174.6810  145.2590 N   0  0  0  0  0  0  0  0  0  0  0  0
  194.5200  175.0400  146.0510 C   0  0  0  0  0  3  0  0  0  0  0  0
  193.5220  173.4680  143.9690 C   0  0  0  0  0  3  0  0  0  0  0  0
  192.6240  174.0920  144.8480 C   0  0  0  0  0  0  0  0  0  0  0  0
  191.3750  171.3740  141.5610 N   0  0  0  0  0  2  0  0  0  0  0  0
  189.1730  173.8870  146.7270 O   0  0  0  0  0  0  0  0  0  0  0  0
  195.4060  174.4520  145.1430 C   0  0  0  0  0  0  0  0  0  0  0  0
  194.9130  173.6340  144.0990 C   0  0  0  0  0  0  0  0  0  0  0  0
  195.8340  173.0400  143.1970 C   0  0  0  0  0  0  0  0  0  0  0  0
  195.4130  172.1120  142.1160 C   0  0  0  0  0  0  0  0  0  0  0  0
  191.5210  170.0610  141.0710 N   0  0  0  0  0  2  0  0  0  0  0  0
  193.1410  174.8540  145.9100 C   0  0  0  0  0  3  0  0  0  0  0  0
  189.8340  172.5780  143.0100 C   0  0  0  0  0  2  0  0  0  0  0  0
  189.9940  175.7950  144.0180 N   0  0  0  0  0  2  0  0  0  0  0  0
  194.1770  169.4580  138.9540 C   0  0  0  0  0  2  0  0  0  0  0  0
  193.3540  170.2330  138.0380 N   0  0  0  0  0  2  0  0  0  0  0  0
  191.7790  170.3560  136.1150 N   0  0  0  0  0  0  0  0  0  0  0  0
  191.3420  169.8320  134.8270 C   0  0  0  0  0  1  0  0  0  0  0  0
  192.7370  169.6280  136.8990 C   0  0  0  0  0  0  0  0  0  0  0  0
  193.0330  168.4440  136.5830 O   0  0  0  0  0  0  0  0  0  0  0  0
  191.2950  171.6730  136.5220 C   0  0  0  0  0  2  0  0  0  0  0  0
  189.5570  171.3730  138.3460 C   0  0  0  0  0  2  0  0  0  0  0  0
  189.7940  171.6510  136.8490 C   0  0  1  0  0  3  0  0  0  0  0  0
  188.8210  173.8530  138.4960 C   0  0  2  0  0  3  0  0  0  0  0  0
  188.8330  172.4920  139.1230 C   0  0  2  0  0  3  0  0  0  0  0  0
  189.5080  173.8950  137.1380 C   0  0  0  0  0  2  0  0  0  0  0  0
  189.7620  173.4880  139.4770 O   0  0  0  0  0  0  0  0  0  0  0  0
  189.1050  172.7920  136.3720 O   0  0  0  0  0  0  0  0  0  0  0  0
  189.1240  176.2800  146.9410 C   0  0  2  0  0  3  0  0  0  0  0  0
  187.9190  176.8400  146.2320 C   0  0  0  0  0  3  0  0  0  0  0  0
  186.6910  176.3610  146.4530 C   0  0  0  0  0  3  0  0  0  0  0  0
  185.1470  178.3160  146.3990 C   0  0  1  0  0  3  0  0  0  0  0  0
  185.4970  176.9540  145.7610 C   0  0  1  0  0  3  0  0  0  0  0  0
  184.5420  179.2030  144.2020 C   0  0  2  0  0  3  0  0  0  0  0  0
  184.7100  177.8660  143.5840 N   0  0  0  0  0  0  0  0  0  0  0  0
  185.4460  179.4440  145.4170 C   0  0  1  0  0  3  0  0  0  0  0  0
  185.7290  177.0270  144.2390 C   0  0  0  0  0  2  0  0  0  0  0  0
  184.0280  179.0060  145.6220 C   0  0  2  0  0  3  0  0  0  0  0  0
  185.1520  178.0830  142.2170 C   0  0  0  0  0  1  0  0  0  0  0  0
  190.2550  177.3090  147.0230 C   0  0  0  0  0  2  0  0  0  0  0  0
  191.1580  176.9890  148.0440 O   0  0  0  0  0  1  0  0  0  0  0  0
  1  9  1  0  0  0  0
  1 28  1  0  0  0  0
  2 18  1  6  0  0  0
  2  4  1  0  0  0  0
  3 20  2  0  0  0  0
  3 43  1  0  0  0  0
  4  3  1  0  0  0  0
  5 27  1  0  0  0  0
  6  7  1  0  0  0  0
  6 13  1  0  0  0  0
  8  6  2  0  0  0  0
  9 27  1  1  0  0  0
  9  2  1  0  0  0  0
 10  8  1  0  0  0  0
 10 14  2  0  0  0  0
 11 12  1  0  0  0  0
 12 15  2  0  0  0  0
 14 24  1  0  0  0  0
 17 22  2  0  0  0  0
 17 18  1  0  0  0  0
 18 26  2  0  0  0  0
 19  5  1  0  0  0  0
 21 15  1  0  0  0  0
 21 16  2  0  0  0  0
 22 21  1  0  0  0  0
 23 11  2  0  0  0  0
 23 22  1  0  0  0  0
 24 13  2  0  0  0  0
 24 23  1  0  0  0  0
 25 19  1  0  0  0  0
 25  7  1  0  0  0  0
 26 16  1  0  0  0  0
 28  4  1  0  0  0  0
 29  8  1  0  0  0  0
 30 29  1  0  0  0  0
 31 35  1  0  0  0  0
 31 33  1  0  0  0  0
 32 31  1  0  0  0  0
 33 30  1  0  0  0  0
 34 33  2  0  0  0  0
 37 35  1  1  0  0  0
 37 36  1  0  0  0  0
 38 40  1  6  0  0  0
 38 39  1  0  0  0  0
 38 41  1  0  0  0  0
 39 36  1  6  0  0  0
 39 41  1  0  0  0  0
 42 37  1  0  0  0  0
 42 40  1  0  0  0  0
 43 44  1  6  0  0  0
 43 54  1  0  0  0  0
 44 45  2  0  0  0  0
 47 46  1  0  0  0  0
 47 45  1  1  0  0  0
 48 50  1  0  0  0  0
 48 52  1  0  0  0  0
 49 48  1  0  0  0  0
 49 51  1  0  0  0  0
 50 52  1  0  0  0  0
 50 46  1  0  0  0  0
 51 47  1  0  0  0  0
 52 46  1  0  0  0  0
 53 49  1  0  0  0  0
 54 55  1  0  0  0  0
M  END
>  <MODEL>
1

>  <REMARK>
 VINA RESULT:      -8.9      0.000      0.000
  Name = 
  8 active torsions:
  status: ('A' for Active; 'I' for Inactive)
    1  A    between atoms: C_4  and  C_38
    2  A    between atoms: C_8  and  C_38
    3  A    between atoms: C_10  and  C_48
    4  A    between atoms: N_11  and  C_25
    5  A    between atoms: C_12  and  C_25
    6  A    between atoms: C_14  and  C_22
    7  A    between atoms: C_20  and  C_38
    8  A    between atoms: C_22  and  N_30
                            x       y       z     vdW  Elec       q    Type
                         _______ _______ _______ _____ _____    ______ ____

>  <TORSDO>
F 8

$$$$
=
 OpenBabel11042416413D

 55 64  0  0  1  0  0  0  0  0999 V2000
  189.2710  175.2650  142.8600 O   0  0  0  0  0  0  0  0  0  0  0  0
  190.9450  174.5460  144.3850 C   0  0  1  0  0  3  0  0  0  0  0  0
  189.4900  175.3290  146.2380 C   0  0  0  0  0  0  0  0  0  0  0  0
  190.0570  175.5210  144.9300 N   0  0  0  0  0  0  0  0  0  0  0  0
  190.7690  171.8760  142.5920 C   0  0  0  0  0  2  0  0  0  0  0  0
  193.8950  171.6630  140.5170 C   0  0  0  0  0  0  0  0  0  0  0  0
  193.0050  170.5490  140.9980 C   0  0  0  0  0  2  0  0  0  0  0  0
  194.3200  171.7730  139.1780 C   0  0  0  0  0  0  0  0  0  0  0  0
  190.3160  174.3260  143.0290 C   0  0  1  0  0  3  0  0  0  0  0  0
  195.0860  172.8760  138.7890 C   0  0  0  0  0  3  0  0  0  0  0  0
  196.6350  175.4020  141.9550 C   0  0  0  0  0  3  0  0  0  0  0  0
  197.0390  176.3400  142.9050 C   0  0  0  0  0  3  0  0  0  0  0  0
  194.2560  172.6460  141.4380 C   0  0  0  0  0  3  0  0  0  0  0  0
  195.4340  173.8590  139.7220 C   0  0  0  0  0  3  0  0  0  0  0  0
  196.2120  176.6790  143.9300 N   0  0  0  0  0  0  0  0  0  0  0  0
  194.1440  176.5290  145.1110 C   0  0  0  0  0  3  0  0  0  0  0  0
  193.2000  174.6950  143.2280 C   0  0  0  0  0  3  0  0  0  0  0  0
  192.3480  175.1170  144.2590 C   0  0  0  0  0  0  0  0  0  0  0  0
  191.2260  172.0700  141.2250 N   0  0  0  0  0  2  0  0  0  0  0  0
  189.4340  174.1660  146.7250 O   0  0  0  0  0  0  0  0  0  0  0  0
  194.9710  176.1360  144.0530 C   0  0  0  0  0  0  0  0  0  0  0  0
  194.5110  175.1900  143.1080 C   0  0  0  0  0  0  0  0  0  0  0  0
  195.3730  174.8000  142.0500 C   0  0  0  0  0  0  0  0  0  0  0  0
  195.0030  173.7620  141.0540 C   0  0  0  0  0  0  0  0  0  0  0  0
  191.5930  170.8130  140.7060 N   0  0  0  0  0  2  0  0  0  0  0  0
  192.8470  176.0170  145.2180 C   0  0  0  0  0  3  0  0  0  0  0  0
  189.7220  172.9230  142.9380 C   0  0  0  0  0  2  0  0  0  0  0  0
  189.2830  176.1200  143.9300 N   0  0  0  0  0  2  0  0  0  0  0  0
  193.9000  170.7840  138.1410 C   0  0  0  0  0  2  0  0  0  0  0  0
  193.1520  171.4620  137.0930 N   0  0  0  0  0  2  0  0  0  0  0  0
  190.9980  172.0000  135.9690 N   0  0  0  0  0  0  0  0  0  0  0  0
  189.6640  171.5740  135.5640 C   0  0  0  0  0  1  0  0  0  0  0  0
  191.7660  171.1910  136.8740 C   0  0  0  0  0  0  0  0  0  0  0  0
  191.2110  170.2360  137.4830 O   0  0  0  0  0  0  0  0  0  0  0  0
  191.5540  173.2010  135.3520 C   0  0  0  0  0  2  0  0  0  0  0  0
  192.7120  174.9740  136.7490 C   0  0  0  0  0  2  0  0  0  0  0  0
  191.3590  174.4390  136.2400 C   0  0  1  0  0  3  0  0  0  0  0  0
  192.3180  176.9610  135.1320 C   0  0  2  0  0  3  0  0  0  0  0  0
  193.0660  176.4100  136.3070 C   0  0  2  0  0  3  0  0  0  0  0  0
  191.2730  176.0000  134.5810 C   0  0  0  0  0  2  0  0  0  0  0  0
  193.5920  176.3780  135.0030 O   0  0  0  0  0  0  0  0  0  0  0  0
  190.5500  175.4320  135.6390 O   0  0  0  0  0  0  0  0  0  0  0  0
  188.8520  176.4850  146.9660 C   0  0  2  0  0  3  0  0  0  0  0  0
  187.6630  177.0170  146.2090 C   0  0  0  0  0  3  0  0  0  0  0  0
  186.4550  176.4580  146.3210 C   0  0  0  0  0  3  0  0  0  0  0  0
  184.8690  178.3770  146.2070 C   0  0  1  0  0  3  0  0  0  0  0  0
  185.2740  177.0240  145.5840 C   0  0  1  0  0  3  0  0  0  0  0  0
  184.3260  179.2490  143.9880 C   0  0  2  0  0  3  0  0  0  0  0  0
  184.5480  177.9160  143.3780 N   0  0  0  0  0  0  0  0  0  0  0  0
  185.1780  179.5120  145.2360 C   0  0  1  0  0  3  0  0  0  0  0  0
  185.5610  177.1010  144.0720 C   0  0  0  0  0  2  0  0  0  0  0  0
  183.7640  179.0400  145.3880 C   0  0  2  0  0  3  0  0  0  0  0  0
  185.0370  178.1430  142.0290 C   0  0  0  0  0  1  0  0  0  0  0  0
  189.8690  177.5910  147.2620 C   0  0  0  0  0  2  0  0  0  0  0  0
  190.9460  177.1000  148.0100 O   0  0  0  0  0  1  0  0  0  0  0  0
  1  9  1  0  0  0  0
  1 28  1  0  0  0  0
  2 18  1  6  0  0  0
  2  4  1  0  0  0  0
  3 20  2  0  0  0  0
  3 43  1  0  0  0  0
  4  3  1  0  0  0  0
  5 27  1  0  0  0  0
  6  7  1  0  0  0  0
  6 13  1  0  0  0  0
  8  6  2  0  0  0  0
  9 27  1  1  0  0  0
  9  2  1  0  0  0  0
 10  8  1  0  0  0  0
 10 14  2  0  0  0  0
 11 23  2  0  0  0  0
 11 12  1  0  0  0  0
 12 15  2  0  0  0  0
 14 24  1  0  0  0  0
 15 21  1  0  0  0  0
 16 26  1  0  0  0  0
 17 18  1  0  0  0  0
 18 26  2  0  0  0  0
 19  5  1  0  0  0  0
 21 16  2  0  0  0  0
 22 17  2  0  0  0  0
 22 21  1  0  0  0  0
 23 22  1  0  0  0  0
 24 13  2  0  0  0  0
 24 23  1  0  0  0  0
 25  7  1  0  0  0  0
 25 19  1  0  0  0  0
 28  4  1  0  0  0  0
 29  8  1  0  0  0  0
 30 29  1  0  0  0  0
 31 33  1  0  0  0  0
 32 31  1  0  0  0  0
 33 30  1  0  0  0  0
 33 34  2  0  0  0  0
 35 31  1  0  0  0  0
 37 35  1  6  0  0  0
 37 36  1  0  0  0  0
 38 40  1  6  0  0  0
 38 39  1  0  0  0  0
 39 36  1  6  0  0  0
 40 42  1  0  0  0  0
 41 38  1  0  0  0  0
 41 39  1  0  0  0  0
 42 37  1  0  0  0  0
 43 44  1  6  0  0  0
 43 54  1  0  0  0  0
 44 45  2  0  0  0  0
 47 46  1  0  0  0  0
 47 45  1  1  0  0  0
 48 50  1  0  0  0  0
 48 52  1  0  0  0  0
 49 48  1  0  0  0  0
 49 51  1  0  0  0  0
 50 52  1  0  0  0  0
 50 46  1  0  0  0  0
 51 47  1  0  0  0  0
 52 46  1  0  0  0  0
 53 49  1  0  0  0  0
 54 55  1  0  0  0  0
M  END
>  <MODEL>
2

>  <REMARK>
 VINA RESULT:      -8.8      1.936      2.243
  Name = 
  8 active torsions:
  status: ('A' for Active; 'I' for Inactive)
    1  A    between atoms: C_4  and  C_38
    2  A    between atoms: C_8  and  C_38
    3  A    between atoms: C_10  and  C_48
    4  A    between atoms: N_11  and  C_25
    5  A    between atoms: C_12  and  C_25
    6  A    between atoms: C_14  and  C_22
    7  A    between atoms: C_20  and  C_38
    8  A    between atoms: C_22  and  N_30
                            x       y       z     vdW  Elec       q    Type
                         _______ _______ _______ _____ _____    ______ ____

>  <TORSDO>
F 8

$$$$
=
 OpenBabel11042416413D

 55 64  0  0  1  0  0  0  0  0999 V2000
  190.2530  174.4560  147.3690 O   0  0  0  0  0  0  0  0  0  0  0  0
  190.1270  175.9950  145.5620 C   0  0  1  0  0  3  0  0  0  0  0  0
  188.1350  176.9980  146.6520 C   0  0  0  0  0  0  0  0  0  0  0  0
  188.8960  175.8400  146.2680 N   0  0  0  0  0  0  0  0  0  0  0  0
  193.2570  176.3310  146.2430 C   0  0  0  0  0  2  0  0  0  0  0  0
  195.2260  174.7010  143.4890 C   0  0  0  0  0  0  0  0  0  0  0  0
  195.6320  175.8300  144.3960 C   0  0  0  0  0  2  0  0  0  0  0  0
  196.0460  173.5780  143.2560 C   0  0  0  0  0  0  0  0  0  0  0  0
  191.0380  175.1280  146.4010 C   0  0  1  0  0  3  0  0  0  0  0  0
  195.5710  172.5340  142.4570 C   0  0  0  0  0  3  0  0  0  0  0  0
  191.9200  173.2690  140.2360 C   0  0  0  0  0  3  0  0  0  0  0  0
  190.6770  173.3780  139.6120 C   0  0  0  0  0  3  0  0  0  0  0  0
  193.9600  174.7610  142.9070 C   0  0  0  0  0  3  0  0  0  0  0  0
  194.2950  172.6040  141.8880 C   0  0  0  0  0  3  0  0  0  0  0  0
  189.6430  173.9950  140.2460 N   0  0  0  0  0  0  0  0  0  0  0  0
  188.6830  175.1110  142.1230 C   0  0  0  0  0  3  0  0  0  0  0  0
  191.1040  174.8870  143.4970 C   0  0  0  0  0  3  0  0  0  0  0  0
  189.9980  175.4570  144.1470 C   0  0  0  0  0  0  0  0  0  0  0  0
  194.0360  175.1320  145.9760 N   0  0  0  0  0  2  0  0  0  0  0  0
  188.7110  178.1180  146.7420 O   0  0  0  0  0  0  0  0  0  0  0  0
  189.7780  174.5040  141.5000 C   0  0  0  0  0  0  0  0  0  0  0  0
  191.0160  174.4070  142.1780 C   0  0  0  0  0  0  0  0  0  0  0  0
  192.1140  173.7950  141.5200 C   0  0  0  0  0  0  0  0  0  0  0  0
  193.4680  173.7130  142.1260 C   0  0  0  0  0  0  0  0  0  0  0  0
  195.3810  175.5150  145.8060 N   0  0  0  0  0  2  0  0  0  0  0  0
  188.7950  175.5910  143.4320 C   0  0  0  0  0  3  0  0  0  0  0  0
  192.0690  175.9860  147.1280 C   0  0  0  0  0  2  0  0  0  0  0  0
  188.9340  174.7330  147.1220 N   0  0  0  0  0  2  0  0  0  0  0  0
  197.3790  173.4360  143.9120 C   0  0  0  0  0  2  0  0  0  0  0  0
  197.5870  172.0490  144.3020 N   0  0  0  0  0  2  0  0  0  0  0  0
  197.2010  170.1580  145.8720 N   0  0  0  0  0  0  0  0  0  0  0  0
  197.0030  169.6950  147.2400 C   0  0  0  0  0  1  0  0  0  0  0  0
  197.1620  171.5630  145.5770 C   0  0  0  0  0  0  0  0  0  0  0  0
  196.7450  172.3730  146.4490 O   0  0  0  0  0  0  0  0  0  0  0  0
  197.5360  169.1680  144.8520 C   0  0  0  0  0  2  0  0  0  0  0  0
  195.2530  168.3910  145.6440 C   0  0  0  0  0  2  0  0  0  0  0  0
  196.3820  168.1810  144.6160 C   0  0  1  0  0  3  0  0  0  0  0  0
  193.8870  169.3500  143.6610 C   0  0  2  0  0  3  0  0  0  0  0  0
  193.8860  168.7970  145.0540 C   0  0  2  0  0  3  0  0  0  0  0  0
  195.2700  169.3800  143.0270 C   0  0  0  0  0  2  0  0  0  0  0  0
  193.8830  170.1800  144.7980 O   0  0  0  0  0  0  0  0  0  0  0  0
  195.9290  168.1670  143.2760 O   0  0  0  0  0  0  0  0  0  0  0  0
  186.6920  176.8550  147.0670 C   0  0  2  0  0  3  0  0  0  0  0  0
  185.7870  176.7520  145.8670 C   0  0  0  0  0  3  0  0  0  0  0  0
  186.1000  177.3290  144.7030 C   0  0  0  0  0  3  0  0  0  0  0  0
  184.0570  178.2210  143.5880 C   0  0  1  0  0  3  0  0  0  0  0  0
  185.2000  177.1860  143.5080 C   0  0  1  0  0  3  0  0  0  0  0  0
  184.1510  178.5290  141.1640 C   0  0  2  0  0  3  0  0  0  0  0  0
  185.1310  177.4250  141.0320 N   0  0  0  0  0  0  0  0  0  0  0  0
  184.2310  179.2760  142.5010 C   0  0  1  0  0  3  0  0  0  0  0  0
  186.0140  177.2660  142.2010 C   0  0  0  0  0  2  0  0  0  0  0  0
  183.2120  178.1940  142.3160 C   0  0  2  0  0  3  0  0  0  0  0  0
  185.9810  177.7460  139.8980 C   0  0  0  0  0  1  0  0  0  0  0  0
  186.2620  177.9920  147.9990 C   0  0  0  0  0  2  0  0  0  0  0  0
  185.0160  178.5080  147.6250 O   0  0  0  0  0  1  0  0  0  0  0  0
  2 18  1  6  0  0  0
  2  4  1  0  0  0  0
  2  9  1  0  0  0  0
  3 20  2  0  0  0  0
  3 43  1  0  0  0  0
  4  3  1  0  0  0  0
  4 28  1  0  0  0  0
  5 27  1  0  0  0  0
  6  7  1  0  0  0  0
  7 25  1  0  0  0  0
  8  6  1  0  0  0  0
  8 29  1  0  0  0  0
  9 27  1  1  0  0  0
  9  1  1  0  0  0  0
 10  8  2  0  0  0  0
 11 23  1  0  0  0  0
 12 11  2  0  0  0  0
 12 15  1  0  0  0  0
 13  6  2  0  0  0  0
 14 24  2  0  0  0  0
 14 10  1  0  0  0  0
 15 21  2  0  0  0  0
 16 26  2  0  0  0  0
 17 18  2  0  0  0  0
 19  5  1  0  0  0  0
 21 16  1  0  0  0  0
 21 22  1  0  0  0  0
 22 17  1  0  0  0  0
 23 24  1  0  0  0  0
 23 22  2  0  0  0  0
 24 13  1  0  0  0  0
 25 19  1  0  0  0  0
 26 18  1  0  0  0  0
 28  1  1  0  0  0  0
 29 30  1  0  0  0  0
 30 33  1  0  0  0  0
 31 32  1  0  0  0  0
 33 31  1  0  0  0  0
 33 34  2  0  0  0  0
 35 31  1  0  0  0  0
 37 35  1  6  0  0  0
 37 36  1  0  0  0  0
 38 40  1  1  0  0  0
 38 41  1  0  0  0  0
 38 39  1  0  0  0  0
 39 36  1  1  0  0  0
 40 42  1  0  0  0  0
 41 39  1  0  0  0  0
 42 37  1  0  0  0  0
 43 44  1  6  0  0  0
 43 54  1  0  0  0  0
 45 44  2  0  0  0  0
 47 46  1  0  0  0  0
 47 45  1  1  0  0  0
 48 52  1  0  0  0  0
 48 50  1  0  0  0  0
 49 48  1  0  0  0  0
 49 51  1  0  0  0  0
 50 46  1  0  0  0  0
 51 47  1  0  0  0  0
 52 50  1  0  0  0  0
 52 46  1  0  0  0  0
 53 49  1  0  0  0  0
 55 54  1  0  0  0  0
M  END
>  <MODEL>
3

>  <REMARK>
 VINA RESULT:      -7.9      3.254      6.433
  Name = 
  8 active torsions:
  status: ('A' for Active; 'I' for Inactive)
    1  A    between atoms: C_4  and  C_38
    2  A    between atoms: C_8  and  C_38
    3  A    between atoms: C_10  and  C_48
    4  A    between atoms: N_11  and  C_25
    5  A    between atoms: C_12  and  C_25
    6  A    between atoms: C_14  and  C_22
    7  A    between atoms: C_20  and  C_38
    8  A    between atoms: C_22  and  N_30
                            x       y       z     vdW  Elec       q    Type
                         _______ _______ _______ _____ _____    ______ ____

>  <TORSDO>
F 8

$$$$
=
 OpenBabel11042416413D

 55 64  0  0  1  0  0  0  0  0999 V2000
  188.8100  172.6990  141.3210 O   0  0  0  0  0  0  0  0  0  0  0  0
  190.9080  173.6880  140.8010 C   0  0  1  0  0  3  0  0  0  0  0  0
  190.7080  172.7370  138.5170 C   0  0  0  0  0  0  0  0  0  0  0  0
  190.5590  172.6040  139.9410 N   0  0  0  0  0  0  0  0  0  0  0  0
  189.4880  176.2660  142.1100 C   0  0  0  0  0  2  0  0  0  0  0  0
  191.0770  176.8950  145.4570 C   0  0  0  0  0  0  0  0  0  0  0  0
  190.4080  177.8750  144.5320 C   0  0  0  0  0  2  0  0  0  0  0  0
  190.7800  176.8210  146.8320 C   0  0  0  0  0  0  0  0  0  0  0  0
  189.6580  173.7860  141.6450 C   0  0  1  0  0  3  0  0  0  0  0  0
  191.3880  175.8350  147.6150 C   0  0  0  0  0  3  0  0  0  0  0  0
  194.6520  173.6290  145.8010 C   0  0  0  0  0  3  0  0  0  0  0  0
  195.6040  172.7800  145.2370 C   0  0  0  0  0  3  0  0  0  0  0  0
  191.9850  175.9940  144.8990 C   0  0  0  0  0  3  0  0  0  0  0  0
  192.2900  174.9330  147.0390 C   0  0  0  0  0  3  0  0  0  0  0  0
  195.4620  172.3450  143.9560 N   0  0  0  0  0  0  0  0  0  0  0  0
  194.2740  172.2130  141.8920 C   0  0  0  0  0  3  0  0  0  0  0  0
  192.2670  173.8490  142.9400 C   0  0  0  0  0  3  0  0  0  0  0  0
  192.1190  173.3270  141.6460 C   0  0  0  0  0  0  0  0  0  0  0  0
  189.2140  176.1140  143.5300 N   0  0  0  0  0  2  0  0  0  0  0  0
  190.7470  173.8900  138.0020 O   0  0  0  0  0  0  0  0  0  0  0  0
  194.3910  172.7010  143.1970 C   0  0  0  0  0  0  0  0  0  0  0  0
  193.3930  173.5500  143.7290 C   0  0  0  0  0  0  0  0  0  0  0  0
  193.5410  174.0410  145.0520 C   0  0  0  0  0  0  0  0  0  0  0  0
  192.5810  174.9920  145.6670 C   0  0  0  0  0  0  0  0  0  0  0  0
  189.0930  177.4000  144.0910 N   0  0  0  0  0  2  0  0  0  0  0  0
  193.1510  172.5300  141.1200 C   0  0  0  0  0  3  0  0  0  0  0  0
  188.9130  175.0830  141.3460 C   0  0  0  0  0  2  0  0  0  0  0  0
  189.4770  171.8780  140.4510 N   0  0  0  0  0  2  0  0  0  0  0  0
  189.7630  177.7160  147.4610 C   0  0  0  0  0  2  0  0  0  0  0  0
  188.4430  177.4030  146.9330 N   0  0  0  0  0  2  0  0  0  0  0  0
  186.0080  177.8830  146.7630 N   0  0  0  0  0  0  0  0  0  0  0  0
  184.7830  178.3510  147.3990 C   0  0  0  0  0  1  0  0  0  0  0  0
  187.2720  178.0620  147.4200 C   0  0  0  0  0  0  0  0  0  0  0  0
  187.3500  178.8080  148.4340 O   0  0  0  0  0  0  0  0  0  0  0  0
  185.8920  177.1490  145.5060 C   0  0  0  0  0  2  0  0  0  0  0  0
  185.6440  179.2360  144.0840 C   0  0  0  0  0  2  0  0  0  0  0  0
  185.0090  177.8920  144.4910 C   0  0  1  0  0  3  0  0  0  0  0  0
  186.0890  178.1130  141.7910 C   0  0  2  0  0  3  0  0  0  0  0  0
  185.9920  179.3790  142.5870 C   0  0  2  0  0  3  0  0  0  0  0  0
  185.7760  176.8660  142.6050 C   0  0  0  0  0  2  0  0  0  0  0  0
  187.2220  178.7450  142.3350 O   0  0  0  0  0  0  0  0  0  0  0  0
  184.6340  177.0880  143.3890 O   0  0  0  0  0  0  0  0  0  0  0  0
  190.6910  171.5150  137.6340 C   0  0  2  0  0  3  0  0  0  0  0  0
  191.9430  170.6970  137.8110 C   0  0  0  0  0  3  0  0  0  0  0  0
  192.0290  169.7400  138.7400 C   0  0  0  0  0  3  0  0  0  0  0  0
  194.4140  169.5370  138.0450 C   0  0  1  0  0  3  0  0  0  0  0  0
  193.2750  168.9120  138.8790 C   0  0  1  0  0  3  0  0  0  0  0  0
  196.0320  168.9170  139.7700 C   0  0  2  0  0  3  0  0  0  0  0  0
  194.9940  168.1660  140.5150 N   0  0  0  0  0  0  0  0  0  0  0  0
  195.4850  170.1060  138.9690 C   0  0  1  0  0  3  0  0  0  0  0  0
  193.6340  168.7130  140.3640 C   0  0  0  0  0  2  0  0  0  0  0  0
  195.7280  168.7960  138.2820 C   0  0  2  0  0  3  0  0  0  0  0  0
  195.3350  168.2550  141.9240 C   0  0  0  0  0  1  0  0  0  0  0  0
  190.4650  171.8870  136.1660 C   0  0  0  0  0  2  0  0  0  0  0  0
  189.3360  171.2420  135.6480 O   0  0  0  0  0  1  0  0  0  0  0  0
  1  9  1  0  0  0  0
  2  9  1  0  0  0  0
  2 18  1  1  0  0  0
  3  4  1  0  0  0  0
  4 28  1  0  0  0  0
  4  2  1  0  0  0  0
  5 19  1  0  0  0  0
  6  8  1  0  0  0  0
  7  6  1  0  0  0  0
  8 29  1  0  0  0  0
  8 10  2  0  0  0  0
  9 27  1  6  0  0  0
 12 11  1  0  0  0  0
 13  6  2  0  0  0  0
 13 24  1  0  0  0  0
 14 10  1  0  0  0  0
 15 12  2  0  0  0  0
 16 21  1  0  0  0  0
 17 22  1  0  0  0  0
 18 17  2  0  0  0  0
 19 25  1  0  0  0  0
 20  3  2  0  0  0  0
 21 22  2  0  0  0  0
 21 15  1  0  0  0  0
 22 23  1  0  0  0  0
 23 24  1  0  0  0  0
 23 11  2  0  0  0  0
 24 14  2  0  0  0  0
 25  7  1  0  0  0  0
 26 18  1  0  0  0  0
 26 16  2  0  0  0  0
 27  5  1  0  0  0  0
 28  1  1  0  0  0  0
 30 33  1  0  0  0  0
 30 29  1  0  0  0  0
 31 32  1  0  0  0  0
 31 33  1  0  0  0  0
 33 34  2  0  0  0  0
 35 31  1  0  0  0  0
 36 37  1  0  0  0  0
 37 35  1  1  0  0  0
 38 41  1  0  0  0  0
 38 39  1  0  0  0  0
 38 40  1  1  0  0  0
 39 36  1  1  0  0  0
 40 42  1  0  0  0  0
 41 39  1  0  0  0  0
 42 37  1  0  0  0  0
 43 54  1  6  0  0  0
 43 44  1  0  0  0  0
 43  3  1  0  0  0  0
 44 45  2  0  0  0  0
 46 52  1  0  0  0  0
 46 47  1  0  0  0  0
 46 50  1  0  0  0  0
 47 45  1  1  0  0  0
 47 51  1  0  0  0  0
 48 49  1  0  0  0  0
 49 53  1  0  0  0  0
 50 48  1  0  0  0  0
 51 49  1  0  0  0  0
 52 50  1  0  0  0  0
 52 48  1  0  0  0  0
 55 54  1  0  0  0  0
M  END
>  <MODEL>
4

>  <REMARK>
 VINA RESULT:      -7.7      2.211      9.868
  Name = 
  8 active torsions:
  status: ('A' for Active; 'I' for Inactive)
    1  A    between atoms: C_4  and  C_38
    2  A    between atoms: C_8  and  C_38
    3  A    between atoms: C_10  and  C_48
    4  A    between atoms: N_11  and  C_25
    5  A    between atoms: C_12  and  C_25
    6  A    between atoms: C_14  and  C_22
    7  A    between atoms: C_20  and  C_38
    8  A    between atoms: C_22  and  N_30
                            x       y       z     vdW  Elec       q    Type
                         _______ _______ _______ _____ _____    ______ ____

>  <TORSDO>
F 8

$$$$
=
 OpenBabel11042416413D

 55 64  0  0  1  0  0  0  0  0999 V2000
  194.0570  176.3720  142.0660 O   0  0  0  0  0  0  0  0  0  0  0  0
  192.9590  174.5030  143.0410 C   0  0  1  0  0  3  0  0  0  0  0  0
  195.0110  174.0870  144.3740 C   0  0  0  0  0  0  0  0  0  0  0  0
  194.3820  174.4400  143.1310 N   0  0  0  0  0  0  0  0  0  0  0  0
  190.6230  176.6830  143.4500 C   0  0  0  0  0  2  0  0  0  0  0  0
  187.8470  175.8740  141.0490 C   0  0  0  0  0  0  0  0  0  0  0  0
  187.7710  176.5850  142.3730 C   0  0  0  0  0  2  0  0  0  0  0  0
  187.2400  176.3750  139.8800 C   0  0  0  0  0  0  0  0  0  0  0  0
  192.7810  175.8670  142.4130 C   0  0  1  0  0  3  0  0  0  0  0  0
  187.4150  175.6970  138.6700 C   0  0  0  0  0  3  0  0  0  0  0  0
  189.2050  171.7520  138.8750 C   0  0  0  0  0  3  0  0  0  0  0  0
  189.9080  170.5480  138.8460 C   0  0  0  0  0  3  0  0  0  0  0  0
  188.6000  174.7010  140.9860 C   0  0  0  0  0  3  0  0  0  0  0  0
  188.1810  174.5270  138.6210 C   0  0  0  0  0  3  0  0  0  0  0  0
  190.9910  170.3660  139.6500 N   0  0  0  0  0  0  0  0  0  0  0  0
  192.5610  171.1230  141.2780 C   0  0  0  0  0  3  0  0  0  0  0  0
  191.2760  173.6020  141.3670 C   0  0  0  0  0  3  0  0  0  0  0  0
  192.4360  173.4030  142.1320 C   0  0  0  0  0  0  0  0  0  0  0  0
  190.0470  177.1500  142.1990 N   0  0  0  0  0  2  0  0  0  0  0  0
  194.3730  174.2290  145.4550 O   0  0  0  0  0  0  0  0  0  0  0  0
  191.4310  171.3450  140.4840 C   0  0  0  0  0  0  0  0  0  0  0  0
  190.7580  172.5880  140.5400 C   0  0  0  0  0  0  0  0  0  0  0  0
  189.6080  172.7840  139.7330 C   0  0  0  0  0  0  0  0  0  0  0  0
  188.7990  174.0290  139.7780 C   0  0  0  0  0  0  0  0  0  0  0  0
  188.7620  177.6590  142.4740 N   0  0  0  0  0  2  0  0  0  0  0  0
  193.0540  172.1410  142.1010 C   0  0  0  0  0  3  0  0  0  0  0  0
  192.1360  176.8300  143.4060 C   0  0  0  0  0  2  0  0  0  0  0  0
  194.9870  175.3950  142.3060 N   0  0  0  0  0  2  0  0  0  0  0  0
  186.4840  177.6630  139.8830 C   0  0  0  0  0  2  0  0  0  0  0  0
  185.8610  177.8610  141.1830 N   0  0  0  0  0  2  0  0  0  0  0  0
  183.8350  178.2280  142.5820 N   0  0  0  0  0  0  0  0  0  0  0  0
  182.5150  178.8280  142.7290 C   0  0  0  0  0  1  0  0  0  0  0  0
  184.4820  178.2220  141.2990 C   0  0  0  0  0  0  0  0  0  0  0  0
  183.8280  178.5350  140.2680 O   0  0  0  0  0  0  0  0  0  0  0  0
  184.5060  177.7360  143.7830 C   0  0  0  0  0  2  0  0  0  0  0  0
  184.1140  178.5980  146.1370 C   0  0  0  0  0  2  0  0  0  0  0  0
  184.7910  178.8700  144.7800 C   0  0  1  0  0  3  0  0  0  0  0  0
  186.5100  178.1780  147.0320 C   0  0  2  0  0  3  0  0  0  0  0  0
  185.0710  178.4610  147.3400 C   0  0  2  0  0  3  0  0  0  0  0  0
  186.8040  178.1140  145.5400 C   0  0  0  0  0  2  0  0  0  0  0  0
  185.6000  177.1580  147.3660 O   0  0  0  0  0  0  0  0  0  0  0  0
  186.1680  179.1800  144.8880 O   0  0  0  0  0  0  0  0  0  0  0  0
  196.4600  173.6710  144.4010 C   0  0  2  0  0  3  0  0  0  0  0  0
  196.6540  172.3290  143.7450 C   0  0  0  0  0  3  0  0  0  0  0  0
  196.8540  172.2150  142.4290 C   0  0  0  0  0  3  0  0  0  0  0  0
  196.7660  169.7550  142.8180 C   0  0  1  0  0  3  0  0  0  0  0  0
  197.0800  170.8710  141.7980 C   0  0  1  0  0  3  0  0  0  0  0  0
  195.8200  168.3750  141.0350 C   0  0  2  0  0  3  0  0  0  0  0  0
  196.2560  169.3510  140.0080 N   0  0  0  0  0  0  0  0  0  0  0  0
  195.5070  169.0030  142.3980 C   0  0  1  0  0  3  0  0  0  0  0  0
  196.2850  170.7460  140.4830 C   0  0  0  0  0  2  0  0  0  0  0  0
  196.8490  168.3800  142.1590 C   0  0  2  0  0  3  0  0  0  0  0  0
  195.2870  169.2900  138.9270 C   0  0  0  0  0  1  0  0  0  0  0  0
  197.0220  173.6860  145.8260 C   0  0  0  0  0  2  0  0  0  0  0  0
  196.9850  172.4090  146.3980 O   0  0  0  0  0  1  0  0  0  0  0  0
  1 28  1  0  0  0  0
  1  9  1  0  0  0  0
  2 18  1  6  0  0  0
  2  4  1  0  0  0  0
  3 43  1  0  0  0  0
  3 20  2  0  0  0  0
  4  3  1  0  0  0  0
  6  7  1  0  0  0  0
  7 25  1  0  0  0  0
  8 29  1  0  0  0  0
  8  6  2  0  0  0  0
  9  2  1  0  0  0  0
  9 27  1  1  0  0  0
 10  8  1  0  0  0  0
 11 23  1  0  0  0  0
 12 11  2  0  0  0  0
 12 15  1  0  0  0  0
 13  6  1  0  0  0  0
 14 10  2  0  0  0  0
 14 24  1  0  0  0  0
 15 21  2  0  0  0  0
 16 26  2  0  0  0  0
 17 18  2  0  0  0  0
 19 25  1  0  0  0  0
 19  5  1  0  0  0  0
 21 22  1  0  0  0  0
 21 16  1  0  0  0  0
 22 17  1  0  0  0  0
 23 24  1  0  0  0  0
 23 22  2  0  0  0  0
 24 13  2  0  0  0  0
 26 18  1  0  0  0  0
 27  5  1  0  0  0  0
 28  4  1  0  0  0  0
 29 30  1  0  0  0  0
 30 33  1  0  0  0  0
 31 32  1  0  0  0  0
 31 35  1  0  0  0  0
 33 31  1  0  0  0  0
 34 33  2  0  0  0  0
 37 35  1  6  0  0  0
 37 42  1  0  0  0  0
 37 36  1  0  0  0  0
 38 40  1  6  0  0  0
 38 39  1  0  0  0  0
 38 41  1  0  0  0  0
 39 36  1  6  0  0  0
 39 41  1  0  0  0  0
 42 40  1  0  0  0  0
 43 44  1  1  0  0  0
 43 54  1  0  0  0  0
 45 44  2  0  0  0  0
 47 45  1  1  0  0  0
 47 46  1  0  0  0  0
 48 52  1  0  0  0  0
 48 50  1  0  0  0  0
 49 51  1  0  0  0  0
 49 48  1  0  0  0  0
 50 46  1  0  0  0  0
 51 47  1  0  0  0  0
 52 50  1  0  0  0  0
 52 46  1  0  0  0  0
 53 49  1  0  0  0  0
 54 55  1  0  0  0  0
M  END
>  <MODEL>
5

>  <REMARK>
 VINA RESULT:      -7.5      2.976      9.909
  Name = 
  8 active torsions:
  status: ('A' for Active; 'I' for Inactive)
    1  A    between atoms: C_4  and  C_38
    2  A    between atoms: C_8  and  C_38
    3  A    between atoms: C_10  and  C_48
    4  A    between atoms: N_11  and  C_25
    5  A    between atoms: C_12  and  C_25
    6  A    between atoms: C_14  and  C_22
    7  A    between atoms: C_20  and  C_38
    8  A    between atoms: C_22  and  N_30
                            x       y       z     vdW  Elec       q    Type
                         _______ _______ _______ _____ _____    ______ ____

>  <TORSDO>
F 8

$$$$
=
 OpenBabel11042416413D

 55 64  0  0  1  0  0  0  0  0999 V2000
  189.3340  174.6280  143.5000 O   0  0  0  0  0  0  0  0  0  0  0  0
  191.0650  174.4710  145.1210 C   0  0  1  0  0  3  0  0  0  0  0  0
  189.5240  175.5170  146.7610 C   0  0  0  0  0  0  0  0  0  0  0  0
  190.0750  175.4500  145.4350 N   0  0  0  0  0  0  0  0  0  0  0  0
  191.1840  171.4470  144.0170 C   0  0  0  0  0  2  0  0  0  0  0  0
  194.3270  171.0720  141.9920 C   0  0  0  0  0  0  0  0  0  0  0  0
  193.5570  170.0190  142.7410 C   0  0  0  0  0  2  0  0  0  0  0  0
  194.7470  170.9040  140.6570 C   0  0  0  0  0  0  0  0  0  0  0  0
  190.4720  173.8700  143.8670 C   0  0  1  0  0  3  0  0  0  0  0  0
  195.3940  171.9560  140.0030 C   0  0  0  0  0  3  0  0  0  0  0  0
  196.6480  175.3110  142.4480 C   0  0  0  0  0  3  0  0  0  0  0  0
  196.9450  176.4860  143.1390 C   0  0  0  0  0  3  0  0  0  0  0  0
  194.5770  172.2790  142.6460 C   0  0  0  0  0  3  0  0  0  0  0  0
  195.6300  173.1640  140.6680 C   0  0  0  0  0  3  0  0  0  0  0  0
  196.0800  176.9700  144.0700 N   0  0  0  0  0  0  0  0  0  0  0  0
  194.0330  176.8920  145.2920 C   0  0  0  0  0  3  0  0  0  0  0  0
  193.2990  174.5740  143.9180 C   0  0  0  0  0  3  0  0  0  0  0  0
  192.4010  175.1390  144.8360 C   0  0  0  0  0  0  0  0  0  0  0  0
  191.6250  171.3560  142.6350 N   0  0  0  0  0  2  0  0  0  0  0  0
  189.5890  174.5040  147.5130 O   0  0  0  0  0  0  0  0  0  0  0  0
  194.9020  176.3470  144.3430 C   0  0  0  0  0  0  0  0  0  0  0  0
  194.5510  175.1590  143.6580 C   0  0  0  0  0  0  0  0  0  0  0  0
  195.4560  174.6210  142.7070 C   0  0  0  0  0  0  0  0  0  0  0  0
  195.2030  173.3430  141.9930 C   0  0  0  0  0  0  0  0  0  0  0  0
  192.1270  170.0570  142.4220 N   0  0  0  0  0  2  0  0  0  0  0  0
  192.7960  176.2880  145.5430 C   0  0  0  0  0  3  0  0  0  0  0  0
  190.0300  172.4320  144.1240 C   0  0  0  0  0  2  0  0  0  0  0  0
  189.2490  175.7090  144.3370 N   0  0  0  0  0  2  0  0  0  0  0  0
  194.4400  169.6590  139.8930 C   0  0  0  0  0  2  0  0  0  0  0  0
  194.7320  169.8650  138.4820 N   0  0  0  0  0  2  0  0  0  0  0  0
  193.9690  170.2180  136.1400 N   0  0  0  0  0  0  0  0  0  0  0  0
  192.9920  169.9460  135.0940 C   0  0  0  0  0  1  0  0  0  0  0  0
  193.6990  169.8260  137.4960 C   0  0  0  0  0  0  0  0  0  0  0  0
  192.5400  169.4490  137.8180 O   0  0  0  0  0  0  0  0  0  0  0  0
  195.2510  170.7980  135.7500 C   0  0  0  0  0  2  0  0  0  0  0  0
  194.2130  173.1130  135.8070 C   0  0  0  0  0  2  0  0  0  0  0  0
  195.0700  172.1230  134.9930 C   0  0  1  0  0  3  0  0  0  0  0  0
  196.4130  174.4390  136.1480 C   0  0  2  0  0  3  0  0  0  0  0  0
  194.9160  174.4290  136.2020 C   0  0  2  0  0  3  0  0  0  0  0  0
  197.0060  173.1270  135.6570 C   0  0  0  0  0  2  0  0  0  0  0  0
  195.7080  174.2080  137.3440 O   0  0  0  0  0  0  0  0  0  0  0  0
  196.2910  172.6750  134.5390 O   0  0  0  0  0  0  0  0  0  0  0  0
  188.7630  176.7410  147.2060 C   0  0  2  0  0  3  0  0  0  0  0  0
  187.7270  177.1390  146.1880 C   0  0  0  0  0  3  0  0  0  0  0  0
  186.4800  176.6600  146.2340 C   0  0  0  0  0  3  0  0  0  0  0  0
  185.0050  178.5420  145.5320 C   0  0  1  0  0  3  0  0  0  0  0  0
  185.4510  177.0950  145.2300 C   0  0  1  0  0  3  0  0  0  0  0  0
  184.8500  179.0050  143.1350 C   0  0  2  0  0  3  0  0  0  0  0  0
  185.1140  177.5830  142.8130 N   0  0  0  0  0  0  0  0  0  0  0  0
  185.5050  179.4810  144.4380 C   0  0  1  0  0  3  0  0  0  0  0  0
  185.9750  176.8970  143.7930 C   0  0  0  0  0  2  0  0  0  0  0  0
  184.0670  179.0570  144.4420 C   0  0  2  0  0  3  0  0  0  0  0  0
  185.8160  177.5590  141.5410 C   0  0  0  0  0  1  0  0  0  0  0  0
  189.7080  177.9020  147.5290 C   0  0  0  0  0  2  0  0  0  0  0  0
  190.8740  177.4470  148.1550 O   0  0  0  0  0  1  0  0  0  0  0  0
  1  9  1  0  0  0  0
  1 28  1  0  0  0  0
  2 18  1  6  0  0  0
  2  4  1  0  0  0  0
  3 43  1  0  0  0  0
  3 20  2  0  0  0  0
  4  3  1  0  0  0  0
  5 27  1  0  0  0  0
  6 13  1  0  0  0  0
  6  7  1  0  0  0  0
  8  6  2  0  0  0  0
  9 27  1  1  0  0  0
  9  2  1  0  0  0  0
 10  8  1  0  0  0  0
 10 14  2  0  0  0  0
 11 23  2  0  0  0  0
 11 12  1  0  0  0  0
 12 15  2  0  0  0  0
 14 24  1  0  0  0  0
 15 21  1  0  0  0  0
 16 26  1  0  0  0  0
 17 18  1  0  0  0  0
 18 26  2  0  0  0  0
 19  5  1  0  0  0  0
 21 16  2  0  0  0  0
 22 17  2  0  0  0  0
 22 21  1  0  0  0  0
 23 22  1  0  0  0  0
 24 13  2  0  0  0  0
 24 23  1  0  0  0  0
 25 19  1  0  0  0  0
 25  7  1  0  0  0  0
 28  4  1  0  0  0  0
 29  8  1  0  0  0  0
 30 29  1  0  0  0  0
 31 33  1  0  0  0  0
 32 31  1  0  0  0  0
 33 34  2  0  0  0  0
 33 30  1  0  0  0  0
 35 31  1  0  0  0  0
 37 35  1  1  0  0  0
 37 36  1  0  0  0  0
 38 40  1  6  0  0  0
 38 39  1  0  0  0  0
 38 41  1  0  0  0  0
 39 36  1  6  0  0  0
 39 41  1  0  0  0  0
 42 37  1  0  0  0  0
 42 40  1  0  0  0  0
 43 44  1  6  0  0  0
 43 54  1  0  0  0  0
 44 45  2  0  0  0  0
 47 46  1  0  0  0  0
 47 45  1  1  0  0  0
 48 50  1  0  0  0  0
 48 52  1  0  0  0  0
 49 48  1  0  0  0  0
 49 51  1  0  0  0  0
 50 52  1  0  0  0  0
 50 46  1  0  0  0  0
 51 47  1  0  0  0  0
 52 46  1  0  0  0  0
 53 49  1  0  0  0  0
 54 55  1  0  0  0  0
M  END
>  <MODEL>
6

>  <REMARK>
 VINA RESULT:      -7.5      2.158      2.794
  Name = 
  8 active torsions:
  status: ('A' for Active; 'I' for Inactive)
    1  A    between atoms: C_4  and  C_38
    2  A    between atoms: C_8  and  C_38
    3  A    between atoms: C_10  and  C_48
    4  A    between atoms: N_11  and  C_25
    5  A    between atoms: C_12  and  C_25
    6  A    between atoms: C_14  and  C_22
    7  A    between atoms: C_20  and  C_38
    8  A    between atoms: C_22  and  N_30
                            x       y       z     vdW  Elec       q    Type
                         _______ _______ _______ _____ _____    ______ ____

>  <TORSDO>
F 8

$$$$
=
 OpenBabel11042416413D

 55 64  0  0  1  0  0  0  0  0999 V2000
  190.5270  175.8750  142.5100 O   0  0  0  0  0  0  0  0  0  0  0  0
  191.4250  174.2790  144.0240 C   0  0  1  0  0  3  0  0  0  0  0  0
  189.7830  175.0650  145.7120 C   0  0  0  0  0  0  0  0  0  0  0  0
  190.7290  175.3470  144.6660 N   0  0  0  0  0  0  0  0  0  0  0  0
  191.0280  172.3390  141.4840 C   0  0  0  0  0  2  0  0  0  0  0  0
  194.4250  171.5380  140.0900 C   0  0  0  0  0  0  0  0  0  0  0  0
  193.1600  170.7270  140.0150 C   0  0  0  0  0  2  0  0  0  0  0  0
  195.2270  171.8030  138.9630 C   0  0  0  0  0  0  0  0  0  0  0  0
  191.1740  174.6170  142.5730 C   0  0  1  0  0  3  0  0  0  0  0  0
  196.3490  172.6260  139.0960 C   0  0  0  0  0  3  0  0  0  0  0  0
  197.5740  173.6340  143.1330 C   0  0  0  0  0  3  0  0  0  0  0  0
  197.9360  174.1210  144.3880 C   0  0  0  0  0  3  0  0  0  0  0  0
  194.7690  172.0880  141.3260 C   0  0  0  0  0  3  0  0  0  0  0  0
  196.6770  173.1780  140.3400 C   0  0  0  0  0  3  0  0  0  0  0  0
  196.9800  174.4770  145.2880 N   0  0  0  0  0  0  0  0  0  0  0  0
  194.7070  174.7880  145.9390 C   0  0  0  0  0  3  0  0  0  0  0  0
  193.8640  173.8960  143.4300 C   0  0  0  0  0  3  0  0  0  0  0  0
  192.9070  174.3360  144.3580 C   0  0  0  0  0  0  0  0  0  0  0  0
  191.8900  172.6760  140.3620 N   0  0  0  0  0  2  0  0  0  0  0  0
  189.2670  173.9150  145.7880 O   0  0  0  0  0  0  0  0  0  0  0  0
  195.6560  174.3910  144.9920 C   0  0  0  0  0  0  0  0  0  0  0  0
  195.2390  173.9140  143.7270 C   0  0  0  0  0  0  0  0  0  0  0  0
  196.2220  173.5070  142.7880 C   0  0  0  0  0  0  0  0  0  0  0  0
  195.8750  172.9290  141.4640 C   0  0  0  0  0  0  0  0  0  0  0  0
  192.0230  171.5290  139.5550 N   0  0  0  0  0  2  0  0  0  0  0  0
  193.3430  174.7530  145.6270 C   0  0  0  0  0  3  0  0  0  0  0  0
  190.2620  173.5750  141.9330 C   0  0  0  0  0  2  0  0  0  0  0  0
  190.4720  176.3950  143.7760 N   0  0  0  0  0  2  0  0  0  0  0  0
  194.8610  171.2970  137.6070 C   0  0  0  0  0  2  0  0  0  0  0  0
  194.1380  172.3290  136.8780 N   0  0  0  0  0  2  0  0  0  0  0  0
  194.0840  174.1470  135.1800 N   0  0  0  0  0  0  0  0  0  0  0  0
  194.7630  175.2520  134.5160 C   0  0  0  0  0  1  0  0  0  0  0  0
  194.8210  173.2610  136.0370 C   0  0  0  0  0  0  0  0  0  0  0  0
  196.0810  173.3040  136.0440 O   0  0  0  0  0  0  0  0  0  0  0  0
  192.6350  174.0380  135.0270 C   0  0  0  0  0  2  0  0  0  0  0  0
  190.8190  175.8070  135.1340 C   0  0  0  0  0  2  0  0  0  0  0  0
  191.8920  175.0370  135.9280 C   0  0  1  0  0  3  0  0  0  0  0  0
  189.0960  174.4130  136.4770 C   0  0  2  0  0  3  0  0  0  0  0  0
  189.3660  175.6100  135.6160 C   0  0  2  0  0  3  0  0  0  0  0  0
  190.3430  173.5940  136.7760 C   0  0  0  0  0  2  0  0  0  0  0  0
  188.8630  174.4070  135.0890 O   0  0  0  0  0  0  0  0  0  0  0  0
  191.4000  174.4500  137.1180 O   0  0  0  0  0  0  0  0  0  0  0  0
  189.3150  176.1650  146.6290 C   0  0  2  0  0  3  0  0  0  0  0  0
  188.0930  176.8530  146.0770 C   0  0  0  0  0  3  0  0  0  0  0  0
  187.0450  176.1590  145.6240 C   0  0  0  0  0  3  0  0  0  0  0  0
  185.6970  178.2510  145.7740 C   0  0  1  0  0  3  0  0  0  0  0  0
  185.8210  176.8630  145.1080 C   0  0  1  0  0  3  0  0  0  0  0  0
  184.8580  179.1920  143.6780 C   0  0  2  0  0  3  0  0  0  0  0  0
  184.8090  177.8470  143.0590 N   0  0  0  0  0  0  0  0  0  0  0  0
  185.9500  179.3470  144.7440 C   0  0  1  0  0  3  0  0  0  0  0  0
  185.8310  176.9150  143.5680 C   0  0  0  0  0  2  0  0  0  0  0  0
  184.5440  179.0430  145.1620 C   0  0  2  0  0  3  0  0  0  0  0  0
  185.0620  178.0230  141.6400 C   0  0  0  0  0  1  0  0  0  0  0  0
  190.4360  177.1650  146.9230 C   0  0  0  0  0  2  0  0  0  0  0  0
  190.0330  178.1140  147.8700 O   0  0  0  0  0  1  0  0  0  0  0  0
  1  9  1  0  0  0  0
  1 28  1  0  0  0  0
  2 18  1  6  0  0  0
  2  4  1  0  0  0  0
  3 20  2  0  0  0  0
  3 43  1  0  0  0  0
  4  3  1  0  0  0  0
  5 27  1  0  0  0  0
  6 13  1  0  0  0  0
  7  6  1  0  0  0  0
  8 10  1  0  0  0  0
  8  6  2  0  0  0  0
  9 27  1  1  0  0  0
  9  2  1  0  0  0  0
 10 14  2  0  0  0  0
 11 12  1  0  0  0  0
 12 15  2  0  0  0  0
 13 24  2  0  0  0  0
 14 24  1  0  0  0  0
 17 22  2  0  0  0  0
 17 18  1  0  0  0  0
 18 26  2  0  0  0  0
 19  5  1  0  0  0  0
 21 15  1  0  0  0  0
 21 16  2  0  0  0  0
 22 21  1  0  0  0  0
 23 11  2  0  0  0  0
 23 22  1  0  0  0  0
 24 23  1  0  0  0  0
 25  7  1  0  0  0  0
 25 19  1  0  0  0  0
 26 16  1  0  0  0  0
 28  4  1  0  0  0  0
 29  8  1  0  0  0  0
 30 29  1  0  0  0  0
 31 33  1  0  0  0  0
 32 31  1  0  0  0  0
 33 34  2  0  0  0  0
 33 30  1  0  0  0  0
 35 31  1  0  0  0  0
 36 37  1  0  0  0  0
 37 35  1  6  0  0  0
 37 42  1  0  0  0  0
 38 40  1  6  0  0  0
 39 36  1  6  0  0  0
 39 38  1  0  0  0  0
 40 42  1  0  0  0  0
 41 39  1  0  0  0  0
 41 38  1  0  0  0  0
 43 44  1  6  0  0  0
 43 54  1  0  0  0  0
 45 44  2  0  0  0  0
 47 45  1  1  0  0  0
 47 46  1  0  0  0  0
 48 50  1  0  0  0  0
 48 52  1  0  0  0  0
 49 51  1  0  0  0  0
 49 48  1  0  0  0  0
 50 52  1  0  0  0  0
 50 46  1  0  0  0  0
 51 47  1  0  0  0  0
 52 46  1  0  0  0  0
 53 49  1  0  0  0  0
 54 55  1  0  0  0  0
M  END
>  <MODEL>
7

>  <REMARK>
 VINA RESULT:      -7.5      1.899      2.292
  Name = 
  8 active torsions:
  status: ('A' for Active; 'I' for Inactive)
    1  A    between atoms: C_4  and  C_38
    2  A    between atoms: C_8  and  C_38
    3  A    between atoms: C_10  and  C_48
    4  A    between atoms: N_11  and  C_25
    5  A    between atoms: C_12  and  C_25
    6  A    between atoms: C_14  and  C_22
    7  A    between atoms: C_20  and  C_38
    8  A    between atoms: C_22  and  N_30
                            x       y       z     vdW  Elec       q    Type
                         _______ _______ _______ _____ _____    ______ ____

>  <TORSDO>
F 8

$$$$
=
 OpenBabel11042416413D

 55 64  0  0  1  0  0  0  0  0999 V2000
  193.5430  174.9520  146.0010 O   0  0  0  0  0  0  0  0  0  0  0  0
  192.0860  175.7180  144.2870 C   0  0  1  0  0  3  0  0  0  0  0  0
  190.8190  176.9630  146.0210 C   0  0  0  0  0  0  0  0  0  0  0  0
  191.5130  175.7780  145.5930 N   0  0  0  0  0  0  0  0  0  0  0  0
  194.8900  176.4140  142.8620 C   0  0  0  0  0  2  0  0  0  0  0  0
  195.4000  173.9780  140.0470 C   0  0  0  0  0  0  0  0  0  0  0  0
  195.9340  175.3770  140.1910 C   0  0  0  0  0  2  0  0  0  0  0  0
  196.2140  172.8850  139.6890 C   0  0  0  0  0  0  0  0  0  0  0  0
  193.4870  175.2570  144.6200 C   0  0  1  0  0  3  0  0  0  0  0  0
  195.6610  171.6020  139.6460 C   0  0  0  0  0  3  0  0  0  0  0  0
  191.3420  171.3160  139.9180 C   0  0  0  0  0  3  0  0  0  0  0  0
  189.9790  171.1360  140.1500 C   0  0  0  0  0  3  0  0  0  0  0  0
  194.0520  173.7670  140.3380 C   0  0  0  0  0  3  0  0  0  0  0  0
  194.3090  171.4040  139.9490 C   0  0  0  0  0  3  0  0  0  0  0  0
  189.3340  171.8960  141.0760 N   0  0  0  0  0  0  0  0  0  0  0  0
  189.2930  173.5780  142.7670 C   0  0  0  0  0  3  0  0  0  0  0  0
  192.0380  173.9760  142.4400 C   0  0  0  0  0  3  0  0  0  0  0  0
  191.3550  174.6950  143.4330 C   0  0  0  0  0  0  0  0  0  0  0  0
  195.6720  175.2360  142.5240 N   0  0  0  0  0  2  0  0  0  0  0  0
  191.0530  178.0620  145.4450 O   0  0  0  0  0  0  0  0  0  0  0  0
  189.9910  172.8330  141.8110 C   0  0  0  0  0  0  0  0  0  0  0  0
  191.3770  173.0440  141.6200 C   0  0  0  0  0  0  0  0  0  0  0  0
  192.0590  172.2830  140.6360 C   0  0  0  0  0  0  0  0  0  0  0  0
  193.4960  172.4860  140.3190 C   0  0  0  0  0  0  0  0  0  0  0  0
  196.5680  175.5880  141.4950 N   0  0  0  0  0  2  0  0  0  0  0  0
  189.9680  174.5070  143.5650 C   0  0  0  0  0  3  0  0  0  0  0  0
  194.4950  176.3650  144.3300 C   0  0  0  0  0  2  0  0  0  0  0  0
  192.2800  175.0620  146.5180 N   0  0  0  0  0  2  0  0  0  0  0  0
  197.6760  173.0500  139.4380 C   0  0  0  0  0  2  0  0  0  0  0  0
  197.8920  173.4680  138.0610 N   0  0  0  0  0  2  0  0  0  0  0  0
  197.8050  173.0080  135.6170 N   0  0  0  0  0  0  0  0  0  0  0  0
  197.9350  172.0520  134.5240 C   0  0  0  0  0  1  0  0  0  0  0  0
  197.7770  172.5440  136.9760 C   0  0  0  0  0  0  0  0  0  0  0  0
  197.6460  171.3130  137.2140 O   0  0  0  0  0  0  0  0  0  0  0  0
  197.8080  174.4310  135.2910 C   0  0  0  0  0  2  0  0  0  0  0  0
  195.4930  173.6940  134.5580 C   0  0  0  0  0  2  0  0  0  0  0  0
  196.4820  174.8720  134.6520 C   0  0  1  0  0  3  0  0  0  0  0  0
  194.1680  174.9060  136.4260 C   0  0  2  0  0  3  0  0  0  0  0  0
  194.1780  173.8670  135.3470 C   0  0  2  0  0  3  0  0  0  0  0  0
  195.4800  175.6690  136.5390 C   0  0  0  0  0  2  0  0  0  0  0  0
  194.4010  173.5460  136.6980 O   0  0  0  0  0  0  0  0  0  0  0  0
  195.9300  176.0250  135.2590 O   0  0  0  0  0  0  0  0  0  0  0  0
  189.9170  176.9190  147.2280 C   0  0  2  0  0  3  0  0  0  0  0  0
  188.4900  177.2240  146.8530 C   0  0  0  0  0  3  0  0  0  0  0  0
  187.8270  176.4850  145.9590 C   0  0  0  0  0  3  0  0  0  0  0  0
  185.7850  177.7040  146.7040 C   0  0  1  0  0  3  0  0  0  0  0  0
  186.3940  176.7850  145.6230 C   0  0  1  0  0  3  0  0  0  0  0  0
  184.5020  178.8870  144.9900 C   0  0  2  0  0  3  0  0  0  0  0  0
  184.9380  177.9200  143.9550 N   0  0  0  0  0  0  0  0  0  0  0  0
  185.5190  179.0880  146.1210 C   0  0  1  0  0  3  0  0  0  0  0  0
  186.2760  177.3490  144.1940 C   0  0  0  0  0  2  0  0  0  0  0  0
  184.3750  178.1400  146.3120 C   0  0  2  0  0  3  0  0  0  0  0  0
  185.0040  178.6460  142.6980 C   0  0  0  0  0  1  0  0  0  0  0  0
  190.4170  177.8480  148.3370 C   0  0  0  0  0  2  0  0  0  0  0  0
  191.6990  177.4840  148.7630 O   0  0  0  0  0  1  0  0  0  0  0  0
  1 28  1  0  0  0  0
  2 18  1  6  0  0  0
  2  9  1  0  0  0  0
  2  4  1  0  0  0  0
  3 43  1  0  0  0  0
  4  3  1  0  0  0  0
  4 28  1  0  0  0  0
  5 27  1  0  0  0  0
  6  7  1  0  0  0  0
  6 13  1  0  0  0  0
  7 25  1  0  0  0  0
  8  6  2  0  0  0  0
  9 27  1  1  0  0  0
  9  1  1  0  0  0  0
 10  8  1  0  0  0  0
 10 14  2  0  0  0  0
 11 12  2  0  0  0  0
 11 23  1  0  0  0  0
 12 15  1  0  0  0  0
 14 24  1  0  0  0  0
 15 21  2  0  0  0  0
 16 26  2  0  0  0  0
 17 18  2  0  0  0  0
 18 26  1  0  0  0  0
 19  5  1  0  0  0  0
 20  3  2  0  0  0  0
 21 16  1  0  0  0  0
 22 21  1  0  0  0  0
 22 17  1  0  0  0  0
 23 22  2  0  0  0  0
 24 13  2  0  0  0  0
 24 23  1  0  0  0  0
 25 19  1  0  0  0  0
 29  8  1  0  0  0  0
 30 29  1  0  0  0  0
 31 33  1  0  0  0  0
 32 31  1  0  0  0  0
 33 34  2  0  0  0  0
 33 30  1  0  0  0  0
 35 31  1  0  0  0  0
 36 37  1  0  0  0  0
 37 42  1  0  0  0  0
 37 35  1  1  0  0  0
 38 40  1  6  0  0  0
 38 41  1  0  0  0  0
 39 36  1  6  0  0  0
 39 38  1  0  0  0  0
 39 41  1  0  0  0  0
 42 40  1  0  0  0  0
 43 44  1  6  0  0  0
 43 54  1  0  0  0  0
 45 44  2  0  0  0  0
 47 45  1  1  0  0  0
 47 46  1  0  0  0  0
 48 50  1  0  0  0  0
 48 52  1  0  0  0  0
 49 51  1  0  0  0  0
 49 48  1  0  0  0  0
 50 52  1  0  0  0  0
 50 46  1  0  0  0  0
 51 47  1  0  0  0  0
 52 46  1  0  0  0  0
 53 49  1  0  0  0  0
 54 55  1  0  0  0  0
M  END
>  <MODEL>
8

>  <REMARK>
 VINA RESULT:      -7.2      3.163      4.878
  Name = 
  8 active torsions:
  status: ('A' for Active; 'I' for Inactive)
    1  A    between atoms: C_4  and  C_38
    2  A    between atoms: C_8  and  C_38
    3  A    between atoms: C_10  and  C_48
    4  A    between atoms: N_11  and  C_25
    5  A    between atoms: C_12  and  C_25
    6  A    between atoms: C_14  and  C_22
    7  A    between atoms: C_20  and  C_38
    8  A    between atoms: C_22  and  N_30
                            x       y       z     vdW  Elec       q    Type
                         _______ _______ _______ _____ _____    ______ ____

>  <TORSDO>
F 8

$$$$
=
 OpenBabel11042416413D

 55 64  0  0  1  0  0  0  0  0999 V2000
  187.4280  174.5580  143.3490 O   0  0  0  0  0  0  0  0  0  0  0  0
  188.9780  175.0860  141.6270 C   0  0  1  0  0  3  0  0  0  0  0  0
  187.9220  177.3270  141.4640 C   0  0  0  0  0  0  0  0  0  0  0  0
  187.8060  175.9010  141.6100 N   0  0  0  0  0  0  0  0  0  0  0  0
  191.0620  173.9240  143.7910 C   0  0  0  0  0  2  0  0  0  0  0  0
  192.2680  170.5830  142.5640 C   0  0  0  0  0  0  0  0  0  0  0  0
  192.9660  171.5640  143.4660 C   0  0  0  0  0  2  0  0  0  0  0  0
  192.1630  169.2110  142.8670 C   0  0  0  0  0  0  0  0  0  0  0  0
  188.7300  174.2700  142.8740 C   0  0  1  0  0  3  0  0  0  0  0  0
  191.4360  168.3730  142.0160 C   0  0  0  0  0  3  0  0  0  0  0  0
  190.2390  170.0260  138.1890 C   0  0  0  0  0  3  0  0  0  0  0  0
  189.6920  170.5330  137.0110 C   0  0  0  0  0  3  0  0  0  0  0  0
  191.6590  171.0830  141.4120 C   0  0  0  0  0  3  0  0  0  0  0  0
  190.8230  168.8900  140.8690 C   0  0  0  0  0  3  0  0  0  0  0  0
  189.1840  171.7940  136.9780 N   0  0  0  0  0  0  0  0  0  0  0  0
  188.6210  173.8700  138.0090 C   0  0  0  0  0  3  0  0  0  0  0  0
  189.6220  172.9340  140.4430 C   0  0  0  0  0  3  0  0  0  0  0  0
  189.0290  174.2050  140.3890 C   0  0  0  0  0  0  0  0  0  0  0  0
  190.8900  172.5040  144.0490 N   0  0  0  0  0  2  0  0  0  0  0  0
  189.0120  177.8940  141.7550 O   0  0  0  0  0  0  0  0  0  0  0  0
  189.1730  172.5870  138.0820 C   0  0  0  0  0  0  0  0  0  0  0  0
  189.7050  172.1130  139.3040 C   0  0  0  0  0  0  0  0  0  0  0  0
  190.2690  170.8110  139.3490 C   0  0  0  0  0  0  0  0  0  0  0  0
  190.9120  170.2580  140.5680 C   0  0  0  0  0  0  0  0  0  0  0  0
  192.1030  172.0050  144.5660 N   0  0  0  0  0  2  0  0  0  0  0  0
  188.5580  174.6760  139.1510 C   0  0  0  0  0  3  0  0  0  0  0  0
  189.7320  174.6420  143.9630 C   0  0  0  0  0  2  0  0  0  0  0  0
  186.8100  175.3770  142.4410 N   0  0  0  0  0  2  0  0  0  0  0  0
  192.7360  168.6430  144.1230 C   0  0  0  0  0  2  0  0  0  0  0  0
  194.0350  169.2450  144.3840 N   0  0  0  0  0  2  0  0  0  0  0  0
  196.1500  169.3550  145.6910 N   0  0  0  0  0  0  0  0  0  0  0  0
  196.8320  169.2120  146.9710 C   0  0  0  0  0  1  0  0  0  0  0  0
  194.7950  168.9000  145.5440 C   0  0  0  0  0  0  0  0  0  0  0  0
  194.2740  168.1880  146.4450 O   0  0  0  0  0  0  0  0  0  0  0  0
  196.8450  170.0580  144.6160 C   0  0  0  0  0  2  0  0  0  0  0  0
  197.9300  172.2500  143.9430 C   0  0  0  0  0  2  0  0  0  0  0  0
  197.5200  171.3430  145.1190 C   0  0  1  0  0  3  0  0  0  0  0  0
  196.0110  173.8070  144.7240 C   0  0  2  0  0  3  0  0  0  0  0  0
  197.2590  173.6400  143.9110 C   0  0  2  0  0  3  0  0  0  0  0  0
  195.6280  172.5560  145.5010 C   0  0  0  0  0  2  0  0  0  0  0  0
  195.9760  173.5230  143.3460 O   0  0  0  0  0  0  0  0  0  0  0  0
  196.7670  172.0130  146.1120 O   0  0  0  0  0  0  0  0  0  0  0  0
  186.7170  178.1520  141.0900 C   0  0  2  0  0  3  0  0  0  0  0  0
  185.9490  178.5830  142.3120 C   0  0  0  0  0  3  0  0  0  0  0  0
  186.5330  178.6660  143.5120 C   0  0  0  0  0  3  0  0  0  0  0  0
  184.4560  178.3120  144.8430 C   0  0  1  0  0  3  0  0  0  0  0  0
  185.7590  179.1300  144.7130 C   0  0  1  0  0  3  0  0  0  0  0  0
  184.6730  178.3340  147.2790 C   0  0  2  0  0  3  0  0  0  0  0  0
  185.8310  179.2550  147.1970 N   0  0  0  0  0  0  0  0  0  0  0  0
  184.5300  177.4050  146.0670 C   0  0  1  0  0  3  0  0  0  0  0  0
  186.6410  179.0920  145.9770 C   0  0  0  0  0  2  0  0  0  0  0  0
  183.7230  178.6650  146.1360 C   0  0  2  0  0  3  0  0  0  0  0  0
  186.6960  178.9520  148.3250 C   0  0  0  0  0  1  0  0  0  0  0  0
  185.8180  177.4120  140.0950 C   0  0  0  0  0  2  0  0  0  0  0  0
  184.5020  177.8860  140.1520 O   0  0  0  0  0  1  0  0  0  0  0  0
  2 18  1  6  0  0  0
  2  9  1  0  0  0  0
  3  4  1  0  0  0  0
  3 20  2  0  0  0  0
  4  2  1  0  0  0  0
  4 28  1  0  0  0  0
  5 27  1  0  0  0  0
  5 19  1  0  0  0  0
  6  8  1  0  0  0  0
  6  7  1  0  0  0  0
  7 25  1  0  0  0  0
  8 29  1  0  0  0  0
  9  1  1  0  0  0  0
  9 27  1  1  0  0  0
 10  8  2  0  0  0  0
 11 23  1  0  0  0  0
 12 11  2  0  0  0  0
 13  6  2  0  0  0  0
 14 10  1  0  0  0  0
 15 12  1  0  0  0  0
 15 21  2  0  0  0  0
 16 21  1  0  0  0  0
 16 26  2  0  0  0  0
 18 17  2  0  0  0  0
 19 25  1  0  0  0  0
 21 22  1  0  0  0  0
 22 23  2  0  0  0  0
 22 17  1  0  0  0  0
 23 24  1  0  0  0  0
 24 14  2  0  0  0  0
 24 13  1  0  0  0  0
 26 18  1  0  0  0  0
 28  1  1  0  0  0  0
 29 30  1  0  0  0  0
 30 33  1  0  0  0  0
 31 32  1  0  0  0  0
 33 31  1  0  0  0  0
 33 34  2  0  0  0  0
 35 31  1  0  0  0  0
 36 37  1  0  0  0  0
 37 35  1  6  0  0  0
 37 42  1  0  0  0  0
 38 40  1  1  0  0  0
 39 36  1  1  0  0  0
 39 38  1  0  0  0  0
 40 42  1  0  0  0  0
 41 39  1  0  0  0  0
 41 38  1  0  0  0  0
 43 54  1  6  0  0  0
 43  3  1  0  0  0  0
 43 44  1  0  0  0  0
 44 45  2  0  0  0  0
 46 50  1  0  0  0  0
 46 52  1  0  0  0  0
 47 45  1  6  0  0  0
 47 46  1  0  0  0  0
 47 51  1  0  0  0  0
 49 48  1  0  0  0  0
 49 53  1  0  0  0  0
 50 52  1  0  0  0  0
 50 48  1  0  0  0  0
 51 49  1  0  0  0  0
 52 48  1  0  0  0  0
 54 55  1  0  0  0  0
M  END
>  <MODEL>
9

>  <REMARK>
 VINA RESULT:      -6.9      3.094      7.121
  Name = 
  8 active torsions:
  status: ('A' for Active; 'I' for Inactive)
    1  A    between atoms: C_4  and  C_38
    2  A    between atoms: C_8  and  C_38
    3  A    between atoms: C_10  and  C_48
    4  A    between atoms: N_11  and  C_25
    5  A    between atoms: C_12  and  C_25
    6  A    between atoms: C_14  and  C_22
    7  A    between atoms: C_20  and  C_38
    8  A    between atoms: C_22  and  N_30
                            x       y       z     vdW  Elec       q    Type
                         _______ _______ _______ _____ _____    ______ ____

>  <TORSDO>
F 8

$$$$
