=
 OpenBabel11042415383D

 46 51  0  0  1  0  0  0  0  0999 V2000
  192.8800  171.9870  144.3360 C   0  0  0  0  0  0  0  0  0  0  0  0
  193.5640  172.7920  145.2590 C   0  0  0  0  0  0  0  0  0  0  0  0
  190.8470  169.3110  142.0190 O   0  0  0  0  0  0  0  0  0  0  0  0
  193.5170  170.7940  143.7520 C   0  0  0  0  0  3  0  0  0  0  0  0
  191.5830  174.1640  145.4910 C   0  0  0  0  0  0  0  0  0  0  0  0
  190.9480  173.3770  144.5760 N   0  0  0  0  0  0  0  0  0  0  0  0
  192.8550  169.9870  142.9830 N   0  0  0  0  0  0  0  0  0  0  0  0
  191.4830  170.2090  142.6340 C   0  0  0  0  0  0  0  0  0  0  0  0
  190.8030  171.5130  142.9500 C   0  0  1  0  0  3  0  0  0  0  0  0
  191.5540  172.3070  143.9930 C   0  0  0  0  0  0  0  0  0  0  0  0
  192.9070  173.8870  145.8350 C   0  0  0  0  0  3  0  0  0  0  0  0
  190.8950  175.3490  146.1150 C   0  0  2  0  0  0  0  0  0  0  0  0
  190.6190  175.0250  147.5780 C   0  0  2  0  0  3  0  0  0  0  0  0
  189.4770  175.0740  146.5810 C   0  0  1  0  0  3  0  0  0  0  0  0
  191.7200  175.9960  147.2110 C   0  0  0  0  0  2  0  0  0  0  0  0
  188.7510  176.3250  146.7280 N   0  0  0  0  0  2  0  0  0  0  0  0
  187.7590  176.3520  145.6710 C   0  0  0  0  0  2  0  0  0  0  0  0
  187.3900  177.7870  145.3560 C   0  0  0  0  0  2  0  0  0  0  0  0
  185.8840  177.9100  145.1910 C   0  0  1  0  0  3  0  0  0  0  0  0
  185.2750  178.4800  146.4280 C   0  0  0  0  0  0  0  0  0  0  0  0
  183.9510  178.2110  146.7570 O   0  0  0  0  0  0  0  0  0  0  0  0
  185.9620  179.2260  147.1710 O   0  0  0  0  0  1  0  0  0  0  0  0
  185.4700  178.9030  143.7570 S   0  0  0  0  0  0  0  0  0  0  0  0
  185.4610  180.3580  144.1320 O   0  0  0  0  0  0  0  0  0  0  0  0
  184.1100  178.5190  143.2470 O   0  0  0  0  0  0  0  0  0  0  0  0
  186.6730  178.6350  142.4680 C   0  0  0  0  0  2  0  0  0  0  0  0
  186.6060  176.2790  142.1140 O   0  0  0  0  0  1  0  0  0  0  0  0
  185.7220  177.5590  140.4310 O   0  0  0  0  0  0  0  0  0  0  0  0
  186.3240  177.4250  141.6740 C   0  0  0  0  0  0  0  0  0  0  0  0
  190.6510  172.3080  141.6890 C   0  0  0  0  0  3  0  0  0  0  0  0
  191.6740  172.4870  140.8550 C   0  0  0  0  0  2  0  0  0  0  0  0
  194.9130  172.4770  145.6270 N   0  0  0  0  0  2  0  0  0  0  0  0
  196.9690  173.6770  146.2310 C   0  0  0  0  0  1  0  0  0  0  0  0
  196.0790  173.1800  145.1010 C   0  0  2  0  0  3  0  0  0  0  0  0
  195.6750  174.2740  144.2150 N   0  0  0  0  0  2  0  0  0  0  0  0
  196.2660  174.1080  142.8900 C   0  0  0  0  0  2  0  0  0  0  0  0
  193.3750  175.8490  142.2170 C   0  0  0  0  0  0  0  0  0  0  0  0
  195.7050  176.2180  141.1950 S   0  0  1  0  0  0  0  0  0  0  0  0
  193.9460  174.6990  142.3890 N   0  0  0  0  0  0  0  0  0  0  0  0
  195.2870  174.5780  141.8260 C   0  0  2  0  0  3  0  0  0  0  0  0
  194.1160  176.8430  141.5260 N   0  0  0  0  0  2  0  0  0  0  0  0
  196.5530  176.8570  142.2890 O   0  0  0  0  0  0  0  0  0  0  0  0
  191.9870  176.1010  142.6870 C   0  0  0  0  0  2  0  0  0  0  0  0
  190.2310  177.8370  142.7960 C   0  0  0  0  0  2  0  0  0  0  0  0
  191.7250  177.5940  142.7440 C   0  0  0  0  0  3  0  0  0  0  0  0
  191.0540  177.9250  144.0610 C   0  0  0  0  0  2  0  0  0  0  0  0
  1  2  1  0  0  0  0
  2 32  1  0  0  0  0
  2 11  2  0  0  0  0
  3  8  2  0  0  0  0
  4  1  1  0  0  0  0
  5 11  1  0  0  0  0
  6  5  2  0  0  0  0
  7  4  2  0  0  0  0
  8  9  1  0  0  0  0
  8  7  1  0  0  0  0
  9 30  1  6  0  0  0
  9 10  1  0  0  0  0
 10  1  2  0  0  0  0
 10  6  1  0  0  0  0
 12  5  1  6  0  0  0
 12 14  1  0  0  0  0
 12 15  1  0  0  0  0
 12 13  1  0  0  0  0
 13 15  1  1  0  0  0
 14 16  1  1  0  0  0
 14 13  1  0  0  0  0
 17 16  1  0  0  0  0
 18 17  1  0  0  0  0
 19 18  1  1  0  0  0
 19 20  1  0  0  0  0
 20 21  2  0  0  0  0
 20 22  1  0  0  0  0
 23 24  2  0  0  0  0
 23 19  1  0  0  0  0
 25 23  2  0  0  0  0
 26 23  1  0  0  0  0
 28 29  2  0  0  0  0
 29 27  1  0  0  0  0
 29 26  1  0  0  0  0
 31 30  2  0  0  0  0
 34 32  1  0  0  0  0
 34 33  1  1  0  0  0
 35 34  1  0  0  0  0
 36 35  1  0  0  0  0
 37 39  2  0  0  0  0
 37 43  1  0  0  0  0
 38 41  1  0  0  0  0
 38 40  1  0  0  0  0
 38 42  2  1  0  0  0
 40 39  1  0  0  0  0
 40 36  1  1  0  0  0
 41 37  1  0  0  0  0
 43 45  1  0  0  0  0
 44 46  1  0  0  0  0
 45 44  1  0  0  0  0
 45 46  1  0  0  0  0
M  END
>  <MODEL>
1

>  <REMARK>
 VINA RESULT:      -6.5      0.000      0.000
  Name = 
  17 active torsions:
  status: ('A' for Active; 'I' for Inactive)
    1  A    between atoms: C_2  and  C_40
    2  A    between atoms: C_3  and  C_23
    3  A    between atoms: C_4  and  C_42
    4  A    between atoms: C_6  and  S_14
    5  A    between atoms: C_6  and  C_33
    6  A    between atoms: C_7  and  N_9
    7  A    between atoms: N_9  and  C_15
    8  A    between atoms: S_14  and  C_42
    9  A    between atoms: C_15  and  N_35
   10  A    between atoms: C_16  and  C_21
   11  A    between atoms: N_19  and  C_20
   12  A    between atoms: N_19  and  C_32
   13  A    between atoms: C_20  and  C_43
   14  A    between atoms: C_22  and  C_23
   15  A    between atoms: C_27  and  C_37
   16  A    between atoms: N_35  and  C_37
   17  A    between atoms: C_42  and  C_43
                            x       y       z     vdW  Elec       q    Type
                         _______ _______ _______ _____ _____    ______ ____

>  <TORSDO>
F 17

$$$$
=
 OpenBabel11042415383D

 46 51  0  0  1  0  0  0  0  0999 V2000
  186.2050  177.7320  144.4000 C   0  0  0  0  0  0  0  0  0  0  0  0
  186.1400  177.8140  143.0010 C   0  0  0  0  0  0  0  0  0  0  0  0
  185.9970  177.1880  148.4410 O   0  0  0  0  0  0  0  0  0  0  0  0
  185.2120  178.4170  145.2460 C   0  0  0  0  0  3  0  0  0  0  0  0
  188.0420  176.3220  142.8540 C   0  0  0  0  0  0  0  0  0  0  0  0
  188.0940  176.2760  144.2160 N   0  0  0  0  0  0  0  0  0  0  0  0
  185.2010  178.2580  146.5330 N   0  0  0  0  0  0  0  0  0  0  0  0
  186.1550  177.4340  147.2150 C   0  0  0  0  0  0  0  0  0  0  0  0
  187.3640  176.8950  146.5010 C   0  0  1  0  0  3  0  0  0  0  0  0
  187.2120  176.9540  144.9990 C   0  0  0  0  0  0  0  0  0  0  0  0
  187.0690  177.1040  142.2290 C   0  0  0  0  0  3  0  0  0  0  0  0
  189.0350  175.5720  142.0070 C   0  0  2  0  0  0  0  0  0  0  0  0
  188.6520  174.0970  142.0160 C   0  0  2  0  0  3  0  0  0  0  0  0
  189.8780  174.5690  142.7740 C   0  0  1  0  0  3  0  0  0  0  0  0
  188.4030  174.9380  140.7830 C   0  0  0  0  0  2  0  0  0  0  0  0
  191.0770  174.2470  142.0180 N   0  0  0  0  0  2  0  0  0  0  0  0
  192.1140  175.1450  142.4880 C   0  0  0  0  0  2  0  0  0  0  0  0
  192.5730  174.7140  143.8660 C   0  0  0  0  0  2  0  0  0  0  0  0
  193.8430  175.4600  144.2450 C   0  0  1  0  0  3  0  0  0  0  0  0
  193.6810  176.1070  145.5800 C   0  0  0  0  0  0  0  0  0  0  0  0
  192.9430  175.4900  146.5840 O   0  0  0  0  0  1  0  0  0  0  0  0
  194.2020  177.2320  145.7910 O   0  0  0  0  0  0  0  0  0  0  0  0
  195.2630  174.3660  144.2310 S   0  0  0  0  0  0  0  0  0  0  0  0
  194.8120  172.9520  143.9950 O   0  0  0  0  0  0  0  0  0  0  0  0
  195.9760  174.4410  145.5510 O   0  0  0  0  0  0  0  0  0  0  0  0
  196.3860  174.8500  142.9330 C   0  0  0  0  0  2  0  0  0  0  0  0
  196.8010  177.1270  143.4990 O   0  0  0  0  0  1  0  0  0  0  0  0
  195.6110  176.7870  141.5700 O   0  0  0  0  0  0  0  0  0  0  0  0
  196.2920  176.3140  142.6830 C   0  0  0  0  0  0  0  0  0  0  0  0
  188.5770  177.6590  146.9400 C   0  0  0  0  0  3  0  0  0  0  0  0
  189.7590  177.0630  147.0760 C   0  0  0  0  0  2  0  0  0  0  0  0
  185.1160  178.5950  142.3730 N   0  0  0  0  0  2  0  0  0  0  0  0
  183.9800  178.3520  140.2090 C   0  0  0  0  0  1  0  0  0  0  0  0
  183.9620  178.0150  141.6930 C   0  0  2  0  0  3  0  0  0  0  0  0
  182.7120  178.4430  142.3260 N   0  0  0  0  0  2  0  0  0  0  0  0
  181.6230  178.4630  141.3530 C   0  0  0  0  0  2  0  0  0  0  0  0
  179.0050  180.4430  140.3190 C   0  0  0  0  0  0  0  0  0  0  0  0
  179.0480  178.8030  142.2980 S   0  0  1  0  0  0  0  0  0  0  0  0
  180.2700  180.3500  140.5830 N   0  0  0  0  0  0  0  0  0  0  0  0
  180.6070  179.5250  141.7390 C   0  0  2  0  0  3  0  0  0  0  0  0
  178.1140  179.7310  141.1630 N   0  0  0  0  0  2  0  0  0  0  0  0
  179.0220  177.4040  141.6920 O   0  0  0  0  0  0  0  0  0  0  0  0
  178.5080  181.2950  139.2050 C   0  0  0  0  0  2  0  0  0  0  0  0
  179.1090  183.1030  137.6320 C   0  0  0  0  0  2  0  0  0  0  0  0
  179.5150  182.3890  138.9040 C   0  0  0  0  0  3  0  0  0  0  0  0
  178.8170  183.7310  138.9750 C   0  0  0  0  0  2  0  0  0  0  0  0
  1 10  1  0  0  0  0
  1  4  1  0  0  0  0
  2  1  2  0  0  0  0
  4  7  2  0  0  0  0
  5  6  1  0  0  0  0
  6 10  2  0  0  0  0
  7  8  1  0  0  0  0
  8  3  2  0  0  0  0
  9 30  1  6  0  0  0
  9  8  1  0  0  0  0
 10  9  1  0  0  0  0
 11  5  2  0  0  0  0
 11  2  1  0  0  0  0
 12 13  1  0  0  0  0
 12 14  1  0  0  0  0
 12  5  1  1  0  0  0
 13 15  1  6  0  0  0
 13 14  1  0  0  0  0
 14 16  1  6  0  0  0
 15 12  1  0  0  0  0
 16 17  1  0  0  0  0
 17 18  1  0  0  0  0
 19 18  1  1  0  0  0
 19 20  1  0  0  0  0
 20 22  2  0  0  0  0
 20 21  1  0  0  0  0
 23 19  1  0  0  0  0
 23 25  2  0  0  0  0
 24 23  2  0  0  0  0
 26 23  1  0  0  0  0
 28 29  2  0  0  0  0
 29 26  1  0  0  0  0
 29 27  1  0  0  0  0
 30 31  2  0  0  0  0
 32  2  1  0  0  0  0
 34 33  1  6  0  0  0
 34 35  1  0  0  0  0
 34 32  1  0  0  0  0
 36 35  1  0  0  0  0
 37 39  2  0  0  0  0
 37 41  1  0  0  0  0
 38 42  2  6  0  0  0
 39 40  1  0  0  0  0
 40 36  1  6  0  0  0
 40 38  1  0  0  0  0
 41 38  1  0  0  0  0
 43 37  1  0  0  0  0
 44 45  1  0  0  0  0
 44 46  1  0  0  0  0
 45 46  1  0  0  0  0
 45 43  1  0  0  0  0
M  END
>  <MODEL>
2

>  <REMARK>
 VINA RESULT:      -6.5      5.039     11.106
  Name = 
  17 active torsions:
  status: ('A' for Active; 'I' for Inactive)
    1  A    between atoms: C_2  and  C_40
    2  A    between atoms: C_3  and  C_23
    3  A    between atoms: C_4  and  C_42
    4  A    between atoms: C_6  and  S_14
    5  A    between atoms: C_6  and  C_33
    6  A    between atoms: C_7  and  N_9
    7  A    between atoms: N_9  and  C_15
    8  A    between atoms: S_14  and  C_42
    9  A    between atoms: C_15  and  N_35
   10  A    between atoms: C_16  and  C_21
   11  A    between atoms: N_19  and  C_20
   12  A    between atoms: N_19  and  C_32
   13  A    between atoms: C_20  and  C_43
   14  A    between atoms: C_22  and  C_23
   15  A    between atoms: C_27  and  C_37
   16  A    between atoms: N_35  and  C_37
   17  A    between atoms: C_42  and  C_43
                            x       y       z     vdW  Elec       q    Type
                         _______ _______ _______ _____ _____    ______ ____

>  <TORSDO>
F 17

$$$$
=
 OpenBabel11042415383D

 46 51  0  0  1  0  0  0  0  0999 V2000
  194.5330  172.0110  142.7550 C   0  0  0  0  0  0  0  0  0  0  0  0
  193.6660  172.4960  141.7650 C   0  0  0  0  0  0  0  0  0  0  0  0
  197.3300  171.0090  145.5550 O   0  0  0  0  0  0  0  0  0  0  0  0
  195.8490  171.4520  142.4010 C   0  0  0  0  0  3  0  0  0  0  0  0
  192.1080  173.1600  143.4960 C   0  0  0  0  0  0  0  0  0  0  0  0
  192.9610  172.6620  144.4360 N   0  0  0  0  0  0  0  0  0  0  0  0
  196.6990  171.1010  143.3160 N   0  0  0  0  0  0  0  0  0  0  0  0
  196.4120  171.2110  144.7160 C   0  0  0  0  0  0  0  0  0  0  0  0
  195.0210  171.5190  145.2000 C   0  0  1  0  0  3  0  0  0  0  0  0
  194.1520  172.0940  144.1070 C   0  0  0  0  0  0  0  0  0  0  0  0
  192.4460  173.0710  142.1440 C   0  0  0  0  0  3  0  0  0  0  0  0
  190.7890  173.7750  143.8830 C   0  0  2  0  0  0  0  0  0  0  0  0
  189.6910  172.7520  143.6240 C   0  0  2  0  0  3  0  0  0  0  0  0
  189.8260  173.9660  142.7260 C   0  0  1  0  0  3  0  0  0  0  0  0
  190.1240  173.0570  145.0420 C   0  0  0  0  0  2  0  0  0  0  0  0
  188.8160  174.9510  143.0780 N   0  0  0  0  0  2  0  0  0  0  0  0
  189.4530  176.2500  142.9680 C   0  0  0  0  0  2  0  0  0  0  0  0
  189.0440  177.1160  144.1420 C   0  0  0  0  0  2  0  0  0  0  0  0
  187.9710  176.4100  144.9560 C   0  0  1  0  0  3  0  0  0  0  0  0
  188.3170  176.4490  146.4080 C   0  0  0  0  0  0  0  0  0  0  0  0
  188.3390  175.2830  147.1650 O   0  0  0  0  0  1  0  0  0  0  0  0
  188.5740  177.5520  146.9550 O   0  0  0  0  0  0  0  0  0  0  0  0
  186.3580  177.1330  144.6630 S   0  0  0  0  0  0  0  0  0  0  0  0
  185.7040  176.4570  143.4900 O   0  0  0  0  0  0  0  0  0  0  0  0
  186.5030  178.5990  144.3660 O   0  0  0  0  0  0  0  0  0  0  0  0
  185.3310  176.9290  146.1070 C   0  0  0  0  0  2  0  0  0  0  0  0
  185.2900  178.8320  147.5390 O   0  0  0  0  0  1  0  0  0  0  0  0
  183.7000  178.8000  145.8890 O   0  0  0  0  0  0  0  0  0  0  0  0
  184.7870  178.2420  146.5480 C   0  0  0  0  0  0  0  0  0  0  0  0
  194.4080  170.2720  145.7620 C   0  0  0  0  0  3  0  0  0  0  0  0
  194.3630  169.1430  145.0560 C   0  0  0  0  0  2  0  0  0  0  0  0
  194.0400  172.4280  140.3840 N   0  0  0  0  0  2  0  0  0  0  0  0
  196.0290  173.2430  139.1970 C   0  0  0  0  0  1  0  0  0  0  0  0
  194.6080  173.5510  139.6450 C   0  0  2  0  0  3  0  0  0  0  0  0
  194.5490  174.7820  140.4360 N   0  0  0  0  0  2  0  0  0  0  0  0
  195.8800  175.1540  140.9100 C   0  0  0  0  0  2  0  0  0  0  0  0
  194.3920  176.2590  143.8090 C   0  0  0  0  0  0  0  0  0  0  0  0
  196.9050  176.0470  143.3160 S   0  0  1  0  0  0  0  0  0  0  0  0
  194.4310  176.2980  142.5150 N   0  0  0  0  0  0  0  0  0  0  0  0
  195.7680  176.2740  141.9310 C   0  0  2  0  0  3  0  0  0  0  0  0
  195.6330  176.1850  144.4930 N   0  0  0  0  0  2  0  0  0  0  0  0
  197.2180  174.5550  143.3300 O   0  0  0  0  0  0  0  0  0  0  0  0
  193.1020  176.3330  144.5460 C   0  0  0  0  0  2  0  0  0  0  0  0
  192.0410  176.4240  146.7760 C   0  0  0  0  0  2  0  0  0  0  0  0
  193.3630  176.3890  146.0390 C   0  0  0  0  0  3  0  0  0  0  0  0
  192.8170  175.1300  146.6810 C   0  0  0  0  0  2  0  0  0  0  0  0
  1 10  1  0  0  0  0
  2 11  1  0  0  0  0
  2  1  2  0  0  0  0
  4  1  1  0  0  0  0
  4  7  2  0  0  0  0
  5  6  1  0  0  0  0
  7  8  1  0  0  0  0
  8  9  1  0  0  0  0
  8  3  2  0  0  0  0
  9 30  1  6  0  0  0
 10  6  2  0  0  0  0
 10  9  1  0  0  0  0
 11  5  2  0  0  0  0
 12  5  1  6  0  0  0
 12 15  1  0  0  0  0
 13 12  1  0  0  0  0
 13 15  1  1  0  0  0
 14 16  1  1  0  0  0
 14 13  1  0  0  0  0
 14 12  1  0  0  0  0
 17 16  1  0  0  0  0
 17 18  1  0  0  0  0
 19 18  1  6  0  0  0
 19 20  1  0  0  0  0
 20 22  2  0  0  0  0
 20 21  1  0  0  0  0
 23 19  1  0  0  0  0
 23 26  1  0  0  0  0
 24 23  2  0  0  0  0
 25 23  2  0  0  0  0
 26 29  1  0  0  0  0
 28 29  2  0  0  0  0
 29 27  1  0  0  0  0
 31 30  2  0  0  0  0
 32  2  1  0  0  0  0
 34 33  1  1  0  0  0
 34 32  1  0  0  0  0
 34 35  1  0  0  0  0
 35 36  1  0  0  0  0
 37 41  1  0  0  0  0
 37 43  1  0  0  0  0
 38 42  2  6  0  0  0
 38 41  1  0  0  0  0
 39 37  2  0  0  0  0
 40 36  1  6  0  0  0
 40 39  1  0  0  0  0
 40 38  1  0  0  0  0
 43 45  1  0  0  0  0
 45 46  1  0  0  0  0
 45 44  1  0  0  0  0
 46 44  1  0  0  0  0
M  END
>  <MODEL>
3

>  <REMARK>
 VINA RESULT:      -6.3      2.369      4.097
  Name = 
  17 active torsions:
  status: ('A' for Active; 'I' for Inactive)
    1  A    between atoms: C_2  and  C_40
    2  A    between atoms: C_3  and  C_23
    3  A    between atoms: C_4  and  C_42
    4  A    between atoms: C_6  and  S_14
    5  A    between atoms: C_6  and  C_33
    6  A    between atoms: C_7  and  N_9
    7  A    between atoms: N_9  and  C_15
    8  A    between atoms: S_14  and  C_42
    9  A    between atoms: C_15  and  N_35
   10  A    between atoms: C_16  and  C_21
   11  A    between atoms: N_19  and  C_20
   12  A    between atoms: N_19  and  C_32
   13  A    between atoms: C_20  and  C_43
   14  A    between atoms: C_22  and  C_23
   15  A    between atoms: C_27  and  C_37
   16  A    between atoms: N_35  and  C_37
   17  A    between atoms: C_42  and  C_43
                            x       y       z     vdW  Elec       q    Type
                         _______ _______ _______ _____ _____    ______ ____

>  <TORSDO>
F 17

$$$$
=
 OpenBabel11042415383D

 46 51  0  0  1  0  0  0  0  0999 V2000
  192.9530  172.7690  144.9980 C   0  0  0  0  0  0  0  0  0  0  0  0
  192.3890  174.0270  145.2590 C   0  0  0  0  0  0  0  0  0  0  0  0
  194.4420  168.9800  144.6970 O   0  0  0  0  0  0  0  0  0  0  0  0
  194.2130  172.3560  145.6380 C   0  0  0  0  0  3  0  0  0  0  0  0
  190.5100  173.4470  143.8460 C   0  0  0  0  0  0  0  0  0  0  0  0
  191.0900  172.2390  143.5940 N   0  0  0  0  0  0  0  0  0  0  0  0
  194.6840  171.1570  145.4860 N   0  0  0  0  0  0  0  0  0  0  0  0
  194.0300  170.1710  144.6780 C   0  0  0  0  0  0  0  0  0  0  0  0
  192.8870  170.5440  143.7730 C   0  0  1  0  0  3  0  0  0  0  0  0
  192.2830  171.8780  144.1400 C   0  0  0  0  0  0  0  0  0  0  0  0
  191.1610  174.3630  144.6750 C   0  0  0  0  0  3  0  0  0  0  0  0
  189.1940  173.8290  143.2220 C   0  0  2  0  0  0  0  0  0  0  0  0
  189.4000  173.9620  141.7180 C   0  0  2  0  0  3  0  0  0  0  0  0
  189.1880  175.1990  142.5690 C   0  0  1  0  0  3  0  0  0  0  0  0
  188.6610  172.7670  142.2800 C   0  0  0  0  0  2  0  0  0  0  0  0
  187.8210  175.6710  142.4170 N   0  0  0  0  0  2  0  0  0  0  0  0
  187.7230  176.9020  143.1780 C   0  0  0  0  0  2  0  0  0  0  0  0
  186.3320  177.0270  143.7640 C   0  0  0  0  0  2  0  0  0  0  0  0
  186.2530  178.2630  144.6460 C   0  0  1  0  0  3  0  0  0  0  0  0
  185.2390  179.2170  144.1060 C   0  0  0  0  0  0  0  0  0  0  0  0
  184.0080  178.7620  143.6470 O   0  0  0  0  0  0  0  0  0  0  0  0
  185.5110  180.4440  144.0490 O   0  0  0  0  0  1  0  0  0  0  0  0
  185.8790  177.8240  146.3430 S   0  0  0  0  0  0  0  0  0  0  0  0
  185.2500  176.4590  146.3870 O   0  0  0  0  0  0  0  0  0  0  0  0
  184.9220  178.8240  146.9290 O   0  0  0  0  0  0  0  0  0  0  0  0
  187.3770  177.8130  147.3100 C   0  0  0  0  0  2  0  0  0  0  0  0
  189.4150  177.4900  146.1190 O   0  0  0  0  0  0  0  0  0  0  0  0
  188.2450  175.5830  146.6150 O   0  0  0  0  0  1  0  0  0  0  0  0
  188.4090  176.9610  146.6590 C   0  0  0  0  0  0  0  0  0  0  0  0
  193.3660  170.5530  142.3520 C   0  0  0  0  0  3  0  0  0  0  0  0
  194.5940  170.9630  142.0380 C   0  0  0  0  0  2  0  0  0  0  0  0
  193.0530  174.9450  146.1370 N   0  0  0  0  0  2  0  0  0  0  0  0
  194.3090  177.0140  146.5490 C   0  0  0  0  0  1  0  0  0  0  0  0
  194.2310  175.7180  145.7560 C   0  0  2  0  0  3  0  0  0  0  0  0
  194.2480  175.9700  144.3130 N   0  0  0  0  0  2  0  0  0  0  0  0
  195.6060  175.8590  143.7870 C   0  0  0  0  0  2  0  0  0  0  0  0
  193.9060  174.5300  141.1060 C   0  0  0  0  0  0  0  0  0  0  0  0
  196.2330  175.6230  141.1050 S   0  0  1  0  0  0  0  0  0  0  0  0
  194.2810  174.3980  142.3380 N   0  0  0  0  0  0  0  0  0  0  0  0
  195.6310  174.8700  142.6330 C   0  0  2  0  0  3  0  0  0  0  0  0
  194.8320  175.1210  140.2060 N   0  0  0  0  0  2  0  0  0  0  0  0
  196.0010  177.1190  141.2850 O   0  0  0  0  0  0  0  0  0  0  0  0
  192.5780  174.0430  140.6450 C   0  0  0  0  0  2  0  0  0  0  0  0
  191.8010  172.0950  139.3380 C   0  0  0  0  0  2  0  0  0  0  0  0
  192.7300  173.2910  139.3360 C   0  0  0  0  0  3  0  0  0  0  0  0
  191.4170  173.3470  138.5830 C   0  0  0  0  0  2  0  0  0  0  0  0
  1  2  1  0  0  0  0
  1  4  1  0  0  0  0
  2 32  1  0  0  0  0
  5 11  1  0  0  0  0
  6  5  2  0  0  0  0
  6 10  1  0  0  0  0
  7  4  2  0  0  0  0
  8  3  2  0  0  0  0
  8  7  1  0  0  0  0
  9 30  1  6  0  0  0
  9 10  1  0  0  0  0
  9  8  1  0  0  0  0
 10  1  2  0  0  0  0
 11  2  2  0  0  0  0
 12  5  1  1  0  0  0
 13 15  1  6  0  0  0
 13 14  1  0  0  0  0
 13 12  1  0  0  0  0
 14 16  1  6  0  0  0
 14 12  1  0  0  0  0
 15 12  1  0  0  0  0
 16 17  1  0  0  0  0
 17 18  1  0  0  0  0
 19 18  1  6  0  0  0
 19 23  1  0  0  0  0
 20 19  1  0  0  0  0
 21 20  2  0  0  0  0
 22 20  1  0  0  0  0
 23 24  2  0  0  0  0
 23 25  2  0  0  0  0
 23 26  1  0  0  0  0
 27 29  2  0  0  0  0
 28 29  1  0  0  0  0
 29 26  1  0  0  0  0
 31 30  2  0  0  0  0
 34 32  1  0  0  0  0
 34 33  1  1  0  0  0
 35 34  1  0  0  0  0
 36 35  1  0  0  0  0
 37 39  2  0  0  0  0
 38 42  2  1  0  0  0
 38 40  1  0  0  0  0
 39 40  1  0  0  0  0
 40 36  1  1  0  0  0
 41 38  1  0  0  0  0
 41 37  1  0  0  0  0
 43 37  1  0  0  0  0
 45 44  1  0  0  0  0
 45 43  1  0  0  0  0
 46 45  1  0  0  0  0
 46 44  1  0  0  0  0
M  END
>  <MODEL>
4

>  <REMARK>
 VINA RESULT:      -6.1      2.213      3.704
  Name = 
  17 active torsions:
  status: ('A' for Active; 'I' for Inactive)
    1  A    between atoms: C_2  and  C_40
    2  A    between atoms: C_3  and  C_23
    3  A    between atoms: C_4  and  C_42
    4  A    between atoms: C_6  and  S_14
    5  A    between atoms: C_6  and  C_33
    6  A    between atoms: C_7  and  N_9
    7  A    between atoms: N_9  and  C_15
    8  A    between atoms: S_14  and  C_42
    9  A    between atoms: C_15  and  N_35
   10  A    between atoms: C_16  and  C_21
   11  A    between atoms: N_19  and  C_20
   12  A    between atoms: N_19  and  C_32
   13  A    between atoms: C_20  and  C_43
   14  A    between atoms: C_22  and  C_23
   15  A    between atoms: C_27  and  C_37
   16  A    between atoms: N_35  and  C_37
   17  A    between atoms: C_42  and  C_43
                            x       y       z     vdW  Elec       q    Type
                         _______ _______ _______ _____ _____    ______ ____

>  <TORSDO>
F 17

$$$$
=
 OpenBabel11042415383D

 46 51  0  0  1  0  0  0  0  0999 V2000
  186.2040  177.7480  144.4210 C   0  0  0  0  0  0  0  0  0  0  0  0
  186.1340  177.7280  143.0200 C   0  0  0  0  0  0  0  0  0  0  0  0
  185.9890  177.5340  148.4920 O   0  0  0  0  0  0  0  0  0  0  0  0
  185.2770  178.5740  145.2130 C   0  0  0  0  0  3  0  0  0  0  0  0
  187.9080  176.0800  142.9840 C   0  0  0  0  0  0  0  0  0  0  0  0
  187.9680  176.1350  144.3450 N   0  0  0  0  0  0  0  0  0  0  0  0
  185.2640  178.5160  146.5090 N   0  0  0  0  0  0  0  0  0  0  0  0
  186.1540  177.6720  147.2500 C   0  0  0  0  0  0  0  0  0  0  0  0
  187.3110  176.9840  146.5770 C   0  0  1  0  0  3  0  0  0  0  0  0
  187.1500  176.9400  145.0760 C   0  0  0  0  0  0  0  0  0  0  0  0
  186.9960  176.8880  142.3030 C   0  0  0  0  0  3  0  0  0  0  0  0
  188.8310  175.1900  142.1950 C   0  0  2  0  0  0  0  0  0  0  0  0
  188.1100  173.8750  141.9240 C   0  0  2  0  0  3  0  0  0  0  0  0
  189.2510  173.9250  142.9220 C   0  0  1  0  0  3  0  0  0  0  0  0
  188.3020  174.8780  140.8080 C   0  0  0  0  0  2  0  0  0  0  0  0
  190.4560  173.3810  142.3160 N   0  0  0  0  0  2  0  0  0  0  0  0
  191.5640  173.8050  143.1520 C   0  0  0  0  0  2  0  0  0  0  0  0
  192.8480  173.7660  142.3500 C   0  0  0  0  0  2  0  0  0  0  0  0
  194.0420  173.9280  143.2780 C   0  0  1  0  0  3  0  0  0  0  0  0
  195.0510  172.8610  143.0100 C   0  0  0  0  0  0  0  0  0  0  0  0
  195.2630  172.3920  141.7190 O   0  0  0  0  0  0  0  0  0  0  0  0
  195.7030  172.3700  143.9670 O   0  0  0  0  0  1  0  0  0  0  0  0
  194.7710  175.5570  143.1140 S   0  0  0  0  0  0  0  0  0  0  0  0
  194.0730  176.3190  142.0220 O   0  0  0  0  0  0  0  0  0  0  0  0
  196.2290  175.4300  142.7680 O   0  0  0  0  0  0  0  0  0  0  0  0
  194.6120  176.4490  144.6490 C   0  0  0  0  0  2  0  0  0  0  0  0
  195.6430  174.9350  146.1730 O   0  0  0  0  0  0  0  0  0  0  0  0
  193.3850  175.2210  146.4370 O   0  0  0  0  0  1  0  0  0  0  0  0
  194.5850  175.5050  145.7990 C   0  0  0  0  0  0  0  0  0  0  0  0
  188.5840  177.6790  146.9520 C   0  0  0  0  0  3  0  0  0  0  0  0
  189.7270  177.0080  147.0830 C   0  0  0  0  0  2  0  0  0  0  0  0
  185.1710  178.5380  142.3350 N   0  0  0  0  0  2  0  0  0  0  0  0
  184.0230  178.3600  140.1720 C   0  0  0  0  0  1  0  0  0  0  0  0
  184.0020  177.9960  141.6490 C   0  0  2  0  0  3  0  0  0  0  0  0
  182.7640  178.4400  142.2930 N   0  0  0  0  0  2  0  0  0  0  0  0
  181.6670  178.4750  141.3300 C   0  0  0  0  0  2  0  0  0  0  0  0
  178.9930  180.4270  140.3880 C   0  0  0  0  0  0  0  0  0  0  0  0
  179.1060  178.7520  142.3340 S   0  0  1  0  0  0  0  0  0  0  0  0
  180.2640  180.3520  140.6240 N   0  0  0  0  0  0  0  0  0  0  0  0
  180.6400  179.5120  141.7570 C   0  0  2  0  0  3  0  0  0  0  0  0
  178.1320  179.6840  141.2370 N   0  0  0  0  0  2  0  0  0  0  0  0
  179.0920  177.3640  141.7030 O   0  0  0  0  0  0  0  0  0  0  0  0
  178.4580  181.2900  139.3010 C   0  0  0  0  0  2  0  0  0  0  0  0
  178.9890  183.1320  137.7410 C   0  0  0  0  0  2  0  0  0  0  0  0
  179.4560  182.3840  138.9730 C   0  0  0  0  0  3  0  0  0  0  0  0
  178.7740  183.7290  139.1130 C   0  0  0  0  0  2  0  0  0  0  0  0
  1 10  1  0  0  0  0
  1  4  1  0  0  0  0
  2  1  2  0  0  0  0
  4  7  2  0  0  0  0
  5  6  1  0  0  0  0
  6 10  2  0  0  0  0
  7  8  1  0  0  0  0
  8  3  2  0  0  0  0
  9 30  1  6  0  0  0
  9  8  1  0  0  0  0
 10  9  1  0  0  0  0
 11  5  2  0  0  0  0
 11  2  1  0  0  0  0
 12 14  1  0  0  0  0
 12  5  1  1  0  0  0
 13 15  1  6  0  0  0
 13 12  1  0  0  0  0
 13 14  1  0  0  0  0
 14 16  1  6  0  0  0
 15 12  1  0  0  0  0
 16 17  1  0  0  0  0
 18 17  1  0  0  0  0
 19 18  1  6  0  0  0
 20 19  1  0  0  0  0
 20 22  1  0  0  0  0
 21 20  2  0  0  0  0
 23 19  1  0  0  0  0
 23 26  1  0  0  0  0
 24 23  2  0  0  0  0
 25 23  2  0  0  0  0
 26 29  1  0  0  0  0
 29 27  2  0  0  0  0
 29 28  1  0  0  0  0
 30 31  2  0  0  0  0
 32  2  1  0  0  0  0
 34 33  1  6  0  0  0
 34 35  1  0  0  0  0
 34 32  1  0  0  0  0
 36 35  1  0  0  0  0
 37 39  2  0  0  0  0
 37 41  1  0  0  0  0
 38 42  2  6  0  0  0
 39 40  1  0  0  0  0
 40 36  1  6  0  0  0
 40 38  1  0  0  0  0
 41 38  1  0  0  0  0
 43 37  1  0  0  0  0
 44 45  1  0  0  0  0
 44 46  1  0  0  0  0
 45 46  1  0  0  0  0
 45 43  1  0  0  0  0
M  END
>  <MODEL>
5

>  <REMARK>
 VINA RESULT:      -6.1      5.058     11.252
  Name = 
  17 active torsions:
  status: ('A' for Active; 'I' for Inactive)
    1  A    between atoms: C_2  and  C_40
    2  A    between atoms: C_3  and  C_23
    3  A    between atoms: C_4  and  C_42
    4  A    between atoms: C_6  and  S_14
    5  A    between atoms: C_6  and  C_33
    6  A    between atoms: C_7  and  N_9
    7  A    between atoms: N_9  and  C_15
    8  A    between atoms: S_14  and  C_42
    9  A    between atoms: C_15  and  N_35
   10  A    between atoms: C_16  and  C_21
   11  A    between atoms: N_19  and  C_20
   12  A    between atoms: N_19  and  C_32
   13  A    between atoms: C_20  and  C_43
   14  A    between atoms: C_22  and  C_23
   15  A    between atoms: C_27  and  C_37
   16  A    between atoms: N_35  and  C_37
   17  A    between atoms: C_42  and  C_43
                            x       y       z     vdW  Elec       q    Type
                         _______ _______ _______ _____ _____    ______ ____

>  <TORSDO>
F 17

$$$$
=
 OpenBabel11042415383D

 46 51  0  0  1  0  0  0  0  0999 V2000
  192.9780  172.0350  144.2240 C   0  0  0  0  0  0  0  0  0  0  0  0
  193.8000  172.6480  145.1800 C   0  0  0  0  0  0  0  0  0  0  0  0
  190.4380  169.9420  141.8080 O   0  0  0  0  0  0  0  0  0  0  0  0
  193.3120  170.7090  143.6750 C   0  0  0  0  0  3  0  0  0  0  0  0
  192.2320  174.4890  145.3080 C   0  0  0  0  0  0  0  0  0  0  0  0
  191.4610  173.8790  144.3620 N   0  0  0  0  0  0  0  0  0  0  0  0
  192.5020  170.0890  142.8730 N   0  0  0  0  0  0  0  0  0  0  0  0
  191.2530  170.6530  142.4540 C   0  0  0  0  0  0  0  0  0  0  0  0
  190.9200  172.0930  142.7340 C   0  0  1  0  0  3  0  0  0  0  0  0
  191.7980  172.6810  143.8130 C   0  0  0  0  0  0  0  0  0  0  0  0
  193.4210  173.8840  145.7200 C   0  0  0  0  0  3  0  0  0  0  0  0
  191.8450  175.8200  145.8940 C   0  0  2  0  0  0  0  0  0  0  0  0
  191.7620  175.6690  147.4080 C   0  0  2  0  0  3  0  0  0  0  0  0
  190.4950  175.8270  146.5900 C   0  0  1  0  0  3  0  0  0  0  0  0
  192.9250  176.4070  146.7830 C   0  0  0  0  0  2  0  0  0  0  0  0
  190.0040  177.1910  146.7050 N   0  0  0  0  0  2  0  0  0  0  0  0
  188.5560  177.1050  146.7440 C   0  0  0  0  0  2  0  0  0  0  0  0
  188.0430  176.5960  145.4130 C   0  0  0  0  0  2  0  0  0  0  0  0
  188.0800  177.7130  144.3830 C   0  0  1  0  0  3  0  0  0  0  0  0
  189.0220  177.3630  143.2780 C   0  0  0  0  0  0  0  0  0  0  0  0
  189.1500  176.0490  142.8430 O   0  0  0  0  0  1  0  0  0  0  0  0
  189.7190  178.2660  142.7480 O   0  0  0  0  0  0  0  0  0  0  0  0
  186.4420  178.0580  143.7430 S   0  0  0  0  0  0  0  0  0  0  0  0
  185.5650  176.8490  143.9130 O   0  0  0  0  0  0  0  0  0  0  0  0
  186.5270  178.4010  142.2830 O   0  0  0  0  0  0  0  0  0  0  0  0
  185.7260  179.4330  144.6250 C   0  0  0  0  0  2  0  0  0  0  0  0
  183.6910  178.7100  145.6310 O   0  0  0  0  0  0  0  0  0  0  0  0
  185.5100  178.7930  147.0230 O   0  0  0  0  0  1  0  0  0  0  0  0
  184.9180  178.9480  145.7770 C   0  0  0  0  0  0  0  0  0  0  0  0
  191.0410  172.8820  141.4650 C   0  0  0  0  0  3  0  0  0  0  0  0
  190.0090  173.5640  140.9720 C   0  0  0  0  0  2  0  0  0  0  0  0
  195.0020  172.0010  145.6180 N   0  0  0  0  0  2  0  0  0  0  0  0
  196.9240  173.3900  146.2560 C   0  0  0  0  0  1  0  0  0  0  0  0
  196.3400  172.4330  145.2270 C   0  0  2  0  0  3  0  0  0  0  0  0
  196.3290  173.0260  143.8880 N   0  0  0  0  0  2  0  0  0  0  0  0
  197.3290  174.0850  143.7860 C   0  0  0  0  0  2  0  0  0  0  0  0
  195.0170  175.0930  141.4440 C   0  0  0  0  0  0  0  0  0  0  0  0
  196.4520  176.5780  142.9750 S   0  0  1  0  0  0  0  0  0  0  0  0
  196.0140  174.3200  141.7360 N   0  0  0  0  0  0  0  0  0  0  0  0
  197.0600  174.9300  142.5510 C   0  0  2  0  0  3  0  0  0  0  0  0
  195.0520  176.4160  141.9560 N   0  0  0  0  0  2  0  0  0  0  0  0
  195.8680  176.4350  144.3760 O   0  0  0  0  0  0  0  0  0  0  0  0
  193.9050  174.6260  140.5740 C   0  0  0  0  0  2  0  0  0  0  0  0
  193.8780  172.5770  139.1920 C   0  0  0  0  0  2  0  0  0  0  0  0
  194.4670  173.9650  139.3290 C   0  0  0  0  0  3  0  0  0  0  0  0
  193.3360  173.7120  138.3540 C   0  0  0  0  0  2  0  0  0  0  0  0
  1  2  1  0  0  0  0
  2 32  1  0  0  0  0
  2 11  2  0  0  0  0
  3  8  2  0  0  0  0
  4  1  1  0  0  0  0
  5 11  1  0  0  0  0
  6  5  2  0  0  0  0
  7  4  2  0  0  0  0
  8  9  1  0  0  0  0
  8  7  1  0  0  0  0
  9 30  1  6  0  0  0
  9 10  1  0  0  0  0
 10  1  2  0  0  0  0
 10  6  1  0  0  0  0
 12  5  1  6  0  0  0
 12 14  1  0  0  0  0
 12 15  1  0  0  0  0
 12 13  1  0  0  0  0
 13 15  1  1  0  0  0
 14 16  1  1  0  0  0
 14 13  1  0  0  0  0
 16 17  1  0  0  0  0
 18 17  1  0  0  0  0
 19 18  1  1  0  0  0
 20 19  1  0  0  0  0
 21 20  1  0  0  0  0
 22 20  2  0  0  0  0
 23 24  2  0  0  0  0
 23 19  1  0  0  0  0
 23 26  1  0  0  0  0
 25 23  2  0  0  0  0
 26 29  1  0  0  0  0
 27 29  2  0  0  0  0
 29 28  1  0  0  0  0
 31 30  2  0  0  0  0
 34 32  1  0  0  0  0
 34 33  1  1  0  0  0
 35 34  1  0  0  0  0
 36 35  1  0  0  0  0
 37 39  2  0  0  0  0
 37 41  1  0  0  0  0
 38 42  2  1  0  0  0
 39 40  1  0  0  0  0
 40 38  1  0  0  0  0
 40 36  1  1  0  0  0
 41 38  1  0  0  0  0
 43 37  1  0  0  0  0
 44 45  1  0  0  0  0
 45 43  1  0  0  0  0
 46 44  1  0  0  0  0
 46 45  1  0  0  0  0
M  END
>  <MODEL>
6

>  <REMARK>
 VINA RESULT:      -6.0      1.521      3.067
  Name = 
  17 active torsions:
  status: ('A' for Active; 'I' for Inactive)
    1  A    between atoms: C_2  and  C_40
    2  A    between atoms: C_3  and  C_23
    3  A    between atoms: C_4  and  C_42
    4  A    between atoms: C_6  and  S_14
    5  A    between atoms: C_6  and  C_33
    6  A    between atoms: C_7  and  N_9
    7  A    between atoms: N_9  and  C_15
    8  A    between atoms: S_14  and  C_42
    9  A    between atoms: C_15  and  N_35
   10  A    between atoms: C_16  and  C_21
   11  A    between atoms: N_19  and  C_20
   12  A    between atoms: N_19  and  C_32
   13  A    between atoms: C_20  and  C_43
   14  A    between atoms: C_22  and  C_23
   15  A    between atoms: C_27  and  C_37
   16  A    between atoms: N_35  and  C_37
   17  A    between atoms: C_42  and  C_43
                            x       y       z     vdW  Elec       q    Type
                         _______ _______ _______ _____ _____    ______ ____

>  <TORSDO>
F 17

$$$$
=
 OpenBabel11042415383D

 46 51  0  0  1  0  0  0  0  0999 V2000
  192.9280  174.7830  143.3420 C   0  0  0  0  0  0  0  0  0  0  0  0
  191.5390  174.6040  143.2590 C   0  0  0  0  0  0  0  0  0  0  0  0
  196.9150  175.6540  143.2320 O   0  0  0  0  0  0  0  0  0  0  0  0
  193.8200  174.2990  142.2750 C   0  0  0  0  0  3  0  0  0  0  0  0
  191.2870  175.8220  145.3370 C   0  0  0  0  0  0  0  0  0  0  0  0
  192.6410  175.9640  145.4030 N   0  0  0  0  0  0  0  0  0  0  0  0
  195.0920  174.5550  142.2920 N   0  0  0  0  0  0  0  0  0  0  0  0
  195.7120  175.2980  143.3490 C   0  0  0  0  0  0  0  0  0  0  0  0
  194.9640  175.6200  144.6130 C   0  0  1  0  0  3  0  0  0  0  0  0
  193.4700  175.4680  144.4450 C   0  0  0  0  0  0  0  0  0  0  0  0
  190.7190  175.1280  144.2670 C   0  0  0  0  0  3  0  0  0  0  0  0
  190.3890  176.3710  146.4140 C   0  0  2  0  0  0  0  0  0  0  0  0
  190.1750  175.2820  147.4580 C   0  0  2  0  0  3  0  0  0  0  0  0
  189.0460  175.6710  146.5230 C   0  0  1  0  0  3  0  0  0  0  0  0
  191.0760  176.4590  147.7630 C   0  0  0  0  0  2  0  0  0  0  0  0
  188.0990  176.5220  147.2260 N   0  0  0  0  0  2  0  0  0  0  0  0
  186.8840  176.5280  146.4330 C   0  0  0  0  0  2  0  0  0  0  0  0
  186.7490  177.8590  145.7210 C   0  0  0  0  0  2  0  0  0  0  0  0
  185.9180  177.6880  144.4600 C   0  0  1  0  0  3  0  0  0  0  0  0
  185.0780  178.9010  144.2290 C   0  0  0  0  0  0  0  0  0  0  0  0
  185.5770  180.1720  144.4890 O   0  0  0  0  0  1  0  0  0  0  0  0
  183.8980  178.7680  143.8120 O   0  0  0  0  0  0  0  0  0  0  0  0
  186.9590  177.3500  143.0410 S   0  0  0  0  0  0  0  0  0  0  0  0
  186.6620  175.9760  142.5090 O   0  0  0  0  0  0  0  0  0  0  0  0
  188.4050  177.4190  143.4420 O   0  0  0  0  0  0  0  0  0  0  0  0
  186.6500  178.5550  141.7630 C   0  0  0  0  0  2  0  0  0  0  0  0
  186.5530  177.4530  139.6530 O   0  0  0  0  0  0  0  0  0  0  0  0
  184.5290  177.9140  140.6240 O   0  0  0  0  0  1  0  0  0  0  0  0
  185.9170  177.9330  140.6270 C   0  0  0  0  0  0  0  0  0  0  0  0
  195.4640  174.7410  145.7190 C   0  0  0  0  0  3  0  0  0  0  0  0
  195.4820  173.4150  145.5960 C   0  0  0  0  0  2  0  0  0  0  0  0
  190.9680  173.9170  142.1390 N   0  0  0  0  0  2  0  0  0  0  0  0
  189.0440  172.4200  142.4330 C   0  0  0  0  0  1  0  0  0  0  0  0
  189.5310  173.7710  141.9290 C   0  0  2  0  0  3  0  0  0  0  0  0
  189.1840  173.9750  140.5210 N   0  0  0  0  0  2  0  0  0  0  0  0
  188.8920  172.7000  139.8720 C   0  0  0  0  0  2  0  0  0  0  0  0
  191.9460  173.3220  138.4120 C   0  0  0  0  0  0  0  0  0  0  0  0
  190.7840  171.0500  138.7140 S   0  0  1  0  0  0  0  0  0  0  0  0
  190.7000  173.6540  138.5270 N   0  0  0  0  0  0  0  0  0  0  0  0
  189.7640  172.5390  138.6370 C   0  0  2  0  0  3  0  0  0  0  0  0
  192.2500  171.9360  138.4220 N   0  0  0  0  0  2  0  0  0  0  0  0
  190.8820  170.7150  140.1980 O   0  0  0  0  0  0  0  0  0  0  0  0
  193.0070  174.3490  138.2350 C   0  0  0  0  0  2  0  0  0  0  0  0
  195.3290  173.8400  137.5580 C   0  0  0  0  0  2  0  0  0  0  0  0
  194.3410  173.8000  138.7050 C   0  0  0  0  0  3  0  0  0  0  0  0
  195.3780  174.9010  138.6330 C   0  0  0  0  0  2  0  0  0  0  0  0
  1 10  1  0  0  0  0
  2  1  2  0  0  0  0
  2 11  1  0  0  0  0
  3  8  2  0  0  0  0
  4  7  2  0  0  0  0
  4  1  1  0  0  0  0
  5  6  1  0  0  0  0
  7  8  1  0  0  0  0
  8  9  1  0  0  0  0
  9 30  1  1  0  0  0
 10  9  1  0  0  0  0
 10  6  2  0  0  0  0
 11  5  2  0  0  0  0
 12  5  1  6  0  0  0
 12 14  1  0  0  0  0
 12 13  1  0  0  0  0
 12 15  1  0  0  0  0
 13 15  1  1  0  0  0
 14 16  1  1  0  0  0
 14 13  1  0  0  0  0
 17 16  1  0  0  0  0
 18 17  1  0  0  0  0
 19 18  1  1  0  0  0
 20 19  1  0  0  0  0
 20 21  1  0  0  0  0
 22 20  2  0  0  0  0
 23 25  2  0  0  0  0
 23 19  1  0  0  0  0
 24 23  2  0  0  0  0
 26 23  1  0  0  0  0
 27 29  2  0  0  0  0
 28 29  1  0  0  0  0
 29 26  1  0  0  0  0
 31 30  2  0  0  0  0
 32  2  1  0  0  0  0
 34 32  1  0  0  0  0
 34 33  1  6  0  0  0
 35 34  1  0  0  0  0
 36 35  1  0  0  0  0
 37 41  1  0  0  0  0
 37 39  2  0  0  0  0
 38 42  2  1  0  0  0
 39 40  1  0  0  0  0
 40 38  1  0  0  0  0
 40 36  1  1  0  0  0
 41 38  1  0  0  0  0
 43 37  1  0  0  0  0
 43 45  1  0  0  0  0
 44 46  1  0  0  0  0
 44 45  1  0  0  0  0
 46 45  1  0  0  0  0
M  END
>  <MODEL>
7

>  <REMARK>
 VINA RESULT:      -6.0      2.513      5.048
  Name = 
  17 active torsions:
  status: ('A' for Active; 'I' for Inactive)
    1  A    between atoms: C_2  and  C_40
    2  A    between atoms: C_3  and  C_23
    3  A    between atoms: C_4  and  C_42
    4  A    between atoms: C_6  and  S_14
    5  A    between atoms: C_6  and  C_33
    6  A    between atoms: C_7  and  N_9
    7  A    between atoms: N_9  and  C_15
    8  A    between atoms: S_14  and  C_42
    9  A    between atoms: C_15  and  N_35
   10  A    between atoms: C_16  and  C_21
   11  A    between atoms: N_19  and  C_20
   12  A    between atoms: N_19  and  C_32
   13  A    between atoms: C_20  and  C_43
   14  A    between atoms: C_22  and  C_23
   15  A    between atoms: C_27  and  C_37
   16  A    between atoms: N_35  and  C_37
   17  A    between atoms: C_42  and  C_43
                            x       y       z     vdW  Elec       q    Type
                         _______ _______ _______ _____ _____    ______ ____

>  <TORSDO>
F 17

$$$$
=
 OpenBabel11042415383D

 46 51  0  0  1  0  0  0  0  0999 V2000
  193.1780  174.0590  145.0380 C   0  0  0  0  0  0  0  0  0  0  0  0
  192.7820  172.9000  144.3540 C   0  0  0  0  0  0  0  0  0  0  0  0
  194.6010  177.5400  146.6260 O   0  0  0  0  0  0  0  0  0  0  0  0
  194.5350  174.1830  145.5970 C   0  0  0  0  0  3  0  0  0  0  0  0
  190.6370  173.9300  143.9060 C   0  0  0  0  0  0  0  0  0  0  0  0
  191.0400  175.0360  144.5940 N   0  0  0  0  0  0  0  0  0  0  0  0
  194.9420  175.2910  146.1360 N   0  0  0  0  0  0  0  0  0  0  0  0
  194.1030  176.4480  146.2430 C   0  0  0  0  0  0  0  0  0  0  0  0
  192.6300  176.3670  145.9490 C   0  0  1  0  0  3  0  0  0  0  0  0
  192.2740  175.1300  145.1590 C   0  0  0  0  0  0  0  0  0  0  0  0
  191.5020  172.8410  143.7880 C   0  0  0  0  0  3  0  0  0  0  0  0
  189.2630  173.8440  143.2980 C   0  0  2  0  0  0  0  0  0  0  0  0
  189.3920  174.0560  141.7940 C   0  0  2  0  0  3  0  0  0  0  0  0
  188.7790  175.1360  142.6640 C   0  0  1  0  0  3  0  0  0  0  0  0
  189.1150  172.6740  142.3440 C   0  0  0  0  0  2  0  0  0  0  0  0
  187.3310  175.1110  142.5300 N   0  0  0  0  0  2  0  0  0  0  0  0
  186.8870  176.4900  142.6010 C   0  0  0  0  0  2  0  0  0  0  0  0
  185.8190  176.6250  143.6670 C   0  0  0  0  0  2  0  0  0  0  0  0
  186.0050  177.9310  144.4220 C   0  0  1  0  0  3  0  0  0  0  0  0
  185.1360  178.9940  143.8360 C   0  0  0  0  0  0  0  0  0  0  0  0
  183.9340  178.6670  143.2170 O   0  0  0  0  0  0  0  0  0  0  0  0
  185.5040  180.1950  143.8880 O   0  0  0  0  0  1  0  0  0  0  0  0
  185.6700  177.7200  146.1700 S   0  0  0  0  0  0  0  0  0  0  0  0
  184.9580  176.4160  146.3970 O   0  0  0  0  0  0  0  0  0  0  0  0
  184.8030  178.8450  146.6620 O   0  0  0  0  0  0  0  0  0  0  0  0
  187.2010  177.7220  147.0850 C   0  0  0  0  0  2  0  0  0  0  0  0
  188.2720  175.6660  146.5320 O   0  0  0  0  0  1  0  0  0  0  0  0
  189.1720  177.5410  145.5700 O   0  0  0  0  0  0  0  0  0  0  0  0
  188.2310  176.9140  146.3750 C   0  0  0  0  0  0  0  0  0  0  0  0
  191.8680  176.4080  147.2390 C   0  0  0  0  0  3  0  0  0  0  0  0
  191.5530  175.2920  147.8940 C   0  0  0  0  0  2  0  0  0  0  0  0
  193.6920  171.8020  144.2130 N   0  0  0  0  0  2  0  0  0  0  0  0
  194.8340  170.4500  145.9150 C   0  0  0  0  0  1  0  0  0  0  0  0
  193.6160  170.5830  145.0120 C   0  0  2  0  0  3  0  0  0  0  0  0
  193.4510  169.4050  144.1580 N   0  0  0  0  0  2  0  0  0  0  0  0
  194.7120  168.6790  144.0310 C   0  0  0  0  0  2  0  0  0  0  0  0
  194.4000  169.8140  140.7970 C   0  0  0  0  0  0  0  0  0  0  0  0
  196.5620  169.2010  142.0440 S   0  0  1  0  0  0  0  0  0  0  0  0
  193.9760  169.0130  141.7210 N   0  0  0  0  0  0  0  0  0  0  0  0
  195.0140  168.4260  142.5630 C   0  0  2  0  0  3  0  0  0  0  0  0
  195.8000  170.0350  140.7230 N   0  0  0  0  0  2  0  0  0  0  0  0
  196.8020  170.3170  143.0550 O   0  0  0  0  0  0  0  0  0  0  0  0
  193.4630  170.4420  139.8280 C   0  0  0  0  0  2  0  0  0  0  0  0
  191.5030  171.9350  139.6270 C   0  0  0  0  0  2  0  0  0  0  0  0
  192.2780  171.0350  140.5670 C   0  0  0  0  0  3  0  0  0  0  0  0
  191.0000  170.5400  139.9230 C   0  0  0  0  0  2  0  0  0  0  0  0
  1 10  1  0  0  0  0
  1  4  1  0  0  0  0
  2  1  2  0  0  0  0
  4  7  2  0  0  0  0
  5  6  1  0  0  0  0
  6 10  2  0  0  0  0
  7  8  1  0  0  0  0
  8  3  2  0  0  0  0
  9  8  1  0  0  0  0
  9 30  1  1  0  0  0
 10  9  1  0  0  0  0
 11  5  2  0  0  0  0
 11  2  1  0  0  0  0
 12  5  1  1  0  0  0
 13 15  1  6  0  0  0
 13 14  1  0  0  0  0
 13 12  1  0  0  0  0
 14 16  1  6  0  0  0
 14 12  1  0  0  0  0
 15 12  1  0  0  0  0
 16 17  1  0  0  0  0
 17 18  1  0  0  0  0
 19 18  1  6  0  0  0
 19 23  1  0  0  0  0
 20 22  1  0  0  0  0
 20 19  1  0  0  0  0
 21 20  2  0  0  0  0
 23 24  2  0  0  0  0
 23 25  2  0  0  0  0
 23 26  1  0  0  0  0
 28 29  2  0  0  0  0
 29 27  1  0  0  0  0
 29 26  1  0  0  0  0
 30 31  2  0  0  0  0
 32  2  1  0  0  0  0
 32 34  1  0  0  0  0
 34 33  1  6  0  0  0
 35 34  1  0  0  0  0
 36 35  1  0  0  0  0
 37 39  2  0  0  0  0
 38 40  1  0  0  0  0
 38 42  2  1  0  0  0
 39 40  1  0  0  0  0
 40 36  1  1  0  0  0
 41 37  1  0  0  0  0
 41 38  1  0  0  0  0
 43 45  1  0  0  0  0
 43 37  1  0  0  0  0
 44 46  1  0  0  0  0
 44 45  1  0  0  0  0
 46 45  1  0  0  0  0
M  END
>  <MODEL>
8

>  <REMARK>
 VINA RESULT:      -6.0      2.697      5.266
  Name = 
  17 active torsions:
  status: ('A' for Active; 'I' for Inactive)
    1  A    between atoms: C_2  and  C_40
    2  A    between atoms: C_3  and  C_23
    3  A    between atoms: C_4  and  C_42
    4  A    between atoms: C_6  and  S_14
    5  A    between atoms: C_6  and  C_33
    6  A    between atoms: C_7  and  N_9
    7  A    between atoms: N_9  and  C_15
    8  A    between atoms: S_14  and  C_42
    9  A    between atoms: C_15  and  N_35
   10  A    between atoms: C_16  and  C_21
   11  A    between atoms: N_19  and  C_20
   12  A    between atoms: N_19  and  C_32
   13  A    between atoms: C_20  and  C_43
   14  A    between atoms: C_22  and  C_23
   15  A    between atoms: C_27  and  C_37
   16  A    between atoms: N_35  and  C_37
   17  A    between atoms: C_42  and  C_43
                            x       y       z     vdW  Elec       q    Type
                         _______ _______ _______ _____ _____    ______ ____

>  <TORSDO>
F 17

$$$$
=
 OpenBabel11042415383D

 46 51  0  0  1  0  0  0  0  0999 V2000
  186.8090  177.8260  144.5850 C   0  0  0  0  0  0  0  0  0  0  0  0
  187.8670  177.5740  143.7000 C   0  0  0  0  0  0  0  0  0  0  0  0
  183.4630  178.2370  146.8880 O   0  0  0  0  0  0  0  0  0  0  0  0
  185.6530  178.6410  144.1720 C   0  0  0  0  0  3  0  0  0  0  0  0
  188.9100  176.1840  145.3860 C   0  0  0  0  0  0  0  0  0  0  0  0
  187.8790  176.4620  146.2340 N   0  0  0  0  0  0  0  0  0  0  0  0
  184.6230  178.7880  144.9470 N   0  0  0  0  0  0  0  0  0  0  0  0
  184.5480  178.1950  146.2490 C   0  0  0  0  0  0  0  0  0  0  0  0
  185.7580  177.5640  146.8840 C   0  0  1  0  0  3  0  0  0  0  0  0
  186.8380  177.2610  145.8730 C   0  0  0  0  0  0  0  0  0  0  0  0
  188.9220  176.7490  144.1090 C   0  0  0  0  0  3  0  0  0  0  0  0
  190.0570  175.3060  145.8100 C   0  0  2  0  0  0  0  0  0  0  0  0
  190.8770  176.0610  146.8500 C   0  0  2  0  0  3  0  0  0  0  0  0
  191.4270  175.8530  145.4520 C   0  0  1  0  0  3  0  0  0  0  0  0
  189.9860  174.9140  147.2740 C   0  0  0  0  0  2  0  0  0  0  0  0
  192.4080  174.7800  145.4660 N   0  0  0  0  0  2  0  0  0  0  0  0
  193.5110  175.2410  146.2890 C   0  0  0  0  0  2  0  0  0  0  0  0
  194.7150  175.5190  145.4130 C   0  0  0  0  0  2  0  0  0  0  0  0
  194.4540  175.0210  144.0010 C   0  0  1  0  0  3  0  0  0  0  0  0
  194.9010  176.0390  143.0040 C   0  0  0  0  0  0  0  0  0  0  0  0
  194.2020  176.2270  141.8180 O   0  0  0  0  0  0  0  0  0  0  0  0
  195.9330  176.7200  143.2350 O   0  0  0  0  0  1  0  0  0  0  0  0
  195.2570  173.4450  143.7120 S   0  0  0  0  0  0  0  0  0  0  0  0
  195.1740  173.0920  142.2540 O   0  0  0  0  0  0  0  0  0  0  0  0
  194.5780  172.3730  144.5170 O   0  0  0  0  0  0  0  0  0  0  0  0
  196.9710  173.5420  144.1980 C   0  0  0  0  0  2  0  0  0  0  0  0
  197.1660  173.3090  146.5610 O   0  0  0  0  0  1  0  0  0  0  0  0
  197.5060  171.3960  145.3460 O   0  0  0  0  0  0  0  0  0  0  0  0
  197.2060  172.7480  145.4350 C   0  0  0  0  0  0  0  0  0  0  0  0
  186.2780  178.4680  147.9600 C   0  0  0  0  0  3  0  0  0  0  0  0
  186.3070  179.7900  147.8000 C   0  0  0  0  0  2  0  0  0  0  0  0
  187.8510  178.1340  142.3810 N   0  0  0  0  0  2  0  0  0  0  0  0
  186.0950  177.9200  140.6770 C   0  0  0  0  0  1  0  0  0  0  0  0
  187.4270  177.3960  141.1960 C   0  0  2  0  0  3  0  0  0  0  0  0
  187.3690  175.9580  141.4660 N   0  0  0  0  0  2  0  0  0  0  0  0
  188.5310  175.2800  140.8970 C   0  0  0  0  0  2  0  0  0  0  0  0
  189.3260  172.2940  139.3820 C   0  0  0  0  0  0  0  0  0  0  0  0
  189.3920  172.8480  141.8910 S   0  0  1  0  0  0  0  0  0  0  0  0
  188.5040  173.2900  139.4730 N   0  0  0  0  0  0  0  0  0  0  0  0
  188.2700  173.7840  140.8270 C   0  0  2  0  0  3  0  0  0  0  0  0
  189.9050  171.8190  140.5870 N   0  0  0  0  0  2  0  0  0  0  0  0
  190.5960  173.7610  142.0940 O   0  0  0  0  0  0  0  0  0  0  0  0
  189.6180  171.6500  138.0730 C   0  0  0  0  0  2  0  0  0  0  0  0
  190.0370  169.2160  137.9970 C   0  0  0  0  0  2  0  0  0  0  0  0
  190.6670  170.5690  138.2520 C   0  0  0  0  0  3  0  0  0  0  0  0
  190.8820  169.8690  136.9270 C   0  0  0  0  0  2  0  0  0  0  0  0
  1 10  1  0  0  0  0
  2 11  1  0  0  0  0
  2  1  2  0  0  0  0
  4  1  1  0  0  0  0
  4  7  2  0  0  0  0
  5  6  1  0  0  0  0
  7  8  1  0  0  0  0
  8  9  1  0  0  0  0
  8  3  2  0  0  0  0
  9 30  1  1  0  0  0
 10  6  2  0  0  0  0
 10  9  1  0  0  0  0
 11  5  2  0  0  0  0
 12  5  1  6  0  0  0
 12 13  1  0  0  0  0
 12 15  1  0  0  0  0
 13 15  1  1  0  0  0
 14 16  1  1  0  0  0
 14 12  1  0  0  0  0
 14 13  1  0  0  0  0
 16 17  1  0  0  0  0
 18 17  1  0  0  0  0
 19 18  1  1  0  0  0
 20 22  1  0  0  0  0
 20 19  1  0  0  0  0
 21 20  2  0  0  0  0
 23 19  1  0  0  0  0
 23 26  1  0  0  0  0
 23 25  2  0  0  0  0
 24 23  2  0  0  0  0
 26 29  1  0  0  0  0
 28 29  2  0  0  0  0
 29 27  1  0  0  0  0
 31 30  2  0  0  0  0
 32  2  1  0  0  0  0
 34 33  1  1  0  0  0
 34 35  1  0  0  0  0
 34 32  1  0  0  0  0
 36 35  1  0  0  0  0
 37 39  2  0  0  0  0
 37 41  1  0  0  0  0
 38 42  2  6  0  0  0
 39 40  1  0  0  0  0
 40 36  1  6  0  0  0
 40 38  1  0  0  0  0
 41 38  1  0  0  0  0
 43 45  1  0  0  0  0
 43 37  1  0  0  0  0
 44 45  1  0  0  0  0
 46 44  1  0  0  0  0
 46 45  1  0  0  0  0
M  END
>  <MODEL>
9

>  <REMARK>
 VINA RESULT:      -5.9      3.250      9.133
  Name = 
  17 active torsions:
  status: ('A' for Active; 'I' for Inactive)
    1  A    between atoms: C_2  and  C_40
    2  A    between atoms: C_3  and  C_23
    3  A    between atoms: C_4  and  C_42
    4  A    between atoms: C_6  and  S_14
    5  A    between atoms: C_6  and  C_33
    6  A    between atoms: C_7  and  N_9
    7  A    between atoms: N_9  and  C_15
    8  A    between atoms: S_14  and  C_42
    9  A    between atoms: C_15  and  N_35
   10  A    between atoms: C_16  and  C_21
   11  A    between atoms: N_19  and  C_20
   12  A    between atoms: N_19  and  C_32
   13  A    between atoms: C_20  and  C_43
   14  A    between atoms: C_22  and  C_23
   15  A    between atoms: C_27  and  C_37
   16  A    between atoms: N_35  and  C_37
   17  A    between atoms: C_42  and  C_43
                            x       y       z     vdW  Elec       q    Type
                         _______ _______ _______ _____ _____    ______ ____

>  <TORSDO>
F 17

$$$$
