=
 OpenBabel11042415303D

 47 52  0  0  1  0  0  0  0  0999 V2000
  192.2510  174.5480  145.8930 C   0  0  1  0  0  3  0  0  0  0  0  0
  194.1270  175.6720  145.5160 O   0  0  0  0  0  0  0  0  0  0  0  0
  192.5480  173.8150  144.5700 C   0  0  1  0  0  3  0  0  0  0  0  0
  194.9010  174.6550  144.9020 C   0  0  2  0  0  3  0  0  0  0  0  0
  193.4160  175.1020  146.4850 O   0  0  0  0  0  0  0  0  0  0  0  0
  194.0330  173.4530  144.5230 C   0  0  0  0  0  2  0  0  0  0  0  0
  189.2690  177.9090  145.4770 C   0  0  1  0  0  3  0  0  0  0  0  0
  190.9220  176.5670  146.9170 C   0  0  0  0  0  2  0  0  0  0  0  0
  190.7750  176.0560  144.3700 C   0  0  1  0  0  3  0  0  0  0  0  0
  189.5930  177.3180  146.8580 C   0  0  0  0  0  2  0  0  0  0  0  0
  191.1000  175.5570  145.7760 C   0  0  1  0  0  0  0  0  0  0  0  0
  189.8510  175.0520  145.0650 C   0  0  0  0  0  2  0  0  0  0  0  0
  190.2520  177.5090  144.3660 C   0  0  0  0  0  2  0  0  0  0  0  0
  187.8520  177.5420  145.0650 C   0  0  0  0  0  2  0  0  0  0  0  0
  185.5370  178.1310  145.9530 C   0  0  1  0  0  0  0  0  0  0  0  0
  184.7950  178.6850  147.1540 C   0  0  0  0  0  1  0  0  0  0  0  0
  186.9090  177.5360  146.2650 C   0  0  1  0  0  3  0  0  0  0  0  0
  185.7150  176.6260  145.9820 C   0  0  0  0  0  2  0  0  0  0  0  0
  185.6030  180.0540  144.3580 O   0  0  0  0  0  1  0  0  0  0  0  0
  185.2630  178.7300  144.6040 C   0  0  0  0  0  0  0  0  0  0  0  0
  184.7240  178.0460  143.6930 O   0  0  0  0  0  0  0  0  0  0  0  0
  191.7280  172.5380  144.4780 C   0  0  0  0  0  2  0  0  0  0  0  0
  191.9930  171.7610  143.1860 C   0  0  0  0  0  2  0  0  0  0  0  0
  190.7370  170.0850  142.0180 O   0  0  0  0  0  1  0  0  0  0  0  0
  190.7270  171.4350  142.3880 C   0  0  2  0  0  3  0  0  0  0  0  0
  190.8220  171.8020  139.9820 C   0  0  0  0  0  2  0  0  0  0  0  0
  190.5460  172.3050  141.1770 C   0  0  0  0  0  0  0  0  0  0  0  0
  188.7350  174.0480  141.1040 N   0  0  0  0  0  0  0  0  0  0  0  0
  187.7460  173.4020  141.9560 C   0  0  0  0  0  2  0  0  0  0  0  0
  186.8150  175.6640  142.4060 C   0  0  0  0  0  2  0  0  0  0  0  0
  190.9660  174.6210  141.5310 O   0  0  0  0  0  0  0  0  0  0  0  0
  187.3400  174.3820  143.0510 C   0  0  0  0  0  2  0  0  0  0  0  0
  187.8820  176.3020  141.5040 C   0  0  1  0  0  3  0  0  0  0  0  0
  188.3400  175.2900  140.4470 C   0  0  0  0  0  2  0  0  0  0  0  0
  190.1180  173.7140  141.2800 C   0  0  0  0  0  0  0  0  0  0  0  0
  187.3290  177.5550  140.8300 C   0  0  0  0  0  3  0  0  0  0  0  0
  186.0020  177.3440  140.4490 O   0  0  0  0  0  1  0  0  0  0  0  0
  187.3890  178.6360  141.7090 O   0  0  0  0  0  1  0  0  0  0  0  0
  196.0450  174.1950  145.8090 C   0  0  0  0  0  2  0  0  0  0  0  0
  197.9410  174.3570  144.3490 O   0  0  0  0  0  0  0  0  0  0  0  0
  197.2020  173.6180  145.0510 C   0  0  0  0  0  0  0  0  0  0  0  0
  197.5070  172.2650  145.2250 O   0  0  0  0  0  0  0  0  0  0  0  0
  197.1390  171.2640  144.2810 C   0  0  0  0  0  2  0  0  0  0  0  0
  196.3960  168.8650  144.3400 O   0  0  0  0  0  1  0  0  0  0  0  0
  195.3270  170.3850  145.9410 C   0  0  0  0  0  2  0  0  0  0  0  0
  196.4570  170.0960  144.9790 C   0  0  0  0  0  0  0  0  0  0  0  0
  196.7060  169.9980  146.4600 C   0  0  0  0  0  2  0  0  0  0  0  0
  1  5  1  6  0  0  0
  2  5  1  0  0  0  0
  3 22  1  1  0  0  0
  3  1  1  0  0  0  0
  4  2  1  0  0  0  0
  4 39  1  1  0  0  0
  6  3  1  0  0  0  0
  6  4  1  0  0  0  0
  7 14  1  6  0  0  0
  7 10  1  0  0  0  0
  9 13  1  1  0  0  0
  9 12  1  0  0  0  0
  9 11  1  0  0  0  0
 10  8  1  0  0  0  0
 11 12  1  1  0  0  0
 11  1  1  0  0  0  0
 11  8  1  0  0  0  0
 13  7  1  0  0  0  0
 15 18  1  0  0  0  0
 15 17  1  0  0  0  0
 15 16  1  1  0  0  0
 17 14  1  6  0  0  0
 18 17  1  0  0  0  0
 19 20  1  0  0  0  0
 20 15  1  0  0  0  0
 21 20  2  0  0  0  0
 23 22  1  0  0  0  0
 25 24  1  6  0  0  0
 25 23  1  0  0  0  0
 26 27  2  0  0  0  0
 27 35  1  0  0  0  0
 27 25  1  0  0  0  0
 28 35  1  0  0  0  0
 28 29  1  0  0  0  0
 29 32  1  0  0  0  0
 30 32  1  0  0  0  0
 33 36  1  6  0  0  0
 33 30  1  0  0  0  0
 34 28  1  0  0  0  0
 34 33  1  0  0  0  0
 35 31  2  0  0  0  0
 36 38  1  0  0  0  0
 37 36  1  0  0  0  0
 40 41  2  0  0  0  0
 41 42  1  0  0  0  0
 41 39  1  0  0  0  0
 43 46  1  0  0  0  0
 43 42  1  0  0  0  0
 44 46  1  0  0  0  0
 45 47  1  0  0  0  0
 46 45  1  0  0  0  0
 46 47  1  0  0  0  0
M  END
>  <MODEL>
1

>  <REMARK>
 VINA RESULT:      -7.0      0.000      0.000
  Name = 
  15 active torsions:
  status: ('A' for Active; 'I' for Inactive)
    1  A    between atoms: C_1  and  C_30
    2  A    between atoms: C_4  and  C_32
    3  A    between atoms: C_8  and  C_18
    4  A    between atoms: C_10  and  C_22
    5  A    between atoms: C_15  and  C_19
    6  A    between atoms: C_15  and  C_34
    7  A    between atoms: C_23  and  C_44
    8  A    between atoms: O_24  and  C_40
    9  A    between atoms: O_24  and  C_47
   10  A    between atoms: C_29  and  C_39
   11  A    between atoms: C_29  and  C_42
   12  A    between atoms: C_32  and  C_35
   13  A    between atoms: C_34  and  C_42
   14  A    between atoms: C_40  and  C_41
   15  A    between atoms: C_44  and  C_47
                            x       y       z     vdW  Elec       q    Type
                         _______ _______ _______ _____ _____    ______ ____

>  <TORSDO>
F 15

$$$$
=
 OpenBabel11042415303D

 47 52  0  0  1  0  0  0  0  0999 V2000
  192.0450  175.1250  145.0650 C   0  0  1  0  0  3  0  0  0  0  0  0
  192.7390  176.6460  143.6060 O   0  0  0  0  0  0  0  0  0  0  0  0
  192.0260  174.1450  143.8750 C   0  0  1  0  0  3  0  0  0  0  0  0
  193.5350  175.8300  142.7630 C   0  0  2  0  0  3  0  0  0  0  0  0
  192.9190  176.2240  144.8540 O   0  0  0  0  0  0  0  0  0  0  0  0
  193.2940  174.3450  143.0440 C   0  0  0  0  0  2  0  0  0  0  0  0
  188.1780  176.6990  146.7770 C   0  0  1  0  0  3  0  0  0  0  0  0
  190.1480  175.0500  146.8780 C   0  0  0  0  0  2  0  0  0  0  0  0
  190.1940  176.9530  145.1040 C   0  0  1  0  0  3  0  0  0  0  0  0
  188.6530  175.2730  147.1000 C   0  0  0  0  0  2  0  0  0  0  0  0
  190.6410  175.5520  145.5140 C   0  0  1  0  0  0  0  0  0  0  0  0
  189.6160  175.7230  144.4000 C   0  0  0  0  0  2  0  0  0  0  0  0
  189.2500  177.5990  146.1420 C   0  0  0  0  0  2  0  0  0  0  0  0
  186.9480  176.6570  145.8850 C   0  0  0  0  0  2  0  0  0  0  0  0
  185.8160  178.4830  144.5140 C   0  0  1  0  0  0  0  0  0  0  0  0
  185.6240  179.9830  144.4010 C   0  0  0  0  0  1  0  0  0  0  0  0
  186.2020  177.9880  145.9070 C   0  0  1  0  0  3  0  0  0  0  0  0
  184.7810  177.7940  145.3810 C   0  0  0  0  0  2  0  0  0  0  0  0
  187.4820  178.0110  142.7110 O   0  0  0  0  0  0  0  0  0  0  0  0
  186.2550  177.7240  143.2950 C   0  0  0  0  0  0  0  0  0  0  0  0
  185.5200  176.8310  142.7920 O   0  0  0  0  0  1  0  0  0  0  0  0
  191.9870  172.7090  144.3740 C   0  0  0  0  0  2  0  0  0  0  0  0
  190.5970  172.0810  144.2490 C   0  0  0  0  0  2  0  0  0  0  0  0
  191.4630  171.2550  142.1710 O   0  0  0  0  0  1  0  0  0  0  0  0
  190.2750  171.5620  142.8450 C   0  0  2  0  0  3  0  0  0  0  0  0
  188.1570  172.6380  142.3110 C   0  0  0  0  0  2  0  0  0  0  0  0
  189.4480  172.5150  142.0330 C   0  0  0  0  0  0  0  0  0  0  0  0
  190.1450  172.6630  139.6210 N   0  0  0  0  0  0  0  0  0  0  0  0
  188.9570  172.0990  138.9930 C   0  0  0  0  0  2  0  0  0  0  0  0
  189.5890  173.3380  136.9320 C   0  0  0  0  0  2  0  0  0  0  0  0
  190.3740  174.4870  141.0720 O   0  0  0  0  0  0  0  0  0  0  0  0
  188.4640  173.0740  137.9310 C   0  0  0  0  0  2  0  0  0  0  0  0
  190.8260  173.9150  137.6370 C   0  0  1  0  0  3  0  0  0  0  0  0
  191.2780  172.9640  138.7520 C   0  0  0  0  0  2  0  0  0  0  0  0
  190.0140  173.2840  140.9070 C   0  0  0  0  0  0  0  0  0  0  0  0
  191.9580  174.1280  136.6360 C   0  0  0  0  0  3  0  0  0  0  0  0
  191.4310  174.3780  135.3660 O   0  0  0  0  0  1  0  0  0  0  0  0
  192.7440  175.2120  137.0270 O   0  0  0  0  0  1  0  0  0  0  0  0
  195.0250  176.1450  142.9190 C   0  0  0  0  0  2  0  0  0  0  0  0
  196.0580  175.1410  141.0010 O   0  0  0  0  0  0  0  0  0  0  0  0
  195.9130  175.1390  142.2520 C   0  0  0  0  0  0  0  0  0  0  0  0
  196.6580  174.2700  143.0540 O   0  0  0  0  0  0  0  0  0  0  0  0
  197.2020  174.6570  144.3130 C   0  0  0  0  0  2  0  0  0  0  0  0
  195.5570  174.8900  146.1970 O   0  0  0  0  0  1  0  0  0  0  0  0
  196.9360  172.8620  146.1890 C   0  0  0  0  0  2  0  0  0  0  0  0
  196.3870  174.0630  145.4520 C   0  0  0  0  0  0  0  0  0  0  0  0
  195.8030  172.7020  145.1840 C   0  0  0  0  0  2  0  0  0  0  0  0
  1  5  1  6  0  0  0
  1 11  1  0  0  0  0
  2  5  1  0  0  0  0
  3 22  1  1  0  0  0
  3  1  1  0  0  0  0
  4 39  1  1  0  0  0
  4  6  1  0  0  0  0
  4  2  1  0  0  0  0
  6  3  1  0  0  0  0
  7 14  1  6  0  0  0
  7 10  1  0  0  0  0
  8 10  1  0  0  0  0
  9 12  1  6  0  0  0
  9 11  1  0  0  0  0
  9 13  1  0  0  0  0
 11 12  1  6  0  0  0
 11  8  1  0  0  0  0
 13  7  1  0  0  0  0
 15 16  1  6  0  0  0
 15 18  1  0  0  0  0
 15 17  1  0  0  0  0
 17 14  1  6  0  0  0
 18 17  1  0  0  0  0
 19 20  2  0  0  0  0
 20 15  1  0  0  0  0
 21 20  1  0  0  0  0
 23 22  1  0  0  0  0
 25 24  1  6  0  0  0
 25 23  1  0  0  0  0
 27 26  2  0  0  0  0
 27 25  1  0  0  0  0
 28 35  1  0  0  0  0
 29 28  1  0  0  0  0
 30 33  1  0  0  0  0
 30 32  1  0  0  0  0
 32 29  1  0  0  0  0
 33 36  1  6  0  0  0
 33 34  1  0  0  0  0
 34 28  1  0  0  0  0
 35 31  2  0  0  0  0
 35 27  1  0  0  0  0
 36 38  1  0  0  0  0
 37 36  1  0  0  0  0
 40 41  2  0  0  0  0
 41 39  1  0  0  0  0
 41 42  1  0  0  0  0
 42 43  1  0  0  0  0
 43 46  1  0  0  0  0
 46 45  1  0  0  0  0
 46 44  1  0  0  0  0
 47 46  1  0  0  0  0
 47 45  1  0  0  0  0
M  END
>  <MODEL>
2

>  <REMARK>
 VINA RESULT:      -7.0      2.190      3.421
  Name = 
  15 active torsions:
  status: ('A' for Active; 'I' for Inactive)
    1  A    between atoms: C_1  and  C_30
    2  A    between atoms: C_4  and  C_32
    3  A    between atoms: C_8  and  C_18
    4  A    between atoms: C_10  and  C_22
    5  A    between atoms: C_15  and  C_19
    6  A    between atoms: C_15  and  C_34
    7  A    between atoms: C_23  and  C_44
    8  A    between atoms: O_24  and  C_40
    9  A    between atoms: O_24  and  C_47
   10  A    between atoms: C_29  and  C_39
   11  A    between atoms: C_29  and  C_42
   12  A    between atoms: C_32  and  C_35
   13  A    between atoms: C_34  and  C_42
   14  A    between atoms: C_40  and  C_41
   15  A    between atoms: C_44  and  C_47
                            x       y       z     vdW  Elec       q    Type
                         _______ _______ _______ _____ _____    ______ ____

>  <TORSDO>
F 15

$$$$
=
 OpenBabel11042415303D

 47 52  0  0  1  0  0  0  0  0999 V2000
  192.4840  175.5360  144.0620 C   0  0  1  0  0  3  0  0  0  0  0  0
  193.3400  176.3190  142.1700 O   0  0  0  0  0  0  0  0  0  0  0  0
  192.6360  174.1380  143.4300 C   0  0  1  0  0  3  0  0  0  0  0  0
  194.2510  175.2770  141.8650 C   0  0  2  0  0  3  0  0  0  0  0  0
  193.3610  176.4940  143.4880 O   0  0  0  0  0  0  0  0  0  0  0  0
  193.9980  174.0480  142.7410 C   0  0  0  0  0  2  0  0  0  0  0  0
  188.0580  176.3970  144.2420 C   0  0  1  0  0  3  0  0  0  0  0  0
  190.1500  175.7740  142.8840 C   0  0  0  0  0  2  0  0  0  0  0  0
  190.3330  175.9160  145.4760 C   0  0  1  0  0  3  0  0  0  0  0  0
  188.8290  176.5400  142.9210 C   0  0  0  0  0  2  0  0  0  0  0  0
  191.0270  176.0150  144.1200 C   0  0  1  0  0  0  0  0  0  0  0  0
  190.7810  177.2770  144.9380 C   0  0  0  0  0  2  0  0  0  0  0  0
  188.8180  175.6430  145.3450 C   0  0  0  0  0  2  0  0  0  0  0  0
  187.6300  177.7620  144.7560 C   0  0  0  0  0  2  0  0  0  0  0  0
  185.2920  178.1700  145.6850 C   0  0  1  0  0  0  0  0  0  0  0  0
  184.5290  178.6130  146.9190 C   0  0  0  0  0  1  0  0  0  0  0  0
  186.6970  177.6350  145.9570 C   0  0  1  0  0  3  0  0  0  0  0  0
  185.5530  176.6780  145.6270 C   0  0  0  0  0  2  0  0  0  0  0  0
  185.3140  180.1610  144.1740 O   0  0  0  0  0  1  0  0  0  0  0  0
  184.9760  178.8290  144.3740 C   0  0  0  0  0  0  0  0  0  0  0  0
  184.4030  178.1870  143.4520 O   0  0  0  0  0  0  0  0  0  0  0  0
  192.5540  173.0630  144.5010 C   0  0  0  0  0  2  0  0  0  0  0  0
  191.5850  171.9380  144.1310 C   0  0  0  0  0  2  0  0  0  0  0  0
  189.3800  171.8140  145.0660 O   0  0  0  0  0  1  0  0  0  0  0  0
  190.1240  172.3860  144.0270 C   0  0  2  0  0  3  0  0  0  0  0  0
  188.3020  172.5720  142.4210 C   0  0  0  0  0  2  0  0  0  0  0  0
  189.4960  172.0670  142.7010 C   0  0  0  0  0  0  0  0  0  0  0  0
  190.4440  171.6610  140.4070 N   0  0  0  0  0  0  0  0  0  0  0  0
  191.2740  172.8520  140.2760 C   0  0  0  0  0  2  0  0  0  0  0  0
  192.6360  171.5890  138.6230 C   0  0  0  0  0  2  0  0  0  0  0  0
  190.4400  169.9840  142.0410 O   0  0  0  0  0  0  0  0  0  0  0  0
  192.6860  172.4150  139.9080 C   0  0  0  0  0  2  0  0  0  0  0  0
  191.7380  170.3550  138.7990 C   0  0  1  0  0  3  0  0  0  0  0  0
  190.3360  170.7930  139.2390 C   0  0  0  0  0  2  0  0  0  0  0  0
  190.1430  171.1730  141.7210 C   0  0  0  0  0  0  0  0  0  0  0  0
  191.6580  169.5650  137.4950 C   0  0  0  0  0  3  0  0  0  0  0  0
  190.4850  168.8070  137.4700 O   0  0  0  0  0  1  0  0  0  0  0  0
  191.6650  170.4370  136.4070 O   0  0  0  0  0  1  0  0  0  0  0  0
  195.7020  175.7330  142.0300 C   0  0  0  0  0  2  0  0  0  0  0  0
  197.0360  174.2300  140.7200 O   0  0  0  0  0  0  0  0  0  0  0  0
  196.6930  174.6200  141.8670 C   0  0  0  0  0  0  0  0  0  0  0  0
  197.3050  174.0980  143.0090 O   0  0  0  0  0  0  0  0  0  0  0  0
  197.4830  174.8550  144.2040 C   0  0  0  0  0  2  0  0  0  0  0  0
  195.5010  175.1190  145.7250 O   0  0  0  0  0  1  0  0  0  0  0  0
  197.1470  173.4120  146.3520 C   0  0  0  0  0  2  0  0  0  0  0  0
  196.5690  174.3380  145.3060 C   0  0  0  0  0  0  0  0  0  0  0  0
  196.2570  172.8660  145.2430 C   0  0  0  0  0  2  0  0  0  0  0  0
  1  5  1  6  0  0  0
  1 11  1  0  0  0  0
  2  5  1  0  0  0  0
  3  1  1  0  0  0  0
  3 22  1  1  0  0  0
  4 39  1  1  0  0  0
  4  2  1  0  0  0  0
  4  6  1  0  0  0  0
  6  3  1  0  0  0  0
  7 14  1  1  0  0  0
  7 13  1  0  0  0  0
  8 10  1  0  0  0  0
  9 12  1  6  0  0  0
 10  7  1  0  0  0  0
 11  8  1  6  0  0  0
 11 12  1  0  0  0  0
 11  9  1  0  0  0  0
 13  9  1  0  0  0  0
 15 17  1  0  0  0  0
 15 16  1  1  0  0  0
 17 14  1  6  0  0  0
 18 15  1  0  0  0  0
 18 17  1  0  0  0  0
 19 20  1  0  0  0  0
 20 15  1  0  0  0  0
 21 20  2  0  0  0  0
 23 22  1  0  0  0  0
 25 23  1  0  0  0  0
 25 24  1  1  0  0  0
 26 27  2  0  0  0  0
 27 25  1  0  0  0  0
 28 35  1  0  0  0  0
 29 28  1  0  0  0  0
 30 33  1  0  0  0  0
 30 32  1  0  0  0  0
 32 29  1  0  0  0  0
 33 36  1  6  0  0  0
 33 34  1  0  0  0  0
 34 28  1  0  0  0  0
 35 31  2  0  0  0  0
 35 27  1  0  0  0  0
 37 36  1  0  0  0  0
 38 36  1  0  0  0  0
 40 41  2  0  0  0  0
 41 39  1  0  0  0  0
 41 42  1  0  0  0  0
 42 43  1  0  0  0  0
 43 46  1  0  0  0  0
 46 44  1  0  0  0  0
 46 45  1  0  0  0  0
 47 46  1  0  0  0  0
 47 45  1  0  0  0  0
M  END
>  <MODEL>
3

>  <REMARK>
 VINA RESULT:      -6.8      2.089      4.216
  Name = 
  15 active torsions:
  status: ('A' for Active; 'I' for Inactive)
    1  A    between atoms: C_1  and  C_30
    2  A    between atoms: C_4  and  C_32
    3  A    between atoms: C_8  and  C_18
    4  A    between atoms: C_10  and  C_22
    5  A    between atoms: C_15  and  C_19
    6  A    between atoms: C_15  and  C_34
    7  A    between atoms: C_23  and  C_44
    8  A    between atoms: O_24  and  C_40
    9  A    between atoms: O_24  and  C_47
   10  A    between atoms: C_29  and  C_39
   11  A    between atoms: C_29  and  C_42
   12  A    between atoms: C_32  and  C_35
   13  A    between atoms: C_34  and  C_42
   14  A    between atoms: C_40  and  C_41
   15  A    between atoms: C_44  and  C_47
                            x       y       z     vdW  Elec       q    Type
                         _______ _______ _______ _____ _____    ______ ____

>  <TORSDO>
F 15

$$$$
=
 OpenBabel11042415303D

 47 52  0  0  1  0  0  0  0  0999 V2000
  190.3630  175.0770  145.1980 C   0  0  1  0  0  3  0  0  0  0  0  0
  188.2850  175.8330  145.3840 O   0  0  0  0  0  0  0  0  0  0  0  0
  190.7060  176.4660  144.6240 C   0  0  1  0  0  3  0  0  0  0  0  0
  188.5470  177.1890  145.7070 C   0  0  2  0  0  3  0  0  0  0  0  0
  189.1970  175.0920  146.0070 O   0  0  0  0  0  0  0  0  0  0  0  0
  190.0180  177.5380  145.4710 C   0  0  0  0  0  2  0  0  0  0  0  0
  189.8360  171.6330  142.3300 C   0  0  1  0  0  3  0  0  0  0  0  0
  190.7030  172.5510  144.5690 C   0  0  0  0  0  2  0  0  0  0  0  0
  189.2640  174.0990  143.0510 C   0  0  1  0  0  3  0  0  0  0  0  0
  190.9400  171.5990  143.3980 C   0  0  0  0  0  2  0  0  0  0  0  0
  190.3380  173.9750  144.1300 C   0  0  1  0  0  0  0  0  0  0  0  0
  190.7260  174.4120  142.7230 C   0  0  0  0  0  2  0  0  0  0  0  0
  188.7750  172.7240  142.5450 C   0  0  0  0  0  2  0  0  0  0  0  0
  190.4450  171.7750  140.9440 C   0  0  0  0  0  2  0  0  0  0  0  0
  192.4410  170.8530  139.6550 C   0  0  1  0  0  0  0  0  0  0  0  0
  193.6960  170.0130  139.7870 C   0  0  0  0  0  1  0  0  0  0  0  0
  191.9390  171.4680  140.9610 C   0  0  1  0  0  3  0  0  0  0  0  0
  192.6580  172.3290  139.9240 C   0  0  0  0  0  2  0  0  0  0  0  0
  191.1610  171.4900  137.6040 O   0  0  0  0  0  0  0  0  0  0  0  0
  191.4730  170.5270  138.5540 C   0  0  0  0  0  0  0  0  0  0  0  0
  190.9370  169.3880  138.4850 O   0  0  0  0  0  1  0  0  0  0  0  0
  192.2080  176.6980  144.6630 C   0  0  0  0  0  2  0  0  0  0  0  0
  192.8670  176.0740  145.8950 C   0  0  0  0  0  2  0  0  0  0  0  0
  194.5350  177.7940  145.7970 O   0  0  0  0  0  1  0  0  0  0  0  0
  194.3480  176.4310  146.0540 C   0  0  2  0  0  3  0  0  0  0  0  0
  195.8470  176.1870  144.1500 C   0  0  0  0  0  2  0  0  0  0  0  0
  195.2560  175.6090  145.1870 C   0  0  0  0  0  0  0  0  0  0  0  0
  194.5320  173.2160  144.9120 N   0  0  0  0  0  0  0  0  0  0  0  0
  194.2440  173.2150  143.4830 C   0  0  0  0  0  2  0  0  0  0  0  0
  194.6230  170.7580  143.5170 C   0  0  0  0  0  2  0  0  0  0  0  0
  196.4920  173.7730  146.0650 O   0  0  0  0  0  0  0  0  0  0  0  0
  195.0140  172.0700  142.8380 C   0  0  0  0  0  2  0  0  0  0  0  0
  194.9270  170.8080  145.0220 C   0  0  1  0  0  3  0  0  0  0  0  0
  194.2080  172.0040  145.6570 C   0  0  0  0  0  2  0  0  0  0  0  0
  195.4740  174.1680  145.4230 C   0  0  0  0  0  0  0  0  0  0  0  0
  194.4890  169.5100  145.6970 C   0  0  0  0  0  3  0  0  0  0  0  0
  194.5850  168.4480  144.7940 O   0  0  0  0  0  1  0  0  0  0  0  0
  195.3000  169.2490  146.8010 O   0  0  0  0  0  1  0  0  0  0  0  0
  188.1730  177.5040  147.1570 C   0  0  0  0  0  2  0  0  0  0  0  0
  186.4610  179.0120  147.8970 O   0  0  0  0  0  0  0  0  0  0  0  0
  186.7450  177.9300  147.3190 C   0  0  0  0  0  0  0  0  0  0  0  0
  185.7460  177.1580  146.7210 O   0  0  0  0  0  0  0  0  0  0  0  0
  184.6320  177.7300  146.0410 C   0  0  0  0  0  2  0  0  0  0  0  0
  185.5360  177.0670  143.7940 O   0  0  0  0  0  1  0  0  0  0  0  0
  185.4130  179.4710  144.2620 C   0  0  0  0  0  2  0  0  0  0  0  0
  184.9950  178.0580  144.6000 C   0  0  0  0  0  0  0  0  0  0  0  0
  184.0280  178.9630  143.8840 C   0  0  0  0  0  2  0  0  0  0  0  0
  1  5  1  6  0  0  0
  2  4  1  0  0  0  0
  2  5  1  0  0  0  0
  3 22  1  1  0  0  0
  3  1  1  0  0  0  0
  3  6  1  0  0  0  0
  4 39  1  1  0  0  0
  6  4  1  0  0  0  0
  7 14  1  6  0  0  0
  7 13  1  0  0  0  0
  7 10  1  0  0  0  0
  9 13  1  6  0  0  0
  9 11  1  0  0  0  0
 10  8  1  0  0  0  0
 11 12  1  6  0  0  0
 11  8  1  0  0  0  0
 11  1  1  0  0  0  0
 12  9  1  0  0  0  0
 15 16  1  1  0  0  0
 15 18  1  0  0  0  0
 15 17  1  0  0  0  0
 17 14  1  6  0  0  0
 18 17  1  0  0  0  0
 19 20  2  0  0  0  0
 20 15  1  0  0  0  0
 21 20  1  0  0  0  0
 22 23  1  0  0  0  0
 23 25  1  0  0  0  0
 25 24  1  6  0  0  0
 26 27  2  0  0  0  0
 27 35  1  0  0  0  0
 27 25  1  0  0  0  0
 28 35  1  0  0  0  0
 28 34  1  0  0  0  0
 29 28  1  0  0  0  0
 30 33  1  0  0  0  0
 32 29  1  0  0  0  0
 32 30  1  0  0  0  0
 33 34  1  0  0  0  0
 33 36  1  1  0  0  0
 35 31  2  0  0  0  0
 36 38  1  0  0  0  0
 37 36  1  0  0  0  0
 39 41  1  0  0  0  0
 41 40  2  0  0  0  0
 42 41  1  0  0  0  0
 43 42  1  0  0  0  0
 44 46  1  0  0  0  0
 45 46  1  0  0  0  0
 46 43  1  0  0  0  0
 47 45  1  0  0  0  0
 47 46  1  0  0  0  0
M  END
>  <MODEL>
4

>  <REMARK>
 VINA RESULT:      -6.8      2.318      9.440
  Name = 
  15 active torsions:
  status: ('A' for Active; 'I' for Inactive)
    1  A    between atoms: C_1  and  C_30
    2  A    between atoms: C_4  and  C_32
    3  A    between atoms: C_8  and  C_18
    4  A    between atoms: C_10  and  C_22
    5  A    between atoms: C_15  and  C_19
    6  A    between atoms: C_15  and  C_34
    7  A    between atoms: C_23  and  C_44
    8  A    between atoms: O_24  and  C_40
    9  A    between atoms: O_24  and  C_47
   10  A    between atoms: C_29  and  C_39
   11  A    between atoms: C_29  and  C_42
   12  A    between atoms: C_32  and  C_35
   13  A    between atoms: C_34  and  C_42
   14  A    between atoms: C_40  and  C_41
   15  A    between atoms: C_44  and  C_47
                            x       y       z     vdW  Elec       q    Type
                         _______ _______ _______ _____ _____    ______ ____

>  <TORSDO>
F 15

$$$$
=
 OpenBabel11042415303D

 47 52  0  0  1  0  0  0  0  0999 V2000
  190.0730  175.2320  145.1940 C   0  0  1  0  0  3  0  0  0  0  0  0
  187.9590  175.9080  145.1860 O   0  0  0  0  0  0  0  0  0  0  0  0
  190.4040  176.6020  144.5700 C   0  0  1  0  0  3  0  0  0  0  0  0
  188.1440  177.2890  145.4500 C   0  0  2  0  0  3  0  0  0  0  0  0
  188.8490  175.2400  145.9140 O   0  0  0  0  0  0  0  0  0  0  0  0
  189.6140  177.6870  145.3030 C   0  0  0  0  0  2  0  0  0  0  0  0
  189.8820  171.6340  142.4780 C   0  0  1  0  0  3  0  0  0  0  0  0
  190.5020  172.6820  144.7420 C   0  0  0  0  0  2  0  0  0  0  0  0
  189.2130  174.1240  143.0010 C   0  0  1  0  0  3  0  0  0  0  0  0
  190.8690  171.6730  143.6540 C   0  0  0  0  0  2  0  0  0  0  0  0
  190.1700  174.0750  144.1900 C   0  0  1  0  0  0  0  0  0  0  0  0
  190.6980  174.4430  142.8090 C   0  0  0  0  0  2  0  0  0  0  0  0
  188.7940  172.7180  142.5220 C   0  0  0  0  0  2  0  0  0  0  0  0
  190.6310  171.7120  141.1570 C   0  0  0  0  0  2  0  0  0  0  0  0
  190.4800  172.7950  138.8550 C   0  0  1  0  0  0  0  0  0  0  0  0
  189.6800  173.7730  138.0160 C   0  0  0  0  0  1  0  0  0  0  0  0
  189.7170  172.1820  140.0280 C   0  0  1  0  0  3  0  0  0  0  0  0
  189.9880  171.3640  138.7670 C   0  0  0  0  0  2  0  0  0  0  0  0
  192.4990  174.0870  139.5630 O   0  0  0  0  0  1  0  0  0  0  0  0
  191.9690  172.9700  138.9310 C   0  0  0  0  0  0  0  0  0  0  0  0
  192.7450  172.1150  138.4230 O   0  0  0  0  0  0  0  0  0  0  0  0
  191.8890  176.8980  144.7050 C   0  0  0  0  0  2  0  0  0  0  0  0
  192.4650  176.4170  146.0390 C   0  0  0  0  0  2  0  0  0  0  0  0
  194.6230  177.2530  145.4080 O   0  0  0  0  0  1  0  0  0  0  0  0
  193.9760  176.1660  146.0080 C   0  0  2  0  0  3  0  0  0  0  0  0
  193.7170  173.7720  145.6420 C   0  0  0  0  0  2  0  0  0  0  0  0
  194.3530  174.8890  145.3140 C   0  0  0  0  0  0  0  0  0  0  0  0
  195.1200  174.6160  142.9350 N   0  0  0  0  0  0  0  0  0  0  0  0
  194.2020  175.5380  142.2790 C   0  0  0  0  0  2  0  0  0  0  0  0
  195.8690  175.7240  140.4440 C   0  0  0  0  0  2  0  0  0  0  0  0
  196.6450  174.9730  144.6760 O   0  0  0  0  0  0  0  0  0  0  0  0
  195.0170  176.5120  141.4380 C   0  0  0  0  0  2  0  0  0  0  0  0
  196.8090  174.7540  141.1750 C   0  0  1  0  0  3  0  0  0  0  0  0
  195.9910  173.8200  142.0760 C   0  0  0  0  0  2  0  0  0  0  0  0
  195.4390  174.8290  144.3160 C   0  0  0  0  0  0  0  0  0  0  0  0
  197.6200  173.9400  140.1710 C   0  0  0  0  0  3  0  0  0  0  0  0
  196.8800  172.8320  139.7480 O   0  0  0  0  0  1  0  0  0  0  0  0
  197.9400  174.7270  139.0650 O   0  0  0  0  0  1  0  0  0  0  0  0
  187.6500  177.6640  146.8490 C   0  0  0  0  0  2  0  0  0  0  0  0
  185.9560  179.1650  147.6430 O   0  0  0  0  0  0  0  0  0  0  0  0
  186.2650  178.2360  146.8520 C   0  0  0  0  0  0  0  0  0  0  0  0
  185.3570  177.7910  145.8880 O   0  0  0  0  0  0  0  0  0  0  0  0
  184.3980  178.6500  145.2760 C   0  0  0  0  0  2  0  0  0  0  0  0
  183.2590  178.7400  143.0390 O   0  0  0  0  0  1  0  0  0  0  0  0
  185.3360  177.4420  143.1610 C   0  0  0  0  0  2  0  0  0  0  0  0
  184.4130  178.4760  143.7640 C   0  0  0  0  0  0  0  0  0  0  0  0
  185.6760  178.9240  143.0780 C   0  0  0  0  0  2  0  0  0  0  0  0
  1  5  1  6  0  0  0
  2  4  1  0  0  0  0
  2  5  1  0  0  0  0
  3 22  1  1  0  0  0
  3  1  1  0  0  0  0
  3  6  1  0  0  0  0
  4 39  1  1  0  0  0
  6  4  1  0  0  0  0
  7 14  1  6  0  0  0
  7 13  1  0  0  0  0
  7 10  1  0  0  0  0
  9 13  1  6  0  0  0
  9 11  1  0  0  0  0
 10  8  1  0  0  0  0
 11 12  1  6  0  0  0
 11  8  1  0  0  0  0
 11  1  1  0  0  0  0
 12  9  1  0  0  0  0
 15 16  1  6  0  0  0
 15 20  1  0  0  0  0
 15 17  1  0  0  0  0
 17 14  1  1  0  0  0
 18 15  1  0  0  0  0
 18 17  1  0  0  0  0
 20 19  1  0  0  0  0
 21 20  2  0  0  0  0
 22 23  1  0  0  0  0
 25 24  1  6  0  0  0
 25 23  1  0  0  0  0
 27 26  2  0  0  0  0
 27 25  1  0  0  0  0
 28 35  1  0  0  0  0
 29 28  1  0  0  0  0
 30 33  1  0  0  0  0
 30 32  1  0  0  0  0
 32 29  1  0  0  0  0
 33 36  1  6  0  0  0
 33 34  1  0  0  0  0
 34 28  1  0  0  0  0
 35 31  2  0  0  0  0
 35 27  1  0  0  0  0
 37 36  1  0  0  0  0
 38 36  1  0  0  0  0
 39 41  1  0  0  0  0
 41 40  2  0  0  0  0
 42 41  1  0  0  0  0
 43 42  1  0  0  0  0
 44 46  1  0  0  0  0
 45 46  1  0  0  0  0
 46 43  1  0  0  0  0
 47 45  1  0  0  0  0
 47 46  1  0  0  0  0
M  END
>  <MODEL>
5

>  <REMARK>
 VINA RESULT:      -6.7      2.689      9.128
  Name = 
  15 active torsions:
  status: ('A' for Active; 'I' for Inactive)
    1  A    between atoms: C_1  and  C_30
    2  A    between atoms: C_4  and  C_32
    3  A    between atoms: C_8  and  C_18
    4  A    between atoms: C_10  and  C_22
    5  A    between atoms: C_15  and  C_19
    6  A    between atoms: C_15  and  C_34
    7  A    between atoms: C_23  and  C_44
    8  A    between atoms: O_24  and  C_40
    9  A    between atoms: O_24  and  C_47
   10  A    between atoms: C_29  and  C_39
   11  A    between atoms: C_29  and  C_42
   12  A    between atoms: C_32  and  C_35
   13  A    between atoms: C_34  and  C_42
   14  A    between atoms: C_40  and  C_41
   15  A    between atoms: C_44  and  C_47
                            x       y       z     vdW  Elec       q    Type
                         _______ _______ _______ _____ _____    ______ ____

>  <TORSDO>
F 15

$$$$
=
 OpenBabel11042415303D

 47 52  0  0  1  0  0  0  0  0999 V2000
  192.3150  175.3770  145.8330 C   0  0  1  0  0  3  0  0  0  0  0  0
  193.2110  176.9620  144.5640 O   0  0  0  0  0  0  0  0  0  0  0  0
  192.5570  174.4310  144.6410 C   0  0  1  0  0  3  0  0  0  0  0  0
  194.1820  176.1970  143.8690 C   0  0  2  0  0  3  0  0  0  0  0  0
  193.1690  176.5110  145.8150 O   0  0  0  0  0  0  0  0  0  0  0  0
  193.9500  174.6980  144.0690 C   0  0  0  0  0  2  0  0  0  0  0  0
  188.1310  176.7290  146.8470 C   0  0  1  0  0  3  0  0  0  0  0  0
  190.0830  175.0910  147.1850 C   0  0  0  0  0  2  0  0  0  0  0  0
  190.4440  177.1790  145.6750 C   0  0  1  0  0  3  0  0  0  0  0  0
  188.5690  175.2800  147.1090 C   0  0  0  0  0  2  0  0  0  0  0  0
  190.8360  175.7440  146.0190 C   0  0  1  0  0  0  0  0  0  0  0  0
  190.0630  176.0310  144.7380 C   0  0  0  0  0  2  0  0  0  0  0  0
  189.2850  177.7000  146.5530 C   0  0  0  0  0  2  0  0  0  0  0  0
  187.1170  176.7790  145.7160 C   0  0  0  0  0  2  0  0  0  0  0  0
  185.8430  178.5360  144.3790 C   0  0  1  0  0  0  0  0  0  0  0  0
  185.5660  180.0230  144.2700 C   0  0  0  0  0  1  0  0  0  0  0  0
  186.2990  178.0670  145.7600 C   0  0  1  0  0  3  0  0  0  0  0  0
  184.8750  177.7940  145.2790 C   0  0  0  0  0  2  0  0  0  0  0  0
  187.5180  178.0880  142.5780 O   0  0  0  0  0  0  0  0  0  0  0  0
  186.2850  177.7990  143.1470 C   0  0  0  0  0  0  0  0  0  0  0  0
  185.5470  176.9220  142.6220 O   0  0  0  0  0  1  0  0  0  0  0  0
  192.4810  172.9810  145.0930 C   0  0  0  0  0  2  0  0  0  0  0  0
  191.9580  172.0510  143.9970 C   0  0  0  0  0  2  0  0  0  0  0  0
  189.6950  172.7960  143.7180 O   0  0  0  0  0  1  0  0  0  0  0  0
  190.9310  172.7030  143.0660 C   0  0  2  0  0  3  0  0  0  0  0  0
  190.5500  170.6800  141.7640 C   0  0  0  0  0  2  0  0  0  0  0  0
  190.7750  171.9870  141.7560 C   0  0  0  0  0  0  0  0  0  0  0  0
  189.9070  172.5070  139.4530 N   0  0  0  0  0  0  0  0  0  0  0  0
  188.5240  172.8240  139.7840 C   0  0  0  0  0  2  0  0  0  0  0  0
  188.4400  174.1570  137.6870 C   0  0  0  0  0  2  0  0  0  0  0  0
  191.9080  173.4350  140.2430 O   0  0  0  0  0  0  0  0  0  0  0  0
  188.1870  174.1870  139.1940 C   0  0  0  0  0  2  0  0  0  0  0  0
  189.9030  173.8040  137.3830 C   0  0  1  0  0  3  0  0  0  0  0  0
  190.2600  172.4640  138.0380 C   0  0  0  0  0  2  0  0  0  0  0  0
  190.9120  172.6820  140.4610 C   0  0  0  0  0  0  0  0  0  0  0  0
  190.1310  173.7300  135.8750 C   0  0  0  0  0  3  0  0  0  0  0  0
  190.2370  175.0180  135.3460 O   0  0  0  0  0  1  0  0  0  0  0  0
  191.3020  173.0240  135.6030 O   0  0  0  0  0  1  0  0  0  0  0  0
  195.6030  176.5580  144.3100 C   0  0  0  0  0  2  0  0  0  0  0  0
  197.5270  175.3120  143.6060 O   0  0  0  0  0  0  0  0  0  0  0  0
  196.6480  176.1630  143.3110 C   0  0  0  0  0  0  0  0  0  0  0  0
  196.5620  176.6780  142.0150 O   0  0  0  0  0  0  0  0  0  0  0  0
  196.8030  175.8890  140.8530 C   0  0  0  0  0  2  0  0  0  0  0  0
  194.3370  175.7730  140.3920 O   0  0  0  0  0  1  0  0  0  0  0  0
  195.4730  173.6430  140.8260 C   0  0  0  0  0  2  0  0  0  0  0  0
  195.5540  175.1100  140.4680 C   0  0  0  0  0  0  0  0  0  0  0  0
  195.7480  174.0750  139.3920 C   0  0  0  0  0  2  0  0  0  0  0  0
  1  5  1  6  0  0  0
  1 11  1  0  0  0  0
  2  5  1  0  0  0  0
  3 22  1  1  0  0  0
  3  1  1  0  0  0  0
  4  6  1  0  0  0  0
  4 39  1  1  0  0  0
  4  2  1  0  0  0  0
  6  3  1  0  0  0  0
  7 14  1  6  0  0  0
  7 10  1  0  0  0  0
  9 12  1  6  0  0  0
  9 11  1  0  0  0  0
  9 13  1  0  0  0  0
 10  8  1  0  0  0  0
 11 12  1  6  0  0  0
 11  8  1  0  0  0  0
 13  7  1  0  0  0  0
 15 16  1  6  0  0  0
 15 18  1  0  0  0  0
 15 17  1  0  0  0  0
 17 14  1  6  0  0  0
 18 17  1  0  0  0  0
 19 20  2  0  0  0  0
 20 15  1  0  0  0  0
 21 20  1  0  0  0  0
 23 22  1  0  0  0  0
 25 24  1  1  0  0  0
 25 23  1  0  0  0  0
 27 26  2  0  0  0  0
 27 25  1  0  0  0  0
 28 29  1  0  0  0  0
 28 35  1  0  0  0  0
 30 32  1  0  0  0  0
 31 35  2  0  0  0  0
 32 29  1  0  0  0  0
 33 36  1  6  0  0  0
 33 30  1  0  0  0  0
 33 34  1  0  0  0  0
 34 28  1  0  0  0  0
 35 27  1  0  0  0  0
 37 36  1  0  0  0  0
 38 36  1  0  0  0  0
 41 40  2  0  0  0  0
 41 39  1  0  0  0  0
 42 41  1  0  0  0  0
 43 42  1  0  0  0  0
 44 46  1  0  0  0  0
 46 45  1  0  0  0  0
 46 43  1  0  0  0  0
 47 46  1  0  0  0  0
 47 45  1  0  0  0  0
M  END
>  <MODEL>
6

>  <REMARK>
 VINA RESULT:      -6.6      2.624      3.805
  Name = 
  15 active torsions:
  status: ('A' for Active; 'I' for Inactive)
    1  A    between atoms: C_1  and  C_30
    2  A    between atoms: C_4  and  C_32
    3  A    between atoms: C_8  and  C_18
    4  A    between atoms: C_10  and  C_22
    5  A    between atoms: C_15  and  C_19
    6  A    between atoms: C_15  and  C_34
    7  A    between atoms: C_23  and  C_44
    8  A    between atoms: O_24  and  C_40
    9  A    between atoms: O_24  and  C_47
   10  A    between atoms: C_29  and  C_39
   11  A    between atoms: C_29  and  C_42
   12  A    between atoms: C_32  and  C_35
   13  A    between atoms: C_34  and  C_42
   14  A    between atoms: C_40  and  C_41
   15  A    between atoms: C_44  and  C_47
                            x       y       z     vdW  Elec       q    Type
                         _______ _______ _______ _____ _____    ______ ____

>  <TORSDO>
F 15

$$$$
=
 OpenBabel11042415303D

 47 52  0  0  1  0  0  0  0  0999 V2000
  191.6850  174.5730  144.5940 C   0  0  1  0  0  3  0  0  0  0  0  0
  191.3010  172.4040  144.3280 O   0  0  0  0  0  0  0  0  0  0  0  0
  192.6900  174.1550  145.6850 C   0  0  1  0  0  3  0  0  0  0  0  0
  192.6010  171.8940  144.5730 C   0  0  2  0  0  3  0  0  0  0  0  0
  191.4390  173.5400  143.6510 O   0  0  0  0  0  0  0  0  0  0  0  0
  193.5090  172.9670  145.1790 C   0  0  0  0  0  2  0  0  0  0  0  0
  188.2360  176.7070  146.5720 C   0  0  1  0  0  3  0  0  0  0  0  0
  190.0760  174.9130  146.6400 C   0  0  0  0  0  2  0  0  0  0  0  0
  189.9950  176.5520  144.6210 C   0  0  1  0  0  3  0  0  0  0  0  0
  188.6500  175.3000  147.0290 C   0  0  0  0  0  2  0  0  0  0  0  0
  190.3970  175.1830  145.1640 C   0  0  1  0  0  0  0  0  0  0  0  0
  189.2340  175.2970  144.1870 C   0  0  0  0  0  2  0  0  0  0  0  0
  189.2630  177.4130  145.6740 C   0  0  0  0  0  2  0  0  0  0  0  0
  186.8880  176.6600  145.8710 C   0  0  0  0  0  2  0  0  0  0  0  0
  185.7560  178.5290  144.5590 C   0  0  1  0  0  0  0  0  0  0  0  0
  185.6050  180.0340  144.4630 C   0  0  0  0  0  1  0  0  0  0  0  0
  186.1830  178.0120  145.9320 C   0  0  1  0  0  3  0  0  0  0  0  0
  184.7370  177.8650  145.4640 C   0  0  0  0  0  2  0  0  0  0  0  0
  187.3610  177.9660  142.7280 O   0  0  0  0  0  0  0  0  0  0  0  0
  186.1210  177.7650  143.3180 C   0  0  0  0  0  0  0  0  0  0  0  0
  185.3120  176.9470  142.8040 O   0  0  0  0  0  1  0  0  0  0  0  0
  193.6340  175.3040  146.0020 C   0  0  0  0  0  2  0  0  0  0  0  0
  195.1040  174.8800  145.9780 C   0  0  0  0  0  2  0  0  0  0  0  0
  195.1440  176.5370  144.2440 O   0  0  0  0  0  1  0  0  0  0  0  0
  195.9490  175.6290  144.9420 C   0  0  2  0  0  3  0  0  0  0  0  0
  197.2200  173.6120  144.4490 C   0  0  0  0  0  2  0  0  0  0  0  0
  196.6590  174.7190  143.9830 C   0  0  0  0  0  0  0  0  0  0  0  0
  196.0050  174.3310  141.5860 N   0  0  0  0  0  0  0  0  0  0  0  0
  194.5540  174.3380  141.7290 C   0  0  0  0  0  2  0  0  0  0  0  0
  194.4280  174.9690  139.3270 C   0  0  0  0  0  2  0  0  0  0  0  0
  197.5970  175.9460  142.1710 O   0  0  0  0  0  0  0  0  0  0  0  0
  193.9780  175.3430  140.7390 C   0  0  0  0  0  2  0  0  0  0  0  0
  195.9610  174.9570  139.2250 C   0  0  1  0  0  3  0  0  0  0  0  0
  196.5420  173.9980  140.2710 C   0  0  0  0  0  2  0  0  0  0  0  0
  196.7940  175.0410  142.5490 C   0  0  0  0  0  0  0  0  0  0  0  0
  196.3980  174.5360  137.8240 C   0  0  0  0  0  3  0  0  0  0  0  0
  195.3110  174.0020  137.1270 O   0  0  0  0  0  1  0  0  0  0  0  0
  196.8930  175.6380  137.1270 O   0  0  0  0  0  1  0  0  0  0  0  0
  193.2400  171.3450  143.2960 C   0  0  0  0  0  2  0  0  0  0  0  0
  192.5550  169.0680  143.6110 O   0  0  0  0  0  0  0  0  0  0  0  0
  192.6260  170.0570  142.8360 C   0  0  0  0  0  0  0  0  0  0  0  0
  192.0400  170.0120  141.5680 O   0  0  0  0  0  0  0  0  0  0  0  0
  191.3300  171.1130  141.0060 C   0  0  0  0  0  2  0  0  0  0  0  0
  190.8180  170.2470  138.7050 O   0  0  0  0  0  1  0  0  0  0  0  0
  192.8370  171.6200  138.9370 C   0  0  0  0  0  2  0  0  0  0  0  0
  191.5130  171.1520  139.4960 C   0  0  0  0  0  0  0  0  0  0  0  0
  191.6150  172.5290  138.8960 C   0  0  0  0  0  2  0  0  0  0  0  0
  1  5  1  1  0  0  0
  1 11  1  0  0  0  0
  1  3  1  0  0  0  0
  2  4  1  0  0  0  0
  3 22  1  6  0  0  0
  4 39  1  6  0  0  0
  4  6  1  0  0  0  0
  5  2  1  0  0  0  0
  6  3  1  0  0  0  0
  7 14  1  6  0  0  0
  7 10  1  0  0  0  0
  8 10  1  0  0  0  0
  9 12  1  6  0  0  0
  9 11  1  0  0  0  0
  9 13  1  0  0  0  0
 11 12  1  6  0  0  0
 11  8  1  0  0  0  0
 13  7  1  0  0  0  0
 15 16  1  6  0  0  0
 15 18  1  0  0  0  0
 15 17  1  0  0  0  0
 17 14  1  6  0  0  0
 18 17  1  0  0  0  0
 19 20  2  0  0  0  0
 20 15  1  0  0  0  0
 21 20  1  0  0  0  0
 23 22  1  0  0  0  0
 25 24  1  6  0  0  0
 25 23  1  0  0  0  0
 27 26  2  0  0  0  0
 27 25  1  0  0  0  0
 28 29  1  0  0  0  0
 28 35  1  0  0  0  0
 30 32  1  0  0  0  0
 31 35  2  0  0  0  0
 32 29  1  0  0  0  0
 33 36  1  6  0  0  0
 33 30  1  0  0  0  0
 33 34  1  0  0  0  0
 34 28  1  0  0  0  0
 35 27  1  0  0  0  0
 37 36  1  0  0  0  0
 38 36  1  0  0  0  0
 41 39  1  0  0  0  0
 41 40  2  0  0  0  0
 42 41  1  0  0  0  0
 43 42  1  0  0  0  0
 44 46  1  0  0  0  0
 45 46  1  0  0  0  0
 46 43  1  0  0  0  0
 47 45  1  0  0  0  0
 47 46  1  0  0  0  0
M  END
>  <MODEL>
7

>  <REMARK>
 VINA RESULT:      -6.6      2.935      5.904
  Name = 
  15 active torsions:
  status: ('A' for Active; 'I' for Inactive)
    1  A    between atoms: C_1  and  C_30
    2  A    between atoms: C_4  and  C_32
    3  A    between atoms: C_8  and  C_18
    4  A    between atoms: C_10  and  C_22
    5  A    between atoms: C_15  and  C_19
    6  A    between atoms: C_15  and  C_34
    7  A    between atoms: C_23  and  C_44
    8  A    between atoms: O_24  and  C_40
    9  A    between atoms: O_24  and  C_47
   10  A    between atoms: C_29  and  C_39
   11  A    between atoms: C_29  and  C_42
   12  A    between atoms: C_32  and  C_35
   13  A    between atoms: C_34  and  C_42
   14  A    between atoms: C_40  and  C_41
   15  A    between atoms: C_44  and  C_47
                            x       y       z     vdW  Elec       q    Type
                         _______ _______ _______ _____ _____    ______ ____

>  <TORSDO>
F 15

$$$$
=
 OpenBabel11042415303D

 47 52  0  0  1  0  0  0  0  0999 V2000
  191.4830  175.1520  145.4450 C   0  0  1  0  0  3  0  0  0  0  0  0
  193.3800  176.2320  145.0480 O   0  0  0  0  0  0  0  0  0  0  0  0
  191.9880  174.1060  144.4320 C   0  0  1  0  0  3  0  0  0  0  0  0
  194.2520  175.1300  144.8550 C   0  0  2  0  0  3  0  0  0  0  0  0
  192.5370  175.9070  146.0230 O   0  0  0  0  0  0  0  0  0  0  0  0
  193.4670  173.8260  144.7010 C   0  0  0  0  0  2  0  0  0  0  0  0
  188.0400  177.2970  143.4670 C   0  0  1  0  0  3  0  0  0  0  0  0
  190.5070  176.5710  143.4640 C   0  0  0  0  0  2  0  0  0  0  0  0
  188.9340  175.6650  145.3290 C   0  0  1  0  0  3  0  0  0  0  0  0
  189.4920  177.6590  143.1170 C   0  0  0  0  0  2  0  0  0  0  0  0
  190.3510  176.0280  144.8910 C   0  0  1  0  0  0  0  0  0  0  0  0
  189.6300  176.8970  145.9130 C   0  0  0  0  0  2  0  0  0  0  0  0
  187.8820  175.9800  144.2430 C   0  0  0  0  0  2  0  0  0  0  0  0
  187.3840  178.4290  144.2390 C   0  0  0  0  0  2  0  0  0  0  0  0
  184.8740  178.8110  144.4640 C   0  0  1  0  0  0  0  0  0  0  0  0
  183.5500  178.6830  143.7360 C   0  0  0  0  0  1  0  0  0  0  0  0
  186.1000  178.8940  143.5570 C   0  0  1  0  0  3  0  0  0  0  0  0
  185.5650  180.1430  144.2550 C   0  0  0  0  0  2  0  0  0  0  0  0
  185.2470  179.0540  146.9240 O   0  0  0  0  0  1  0  0  0  0  0  0
  184.9920  178.2230  145.8410 C   0  0  0  0  0  0  0  0  0  0  0  0
  184.8660  176.9820  146.0250 O   0  0  0  0  0  0  0  0  0  0  0  0
  191.2070  172.8090  144.5780 C   0  0  0  0  0  2  0  0  0  0  0  0
  190.7050  172.2710  143.2370 C   0  0  0  0  0  2  0  0  0  0  0  0
  188.3510  172.0060  142.8600 O   0  0  0  0  0  1  0  0  0  0  0  0
  189.4040  172.9220  142.7550 C   0  0  2  0  0  3  0  0  0  0  0  0
  188.7480  174.5080  141.0270 C   0  0  0  0  0  2  0  0  0  0  0  0
  189.4900  173.4580  141.3560 C   0  0  0  0  0  0  0  0  0  0  0  0
  191.4510  173.5470  139.7840 N   0  0  0  0  0  0  0  0  0  0  0  0
  192.4700  174.0450  140.7000 C   0  0  0  0  0  2  0  0  0  0  0  0
  194.1670  173.0190  139.1990 C   0  0  0  0  0  2  0  0  0  0  0  0
  190.0810  171.6520  139.9210 O   0  0  0  0  0  0  0  0  0  0  0  0
  193.6690  173.1070  140.6410 C   0  0  0  0  0  2  0  0  0  0  0  0
  193.0590  172.5070  138.2670 C   0  0  1  0  0  3  0  0  0  0  0  0
  191.8260  173.4120  138.3800 C   0  0  0  0  0  2  0  0  0  0  0  0
  190.3350  172.8270  140.3230 C   0  0  0  0  0  0  0  0  0  0  0  0
  193.5530  172.4690  136.8230 C   0  0  0  0  0  3  0  0  0  0  0  0
  192.5660  171.9260  135.9960 O   0  0  0  0  0  1  0  0  0  0  0  0
  193.8580  173.7580  136.3880 O   0  0  0  0  0  1  0  0  0  0  0  0
  195.2490  174.9940  146.0080 C   0  0  0  0  0  2  0  0  0  0  0  0
  196.6110  173.0260  146.1700 O   0  0  0  0  0  0  0  0  0  0  0  0
  196.4470  174.1640  145.6570 C   0  0  0  0  0  0  0  0  0  0  0  0
  197.3190  174.6340  144.6720 O   0  0  0  0  0  0  0  0  0  0  0  0
  197.1120  174.3960  143.2820 C   0  0  0  0  0  2  0  0  0  0  0  0
  197.3810  176.8890  143.1430 O   0  0  0  0  0  1  0  0  0  0  0  0
  195.8770  175.8550  141.5060 C   0  0  0  0  0  2  0  0  0  0  0  0
  196.9820  175.7120  142.5280 C   0  0  0  0  0  0  0  0  0  0  0  0
  197.3190  175.6480  141.0620 C   0  0  0  0  0  2  0  0  0  0  0  0
  1  5  1  6  0  0  0
  2  5  1  0  0  0  0
  3 22  1  1  0  0  0
  3  6  1  0  0  0  0
  3  1  1  0  0  0  0
  4  2  1  0  0  0  0
  4 39  1  1  0  0  0
  6  4  1  0  0  0  0
  7 14  1  1  0  0  0
  7 13  1  0  0  0  0
  9 13  1  6  0  0  0
  9 12  1  0  0  0  0
 10  8  1  0  0  0  0
 10  7  1  0  0  0  0
 11  8  1  6  0  0  0
 11  9  1  0  0  0  0
 11  1  1  0  0  0  0
 11 12  1  0  0  0  0
 15 16  1  6  0  0  0
 15 20  1  0  0  0  0
 17 14  1  1  0  0  0
 17 18  1  0  0  0  0
 17 15  1  0  0  0  0
 18 15  1  0  0  0  0
 20 21  2  0  0  0  0
 20 19  1  0  0  0  0
 23 22  1  0  0  0  0
 25 24  1  6  0  0  0
 25 23  1  0  0  0  0
 26 27  2  0  0  0  0
 27 25  1  0  0  0  0
 28 35  1  0  0  0  0
 28 29  1  0  0  0  0
 30 32  1  0  0  0  0
 31 35  2  0  0  0  0
 32 29  1  0  0  0  0
 33 36  1  6  0  0  0
 33 34  1  0  0  0  0
 33 30  1  0  0  0  0
 34 28  1  0  0  0  0
 35 27  1  0  0  0  0
 37 36  1  0  0  0  0
 38 36  1  0  0  0  0
 41 39  1  0  0  0  0
 41 40  2  0  0  0  0
 42 41  1  0  0  0  0
 43 42  1  0  0  0  0
 45 46  1  0  0  0  0
 46 44  1  0  0  0  0
 46 43  1  0  0  0  0
 47 45  1  0  0  0  0
 47 46  1  0  0  0  0
M  END
>  <MODEL>
8

>  <REMARK>
 VINA RESULT:      -6.6      2.416      4.361
  Name = 
  15 active torsions:
  status: ('A' for Active; 'I' for Inactive)
    1  A    between atoms: C_1  and  C_30
    2  A    between atoms: C_4  and  C_32
    3  A    between atoms: C_8  and  C_18
    4  A    between atoms: C_10  and  C_22
    5  A    between atoms: C_15  and  C_19
    6  A    between atoms: C_15  and  C_34
    7  A    between atoms: C_23  and  C_44
    8  A    between atoms: O_24  and  C_40
    9  A    between atoms: O_24  and  C_47
   10  A    between atoms: C_29  and  C_39
   11  A    between atoms: C_29  and  C_42
   12  A    between atoms: C_32  and  C_35
   13  A    between atoms: C_34  and  C_42
   14  A    between atoms: C_40  and  C_41
   15  A    between atoms: C_44  and  C_47
                            x       y       z     vdW  Elec       q    Type
                         _______ _______ _______ _____ _____    ______ ____

>  <TORSDO>
F 15

$$$$
=
 OpenBabel11042415303D

 47 52  0  0  1  0  0  0  0  0999 V2000
  190.4730  176.4930  144.8540 C   0  0  1  0  0  3  0  0  0  0  0  0
  189.6040  177.4420  146.6620 O   0  0  0  0  0  0  0  0  0  0  0  0
  189.5300  175.3100  145.1490 C   0  0  1  0  0  3  0  0  0  0  0  0
  188.2700  176.9700  146.5680 C   0  0  2  0  0  3  0  0  0  0  0  0
  190.0200  177.7100  145.4280 O   0  0  0  0  0  0  0  0  0  0  0  0
  188.1510  175.8540  145.5280 C   0  0  0  0  0  2  0  0  0  0  0  0
  194.5940  175.1710  146.1290 C   0  0  1  0  0  3  0  0  0  0  0  0
  192.4290  176.4730  146.6040 C   0  0  0  0  0  2  0  0  0  0  0  0
  192.5520  174.9720  144.4820 C   0  0  1  0  0  3  0  0  0  0  0  0
  193.9490  176.4220  146.7450 C   0  0  0  0  0  2  0  0  0  0  0  0
  191.9410  176.1870  145.1780 C   0  0  1  0  0  0  0  0  0  0  0  0
  192.9240  176.3870  144.0310 C   0  0  0  0  0  2  0  0  0  0  0  0
  193.6230  174.2730  145.3470 C   0  0  0  0  0  2  0  0  0  0  0  0
  195.7620  175.5620  145.2390 C   0  0  0  0  0  2  0  0  0  0  0  0
  196.6530  174.8780  142.9510 C   0  0  1  0  0  0  0  0  0  0  0  0
  196.5120  173.8530  141.8430 C   0  0  0  0  0  1  0  0  0  0  0  0
  196.1710  174.4110  144.3230 C   0  0  1  0  0  3  0  0  0  0  0  0
  197.6640  174.5000  144.0140 C   0  0  0  0  0  2  0  0  0  0  0  0
  195.7080  176.7710  141.6180 O   0  0  0  0  0  0  0  0  0  0  0  0
  196.6020  176.3350  142.5880 C   0  0  0  0  0  0  0  0  0  0  0  0
  197.3630  177.1660  143.1520 O   0  0  0  0  0  1  0  0  0  0  0  0
  189.3890  174.4270  143.9200 C   0  0  0  0  0  2  0  0  0  0  0  0
  189.4460  175.2230  142.6150 C   0  0  0  0  0  2  0  0  0  0  0  0
  187.2690  174.2700  142.2890 O   0  0  0  0  0  1  0  0  0  0  0  0
  188.3480  174.8520  141.6130 C   0  0  2  0  0  3  0  0  0  0  0  0
  188.4700  174.2120  139.2660 C   0  0  0  0  0  2  0  0  0  0  0  0
  188.8250  173.9450  140.5160 C   0  0  0  0  0  0  0  0  0  0  0  0
  190.8980  172.5740  140.1310 N   0  0  0  0  0  0  0  0  0  0  0  0
  191.9060  173.6170  140.2760 C   0  0  0  0  0  2  0  0  0  0  0  0
  193.5250  171.8210  140.8560 C   0  0  0  0  0  2  0  0  0  0  0  0
  189.2220  171.8660  141.6060 O   0  0  0  0  0  0  0  0  0  0  0  0
  192.9310  173.1560  141.3050 C   0  0  0  0  0  2  0  0  0  0  0  0
  192.4290  170.7570  140.7000 C   0  0  1  0  0  3  0  0  0  0  0  0
  191.3610  171.2530  139.7170 C   0  0  0  0  0  2  0  0  0  0  0  0
  189.6350  172.7420  140.7890 C   0  0  0  0  0  0  0  0  0  0  0  0
  193.0290  169.4430  140.2060 C   0  0  0  0  0  3  0  0  0  0  0  0
  193.7300  169.6570  139.0160 O   0  0  0  0  0  1  0  0  0  0  0  0
  193.8990  168.9250  141.1640 O   0  0  0  0  0  1  0  0  0  0  0  0
  187.2980  178.1000  146.2200 C   0  0  0  0  0  2  0  0  0  0  0  0
  185.6440  177.8140  147.9330 O   0  0  0  0  0  0  0  0  0  0  0  0
  185.9020  177.8450  146.7010 C   0  0  0  0  0  0  0  0  0  0  0  0
  184.8760  177.7510  145.7570 O   0  0  0  0  0  0  0  0  0  0  0  0
  184.5720  178.7990  144.8400 C   0  0  0  0  0  2  0  0  0  0  0  0
  183.3970  178.2740  142.6830 O   0  0  0  0  0  1  0  0  0  0  0  0
  185.5750  177.2040  143.0340 C   0  0  0  0  0  2  0  0  0  0  0  0
  184.5790  178.2770  143.4100 C   0  0  0  0  0  0  0  0  0  0  0  0
  185.7900  178.6470  142.5970 C   0  0  0  0  0  2  0  0  0  0  0  0
  1  3  1  0  0  0  0
  1 11  1  0  0  0  0
  1  5  1  1  0  0  0
  3 22  1  6  0  0  0
  3  6  1  0  0  0  0
  4 39  1  6  0  0  0
  4  2  1  0  0  0  0
  5  2  1  0  0  0  0
  6  4  1  0  0  0  0
  7 14  1  6  0  0  0
  7 10  1  0  0  0  0
  8 10  1  0  0  0  0
  9 12  1  6  0  0  0
  9 11  1  0  0  0  0
  9 13  1  0  0  0  0
 11 12  1  6  0  0  0
 11  8  1  0  0  0  0
 13  7  1  0  0  0  0
 15 16  1  6  0  0  0
 15 18  1  0  0  0  0
 15 17  1  0  0  0  0
 17 14  1  1  0  0  0
 18 17  1  0  0  0  0
 19 20  2  0  0  0  0
 20 15  1  0  0  0  0
 20 21  1  0  0  0  0
 23 22  1  0  0  0  0
 25 24  1  1  0  0  0
 25 23  1  0  0  0  0
 26 27  2  0  0  0  0
 27 35  1  0  0  0  0
 27 25  1  0  0  0  0
 28 29  1  0  0  0  0
 28 35  1  0  0  0  0
 29 32  1  0  0  0  0
 30 32  1  0  0  0  0
 33 36  1  6  0  0  0
 33 30  1  0  0  0  0
 34 28  1  0  0  0  0
 34 33  1  0  0  0  0
 35 31  2  0  0  0  0
 36 38  1  0  0  0  0
 37 36  1  0  0  0  0
 39 41  1  0  0  0  0
 41 40  2  0  0  0  0
 42 41  1  0  0  0  0
 43 42  1  0  0  0  0
 44 46  1  0  0  0  0
 45 46  1  0  0  0  0
 46 43  1  0  0  0  0
 47 45  1  0  0  0  0
 47 46  1  0  0  0  0
M  END
>  <MODEL>
9

>  <REMARK>
 VINA RESULT:      -6.5      2.530      8.803
  Name = 
  15 active torsions:
  status: ('A' for Active; 'I' for Inactive)
    1  A    between atoms: C_1  and  C_30
    2  A    between atoms: C_4  and  C_32
    3  A    between atoms: C_8  and  C_18
    4  A    between atoms: C_10  and  C_22
    5  A    between atoms: C_15  and  C_19
    6  A    between atoms: C_15  and  C_34
    7  A    between atoms: C_23  and  C_44
    8  A    between atoms: O_24  and  C_40
    9  A    between atoms: O_24  and  C_47
   10  A    between atoms: C_29  and  C_39
   11  A    between atoms: C_29  and  C_42
   12  A    between atoms: C_32  and  C_35
   13  A    between atoms: C_34  and  C_42
   14  A    between atoms: C_40  and  C_41
   15  A    between atoms: C_44  and  C_47
                            x       y       z     vdW  Elec       q    Type
                         _______ _______ _______ _____ _____    ______ ____

>  <TORSDO>
F 15

$$$$
