=
 OpenBabel11042415433D

 59 64  0  0  1  0  0  0  0  0999 V2000
  191.8940  177.6190  143.7350 C   0  0  0  0  0  3  0  0  0  0  0  0
  189.8690  176.1890  142.4040 C   0  0  0  0  0  0  0  0  0  0  0  0
  188.4410  178.1640  142.5750 C   0  0  0  0  0  3  0  0  0  0  0  0
  192.1160  176.2870  143.3680 C   0  0  0  0  0  0  0  0  0  0  0  0
  187.6080  176.1650  141.5130 C   0  0  0  0  0  3  0  0  0  0  0  0
  191.0980  175.5770  142.7070 C   0  0  0  0  0  3  0  0  0  0  0  0
  189.6610  177.5330  142.8120 C   0  0  0  0  0  0  0  0  0  0  0  0
  187.4070  177.4810  141.9370 C   0  0  0  0  0  0  0  0  0  0  0  0
  190.6750  178.2380  143.4610 C   0  0  0  0  0  3  0  0  0  0  0  0
  188.8240  175.5070  141.7270 C   0  0  0  0  0  0  0  0  0  0  0  0
  195.8570  173.5450  141.2940 C   0  0  0  0  0  3  0  0  0  0  0  0
  194.0510  176.3160  144.9780 C   0  0  0  0  0  2  0  0  0  0  0  0
  197.4690  175.5240  142.4310 C   0  0  0  0  0  3  0  0  0  0  0  0
  195.5460  174.0410  142.5640 C   0  0  0  0  0  0  0  0  0  0  0  0
  193.4820  174.1710  143.8530 C   0  0  0  0  0  0  0  0  0  0  0  0
  194.4240  173.4850  143.2670 N   0  0  0  0  0  0  0  0  0  0  0  0
  195.4480  176.6610  144.7320 N   0  0  0  0  0  2  0  0  0  0  0  0
  196.1560  175.4740  144.4860 N   0  0  0  0  0  2  0  0  0  0  0  0
  197.7510  175.0430  141.1510 C   0  0  0  0  0  3  0  0  0  0  0  0
  193.4360  175.6720  143.7430 C   0  0  1  0  0  3  0  0  0  0  0  0
  196.3760  175.0240  143.1480 C   0  0  0  0  0  0  0  0  0  0  0  0
  196.9500  174.0480  140.5840 C   0  0  0  0  0  3  0  0  0  0  0  0
  192.5320  173.5180  144.6410 O   0  0  0  0  0  0  0  0  0  0  0  0
  191.9370  172.2940  144.2440 C   0  0  0  0  0  1  0  0  0  0  0  0
  188.8450  173.8000  139.9100 C   0  0  0  0  0  3  0  0  0  0  0  0
  188.8980  174.1330  141.1910 C   0  0  0  0  0  3  0  0  0  0  0  0
  189.8320  171.6150  140.0580 C   0  0  0  0  0  0  0  0  0  0  0  0
  190.7550  170.8400  140.5560 C   0  0  0  0  0  3  0  0  0  0  0  0
  188.9120  172.3870  139.5520 C   0  0  0  0  0  3  0  0  0  0  0  0
  191.5390  169.9390  139.6650 C   0  0  2  0  0  3  0  0  0  0  0  0
  193.2870  168.3840  140.1290 O   0  0  0  0  0  0  0  0  0  0  0  0
  192.8330  169.5430  140.3090 C   0  0  0  0  0  0  0  0  0  0  0  0
  193.5280  170.4360  141.1150 O   0  0  0  0  0  1  0  0  0  0  0  0
  191.6880  170.5260  138.2500 C   0  0  2  0  0  3  0  0  0  0  0  0
  191.0080  169.6760  137.2250 C   0  0  0  0  0  0  0  0  0  0  0  0
  190.2010  168.7710  137.5690 O   0  0  0  0  0  1  0  0  0  0  0  0
  191.2690  169.8880  135.8790 O   0  0  0  0  0  0  0  0  0  0  0  0
  193.1300  170.8300  137.8380 C   0  0  0  0  0  2  0  0  0  0  0  0
  194.7180  172.7740  137.8100 C   0  0  0  0  0  1  0  0  0  0  0  0
  193.3090  172.2980  137.4710 C   0  0  2  0  0  3  0  0  0  0  0  0
  191.6360  174.1440  137.1370 C   0  0  0  0  0  1  0  0  0  0  0  0
  192.2260  173.1600  138.1300 C   0  0  0  0  0  3  0  0  0  0  0  0
  192.7270  173.9020  139.3600 C   0  0  0  0  0  1  0  0  0  0  0  0
  186.1140  178.1900  141.6780 C   0  0  1  0  0  3  0  0  0  0  0  0
  186.4490  177.8320  139.4420 O   0  0  0  0  0  0  0  0  0  0  0  0
  185.6620  177.9380  140.3320 N   0  0  0  0  0  0  0  0  0  0  0  0
  184.8380  177.6620  142.8670 S   0  0  0  0  0  0  0  0  0  0  0  0
  184.9160  179.2190  143.8080 C   0  0  0  0  0  2  0  0  0  0  0  0
  185.1990  178.9640  145.2840 C   0  0  0  0  0  2  0  0  0  0  0  0
  186.5050  178.3300  145.4660 N   0  0  0  0  0  2  0  0  0  0  0  0
  185.2180  176.8430  146.7730 O   0  0  0  0  0  1  0  0  0  0  0  0
  186.3640  176.9650  145.9820 C   0  0  2  0  0  3  0  0  0  0  0  0
  191.0000  176.4820  147.1750 C   0  0  0  0  0  3  0  0  0  0  0  0
  189.8420  177.4190  147.3560 C   0  0  0  0  0  2  0  0  0  0  0  0
  189.3520  174.7530  146.6180 C   0  0  0  0  0  2  0  0  0  0  0  0
  187.6000  176.5190  146.7510 C   0  0  2  0  0  3  0  0  0  0  0  0
  190.7670  175.2140  146.8240 C   0  0  0  0  0  3  0  0  0  0  0  0
  188.8180  177.2540  146.2240 C   0  0  2  0  0  3  0  0  0  0  0  0
  188.5470  175.7890  145.8180 C   0  0  1  0  0  3  0  0  0  0  0  0
  2  6  2  0  0  0  0
  2  7  1  0  0  0  0
  3  7  1  0  0  0  0
  4  1  2  0  0  0  0
  5 10  2  0  0  0  0
  5  8  1  0  0  0  0
  6  4  1  0  0  0  0
  7  9  2  0  0  0  0
  8  3  2  0  0  0  0
  9  1  1  0  0  0  0
 10  2  1  0  0  0  0
 11 14  1  0  0  0  0
 13 21  1  0  0  0  0
 14 21  2  0  0  0  0
 14 16  1  0  0  0  0
 15 23  1  0  0  0  0
 16 15  2  0  0  0  0
 17 12  1  0  0  0  0
 18 17  1  0  0  0  0
 19 13  2  0  0  0  0
 20  4  1  1  0  0  0
 20 15  1  0  0  0  0
 20 12  1  0  0  0  0
 21 18  1  0  0  0  0
 22 19  1  0  0  0  0
 22 11  2  0  0  0  0
 24 23  1  0  0  0  0
 25 26  2  0  0  0  0
 26 10  1  0  0  0  0
 27 28  2  0  0  0  0
 29 25  1  0  0  0  0
 29 27  2  0  0  0  0
 30 32  1  0  0  0  0
 30 28  1  1  0  0  0
 31 32  2  0  0  0  0
 32 33  1  0  0  0  0
 34 38  1  6  0  0  0
 34 30  1  0  0  0  0
 35 36  1  0  0  0  0
 35 34  1  0  0  0  0
 37 35  2  0  0  0  0
 40 39  1  1  0  0  0
 40 38  1  0  0  0  0
 40 42  1  0  0  0  0
 41 42  1  0  0  0  0
 42 43  1  0  0  0  0
 44 46  1  6  0  0  0
 44  8  1  0  0  0  0
 44 47  1  0  0  0  0
 45 46  2  0  0  0  0
 47 48  1  0  0  0  0
 48 49  1  0  0  0  0
 49 50  1  0  0  0  0
 50 52  1  0  0  0  0
 52 51  1  1  0  0  0
 53 54  1  0  0  0  0
 55 57  1  0  0  0  0
 56 52  1  6  0  0  0
 57 53  2  0  0  0  0
 58 56  1  0  0  0  0
 58 54  1  1  0  0  0
 59 58  1  0  0  0  0
 59 55  1  1  0  0  0
 59 56  1  0  0  0  0
M  END
>  <MODEL>
1

>  <REMARK>
 VINA RESULT:      -7.2      0.000      0.000
  Name = 
  19 active torsions:
  status: ('A' for Active; 'I' for Inactive)
    1  A    between atoms: C_4  and  C_53
    2  A    between atoms: C_6  and  C_37
    3  A    between atoms: N_8  and  C_43
    4  A    between atoms: N_8  and  C_58
    5  A    between atoms: C_9  and  C_32
    6  A    between atoms: C_9  and  C_53
    7  A    between atoms: C_14  and  O_18
    8  A    between atoms: C_16  and  C_46
    9  A    between atoms: C_17  and  C_54
   10  A    between atoms: S_21  and  C_28
   11  A    between atoms: S_21  and  C_31
   12  A    between atoms: C_27  and  C_58
   13  A    between atoms: C_28  and  C_35
   14  A    between atoms: C_28  and  N_36
   15  A    between atoms: C_31  and  C_43
   16  A    between atoms: C_32  and  C_52
   17  A    between atoms: C_34  and  C_37
   18  A    between atoms: C_37  and  C_53
   19  A    between atoms: C_42  and  C_59
                            x       y       z     vdW  Elec       q    Type
                         _______ _______ _______ _____ _____    ______ ____

>  <TORSDO>
F 19

$$$$
=
 OpenBabel11042415433D

 59 64  0  0  1  0  0  0  0  0999 V2000
  187.8540  175.0490  141.7290 C   0  0  0  0  0  3  0  0  0  0  0  0
  189.9070  173.1710  141.3150 C   0  0  0  0  0  0  0  0  0  0  0  0
  188.7500  172.4360  139.2920 C   0  0  0  0  0  3  0  0  0  0  0  0
  188.8960  174.9490  142.6570 C   0  0  0  0  0  0  0  0  0  0  0  0
  190.8190  171.3820  139.9460 C   0  0  0  0  0  3  0  0  0  0  0  0
  189.9160  174.0050  142.4470 C   0  0  0  0  0  3  0  0  0  0  0  0
  188.8240  173.2760  140.4020 C   0  0  0  0  0  0  0  0  0  0  0  0
  189.7370  171.4790  139.0660 C   0  0  0  0  0  0  0  0  0  0  0  0
  187.8160  174.2170  140.6110 C   0  0  0  0  0  3  0  0  0  0  0  0
  190.9280  172.2160  141.0630 C   0  0  0  0  0  0  0  0  0  0  0  0
  185.9060  178.4900  144.7400 C   0  0  0  0  0  3  0  0  0  0  0  0
  189.7170  175.3410  145.0040 C   0  0  0  0  0  2  0  0  0  0  0  0
  186.2210  176.9150  147.0270 C   0  0  0  0  0  3  0  0  0  0  0  0
  187.1530  177.9220  145.0190 C   0  0  0  0  0  0  0  0  0  0  0  0
  189.0650  177.3140  143.6350 C   0  0  0  0  0  0  0  0  0  0  0  0
  188.2520  178.2020  144.1380 N   0  0  0  0  0  0  0  0  0  0  0  0
  188.9680  175.3250  146.2570 N   0  0  0  0  0  2  0  0  0  0  0  0
  188.6000  176.6430  146.5650 N   0  0  0  0  0  2  0  0  0  0  0  0
  184.9730  177.4620  146.7210 C   0  0  0  0  0  3  0  0  0  0  0  0
  188.8400  175.8430  143.8660 C   0  0  1  0  0  3  0  0  0  0  0  0
  187.3170  177.1470  146.1880 C   0  0  0  0  0  0  0  0  0  0  0  0
  184.8160  178.2550  145.5820 C   0  0  0  0  0  3  0  0  0  0  0  0
  190.1920  177.7260  142.9210 O   0  0  0  0  0  0  0  0  0  0  0  0
  191.2480  178.4480  143.5320 C   0  0  0  0  0  1  0  0  0  0  0  0
  192.3400  171.0350  142.7460 C   0  0  0  0  0  3  0  0  0  0  0  0
  192.1430  172.0180  141.8790 C   0  0  0  0  0  3  0  0  0  0  0  0
  193.9550  172.0030  144.2370 C   0  0  0  0  0  0  0  0  0  0  0  0
  194.3220  173.0070  144.9840 C   0  0  0  0  0  3  0  0  0  0  0  0
  193.5960  171.0000  143.4870 C   0  0  0  0  0  3  0  0  0  0  0  0
  195.7060  173.5510  144.8820 C   0  0  2  0  0  3  0  0  0  0  0  0
  197.2310  173.7170  146.7080 O   0  0  0  0  0  1  0  0  0  0  0  0
  196.5920  172.9580  145.9350 C   0  0  0  0  0  0  0  0  0  0  0  0
  196.7270  171.5810  146.0570 O   0  0  0  0  0  0  0  0  0  0  0  0
  195.7110  175.0900  144.8390 C   0  0  2  0  0  3  0  0  0  0  0  0
  194.5190  175.6650  145.5340 C   0  0  0  0  0  0  0  0  0  0  0  0
  194.5210  175.8390  146.7820 O   0  0  0  0  0  1  0  0  0  0  0  0
  193.3980  176.0130  144.7940 O   0  0  0  0  0  0  0  0  0  0  0  0
  195.8660  175.6850  143.4380 C   0  0  0  0  0  2  0  0  0  0  0  0
  197.9410  175.3160  142.0730 C   0  0  0  0  0  1  0  0  0  0  0  0
  196.5990  174.7300  142.5030 C   0  0  2  0  0  3  0  0  0  0  0  0
  194.3230  174.9350  141.4590 C   0  0  0  0  0  1  0  0  0  0  0  0
  195.7160  174.3530  141.3090 C   0  0  0  0  0  3  0  0  0  0  0  0
  195.6290  172.8490  141.0890 C   0  0  0  0  0  1  0  0  0  0  0  0
  189.6430  170.6040  137.8550 C   0  0  1  0  0  3  0  0  0  0  0  0
  189.2680  171.8870  135.9970 O   0  0  0  0  0  0  0  0  0  0  0  0
  190.0670  171.3220  136.6790 N   0  0  0  0  0  0  0  0  0  0  0  0
  190.6550  169.1040  138.0620 S   0  0  0  0  0  0  0  0  0  0  0  0
  191.6670  169.4500  136.5880 C   0  0  0  0  0  2  0  0  0  0  0  0
  193.0410  168.7970  136.6890 C   0  0  0  0  0  2  0  0  0  0  0  0
  194.0300  169.5340  135.9030 N   0  0  0  0  0  2  0  0  0  0  0  0
  194.7840  170.0030  138.0920 O   0  0  0  0  0  1  0  0  0  0  0  0
  194.8370  170.4120  136.7560 C   0  0  2  0  0  3  0  0  0  0  0  0
  194.6250  175.1360  137.6430 C   0  0  0  0  0  3  0  0  0  0  0  0
  195.4420  174.1270  136.8890 C   0  0  0  0  0  2  0  0  0  0  0  0
  192.8280  173.4670  137.6790 C   0  0  0  0  0  2  0  0  0  0  0  0
  194.4220  171.8710  136.6230 C   0  0  2  0  0  3  0  0  0  0  0  0
  193.3820  174.8220  138.0190 C   0  0  0  0  0  3  0  0  0  0  0  0
  195.3030  172.7300  137.5110 C   0  0  2  0  0  3  0  0  0  0  0  0
  193.8660  172.3660  137.9440 C   0  0  1  0  0  3  0  0  0  0  0  0
  1  4  1  0  0  0  0
  2  6  1  0  0  0  0
  3  7  1  0  0  0  0
  5 10  2  0  0  0  0
  6  4  2  0  0  0  0
  7  9  1  0  0  0  0
  7  2  2  0  0  0  0
  8  3  2  0  0  0  0
  8  5  1  0  0  0  0
  9  1  2  0  0  0  0
 10  2  1  0  0  0  0
 10 26  1  0  0  0  0
 11 14  2  0  0  0  0
 11 22  1  0  0  0  0
 12 17  1  0  0  0  0
 14 21  1  0  0  0  0
 15 20  1  0  0  0  0
 15 16  2  0  0  0  0
 16 14  1  0  0  0  0
 17 18  1  0  0  0  0
 19 13  1  0  0  0  0
 20  4  1  6  0  0  0
 20 12  1  0  0  0  0
 21 18  1  0  0  0  0
 21 13  2  0  0  0  0
 22 19  2  0  0  0  0
 23 24  1  0  0  0  0
 23 15  1  0  0  0  0
 25 29  1  0  0  0  0
 26 25  2  0  0  0  0
 27 28  2  0  0  0  0
 29 27  2  0  0  0  0
 30 28  1  1  0  0  0
 30 32  1  0  0  0  0
 32 33  2  0  0  0  0
 32 31  1  0  0  0  0
 34 38  1  6  0  0  0
 34 30  1  0  0  0  0
 34 35  1  0  0  0  0
 35 36  1  0  0  0  0
 37 35  2  0  0  0  0
 40 39  1  6  0  0  0
 40 38  1  0  0  0  0
 42 41  1  0  0  0  0
 42 40  1  0  0  0  0
 43 42  1  0  0  0  0
 44 46  1  6  0  0  0
 44 47  1  0  0  0  0
 44  8  1  0  0  0  0
 45 46  2  0  0  0  0
 48 49  1  0  0  0  0
 48 47  1  0  0  0  0
 50 49  1  0  0  0  0
 50 52  1  0  0  0  0
 52 51  1  1  0  0  0
 53 57  2  0  0  0  0
 54 53  1  0  0  0  0
 55 57  1  0  0  0  0
 56 52  1  1  0  0  0
 56 58  1  0  0  0  0
 56 59  1  0  0  0  0
 58 54  1  6  0  0  0
 58 59  1  0  0  0  0
 59 55  1  6  0  0  0
M  END
>  <MODEL>
2

>  <REMARK>
 VINA RESULT:      -5.9      2.991      8.978
  Name = 
  19 active torsions:
  status: ('A' for Active; 'I' for Inactive)
    1  A    between atoms: C_4  and  C_53
    2  A    between atoms: C_6  and  C_37
    3  A    between atoms: N_8  and  C_43
    4  A    between atoms: N_8  and  C_58
    5  A    between atoms: C_9  and  C_32
    6  A    between atoms: C_9  and  C_53
    7  A    between atoms: C_14  and  O_18
    8  A    between atoms: C_16  and  C_46
    9  A    between atoms: C_17  and  C_54
   10  A    between atoms: S_21  and  C_28
   11  A    between atoms: S_21  and  C_31
   12  A    between atoms: C_27  and  C_58
   13  A    between atoms: C_28  and  C_35
   14  A    between atoms: C_28  and  N_36
   15  A    between atoms: C_31  and  C_43
   16  A    between atoms: C_32  and  C_52
   17  A    between atoms: C_34  and  C_37
   18  A    between atoms: C_37  and  C_53
   19  A    between atoms: C_42  and  C_59
                            x       y       z     vdW  Elec       q    Type
                         _______ _______ _______ _____ _____    ______ ____

>  <TORSDO>
F 19

$$$$
=
 OpenBabel11042415433D

 59 64  0  0  1  0  0  0  0  0999 V2000
  194.0290  170.0630  139.8390 C   0  0  0  0  0  3  0  0  0  0  0  0
  193.2270  171.3360  142.2160 C   0  0  0  0  0  0  0  0  0  0  0  0
  195.1940  170.3940  143.3180 C   0  0  0  0  0  3  0  0  0  0  0  0
  192.8430  170.8030  139.8590 C   0  0  0  0  0  0  0  0  0  0  0  0
  193.6620  171.7800  144.5660 C   0  0  0  0  0  3  0  0  0  0  0  0
  192.4450  171.4340  141.0510 C   0  0  0  0  0  3  0  0  0  0  0  0
  194.4130  170.5570  142.1750 C   0  0  0  0  0  0  0  0  0  0  0  0
  194.8170  170.9920  144.5190 C   0  0  0  0  0  0  0  0  0  0  0  0
  194.8080  169.9390  140.9880 C   0  0  0  0  0  3  0  0  0  0  0  0
  192.8630  171.9700  143.4340 C   0  0  0  0  0  0  0  0  0  0  0  0
  188.4910  172.7530  138.1050 C   0  0  0  0  0  3  0  0  0  0  0  0
  192.8570  170.5450  137.3550 C   0  0  0  0  0  2  0  0  0  0  0  0
  190.1300  173.6410  136.0230 C   0  0  0  0  0  3  0  0  0  0  0  0
  189.4980  171.9150  137.6160 C   0  0  0  0  0  0  0  0  0  0  0  0
  190.7470  170.0590  138.5800 C   0  0  0  0  0  0  0  0  0  0  0  0
  189.6310  170.5980  138.1740 N   0  0  0  0  0  0  0  0  0  0  0  0
  192.6230  171.5520  136.3240 N   0  0  0  0  0  2  0  0  0  0  0  0
  191.2730  171.4870  135.9480 N   0  0  0  0  0  2  0  0  0  0  0  0
  189.1420  174.4810  136.5410 C   0  0  0  0  0  3  0  0  0  0  0  0
  192.0280  170.8490  138.5950 C   0  0  1  0  0  3  0  0  0  0  0  0
  190.3090  172.3550  136.5470 C   0  0  0  0  0  0  0  0  0  0  0  0
  188.3170  174.0350  137.5770 C   0  0  0  0  0  3  0  0  0  0  0  0
  190.7740  168.7130  138.9540 O   0  0  0  0  0  0  0  0  0  0  0  0
  190.5150  168.2960  140.2840 C   0  0  0  0  0  1  0  0  0  0  0  0
  190.5000  172.4730  144.0520 C   0  0  0  0  0  3  0  0  0  0  0  0
  191.6970  172.8550  143.6300 C   0  0  0  0  0  3  0  0  0  0  0  0
  189.4700  174.5530  143.4360 C   0  0  0  0  0  0  0  0  0  0  0  0
  189.4890  175.6350  142.7080 C   0  0  0  0  0  3  0  0  0  0  0  0
  189.4490  173.4770  144.1710 C   0  0  0  0  0  3  0  0  0  0  0  0
  189.2710  176.9670  143.3390 C   0  0  2  0  0  3  0  0  0  0  0  0
  190.9720  176.7170  144.9910 O   0  0  0  0  0  1  0  0  0  0  0  0
  190.5000  177.4240  144.0640 C   0  0  0  0  0  0  0  0  0  0  0  0
  191.1160  178.6250  143.7340 O   0  0  0  0  0  0  0  0  0  0  0  0
  187.9860  176.9930  144.1860 C   0  0  2  0  0  3  0  0  0  0  0  0
  186.7620  177.0780  143.3310 C   0  0  0  0  0  0  0  0  0  0  0  0
  186.1120  176.0420  143.0300 O   0  0  0  0  0  1  0  0  0  0  0  0
  186.3390  178.3150  142.8660 O   0  0  0  0  0  0  0  0  0  0  0  0
  187.9670  178.0660  145.2760 C   0  0  0  0  0  2  0  0  0  0  0  0
  187.9300  175.9930  146.6920 C   0  0  0  0  0  1  0  0  0  0  0  0
  187.5940  177.4800  146.6320 C   0  0  2  0  0  3  0  0  0  0  0  0
  185.2350  176.6250  146.4930 C   0  0  0  0  0  1  0  0  0  0  0  0
  186.1240  177.7620  146.9610 C   0  0  0  0  0  3  0  0  0  0  0  0
  185.6290  179.0790  146.3790 C   0  0  0  0  0  1  0  0  0  0  0  0
  195.6840  170.8170  145.7260 C   0  0  1  0  0  3  0  0  0  0  0  0
  196.8020  168.8360  145.9780 O   0  0  0  0  0  0  0  0  0  0  0  0
  195.7700  169.4240  146.0890 N   0  0  0  0  0  0  0  0  0  0  0  0
  197.3530  171.4810  145.4240 S   0  0  0  0  0  0  0  0  0  0  0  0
  196.9820  173.0770  146.2200 C   0  0  0  0  0  2  0  0  0  0  0  0
  196.9360  174.2100  145.2010 C   0  0  0  0  0  2  0  0  0  0  0  0
  197.0040  173.6890  143.8350 N   0  0  0  0  0  2  0  0  0  0  0  0
  195.9890  175.7960  143.5060 O   0  0  0  0  0  1  0  0  0  0  0  0
  196.5540  174.6910  142.8630 C   0  0  2  0  0  3  0  0  0  0  0  0
  194.4610  173.7870  138.6270 C   0  0  0  0  0  3  0  0  0  0  0  0
  195.6060  173.3290  139.4820 C   0  0  0  0  0  2  0  0  0  0  0  0
  193.4940  174.7560  140.6620 C   0  0  0  0  0  2  0  0  0  0  0  0
  195.5830  174.1030  141.8490 C   0  0  2  0  0  3  0  0  0  0  0  0
  193.4560  174.4650  139.1880 C   0  0  0  0  0  3  0  0  0  0  0  0
  196.0520  174.4380  140.4450 C   0  0  2  0  0  3  0  0  0  0  0  0
  194.8920  175.2220  141.0950 C   0  0  1  0  0  3  0  0  0  0  0  0
  1  4  2  0  0  0  0
  1  9  1  0  0  0  0
  2 10  1  0  0  0  0
  3  8  2  0  0  0  0
  4  6  1  0  0  0  0
  6  2  2  0  0  0  0
  7  2  1  0  0  0  0
  7  3  1  0  0  0  0
  8  5  1  0  0  0  0
  8 44  1  0  0  0  0
  9  7  2  0  0  0  0
 10 26  1  0  0  0  0
 10  5  2  0  0  0  0
 12 20  1  0  0  0  0
 13 19  2  0  0  0  0
 13 21  1  0  0  0  0
 14 11  1  0  0  0  0
 14 16  1  0  0  0  0
 15 20  1  0  0  0  0
 15 23  1  0  0  0  0
 16 15  2  0  0  0  0
 17 12  1  0  0  0  0
 18 17  1  0  0  0  0
 18 21  1  0  0  0  0
 19 22  1  0  0  0  0
 20  4  1  1  0  0  0
 21 14  2  0  0  0  0
 22 11  2  0  0  0  0
 23 24  1  0  0  0  0
 25 29  1  0  0  0  0
 26 25  2  0  0  0  0
 27 29  2  0  0  0  0
 28 27  2  0  0  0  0
 30 28  1  1  0  0  0
 30 32  1  0  0  0  0
 30 34  1  0  0  0  0
 32 31  1  0  0  0  0
 33 32  2  0  0  0  0
 34 38  1  1  0  0  0
 35 34  1  0  0  0  0
 36 35  1  0  0  0  0
 37 35  2  0  0  0  0
 38 40  1  0  0  0  0
 40 39  1  6  0  0  0
 40 42  1  0  0  0  0
 41 42  1  0  0  0  0
 43 42  1  0  0  0  0
 44 47  1  6  0  0  0
 44 46  1  0  0  0  0
 45 46  2  0  0  0  0
 47 48  1  0  0  0  0
 49 48  1  0  0  0  0
 50 49  1  0  0  0  0
 52 51  1  1  0  0  0
 52 50  1  0  0  0  0
 53 57  2  0  0  0  0
 53 54  1  0  0  0  0
 56 52  1  1  0  0  0
 57 55  1  0  0  0  0
 58 54  1  6  0  0  0
 58 59  1  0  0  0  0
 58 56  1  0  0  0  0
 59 55  1  6  0  0  0
 59 56  1  0  0  0  0
M  END
>  <MODEL>
3

>  <REMARK>
 VINA RESULT:      -5.9      3.471      9.659
  Name = 
  19 active torsions:
  status: ('A' for Active; 'I' for Inactive)
    1  A    between atoms: C_4  and  C_53
    2  A    between atoms: C_6  and  C_37
    3  A    between atoms: N_8  and  C_43
    4  A    between atoms: N_8  and  C_58
    5  A    between atoms: C_9  and  C_32
    6  A    between atoms: C_9  and  C_53
    7  A    between atoms: C_14  and  O_18
    8  A    between atoms: C_16  and  C_46
    9  A    between atoms: C_17  and  C_54
   10  A    between atoms: S_21  and  C_28
   11  A    between atoms: S_21  and  C_31
   12  A    between atoms: C_27  and  C_58
   13  A    between atoms: C_28  and  C_35
   14  A    between atoms: C_28  and  N_36
   15  A    between atoms: C_31  and  C_43
   16  A    between atoms: C_32  and  C_52
   17  A    between atoms: C_34  and  C_37
   18  A    between atoms: C_37  and  C_53
   19  A    between atoms: C_42  and  C_59
                            x       y       z     vdW  Elec       q    Type
                         _______ _______ _______ _____ _____    ______ ____

>  <TORSDO>
F 19

$$$$
=
 OpenBabel11042415433D

 59 64  0  0  1  0  0  0  0  0999 V2000
  188.1950  174.9270  141.2710 C   0  0  0  0  0  3  0  0  0  0  0  0
  189.9420  172.7290  141.1080 C   0  0  0  0  0  0  0  0  0  0  0  0
  188.9590  172.1790  138.9400 C   0  0  0  0  0  3  0  0  0  0  0  0
  189.0710  174.6620  142.3280 C   0  0  0  0  0  0  0  0  0  0  0  0
  190.7180  170.8000  139.8480 C   0  0  0  0  0  3  0  0  0  0  0  0
  189.9390  173.5590  142.2420 C   0  0  0  0  0  3  0  0  0  0  0  0
  189.0240  173.0050  140.0610 C   0  0  0  0  0  0  0  0  0  0  0  0
  189.7940  171.0690  138.8340 C   0  0  0  0  0  0  0  0  0  0  0  0
  188.1680  174.1040  140.1460 C   0  0  0  0  0  3  0  0  0  0  0  0
  190.8130  171.6140  140.9820 C   0  0  0  0  0  0  0  0  0  0  0  0
  186.0320  178.1710  144.3940 C   0  0  0  0  0  3  0  0  0  0  0  0
  189.8930  175.0840  144.6700 C   0  0  0  0  0  2  0  0  0  0  0  0
  186.3770  176.6170  146.6910 C   0  0  0  0  0  3  0  0  0  0  0  0
  187.2890  177.6250  144.6740 C   0  0  0  0  0  0  0  0  0  0  0  0
  189.2060  177.0370  143.2900 C   0  0  0  0  0  0  0  0  0  0  0  0
  188.3820  177.9160  143.7880 N   0  0  0  0  0  0  0  0  0  0  0  0
  189.1460  175.0640  145.9250 N   0  0  0  0  0  2  0  0  0  0  0  0
  188.7590  176.3790  146.2250 N   0  0  0  0  0  2  0  0  0  0  0  0
  185.1200  177.1430  146.3850 C   0  0  0  0  0  3  0  0  0  0  0  0
  189.0050  175.5640  143.5300 C   0  0  1  0  0  3  0  0  0  0  0  0
  187.4670  176.8600  145.8480 C   0  0  0  0  0  0  0  0  0  0  0  0
  184.9480  177.9260  145.2400 C   0  0  0  0  0  3  0  0  0  0  0  0
  190.3250  177.4610  142.5700 O   0  0  0  0  0  0  0  0  0  0  0  0
  191.5120  177.8980  143.2110 C   0  0  0  0  0  1  0  0  0  0  0  0
  191.6560  170.9140  143.2220 C   0  0  0  0  0  3  0  0  0  0  0  0
  191.8590  171.2240  141.9490 C   0  0  0  0  0  3  0  0  0  0  0  0
  193.4420  171.4850  144.7210 C   0  0  0  0  0  0  0  0  0  0  0  0
  194.0860  172.4000  145.3930 C   0  0  0  0  0  3  0  0  0  0  0  0
  192.8080  170.5690  144.0480 C   0  0  0  0  0  3  0  0  0  0  0  0
  195.5730  172.4660  145.3350 C   0  0  2  0  0  3  0  0  0  0  0  0
  195.3980  174.7750  145.9060 O   0  0  0  0  0  0  0  0  0  0  0  0
  196.0780  173.7200  145.9820 C   0  0  0  0  0  0  0  0  0  0  0  0
  197.2960  173.7340  146.6520 O   0  0  0  0  0  1  0  0  0  0  0  0
  196.0990  172.2310  143.9080 C   0  0  2  0  0  3  0  0  0  0  0  0
  196.8710  170.9540  143.8070 C   0  0  0  0  0  0  0  0  0  0  0  0
  197.0470  170.3920  142.6930 O   0  0  0  0  0  0  0  0  0  0  0  0
  197.4000  170.3830  144.9560 O   0  0  0  0  0  1  0  0  0  0  0  0
  196.8970  173.3990  143.3260 C   0  0  0  0  0  2  0  0  0  0  0  0
  195.8420  175.5690  142.6340 C   0  0  0  0  0  1  0  0  0  0  0  0
  196.1160  174.1220  142.2350 C   0  0  2  0  0  3  0  0  0  0  0  0
  195.0350  172.4970  140.6530 C   0  0  0  0  0  1  0  0  0  0  0  0
  194.8350  173.3580  141.8860 C   0  0  0  0  0  3  0  0  0  0  0  0
  193.6340  174.2720  141.6900 C   0  0  0  0  0  1  0  0  0  0  0  0
  189.7180  170.2110  137.6090 C   0  0  1  0  0  3  0  0  0  0  0  0
  189.4840  171.4770  135.7160 O   0  0  0  0  0  0  0  0  0  0  0  0
  190.2300  170.9210  136.4630 N   0  0  0  0  0  0  0  0  0  0  0  0
  190.6500  168.6640  137.8450 S   0  0  0  0  0  0  0  0  0  0  0  0
  191.6640  168.9190  136.3540 C   0  0  0  0  0  2  0  0  0  0  0  0
  193.0270  168.2480  136.4870 C   0  0  0  0  0  2  0  0  0  0  0  0
  194.0620  169.2280  136.8170 N   0  0  0  0  0  2  0  0  0  0  0  0
  194.5200  170.6850  135.0160 O   0  0  0  0  0  1  0  0  0  0  0  0
  193.7840  170.5250  136.1940 C   0  0  2  0  0  3  0  0  0  0  0  0
  193.5430  174.9380  138.0940 C   0  0  0  0  0  3  0  0  0  0  0  0
  192.8040  173.6320  138.0840 C   0  0  0  0  0  2  0  0  0  0  0  0
  195.5030  173.6910  137.3070 C   0  0  0  0  0  2  0  0  0  0  0  0
  194.0400  171.6820  137.1490 C   0  0  2  0  0  3  0  0  0  0  0  0
  194.8270  174.9660  137.7250 C   0  0  0  0  0  3  0  0  0  0  0  0
  193.1130  172.8340  136.8090 C   0  0  2  0  0  3  0  0  0  0  0  0
  194.5960  172.8660  136.3820 C   0  0  1  0  0  3  0  0  0  0  0  0
  1  4  1  0  0  0  0
  2  6  1  0  0  0  0
  3  7  1  0  0  0  0
  5 10  2  0  0  0  0
  6  4  2  0  0  0  0
  7  9  1  0  0  0  0
  7  2  2  0  0  0  0
  8  3  2  0  0  0  0
  8  5  1  0  0  0  0
  9  1  2  0  0  0  0
 10  2  1  0  0  0  0
 10 26  1  0  0  0  0
 11 14  2  0  0  0  0
 11 22  1  0  0  0  0
 12 17  1  0  0  0  0
 14 21  1  0  0  0  0
 15 20  1  0  0  0  0
 15 16  2  0  0  0  0
 16 14  1  0  0  0  0
 17 18  1  0  0  0  0
 19 13  1  0  0  0  0
 20  4  1  6  0  0  0
 20 12  1  0  0  0  0
 21 18  1  0  0  0  0
 21 13  2  0  0  0  0
 22 19  2  0  0  0  0
 23 24  1  0  0  0  0
 23 15  1  0  0  0  0
 25 29  1  0  0  0  0
 26 25  2  0  0  0  0
 27 28  2  0  0  0  0
 29 27  2  0  0  0  0
 30 28  1  6  0  0  0
 30 32  1  0  0  0  0
 31 32  2  0  0  0  0
 32 33  1  0  0  0  0
 34 38  1  1  0  0  0
 34 30  1  0  0  0  0
 35 34  1  0  0  0  0
 35 37  1  0  0  0  0
 36 35  2  0  0  0  0
 40 39  1  1  0  0  0
 40 38  1  0  0  0  0
 41 42  1  0  0  0  0
 42 40  1  0  0  0  0
 43 42  1  0  0  0  0
 44 46  1  6  0  0  0
 44 47  1  0  0  0  0
 44  8  1  0  0  0  0
 45 46  2  0  0  0  0
 48 49  1  0  0  0  0
 48 47  1  0  0  0  0
 49 50  1  0  0  0  0
 52 51  1  6  0  0  0
 52 50  1  0  0  0  0
 54 53  1  0  0  0  0
 55 57  1  0  0  0  0
 56 52  1  6  0  0  0
 57 53  2  0  0  0  0
 58 56  1  0  0  0  0
 58 54  1  1  0  0  0
 59 58  1  0  0  0  0
 59 56  1  0  0  0  0
 59 55  1  1  0  0  0
M  END
>  <MODEL>
4

>  <REMARK>
 VINA RESULT:      -5.7      3.096      8.877
  Name = 
  19 active torsions:
  status: ('A' for Active; 'I' for Inactive)
    1  A    between atoms: C_4  and  C_53
    2  A    between atoms: C_6  and  C_37
    3  A    between atoms: N_8  and  C_43
    4  A    between atoms: N_8  and  C_58
    5  A    between atoms: C_9  and  C_32
    6  A    between atoms: C_9  and  C_53
    7  A    between atoms: C_14  and  O_18
    8  A    between atoms: C_16  and  C_46
    9  A    between atoms: C_17  and  C_54
   10  A    between atoms: S_21  and  C_28
   11  A    between atoms: S_21  and  C_31
   12  A    between atoms: C_27  and  C_58
   13  A    between atoms: C_28  and  C_35
   14  A    between atoms: C_28  and  N_36
   15  A    between atoms: C_31  and  C_43
   16  A    between atoms: C_32  and  C_52
   17  A    between atoms: C_34  and  C_37
   18  A    between atoms: C_37  and  C_53
   19  A    between atoms: C_42  and  C_59
                            x       y       z     vdW  Elec       q    Type
                         _______ _______ _______ _____ _____    ______ ____

>  <TORSDO>
F 19

$$$$
=
 OpenBabel11042415433D

 59 64  0  0  1  0  0  0  0  0999 V2000
  189.3530  174.5560  145.8670 C   0  0  0  0  0  3  0  0  0  0  0  0
  190.0400  173.5540  143.3300 C   0  0  0  0  0  0  0  0  0  0  0  0
  191.2050  171.7120  144.4340 C   0  0  0  0  0  3  0  0  0  0  0  0
  188.9640  175.2550  144.7200 C   0  0  0  0  0  0  0  0  0  0  0  0
  191.1720  171.8440  142.0250 C   0  0  0  0  0  3  0  0  0  0  0  0
  189.3140  174.7520  143.4550 C   0  0  0  0  0  3  0  0  0  0  0  0
  190.4440  172.8780  144.5110 C   0  0  0  0  0  0  0  0  0  0  0  0
  191.5830  171.1980  143.1950 C   0  0  0  0  0  0  0  0  0  0  0  0
  190.0890  173.3760  145.7640 C   0  0  0  0  0  3  0  0  0  0  0  0
  190.4000  173.0090  142.0680 C   0  0  0  0  0  0  0  0  0  0  0  0
  186.1350  178.5410  142.0700 C   0  0  0  0  0  3  0  0  0  0  0  0
  187.8760  176.8130  146.3710 C   0  0  0  0  0  2  0  0  0  0  0  0
  184.3870  178.2450  144.2310 C   0  0  0  0  0  3  0  0  0  0  0  0
  186.6510  178.4610  143.3680 C   0  0  0  0  0  0  0  0  0  0  0  0
  188.8070  177.7770  144.2740 C   0  0  0  0  0  0  0  0  0  0  0  0
  188.0700  178.5780  143.5550 N   0  0  0  0  0  0  0  0  0  0  0  0
  186.4670  177.1700  146.5100 N   0  0  0  0  0  2  0  0  0  0  0  0
  186.2460  178.3640  145.8060 N   0  0  0  0  0  2  0  0  0  0  0  0
  183.8860  178.2940  142.9290 C   0  0  0  0  0  3  0  0  0  0  0  0
  188.2160  176.5470  144.9120 C   0  0  1  0  0  3  0  0  0  0  0  0
  185.7650  178.3370  144.4610 C   0  0  0  0  0  0  0  0  0  0  0  0
  184.7590  178.4490  141.8480 C   0  0  0  0  0  3  0  0  0  0  0  0
  190.1480  178.0870  144.5100 O   0  0  0  0  0  0  0  0  0  0  0  0
  191.1000  178.1560  143.4610 C   0  0  0  0  0  1  0  0  0  0  0  0
  188.8290  173.4150  140.1750 C   0  0  0  0  0  3  0  0  0  0  0  0
  190.0140  173.5560  140.7520 C   0  0  0  0  0  3  0  0  0  0  0  0
  189.3560  173.6470  137.8430 C   0  0  0  0  0  0  0  0  0  0  0  0
  190.0950  173.2970  136.8270 C   0  0  0  0  0  3  0  0  0  0  0  0
  188.6200  174.0050  138.8570 C   0  0  0  0  0  3  0  0  0  0  0  0
  190.7030  174.3360  135.9480 C   0  0  2  0  0  3  0  0  0  0  0  0
  188.7980  174.2820  134.5130 O   0  0  0  0  0  0  0  0  0  0  0  0
  189.6600  174.9910  135.0940 C   0  0  0  0  0  0  0  0  0  0  0  0
  189.6440  176.3700  134.9250 O   0  0  0  0  0  1  0  0  0  0  0  0
  191.9100  173.7860  135.1680 C   0  0  2  0  0  3  0  0  0  0  0  0
  192.0220  172.3000  135.3000 C   0  0  0  0  0  0  0  0  0  0  0  0
  192.8310  171.7840  136.1160 O   0  0  0  0  0  1  0  0  0  0  0  0
  191.2230  171.4830  134.5130 O   0  0  0  0  0  0  0  0  0  0  0  0
  193.2410  174.4650  135.4980 C   0  0  0  0  0  2  0  0  0  0  0  0
  193.3950  176.9370  135.9070 C   0  0  0  0  0  1  0  0  0  0  0  0
  193.0620  175.5810  136.5200 C   0  0  2  0  0  3  0  0  0  0  0  0
  195.2680  174.8010  137.4370 C   0  0  0  0  0  1  0  0  0  0  0  0
  193.8760  175.2940  137.7870 C   0  0  0  0  0  3  0  0  0  0  0  0
  193.1930  174.3030  138.7180 C   0  0  0  0  0  1  0  0  0  0  0  0
  192.3830  169.9340  143.1420 C   0  0  1  0  0  3  0  0  0  0  0  0
  191.7730  168.7570  141.2760 O   0  0  0  0  0  0  0  0  0  0  0  0
  192.5570  169.5040  141.7770 N   0  0  0  0  0  0  0  0  0  0  0  0
  194.0100  170.1660  143.9290 S   0  0  0  0  0  0  0  0  0  0  0  0
  194.7990  170.7240  142.3850 C   0  0  0  0  0  2  0  0  0  0  0  0
  196.0660  171.5240  142.6640 C   0  0  0  0  0  2  0  0  0  0  0  0
  195.7590  172.7520  143.3980 N   0  0  0  0  0  2  0  0  0  0  0  0
  195.2590  174.1740  141.5800 O   0  0  0  0  0  1  0  0  0  0  0  0
  194.7320  173.5390  142.7090 C   0  0  2  0  0  3  0  0  0  0  0  0
  194.2700  176.8460  146.1710 C   0  0  0  0  0  3  0  0  0  0  0  0
  194.6290  176.7220  144.7190 C   0  0  0  0  0  2  0  0  0  0  0  0
  193.1870  174.6560  145.9620 C   0  0  0  0  0  2  0  0  0  0  0  0
  194.0720  174.5500  143.6360 C   0  0  2  0  0  3  0  0  0  0  0  0
  193.5840  175.8640  146.7630 C   0  0  0  0  0  3  0  0  0  0  0  0
  195.1410  175.3110  144.3980 C   0  0  2  0  0  3  0  0  0  0  0  0
  194.3480  174.1750  145.0800 C   0  0  1  0  0  3  0  0  0  0  0  0
  2  6  2  0  0  0  0
  2  7  1  0  0  0  0
  3  7  1  0  0  0  0
  4  1  2  0  0  0  0
  5 10  2  0  0  0  0
  5  8  1  0  0  0  0
  6  4  1  0  0  0  0
  7  9  2  0  0  0  0
  8  3  2  0  0  0  0
  9  1  1  0  0  0  0
 10  2  1  0  0  0  0
 11 14  1  0  0  0  0
 12 17  1  0  0  0  0
 13 21  1  0  0  0  0
 14 16  1  0  0  0  0
 14 21  2  0  0  0  0
 15 23  1  0  0  0  0
 15 20  1  0  0  0  0
 16 15  2  0  0  0  0
 18 17  1  0  0  0  0
 19 13  2  0  0  0  0
 20  4  1  1  0  0  0
 20 12  1  0  0  0  0
 21 18  1  0  0  0  0
 22 11  2  0  0  0  0
 22 19  1  0  0  0  0
 24 23  1  0  0  0  0
 25 26  2  0  0  0  0
 26 10  1  0  0  0  0
 27 29  2  0  0  0  0
 28 27  2  0  0  0  0
 29 25  1  0  0  0  0
 30 28  1  6  0  0  0
 31 32  2  0  0  0  0
 32 30  1  0  0  0  0
 33 32  1  0  0  0  0
 34 35  1  0  0  0  0
 34 38  1  1  0  0  0
 34 30  1  0  0  0  0
 35 36  1  0  0  0  0
 37 35  2  0  0  0  0
 38 40  1  0  0  0  0
 40 39  1  6  0  0  0
 40 42  1  0  0  0  0
 41 42  1  0  0  0  0
 42 43  1  0  0  0  0
 44 46  1  6  0  0  0
 44  8  1  0  0  0  0
 44 47  1  0  0  0  0
 45 46  2  0  0  0  0
 48 49  1  0  0  0  0
 48 47  1  0  0  0  0
 49 50  1  0  0  0  0
 52 51  1  6  0  0  0
 52 50  1  0  0  0  0
 53 57  2  0  0  0  0
 54 53  1  0  0  0  0
 55 57  1  0  0  0  0
 56 52  1  6  0  0  0
 56 58  1  0  0  0  0
 56 59  1  0  0  0  0
 58 54  1  1  0  0  0
 58 59  1  0  0  0  0
 59 55  1  1  0  0  0
M  END
>  <MODEL>
5

>  <REMARK>
 VINA RESULT:      -5.7      2.848      7.603
  Name = 
  19 active torsions:
  status: ('A' for Active; 'I' for Inactive)
    1  A    between atoms: C_4  and  C_53
    2  A    between atoms: C_6  and  C_37
    3  A    between atoms: N_8  and  C_43
    4  A    between atoms: N_8  and  C_58
    5  A    between atoms: C_9  and  C_32
    6  A    between atoms: C_9  and  C_53
    7  A    between atoms: C_14  and  O_18
    8  A    between atoms: C_16  and  C_46
    9  A    between atoms: C_17  and  C_54
   10  A    between atoms: S_21  and  C_28
   11  A    between atoms: S_21  and  C_31
   12  A    between atoms: C_27  and  C_58
   13  A    between atoms: C_28  and  C_35
   14  A    between atoms: C_28  and  N_36
   15  A    between atoms: C_31  and  C_43
   16  A    between atoms: C_32  and  C_52
   17  A    between atoms: C_34  and  C_37
   18  A    between atoms: C_37  and  C_53
   19  A    between atoms: C_42  and  C_59
                            x       y       z     vdW  Elec       q    Type
                         _______ _______ _______ _____ _____    ______ ____

>  <TORSDO>
F 19

$$$$
=
 OpenBabel11042415433D

 59 64  0  0  1  0  0  0  0  0999 V2000
  191.6180  177.6840  143.5540 C   0  0  0  0  0  3  0  0  0  0  0  0
  189.4830  176.3570  142.2920 C   0  0  0  0  0  0  0  0  0  0  0  0
  188.1230  178.3620  142.6080 C   0  0  0  0  0  3  0  0  0  0  0  0
  191.7810  176.3620  143.1310 C   0  0  0  0  0  0  0  0  0  0  0  0
  187.1770  176.4240  141.5270 C   0  0  0  0  0  3  0  0  0  0  0  0
  190.7090  175.7020  142.5040 C   0  0  0  0  0  3  0  0  0  0  0  0
  189.3360  177.6910  142.7550 C   0  0  0  0  0  0  0  0  0  0  0  0
  187.0370  177.7300  142.0070 C   0  0  0  0  0  0  0  0  0  0  0  0
  190.4040  178.3450  143.3700 C   0  0  0  0  0  3  0  0  0  0  0  0
  188.3830  175.7270  141.6510 C   0  0  0  0  0  0  0  0  0  0  0  0
  193.6600  172.2950  145.5280 C   0  0  0  0  0  3  0  0  0  0  0  0
  194.1860  176.1180  142.4280 C   0  0  0  0  0  2  0  0  0  0  0  0
  194.9950  171.9130  143.1030 C   0  0  0  0  0  3  0  0  0  0  0  0
  194.1780  173.4000  144.8450 C   0  0  0  0  0  0  0  0  0  0  0  0
  193.6150  175.7710  144.8240 C   0  0  0  0  0  0  0  0  0  0  0  0
  194.0440  174.7020  145.4370 N   0  0  0  0  0  0  0  0  0  0  0  0
  194.8760  174.9460  141.8970 N   0  0  0  0  0  2  0  0  0  0  0  0
  195.5130  174.2920  142.9630 N   0  0  0  0  0  2  0  0  0  0  0  0
  194.4460  170.8200  143.7780 C   0  0  0  0  0  3  0  0  0  0  0  0
  193.1030  175.6980  143.4100 C   0  0  1  0  0  3  0  0  0  0  0  0
  194.8740  173.2020  143.6320 C   0  0  0  0  0  0  0  0  0  0  0  0
  193.7850  171.0100  144.9940 C   0  0  0  0  0  3  0  0  0  0  0  0
  193.6830  177.0120  145.4610 O   0  0  0  0  0  0  0  0  0  0  0  0
  194.9180  177.6450  145.7470 C   0  0  0  0  0  1  0  0  0  0  0  0
  188.7140  174.0710  139.8170 C   0  0  0  0  0  3  0  0  0  0  0  0
  188.3880  174.3710  141.0660 C   0  0  0  0  0  3  0  0  0  0  0  0
  189.6950  171.9070  139.4650 C   0  0  0  0  0  0  0  0  0  0  0  0
  190.7440  171.1340  139.5260 C   0  0  0  0  0  3  0  0  0  0  0  0
  188.6460  172.6760  139.3950 C   0  0  0  0  0  3  0  0  0  0  0  0
  191.1240  170.2910  138.3580 C   0  0  2  0  0  3  0  0  0  0  0  0
  190.4200  168.1700  137.5230 O   0  0  0  0  0  0  0  0  0  0  0  0
  190.6430  168.8820  138.5360 C   0  0  0  0  0  0  0  0  0  0  0  0
  190.4290  168.3600  139.8050 O   0  0  0  0  0  1  0  0  0  0  0  0
  192.6230  170.4140  138.0300 C   0  0  2  0  0  3  0  0  0  0  0  0
  193.4200  169.3260  138.6750 C   0  0  0  0  0  0  0  0  0  0  0  0
  193.8650  168.3630  137.9960 O   0  0  0  0  0  0  0  0  0  0  0  0
  193.6730  169.3800  140.0390 O   0  0  0  0  0  1  0  0  0  0  0  0
  193.2270  171.7870  138.3330 C   0  0  0  0  0  2  0  0  0  0  0  0
  192.4410  172.6060  136.0940 C   0  0  0  0  0  1  0  0  0  0  0  0
  193.6210  172.5190  137.0560 C   0  0  2  0  0  3  0  0  0  0  0  0
  196.0740  172.0290  137.3010 C   0  0  0  0  0  1  0  0  0  0  0  0
  194.8530  171.8690  136.4150 C   0  0  0  0  0  3  0  0  0  0  0  0
  195.1480  172.4070  135.0220 C   0  0  0  0  0  1  0  0  0  0  0  0
  185.7520  178.4810  141.8440 C   0  0  1  0  0  3  0  0  0  0  0  0
  184.1660  178.5830  140.1970 O   0  0  0  0  0  0  0  0  0  0  0  0
  185.3200  178.4500  140.4690 N   0  0  0  0  0  0  0  0  0  0  0  0
  184.4550  177.7820  142.9160 S   0  0  0  0  0  0  0  0  0  0  0  0
  185.5810  177.5790  144.3320 C   0  0  0  0  0  2  0  0  0  0  0  0
  184.8520  177.7780  145.6560 C   0  0  0  0  0  2  0  0  0  0  0  0
  185.3360  176.8370  146.6670 N   0  0  0  0  0  2  0  0  0  0  0  0
  186.1580  178.9020  147.4660 O   0  0  0  0  0  1  0  0  0  0  0  0
  186.0980  177.5270  147.7130 C   0  0  2  0  0  3  0  0  0  0  0  0
  190.6630  176.4200  146.6770 C   0  0  0  0  0  3  0  0  0  0  0  0
  189.8360  177.5320  147.2530 C   0  0  0  0  0  2  0  0  0  0  0  0
  188.7780  174.9310  147.1690 C   0  0  0  0  0  2  0  0  0  0  0  0
  187.4960  176.9460  147.8730 C   0  0  2  0  0  3  0  0  0  0  0  0
  190.1610  175.1830  146.6370 C   0  0  0  0  0  3  0  0  0  0  0  0
  188.3860  177.4540  146.7540 C   0  0  2  0  0  3  0  0  0  0  0  0
  187.8040  176.0250  146.7080 C   0  0  1  0  0  3  0  0  0  0  0  0
  2  6  2  0  0  0  0
  2  7  1  0  0  0  0
  3  7  1  0  0  0  0
  4  1  2  0  0  0  0
  5 10  2  0  0  0  0
  5  8  1  0  0  0  0
  6  4  1  0  0  0  0
  7  9  2  0  0  0  0
  8  3  2  0  0  0  0
  9  1  1  0  0  0  0
 10  2  1  0  0  0  0
 12 20  1  0  0  0  0
 13 21  2  0  0  0  0
 13 19  1  0  0  0  0
 14 16  1  0  0  0  0
 14 11  2  0  0  0  0
 15 16  2  0  0  0  0
 15 23  1  0  0  0  0
 17 12  1  0  0  0  0
 17 18  1  0  0  0  0
 18 21  1  0  0  0  0
 19 22  2  0  0  0  0
 20  4  1  1  0  0  0
 20 15  1  0  0  0  0
 21 14  1  0  0  0  0
 22 11  1  0  0  0  0
 23 24  1  0  0  0  0
 25 26  2  0  0  0  0
 26 10  1  0  0  0  0
 27 28  2  0  0  0  0
 29 27  2  0  0  0  0
 29 25  1  0  0  0  0
 30 32  1  0  0  0  0
 30 28  1  1  0  0  0
 31 32  2  0  0  0  0
 32 33  1  0  0  0  0
 34 38  1  1  0  0  0
 34 30  1  0  0  0  0
 34 35  1  0  0  0  0
 35 37  1  0  0  0  0
 36 35  2  0  0  0  0
 40 39  1  6  0  0  0
 40 38  1  0  0  0  0
 42 40  1  0  0  0  0
 42 41  1  0  0  0  0
 43 42  1  0  0  0  0
 44 46  1  6  0  0  0
 44  8  1  0  0  0  0
 44 47  1  0  0  0  0
 45 46  2  0  0  0  0
 47 48  1  0  0  0  0
 48 49  1  0  0  0  0
 49 50  1  0  0  0  0
 50 52  1  0  0  0  0
 52 51  1  6  0  0  0
 53 54  1  0  0  0  0
 56 52  1  6  0  0  0
 57 53  2  0  0  0  0
 57 55  1  0  0  0  0
 58 54  1  1  0  0  0
 58 56  1  0  0  0  0
 59 58  1  0  0  0  0
 59 55  1  1  0  0  0
 59 56  1  0  0  0  0
M  END
>  <MODEL>
6

>  <REMARK>
 VINA RESULT:      -5.5      1.626      2.643
  Name = 
  19 active torsions:
  status: ('A' for Active; 'I' for Inactive)
    1  A    between atoms: C_4  and  C_53
    2  A    between atoms: C_6  and  C_37
    3  A    between atoms: N_8  and  C_43
    4  A    between atoms: N_8  and  C_58
    5  A    between atoms: C_9  and  C_32
    6  A    between atoms: C_9  and  C_53
    7  A    between atoms: C_14  and  O_18
    8  A    between atoms: C_16  and  C_46
    9  A    between atoms: C_17  and  C_54
   10  A    between atoms: S_21  and  C_28
   11  A    between atoms: S_21  and  C_31
   12  A    between atoms: C_27  and  C_58
   13  A    between atoms: C_28  and  C_35
   14  A    between atoms: C_28  and  N_36
   15  A    between atoms: C_31  and  C_43
   16  A    between atoms: C_32  and  C_52
   17  A    between atoms: C_34  and  C_37
   18  A    between atoms: C_37  and  C_53
   19  A    between atoms: C_42  and  C_59
                            x       y       z     vdW  Elec       q    Type
                         _______ _______ _______ _____ _____    ______ ____

>  <TORSDO>
F 19

$$$$
=
 OpenBabel11042415433D

 59 64  0  0  1  0  0  0  0  0999 V2000
  187.7990  174.8320  136.6960 C   0  0  0  0  0  3  0  0  0  0  0  0
  187.8720  175.4180  139.4460 C   0  0  0  0  0  0  0  0  0  0  0  0
  186.0200  176.9750  139.1060 C   0  0  0  0  0  3  0  0  0  0  0  0
  188.7610  174.2210  137.5070 C   0  0  0  0  0  0  0  0  0  0  0  0
  186.9560  176.6810  141.3100 C   0  0  0  0  0  3  0  0  0  0  0  0
  188.7950  174.5210  138.8800 C   0  0  0  0  0  3  0  0  0  0  0  0
  186.9230  176.0440  138.5960 C   0  0  0  0  0  0  0  0  0  0  0  0
  186.0400  177.3060  140.4600 C   0  0  0  0  0  0  0  0  0  0  0  0
  186.8870  175.7380  137.2350 C   0  0  0  0  0  3  0  0  0  0  0  0
  187.8690  175.7360  140.8310 C   0  0  0  0  0  0  0  0  0  0  0  0
  192.1680  170.6530  138.7220 C   0  0  0  0  0  3  0  0  0  0  0  0
  189.4230  173.0560  135.3760 C   0  0  0  0  0  2  0  0  0  0  0  0
  190.8250  169.1920  136.7540 C   0  0  0  0  0  3  0  0  0  0  0  0
  191.7450  171.2970  137.5550 C   0  0  0  0  0  0  0  0  0  0  0  0
  191.2050  173.6120  137.0200 C   0  0  0  0  0  0  0  0  0  0  0  0
  192.0520  172.6890  137.3830 N   0  0  0  0  0  0  0  0  0  0  0  0
  189.4400  171.6270  135.0740 N   0  0  0  0  0  2  0  0  0  0  0  0
  190.7400  171.1480  135.2990 N   0  0  0  0  0  2  0  0  0  0  0  0
  191.2260  168.5670  137.9370 C   0  0  0  0  0  3  0  0  0  0  0  0
  189.7440  173.2940  136.8440 C   0  0  1  0  0  3  0  0  0  0  0  0
  191.0880  170.5510  136.5500 C   0  0  0  0  0  0  0  0  0  0  0  0
  191.9030  169.2950  138.9180 C   0  0  0  0  0  3  0  0  0  0  0  0
  191.6600  174.9010  136.7320 O   0  0  0  0  0  0  0  0  0  0  0  0
  193.0230  175.2660  136.8700 C   0  0  0  0  0  1  0  0  0  0  0  0
  189.7980  175.7230  142.4100 C   0  0  0  0  0  3  0  0  0  0  0  0
  188.7490  175.1360  141.8540 C   0  0  0  0  0  3  0  0  0  0  0  0
  191.8010  175.3180  143.6730 C   0  0  0  0  0  0  0  0  0  0  0  0
  193.0310  175.6510  143.9500 C   0  0  0  0  0  3  0  0  0  0  0  0
  190.5750  174.9770  143.3950 C   0  0  0  0  0  3  0  0  0  0  0  0
  194.0980  174.6110  143.9910 C   0  0  2  0  0  3  0  0  0  0  0  0
  195.1850  173.3200  145.6770 O   0  0  0  0  0  0  0  0  0  0  0  0
  194.5630  174.3770  145.3960 C   0  0  0  0  0  0  0  0  0  0  0  0
  194.3040  175.3070  146.3950 O   0  0  0  0  0  1  0  0  0  0  0  0
  195.2280  174.9150  142.9900 C   0  0  2  0  0  3  0  0  0  0  0  0
  196.3100  175.7390  143.6130 C   0  0  0  0  0  0  0  0  0  0  0  0
  197.4300  175.2300  143.8870 O   0  0  0  0  0  0  0  0  0  0  0  0
  196.0760  177.0780  143.8890 O   0  0  0  0  0  1  0  0  0  0  0  0
  194.7580  175.5370  141.6730 C   0  0  0  0  0  2  0  0  0  0  0  0
  193.2380  173.9090  140.5150 C   0  0  0  0  0  1  0  0  0  0  0  0
  194.6460  174.4920  140.5700 C   0  0  2  0  0  3  0  0  0  0  0  0
  197.0340  173.8540  140.1130 C   0  0  0  0  0  1  0  0  0  0  0  0
  195.7220  173.4120  140.7330 C   0  0  0  0  0  3  0  0  0  0  0  0
  195.3020  172.0680  140.1560 C   0  0  0  0  0  1  0  0  0  0  0  0
  185.0460  178.2950  140.9850 C   0  0  1  0  0  3  0  0  0  0  0  0
  182.7980  178.5660  140.6450 O   0  0  0  0  0  0  0  0  0  0  0  0
  183.8580  178.2990  140.1670 N   0  0  0  0  0  0  0  0  0  0  0  0
  184.6050  177.9130  142.7110 S   0  0  0  0  0  0  0  0  0  0  0  0
  185.8990  178.9960  143.3960 C   0  0  0  0  0  2  0  0  0  0  0  0
  186.6090  178.3390  144.5740 C   0  0  0  0  0  2  0  0  0  0  0  0
  185.6580  177.9910  145.6310 N   0  0  0  0  0  2  0  0  0  0  0  0
  185.9550  177.0780  147.7880 O   0  0  0  0  0  1  0  0  0  0  0  0
  186.1370  176.8520  146.4210 C   0  0  2  0  0  3  0  0  0  0  0  0
  190.6440  175.3130  147.1010 C   0  0  0  0  0  3  0  0  0  0  0  0
  189.2790  174.8010  146.7440 C   0  0  0  0  0  2  0  0  0  0  0  0
  189.8450  177.5350  146.4380 C   0  0  0  0  0  2  0  0  0  0  0  0
  187.5920  176.5230  146.1180 C   0  0  2  0  0  3  0  0  0  0  0  0
  190.9140  176.6130  146.9550 C   0  0  0  0  0  3  0  0  0  0  0  0
  188.1830  175.7370  147.2740 C   0  0  2  0  0  3  0  0  0  0  0  0
  188.4940  177.2400  147.1050 C   0  0  1  0  0  3  0  0  0  0  0  0
  1  9  2  0  0  0  0
  1  4  1  0  0  0  0
  2 10  1  0  0  0  0
  3  8  2  0  0  0  0
  4  6  2  0  0  0  0
  6  2  1  0  0  0  0
  7  3  1  0  0  0  0
  7  2  2  0  0  0  0
  8 44  1  0  0  0  0
  8  5  1  0  0  0  0
  9  7  1  0  0  0  0
 10  5  2  0  0  0  0
 10 26  1  0  0  0  0
 11 22  1  0  0  0  0
 12 20  1  0  0  0  0
 13 19  1  0  0  0  0
 14 11  2  0  0  0  0
 15 16  2  0  0  0  0
 16 14  1  0  0  0  0
 17 18  1  0  0  0  0
 17 12  1  0  0  0  0
 18 21  1  0  0  0  0
 19 22  2  0  0  0  0
 20 15  1  0  0  0  0
 20  4  1  6  0  0  0
 21 13  2  0  0  0  0
 21 14  1  0  0  0  0
 23 24  1  0  0  0  0
 23 15  1  0  0  0  0
 25 29  1  0  0  0  0
 26 25  2  0  0  0  0
 27 28  2  0  0  0  0
 29 27  2  0  0  0  0
 30 28  1  1  0  0  0
 30 32  1  0  0  0  0
 32 31  2  0  0  0  0
 32 33  1  0  0  0  0
 34 38  1  6  0  0  0
 34 35  1  0  0  0  0
 34 30  1  0  0  0  0
 35 36  2  0  0  0  0
 35 37  1  0  0  0  0
 40 39  1  1  0  0  0
 40 42  1  0  0  0  0
 40 38  1  0  0  0  0
 41 42  1  0  0  0  0
 43 42  1  0  0  0  0
 44 46  1  6  0  0  0
 44 47  1  0  0  0  0
 46 45  2  0  0  0  0
 47 48  1  0  0  0  0
 48 49  1  0  0  0  0
 49 50  1  0  0  0  0
 50 52  1  0  0  0  0
 52 51  1  1  0  0  0
 54 53  1  0  0  0  0
 55 57  1  0  0  0  0
 56 52  1  1  0  0  0
 56 59  1  0  0  0  0
 56 58  1  0  0  0  0
 57 53  2  0  0  0  0
 58 54  1  6  0  0  0
 59 55  1  6  0  0  0
 59 58  1  0  0  0  0
M  END
>  <MODEL>
7

>  <REMARK>
 VINA RESULT:      -5.4      2.860      6.298
  Name = 
  19 active torsions:
  status: ('A' for Active; 'I' for Inactive)
    1  A    between atoms: C_4  and  C_53
    2  A    between atoms: C_6  and  C_37
    3  A    between atoms: N_8  and  C_43
    4  A    between atoms: N_8  and  C_58
    5  A    between atoms: C_9  and  C_32
    6  A    between atoms: C_9  and  C_53
    7  A    between atoms: C_14  and  O_18
    8  A    between atoms: C_16  and  C_46
    9  A    between atoms: C_17  and  C_54
   10  A    between atoms: S_21  and  C_28
   11  A    between atoms: S_21  and  C_31
   12  A    between atoms: C_27  and  C_58
   13  A    between atoms: C_28  and  C_35
   14  A    between atoms: C_28  and  N_36
   15  A    between atoms: C_31  and  C_43
   16  A    between atoms: C_32  and  C_52
   17  A    between atoms: C_34  and  C_37
   18  A    between atoms: C_37  and  C_53
   19  A    between atoms: C_42  and  C_59
                            x       y       z     vdW  Elec       q    Type
                         _______ _______ _______ _____ _____    ______ ____

>  <TORSDO>
F 19

$$$$
=
 OpenBabel11042415433D

 59 64  0  0  1  0  0  0  0  0999 V2000
  188.4150  173.7150  140.6070 C   0  0  0  0  0  3  0  0  0  0  0  0
  189.2110  174.8900  143.0360 C   0  0  0  0  0  0  0  0  0  0  0  0
  186.9950  175.9060  143.2050 C   0  0  0  0  0  3  0  0  0  0  0  0
  189.7170  173.5140  141.0780 C   0  0  0  0  0  0  0  0  0  0  0  0
  188.6380  176.3060  144.9270 C   0  0  0  0  0  3  0  0  0  0  0  0
  190.1100  174.1080  142.2900 C   0  0  0  0  0  3  0  0  0  0  0  0
  187.9040  175.0990  142.5230 C   0  0  0  0  0  0  0  0  0  0  0  0
  187.3610  176.5220  144.4000 C   0  0  0  0  0  0  0  0  0  0  0  0
  187.5150  174.5030  141.3230 C   0  0  0  0  0  3  0  0  0  0  0  0
  189.5690  175.4940  144.2710 C   0  0  0  0  0  0  0  0  0  0  0  0
  189.6820  170.8100  136.7760 C   0  0  0  0  0  3  0  0  0  0  0  0
  192.1120  173.0210  140.4790 C   0  0  0  0  0  2  0  0  0  0  0  0
  191.9450  172.3460  136.2000 C   0  0  0  0  0  3  0  0  0  0  0  0
  190.6010  171.0900  137.7920 C   0  0  0  0  0  0  0  0  0  0  0  0
  190.4320  171.2050  140.2200 C   0  0  0  0  0  0  0  0  0  0  0  0
  190.3750  170.5400  139.0990 N   0  0  0  0  0  0  0  0  0  0  0  0
  192.8110  173.2480  139.2170 N   0  0  0  0  0  2  0  0  0  0  0  0
  192.7730  172.0570  138.4750 N   0  0  0  0  0  2  0  0  0  0  0  0
  191.0030  172.0860  135.2010 C   0  0  0  0  0  3  0  0  0  0  0  0
  190.6470  172.6950  140.2250 C   0  0  1  0  0  3  0  0  0  0  0  0
  191.7570  171.8450  137.4930 C   0  0  0  0  0  0  0  0  0  0  0  0
  189.8750  171.3130  135.4870 C   0  0  0  0  0  3  0  0  0  0  0  0
  190.3510  170.5250  141.4380 O   0  0  0  0  0  0  0  0  0  0  0  0
  191.5040  170.0640  142.1200 C   0  0  0  0  0  1  0  0  0  0  0  0
  191.0170  175.0020  146.2400 C   0  0  0  0  0  3  0  0  0  0  0  0
  190.8620  175.3330  144.9660 C   0  0  0  0  0  3  0  0  0  0  0  0
  193.3780  174.6350  145.9940 C   0  0  0  0  0  0  0  0  0  0  0  0
  194.3890  174.3590  145.2170 C   0  0  0  0  0  3  0  0  0  0  0  0
  192.3710  174.9050  146.7750 C   0  0  0  0  0  3  0  0  0  0  0  0
  195.3720  173.3100  145.6100 C   0  0  2  0  0  3  0  0  0  0  0  0
  197.3740  173.7710  146.8240 O   0  0  0  0  0  1  0  0  0  0  0  0
  196.7490  173.8890  145.7380 C   0  0  0  0  0  0  0  0  0  0  0  0
  197.3360  174.5670  144.6770 O   0  0  0  0  0  0  0  0  0  0  0  0
  195.2850  172.0760  144.6960 C   0  0  2  0  0  3  0  0  0  0  0  0
  195.5630  170.8120  145.4460 C   0  0  0  0  0  0  0  0  0  0  0  0
  196.6700  170.6340  146.0210 O   0  0  0  0  0  1  0  0  0  0  0  0
  194.5880  169.8270  145.5090 O   0  0  0  0  0  0  0  0  0  0  0  0
  196.1430  172.1610  143.4320 C   0  0  0  0  0  2  0  0  0  0  0  0
  195.2240  170.8570  141.4930 C   0  0  0  0  0  1  0  0  0  0  0  0
  195.2840  172.2210  142.1750 C   0  0  2  0  0  3  0  0  0  0  0  0
  197.2840  173.2850  141.0880 C   0  0  0  0  0  1  0  0  0  0  0  0
  195.7750  173.3260  141.2330 C   0  0  0  0  0  3  0  0  0  0  0  0
  195.3330  174.7150  141.6700 C   0  0  0  0  0  1  0  0  0  0  0  0
  186.3580  177.3680  145.1230 C   0  0  1  0  0  3  0  0  0  0  0  0
  186.3490  176.8190  147.3450 O   0  0  0  0  0  0  0  0  0  0  0  0
  186.7530  177.5550  146.4970 N   0  0  0  0  0  0  0  0  0  0  0  0
  186.1720  178.9860  144.3080 S   0  0  0  0  0  0  0  0  0  0  0  0
  184.3800  178.7760  144.0580 C   0  0  0  0  0  2  0  0  0  0  0  0
  184.0690  178.2760  142.6510 C   0  0  0  0  0  2  0  0  0  0  0  0
  182.7150  178.6550  142.2480 N   0  0  0  0  0  2  0  0  0  0  0  0
  183.2610  177.9980  140.0460 O   0  0  0  0  0  1  0  0  0  0  0  0
  182.2920  177.9200  141.0520 C   0  0  2  0  0  3  0  0  0  0  0  0
  178.2820  180.5530  140.6980 C   0  0  0  0  0  3  0  0  0  0  0  0
  179.7160  180.5490  140.2540 C   0  0  0  0  0  2  0  0  0  0  0  0
  178.5290  178.1470  141.0980 C   0  0  0  0  0  2  0  0  0  0  0  0
  180.9420  178.4000  140.5380 C   0  0  2  0  0  3  0  0  0  0  0  0
  177.7170  179.4110  141.0990 C   0  0  0  0  0  3  0  0  0  0  0  0
  180.5840  179.7140  141.2070 C   0  0  2  0  0  3  0  0  0  0  0  0
  179.9330  178.3930  141.6700 C   0  0  1  0  0  3  0  0  0  0  0  0
  1  4  2  0  0  0  0
  1  9  1  0  0  0  0
  2 10  1  0  0  0  0
  3  8  2  0  0  0  0
  4  6  1  0  0  0  0
  6  2  2  0  0  0  0
  7  2  1  0  0  0  0
  7  3  1  0  0  0  0
  8  5  1  0  0  0  0
  8 44  1  0  0  0  0
  9  7  2  0  0  0  0
 10  5  2  0  0  0  0
 10 26  1  0  0  0  0
 11 14  1  0  0  0  0
 13 21  1  0  0  0  0
 14 16  1  0  0  0  0
 15 20  1  0  0  0  0
 15 23  1  0  0  0  0
 16 15  2  0  0  0  0
 17 12  1  0  0  0  0
 18 17  1  0  0  0  0
 19 22  1  0  0  0  0
 19 13  2  0  0  0  0
 20 12  1  0  0  0  0
 20  4  1  1  0  0  0
 21 14  2  0  0  0  0
 21 18  1  0  0  0  0
 22 11  2  0  0  0  0
 23 24  1  0  0  0  0
 25 29  1  0  0  0  0
 26 25  2  0  0  0  0
 27 29  2  0  0  0  0
 28 27  2  0  0  0  0
 30 28  1  6  0  0  0
 30 32  1  0  0  0  0
 32 31  1  0  0  0  0
 33 32  2  0  0  0  0
 34 38  1  6  0  0  0
 34 35  1  0  0  0  0
 34 30  1  0  0  0  0
 35 37  2  0  0  0  0
 35 36  1  0  0  0  0
 40 39  1  6  0  0  0
 40 38  1  0  0  0  0
 41 42  1  0  0  0  0
 42 43  1  0  0  0  0
 42 40  1  0  0  0  0
 44 47  1  6  0  0  0
 44 46  1  0  0  0  0
 46 45  2  0  0  0  0
 48 47  1  0  0  0  0
 49 48  1  0  0  0  0
 50 49  1  0  0  0  0
 52 51  1  6  0  0  0
 52 50  1  0  0  0  0
 53 57  2  0  0  0  0
 54 53  1  0  0  0  0
 55 57  1  0  0  0  0
 56 52  1  1  0  0  0
 56 58  1  0  0  0  0
 56 59  1  0  0  0  0
 58 54  1  6  0  0  0
 58 59  1  0  0  0  0
 59 55  1  6  0  0  0
M  END
>  <MODEL>
8

>  <REMARK>
 VINA RESULT:      -5.3      3.360      7.343
  Name = 
  19 active torsions:
  status: ('A' for Active; 'I' for Inactive)
    1  A    between atoms: C_4  and  C_53
    2  A    between atoms: C_6  and  C_37
    3  A    between atoms: N_8  and  C_43
    4  A    between atoms: N_8  and  C_58
    5  A    between atoms: C_9  and  C_32
    6  A    between atoms: C_9  and  C_53
    7  A    between atoms: C_14  and  O_18
    8  A    between atoms: C_16  and  C_46
    9  A    between atoms: C_17  and  C_54
   10  A    between atoms: S_21  and  C_28
   11  A    between atoms: S_21  and  C_31
   12  A    between atoms: C_27  and  C_58
   13  A    between atoms: C_28  and  C_35
   14  A    between atoms: C_28  and  N_36
   15  A    between atoms: C_31  and  C_43
   16  A    between atoms: C_32  and  C_52
   17  A    between atoms: C_34  and  C_37
   18  A    between atoms: C_37  and  C_53
   19  A    between atoms: C_42  and  C_59
                            x       y       z     vdW  Elec       q    Type
                         _______ _______ _______ _____ _____    ______ ____

>  <TORSDO>
F 19

$$$$
=
 OpenBabel11042415433D

 59 64  0  0  1  0  0  0  0  0999 V2000
  191.1060  177.8840  143.9950 C   0  0  0  0  0  3  0  0  0  0  0  0
  189.5270  176.1500  142.4400 C   0  0  0  0  0  0  0  0  0  0  0  0
  188.2550  178.0890  141.6710 C   0  0  0  0  0  3  0  0  0  0  0  0
  191.3450  176.5060  144.0390 C   0  0  0  0  0  0  0  0  0  0  0  0
  187.6770  175.8820  140.8860 C   0  0  0  0  0  3  0  0  0  0  0  0
  190.5490  175.6450  143.2630 C   0  0  0  0  0  3  0  0  0  0  0  0
  189.2890  177.5500  142.4350 C   0  0  0  0  0  0  0  0  0  0  0  0
  187.4380  177.2600  140.9050 C   0  0  0  0  0  0  0  0  0  0  0  0
  190.0840  178.4030  143.2010 C   0  0  0  0  0  3  0  0  0  0  0  0
  188.7120  175.3110  141.6340 C   0  0  0  0  0  0  0  0  0  0  0  0
  194.4360  172.5170  144.6270 C   0  0  0  0  0  3  0  0  0  0  0  0
  193.0790  177.1440  145.7480 C   0  0  0  0  0  2  0  0  0  0  0  0
  196.3920  174.5020  144.8320 C   0  0  0  0  0  3  0  0  0  0  0  0
  194.1520  173.6940  145.3280 C   0  0  0  0  0  0  0  0  0  0  0  0
  192.0850  174.8660  145.8670 C   0  0  0  0  0  0  0  0  0  0  0  0
  192.8710  173.8290  145.9610 N   0  0  0  0  0  0  0  0  0  0  0  0
  194.5340  177.0570  145.6610 N   0  0  0  0  0  2  0  0  0  0  0  0
  194.9370  175.8500  146.2510 N   0  0  0  0  0  2  0  0  0  0  0  0
  196.6520  173.3360  144.1080 C   0  0  0  0  0  3  0  0  0  0  0  0
  192.4300  176.0160  144.9590 C   0  0  1  0  0  3  0  0  0  0  0  0
  195.1500  174.6850  145.4510 C   0  0  0  0  0  0  0  0  0  0  0  0
  195.6770  172.3400  144.0110 C   0  0  0  0  0  3  0  0  0  0  0  0
  190.9370  174.9450  146.6580 O   0  0  0  0  0  0  0  0  0  0  0  0
  189.7810  174.1700  146.3870 C   0  0  0  0  0  1  0  0  0  0  0  0
  189.1530  173.0000  142.4590 C   0  0  0  0  0  3  0  0  0  0  0  0
  188.8630  173.8500  141.4850 C   0  0  0  0  0  3  0  0  0  0  0  0
  190.4500  171.0000  142.1680 C   0  0  0  0  0  0  0  0  0  0  0  0
  191.6130  170.4110  142.1940 C   0  0  0  0  0  3  0  0  0  0  0  0
  189.2860  171.5840  142.1340 C   0  0  0  0  0  3  0  0  0  0  0  0
  192.0450  169.5530  141.0550 C   0  0  2  0  0  3  0  0  0  0  0  0
  193.9400  168.2170  140.4920 O   0  0  0  0  0  0  0  0  0  0  0  0
  193.4790  169.1420  141.2090 C   0  0  0  0  0  0  0  0  0  0  0  0
  194.2990  169.7610  142.1440 O   0  0  0  0  0  1  0  0  0  0  0  0
  191.7110  170.1970  139.6980 C   0  0  2  0  0  3  0  0  0  0  0  0
  191.4940  169.1660  138.6360 C   0  0  0  0  0  0  0  0  0  0  0  0
  190.4330  168.4870  138.6040 O   0  0  0  0  0  1  0  0  0  0  0  0
  192.4740  168.9580  137.6760 O   0  0  0  0  0  0  0  0  0  0  0  0
  192.7140  171.2550  139.2350 C   0  0  0  0  0  2  0  0  0  0  0  0
  191.6810  173.3420  138.2950 C   0  0  0  0  0  1  0  0  0  0  0  0
  192.2250  172.6640  139.5480 C   0  0  2  0  0  3  0  0  0  0  0  0
  194.6080  172.6780  140.3460 C   0  0  0  0  0  1  0  0  0  0  0  0
  193.3290  173.4840  140.2250 C   0  0  0  0  0  3  0  0  0  0  0  0
  192.9190  174.0140  141.5920 C   0  0  0  0  0  1  0  0  0  0  0  0
  186.3480  177.8680  140.0790 C   0  0  1  0  0  3  0  0  0  0  0  0
  187.0650  177.0250  138.0750 O   0  0  0  0  0  0  0  0  0  0  0  0
  186.1680  177.1260  138.8560 N   0  0  0  0  0  0  0  0  0  0  0  0
  184.7830  177.9150  141.0090 S   0  0  0  0  0  0  0  0  0  0  0  0
  185.4690  178.9720  142.3240 C   0  0  0  0  0  2  0  0  0  0  0  0
  184.5660  178.9900  143.5520 C   0  0  0  0  0  2  0  0  0  0  0  0
  184.5600  177.6860  144.2170 N   0  0  0  0  0  2  0  0  0  0  0  0
  185.9340  175.8150  143.7850 O   0  0  0  0  0  1  0  0  0  0  0  0
  185.9100  177.1200  144.2860 C   0  0  2  0  0  3  0  0  0  0  0  0
  187.4710  178.9330  148.4600 C   0  0  0  0  0  3  0  0  0  0  0  0
  186.2030  178.5260  147.7680 C   0  0  0  0  0  2  0  0  0  0  0  0
  188.6590  177.5340  146.8330 C   0  0  0  0  0  2  0  0  0  0  0  0
  186.4730  177.1650  145.7000 C   0  0  2  0  0  3  0  0  0  0  0  0
  188.6400  178.4610  148.0160 C   0  0  0  0  0  3  0  0  0  0  0  0
  186.3670  178.5780  146.2420 C   0  0  2  0  0  3  0  0  0  0  0  0
  187.7160  178.0320  145.7280 C   0  0  1  0  0  3  0  0  0  0  0  0
  1  4  1  0  0  0  0
  2  6  1  0  0  0  0
  3  7  2  0  0  0  0
  5  8  2  0  0  0  0
  5 10  1  0  0  0  0
  6  4  2  0  0  0  0
  7  2  1  0  0  0  0
  7  9  1  0  0  0  0
  8  3  1  0  0  0  0
  9  1  2  0  0  0  0
 10  2  2  0  0  0  0
 11 14  1  0  0  0  0
 13 21  1  0  0  0  0
 14 21  2  0  0  0  0
 14 16  1  0  0  0  0
 15 16  2  0  0  0  0
 15 23  1  0  0  0  0
 17 12  1  0  0  0  0
 17 18  1  0  0  0  0
 19 13  2  0  0  0  0
 20  4  1  1  0  0  0
 20 12  1  0  0  0  0
 20 15  1  0  0  0  0
 21 18  1  0  0  0  0
 22 19  1  0  0  0  0
 22 11  2  0  0  0  0
 24 23  1  0  0  0  0
 26 10  1  0  0  0  0
 26 25  2  0  0  0  0
 27 28  2  0  0  0  0
 29 27  2  0  0  0  0
 29 25  1  0  0  0  0
 30 32  1  0  0  0  0
 30 28  1  1  0  0  0
 31 32  2  0  0  0  0
 32 33  1  0  0  0  0
 34 38  1  6  0  0  0
 34 30  1  0  0  0  0
 35 34  1  0  0  0  0
 36 35  1  0  0  0  0
 37 35  2  0  0  0  0
 38 40  1  0  0  0  0
 40 39  1  6  0  0  0
 40 42  1  0  0  0  0
 42 41  1  0  0  0  0
 42 43  1  0  0  0  0
 44 46  1  6  0  0  0
 44  8  1  0  0  0  0
 44 47  1  0  0  0  0
 45 46  2  0  0  0  0
 47 48  1  0  0  0  0
 48 49  1  0  0  0  0
 49 50  1  0  0  0  0
 50 52  1  0  0  0  0
 52 51  1  1  0  0  0
 54 53  1  0  0  0  0
 55 57  1  0  0  0  0
 56 52  1  6  0  0  0
 56 59  1  0  0  0  0
 56 58  1  0  0  0  0
 57 53  2  0  0  0  0
 58 54  1  1  0  0  0
 59 58  1  0  0  0  0
 59 55  1  1  0  0  0
M  END
>  <MODEL>
9

>  <REMARK>
 VINA RESULT:      -5.2      1.735      2.356
  Name = 
  19 active torsions:
  status: ('A' for Active; 'I' for Inactive)
    1  A    between atoms: C_4  and  C_53
    2  A    between atoms: C_6  and  C_37
    3  A    between atoms: N_8  and  C_43
    4  A    between atoms: N_8  and  C_58
    5  A    between atoms: C_9  and  C_32
    6  A    between atoms: C_9  and  C_53
    7  A    between atoms: C_14  and  O_18
    8  A    between atoms: C_16  and  C_46
    9  A    between atoms: C_17  and  C_54
   10  A    between atoms: S_21  and  C_28
   11  A    between atoms: S_21  and  C_31
   12  A    between atoms: C_27  and  C_58
   13  A    between atoms: C_28  and  C_35
   14  A    between atoms: C_28  and  N_36
   15  A    between atoms: C_31  and  C_43
   16  A    between atoms: C_32  and  C_52
   17  A    between atoms: C_34  and  C_37
   18  A    between atoms: C_37  and  C_53
   19  A    between atoms: C_42  and  C_59
                            x       y       z     vdW  Elec       q    Type
                         _______ _______ _______ _____ _____    ______ ____

>  <TORSDO>
F 19

$$$$
