=
 OpenBabel11042419543D

 41 47  0  0  1  0  0  0  0  0999 V2000
  187.4710  176.0680  143.5240 C   0  0  0  0  0  2  0  0  0  0  0  0
  188.2550  175.8870  142.2300 C   0  0  0  0  0  2  0  0  0  0  0  0
  190.4250  176.2520  143.5780 C   0  0  2  0  0  3  0  0  0  0  0  0
  188.1930  177.0510  144.4460 C   0  0  2  0  0  3  0  0  0  0  0  0
  190.3070  174.6460  141.7360 N   0  0  0  0  0  0  0  0  0  0  0  0
  189.5580  176.4740  144.8180 C   0  0  0  0  0  2  0  0  0  0  0  0
  189.6710  175.4690  142.5220 C   0  0  0  0  0  0  0  0  0  0  0  0
  191.0430  171.7960  141.0380 N   0  0  0  0  0  0  0  0  0  0  0  0
  190.1390  170.6810  139.3300 O   0  0  0  0  0  0  0  0  0  0  0  0
  189.5950  171.8660  139.3690 C   0  0  0  0  0  0  0  0  0  0  0  0
  188.8230  174.4380  139.8320 N   0  0  0  0  0  0  0  0  0  0  0  0
  188.2750  173.7520  138.7790 C   0  0  0  0  0  3  0  0  0  0  0  0
  190.1240  172.5510  140.4130 C   0  0  0  0  0  0  0  0  0  0  0  0
  189.7310  173.8670  140.6790 C   0  0  0  0  0  0  0  0  0  0  0  0
  188.6500  172.4230  138.5150 C   0  0  0  0  0  3  0  0  0  0  0  0
  191.0080  170.6360  140.3280 C   0  0  0  0  0  3  0  0  0  0  0  0
  184.3210  178.3710  146.8690 C   0  0  0  0  0  2  0  0  0  0  0  0
  185.4370  178.8110  144.8360 C   0  0  0  0  0  3  0  0  0  0  0  0
  187.3880  177.3290  145.6820 C   0  0  0  0  0  0  0  0  0  0  0  0
  185.7030  177.9580  146.9420 N   0  0  0  0  0  0  0  0  0  0  0  0
  184.2610  178.9470  145.4690 C   0  0  0  0  0  3  0  0  0  0  0  0
  186.3130  178.1810  145.8020 C   0  0  0  0  0  0  0  0  0  0  0  0
  187.3080  176.5340  146.8330 C   0  0  0  0  0  3  0  0  0  0  0  0
  186.2390  176.9280  147.5700 N   0  0  0  0  0  0  0  0  0  0  0  0
  193.9740  175.3020  145.8190 C   0  0  0  0  0  0  0  0  0  0  0  0
  193.6930  176.7040  145.3530 C   0  0  0  0  0  2  0  0  0  0  0  0
  191.6420  174.7920  145.2670 C   0  0  0  0  0  2  0  0  0  0  0  0
  193.0000  174.3860  145.7600 C   0  0  0  0  0  3  0  0  0  0  0  0
  192.9250  176.6830  144.0260 C   0  0  0  0  0  2  0  0  0  0  0  0
  191.7730  175.6480  143.9970 C   0  0  2  0  0  3  0  0  0  0  0  0
  195.3500  174.9080  146.2380 C   0  0  0  0  0  2  0  0  0  0  0  0
  195.7110  173.5680  145.6290 C   0  0  0  0  0  2  0  0  0  0  0  0
  196.4140  173.7780  144.3740 N   0  0  0  0  0  2  0  0  0  0  0  0
  197.3060  176.3430  143.3680 F   0  0  0  0  0  0  0  0  0  0  0  0
  195.8540  174.4180  143.2200 C   0  0  0  0  0  0  0  0  0  0  0  0
  195.7170  176.2380  141.6090 C   0  0  0  0  0  0  0  0  0  0  0  0
  196.3050  175.6690  142.7470 C   0  0  0  0  0  0  0  0  0  0  0  0
  194.8230  173.7610  142.5390 C   0  0  0  0  0  3  0  0  0  0  0  0
  196.1430  177.4400  141.1490 F   0  0  0  0  0  0  0  0  0  0  0  0
  194.2420  174.3320  141.4050 C   0  0  0  0  0  3  0  0  0  0  0  0
  194.6890  175.5700  140.9410 C   0  0  0  0  0  3  0  0  0  0  0  0
  1  4  1  0  0  0  0
  2  7  1  0  0  0  0
  2  1  1  0  0  0  0
  3 30  1  0  0  0  0
  3  6  1  1  0  0  0
  4  6  1  0  0  0  0
  4 19  1  1  0  0  0
  5  7  2  0  0  0  0
  7  3  1  0  0  0  0
  9 10  1  0  0  0  0
  9 16  1  0  0  0  0
 10 13  2  0  0  0  0
 11 14  2  0  0  0  0
 12 11  1  0  0  0  0
 13 14  1  0  0  0  0
 13  8  1  0  0  0  0
 14  5  1  0  0  0  0
 15 12  2  0  0  0  0
 15 10  1  0  0  0  0
 16  8  2  0  0  0  0
 17 20  1  0  0  0  0
 18 21  2  0  0  0  0
 18 22  1  0  0  0  0
 19 22  2  0  0  0  0
 19 23  1  0  0  0  0
 20 24  1  0  0  0  0
 21 17  1  0  0  0  0
 22 20  1  0  0  0  0
 23 24  2  0  0  0  0
 25 31  1  0  0  0  0
 26 25  1  0  0  0  0
 27 28  1  0  0  0  0
 28 25  2  0  0  0  0
 29 26  1  0  0  0  0
 30 29  1  1  0  0  0
 30 27  1  0  0  0  0
 32 31  1  0  0  0  0
 33 32  1  0  0  0  0
 35 33  1  0  0  0  0
 36 37  2  0  0  0  0
 37 35  1  0  0  0  0
 37 34  1  0  0  0  0
 38 35  2  0  0  0  0
 39 36  1  0  0  0  0
 40 38  1  0  0  0  0
 41 40  2  0  0  0  0
 41 36  1  0  0  0  0
M  END
>  <MODEL>
1

>  <REMARK>
 VINA RESULT:      -8.6      0.000      0.000
  Name = 
  7 active torsions:
  status: ('A' for Active; 'I' for Inactive)
    1  A    between atoms: C_5  and  C_6
    2  A    between atoms: C_5  and  C_12
    3  A    between atoms: C_12  and  N_14
    4  A    between atoms: N_14  and  C_16
    5  A    between atoms: C_15  and  C_31
    6  A    between atoms: C_26  and  C_37
    7  A    between atoms: C_30  and  N_36
                            x       y       z     vdW  Elec       q    Type
                         _______ _______ _______ _____ _____    ______ ____

>  <TORSDO>
F 7

$$$$
=
 OpenBabel11042419543D

 41 47  0  0  1  0  0  0  0  0999 V2000
  192.5780  173.9900  141.7080 C   0  0  0  0  0  2  0  0  0  0  0  0
  191.5460  172.9970  141.1870 C   0  0  0  0  0  2  0  0  0  0  0  0
  189.6970  174.6280  141.9510 C   0  0  2  0  0  3  0  0  0  0  0  0
  192.0250  174.7380  142.9220 C   0  0  2  0  0  3  0  0  0  0  0  0
  189.4930  173.3210  139.8930 N   0  0  0  0  0  0  0  0  0  0  0  0
  190.7970  175.5410  142.4950 C   0  0  0  0  0  2  0  0  0  0  0  0
  190.2440  173.6920  140.8910 C   0  0  0  0  0  0  0  0  0  0  0  0
  190.8220  174.1010  137.2890 N   0  0  0  0  0  0  0  0  0  0  0  0
  191.3060  172.6390  135.6750 O   0  0  0  0  0  0  0  0  0  0  0  0
  190.7630  171.9820  136.6630 C   0  0  0  0  0  0  0  0  0  0  0  0
  189.5430  171.0970  138.9330 N   0  0  0  0  0  0  0  0  0  0  0  0
  189.8360  170.2020  137.9360 C   0  0  0  0  0  3  0  0  0  0  0  0
  190.4770  172.8570  137.6590 C   0  0  0  0  0  0  0  0  0  0  0  0
  189.8660  172.4220  138.8390 C   0  0  0  0  0  0  0  0  0  0  0  0
  190.4680  170.6270  136.7530 C   0  0  0  0  0  3  0  0  0  0  0  0
  191.3420  173.9100  136.0480 C   0  0  0  0  0  3  0  0  0  0  0  0
  194.3510  176.8820  146.4700 C   0  0  0  0  0  2  0  0  0  0  0  0
  192.2050  176.0620  145.9320 C   0  0  0  0  0  3  0  0  0  0  0  0
  193.0610  175.6450  143.5200 C   0  0  0  0  0  0  0  0  0  0  0  0
  194.1970  176.7490  145.0410 N   0  0  0  0  0  0  0  0  0  0  0  0
  192.9840  176.4440  146.9540 C   0  0  0  0  0  3  0  0  0  0  0  0
  193.0110  176.2700  144.7470 C   0  0  0  0  0  0  0  0  0  0  0  0
  194.4090  175.7440  143.1540 C   0  0  0  0  0  3  0  0  0  0  0  0
  195.0860  176.4020  144.1290 N   0  0  0  0  0  0  0  0  0  0  0  0
  186.3400  177.3190  142.0020 C   0  0  0  0  0  0  0  0  0  0  0  0
  186.3280  176.0360  142.7850 C   0  0  0  0  0  2  0  0  0  0  0  0
  188.7510  176.9780  141.7320 C   0  0  0  0  0  2  0  0  0  0  0  0
  187.4930  177.7580  141.4840 C   0  0  0  0  0  3  0  0  0  0  0  0
  187.1460  174.9590  142.0610 C   0  0  0  0  0  2  0  0  0  0  0  0
  188.4970  175.4780  141.5110 C   0  0  2  0  0  3  0  0  0  0  0  0
  185.0650  178.0380  141.7110 C   0  0  0  0  0  2  0  0  0  0  0  0
  184.2790  178.2350  142.9920 C   0  0  0  0  0  2  0  0  0  0  0  0
  185.0500  179.0530  143.9140 N   0  0  0  0  0  2  0  0  0  0  0  0
  187.7270  178.3180  144.7390 F   0  0  0  0  0  0  0  0  0  0  0  0
  185.3930  178.6740  145.2530 C   0  0  0  0  0  0  0  0  0  0  0  0
  186.9760  177.9630  146.9610 C   0  0  0  0  0  0  0  0  0  0  0  0
  186.7060  178.3190  145.6340 C   0  0  0  0  0  0  0  0  0  0  0  0
  184.3780  178.6660  146.2150 C   0  0  0  0  0  3  0  0  0  0  0  0
  188.2330  177.6200  147.3340 F   0  0  0  0  0  0  0  0  0  0  0  0
  184.6520  178.3100  147.5380 C   0  0  0  0  0  3  0  0  0  0  0  0
  185.9500  177.9590  147.9100 C   0  0  0  0  0  3  0  0  0  0  0  0
  1  4  1  0  0  0  0
  2  1  1  0  0  0  0
  3  6  1  6  0  0  0
  4 19  1  6  0  0  0
  5  7  2  0  0  0  0
  6  4  1  0  0  0  0
  7  2  1  0  0  0  0
  7  3  1  0  0  0  0
  8 13  1  0  0  0  0
  9 16  1  0  0  0  0
  9 10  1  0  0  0  0
 10 15  1  0  0  0  0
 10 13  2  0  0  0  0
 12 11  1  0  0  0  0
 13 14  1  0  0  0  0
 14 11  2  0  0  0  0
 14  5  1  0  0  0  0
 15 12  2  0  0  0  0
 16  8  2  0  0  0  0
 17 21  1  0  0  0  0
 18 21  2  0  0  0  0
 19 22  2  0  0  0  0
 20 17  1  0  0  0  0
 22 20  1  0  0  0  0
 22 18  1  0  0  0  0
 23 19  1  0  0  0  0
 23 24  2  0  0  0  0
 24 20  1  0  0  0  0
 25 26  1  0  0  0  0
 28 27  1  0  0  0  0
 28 25  2  0  0  0  0
 29 26  1  0  0  0  0
 30 27  1  1  0  0  0
 30  3  1  0  0  0  0
 30 29  1  0  0  0  0
 31 25  1  0  0  0  0
 31 32  1  0  0  0  0
 32 33  1  0  0  0  0
 33 35  1  0  0  0  0
 34 37  1  0  0  0  0
 35 37  2  0  0  0  0
 35 38  1  0  0  0  0
 36 39  1  0  0  0  0
 36 41  2  0  0  0  0
 37 36  1  0  0  0  0
 38 40  2  0  0  0  0
 40 41  1  0  0  0  0
M  END
>  <MODEL>
2

>  <REMARK>
 VINA RESULT:      -8.4      2.967      7.800
  Name = 
  7 active torsions:
  status: ('A' for Active; 'I' for Inactive)
    1  A    between atoms: C_5  and  C_6
    2  A    between atoms: C_5  and  C_12
    3  A    between atoms: C_12  and  N_14
    4  A    between atoms: N_14  and  C_16
    5  A    between atoms: C_15  and  C_31
    6  A    between atoms: C_26  and  C_37
    7  A    between atoms: C_30  and  N_36
                            x       y       z     vdW  Elec       q    Type
                         _______ _______ _______ _____ _____    ______ ____

>  <TORSDO>
F 7

$$$$
=
 OpenBabel11042419543D

 41 47  0  0  1  0  0  0  0  0999 V2000
  189.1690  173.3920  139.1440 C   0  0  0  0  0  2  0  0  0  0  0  0
  188.1910  173.9260  140.1830 C   0  0  0  0  0  2  0  0  0  0  0  0
  190.0220  173.5910  141.9720 C   0  0  2  0  0  3  0  0  0  0  0  0
  190.0930  172.3500  139.7740 C   0  0  2  0  0  3  0  0  0  0  0  0
  188.4930  175.4990  142.0360 N   0  0  0  0  0  0  0  0  0  0  0  0
  190.9190  173.0160  140.8740 C   0  0  0  0  0  2  0  0  0  0  0  0
  188.9310  174.4610  141.3810 C   0  0  0  0  0  0  0  0  0  0  0  0
  186.2770  176.5820  143.7880 N   0  0  0  0  0  0  0  0  0  0  0  0
  184.6560  177.9140  143.0300 O   0  0  0  0  0  0  0  0  0  0  0  0
  185.4550  177.6450  142.0340 C   0  0  0  0  0  0  0  0  0  0  0  0
  187.3560  176.7490  140.2990 N   0  0  0  0  0  0  0  0  0  0  0  0
  186.3540  177.5620  139.8350 C   0  0  0  0  0  3  0  0  0  0  0  0
  186.4550  176.8490  142.4840 C   0  0  0  0  0  0  0  0  0  0  0  0
  187.4510  176.3900  141.6150 C   0  0  0  0  0  0  0  0  0  0  0  0
  185.3590  178.0440  140.7050 C   0  0  0  0  0  3  0  0  0  0  0  0
  185.1460  177.2770  144.0820 C   0  0  0  0  0  3  0  0  0  0  0  0
  191.4490  169.0080  136.6760 C   0  0  0  0  0  2  0  0  0  0  0  0
  190.2820  169.2370  138.7150 C   0  0  0  0  0  3  0  0  0  0  0  0
  190.9950  171.7300  138.7470 C   0  0  0  0  0  0  0  0  0  0  0  0
  191.7810  170.2570  137.3200 N   0  0  0  0  0  0  0  0  0  0  0  0
  190.4940  168.4040  137.6850 C   0  0  0  0  0  3  0  0  0  0  0  0
  191.1120  170.3920  138.4410 C   0  0  0  0  0  0  0  0  0  0  0  0
  191.6000  172.3710  137.6590 C   0  0  0  0  0  3  0  0  0  0  0  0
  192.0450  171.4340  136.7830 N   0  0  0  0  0  0  0  0  0  0  0  0
  193.2480  174.4800  144.6770 C   0  0  0  0  0  0  0  0  0  0  0  0
  192.4400  173.2200  144.8080 C   0  0  0  0  0  2  0  0  0  0  0  0
  192.2360  174.7420  142.4610 C   0  0  0  0  0  2  0  0  0  0  0  0
  193.1350  175.2160  143.5650 C   0  0  0  0  0  3  0  0  0  0  0  0
  190.9950  173.4590  144.3530 C   0  0  0  0  0  2  0  0  0  0  0  0
  190.8900  174.2720  143.0380 C   0  0  2  0  0  3  0  0  0  0  0  0
  194.0800  174.9660  145.8160 C   0  0  0  0  0  2  0  0  0  0  0  0
  193.8870  176.4590  145.9970 C   0  0  0  0  0  2  0  0  0  0  0  0
  192.8140  176.6980  146.9480 N   0  0  0  0  0  2  0  0  0  0  0  0
  191.3440  174.7950  148.5620 F   0  0  0  0  0  0  0  0  0  0  0  0
  191.4370  176.3650  146.7280 C   0  0  0  0  0  0  0  0  0  0  0  0
  189.3920  175.1570  147.2620 C   0  0  0  0  0  0  0  0  0  0  0  0
  190.7390  175.4340  147.5280 C   0  0  0  0  0  0  0  0  0  0  0  0
  190.7660  177.0020  145.6780 C   0  0  0  0  0  3  0  0  0  0  0  0
  188.7160  174.2630  148.0250 F   0  0  0  0  0  0  0  0  0  0  0  0
  189.4220  176.7230  145.4190 C   0  0  0  0  0  3  0  0  0  0  0  0
  188.7360  175.8010  146.2110 C   0  0  0  0  0  3  0  0  0  0  0  0
  1  4  1  0  0  0  0
  1  2  1  0  0  0  0
  2  7  1  0  0  0  0
  3  6  1  6  0  0  0
  3 30  1  0  0  0  0
  4 19  1  6  0  0  0
  4  6  1  0  0  0  0
  7  3  1  0  0  0  0
  7  5  2  0  0  0  0
  8 16  2  0  0  0  0
  9 16  1  0  0  0  0
 10 13  2  0  0  0  0
 10  9  1  0  0  0  0
 11 14  2  0  0  0  0
 12 11  1  0  0  0  0
 12 15  2  0  0  0  0
 13  8  1  0  0  0  0
 14  5  1  0  0  0  0
 14 13  1  0  0  0  0
 15 10  1  0  0  0  0
 17 20  1  0  0  0  0
 17 21  1  0  0  0  0
 20 22  1  0  0  0  0
 21 18  2  0  0  0  0
 22 18  1  0  0  0  0
 22 19  2  0  0  0  0
 23 19  1  0  0  0  0
 24 20  1  0  0  0  0
 24 23  2  0  0  0  0
 25 26  1  0  0  0  0
 25 31  1  0  0  0  0
 27 28  1  0  0  0  0
 28 25  2  0  0  0  0
 29 26  1  0  0  0  0
 30 27  1  6  0  0  0
 30 29  1  0  0  0  0
 31 32  1  0  0  0  0
 32 33  1  0  0  0  0
 35 33  1  0  0  0  0
 35 37  1  0  0  0  0
 36 37  2  0  0  0  0
 36 39  1  0  0  0  0
 37 34  1  0  0  0  0
 38 35  2  0  0  0  0
 40 38  1  0  0  0  0
 40 41  2  0  0  0  0
 41 36  1  0  0  0  0
M  END
>  <MODEL>
3

>  <REMARK>
 VINA RESULT:      -8.4      3.444      7.735
  Name = 
  7 active torsions:
  status: ('A' for Active; 'I' for Inactive)
    1  A    between atoms: C_5  and  C_6
    2  A    between atoms: C_5  and  C_12
    3  A    between atoms: C_12  and  N_14
    4  A    between atoms: N_14  and  C_16
    5  A    between atoms: C_15  and  C_31
    6  A    between atoms: C_26  and  C_37
    7  A    between atoms: C_30  and  N_36
                            x       y       z     vdW  Elec       q    Type
                         _______ _______ _______ _____ _____    ______ ____

>  <TORSDO>
F 7

$$$$
=
 OpenBabel11042419543D

 41 47  0  0  1  0  0  0  0  0999 V2000
  187.6340  176.1080  143.1370 C   0  0  0  0  0  2  0  0  0  0  0  0
  188.5480  175.8610  141.9430 C   0  0  0  0  0  2  0  0  0  0  0  0
  190.5690  176.1040  143.5310 C   0  0  2  0  0  3  0  0  0  0  0  0
  188.3070  177.0540  144.1310 C   0  0  2  0  0  3  0  0  0  0  0  0
  190.5590  174.4860  141.6960 N   0  0  0  0  0  0  0  0  0  0  0  0
  189.5810  176.3970  144.6610 C   0  0  0  0  0  2  0  0  0  0  0  0
  189.8910  175.3570  142.3980 C   0  0  0  0  0  0  0  0  0  0  0  0
  192.0510  173.9260  139.1240 N   0  0  0  0  0  0  0  0  0  0  0  0
  191.1660  172.7950  137.4160 O   0  0  0  0  0  0  0  0  0  0  0  0
  190.2780  172.8430  138.3700 C   0  0  0  0  0  0  0  0  0  0  0  0
  188.7720  173.2700  140.6010 N   0  0  0  0  0  0  0  0  0  0  0  0
  188.2290  172.5810  139.5470 C   0  0  0  0  0  3  0  0  0  0  0  0
  190.8070  173.5140  139.4220 C   0  0  0  0  0  0  0  0  0  0  0  0
  190.0580  173.7310  140.5830 C   0  0  0  0  0  0  0  0  0  0  0  0
  188.9810  172.3410  138.3820 C   0  0  0  0  0  3  0  0  0  0  0  0
  192.2300  173.4440  137.8650 C   0  0  0  0  0  3  0  0  0  0  0  0
  184.3070  178.7180  146.0880 C   0  0  0  0  0  2  0  0  0  0  0  0
  185.7000  179.0640  144.2140 C   0  0  0  0  0  3  0  0  0  0  0  0
  187.3860  177.3990  145.2650 C   0  0  0  0  0  0  0  0  0  0  0  0
  185.6240  178.1750  146.3210 N   0  0  0  0  0  0  0  0  0  0  0  0
  184.4740  179.3060  144.7020 C   0  0  0  0  0  3  0  0  0  0  0  0
  186.3880  178.3480  145.2680 C   0  0  0  0  0  0  0  0  0  0  0  0
  187.0920  176.6070  146.3820 C   0  0  0  0  0  3  0  0  0  0  0  0
  185.9810  177.0950  146.9910 N   0  0  0  0  0  0  0  0  0  0  0  0
  194.1940  175.3660  145.7280 C   0  0  0  0  0  0  0  0  0  0  0  0
  194.1250  176.4240  144.6620 C   0  0  0  0  0  2  0  0  0  0  0  0
  191.7460  175.3000  145.6360 C   0  0  0  0  0  2  0  0  0  0  0  0
  193.0590  174.8170  146.1780 C   0  0  0  0  0  3  0  0  0  0  0  0
  193.1420  176.0100  143.5590 C   0  0  0  0  0  2  0  0  0  0  0  0
  191.8170  175.4210  144.1040 C   0  0  2  0  0  3  0  0  0  0  0  0
  195.5140  174.8540  146.1990 C   0  0  0  0  0  2  0  0  0  0  0  0
  196.3820  174.4930  145.0100 C   0  0  0  0  0  2  0  0  0  0  0  0
  196.1470  173.1070  144.6400 N   0  0  0  0  0  2  0  0  0  0  0  0
  194.0320  171.5350  145.8410 F   0  0  0  0  0  0  0  0  0  0  0  0
  195.0010  172.6350  143.9210 C   0  0  0  0  0  0  0  0  0  0  0  0
  192.8830  171.4430  143.7680 C   0  0  0  0  0  0  0  0  0  0  0  0
  193.9800  171.8700  144.5270 C   0  0  0  0  0  0  0  0  0  0  0  0
  194.8970  172.9590  142.5640 C   0  0  0  0  0  3  0  0  0  0  0  0
  191.9000  170.7080  144.3410 F   0  0  0  0  0  0  0  0  0  0  0  0
  193.8000  172.5320  141.8110 C   0  0  0  0  0  3  0  0  0  0  0  0
  192.7940  171.7750  142.4130 C   0  0  0  0  0  3  0  0  0  0  0  0
  1  4  1  0  0  0  0
  2  7  1  0  0  0  0
  2  1  1  0  0  0  0
  3 30  1  0  0  0  0
  3  6  1  1  0  0  0
  4  6  1  0  0  0  0
  4 19  1  1  0  0  0
  5  7  2  0  0  0  0
  7  3  1  0  0  0  0
  8 13  1  0  0  0  0
  9 16  1  0  0  0  0
  9 10  1  0  0  0  0
 10 15  1  0  0  0  0
 10 13  2  0  0  0  0
 12 11  1  0  0  0  0
 13 14  1  0  0  0  0
 14 11  2  0  0  0  0
 14  5  1  0  0  0  0
 15 12  2  0  0  0  0
 16  8  2  0  0  0  0
 17 20  1  0  0  0  0
 18 21  2  0  0  0  0
 18 22  1  0  0  0  0
 19 22  2  0  0  0  0
 19 23  1  0  0  0  0
 20 24  1  0  0  0  0
 21 17  1  0  0  0  0
 22 20  1  0  0  0  0
 23 24  2  0  0  0  0
 25 28  2  0  0  0  0
 25 31  1  0  0  0  0
 26 25  1  0  0  0  0
 27 28  1  0  0  0  0
 29 26  1  0  0  0  0
 30 29  1  1  0  0  0
 30 27  1  0  0  0  0
 32 31  1  0  0  0  0
 33 32  1  0  0  0  0
 35 37  1  0  0  0  0
 35 33  1  0  0  0  0
 36 39  1  0  0  0  0
 36 37  2  0  0  0  0
 37 34  1  0  0  0  0
 38 35  2  0  0  0  0
 40 41  2  0  0  0  0
 40 38  1  0  0  0  0
 41 36  1  0  0  0  0
M  END
>  <MODEL>
4

>  <REMARK>
 VINA RESULT:      -8.1      2.105      2.483
  Name = 
  7 active torsions:
  status: ('A' for Active; 'I' for Inactive)
    1  A    between atoms: C_5  and  C_6
    2  A    between atoms: C_5  and  C_12
    3  A    between atoms: C_12  and  N_14
    4  A    between atoms: N_14  and  C_16
    5  A    between atoms: C_15  and  C_31
    6  A    between atoms: C_26  and  C_37
    7  A    between atoms: C_30  and  N_36
                            x       y       z     vdW  Elec       q    Type
                         _______ _______ _______ _____ _____    ______ ____

>  <TORSDO>
F 7

$$$$
=
 OpenBabel11042419543D

 41 47  0  0  1  0  0  0  0  0999 V2000
  191.8140  172.3300  140.4050 C   0  0  0  0  0  2  0  0  0  0  0  0
  192.5670  173.3110  141.2970 C   0  0  0  0  0  2  0  0  0  0  0  0
  190.4090  174.7200  141.4450 C   0  0  2  0  0  3  0  0  0  0  0  0
  190.7720  173.0710  139.5680 C   0  0  2  0  0  3  0  0  0  0  0  0
  191.9120  174.4600  143.3570 N   0  0  0  0  0  0  0  0  0  0  0  0
  189.7470  173.7150  140.5010 C   0  0  0  0  0  2  0  0  0  0  0  0
  191.6060  174.1030  142.1420 C   0  0  0  0  0  0  0  0  0  0  0  0
  194.5250  175.9270  143.7760 N   0  0  0  0  0  0  0  0  0  0  0  0
  196.2340  175.0800  144.9340 O   0  0  0  0  0  0  0  0  0  0  0  0
  195.2600  174.2120  144.9610 C   0  0  0  0  0  0  0  0  0  0  0  0
  192.9900  172.7320  144.6700 N   0  0  0  0  0  0  0  0  0  0  0  0
  194.0440  172.2120  145.3760 C   0  0  0  0  0  3  0  0  0  0  0  0
  194.2070  174.7200  144.2730 C   0  0  0  0  0  0  0  0  0  0  0  0
  193.0270  173.9850  144.1250 C   0  0  0  0  0  0  0  0  0  0  0  0
  195.2290  172.9510  145.5460 C   0  0  0  0  0  3  0  0  0  0  0  0
  195.7960  176.1090  144.2240 C   0  0  0  0  0  3  0  0  0  0  0  0
  189.4260  171.5420  135.2720 C   0  0  0  0  0  2  0  0  0  0  0  0
  189.8880  173.5450  136.4310 C   0  0  0  0  0  3  0  0  0  0  0  0
  190.0900  172.1450  138.6030 C   0  0  0  0  0  0  0  0  0  0  0  0
  189.3490  171.3380  136.6990 N   0  0  0  0  0  0  0  0  0  0  0  0
  189.7460  173.0210  135.2040 C   0  0  0  0  0  3  0  0  0  0  0  0
  189.6310  172.4480  137.3410 C   0  0  0  0  0  0  0  0  0  0  0  0
  190.1160  170.7440  138.6170 C   0  0  0  0  0  3  0  0  0  0  0  0
  189.6840  170.2810  137.4160 N   0  0  0  0  0  0  0  0  0  0  0  0
  187.0030  176.8960  142.9220 C   0  0  0  0  0  0  0  0  0  0  0  0
  188.1530  177.5980  142.2560 C   0  0  0  0  0  2  0  0  0  0  0  0
  187.9390  174.8090  142.0420 C   0  0  0  0  0  2  0  0  0  0  0  0
  186.9120  175.5630  142.8360 C   0  0  0  0  0  3  0  0  0  0  0  0
  189.4670  176.8560  142.5320 C   0  0  0  0  0  2  0  0  0  0  0  0
  189.3500  175.3190  142.3800 C   0  0  2  0  0  3  0  0  0  0  0  0
  186.0360  177.6610  143.7630 C   0  0  0  0  0  2  0  0  0  0  0  0
  186.1000  177.1720  145.1970 C   0  0  0  0  0  2  0  0  0  0  0  0
  187.3130  177.6680  145.8260 N   0  0  0  0  0  2  0  0  0  0  0  0
  190.0570  178.3620  145.2160 F   0  0  0  0  0  0  0  0  0  0  0  0
  188.4370  176.8560  146.1870 C   0  0  0  0  0  0  0  0  0  0  0  0
  190.8230  176.3770  146.2660 C   0  0  0  0  0  0  0  0  0  0  0  0
  189.7680  177.2140  145.8800 C   0  0  0  0  0  0  0  0  0  0  0  0
  188.1930  175.6650  146.8790 C   0  0  0  0  0  3  0  0  0  0  0  0
  192.1030  176.7130  145.9730 F   0  0  0  0  0  0  0  0  0  0  0  0
  189.2490  174.8350  147.2630 C   0  0  0  0  0  3  0  0  0  0  0  0
  190.5630  175.1910  146.9560 C   0  0  0  0  0  3  0  0  0  0  0  0
  1  2  1  0  0  0  0
  2  7  1  0  0  0  0
  3  6  1  1  0  0  0
  3  7  1  0  0  0  0
  3 30  1  0  0  0  0
  4 19  1  6  0  0  0
  4  1  1  0  0  0  0
  4  6  1  0  0  0  0
  5 14  1  0  0  0  0
  7  5  2  0  0  0  0
  8 16  2  0  0  0  0
  8 13  1  0  0  0  0
  9 10  1  0  0  0  0
 10 15  1  0  0  0  0
 11 12  1  0  0  0  0
 12 15  2  0  0  0  0
 13 10  2  0  0  0  0
 14 13  1  0  0  0  0
 14 11  2  0  0  0  0
 16  9  1  0  0  0  0
 17 20  1  0  0  0  0
 18 22  1  0  0  0  0
 19 23  1  0  0  0  0
 20 22  1  0  0  0  0
 20 24  1  0  0  0  0
 21 17  1  0  0  0  0
 21 18  2  0  0  0  0
 22 19  2  0  0  0  0
 24 23  2  0  0  0  0
 25 31  1  0  0  0  0
 26 29  1  0  0  0  0
 26 25  1  0  0  0  0
 27 28  1  0  0  0  0
 28 25  2  0  0  0  0
 30 27  1  6  0  0  0
 30 29  1  0  0  0  0
 31 32  1  0  0  0  0
 32 33  1  0  0  0  0
 33 35  1  0  0  0  0
 34 37  1  0  0  0  0
 35 38  1  0  0  0  0
 36 41  2  0  0  0  0
 37 35  2  0  0  0  0
 37 36  1  0  0  0  0
 38 40  2  0  0  0  0
 39 36  1  0  0  0  0
 41 40  1  0  0  0  0
M  END
>  <MODEL>
5

>  <REMARK>
 VINA RESULT:      -8.0      2.895      8.222
  Name = 
  7 active torsions:
  status: ('A' for Active; 'I' for Inactive)
    1  A    between atoms: C_5  and  C_6
    2  A    between atoms: C_5  and  C_12
    3  A    between atoms: C_12  and  N_14
    4  A    between atoms: N_14  and  C_16
    5  A    between atoms: C_15  and  C_31
    6  A    between atoms: C_26  and  C_37
    7  A    between atoms: C_30  and  N_36
                            x       y       z     vdW  Elec       q    Type
                         _______ _______ _______ _____ _____    ______ ____

>  <TORSDO>
F 7

$$$$
=
 OpenBabel11042419543D

 41 47  0  0  1  0  0  0  0  0999 V2000
  189.1720  177.0940  146.2560 C   0  0  0  0  0  2  0  0  0  0  0  0
  190.3540  176.1330  146.2110 C   0  0  0  0  0  2  0  0  0  0  0  0
  189.1700  174.8800  144.2910 C   0  0  2  0  0  3  0  0  0  0  0  0
  187.8840  176.3630  145.8780 C   0  0  2  0  0  3  0  0  0  0  0  0
  191.5980  175.1790  144.3310 N   0  0  0  0  0  0  0  0  0  0  0  0
  188.0020  175.8550  144.4410 C   0  0  0  0  0  2  0  0  0  0  0  0
  190.4450  175.4660  144.8650 C   0  0  0  0  0  0  0  0  0  0  0  0
  193.9330  173.4140  145.0990 N   0  0  0  0  0  0  0  0  0  0  0  0
  195.8730  174.2120  145.8580 O   0  0  0  0  0  0  0  0  0  0  0  0
  195.0930  175.2260  145.6020 C   0  0  0  0  0  0  0  0  0  0  0  0
  193.0940  176.9700  144.9800 N   0  0  0  0  0  0  0  0  0  0  0  0
  194.2850  177.4560  145.4530 C   0  0  0  0  0  3  0  0  0  0  0  0
  193.9150  174.7570  145.1240 C   0  0  0  0  0  0  0  0  0  0  0  0
  192.8800  175.6340  144.7840 C   0  0  0  0  0  0  0  0  0  0  0  0
  195.3380  176.5830  145.7810 C   0  0  0  0  0  3  0  0  0  0  0  0
  195.1790  173.1240  145.5580 C   0  0  0  0  0  3  0  0  0  0  0  0
  184.4800  179.2910  144.3140 C   0  0  0  0  0  2  0  0  0  0  0  0
  186.7050  178.6640  143.8380 C   0  0  0  0  0  3  0  0  0  0  0  0
  186.6880  177.2600  146.0170 C   0  0  0  0  0  0  0  0  0  0  0  0
  185.0930  178.6630  145.4610 N   0  0  0  0  0  0  0  0  0  0  0  0
  185.6260  179.2760  143.3240 C   0  0  0  0  0  3  0  0  0  0  0  0
  186.3210  178.2940  145.1850 C   0  0  0  0  0  0  0  0  0  0  0  0
  185.5290  177.0110  146.7640 C   0  0  0  0  0  3  0  0  0  0  0  0
  184.5560  177.8730  146.3720 N   0  0  0  0  0  0  0  0  0  0  0  0
  188.1390  173.4530  140.3640 C   0  0  0  0  0  0  0  0  0  0  0  0
  187.9150  172.6090  141.5880 C   0  0  0  0  0  2  0  0  0  0  0  0
  188.4770  175.3420  141.8880 C   0  0  0  0  0  2  0  0  0  0  0  0
  188.4250  174.7520  140.5090 C   0  0  0  0  0  3  0  0  0  0  0  0
  188.9860  172.9060  142.6460 C   0  0  0  0  0  2  0  0  0  0  0  0
  189.2670  174.4180  142.8300 C   0  0  2  0  0  3  0  0  0  0  0  0
  188.1510  172.8280  139.0090 C   0  0  0  0  0  2  0  0  0  0  0  0
  189.3140  173.3710  138.2020 C   0  0  0  0  0  2  0  0  0  0  0  0
  190.4720  172.5100  138.3790 N   0  0  0  0  0  2  0  0  0  0  0  0
  190.6030  170.0230  139.8560 F   0  0  0  0  0  0  0  0  0  0  0  0
  191.1920  172.3520  139.6090 C   0  0  0  0  0  0  0  0  0  0  0  0
  191.9690  171.0400  141.5070 C   0  0  0  0  0  0  0  0  0  0  0  0
  191.2430  171.1290  140.3120 C   0  0  0  0  0  0  0  0  0  0  0  0
  191.8750  173.4620  140.1180 C   0  0  0  0  0  3  0  0  0  0  0  0
  192.0210  169.8700  142.1890 F   0  0  0  0  0  0  0  0  0  0  0  0
  192.5990  173.3670  141.3090 C   0  0  0  0  0  3  0  0  0  0  0  0
  192.6460  172.1570  142.0030 C   0  0  0  0  0  3  0  0  0  0  0  0
  2  1  1  0  0  0  0
  3  6  1  6  0  0  0
  3  7  1  0  0  0  0
  4 19  1  6  0  0  0
  4  1  1  0  0  0  0
  5 14  1  0  0  0  0
  5  7  2  0  0  0  0
  6  4  1  0  0  0  0
  7  2  1  0  0  0  0
  8 13  1  0  0  0  0
  8 16  2  0  0  0  0
 10 15  1  0  0  0  0
 10  9  1  0  0  0  0
 11 12  1  0  0  0  0
 12 15  2  0  0  0  0
 13 10  2  0  0  0  0
 14 11  2  0  0  0  0
 14 13  1  0  0  0  0
 16  9  1  0  0  0  0
 17 20  1  0  0  0  0
 18 22  1  0  0  0  0
 19 23  1  0  0  0  0
 20 24  1  0  0  0  0
 21 18  2  0  0  0  0
 21 17  1  0  0  0  0
 22 20  1  0  0  0  0
 22 19  2  0  0  0  0
 24 23  2  0  0  0  0
 25 28  2  0  0  0  0
 25 26  1  0  0  0  0
 26 29  1  0  0  0  0
 28 27  1  0  0  0  0
 29 30  1  0  0  0  0
 30 27  1  6  0  0  0
 30  3  1  0  0  0  0
 31 25  1  0  0  0  0
 32 33  1  0  0  0  0
 32 31  1  0  0  0  0
 33 35  1  0  0  0  0
 34 37  1  0  0  0  0
 35 38  2  0  0  0  0
 35 37  1  0  0  0  0
 36 41  1  0  0  0  0
 36 39  1  0  0  0  0
 37 36  2  0  0  0  0
 38 40  1  0  0  0  0
 40 41  2  0  0  0  0
M  END
>  <MODEL>
6

>  <REMARK>
 VINA RESULT:      -8.0      2.990      6.097
  Name = 
  7 active torsions:
  status: ('A' for Active; 'I' for Inactive)
    1  A    between atoms: C_5  and  C_6
    2  A    between atoms: C_5  and  C_12
    3  A    between atoms: C_12  and  N_14
    4  A    between atoms: N_14  and  C_16
    5  A    between atoms: C_15  and  C_31
    6  A    between atoms: C_26  and  C_37
    7  A    between atoms: C_30  and  N_36
                            x       y       z     vdW  Elec       q    Type
                         _______ _______ _______ _____ _____    ______ ____

>  <TORSDO>
F 7

$$$$
=
 OpenBabel11042419543D

 41 47  0  0  1  0  0  0  0  0999 V2000
  192.4960  173.6780  142.9790 C   0  0  0  0  0  2  0  0  0  0  0  0
  191.7930  172.8930  141.8790 C   0  0  0  0  0  2  0  0  0  0  0  0
  189.6670  174.2800  142.3470 C   0  0  2  0  0  3  0  0  0  0  0  0
  191.4990  174.0650  144.0710 C   0  0  2  0  0  3  0  0  0  0  0  0
  190.2950  173.6080  140.0800 N   0  0  0  0  0  0  0  0  0  0  0  0
  190.4320  174.9800  143.4710 C   0  0  0  0  0  2  0  0  0  0  0  0
  190.6210  173.6690  141.3400 C   0  0  0  0  0  0  0  0  0  0  0  0
  189.7890  170.9380  138.7480 N   0  0  0  0  0  0  0  0  0  0  0  0
  191.1070  170.0930  137.1590 O   0  0  0  0  0  0  0  0  0  0  0  0
  191.5870  171.2570  137.5030 C   0  0  0  0  0  0  0  0  0  0  0  0
  192.2150  173.6690  138.6030 N   0  0  0  0  0  0  0  0  0  0  0  0
  193.0260  173.1440  137.6310 C   0  0  0  0  0  3  0  0  0  0  0  0
  190.7870  171.7900  138.4590 C   0  0  0  0  0  0  0  0  0  0  0  0
  191.0810  173.0340  139.0260 C   0  0  0  0  0  0  0  0  0  0  0  0
  192.7280  171.9020  137.0410 C   0  0  0  0  0  3  0  0  0  0  0  0
  190.0300  169.9000  137.9040 C   0  0  0  0  0  3  0  0  0  0  0  0
  194.5630  177.0930  146.0830 C   0  0  0  0  0  2  0  0  0  0  0  0
  194.3270  175.7500  144.1560 C   0  0  0  0  0  3  0  0  0  0  0  0
  192.1850  174.7470  145.2190 C   0  0  0  0  0  0  0  0  0  0  0  0
  193.5810  176.0570  146.2970 N   0  0  0  0  0  0  0  0  0  0  0  0
  195.0140  176.7810  144.6710 C   0  0  0  0  0  3  0  0  0  0  0  0
  193.4340  175.3280  145.2150 C   0  0  0  0  0  0  0  0  0  0  0  0
  191.5850  175.2630  146.3740 C   0  0  0  0  0  3  0  0  0  0  0  0
  192.4620  176.0910  146.9980 N   0  0  0  0  0  0  0  0  0  0  0  0
  186.6400  177.3150  141.9650 C   0  0  0  0  0  0  0  0  0  0  0  0
  186.3960  176.0580  142.7530 C   0  0  0  0  0  2  0  0  0  0  0  0
  189.0160  176.7120  141.9920 C   0  0  0  0  0  2  0  0  0  0  0  0
  187.8880  177.6160  141.5860 C   0  0  0  0  0  3  0  0  0  0  0  0
  187.1720  174.8840  142.1440 C   0  0  0  0  0  2  0  0  0  0  0  0
  188.6280  175.2420  141.7560 C   0  0  2  0  0  3  0  0  0  0  0  0
  185.4960  178.1590  141.5150 C   0  0  0  0  0  2  0  0  0  0  0  0
  184.6420  178.5490  142.7050 C   0  0  0  0  0  2  0  0  0  0  0  0
  185.4720  179.2030  143.7040 N   0  0  0  0  0  2  0  0  0  0  0  0
  187.9860  178.2340  144.7640 F   0  0  0  0  0  0  0  0  0  0  0  0
  185.6430  178.7450  145.0510 C   0  0  0  0  0  0  0  0  0  0  0  0
  186.9800  177.8470  146.8770 C   0  0  0  0  0  0  0  0  0  0  0  0
  186.8790  178.2770  145.5480 C   0  0  0  0  0  0  0  0  0  0  0  0
  184.5330  178.7750  145.9030 C   0  0  0  0  0  3  0  0  0  0  0  0
  188.1630  177.3950  147.3610 F   0  0  0  0  0  0  0  0  0  0  0  0
  184.6390  178.3480  147.2280 C   0  0  0  0  0  3  0  0  0  0  0  0
  185.8630  177.8840  147.7140 C   0  0  0  0  0  3  0  0  0  0  0  0
  1  4  1  0  0  0  0
  2  1  1  0  0  0  0
  3  6  1  1  0  0  0
  4 19  1  1  0  0  0
  5  7  2  0  0  0  0
  6  4  1  0  0  0  0
  7  2  1  0  0  0  0
  7  3  1  0  0  0  0
  9 10  1  0  0  0  0
  9 16  1  0  0  0  0
 10 13  2  0  0  0  0
 11 14  2  0  0  0  0
 12 11  1  0  0  0  0
 13  8  1  0  0  0  0
 13 14  1  0  0  0  0
 14  5  1  0  0  0  0
 15 10  1  0  0  0  0
 15 12  2  0  0  0  0
 16  8  2  0  0  0  0
 17 20  1  0  0  0  0
 18 21  2  0  0  0  0
 18 22  1  0  0  0  0
 19 23  1  0  0  0  0
 20 24  1  0  0  0  0
 21 17  1  0  0  0  0
 22 19  2  0  0  0  0
 22 20  1  0  0  0  0
 23 24  2  0  0  0  0
 25 26  1  0  0  0  0
 28 25  2  0  0  0  0
 28 27  1  0  0  0  0
 29 26  1  0  0  0  0
 30 27  1  1  0  0  0
 30 29  1  0  0  0  0
 30  3  1  0  0  0  0
 31 25  1  0  0  0  0
 31 32  1  0  0  0  0
 32 33  1  0  0  0  0
 33 35  1  0  0  0  0
 34 37  1  0  0  0  0
 35 37  2  0  0  0  0
 35 38  1  0  0  0  0
 36 39  1  0  0  0  0
 36 41  2  0  0  0  0
 37 36  1  0  0  0  0
 38 40  2  0  0  0  0
 40 41  1  0  0  0  0
M  END
>  <MODEL>
7

>  <REMARK>
 VINA RESULT:      -7.8      3.039      7.594
  Name = 
  7 active torsions:
  status: ('A' for Active; 'I' for Inactive)
    1  A    between atoms: C_5  and  C_6
    2  A    between atoms: C_5  and  C_12
    3  A    between atoms: C_12  and  N_14
    4  A    between atoms: N_14  and  C_16
    5  A    between atoms: C_15  and  C_31
    6  A    between atoms: C_26  and  C_37
    7  A    between atoms: C_30  and  N_36
                            x       y       z     vdW  Elec       q    Type
                         _______ _______ _______ _____ _____    ______ ____

>  <TORSDO>
F 7

$$$$
=
 OpenBabel11042419543D

 41 47  0  0  1  0  0  0  0  0999 V2000
  193.7050  170.1490  143.1740 C   0  0  0  0  0  2  0  0  0  0  0  0
  192.2690  170.1080  142.6660 C   0  0  0  0  0  2  0  0  0  0  0  0
  191.7010  171.9930  144.3350 C   0  0  2  0  0  3  0  0  0  0  0  0
  193.7310  170.5260  144.6550 C   0  0  2  0  0  3  0  0  0  0  0  0
  190.6940  171.8970  142.1070 N   0  0  0  0  0  0  0  0  0  0  0  0
  193.1490  171.9290  144.8230 C   0  0  0  0  0  2  0  0  0  0  0  0
  191.5720  171.4140  142.9400 C   0  0  0  0  0  0  0  0  0  0  0  0
  189.2600  173.4410  139.9350 N   0  0  0  0  0  0  0  0  0  0  0  0
  188.8550  172.6090  137.9060 O   0  0  0  0  0  0  0  0  0  0  0  0
  189.5020  171.7050  138.5890 C   0  0  0  0  0  0  0  0  0  0  0  0
  190.7880  170.1560  140.4250 N   0  0  0  0  0  0  0  0  0  0  0  0
  190.5310  169.6460  139.1790 C   0  0  0  0  0  3  0  0  0  0  0  0
  189.7700  172.2030  139.8210 C   0  0  0  0  0  0  0  0  0  0  0  0
  190.4420  171.4320  140.7740 C   0  0  0  0  0  0  0  0  0  0  0  0
  189.8720  170.4200  138.2080 C   0  0  0  0  0  3  0  0  0  0  0  0
  188.7080  173.6500  138.7110 C   0  0  0  0  0  3  0  0  0  0  0  0
  197.2700  168.7140  147.2610 C   0  0  0  0  0  2  0  0  0  0  0  0
  194.9180  168.9080  147.2660 C   0  0  0  0  0  3  0  0  0  0  0  0
  195.1260  170.4700  145.2070 C   0  0  0  0  0  0  0  0  0  0  0  0
  196.8420  169.7870  146.3940 N   0  0  0  0  0  0  0  0  0  0  0  0
  195.9430  168.2310  147.8070 C   0  0  0  0  0  3  0  0  0  0  0  0
  195.5330  169.8750  146.3810 C   0  0  0  0  0  0  0  0  0  0  0  0
  196.3200  170.6580  144.5010 C   0  0  0  0  0  3  0  0  0  0  0  0
  197.3550  170.1960  145.2490 N   0  0  0  0  0  0  0  0  0  0  0  0
  190.4470  175.7310  146.0590 C   0  0  0  0  0  0  0  0  0  0  0  0
  189.7520  174.4410  146.3940 C   0  0  0  0  0  2  0  0  0  0  0  0
  192.2330  174.3630  145.0860 C   0  0  0  0  0  2  0  0  0  0  0  0
  191.6220  175.6940  145.4170 C   0  0  0  0  0  3  0  0  0  0  0  0
  189.7870  173.4860  145.1940 C   0  0  0  0  0  2  0  0  0  0  0  0
  191.1680  173.4230  144.4960 C   0  0  2  0  0  3  0  0  0  0  0  0
  189.7860  177.0400  146.3360 C   0  0  0  0  0  2  0  0  0  0  0  0
  189.4770  177.7490  145.0320 C   0  0  0  0  0  2  0  0  0  0  0  0
  188.2830  177.1720  144.4370 N   0  0  0  0  0  2  0  0  0  0  0  0
  186.4610  176.4180  146.5580 F   0  0  0  0  0  0  0  0  0  0  0  0
  186.9600  177.7060  144.5760 C   0  0  0  0  0  0  0  0  0  0  0  0
  184.8080  177.8870  145.7000 C   0  0  0  0  0  0  0  0  0  0  0  0
  186.0880  177.3240  145.6190 C   0  0  0  0  0  0  0  0  0  0  0  0
  186.5290  178.6490  143.6360 C   0  0  0  0  0  3  0  0  0  0  0  0
  183.9640  177.5250  146.6970 F   0  0  0  0  0  0  0  0  0  0  0  0
  185.2530  179.2090  143.7230 C   0  0  0  0  0  3  0  0  0  0  0  0
  184.3930  178.8280  144.7540 C   0  0  0  0  0  3  0  0  0  0  0  0
  1  4  1  0  0  0  0
  2  7  1  0  0  0  0
  2  1  1  0  0  0  0
  3 30  1  0  0  0  0
  3  6  1  6  0  0  0
  4  6  1  0  0  0  0
  4 19  1  6  0  0  0
  5  7  2  0  0  0  0
  7  3  1  0  0  0  0
  9 10  1  0  0  0  0
  9 16  1  0  0  0  0
 10 13  2  0  0  0  0
 11 14  2  0  0  0  0
 12 11  1  0  0  0  0
 13  8  1  0  0  0  0
 13 14  1  0  0  0  0
 14  5  1  0  0  0  0
 15 10  1  0  0  0  0
 15 12  2  0  0  0  0
 16  8  2  0  0  0  0
 17 21  1  0  0  0  0
 18 21  2  0  0  0  0
 19 22  2  0  0  0  0
 20 17  1  0  0  0  0
 22 20  1  0  0  0  0
 22 18  1  0  0  0  0
 23 19  1  0  0  0  0
 23 24  2  0  0  0  0
 24 20  1  0  0  0  0
 25 31  1  0  0  0  0
 25 26  1  0  0  0  0
 27 28  1  0  0  0  0
 28 25  2  0  0  0  0
 29 26  1  0  0  0  0
 30 27  1  1  0  0  0
 30 29  1  0  0  0  0
 32 31  1  0  0  0  0
 33 35  1  0  0  0  0
 33 32  1  0  0  0  0
 35 37  1  0  0  0  0
 36 39  1  0  0  0  0
 37 36  2  0  0  0  0
 37 34  1  0  0  0  0
 38 40  1  0  0  0  0
 38 35  2  0  0  0  0
 40 41  2  0  0  0  0
 41 36  1  0  0  0  0
M  END
>  <MODEL>
8

>  <REMARK>
 VINA RESULT:      -7.7      3.773      8.627
  Name = 
  7 active torsions:
  status: ('A' for Active; 'I' for Inactive)
    1  A    between atoms: C_5  and  C_6
    2  A    between atoms: C_5  and  C_12
    3  A    between atoms: C_12  and  N_14
    4  A    between atoms: N_14  and  C_16
    5  A    between atoms: C_15  and  C_31
    6  A    between atoms: C_26  and  C_37
    7  A    between atoms: C_30  and  N_36
                            x       y       z     vdW  Elec       q    Type
                         _______ _______ _______ _____ _____    ______ ____

>  <TORSDO>
F 7

$$$$
=
 OpenBabel11042419543D

 41 47  0  0  1  0  0  0  0  0999 V2000
  192.7460  173.1490  141.2380 C   0  0  0  0  0  2  0  0  0  0  0  0
  193.7080  173.9190  142.1340 C   0  0  0  0  0  2  0  0  0  0  0  0
  191.6900  175.2550  143.0310 C   0  0  2  0  0  3  0  0  0  0  0  0
  191.5830  174.0480  140.8160 C   0  0  2  0  0  3  0  0  0  0  0  0
  193.5480  174.5990  144.4810 N   0  0  0  0  0  0  0  0  0  0  0  0
  190.8040  174.4720  142.0600 C   0  0  0  0  0  2  0  0  0  0  0  0
  192.9790  174.5090  143.3120 C   0  0  0  0  0  0  0  0  0  0  0  0
  193.8770  171.7100  145.3200 N   0  0  0  0  0  0  0  0  0  0  0  0
  195.8210  170.8420  145.9850 O   0  0  0  0  0  0  0  0  0  0  0  0
  196.0240  172.0930  145.6760 C   0  0  0  0  0  0  0  0  0  0  0  0
  195.9160  174.7250  144.9770 N   0  0  0  0  0  0  0  0  0  0  0  0
  197.1080  174.1900  145.3930 C   0  0  0  0  0  3  0  0  0  0  0  0
  194.8530  172.6310  145.2540 C   0  0  0  0  0  0  0  0  0  0  0  0
  194.7770  173.9750  144.8760 C   0  0  0  0  0  0  0  0  0  0  0  0
  197.1980  172.8340  145.7570 C   0  0  0  0  0  3  0  0  0  0  0  0
  194.5350  170.6100  145.7730 C   0  0  0  0  0  3  0  0  0  0  0  0
  190.4460  171.9990  136.6790 C   0  0  0  0  0  2  0  0  0  0  0  0
  191.8210  173.7100  137.5490 C   0  0  0  0  0  3  0  0  0  0  0  0
  190.6770  173.3460  139.8470 C   0  0  0  0  0  0  0  0  0  0  0  0
  189.9830  172.4170  137.9810 N   0  0  0  0  0  0  0  0  0  0  0  0
  191.6240  172.9290  136.4750 C   0  0  0  0  0  3  0  0  0  0  0  0
  190.7640  173.3500  138.4720 C   0  0  0  0  0  0  0  0  0  0  0  0
  189.8210  172.2710  140.1190 C   0  0  0  0  0  3  0  0  0  0  0  0
  189.4380  171.7010  138.9480 N   0  0  0  0  0  0  0  0  0  0  0  0
  188.7160  176.9920  145.6110 C   0  0  0  0  0  0  0  0  0  0  0  0
  189.6790  177.8480  144.8370 C   0  0  0  0  0  2  0  0  0  0  0  0
  189.4250  175.1330  144.1810 C   0  0  0  0  0  2  0  0  0  0  0  0
  188.6090  175.6920  145.3090 C   0  0  0  0  0  3  0  0  0  0  0  0
  191.0220  177.1270  144.6690 C   0  0  0  0  0  2  0  0  0  0  0  0
  190.8750  175.6360  144.2750 C   0  0  2  0  0  3  0  0  0  0  0  0
  187.9690  177.5560  146.7730 C   0  0  0  0  0  2  0  0  0  0  0  0
  186.5060  177.7250  146.4130 C   0  0  0  0  0  2  0  0  0  0  0  0
  186.3690  178.7640  145.4060 N   0  0  0  0  0  2  0  0  0  0  0  0
  183.5220  178.7740  144.8790 F   0  0  0  0  0  0  0  0  0  0  0  0
  185.8010  178.5710  144.1050 C   0  0  0  0  0  0  0  0  0  0  0  0
  183.9180  178.3900  142.5720 C   0  0  0  0  0  0  0  0  0  0  0  0
  184.4080  178.5800  143.8700 C   0  0  0  0  0  0  0  0  0  0  0  0
  186.6730  178.3740  143.0280 C   0  0  0  0  0  3  0  0  0  0  0  0
  182.5820  178.3960  142.3390 F   0  0  0  0  0  0  0  0  0  0  0  0
  186.1790  178.1870  141.7360 C   0  0  0  0  0  3  0  0  0  0  0  0
  184.8020  178.1950  141.5080 C   0  0  0  0  0  3  0  0  0  0  0  0
  1  2  1  0  0  0  0
  2  7  1  0  0  0  0
  3  6  1  6  0  0  0
  3  7  1  0  0  0  0
  3 30  1  0  0  0  0
  4 19  1  6  0  0  0
  4  1  1  0  0  0  0
  4  6  1  0  0  0  0
  5 14  1  0  0  0  0
  7  5  2  0  0  0  0
  8 16  2  0  0  0  0
 10 15  1  0  0  0  0
 10  9  1  0  0  0  0
 11 12  1  0  0  0  0
 12 15  2  0  0  0  0
 13  8  1  0  0  0  0
 13 10  2  0  0  0  0
 14 11  2  0  0  0  0
 14 13  1  0  0  0  0
 16  9  1  0  0  0  0
 17 20  1  0  0  0  0
 18 22  1  0  0  0  0
 19 23  1  0  0  0  0
 20 22  1  0  0  0  0
 20 24  1  0  0  0  0
 21 17  1  0  0  0  0
 21 18  2  0  0  0  0
 22 19  2  0  0  0  0
 24 23  2  0  0  0  0
 25 31  1  0  0  0  0
 26 25  1  0  0  0  0
 27 28  1  0  0  0  0
 28 25  2  0  0  0  0
 29 26  1  0  0  0  0
 30 27  1  6  0  0  0
 30 29  1  0  0  0  0
 32 31  1  0  0  0  0
 33 32  1  0  0  0  0
 35 33  1  0  0  0  0
 36 37  2  0  0  0  0
 37 35  1  0  0  0  0
 37 34  1  0  0  0  0
 38 35  2  0  0  0  0
 39 36  1  0  0  0  0
 40 38  1  0  0  0  0
 41 40  2  0  0  0  0
 41 36  1  0  0  0  0
M  END
>  <MODEL>
9

>  <REMARK>
 VINA RESULT:      -7.6      3.832      8.808
  Name = 
  7 active torsions:
  status: ('A' for Active; 'I' for Inactive)
    1  A    between atoms: C_5  and  C_6
    2  A    between atoms: C_5  and  C_12
    3  A    between atoms: C_12  and  N_14
    4  A    between atoms: N_14  and  C_16
    5  A    between atoms: C_15  and  C_31
    6  A    between atoms: C_26  and  C_37
    7  A    between atoms: C_30  and  N_36
                            x       y       z     vdW  Elec       q    Type
                         _______ _______ _______ _____ _____    ______ ____

>  <TORSDO>
F 7

$$$$
