=
 OpenBabel11042414413D

 28 31  0  0  1  0  0  0  0  0999 V2000
  185.3140  176.7880  142.2810 O   0  0  0  0  0  0  0  0  0  0  0  0
  186.5660  176.9370  147.7230 N   0  0  0  0  0  1  0  0  0  0  0  0
  184.6560  178.3420  144.5030 C   0  0  0  0  0  2  0  0  0  0  0  0
  188.6110  177.0330  143.7380 C   0  0  2  0  0  3  0  0  0  0  0  0
  188.2030  177.3290  145.1670 C   0  0  0  0  0  0  0  0  0  0  0  0
  189.2070  177.1990  146.2910 C   0  0  0  0  0  2  0  0  0  0  0  0
  190.6130  175.9170  144.9100 C   0  0  1  0  0  0  0  0  0  0  0  0
  186.2140  176.9250  143.1550 C   0  0  0  0  0  0  0  0  0  0  0  0
  186.4960  178.0800  146.8280 C   0  0  1  0  0  3  0  0  0  0  0  0
  186.9240  177.6760  145.4260 C   0  0  0  0  0  0  0  0  0  0  0  0
  190.5360  176.9670  145.8620 O   0  0  0  0  0  0  0  0  0  0  0  0
  184.6950  179.3760  145.6160 C   0  0  0  0  0  2  0  0  0  0  0  0
  187.5370  176.2340  142.9850 C   0  0  1  0  0  3  0  0  0  0  0  0
  190.8430  177.3710  142.9890 O   0  0  0  0  0  1  0  0  0  0  0  0
  185.9560  177.6840  144.3490 N   0  0  0  0  0  0  0  0  0  0  0  0
  189.8750  174.6470  145.3760 C   0  0  0  0  0  1  0  0  0  0  0  0
  190.0090  176.4200  143.5860 C   0  0  2  0  0  3  0  0  0  0  0  0
  185.0870  178.6710  146.9010 C   0  0  0  0  0  2  0  0  0  0  0  0
  193.4330  173.9860  146.0320 N   0  0  0  0  0  0  0  0  0  0  0  0
  192.8390  175.2680  145.9610 C   0  0  0  0  0  0  0  0  0  0  0  0
  192.1080  175.5730  144.6950 C   0  0  1  0  0  3  0  0  0  0  0  0
  193.7970  171.9250  144.8200 C   0  0  0  0  0  1  0  0  0  0  0  0
  192.9540  176.0980  146.9010 O   0  0  0  0  0  0  0  0  0  0  0  0
  192.3550  174.0990  143.6260 S   0  0  0  0  0  0  0  0  0  0  0  0
  193.2620  173.3050  144.9530 C   0  0  0  0  0  0  0  0  0  0  0  0
  187.8680  176.1440  141.5680 N   0  0  0  0  0  0  0  0  0  0  0  0
  188.3030  174.9280  139.6040 N   0  0  0  0  0  1  0  0  0  0  0  0
  187.9780  174.9960  140.9860 C   0  0  0  0  0  3  0  0  0  0  0  0
  1  8  2  0  0  0  0
  3 12  1  0  0  0  0
  4  5  1  1  0  0  0
  5 10  2  0  0  0  0
  5  6  1  0  0  0  0
  7 16  1  1  0  0  0
  7 11  1  0  0  0  0
  8 15  1  0  0  0  0
  9 18  1  0  0  0  0
  9  2  1  1  0  0  0
 10  9  1  0  0  0  0
 11  6  1  0  0  0  0
 12 18  1  0  0  0  0
 13 26  1  6  0  0  0
 13  8  1  0  0  0  0
 13  4  1  0  0  0  0
 15  3  1  0  0  0  0
 15 10  1  0  0  0  0
 17 14  1  1  0  0  0
 17  4  1  0  0  0  0
 17  7  1  0  0  0  0
 20 19  1  0  0  0  0
 20 23  2  0  0  0  0
 21 24  1  6  0  0  0
 21  7  1  0  0  0  0
 21 20  1  0  0  0  0
 22 25  1  0  0  0  0
 24 25  1  0  0  0  0
 25 19  2  0  0  0  0
 27 28  1  0  0  0  0
 28 26  2  0  0  0  0
M  END
>  <MODEL>
1

>  <REMARK>
 VINA RESULT:      -7.4      0.000      0.000
  Name = 
  2 active torsions:
  status: ('A' for Active; 'I' for Inactive)
    1  A    between atoms: C_8  and  C_14
    2  A    between atoms: N_16  and  C_19
                            x       y       z     vdW  Elec       q    Type
                         _______ _______ _______ _____ _____    ______ ____

>  <TORSDO>
F 2

$$$$
=
 OpenBabel11042414413D

 28 31  0  0  1  0  0  0  0  0999 V2000
  191.3660  172.5640  144.2860 O   0  0  0  0  0  0  0  0  0  0  0  0
  188.0620  172.7620  139.7860 N   0  0  0  0  0  1  0  0  0  0  0  0
  191.5500  171.9580  141.5680 C   0  0  0  0  0  2  0  0  0  0  0  0
  189.6460  175.4650  142.9880 C   0  0  2  0  0  3  0  0  0  0  0  0
  189.2210  174.8940  141.6510 C   0  0  0  0  0  0  0  0  0  0  0  0
  188.1670  175.5920  140.8210 C   0  0  0  0  0  2  0  0  0  0  0  0
  187.4770  176.8210  142.7030 C   0  0  1  0  0  0  0  0  0  0  0  0
  190.6880  173.2860  143.5030 C   0  0  0  0  0  0  0  0  0  0  0  0
  189.4520  173.1810  139.8480 C   0  0  1  0  0  3  0  0  0  0  0  0
  189.7730  173.7360  141.2260 C   0  0  0  0  0  0  0  0  0  0  0  0
  187.7800  176.8610  141.3170 O   0  0  0  0  0  0  0  0  0  0  0  0
  191.7140  172.0720  140.0620 C   0  0  0  0  0  2  0  0  0  0  0  0
  189.8100  174.3740  144.0560 C   0  0  1  0  0  3  0  0  0  0  0  0
  189.5700  177.8020  143.4210 O   0  0  0  0  0  1  0  0  0  0  0  0
  190.6960  173.0290  142.0880 N   0  0  0  0  0  0  0  0  0  0  0  0
  186.4960  175.6870  143.0580 C   0  0  0  0  0  1  0  0  0  0  0  0
  188.7940  176.6410  143.4820 C   0  0  2  0  0  3  0  0  0  0  0  0
  190.3350  172.0040  139.4310 C   0  0  0  0  0  2  0  0  0  0  0  0
  184.4250  178.5940  143.4000 N   0  0  0  0  0  0  0  0  0  0  0  0
  185.4840  178.3920  142.4850 C   0  0  0  0  0  0  0  0  0  0  0  0
  186.8320  178.1760  143.0920 C   0  0  1  0  0  3  0  0  0  0  0  0
  183.8710  178.7740  145.7470 C   0  0  0  0  0  1  0  0  0  0  0  0
  185.2930  178.4240  141.2400 O   0  0  0  0  0  0  0  0  0  0  0  0
  186.5810  178.3520  144.9040 S   0  0  0  0  0  0  0  0  0  0  0  0
  184.8260  178.5890  144.6240 C   0  0  0  0  0  0  0  0  0  0  0  0
  190.4120  174.9270  145.2630 N   0  0  0  0  0  0  0  0  0  0  0  0
  190.4200  175.3660  147.5730 N   0  0  0  0  0  1  0  0  0  0  0  0
  189.8200  174.8190  146.4060 C   0  0  0  0  0  3  0  0  0  0  0  0
  3 15  1  0  0  0  0
  4  5  1  6  0  0  0
  4 17  1  0  0  0  0
  4 13  1  0  0  0  0
  6 11  1  0  0  0  0
  6  5  1  0  0  0  0
  7 16  1  1  0  0  0
  7 21  1  0  0  0  0
  7 17  1  0  0  0  0
  8 13  1  0  0  0  0
  8  1  2  0  0  0  0
  9  2  1  1  0  0  0
  9 10  1  0  0  0  0
 10  5  2  0  0  0  0
 10 15  1  0  0  0  0
 11  7  1  0  0  0  0
 12  3  1  0  0  0  0
 13 26  1  1  0  0  0
 15  8  1  0  0  0  0
 17 14  1  6  0  0  0
 18  9  1  0  0  0  0
 18 12  1  0  0  0  0
 19 25  2  0  0  0  0
 20 19  1  0  0  0  0
 21 20  1  6  0  0  0
 21 24  1  0  0  0  0
 23 20  2  0  0  0  0
 25 24  1  0  0  0  0
 25 22  1  0  0  0  0
 26 28  2  0  0  0  0
 28 27  1  0  0  0  0
M  END
>  <MODEL>
2

>  <REMARK>
 VINA RESULT:      -7.2      2.832      7.503
  Name = 
  2 active torsions:
  status: ('A' for Active; 'I' for Inactive)
    1  A    between atoms: C_8  and  C_14
    2  A    between atoms: N_16  and  C_19
                            x       y       z     vdW  Elec       q    Type
                         _______ _______ _______ _____ _____    ______ ____

>  <TORSDO>
F 2

$$$$
=
 OpenBabel11042414413D

 28 31  0  0  1  0  0  0  0  0999 V2000
  187.4210  174.5220  141.6430 O   0  0  0  0  0  0  0  0  0  0  0  0
  187.8870  176.2540  146.9330 N   0  0  0  0  0  1  0  0  0  0  0  0
  186.1090  176.2950  143.3520 C   0  0  0  0  0  2  0  0  0  0  0  0
  190.3320  176.0040  143.1880 C   0  0  2  0  0  3  0  0  0  0  0  0
  189.6820  176.4920  144.4670 C   0  0  0  0  0  0  0  0  0  0  0  0
  190.5330  176.9080  145.6460 C   0  0  0  0  0  2  0  0  0  0  0  0
  192.3850  175.7900  144.7260 C   0  0  1  0  0  0  0  0  0  0  0  0
  188.1370  175.1010  142.5070 C   0  0  0  0  0  0  0  0  0  0  0  0
  187.6410  177.0950  145.7740 C   0  0  1  0  0  3  0  0  0  0  0  0
  188.3340  176.5180  144.5500 C   0  0  0  0  0  0  0  0  0  0  0  0
  191.9210  176.9650  145.3720 O   0  0  0  0  0  0  0  0  0  0  0  0
  185.7390  177.5250  144.1640 C   0  0  0  0  0  2  0  0  0  0  0  0
  189.6030  174.7870  142.5990 C   0  0  1  0  0  3  0  0  0  0  0  0
  192.4800  176.7710  142.5150 O   0  0  0  0  0  1  0  0  0  0  0  0
  187.5420  176.0090  143.4500 N   0  0  0  0  0  0  0  0  0  0  0  0
  191.9430  174.5050  145.4530 C   0  0  0  0  0  1  0  0  0  0  0  0
  191.8470  175.7880  143.2820 C   0  0  2  0  0  3  0  0  0  0  0  0
  186.1310  177.2700  145.6090 C   0  0  0  0  0  2  0  0  0  0  0  0
  195.4390  174.9430  146.4280 N   0  0  0  0  0  0  0  0  0  0  0  0
  194.5520  175.9780  146.0490 C   0  0  0  0  0  0  0  0  0  0  0  0
  193.9330  175.8380  144.6960 C   0  0  1  0  0  3  0  0  0  0  0  0
  196.4670  172.8790  145.6980 C   0  0  0  0  0  1  0  0  0  0  0  0
  194.3320  176.9630  146.8020 O   0  0  0  0  0  0  0  0  0  0  0  0
  194.6810  174.3200  143.9770 S   0  0  0  0  0  0  0  0  0  0  0  0
  195.5850  174.0590  145.5030 C   0  0  0  0  0  0  0  0  0  0  0  0
  190.1250  174.4720  141.2740 N   0  0  0  0  0  0  0  0  0  0  0  0
  191.0550  172.9950  139.7000 N   0  0  0  0  0  1  0  0  0  0  0  0
  190.5490  173.2840  140.9960 C   0  0  0  0  0  3  0  0  0  0  0  0
  1  8  2  0  0  0  0
  3 15  1  0  0  0  0
  3 12  1  0  0  0  0
  4 17  1  0  0  0  0
  4  5  1  1  0  0  0
  5 10  2  0  0  0  0
  5  6  1  0  0  0  0
  7 11  1  0  0  0  0
  7 16  1  1  0  0  0
  8 13  1  0  0  0  0
  8 15  1  0  0  0  0
  9  2  1  1  0  0  0
 10  9  1  0  0  0  0
 11  6  1  0  0  0  0
 12 18  1  0  0  0  0
 13 26  1  6  0  0  0
 13  4  1  0  0  0  0
 15 10  1  0  0  0  0
 17 14  1  6  0  0  0
 17  7  1  0  0  0  0
 18  9  1  0  0  0  0
 20 19  1  0  0  0  0
 20 23  2  0  0  0  0
 21 24  1  1  0  0  0
 21  7  1  0  0  0  0
 21 20  1  0  0  0  0
 24 25  1  0  0  0  0
 25 22  1  0  0  0  0
 25 19  2  0  0  0  0
 27 28  1  0  0  0  0
 28 26  2  0  0  0  0
M  END
>  <MODEL>
3

>  <REMARK>
 VINA RESULT:      -7.1      1.900      2.316
  Name = 
  2 active torsions:
  status: ('A' for Active; 'I' for Inactive)
    1  A    between atoms: C_8  and  C_14
    2  A    between atoms: N_16  and  C_19
                            x       y       z     vdW  Elec       q    Type
                         _______ _______ _______ _____ _____    ______ ____

>  <TORSDO>
F 2

$$$$
=
 OpenBabel11042414413D

 28 31  0  0  1  0  0  0  0  0999 V2000
  186.3160  176.4500  142.0080 O   0  0  0  0  0  0  0  0  0  0  0  0
  186.0670  177.3380  147.5170 N   0  0  0  0  0  1  0  0  0  0  0  0
  185.2830  178.3810  143.7370 C   0  0  0  0  0  2  0  0  0  0  0  0
  189.1040  176.6410  144.2980 C   0  0  2  0  0  3  0  0  0  0  0  0
  188.3670  177.1890  145.5040 C   0  0  0  0  0  0  0  0  0  0  0  0
  189.0070  177.1520  146.8730 C   0  0  0  0  0  2  0  0  0  0  0  0
  190.5630  175.5570  146.1220 C   0  0  1  0  0  0  0  0  0  0  0  0
  186.9580  176.6450  143.0770 C   0  0  0  0  0  0  0  0  0  0  0  0
  186.3820  178.3290  146.5020 C   0  0  1  0  0  3  0  0  0  0  0  0
  187.1180  177.6780  145.3420 C   0  0  0  0  0  0  0  0  0  0  0  0
  190.3630  176.7450  146.8720 O   0  0  0  0  0  0  0  0  0  0  0  0
  185.1490  179.5680  144.6750 C   0  0  0  0  0  2  0  0  0  0  0  0
  188.1820  175.8280  143.3780 C   0  0  1  0  0  3  0  0  0  0  0  0
  191.4790  176.6700  144.1770 O   0  0  0  0  0  1  0  0  0  0  0  0
  186.4840  177.6000  144.0430 N   0  0  0  0  0  0  0  0  0  0  0  0
  189.5760  174.4410  146.5150 C   0  0  0  0  0  1  0  0  0  0  0  0
  190.4050  175.8980  144.6280 C   0  0  2  0  0  3  0  0  0  0  0  0
  185.0900  179.0410  146.0970 C   0  0  0  0  0  2  0  0  0  0  0  0
  193.7140  174.6110  144.6680 N   0  0  0  0  0  0  0  0  0  0  0  0
  192.5350  174.1670  145.3110 C   0  0  0  0  0  0  0  0  0  0  0  0
  192.0060  175.0610  146.3850 C   0  0  1  0  0  3  0  0  0  0  0  0
  195.3760  176.3680  144.6200 C   0  0  0  0  0  1  0  0  0  0  0  0
  191.9940  173.0710  145.0070 O   0  0  0  0  0  0  0  0  0  0  0  0
  193.2210  176.4340  146.5130 S   0  0  0  0  0  0  0  0  0  0  0  0
  194.1520  175.7190  145.1580 C   0  0  0  0  0  0  0  0  0  0  0  0
  188.8690  175.4920  142.1360 N   0  0  0  0  0  0  0  0  0  0  0  0
  189.6090  173.9580  140.5160 N   0  0  0  0  0  1  0  0  0  0  0  0
  188.9340  174.2680  141.7280 C   0  0  0  0  0  3  0  0  0  0  0  0
  1  8  2  0  0  0  0
  3 15  1  0  0  0  0
  3 12  1  0  0  0  0
  4 17  1  0  0  0  0
  4  5  1  1  0  0  0
  5  6  1  0  0  0  0
  7 21  1  0  0  0  0
  7 16  1  1  0  0  0
  7 11  1  0  0  0  0
  8 13  1  0  0  0  0
  8 15  1  0  0  0  0
  9  2  1  1  0  0  0
 10  5  2  0  0  0  0
 10  9  1  0  0  0  0
 11  6  1  0  0  0  0
 12 18  1  0  0  0  0
 13 26  1  6  0  0  0
 13  4  1  0  0  0  0
 15 10  1  0  0  0  0
 17 14  1  1  0  0  0
 17  7  1  0  0  0  0
 18  9  1  0  0  0  0
 19 25  2  0  0  0  0
 19 20  1  0  0  0  0
 21 20  1  6  0  0  0
 21 24  1  0  0  0  0
 22 25  1  0  0  0  0
 23 20  2  0  0  0  0
 25 24  1  0  0  0  0
 27 28  1  0  0  0  0
 28 26  2  0  0  0  0
M  END
>  <MODEL>
4

>  <REMARK>
 VINA RESULT:      -6.9      1.536      1.766
  Name = 
  2 active torsions:
  status: ('A' for Active; 'I' for Inactive)
    1  A    between atoms: C_8  and  C_14
    2  A    between atoms: N_16  and  C_19
                            x       y       z     vdW  Elec       q    Type
                         _______ _______ _______ _____ _____    ______ ____

>  <TORSDO>
F 2

$$$$
=
 OpenBabel11042414413D

 28 31  0  0  1  0  0  0  0  0999 V2000
  187.7610  178.5320  147.9050 O   0  0  0  0  0  0  0  0  0  0  0  0
  186.0100  178.6650  142.6020 N   0  0  0  0  0  1  0  0  0  0  0  0
  185.3360  178.7540  146.5430 C   0  0  0  0  0  2  0  0  0  0  0  0
  188.3630  176.0360  145.3620 C   0  0  2  0  0  3  0  0  0  0  0  0
  187.3850  176.5380  144.3190 C   0  0  0  0  0  0  0  0  0  0  0  0
  187.4660  176.0410  142.8930 C   0  0  0  0  0  2  0  0  0  0  0  0
  189.6490  175.2540  143.2730 C   0  0  1  0  0  0  0  0  0  0  0  0
  187.6800  177.9220  146.8030 C   0  0  0  0  0  0  0  0  0  0  0  0
  185.4000  177.9160  143.6880 C   0  0  1  0  0  3  0  0  0  0  0  0
  186.4640  177.4600  144.6740 C   0  0  0  0  0  0  0  0  0  0  0  0
  188.3820  174.9790  142.6970 O   0  0  0  0  0  0  0  0  0  0  0  0
  184.0660  178.4290  145.7740 C   0  0  0  0  0  2  0  0  0  0  0  0
  188.8650  177.1650  146.2740 C   0  0  1  0  0  3  0  0  0  0  0  0
  189.3160  173.8620  145.2250 O   0  0  0  0  0  1  0  0  0  0  0  0
  186.4780  178.0030  146.0160 N   0  0  0  0  0  0  0  0  0  0  0  0
  190.1950  176.6350  142.8600 C   0  0  0  0  0  1  0  0  0  0  0  0
  189.5090  175.1810  144.8060 C   0  0  2  0  0  3  0  0  0  0  0  0
  184.2990  178.7730  144.3140 C   0  0  0  0  0  2  0  0  0  0  0  0
  192.1690  174.3420  140.8740 N   0  0  0  0  0  0  0  0  0  0  0  0
  190.8400  174.1440  141.3160 C   0  0  0  0  0  0  0  0  0  0  0  0
  190.6400  174.1640  142.7960 C   0  0  1  0  0  3  0  0  0  0  0  0
  194.4450  174.7020  141.6080 C   0  0  0  0  0  1  0  0  0  0  0  0
  189.9000  173.9370  140.5030 O   0  0  0  0  0  0  0  0  0  0  0  0
  192.3220  174.3670  143.5090 S   0  0  0  0  0  0  0  0  0  0  0  0
  192.9970  174.4740  141.8510 C   0  0  0  0  0  0  0  0  0  0  0  0
  189.6380  176.6200  147.3840 N   0  0  0  0  0  0  0  0  0  0  0  0
  191.5660  176.5090  148.7230 N   0  0  0  0  0  1  0  0  0  0  0  0
  190.8270  177.0540  147.6380 C   0  0  0  0  0  3  0  0  0  0  0  0
  4  5  1  6  0  0  0
  4 13  1  0  0  0  0
  5 10  2  0  0  0  0
  6  5  1  0  0  0  0
  7 16  1  6  0  0  0
  7 17  1  0  0  0  0
  8  1  2  0  0  0  0
  9  2  1  6  0  0  0
  9 18  1  0  0  0  0
  9 10  1  0  0  0  0
 10 15  1  0  0  0  0
 11  6  1  0  0  0  0
 11  7  1  0  0  0  0
 12  3  1  0  0  0  0
 13  8  1  0  0  0  0
 13 26  1  1  0  0  0
 15  3  1  0  0  0  0
 15  8  1  0  0  0  0
 17 14  1  6  0  0  0
 17  4  1  0  0  0  0
 18 12  1  0  0  0  0
 19 20  1  0  0  0  0
 19 25  2  0  0  0  0
 21 20  1  6  0  0  0
 21  7  1  0  0  0  0
 21 24  1  0  0  0  0
 22 25  1  0  0  0  0
 23 20  2  0  0  0  0
 25 24  1  0  0  0  0
 26 28  2  0  0  0  0
 28 27  1  0  0  0  0
M  END
>  <MODEL>
5

>  <REMARK>
 VINA RESULT:      -6.8      2.475      4.407
  Name = 
  2 active torsions:
  status: ('A' for Active; 'I' for Inactive)
    1  A    between atoms: C_8  and  C_14
    2  A    between atoms: N_16  and  C_19
                            x       y       z     vdW  Elec       q    Type
                         _______ _______ _______ _____ _____    ______ ____

>  <TORSDO>
F 2

$$$$
=
 OpenBabel11042414413D

 28 31  0  0  1  0  0  0  0  0999 V2000
  188.3520  175.2040  147.7250 O   0  0  0  0  0  0  0  0  0  0  0  0
  191.1390  174.8810  142.8940 N   0  0  0  0  0  1  0  0  0  0  0  0
  191.0100  175.2480  146.8740 C   0  0  0  0  0  2  0  0  0  0  0  0
  187.9380  177.3380  144.8390 C   0  0  2  0  0  3  0  0  0  0  0  0
  189.1660  176.9070  144.0630 C   0  0  0  0  0  0  0  0  0  0  0  0
  189.3070  177.2570  142.5990 C   0  0  0  0  0  2  0  0  0  0  0  0
  187.0050  177.7200  142.4700 C   0  0  1  0  0  0  0  0  0  0  0  0
  188.5700  175.7190  146.5930 C   0  0  0  0  0  0  0  0  0  0  0  0
  191.4080  175.8100  143.9790 C   0  0  1  0  0  3  0  0  0  0  0  0
  190.1150  176.1770  144.6890 C   0  0  0  0  0  0  0  0  0  0  0  0
  188.3130  178.1400  142.1120 O   0  0  0  0  0  0  0  0  0  0  0  0
  192.3510  175.7010  146.3220 C   0  0  0  0  0  2  0  0  0  0  0  0
  187.4230  176.2290  145.7680 C   0  0  1  0  0  3  0  0  0  0  0  0
  186.7420  179.3140  144.2720 O   0  0  0  0  0  1  0  0  0  0  0  0
  189.9050  175.7590  146.0590 N   0  0  0  0  0  0  0  0  0  0  0  0
  186.7490  176.2390  142.1280 C   0  0  0  0  0  1  0  0  0  0  0  0
  186.8220  177.9490  143.9830 C   0  0  2  0  0  3  0  0  0  0  0  0
  192.4680  175.1960  144.8960 C   0  0  0  0  0  2  0  0  0  0  0  0
  184.2780  177.7700  140.1250 N   0  0  0  0  0  0  0  0  0  0  0  0
  185.6470  178.0520  140.3430 C   0  0  0  0  0  0  0  0  0  0  0  0
  185.9900  178.5940  141.6920 C   0  0  1  0  0  3  0  0  0  0  0  0
  182.0790  177.8420  141.1290 C   0  0  0  0  0  1  0  0  0  0  0  0
  186.5060  177.8800  139.4370 O   0  0  0  0  0  0  0  0  0  0  0  0
  184.3830  178.7690  142.5660 S   0  0  0  0  0  0  0  0  0  0  0  0
  183.5470  178.0690  141.1430 C   0  0  0  0  0  0  0  0  0  0  0  0
  186.3750  176.7420  146.6420 N   0  0  0  0  0  0  0  0  0  0  0  0
  185.5470  178.2660  148.2280 N   0  0  0  0  0  1  0  0  0  0  0  0
  186.5800  177.7820  147.3800 C   0  0  0  0  0  3  0  0  0  0  0  0
  4  5  1  6  0  0  0
  4 13  1  0  0  0  0
  5 10  2  0  0  0  0
  6  5  1  0  0  0  0
  7 16  1  6  0  0  0
  7 17  1  0  0  0  0
  8  1  2  0  0  0  0
  9  2  1  6  0  0  0
  9 10  1  0  0  0  0
  9 18  1  0  0  0  0
 10 15  1  0  0  0  0
 11  7  1  0  0  0  0
 11  6  1  0  0  0  0
 12  3  1  0  0  0  0
 13  8  1  0  0  0  0
 13 26  1  1  0  0  0
 15  8  1  0  0  0  0
 15  3  1  0  0  0  0
 17 14  1  6  0  0  0
 17  4  1  0  0  0  0
 18 12  1  0  0  0  0
 19 20  1  0  0  0  0
 19 25  2  0  0  0  0
 21 20  1  6  0  0  0
 21  7  1  0  0  0  0
 21 24  1  0  0  0  0
 22 25  1  0  0  0  0
 23 20  2  0  0  0  0
 25 24  1  0  0  0  0
 26 28  2  0  0  0  0
 28 27  1  0  0  0  0
M  END
>  <MODEL>
6

>  <REMARK>
 VINA RESULT:      -6.6      2.971      7.226
  Name = 
  2 active torsions:
  status: ('A' for Active; 'I' for Inactive)
    1  A    between atoms: C_8  and  C_14
    2  A    between atoms: N_16  and  C_19
                            x       y       z     vdW  Elec       q    Type
                         _______ _______ _______ _____ _____    ______ ____

>  <TORSDO>
F 2

$$$$
=
 OpenBabel11042414413D

 28 31  0  0  1  0  0  0  0  0999 V2000
  194.3660  173.9020  143.6670 O   0  0  0  0  0  0  0  0  0  0  0  0
  189.3350  171.6250  142.8240 N   0  0  0  0  0  1  0  0  0  0  0  0
  193.1500  172.2320  141.7900 C   0  0  0  0  0  2  0  0  0  0  0  0
  191.2180  175.6520  143.3770 C   0  0  2  0  0  3  0  0  0  0  0  0
  190.3690  174.5050  142.8680 C   0  0  0  0  0  0  0  0  0  0  0  0
  188.8600  174.6020  142.8870 C   0  0  0  0  0  2  0  0  0  0  0  0
  188.9780  176.3870  144.4130 C   0  0  1  0  0  0  0  0  0  0  0  0
  193.1370  174.1010  143.4530 C   0  0  0  0  0  0  0  0  0  0  0  0
  190.1740  172.2490  141.8140 C   0  0  1  0  0  3  0  0  0  0  0  0
  190.9800  173.3820  142.4280 C   0  0  0  0  0  0  0  0  0  0  0  0
  188.3630  175.8800  143.2390 O   0  0  0  0  0  0  0  0  0  0  0  0
  192.3360  171.7180  140.6150 C   0  0  0  0  0  2  0  0  0  0  0  0
  192.4040  175.1630  144.2220 C   0  0  1  0  0  3  0  0  0  0  0  0
  190.4650  177.9040  143.2520 O   0  0  0  0  0  1  0  0  0  0  0  0
  192.4200  173.2700  142.5240 N   0  0  0  0  0  0  0  0  0  0  0  0
  188.9620  175.3700  145.5700 C   0  0  0  0  0  1  0  0  0  0  0  0
  190.4300  176.7710  144.0700 C   0  0  2  0  0  3  0  0  0  0  0  0
  191.0280  171.1660  141.1530 C   0  0  0  0  0  2  0  0  0  0  0  0
  185.8050  178.0810  144.4810 N   0  0  0  0  0  0  0  0  0  0  0  0
  187.1010  178.0340  143.9170 C   0  0  0  0  0  0  0  0  0  0  0  0
  188.2020  177.6540  144.8520 C   0  0  1  0  0  3  0  0  0  0  0  0
  184.5480  177.7960  146.5280 C   0  0  0  0  0  1  0  0  0  0  0  0
  187.3030  178.3270  142.7080 O   0  0  0  0  0  0  0  0  0  0  0  0
  187.3980  177.4640  146.4940 S   0  0  0  0  0  0  0  0  0  0  0  0
  185.8090  177.8120  145.7410 C   0  0  0  0  0  0  0  0  0  0  0  0
  193.3060  176.2670  144.5220 N   0  0  0  0  0  0  0  0  0  0  0  0
  194.6010  177.5550  146.0030 N   0  0  0  0  0  1  0  0  0  0  0  0
  193.7220  176.4720  145.7280 C   0  0  0  0  0  3  0  0  0  0  0  0
  3 15  1  0  0  0  0
  4  5  1  1  0  0  0
  4 17  1  0  0  0  0
  4 13  1  0  0  0  0
  5  6  1  0  0  0  0
  6 11  1  0  0  0  0
  7 21  1  0  0  0  0
  7 16  1  1  0  0  0
  8  1  2  0  0  0  0
  8 13  1  0  0  0  0
  9 10  1  0  0  0  0
  9  2  1  1  0  0  0
 10 15  1  0  0  0  0
 10  5  2  0  0  0  0
 11  7  1  0  0  0  0
 12 18  1  0  0  0  0
 12  3  1  0  0  0  0
 13 26  1  6  0  0  0
 15  8  1  0  0  0  0
 17 14  1  6  0  0  0
 17  7  1  0  0  0  0
 18  9  1  0  0  0  0
 19 25  2  0  0  0  0
 20 19  1  0  0  0  0
 21 20  1  6  0  0  0
 21 24  1  0  0  0  0
 23 20  2  0  0  0  0
 25 24  1  0  0  0  0
 25 22  1  0  0  0  0
 26 28  2  0  0  0  0
 28 27  1  0  0  0  0
M  END
>  <MODEL>
7

>  <REMARK>
 VINA RESULT:      -6.6      2.897      7.285
  Name = 
  2 active torsions:
  status: ('A' for Active; 'I' for Inactive)
    1  A    between atoms: C_8  and  C_14
    2  A    between atoms: N_16  and  C_19
                            x       y       z     vdW  Elec       q    Type
                         _______ _______ _______ _____ _____    ______ ____

>  <TORSDO>
F 2

$$$$
=
 OpenBabel11042414413D

 28 31  0  0  1  0  0  0  0  0999 V2000
  184.6440  179.5460  145.0980 O   0  0  0  0  0  0  0  0  0  0  0  0
  186.5910  178.2660  140.0220 N   0  0  0  0  0  1  0  0  0  0  0  0
  183.6030  178.7520  142.6340 C   0  0  0  0  0  2  0  0  0  0  0  0
  187.0900  177.0120  144.2930 C   0  0  2  0  0  3  0  0  0  0  0  0
  186.9130  176.9990  142.7880 C   0  0  0  0  0  0  0  0  0  0  0  0
  187.9440  176.3360  141.9020 C   0  0  0  0  0  2  0  0  0  0  0  0
  189.5020  176.3700  143.6620 C   0  0  1  0  0  0  0  0  0  0  0  0
  185.3670  178.7760  144.4060 C   0  0  0  0  0  0  0  0  0  0  0  0
  185.5670  177.5410  140.7550 C   0  0  1  0  0  3  0  0  0  0  0  0
  185.8390  177.6160  142.2490 C   0  0  0  0  0  0  0  0  0  0  0  0
  188.9370  175.6120  142.6040 O   0  0  0  0  0  0  0  0  0  0  0  0
  183.1630  177.9160  141.4440 C   0  0  0  0  0  2  0  0  0  0  0  0
  186.7250  178.3720  144.9060 C   0  0  1  0  0  3  0  0  0  0  0  0
  188.2540  175.2710  145.4210 O   0  0  0  0  0  1  0  0  0  0  0  0
  184.9260  178.3390  143.1090 N   0  0  0  0  0  0  0  0  0  0  0  0
  189.9570  177.7690  143.2040 C   0  0  0  0  0  1  0  0  0  0  0  0
  188.4510  176.4980  144.7810 C   0  0  2  0  0  3  0  0  0  0  0  0
  184.1970  178.0820  140.3440 C   0  0  0  0  0  2  0  0  0  0  0  0
  193.0860  176.0630  143.6420 N   0  0  0  0  0  0  0  0  0  0  0  0
  191.8570  175.5070  143.2200 C   0  0  0  0  0  0  0  0  0  0  0  0
  190.7330  175.5990  144.2010 C   0  0  1  0  0  3  0  0  0  0  0  0
  194.2090  177.1720  145.4760 C   0  0  0  0  0  1  0  0  0  0  0  0
  191.7390  174.9470  142.0980 O   0  0  0  0  0  0  0  0  0  0  0  0
  191.4620  176.3750  145.6990 S   0  0  0  0  0  0  0  0  0  0  0  0
  193.0270  176.5320  144.8400 C   0  0  0  0  0  0  0  0  0  0  0  0
  186.7110  178.2880  146.3610 N   0  0  0  0  0  0  0  0  0  0  0  0
  185.9410  177.3780  148.3880 N   0  0  0  0  0  1  0  0  0  0  0  0
  185.9430  177.4440  146.9680 C   0  0  0  0  0  3  0  0  0  0  0  0
  3 15  1  0  0  0  0
  4  5  1  6  0  0  0
  4 17  1  0  0  0  0
  4 13  1  0  0  0  0
  6 11  1  0  0  0  0
  6  5  1  0  0  0  0
  7 16  1  6  0  0  0
  7 21  1  0  0  0  0
  7 17  1  0  0  0  0
  8 13  1  0  0  0  0
  8  1  2  0  0  0  0
  9  2  1  6  0  0  0
  9 10  1  0  0  0  0
 10  5  2  0  0  0  0
 10 15  1  0  0  0  0
 11  7  1  0  0  0  0
 12  3  1  0  0  0  0
 13 26  1  1  0  0  0
 15  8  1  0  0  0  0
 17 14  1  6  0  0  0
 18  9  1  0  0  0  0
 18 12  1  0  0  0  0
 19 25  2  0  0  0  0
 20 19  1  0  0  0  0
 21 20  1  6  0  0  0
 21 24  1  0  0  0  0
 23 20  2  0  0  0  0
 25 22  1  0  0  0  0
 25 24  1  0  0  0  0
 26 28  2  0  0  0  0
 28 27  1  0  0  0  0
M  END
>  <MODEL>
8

>  <REMARK>
 VINA RESULT:      -6.6      2.361      4.468
  Name = 
  2 active torsions:
  status: ('A' for Active; 'I' for Inactive)
    1  A    between atoms: C_8  and  C_14
    2  A    between atoms: N_16  and  C_19
                            x       y       z     vdW  Elec       q    Type
                         _______ _______ _______ _____ _____    ______ ____

>  <TORSDO>
F 2

$$$$
=
 OpenBabel11042414413D

 28 31  0  0  1  0  0  0  0  0999 V2000
  194.0270  174.3810  141.3700 O   0  0  0  0  0  0  0  0  0  0  0  0
  193.9510  176.8320  146.3880 N   0  0  0  0  0  1  0  0  0  0  0  0
  195.3530  174.1150  143.8110 C   0  0  0  0  0  2  0  0  0  0  0  0
  191.1730  174.7550  143.5540 C   0  0  2  0  0  3  0  0  0  0  0  0
  191.9050  175.2000  144.8040 C   0  0  0  0  0  0  0  0  0  0  0  0
  191.1440  175.8210  145.9550 C   0  0  0  0  0  2  0  0  0  0  0  0
  189.3080  176.2280  144.5440 C   0  0  1  0  0  0  0  0  0  0  0  0
  193.3560  174.6510  142.4040 C   0  0  0  0  0  0  0  0  0  0  0  0
  194.0090  175.4030  146.1330 C   0  0  1  0  0  3  0  0  0  0  0  0
  193.2480  175.0650  144.8620 C   0  0  0  0  0  0  0  0  0  0  0  0
  189.7360  175.7710  145.8180 O   0  0  0  0  0  0  0  0  0  0  0  0
  195.6990  173.7460  145.2440 C   0  0  0  0  0  2  0  0  0  0  0  0
  191.9370  175.1280  142.2750 C   0  0  1  0  0  3  0  0  0  0  0  0
  188.9130  174.0210  143.6330 O   0  0  0  0  0  1  0  0  0  0  0  0
  193.9650  174.5720  143.7050 N   0  0  0  0  0  0  0  0  0  0  0  0
  189.9250  177.5900  144.1710 C   0  0  0  0  0  1  0  0  0  0  0  0
  189.6970  175.1690  143.4950 C   0  0  2  0  0  3  0  0  0  0  0  0
  195.4760  174.9700  146.1130 C   0  0  0  0  0  2  0  0  0  0  0  0
  186.5090  178.1540  145.7240 N   0  0  0  0  0  0  0  0  0  0  0  0
  187.2500  176.9560  145.8540 C   0  0  0  0  0  0  0  0  0  0  0  0
  187.7660  176.3730  144.5790 C   0  0  1  0  0  3  0  0  0  0  0  0
  185.6410  179.7590  144.1370 C   0  0  0  0  0  1  0  0  0  0  0  0
  187.4300  176.4130  146.9760 O   0  0  0  0  0  0  0  0  0  0  0  0
  187.1220  177.4670  143.2500 S   0  0  0  0  0  0  0  0  0  0  0  0
  186.3780  178.5200  144.4960 C   0  0  0  0  0  0  0  0  0  0  0  0
  191.3130  174.5110  141.1100 N   0  0  0  0  0  0  0  0  0  0  0  0
  190.5380  172.6470  139.9050 N   0  0  0  0  0  1  0  0  0  0  0  0
  191.1470  173.2310  141.0500 C   0  0  0  0  0  3  0  0  0  0  0  0
  1  8  2  0  0  0  0
  3 12  1  0  0  0  0
  4  5  1  1  0  0  0
  5 10  2  0  0  0  0
  5  6  1  0  0  0  0
  7 16  1  6  0  0  0
  7 21  1  0  0  0  0
  7 11  1  0  0  0  0
  8 15  1  0  0  0  0
  9  2  1  6  0  0  0
 10  9  1  0  0  0  0
 11  6  1  0  0  0  0
 12 18  1  0  0  0  0
 13 26  1  6  0  0  0
 13  8  1  0  0  0  0
 13  4  1  0  0  0  0
 15  3  1  0  0  0  0
 15 10  1  0  0  0  0
 17  4  1  0  0  0  0
 17 14  1  1  0  0  0
 17  7  1  0  0  0  0
 18  9  1  0  0  0  0
 19 20  1  0  0  0  0
 20 23  2  0  0  0  0
 21 24  1  6  0  0  0
 21 20  1  0  0  0  0
 22 25  1  0  0  0  0
 24 25  1  0  0  0  0
 25 19  2  0  0  0  0
 27 28  1  0  0  0  0
 28 26  2  0  0  0  0
M  END
>  <MODEL>
9

>  <REMARK>
 VINA RESULT:      -6.4      2.631      6.832
  Name = 
  2 active torsions:
  status: ('A' for Active; 'I' for Inactive)
    1  A    between atoms: C_8  and  C_14
    2  A    between atoms: N_16  and  C_19
                            x       y       z     vdW  Elec       q    Type
                         _______ _______ _______ _____ _____    ______ ____

>  <TORSDO>
F 2

$$$$
