=
 OpenBabel11042413503D

 25 28  0  0  1  0  0  0  0  0999 V2000
  189.8330  177.4720  143.4170 C   0  0  1  0  0  3  0  0  0  0  0  0
  187.3510  177.0540  143.9470 N   0  0  0  0  0  0  0  0  0  0  0  0
  188.6980  177.2670  144.3910 C   0  0  0  0  0  0  0  0  0  0  0  0
  186.3900  178.7540  142.4670 C   0  0  0  0  0  1  0  0  0  0  0  0
  187.1490  176.6210  140.3300 O   0  0  0  0  0  1  0  0  0  0  0  0
  186.8220  177.3040  142.6010 C   0  0  1  0  0  3  0  0  0  0  0  0
  185.4160  177.5440  145.3620 C   0  0  0  0  0  2  0  0  0  0  0  0
  187.4610  177.0660  146.2950 N   0  0  0  0  0  0  0  0  0  0  0  0
  185.4180  177.9230  146.7760 C   0  0  0  0  0  0  0  0  0  0  0  0
  184.4220  178.3900  147.3870 O   0  0  0  0  0  0  0  0  0  0  0  0
  188.7810  175.8390  141.8910 C   0  0  0  0  0  2  0  0  0  0  0  0
  188.7500  177.3090  145.7320 C   0  0  0  0  0  0  0  0  0  0  0  0
  186.6200  177.0280  145.1660 C   0  0  2  0  0  3  0  0  0  0  0  0
  191.0350  177.7640  144.0630 O   0  0  0  0  0  1  0  0  0  0  0  0
  187.8340  176.9740  141.4930 C   0  0  1  0  0  3  0  0  0  0  0  0
  186.7750  177.7510  147.3750 C   0  0  0  0  0  2  0  0  0  0  0  0
  190.0190  176.3150  142.5310 N   0  0  0  0  0  2  0  0  0  0  0  0
  189.9040  177.5520  146.4780 O   0  0  0  0  0  0  0  0  0  0  0  0
  190.4270  176.5950  147.3850 C   0  0  0  0  0  2  0  0  0  0  0  0
  191.4230  174.7800  145.9850 C   0  0  0  0  0  3  0  0  0  0  0  0
  193.7360  174.6780  145.5860 N   0  0  0  0  0  0  0  0  0  0  0  0
  192.8820  176.4320  146.9460 C   0  0  0  0  0  3  0  0  0  0  0  0
  192.5060  174.1900  145.4130 N   0  0  0  0  0  0  0  0  0  0  0  0
  193.9580  175.7880  146.3380 C   0  0  0  0  0  3  0  0  0  0  0  0
  191.6000  175.9150  146.7730 C   0  0  0  0  0  0  0  0  0  0  0  0
  1 14  1  1  0  0  0
  1  3  1  0  0  0  0
  2  3  1  0  0  0  0
  2 13  1  0  0  0  0
  3 12  2  0  0  0  0
  6  4  1  1  0  0  0
  6  2  1  0  0  0  0
  7  9  1  0  0  0  0
  8 16  1  0  0  0  0
  9 16  1  0  0  0  0
  9 10  2  0  0  0  0
 11 17  1  0  0  0  0
 12  8  1  0  0  0  0
 12 18  1  0  0  0  0
 13  7  1  6  0  0  0
 13  8  1  0  0  0  0
 15  5  1  6  0  0  0
 15 11  1  0  0  0  0
 15  6  1  0  0  0  0
 17  1  1  0  0  0  0
 18 19  1  0  0  0  0
 20 25  1  0  0  0  0
 21 24  2  0  0  0  0
 23 21  1  0  0  0  0
 23 20  2  0  0  0  0
 24 22  1  0  0  0  0
 25 22  2  0  0  0  0
 25 19  1  0  0  0  0
M  END
>  <MODEL>
1

>  <REMARK>
 VINA RESULT:      -7.1      0.000      0.000
  Name = 
  3 active torsions:
  status: ('A' for Active; 'I' for Inactive)
    1  A    between atoms: O_6  and  C_17
    2  A    between atoms: O_6  and  C_19
    3  A    between atoms: C_19  and  C_24
                            x       y       z     vdW  Elec       q    Type
                         _______ _______ _______ _____ _____    ______ ____

>  <TORSDO>
F 3

$$$$
=
 OpenBabel11042413503D

 25 28  0  0  1  0  0  0  0  0999 V2000
  187.9660  178.3200  141.9840 C   0  0  1  0  0  3  0  0  0  0  0  0
  186.2040  177.4100  143.6210 N   0  0  0  0  0  0  0  0  0  0  0  0
  187.5770  177.6050  143.2540 C   0  0  0  0  0  0  0  0  0  0  0  0
  184.8020  179.4140  143.7700 C   0  0  0  0  0  1  0  0  0  0  0  0
  183.9170  178.4080  140.9600 O   0  0  0  0  0  1  0  0  0  0  0  0
  185.0390  178.0970  143.0520 C   0  0  1  0  0  3  0  0  0  0  0  0
  185.5090  177.0500  145.9400 C   0  0  0  0  0  2  0  0  0  0  0  0
  187.6370  176.5140  145.2560 N   0  0  0  0  0  0  0  0  0  0  0  0
  186.3690  176.8390  147.1060 C   0  0  0  0  0  0  0  0  0  0  0  0
  185.9730  176.8960  148.2990 O   0  0  0  0  0  0  0  0  0  0  0  0
  186.0280  177.2960  140.8460 C   0  0  0  0  0  2  0  0  0  0  0  0
  188.3900  177.1230  144.2070 C   0  0  0  0  0  0  0  0  0  0  0  0
  186.3050  176.8130  144.9070 C   0  0  2  0  0  3  0  0  0  0  0  0
  189.3480  178.4890  141.8770 O   0  0  0  0  0  1  0  0  0  0  0  0
  185.1820  178.3630  141.5450 C   0  0  1  0  0  3  0  0  0  0  0  0
  187.7880  176.6240  146.6940 C   0  0  0  0  0  2  0  0  0  0  0  0
  187.4600  177.6390  140.7860 N   0  0  0  0  0  2  0  0  0  0  0  0
  189.7840  177.2020  144.1810 O   0  0  0  0  0  0  0  0  0  0  0  0
  190.6000  176.0420  144.1510 C   0  0  0  0  0  2  0  0  0  0  0  0
  191.7320  176.3400  146.3600 C   0  0  0  0  0  3  0  0  0  0  0  0
  194.0600  176.6270  146.5080 N   0  0  0  0  0  0  0  0  0  0  0  0
  193.0690  176.3710  144.3610 C   0  0  0  0  0  3  0  0  0  0  0  0
  192.8640  176.5200  147.0910 N   0  0  0  0  0  0  0  0  0  0  0  0
  194.1980  176.5560  145.1570 C   0  0  0  0  0  3  0  0  0  0  0  0
  191.8210  176.2700  144.9700 C   0  0  0  0  0  0  0  0  0  0  0  0
  1 14  1  6  0  0  0
  1  3  1  0  0  0  0
  2 13  1  0  0  0  0
  3  2  1  0  0  0  0
  3 12  2  0  0  0  0
  6  2  1  0  0  0  0
  6  4  1  1  0  0  0
  7  9  1  0  0  0  0
  8 16  1  0  0  0  0
  9 10  2  0  0  0  0
 11 15  1  0  0  0  0
 12  8  1  0  0  0  0
 13  8  1  0  0  0  0
 13  7  1  1  0  0  0
 15  5  1  6  0  0  0
 15  6  1  0  0  0  0
 16  9  1  0  0  0  0
 17 11  1  0  0  0  0
 17  1  1  0  0  0  0
 18 12  1  0  0  0  0
 19 18  1  0  0  0  0
 19 25  1  0  0  0  0
 20 23  1  0  0  0  0
 21 23  2  0  0  0  0
 22 25  1  0  0  0  0
 22 24  2  0  0  0  0
 24 21  1  0  0  0  0
 25 20  2  0  0  0  0
M  END
>  <MODEL>
2

>  <REMARK>
 VINA RESULT:      -7.1      1.887      2.296
  Name = 
  3 active torsions:
  status: ('A' for Active; 'I' for Inactive)
    1  A    between atoms: O_6  and  C_17
    2  A    between atoms: O_6  and  C_19
    3  A    between atoms: C_19  and  C_24
                            x       y       z     vdW  Elec       q    Type
                         _______ _______ _______ _____ _____    ______ ____

>  <TORSDO>
F 3

$$$$
=
 OpenBabel11042413503D

 25 28  0  0  1  0  0  0  0  0999 V2000
  188.0950  178.2020  142.0790 C   0  0  1  0  0  3  0  0  0  0  0  0
  186.2400  177.4410  143.6890 N   0  0  0  0  0  0  0  0  0  0  0  0
  187.6310  177.5400  143.3520 C   0  0  0  0  0  0  0  0  0  0  0  0
  184.9670  179.5330  143.7650 C   0  0  0  0  0  1  0  0  0  0  0  0
  184.0850  178.5270  140.9530 O   0  0  0  0  0  1  0  0  0  0  0  0
  185.1350  178.1890  143.0780 C   0  0  1  0  0  3  0  0  0  0  0  0
  185.4700  177.1740  145.9960 C   0  0  0  0  0  2  0  0  0  0  0  0
  187.5740  176.4890  145.3760 N   0  0  0  0  0  0  0  0  0  0  0  0
  186.2860  176.9340  147.1870 C   0  0  0  0  0  0  0  0  0  0  0  0
  185.8670  177.0410  148.3690 O   0  0  0  0  0  0  0  0  0  0  0  0
  186.1230  177.2800  140.9130 C   0  0  0  0  0  2  0  0  0  0  0  0
  188.3890  177.0270  144.3350 C   0  0  0  0  0  0  0  0  0  0  0  0
  186.2730  176.8660  144.9890 C   0  0  2  0  0  3  0  0  0  0  0  0
  189.4870  178.2800  142.0020 O   0  0  0  0  0  1  0  0  0  0  0  0
  185.3310  178.4140  141.5700 C   0  0  1  0  0  3  0  0  0  0  0  0
  187.6980  176.6200  146.8150 C   0  0  0  0  0  2  0  0  0  0  0  0
  187.5740  177.5300  140.8820 N   0  0  0  0  0  2  0  0  0  0  0  0
  189.7850  177.0160  144.3410 O   0  0  0  0  0  0  0  0  0  0  0  0
  190.5250  175.8430  144.6380 C   0  0  0  0  0  2  0  0  0  0  0  0
  190.6330  175.0200  142.2800 C   0  0  0  0  0  3  0  0  0  0  0  0
  189.8280  172.8920  141.6930 N   0  0  0  0  0  0  0  0  0  0  0  0
  189.6650  173.5960  143.9590 C   0  0  0  0  0  3  0  0  0  0  0  0
  190.4030  174.0490  141.3570 N   0  0  0  0  0  0  0  0  0  0  0  0
  189.4510  172.6340  142.9730 C   0  0  0  0  0  3  0  0  0  0  0  0
  190.2560  174.8070  143.6050 C   0  0  0  0  0  0  0  0  0  0  0  0
  1 14  1  6  0  0  0
  1  3  1  0  0  0  0
  2 13  1  0  0  0  0
  3  2  1  0  0  0  0
  3 12  2  0  0  0  0
  6  2  1  0  0  0  0
  6  4  1  1  0  0  0
  7  9  1  0  0  0  0
  8 16  1  0  0  0  0
  9 10  2  0  0  0  0
 11 15  1  0  0  0  0
 12 18  1  0  0  0  0
 12  8  1  0  0  0  0
 13  8  1  0  0  0  0
 13  7  1  1  0  0  0
 15  5  1  6  0  0  0
 15  6  1  0  0  0  0
 16  9  1  0  0  0  0
 17 11  1  0  0  0  0
 17  1  1  0  0  0  0
 18 19  1  0  0  0  0
 20 25  1  0  0  0  0
 21 24  2  0  0  0  0
 23 21  1  0  0  0  0
 23 20  2  0  0  0  0
 24 22  1  0  0  0  0
 25 22  2  0  0  0  0
 25 19  1  0  0  0  0
M  END
>  <MODEL>
3

>  <REMARK>
 VINA RESULT:      -6.8      2.395      3.120
  Name = 
  3 active torsions:
  status: ('A' for Active; 'I' for Inactive)
    1  A    between atoms: O_6  and  C_17
    2  A    between atoms: O_6  and  C_19
    3  A    between atoms: C_19  and  C_24
                            x       y       z     vdW  Elec       q    Type
                         _______ _______ _______ _____ _____    ______ ____

>  <TORSDO>
F 3

$$$$
=
 OpenBabel11042413503D

 25 28  0  0  1  0  0  0  0  0999 V2000
  189.1880  175.0430  143.1900 C   0  0  1  0  0  3  0  0  0  0  0  0
  189.2040  176.4060  145.3710 N   0  0  0  0  0  0  0  0  0  0  0  0
  188.6390  176.1290  144.0810 C   0  0  0  0  0  0  0  0  0  0  0  0
  189.3320  174.5340  146.9480 C   0  0  0  0  0  1  0  0  0  0  0  0
  192.2820  174.5360  145.9510 O   0  0  0  0  0  1  0  0  0  0  0  0
  190.1180  175.5440  146.1300 C   0  0  1  0  0  3  0  0  0  0  0  0
  187.9260  177.4970  147.1490 C   0  0  0  0  0  2  0  0  0  0  0  0
  187.3760  177.8220  144.9420 N   0  0  0  0  0  0  0  0  0  0  0  0
  186.5960  178.0990  147.0520 C   0  0  0  0  0  0  0  0  0  0  0  0
  185.8930  178.4320  148.0410 O   0  0  0  0  0  0  0  0  0  0  0  0
  191.4670  175.5920  143.9690 C   0  0  0  0  0  2  0  0  0  0  0  0
  187.5750  176.9160  143.8560 C   0  0  0  0  0  0  0  0  0  0  0  0
  188.3260  177.3960  145.8910 C   0  0  2  0  0  3  0  0  0  0  0  0
  188.4270  174.8770  142.0310 O   0  0  0  0  0  1  0  0  0  0  0  0
  191.1170  174.7990  145.2310 C   0  0  1  0  0  3  0  0  0  0  0  0
  186.1540  178.1970  145.6280 C   0  0  0  0  0  2  0  0  0  0  0  0
  190.5910  175.2790  142.8260 N   0  0  0  0  0  2  0  0  0  0  0  0
  186.7700  176.8620  142.7170 O   0  0  0  0  0  0  0  0  0  0  0  0
  186.5320  178.0050  141.9120 C   0  0  0  0  0  2  0  0  0  0  0  0
  184.5780  178.0510  140.3540 C   0  0  0  0  0  3  0  0  0  0  0  0
  182.3860  178.3250  141.1550 N   0  0  0  0  0  0  0  0  0  0  0  0
  184.1850  178.3130  142.7120 C   0  0  0  0  0  3  0  0  0  0  0  0
  183.2390  178.1500  140.1430 N   0  0  0  0  0  0  0  0  0  0  0  0
  182.8210  178.4090  142.4410 C   0  0  0  0  0  3  0  0  0  0  0  0
  185.0740  178.1400  141.6540 C   0  0  0  0  0  0  0  0  0  0  0  0
  1 14  1  6  0  0  0
  1  3  1  0  0  0  0
  2 13  1  0  0  0  0
  2  6  1  0  0  0  0
  3  2  1  0  0  0  0
  6  4  1  6  0  0  0
  8 16  1  0  0  0  0
  8 13  1  0  0  0  0
  9  7  1  0  0  0  0
  9 10  2  0  0  0  0
 11 15  1  0  0  0  0
 12  3  2  0  0  0  0
 12  8  1  0  0  0  0
 13  7  1  1  0  0  0
 15  5  1  1  0  0  0
 15  6  1  0  0  0  0
 16  9  1  0  0  0  0
 17  1  1  0  0  0  0
 17 11  1  0  0  0  0
 18 12  1  0  0  0  0
 19 18  1  0  0  0  0
 20 25  1  0  0  0  0
 21 24  2  0  0  0  0
 23 20  2  0  0  0  0
 23 21  1  0  0  0  0
 24 22  1  0  0  0  0
 25 19  1  0  0  0  0
 25 22  2  0  0  0  0
M  END
>  <MODEL>
4

>  <REMARK>
 VINA RESULT:      -6.6      2.502      6.349
  Name = 
  3 active torsions:
  status: ('A' for Active; 'I' for Inactive)
    1  A    between atoms: O_6  and  C_17
    2  A    between atoms: O_6  and  C_19
    3  A    between atoms: C_19  and  C_24
                            x       y       z     vdW  Elec       q    Type
                         _______ _______ _______ _____ _____    ______ ____

>  <TORSDO>
F 3

$$$$
=
 OpenBabel11042413503D

 25 28  0  0  1  0  0  0  0  0999 V2000
  191.9550  176.0350  146.1460 C   0  0  1  0  0  3  0  0  0  0  0  0
  191.2480  174.9300  143.9340 N   0  0  0  0  0  0  0  0  0  0  0  0
  190.9070  175.6270  145.1410 C   0  0  0  0  0  0  0  0  0  0  0  0
  192.9040  175.9910  142.4720 C   0  0  0  0  0  1  0  0  0  0  0  0
  194.7520  173.9170  143.8780 O   0  0  0  0  0  1  0  0  0  0  0  0
  192.5870  174.7930  143.3500 C   0  0  1  0  0  3  0  0  0  0  0  0
  189.8210  174.9820  141.9470 C   0  0  0  0  0  2  0  0  0  0  0  0
  188.9330  175.3300  144.0380 N   0  0  0  0  0  0  0  0  0  0  0  0
  188.4770  175.5490  141.8290 C   0  0  0  0  0  0  0  0  0  0  0  0
  187.8890  175.7600  140.7370 O   0  0  0  0  0  0  0  0  0  0  0  0
  193.1800  173.9420  145.6770 C   0  0  0  0  0  2  0  0  0  0  0  0
  189.5900  175.8840  145.1780 C   0  0  0  0  0  0  0  0  0  0  0  0
  190.0020  174.8550  143.2540 C   0  0  2  0  0  3  0  0  0  0  0  0
  191.4190  176.7910  147.1900 O   0  0  0  0  0  1  0  0  0  0  0  0
  193.6870  174.6410  144.4130 C   0  0  1  0  0  3  0  0  0  0  0  0
  187.9280  175.9130  143.1690 C   0  0  0  0  0  2  0  0  0  0  0  0
  192.6770  174.8800  146.6960 N   0  0  0  0  0  2  0  0  0  0  0  0
  188.9450  176.5930  146.1930 O   0  0  0  0  0  0  0  0  0  0  0  0
  187.8300  176.0600  146.8890 C   0  0  0  0  0  2  0  0  0  0  0  0
  186.7450  178.2020  147.5840 C   0  0  0  0  0  3  0  0  0  0  0  0
  184.6600  178.8510  146.7160 N   0  0  0  0  0  0  0  0  0  0  0  0
  185.6050  176.7860  146.0100 C   0  0  0  0  0  3  0  0  0  0  0  0
  185.7140  179.0840  147.5020 N   0  0  0  0  0  0  0  0  0  0  0  0
  184.5750  177.7230  145.9620 C   0  0  0  0  0  3  0  0  0  0  0  0
  186.7000  177.0260  146.8380 C   0  0  0  0  0  0  0  0  0  0  0  0
  1 17  1  0  0  0  0
  1 14  1  1  0  0  0
  2  3  1  0  0  0  0
  3 12  2  0  0  0  0
  3  1  1  0  0  0  0
  6  4  1  1  0  0  0
  6  2  1  0  0  0  0
  6 15  1  0  0  0  0
  8 12  1  0  0  0  0
  9  7  1  0  0  0  0
  9 16  1  0  0  0  0
 10  9  2  0  0  0  0
 11 17  1  0  0  0  0
 12 18  1  0  0  0  0
 13  7  1  6  0  0  0
 13  2  1  0  0  0  0
 13  8  1  0  0  0  0
 15  5  1  6  0  0  0
 15 11  1  0  0  0  0
 16  8  1  0  0  0  0
 18 19  1  0  0  0  0
 21 23  2  0  0  0  0
 22 25  1  0  0  0  0
 23 20  1  0  0  0  0
 24 22  2  0  0  0  0
 24 21  1  0  0  0  0
 25 19  1  0  0  0  0
 25 20  2  0  0  0  0
M  END
>  <MODEL>
5

>  <REMARK>
 VINA RESULT:      -6.6      2.161      6.068
  Name = 
  3 active torsions:
  status: ('A' for Active; 'I' for Inactive)
    1  A    between atoms: O_6  and  C_17
    2  A    between atoms: O_6  and  C_19
    3  A    between atoms: C_19  and  C_24
                            x       y       z     vdW  Elec       q    Type
                         _______ _______ _______ _____ _____    ______ ____

>  <TORSDO>
F 3

$$$$
=
 OpenBabel11042413503D

 25 28  0  0  1  0  0  0  0  0999 V2000
  187.7000  175.1340  142.3530 C   0  0  1  0  0  3  0  0  0  0  0  0
  190.0380  174.4630  143.1890 N   0  0  0  0  0  0  0  0  0  0  0  0
  188.9280  175.3720  143.1970 C   0  0  0  0  0  0  0  0  0  0  0  0
  189.5560  172.1210  143.7220 C   0  0  0  0  0  1  0  0  0  0  0  0
  189.6920  171.8970  140.6200 O   0  0  0  0  0  1  0  0  0  0  0  0
  190.0450  173.0930  142.6630 C   0  0  1  0  0  3  0  0  0  0  0  0
  191.6140  174.3090  145.0550 C   0  0  0  0  0  2  0  0  0  0  0  0
  190.4290  176.2410  144.6770 N   0  0  0  0  0  0  0  0  0  0  0  0
  191.6940  175.1790  146.2290 C   0  0  0  0  0  0  0  0  0  0  0  0
  192.3610  174.9160  147.2630 O   0  0  0  0  0  0  0  0  0  0  0  0
  189.1400  174.2210  140.5660 C   0  0  0  0  0  2  0  0  0  0  0  0
  189.1410  176.3660  144.0740 C   0  0  0  0  0  0  0  0  0  0  0  0
  190.8920  175.0040  144.1880 C   0  0  2  0  0  3  0  0  0  0  0  0
  186.7040  176.0830  142.5930 O   0  0  0  0  0  1  0  0  0  0  0  0
  189.1860  172.9370  141.3990 C   0  0  1  0  0  3  0  0  0  0  0  0
  190.8230  176.3810  146.0660 C   0  0  0  0  0  2  0  0  0  0  0  0
  188.0110  175.1000  140.9180 N   0  0  0  0  0  2  0  0  0  0  0  0
  188.2320  177.3860  144.3600 O   0  0  0  0  0  0  0  0  0  0  0  0
  187.6790  177.5580  145.6550 C   0  0  0  0  0  2  0  0  0  0  0  0
  185.3270  177.7110  146.4860 C   0  0  0  0  0  3  0  0  0  0  0  0
  183.7300  179.0410  145.3880 N   0  0  0  0  0  0  0  0  0  0  0  0
  185.9390  178.9410  144.5120 C   0  0  0  0  0  3  0  0  0  0  0  0
  184.0680  178.2110  146.3790 N   0  0  0  0  0  0  0  0  0  0  0  0
  184.6330  179.4240  144.4480 C   0  0  0  0  0  3  0  0  0  0  0  0
  186.2870  178.0680  145.5400 C   0  0  0  0  0  0  0  0  0  0  0  0
  1 14  1  6  0  0  0
  1  3  1  0  0  0  0
  2  3  1  0  0  0  0
  2 13  1  0  0  0  0
  3 12  2  0  0  0  0
  6  2  1  0  0  0  0
  6  4  1  1  0  0  0
  7  9  1  0  0  0  0
  8 16  1  0  0  0  0
  9 10  2  0  0  0  0
 11 17  1  0  0  0  0
 11 15  1  0  0  0  0
 12 18  1  0  0  0  0
 12  8  1  0  0  0  0
 13  8  1  0  0  0  0
 13  7  1  1  0  0  0
 15  5  1  6  0  0  0
 15  6  1  0  0  0  0
 16  9  1  0  0  0  0
 17  1  1  0  0  0  0
 18 19  1  0  0  0  0
 21 23  2  0  0  0  0
 22 25  1  0  0  0  0
 23 20  1  0  0  0  0
 24 22  2  0  0  0  0
 24 21  1  0  0  0  0
 25 19  1  0  0  0  0
 25 20  2  0  0  0  0
M  END
>  <MODEL>
6

>  <REMARK>
 VINA RESULT:      -6.5      2.561      5.997
  Name = 
  3 active torsions:
  status: ('A' for Active; 'I' for Inactive)
    1  A    between atoms: O_6  and  C_17
    2  A    between atoms: O_6  and  C_19
    3  A    between atoms: C_19  and  C_24
                            x       y       z     vdW  Elec       q    Type
                         _______ _______ _______ _____ _____    ______ ____

>  <TORSDO>
F 3

$$$$
=
 OpenBabel11042413503D

 25 28  0  0  1  0  0  0  0  0999 V2000
  188.5840  175.6940  145.9280 C   0  0  1  0  0  3  0  0  0  0  0  0
  187.4120  177.6520  144.7420 N   0  0  0  0  0  0  0  0  0  0  0  0
  188.2440  176.4850  144.6890 C   0  0  0  0  0  0  0  0  0  0  0  0
  185.1920  177.3860  145.7440 C   0  0  0  0  0  1  0  0  0  0  0  0
  186.6730  178.6570  148.1700 O   0  0  0  0  0  1  0  0  0  0  0  0
  186.5470  178.0620  145.8550 C   0  0  1  0  0  3  0  0  0  0  0  0
  186.1670  178.4590  142.7960 C   0  0  0  0  0  2  0  0  0  0  0  0
  188.0720  177.2000  142.5310 N   0  0  0  0  0  0  0  0  0  0  0  0
  186.2570  177.9760  141.4170 C   0  0  0  0  0  0  0  0  0  0  0  0
  185.4320  178.2610  140.5100 O   0  0  0  0  0  0  0  0  0  0  0  0
  188.6880  177.8030  147.2110 C   0  0  0  0  0  2  0  0  0  0  0  0
  188.5890  176.2110  143.4210 C   0  0  0  0  0  0  0  0  0  0  0  0
  187.2680  177.9960  143.3700 C   0  0  2  0  0  3  0  0  0  0  0  0
  189.3170  174.5430  145.6350 O   0  0  0  0  0  1  0  0  0  0  0  0
  187.1580  177.7480  147.2300 C   0  0  1  0  0  3  0  0  0  0  0  0
  187.4110  177.0440  141.2490 C   0  0  0  0  0  2  0  0  0  0  0  0
  189.3100  176.5000  146.9190 N   0  0  0  0  0  2  0  0  0  0  0  0
  189.3510  175.1120  143.0220 O   0  0  0  0  0  0  0  0  0  0  0  0
  190.6110  175.2630  142.3870 C   0  0  0  0  0  2  0  0  0  0  0  0
  192.3330  174.2920  143.9170 C   0  0  0  0  0  3  0  0  0  0  0  0
  193.6770  175.6670  145.2680 N   0  0  0  0  0  0  0  0  0  0  0  0
  192.0510  176.6800  143.8580 C   0  0  0  0  0  3  0  0  0  0  0  0
  193.3200  174.4540  144.8370 N   0  0  0  0  0  0  0  0  0  0  0  0
  193.0700  176.7900  144.8040 C   0  0  0  0  0  3  0  0  0  0  0  0
  191.6740  175.4140  143.4170 C   0  0  0  0  0  0  0  0  0  0  0  0
  1 14  1  6  0  0  0
  1 17  1  0  0  0  0
  2  6  1  0  0  0  0
  3  2  1  0  0  0  0
  3  1  1  0  0  0  0
  6  4  1  6  0  0  0
  6 15  1  0  0  0  0
  8 13  1  0  0  0  0
  8 12  1  0  0  0  0
  9  7  1  0  0  0  0
 10  9  2  0  0  0  0
 11 15  1  0  0  0  0
 12  3  2  0  0  0  0
 13  7  1  6  0  0  0
 13  2  1  0  0  0  0
 15  5  1  1  0  0  0
 16  9  1  0  0  0  0
 16  8  1  0  0  0  0
 17 11  1  0  0  0  0
 18 12  1  0  0  0  0
 19 18  1  0  0  0  0
 19 25  1  0  0  0  0
 20 23  1  0  0  0  0
 22 24  2  0  0  0  0
 23 21  2  0  0  0  0
 24 21  1  0  0  0  0
 25 22  1  0  0  0  0
 25 20  2  0  0  0  0
M  END
>  <MODEL>
7

>  <REMARK>
 VINA RESULT:      -6.4      1.810      4.167
  Name = 
  3 active torsions:
  status: ('A' for Active; 'I' for Inactive)
    1  A    between atoms: O_6  and  C_17
    2  A    between atoms: O_6  and  C_19
    3  A    between atoms: C_19  and  C_24
                            x       y       z     vdW  Elec       q    Type
                         _______ _______ _______ _____ _____    ______ ____

>  <TORSDO>
F 3

$$$$
=
 OpenBabel11042413503D

 25 28  0  0  1  0  0  0  0  0999 V2000
  190.3180  174.4070  143.0510 C   0  0  1  0  0  3  0  0  0  0  0  0
  191.9250  175.5480  144.7040 N   0  0  0  0  0  0  0  0  0  0  0  0
  190.6070  175.3880  144.1600 C   0  0  0  0  0  0  0  0  0  0  0  0
  193.0170  173.5330  145.5720 C   0  0  0  0  0  1  0  0  0  0  0  0
  194.4280  173.6970  142.8010 O   0  0  0  0  0  1  0  0  0  0  0  0
  193.0620  174.6360  144.5290 C   0  0  1  0  0  3  0  0  0  0  0  0
  192.3130  176.4300  146.9530 C   0  0  0  0  0  2  0  0  0  0  0  0
  190.3970  176.9590  145.7990 N   0  0  0  0  0  0  0  0  0  0  0  0
  191.3270  177.0100  147.8660 C   0  0  0  0  0  0  0  0  0  0  0  0
  191.5330  177.2280  149.0880 O   0  0  0  0  0  0  0  0  0  0  0  0
  192.5190  174.9260  142.0560 C   0  0  0  0  0  2  0  0  0  0  0  0
  189.7320  176.1700  144.8130 C   0  0  0  0  0  0  0  0  0  0  0  0
  191.7140  176.4630  145.7710 C   0  0  2  0  0  3  0  0  0  0  0  0
  188.9580  174.3400  142.7470 O   0  0  0  0  0  1  0  0  0  0  0  0
  193.1070  174.0040  143.1280 C   0  0  1  0  0  3  0  0  0  0  0  0
  190.0230  177.2380  147.1730 C   0  0  0  0  0  2  0  0  0  0  0  0
  191.0800  174.7080  141.8310 N   0  0  0  0  0  2  0  0  0  0  0  0
  188.3600  176.2120  144.5620 O   0  0  0  0  0  0  0  0  0  0  0  0
  187.7200  177.3820  144.0810 C   0  0  0  0  0  2  0  0  0  0  0  0
  186.0850  176.7400  145.8580 C   0  0  0  0  0  3  0  0  0  0  0  0
  184.2160  178.0810  146.3380 N   0  0  0  0  0  0  0  0  0  0  0  0
  185.7080  178.7640  144.6160 C   0  0  0  0  0  3  0  0  0  0  0  0
  184.9570  176.9960  146.5730 N   0  0  0  0  0  0  0  0  0  0  0  0
  184.5600  178.9790  145.3770 C   0  0  0  0  0  3  0  0  0  0  0  0
  186.4740  177.6260  144.8550 C   0  0  0  0  0  0  0  0  0  0  0  0
  1 14  1  6  0  0  0
  1  3  1  0  0  0  0
  2 13  1  0  0  0  0
  3  2  1  0  0  0  0
  3 12  2  0  0  0  0
  6  2  1  0  0  0  0
  6  4  1  1  0  0  0
  7  9  1  0  0  0  0
  8 16  1  0  0  0  0
  9 10  2  0  0  0  0
 11 15  1  0  0  0  0
 12  8  1  0  0  0  0
 13  8  1  0  0  0  0
 13  7  1  1  0  0  0
 15  5  1  6  0  0  0
 15  6  1  0  0  0  0
 16  9  1  0  0  0  0
 17 11  1  0  0  0  0
 17  1  1  0  0  0  0
 18 12  1  0  0  0  0
 19 18  1  0  0  0  0
 19 25  1  0  0  0  0
 20 23  1  0  0  0  0
 21 23  2  0  0  0  0
 22 25  1  0  0  0  0
 22 24  2  0  0  0  0
 24 21  1  0  0  0  0
 25 20  2  0  0  0  0
M  END
>  <MODEL>
8

>  <REMARK>
 VINA RESULT:      -6.4      2.481      6.100
  Name = 
  3 active torsions:
  status: ('A' for Active; 'I' for Inactive)
    1  A    between atoms: O_6  and  C_17
    2  A    between atoms: O_6  and  C_19
    3  A    between atoms: C_19  and  C_24
                            x       y       z     vdW  Elec       q    Type
                         _______ _______ _______ _____ _____    ______ ____

>  <TORSDO>
F 3

$$$$
=
 OpenBabel11042413503D

 25 28  0  0  1  0  0  0  0  0999 V2000
  189.7250  177.2740  144.8150 C   0  0  1  0  0  3  0  0  0  0  0  0
  190.2880  174.8450  144.1860 N   0  0  0  0  0  0  0  0  0  0  0  0
  189.4260  175.9870  144.0870 C   0  0  0  0  0  0  0  0  0  0  0  0
  192.6420  175.1790  143.5910 C   0  0  0  0  0  1  0  0  0  0  0  0
  192.9000  175.3110  146.6910 O   0  0  0  0  0  1  0  0  0  0  0  0
  191.6640  174.8270  144.6990 C   0  0  1  0  0  3  0  0  0  0  0  0
  190.3550  173.1030  142.4690 C   0  0  0  0  0  2  0  0  0  0  0  0
  188.4770  174.3970  142.7560 N   0  0  0  0  0  0  0  0  0  0  0  0
  189.4670  172.9540  141.3150 C   0  0  0  0  0  0  0  0  0  0  0  0
  189.6890  172.1880  140.3420 O   0  0  0  0  0  0  0  0  0  0  0  0
  190.6010  175.9630  146.7160 C   0  0  0  0  0  2  0  0  0  0  0  0
  188.4130  175.7370  143.2420 C   0  0  0  0  0  0  0  0  0  0  0  0
  189.7000  173.9280  143.2730 C   0  0  2  0  0  3  0  0  0  0  0  0
  188.8150  178.2830  144.4960 O   0  0  0  0  0  1  0  0  0  0  0  0
  191.8710  175.7890  145.8790 C   0  0  1  0  0  3  0  0  0  0  0  0
  188.3040  173.8860  141.4090 C   0  0  0  0  0  2  0  0  0  0  0  0
  189.7650  177.0920  146.2720 N   0  0  0  0  0  2  0  0  0  0  0  0
  187.4280  176.6590  142.8850 O   0  0  0  0  0  0  0  0  0  0  0  0
  186.0460  176.3820  143.0480 C   0  0  0  0  0  2  0  0  0  0  0  0
  184.7210  178.3080  143.9300 C   0  0  0  0  0  3  0  0  0  0  0  0
  184.4440  178.6420  146.2390 N   0  0  0  0  0  0  0  0  0  0  0  0
  185.7380  176.7910  145.4940 C   0  0  0  0  0  3  0  0  0  0  0  0
  184.2120  179.0100  144.9770 N   0  0  0  0  0  0  0  0  0  0  0  0
  185.1940  177.5470  146.5310 C   0  0  0  0  0  3  0  0  0  0  0  0
  185.5040  177.1830  144.1770 C   0  0  0  0  0  0  0  0  0  0  0  0
  1 14  1  1  0  0  0
  1 17  1  0  0  0  0
  2  6  1  0  0  0  0
  3  2  1  0  0  0  0
  3  1  1  0  0  0  0
  6  4  1  6  0  0  0
  6 15  1  0  0  0  0
  8 12  1  0  0  0  0
  8 13  1  0  0  0  0
  9 16  1  0  0  0  0
  9  7  1  0  0  0  0
 10  9  2  0  0  0  0
 12  3  2  0  0  0  0
 13  7  1  6  0  0  0
 13  2  1  0  0  0  0
 15  5  1  1  0  0  0
 15 11  1  0  0  0  0
 16  8  1  0  0  0  0
 17 11  1  0  0  0  0
 18 19  1  0  0  0  0
 18 12  1  0  0  0  0
 19 25  1  0  0  0  0
 20 25  2  0  0  0  0
 20 23  1  0  0  0  0
 21 24  1  0  0  0  0
 22 24  2  0  0  0  0
 23 21  2  0  0  0  0
 25 22  1  0  0  0  0
M  END
>  <MODEL>
9

>  <REMARK>
 VINA RESULT:      -6.3      2.437      6.636
  Name = 
  3 active torsions:
  status: ('A' for Active; 'I' for Inactive)
    1  A    between atoms: O_6  and  C_17
    2  A    between atoms: O_6  and  C_19
    3  A    between atoms: C_19  and  C_24
                            x       y       z     vdW  Elec       q    Type
                         _______ _______ _______ _____ _____    ______ ____

>  <TORSDO>
F 3

$$$$
