=
 OpenBabel11042417363D

 68 77  0  0  1  0  0  0  0  0999 V2000
  188.8120  173.1790  141.1110 C   0  0  1  0  0  3  0  0  0  0  0  0
  189.0730  172.3280  142.3490 C   0  0  0  0  0  2  0  0  0  0  0  0
  189.9480  171.2860  142.0310 O   0  0  0  0  0  0  0  0  0  0  0  0
  191.1390  171.5980  142.6970 C   0  0  1  0  0  3  0  0  0  0  0  0
  190.8140  171.9310  144.1480 C   0  0  0  0  0  1  0  0  0  0  0  0
  192.1040  170.4030  142.6270 C   0  0  1  0  0  3  0  0  0  0  0  0
  191.6580  168.1660  142.3800 C   0  0  0  0  0  1  0  0  0  0  0  0
  191.6900  169.4020  141.7180 O   0  0  0  0  0  0  0  0  0  0  0  0
  193.5720  170.8120  142.4410 C   0  0  0  0  0  2  0  0  0  0  0  0
  194.3160  170.7800  143.7700 C   0  0  0  0  0  2  0  0  0  0  0  0
  195.7910  171.1610  143.6520 C   0  0  2  0  0  3  0  0  0  0  0  0
  196.6180  170.1430  144.1350 O   0  0  0  0  0  0  0  0  0  0  0  0
  195.7920  169.2180  144.5770 O   0  0  0  0  0  1  0  0  0  0  0  0
  196.0840  172.4710  144.3670 C   0  0  0  0  0  2  0  0  0  0  0  0
  192.8940  175.0160  143.0000 C   0  0  0  0  0  2  0  0  0  0  0  0
  193.1090  175.7650  146.6640 C   0  0  0  0  0  2  0  0  0  0  0  0
  194.2780  175.6920  142.9860 C   0  0  1  0  0  0  0  0  0  0  0  0
  192.0950  174.7510  146.1630 C   0  0  0  0  0  2  0  0  0  0  0  0
  195.7860  174.1520  141.9310 O   0  0  0  0  0  1  0  0  0  0  0  0
  195.6280  175.8950  143.7590 C   0  0  2  0  0  0  0  0  0  0  0  0
  197.0850  175.9330  143.3740 C   0  0  0  0  0  2  0  0  0  0  0  0
  193.2380  175.8990  144.1340 C   0  0  2  0  0  3  0  0  0  0  0  0
  196.2050  176.8730  142.9010 O   0  0  0  0  0  0  0  0  0  0  0  0
  195.2330  174.5420  143.1610 C   0  0  1  0  0  0  0  0  0  0  0  0
  193.3700  175.0080  145.3840 C   0  0  0  0  0  0  0  0  0  0  0  0
  194.4670  173.9580  145.5380 C   0  0  0  0  0  2  0  0  0  0  0  0
  194.9100  173.4170  144.1770 C   0  0  2  0  0  3  0  0  0  0  0  0
  189.4530  174.4170  141.2250 O   0  0  0  0  0  0  0  0  0  0  0  0
  189.1780  174.8430  142.5270 C   0  0  0  0  0  2  0  0  0  0  0  0
  188.7970  176.3110  142.5300 C   0  0  0  0  0  2  0  0  0  0  0  0
  186.6070  177.2870  145.5240 C   0  0  0  0  0  0  0  0  0  0  0  0
  186.9830  176.9240  144.2020 C   0  0  0  0  0  0  0  0  0  0  0  0
  188.3520  176.7460  143.8930 C   0  0  0  0  0  0  0  0  0  0  0  0
  187.6130  177.5020  146.4800 C   0  0  0  0  0  3  0  0  0  0  0  0
  189.3270  176.9680  144.8680 C   0  0  0  0  0  3  0  0  0  0  0  0
  188.9600  177.3530  146.1560 C   0  0  0  0  0  0  0  0  0  0  0  0
  190.0010  177.5870  147.1900 C   0  0  0  0  0  1  0  0  0  0  0  0
  185.1960  177.4370  145.9660 C   0  0  0  0  0  0  0  0  0  0  0  0
  184.4760  178.6010  145.7140 O   0  0  0  0  0  0  0  0  0  0  0  0
  184.6220  176.4910  146.5690 O   0  0  0  0  0  1  0  0  0  0  0  0
  185.9600  176.7560  143.1140 C   0  0  0  0  0  2  0  0  0  0  0  0
  185.7010  178.0360  142.4660 N   0  0  0  0  0  2  0  0  0  0  0  0
  184.2610  178.1670  142.2980 C   0  0  0  0  0  2  0  0  0  0  0  0
  183.9140  178.4650  140.8470 C   0  0  0  0  0  2  0  0  0  0  0  0
  182.5690  177.8580  140.4970 C   0  0  0  0  0  2  0  0  0  0  0  0
  181.4760  178.8810  140.7310 C   0  0  0  0  0  3  0  0  0  0  0  0
  180.5090  178.3430  141.7640 C   0  0  0  0  0  2  0  0  0  0  0  0
  180.1520  178.2900  140.2930 C   0  0  0  0  0  2  0  0  0  0  0  0
  189.2740  172.4530  139.8510 C   0  0  0  0  0  2  0  0  0  0  0  0
  190.4820  173.1320  139.2230 C   0  0  0  0  0  2  0  0  0  0  0  0
  192.4800  169.4990  137.6430 N   0  0  1  0  0  0  0  0  0  0  0  0
  191.8390  174.7410  136.9830 N   0  0  0  0  0  0  0  0  0  0  0  0
  192.9230  172.1950  135.4060 N   0  0  0  0  0  0  0  0  0  0  0  0
  190.7270  172.5560  137.8400 C   0  0  2  0  0  3  0  0  0  0  0  0
  192.1390  171.9460  137.7620 C   0  0  2  0  0  3  0  0  0  0  0  0
  192.5190  170.0770  136.3660 N   0  0  0  0  0  2  0  0  0  0  0  0
  193.1830  173.5820  135.3860 N   0  0  0  0  0  2  0  0  0  0  0  0
  192.4800  171.4830  136.4010 C   0  0  0  0  0  0  0  0  0  0  0  0
  190.3940  173.8180  136.5650 S   0  0  0  0  0  0  0  0  0  0  0  0
  192.1840  170.6240  138.5730 C   0  0  1  0  0  3  0  0  0  0  0  0
  193.0000  174.5210  136.4560 C   0  0  0  0  0  0  0  0  0  0  0  0
  191.1260  169.6750  138.1880 C   0  0  0  0  0  2  0  0  0  0  0  0
  194.1180  175.4450  136.7900 C   0  0  0  0  0  2  0  0  0  0  0  0
  194.4360  175.3350  138.1540 O   0  0  0  0  0  0  0  0  0  0  0  0
  195.6780  173.5470  138.8860 F   0  0  0  0  0  0  0  0  0  0  0  0
  196.2390  174.6120  136.9910 F   0  0  0  0  0  0  0  0  0  0  0  0
  196.5770  175.6290  138.9630 F   0  0  0  0  0  0  0  0  0  0  0  0
  195.7260  174.7850  138.2610 C   0  0  0  0  0  0  0  0  0  0  0  0
  1 49  1  6  0  0  0
  1 28  1  0  0  0  0
  1  2  1  0  0  0  0
  3  2  1  0  0  0  0
  3  4  1  0  0  0  0
  4  5  1  1  0  0  0
  6  9  1  6  0  0  0
  6  4  1  0  0  0  0
  8  7  1  0  0  0  0
  8  6  1  0  0  0  0
  9 10  1  0  0  0  0
 11 10  1  1  0  0  0
 11 12  1  0  0  0  0
 11 14  1  0  0  0  0
 12 13  1  0  0  0  0
 17 15  1  6  0  0  0
 17 24  1  0  0  0  0
 17 20  1  0  0  0  0
 17 22  1  0  0  0  0
 18 16  1  0  0  0  0
 20 21  1  1  0  0  0
 22 15  1  6  0  0  0
 22 25  1  0  0  0  0
 23 21  1  0  0  0  0
 23 20  1  0  0  0  0
 24 19  1  6  0  0  0
 24 20  1  0  0  0  0
 24 27  1  0  0  0  0
 25 26  1  0  0  0  0
 25 18  1  0  0  0  0
 25 16  1  0  0  0  0
 27 14  1  1  0  0  0
 27 26  1  0  0  0  0
 28 29  1  0  0  0  0
 29 30  1  0  0  0  0
 30 33  1  0  0  0  0
 31 38  1  0  0  0  0
 31 34  1  0  0  0  0
 32 31  2  0  0  0  0
 33 32  1  0  0  0  0
 33 35  2  0  0  0  0
 35 36  1  0  0  0  0
 36 34  2  0  0  0  0
 36 37  1  0  0  0  0
 38 40  1  0  0  0  0
 39 38  2  0  0  0  0
 41 32  1  0  0  0  0
 42 41  1  0  0  0  0
 43 42  1  0  0  0  0
 44 43  1  0  0  0  0
 45 46  1  0  0  0  0
 45 44  1  0  0  0  0
 46 47  1  0  0  0  0
 48 46  1  0  0  0  0
 48 47  1  0  0  0  0
 50 49  1  0  0  0  0
 51 62  1  6  0  0  0
 51 60  1  0  0  0  0
 53 58  2  0  0  0  0
 54 50  1  1  0  0  0
 55 58  1  6  0  0  0
 55 54  1  0  0  0  0
 55 60  1  0  0  0  0
 56 58  1  0  0  0  0
 56 51  1  0  0  0  0
 57 53  1  0  0  0  0
 57 61  1  0  0  0  0
 59 52  1  0  0  0  0
 59 54  1  0  0  0  0
 60 62  1  6  0  0  0
 61 63  1  0  0  0  0
 61 52  2  0  0  0  0
 63 64  1  0  0  0  0
 64 68  1  0  0  0  0
 66 68  1  0  0  0  0
 68 65  1  0  0  0  0
 68 67  1  0  0  0  0
M  END
>  <MODEL>
1

>  <REMARK>
 VINA RESULT:      -6.1      0.000      0.000
  Name = 
  28 active torsions:
  status: ('A' for Active; 'I' for Inactive)
    1  A    between atoms: C_5  and  C_13
    2  A    between atoms: C_7  and  C_9
    3  A    between atoms: C_7  and  C_12
    4  A    between atoms: C_8  and  C_18
    5  A    between atoms: C_8  and  C_48
    6  A    between atoms: C_8  and  O_62
    7  A    between atoms: C_11  and  C_25
    8  A    between atoms: C_12  and  C_15
    9  A    between atoms: C_14  and  C_64
   10  A    between atoms: C_15  and  C_59
   11  A    between atoms: C_15  and  O_60
   12  A    between atoms: C_18  and  O_26
   13  A    between atoms: C_21  and  C_33
   14  A    between atoms: C_22  and  C_23
   15  A    between atoms: C_22  and  O_30
   16  A    between atoms: C_22  and  C_37
   17  A    between atoms: C_23  and  C_66
   18  A    between atoms: C_25  and  C_36
   19  A    between atoms: O_26  and  C_59
   20  A    between atoms: C_33  and  C_61
   21  A    between atoms: C_36  and  C_50
   22  A    between atoms: C_37  and  C_48
   23  A    between atoms: N_43  and  C_50
   24  A    between atoms: N_43  and  C_64
   25  A    between atoms: C_47  and  O_58
   26  A    between atoms: C_47  and  C_63
   27  A    between atoms: O_58  and  C_68
   28  A    between atoms: O_60  and  C_61
                            x       y       z     vdW  Elec       q    Type
                         _______ _______ _______ _____ _____    ______ ____

>  <TORSDO>
F 28

$$$$
=
 OpenBabel11042417363D

 68 77  0  0  1  0  0  0  0  0999 V2000
  190.3160  173.7480  141.3040 C   0  0  1  0  0  3  0  0  0  0  0  0
  191.7040  174.1580  140.8270 C   0  0  0  0  0  2  0  0  0  0  0  0
  192.6310  173.9820  141.8580 O   0  0  0  0  0  0  0  0  0  0  0  0
  193.3610  175.1760  141.8960 C   0  0  1  0  0  3  0  0  0  0  0  0
  192.7450  176.0900  142.9480 C   0  0  0  0  0  1  0  0  0  0  0  0
  194.8290  174.8780  142.2410 C   0  0  1  0  0  3  0  0  0  0  0  0
  195.2800  175.4650  140.0690 C   0  0  0  0  0  1  0  0  0  0  0  0
  195.6210  174.5850  141.1070 O   0  0  0  0  0  0  0  0  0  0  0  0
  195.4660  175.9270  143.1640 C   0  0  0  0  0  2  0  0  0  0  0  0
  196.2570  175.2580  144.2800 C   0  0  0  0  0  2  0  0  0  0  0  0
  195.3850  174.4800  145.2640 C   0  0  2  0  0  3  0  0  0  0  0  0
  194.9310  175.3020  146.2990 O   0  0  0  0  0  0  0  0  0  0  0  0
  193.6240  175.1490  146.3030 O   0  0  0  0  0  1  0  0  0  0  0  0
  196.1220  173.2730  145.8240 C   0  0  0  0  0  2  0  0  0  0  0  0
  194.2270  169.4100  145.7770 C   0  0  0  0  0  2  0  0  0  0  0  0
  192.9390  171.0600  142.6690 C   0  0  0  0  0  2  0  0  0  0  0  0
  195.5590  169.4580  145.0070 C   0  0  1  0  0  0  0  0  0  0  0  0
  192.1100  171.1040  143.9420 C   0  0  0  0  0  2  0  0  0  0  0  0
  197.1440  170.5490  146.4420 O   0  0  0  0  0  1  0  0  0  0  0  0
  196.4570  170.2840  144.0210 C   0  0  2  0  0  0  0  0  0  0  0  0
  197.9260  170.6060  143.9270 C   0  0  0  0  0  2  0  0  0  0  0  0
  194.1660  169.5610  144.3080 C   0  0  2  0  0  3  0  0  0  0  0  0
  197.4780  169.3130  143.8180 O   0  0  0  0  0  0  0  0  0  0  0  0
  196.1740  170.7580  145.4480 C   0  0  1  0  0  0  0  0  0  0  0  0
  193.6190  170.9710  144.0150 C   0  0  0  0  0  0  0  0  0  0  0  0
  194.3830  172.2440  144.3700 C   0  0  0  0  0  2  0  0  0  0  0  0
  195.2900  172.0250  145.5820 C   0  0  2  0  0  3  0  0  0  0  0  0
  189.4110  174.8020  141.1390 O   0  0  0  0  0  0  0  0  0  0  0  0
  188.7110  174.8650  142.3460 C   0  0  0  0  0  2  0  0  0  0  0  0
  188.5750  176.3050  142.8010 C   0  0  0  0  0  2  0  0  0  0  0  0
  186.6970  177.2260  146.0150 C   0  0  0  0  0  0  0  0  0  0  0  0
  187.1020  177.2320  144.6530 C   0  0  0  0  0  0  0  0  0  0  0  0
  188.1480  176.3760  144.2350 C   0  0  0  0  0  0  0  0  0  0  0  0
  187.3790  176.3980  146.9210 C   0  0  0  0  0  3  0  0  0  0  0  0
  188.8050  175.5650  145.1630 C   0  0  0  0  0  3  0  0  0  0  0  0
  188.4280  175.5810  146.5040 C   0  0  0  0  0  0  0  0  0  0  0  0
  189.1300  174.7150  147.4860 C   0  0  0  0  0  1  0  0  0  0  0  0
  185.5710  178.0400  146.5430 C   0  0  0  0  0  0  0  0  0  0  0  0
  185.7620  179.3440  146.9860 O   0  0  0  0  0  1  0  0  0  0  0  0
  184.4080  177.5550  146.5800 O   0  0  0  0  0  0  0  0  0  0  0  0
  186.4660  178.1530  143.6500 C   0  0  0  0  0  2  0  0  0  0  0  0
  185.7880  177.3790  142.6170 N   0  0  0  0  0  2  0  0  0  0  0  0
  184.4100  177.8440  142.5440 C   0  0  0  0  0  2  0  0  0  0  0  0
  183.9600  177.9660  141.0970 C   0  0  0  0  0  2  0  0  0  0  0  0
  182.7560  178.8830  141.0000 C   0  0  0  0  0  2  0  0  0  0  0  0
  181.5080  178.0580  140.7600 C   0  0  0  0  0  3  0  0  0  0  0  0
  180.4160  178.9590  140.2250 C   0  0  0  0  0  2  0  0  0  0  0  0
  180.4120  178.5490  141.6830 C   0  0  0  0  0  2  0  0  0  0  0  0
  189.8340  172.5090  140.5560 C   0  0  0  0  0  2  0  0  0  0  0  0
  190.9120  171.9500  139.6400 C   0  0  0  0  0  2  0  0  0  0  0  0
  191.8570  169.0480  136.4190 N   0  0  1  0  0  0  0  0  0  0  0  0
  190.4300  174.0670  137.4650 N   0  0  0  0  0  0  0  0  0  0  0  0
  190.5560  172.0210  135.0270 N   0  0  0  0  0  0  0  0  0  0  0  0
  190.3070  171.6090  138.2900 C   0  0  2  0  0  3  0  0  0  0  0  0
  191.4220  171.3320  137.2640 C   0  0  2  0  0  3  0  0  0  0  0  0
  191.0420  169.7670  135.5330 N   0  0  0  0  0  2  0  0  0  0  0  0
  190.6090  173.4240  135.1730 N   0  0  0  0  0  2  0  0  0  0  0  0
  190.8940  171.1170  135.9010 C   0  0  0  0  0  0  0  0  0  0  0  0
  189.1350  172.9100  137.7780 S   0  0  0  0  0  0  0  0  0  0  0  0
  192.0880  169.9650  137.5710 C   0  0  1  0  0  3  0  0  0  0  0  0
  191.0340  174.1680  136.3240 C   0  0  0  0  0  0  0  0  0  0  0  0
  191.1180  168.8620  137.6770 C   0  0  0  0  0  2  0  0  0  0  0  0
  192.0210  175.2660  136.1370 C   0  0  0  0  0  2  0  0  0  0  0  0
  193.0380  175.1610  137.1010 O   0  0  0  0  0  0  0  0  0  0  0  0
  193.9890  174.4030  135.1530 F   0  0  0  0  0  0  0  0  0  0  0  0
  194.9950  176.0160  136.3470 F   0  0  0  0  0  0  0  0  0  0  0  0
  194.9790  173.9140  137.1340 F   0  0  0  0  0  0  0  0  0  0  0  0
  194.2420  174.8620  136.4370 C   0  0  0  0  0  0  0  0  0  0  0  0
  1 49  1  6  0  0  0
  2  1  1  0  0  0  0
  2  3  1  0  0  0  0
  3  4  1  0  0  0  0
  4  6  1  0  0  0  0
  4  5  1  1  0  0  0
  6  9  1  6  0  0  0
  7  8  1  0  0  0  0
  8  6  1  0  0  0  0
  9 10  1  0  0  0  0
 11 10  1  6  0  0  0
 11 14  1  0  0  0  0
 11 12  1  0  0  0  0
 12 13  1  0  0  0  0
 16 18  1  0  0  0  0
 16 25  1  0  0  0  0
 17 24  1  0  0  0  0
 17 15  1  1  0  0  0
 18 25  1  0  0  0  0
 20 21  1  6  0  0  0
 20 17  1  0  0  0  0
 20 24  1  0  0  0  0
 22 17  1  0  0  0  0
 22 15  1  1  0  0  0
 23 21  1  0  0  0  0
 23 20  1  0  0  0  0
 24 27  1  0  0  0  0
 24 19  1  1  0  0  0
 25 22  1  0  0  0  0
 25 26  1  0  0  0  0
 26 27  1  0  0  0  0
 27 14  1  6  0  0  0
 28  1  1  0  0  0  0
 28 29  1  0  0  0  0
 29 30  1  0  0  0  0
 30 33  1  0  0  0  0
 31 38  1  0  0  0  0
 31 34  1  0  0  0  0
 32 31  2  0  0  0  0
 33 32  1  0  0  0  0
 33 35  2  0  0  0  0
 35 36  1  0  0  0  0
 36 34  2  0  0  0  0
 36 37  1  0  0  0  0
 38 40  2  0  0  0  0
 38 39  1  0  0  0  0
 41 32  1  0  0  0  0
 42 41  1  0  0  0  0
 43 42  1  0  0  0  0
 44 43  1  0  0  0  0
 45 44  1  0  0  0  0
 46 45  1  0  0  0  0
 46 48  1  0  0  0  0
 47 46  1  0  0  0  0
 47 48  1  0  0  0  0
 50 49  1  0  0  0  0
 51 60  1  0  0  0  0
 51 62  1  1  0  0  0
 52 59  1  0  0  0  0
 53 57  1  0  0  0  0
 53 58  2  0  0  0  0
 54 50  1  1  0  0  0
 55 58  1  6  0  0  0
 55 60  1  0  0  0  0
 55 54  1  0  0  0  0
 56 58  1  0  0  0  0
 56 51  1  0  0  0  0
 57 61  1  0  0  0  0
 59 54  1  0  0  0  0
 60 62  1  1  0  0  0
 61 52  2  0  0  0  0
 63 61  1  0  0  0  0
 63 64  1  0  0  0  0
 65 68  1  0  0  0  0
 66 68  1  0  0  0  0
 68 64  1  0  0  0  0
 68 67  1  0  0  0  0
M  END
>  <MODEL>
2

>  <REMARK>
 VINA RESULT:      -5.2      1.679      3.562
  Name = 
  28 active torsions:
  status: ('A' for Active; 'I' for Inactive)
    1  A    between atoms: C_5  and  C_13
    2  A    between atoms: C_7  and  C_9
    3  A    between atoms: C_7  and  C_12
    4  A    between atoms: C_8  and  C_18
    5  A    between atoms: C_8  and  C_48
    6  A    between atoms: C_8  and  O_62
    7  A    between atoms: C_11  and  C_25
    8  A    between atoms: C_12  and  C_15
    9  A    between atoms: C_14  and  C_64
   10  A    between atoms: C_15  and  C_59
   11  A    between atoms: C_15  and  O_60
   12  A    between atoms: C_18  and  O_26
   13  A    between atoms: C_21  and  C_33
   14  A    between atoms: C_22  and  C_23
   15  A    between atoms: C_22  and  O_30
   16  A    between atoms: C_22  and  C_37
   17  A    between atoms: C_23  and  C_66
   18  A    between atoms: C_25  and  C_36
   19  A    between atoms: O_26  and  C_59
   20  A    between atoms: C_33  and  C_61
   21  A    between atoms: C_36  and  C_50
   22  A    between atoms: C_37  and  C_48
   23  A    between atoms: N_43  and  C_50
   24  A    between atoms: N_43  and  C_64
   25  A    between atoms: C_47  and  O_58
   26  A    between atoms: C_47  and  C_63
   27  A    between atoms: O_58  and  C_68
   28  A    between atoms: O_60  and  C_61
                            x       y       z     vdW  Elec       q    Type
                         _______ _______ _______ _____ _____    ______ ____

>  <TORSDO>
F 28

$$$$
=
 OpenBabel11042417363D

 68 77  0  0  1  0  0  0  0  0999 V2000
  190.4360  173.3950  140.9600 C   0  0  1  0  0  3  0  0  0  0  0  0
  191.7060  173.9700  140.3450 C   0  0  0  0  0  2  0  0  0  0  0  0
  192.8220  173.5230  141.0560 O   0  0  0  0  0  0  0  0  0  0  0  0
  193.8510  173.4540  140.1100 C   0  0  1  0  0  3  0  0  0  0  0  0
  193.9930  174.8170  139.4450 C   0  0  0  0  0  1  0  0  0  0  0  0
  195.1670  173.0550  140.7990 C   0  0  1  0  0  3  0  0  0  0  0  0
  195.0500  171.2240  139.4220 C   0  0  0  0  0  1  0  0  0  0  0  0
  195.4630  171.6780  140.6830 O   0  0  0  0  0  0  0  0  0  0  0  0
  196.3510  173.9580  140.4250 C   0  0  0  0  0  2  0  0  0  0  0  0
  197.0770  174.4450  141.6720 C   0  0  0  0  0  2  0  0  0  0  0  0
  196.2760  175.4570  142.4880 C   0  0  2  0  0  3  0  0  0  0  0  0
  196.6610  176.7670  142.1900 O   0  0  0  0  0  0  0  0  0  0  0  0
  197.3120  177.1780  143.2580 O   0  0  0  0  0  1  0  0  0  0  0  0
  196.4000  175.1900  143.9800 C   0  0  0  0  0  2  0  0  0  0  0  0
  192.9090  175.3060  146.4940 C   0  0  0  0  0  2  0  0  0  0  0  0
  191.6300  176.4370  143.1590 C   0  0  0  0  0  2  0  0  0  0  0  0
  193.0920  173.9730  145.7450 C   0  0  1  0  0  0  0  0  0  0  0  0
  192.0300  177.4690  144.2000 C   0  0  0  0  0  2  0  0  0  0  0  0
  195.3800  173.3180  146.0550 O   0  0  0  0  0  1  0  0  0  0  0  0
  193.4780  173.2930  144.3860 C   0  0  2  0  0  0  0  0  0  0  0  0
  194.3020  172.0970  143.9840 C   0  0  0  0  0  2  0  0  0  0  0  0
  192.1260  175.1000  145.2570 C   0  0  2  0  0  3  0  0  0  0  0  0
  193.1640  171.9500  144.7360 O   0  0  0  0  0  0  0  0  0  0  0  0
  194.5050  174.0470  145.2340 C   0  0  1  0  0  0  0  0  0  0  0  0
  192.6620  176.0910  144.2060 C   0  0  0  0  0  0  0  0  0  0  0  0
  194.0730  176.0030  143.6310 C   0  0  0  0  0  2  0  0  0  0  0  0
  195.0410  175.3730  144.6350 C   0  0  2  0  0  3  0  0  0  0  0  0
  189.3360  174.2040  140.6570 O   0  0  0  0  0  0  0  0  0  0  0  0
  188.8140  174.5760  141.8980 C   0  0  0  0  0  2  0  0  0  0  0  0
  188.2700  175.9910  141.8370 C   0  0  0  0  0  2  0  0  0  0  0  0
  186.7250  177.9860  144.7250 C   0  0  0  0  0  0  0  0  0  0  0  0
  187.0450  177.5750  143.4030 C   0  0  0  0  0  0  0  0  0  0  0  0
  187.9430  176.4990  143.2080 C   0  0  0  0  0  0  0  0  0  0  0  0
  187.3450  177.3380  145.8060 C   0  0  0  0  0  3  0  0  0  0  0  0
  188.5420  175.8770  144.3050 C   0  0  0  0  0  3  0  0  0  0  0  0
  188.2510  176.3000  145.6010 C   0  0  0  0  0  0  0  0  0  0  0  0
  188.8920  175.6340  146.7650 C   0  0  0  0  0  1  0  0  0  0  0  0
  185.7490  179.0620  145.0380 C   0  0  0  0  0  0  0  0  0  0  0  0
  184.8660  178.9540  146.1080 O   0  0  0  0  0  1  0  0  0  0  0  0
  185.7200  180.1090  144.3360 O   0  0  0  0  0  0  0  0  0  0  0  0
  186.4760  178.2780  142.2030 C   0  0  0  0  0  2  0  0  0  0  0  0
  185.5700  177.3920  141.4840 N   0  0  0  0  0  2  0  0  0  0  0  0
  184.2090  177.8380  141.7430 C   0  0  0  0  0  2  0  0  0  0  0  0
  183.5470  178.3180  140.4610 C   0  0  0  0  0  2  0  0  0  0  0  0
  182.2700  179.0700  140.7820 C   0  0  0  0  0  2  0  0  0  0  0  0
  181.2690  178.1230  141.4110 C   0  0  0  0  0  3  0  0  0  0  0  0
  179.9300  178.2930  140.7260 C   0  0  0  0  0  2  0  0  0  0  0  0
  180.1770  178.9360  142.0750 C   0  0  0  0  0  2  0  0  0  0  0  0
  190.1990  171.9690  140.4700 C   0  0  0  0  0  2  0  0  0  0  0  0
  191.2240  171.5560  139.4250 C   0  0  0  0  0  2  0  0  0  0  0  0
  192.4010  168.8160  136.1390 N   0  0  1  0  0  0  0  0  0  0  0  0
  189.7280  173.2570  137.3470 N   0  0  0  0  0  0  0  0  0  0  0  0
  190.0220  171.1520  134.9750 N   0  0  0  0  0  0  0  0  0  0  0  0
  190.5140  170.9450  138.2300 C   0  0  2  0  0  3  0  0  0  0  0  0
  191.4520  170.9290  137.0080 C   0  0  2  0  0  3  0  0  0  0  0  0
  191.2570  169.1900  135.4190 N   0  0  0  0  0  2  0  0  0  0  0  0
  189.6700  172.5150  135.0790 N   0  0  0  0  0  2  0  0  0  0  0  0
  190.7750  170.4610  135.7810 C   0  0  0  0  0  0  0  0  0  0  0  0
  188.9290  171.7970  137.9350 S   0  0  0  0  0  0  0  0  0  0  0  0
  192.5490  169.8490  137.2030 C   0  0  1  0  0  3  0  0  0  0  0  0
  190.0520  173.4400  136.1070 C   0  0  0  0  0  0  0  0  0  0  0  0
  191.9990  168.5200  137.5220 C   0  0  0  0  0  2  0  0  0  0  0  0
  190.6050  174.7620  135.7050 C   0  0  0  0  0  2  0  0  0  0  0  0
  191.7070  175.0830  136.5150 O   0  0  0  0  0  0  0  0  0  0  0  0
  191.6450  177.0610  135.3490 F   0  0  0  0  0  0  0  0  0  0  0  0
  193.3390  176.6350  136.7590 F   0  0  0  0  0  0  0  0  0  0  0  0
  193.2140  175.5100  134.8200 F   0  0  0  0  0  0  0  0  0  0  0  0
  192.4680  176.0640  135.8520 C   0  0  0  0  0  0  0  0  0  0  0  0
  1  2  1  6  0  0  0
  2  3  1  0  0  0  0
  4  5  1  1  0  0  0
  4  6  1  0  0  0  0
  4  3  1  0  0  0  0
  6  9  1  6  0  0  0
  7  8  1  0  0  0  0
  8  6  1  0  0  0  0
  9 10  1  0  0  0  0
 11 10  1  6  0  0  0
 11 14  1  0  0  0  0
 12 11  1  0  0  0  0
 12 13  1  0  0  0  0
 16 18  1  0  0  0  0
 16 25  1  0  0  0  0
 17 15  1  1  0  0  0
 18 25  1  0  0  0  0
 20 21  1  6  0  0  0
 20 23  1  0  0  0  0
 20 24  1  0  0  0  0
 20 17  1  0  0  0  0
 21 23  1  0  0  0  0
 22 17  1  0  0  0  0
 22 15  1  1  0  0  0
 24 17  1  0  0  0  0
 24 19  1  1  0  0  0
 25 22  1  0  0  0  0
 26 25  1  0  0  0  0
 26 27  1  0  0  0  0
 27 14  1  6  0  0  0
 27 24  1  0  0  0  0
 28  1  1  0  0  0  0
 28 29  1  0  0  0  0
 30 29  1  0  0  0  0
 30 33  1  0  0  0  0
 31 38  1  0  0  0  0
 31 34  1  0  0  0  0
 32 31  2  0  0  0  0
 33 32  1  0  0  0  0
 33 35  2  0  0  0  0
 35 36  1  0  0  0  0
 36 34  2  0  0  0  0
 36 37  1  0  0  0  0
 38 39  1  0  0  0  0
 40 38  2  0  0  0  0
 41 32  1  0  0  0  0
 42 43  1  0  0  0  0
 42 41  1  0  0  0  0
 44 45  1  0  0  0  0
 44 43  1  0  0  0  0
 45 46  1  0  0  0  0
 46 48  1  0  0  0  0
 47 46  1  0  0  0  0
 47 48  1  0  0  0  0
 49  1  1  0  0  0  0
 50 49  1  0  0  0  0
 51 60  1  0  0  0  0
 51 62  1  1  0  0  0
 52 59  1  0  0  0  0
 53 57  1  0  0  0  0
 53 58  2  0  0  0  0
 54 50  1  1  0  0  0
 55 58  1  6  0  0  0
 55 60  1  0  0  0  0
 55 54  1  0  0  0  0
 56 58  1  0  0  0  0
 56 51  1  0  0  0  0
 57 61  1  0  0  0  0
 59 54  1  0  0  0  0
 60 62  1  1  0  0  0
 61 52  2  0  0  0  0
 63 61  1  0  0  0  0
 63 64  1  0  0  0  0
 65 68  1  0  0  0  0
 67 68  1  0  0  0  0
 68 64  1  0  0  0  0
 68 66  1  0  0  0  0
M  END
>  <MODEL>
3

>  <REMARK>
 VINA RESULT:      -5.2      2.115      3.344
  Name = 
  28 active torsions:
  status: ('A' for Active; 'I' for Inactive)
    1  A    between atoms: C_5  and  C_13
    2  A    between atoms: C_7  and  C_9
    3  A    between atoms: C_7  and  C_12
    4  A    between atoms: C_8  and  C_18
    5  A    between atoms: C_8  and  C_48
    6  A    between atoms: C_8  and  O_62
    7  A    between atoms: C_11  and  C_25
    8  A    between atoms: C_12  and  C_15
    9  A    between atoms: C_14  and  C_64
   10  A    between atoms: C_15  and  C_59
   11  A    between atoms: C_15  and  O_60
   12  A    between atoms: C_18  and  O_26
   13  A    between atoms: C_21  and  C_33
   14  A    between atoms: C_22  and  C_23
   15  A    between atoms: C_22  and  O_30
   16  A    between atoms: C_22  and  C_37
   17  A    between atoms: C_23  and  C_66
   18  A    between atoms: C_25  and  C_36
   19  A    between atoms: O_26  and  C_59
   20  A    between atoms: C_33  and  C_61
   21  A    between atoms: C_36  and  C_50
   22  A    between atoms: C_37  and  C_48
   23  A    between atoms: N_43  and  C_50
   24  A    between atoms: N_43  and  C_64
   25  A    between atoms: C_47  and  O_58
   26  A    between atoms: C_47  and  C_63
   27  A    between atoms: O_58  and  C_68
   28  A    between atoms: O_60  and  C_61
                            x       y       z     vdW  Elec       q    Type
                         _______ _______ _______ _____ _____    ______ ____

>  <TORSDO>
F 28

$$$$
=
 OpenBabel11042417363D

 68 77  0  0  1  0  0  0  0  0999 V2000
  188.6560  172.9290  140.8030 C   0  0  1  0  0  3  0  0  0  0  0  0
  189.0110  172.0840  142.0210 C   0  0  0  0  0  2  0  0  0  0  0  0
  190.1580  171.3310  141.7570 O   0  0  0  0  0  0  0  0  0  0  0  0
  191.0620  171.6830  142.7660 C   0  0  1  0  0  3  0  0  0  0  0  0
  190.2770  172.0100  144.0310 C   0  0  0  0  0  1  0  0  0  0  0  0
  192.0330  170.5200  143.0250 C   0  0  1  0  0  3  0  0  0  0  0  0
  192.1570  168.2580  142.6600 C   0  0  0  0  0  1  0  0  0  0  0  0
  191.9620  169.5040  142.0450 O   0  0  0  0  0  0  0  0  0  0  0  0
  193.4700  170.9760  143.3150 C   0  0  0  0  0  2  0  0  0  0  0  0
  193.6000  171.4840  144.7450 C   0  0  0  0  0  2  0  0  0  0  0  0
  194.9200  172.2010  145.0200 C   0  0  2  0  0  3  0  0  0  0  0  0
  195.8450  171.3460  145.6250 O   0  0  0  0  0  0  0  0  0  0  0  0
  196.8540  171.2900  144.7820 O   0  0  0  0  0  1  0  0  0  0  0  0
  194.7090  173.4460  145.8680 C   0  0  0  0  0  2  0  0  0  0  0  0
  191.5270  175.4970  143.8230 C   0  0  0  0  0  2  0  0  0  0  0  0
  190.4760  175.6030  147.4180 C   0  0  0  0  0  2  0  0  0  0  0  0
  192.6410  176.4300  144.3320 C   0  0  1  0  0  0  0  0  0  0  0  0
  189.9360  174.5120  146.5090 C   0  0  0  0  0  2  0  0  0  0  0  0
  194.7240  175.4420  143.6620 O   0  0  0  0  0  1  0  0  0  0  0  0
  193.6140  176.7590  145.5170 C   0  0  2  0  0  0  0  0  0  0  0  0
  195.0630  177.1600  145.6310 C   0  0  0  0  0  2  0  0  0  0  0  0
  191.2960  176.2130  145.0960 C   0  0  2  0  0  3  0  0  0  0  0  0
  194.1540  177.9720  145.0030 O   0  0  0  0  0  0  0  0  0  0  0  0
  193.7590  175.4850  144.6820 C   0  0  1  0  0  0  0  0  0  0  0  0
  191.2760  175.1570  146.2170 C   0  0  0  0  0  0  0  0  0  0  0  0
  192.5060  174.3400  146.6050 C   0  0  0  0  0  2  0  0  0  0  0  0
  193.4450  174.1530  145.4110 C   0  0  2  0  0  3  0  0  0  0  0  0
  189.0950  174.2460  140.9770 O   0  0  0  0  0  0  0  0  0  0  0  0
  188.4600  174.6830  142.1420 C   0  0  0  0  0  2  0  0  0  0  0  0
  188.4720  176.1980  142.2100 C   0  0  0  0  0  2  0  0  0  0  0  0
  185.3150  177.8120  143.6720 C   0  0  0  0  0  0  0  0  0  0  0  0
  186.2940  177.4020  142.7270 C   0  0  0  0  0  0  0  0  0  0  0  0
  187.4380  176.7000  143.1710 C   0  0  0  0  0  0  0  0  0  0  0  0
  185.5320  177.5440  145.0330 C   0  0  0  0  0  3  0  0  0  0  0  0
  187.6230  176.4500  144.5330 C   0  0  0  0  0  3  0  0  0  0  0  0
  186.6780  176.8770  145.4630 C   0  0  0  0  0  0  0  0  0  0  0  0
  186.8800  176.6080  146.9100 C   0  0  0  0  0  1  0  0  0  0  0  0
  184.0500  178.5000  143.3010 C   0  0  0  0  0  0  0  0  0  0  0  0
  183.3620  178.1770  142.1360 O   0  0  0  0  0  0  0  0  0  0  0  0
  183.5720  179.3870  144.0580 O   0  0  0  0  0  1  0  0  0  0  0  0
  186.1580  177.7280  141.2650 C   0  0  0  0  0  2  0  0  0  0  0  0
  186.7420  176.6640  140.4580 N   0  0  0  0  0  2  0  0  0  0  0  0
  186.5510  177.0110  139.0570 C   0  0  0  0  0  2  0  0  0  0  0  0
  187.0010  175.8740  138.1550 C   0  0  0  0  0  2  0  0  0  0  0  0
  186.3980  176.0330  136.7730 C   0  0  0  0  0  2  0  0  0  0  0  0
  187.3770  176.7580  135.8720 C   0  0  0  0  0  3  0  0  0  0  0  0
  186.7420  176.9590  134.5140 C   0  0  0  0  0  2  0  0  0  0  0  0
  187.7480  175.8470  134.7200 C   0  0  0  0  0  2  0  0  0  0  0  0
  189.2590  172.3290  139.5370 C   0  0  0  0  0  2  0  0  0  0  0  0
  190.5220  173.0640  139.1130 C   0  0  0  0  0  2  0  0  0  0  0  0
  192.2000  169.3670  137.3220 N   0  0  1  0  0  0  0  0  0  0  0  0
  192.4750  174.6820  137.3760 N   0  0  0  0  0  0  0  0  0  0  0  0
  193.4260  172.2050  135.6140 N   0  0  0  0  0  0  0  0  0  0  0  0
  190.9160  172.6330  137.7120 C   0  0  2  0  0  3  0  0  0  0  0  0
  192.2130  171.8020  137.7580 C   0  0  2  0  0  3  0  0  0  0  0  0
  192.5480  170.0850  136.1690 N   0  0  0  0  0  2  0  0  0  0  0  0
  193.8890  173.5180  135.8450 N   0  0  0  0  0  2  0  0  0  0  0  0
  192.7140  171.4610  136.4110 C   0  0  0  0  0  0  0  0  0  0  0  0
  191.0040  174.0820  136.6070 S   0  0  0  0  0  0  0  0  0  0  0  0
  191.9170  170.4020  138.3570 C   0  0  1  0  0  3  0  0  0  0  0  0
  193.6650  174.3320  137.0050 C   0  0  0  0  0  0  0  0  0  0  0  0
  190.8130  169.7050  137.6750 C   0  0  0  0  0  2  0  0  0  0  0  0
  194.8320  175.0010  137.6410 C   0  0  0  0  0  2  0  0  0  0  0  0
  194.4650  175.5020  138.9020 O   0  0  0  0  0  0  0  0  0  0  0  0
  196.0410  175.9110  140.5220 F   0  0  0  0  0  0  0  0  0  0  0  0
  194.5380  174.2650  140.7970 F   0  0  0  0  0  0  0  0  0  0  0  0
  196.1830  174.0110  139.2900 F   0  0  0  0  0  0  0  0  0  0  0  0
  195.3140  174.9280  139.8660 C   0  0  0  0  0  0  0  0  0  0  0  0
  1 49  1  6  0  0  0
  1 28  1  0  0  0  0
  1  2  1  0  0  0  0
  3  2  1  0  0  0  0
  3  4  1  0  0  0  0
  4  6  1  0  0  0  0
  4  5  1  1  0  0  0
  6  9  1  6  0  0  0
  8  7  1  0  0  0  0
  8  6  1  0  0  0  0
  9 10  1  0  0  0  0
 11 10  1  1  0  0  0
 11 12  1  0  0  0  0
 11 14  1  0  0  0  0
 13 12  1  0  0  0  0
 17 15  1  6  0  0  0
 17 24  1  0  0  0  0
 17 22  1  0  0  0  0
 17 20  1  0  0  0  0
 18 16  1  0  0  0  0
 20 21  1  1  0  0  0
 22 15  1  6  0  0  0
 22 25  1  0  0  0  0
 23 20  1  0  0  0  0
 23 21  1  0  0  0  0
 24 19  1  6  0  0  0
 24 27  1  0  0  0  0
 24 20  1  0  0  0  0
 25 18  1  0  0  0  0
 25 26  1  0  0  0  0
 25 16  1  0  0  0  0
 27 14  1  1  0  0  0
 27 26  1  0  0  0  0
 28 29  1  0  0  0  0
 29 30  1  0  0  0  0
 30 33  1  0  0  0  0
 31 34  1  0  0  0  0
 32 33  1  0  0  0  0
 32 31  2  0  0  0  0
 33 35  2  0  0  0  0
 34 36  2  0  0  0  0
 35 36  1  0  0  0  0
 36 37  1  0  0  0  0
 38 31  1  0  0  0  0
 38 40  1  0  0  0  0
 39 38  2  0  0  0  0
 41 32  1  0  0  0  0
 42 41  1  0  0  0  0
 43 42  1  0  0  0  0
 44 43  1  0  0  0  0
 45 44  1  0  0  0  0
 46 45  1  0  0  0  0
 47 48  1  0  0  0  0
 47 46  1  0  0  0  0
 48 46  1  0  0  0  0
 50 49  1  0  0  0  0
 51 62  1  6  0  0  0
 51 60  1  0  0  0  0
 53 57  1  0  0  0  0
 53 58  2  0  0  0  0
 54 55  1  0  0  0  0
 54 50  1  1  0  0  0
 55 58  1  6  0  0  0
 55 60  1  0  0  0  0
 56 58  1  0  0  0  0
 56 51  1  0  0  0  0
 57 61  1  0  0  0  0
 59 52  1  0  0  0  0
 59 54  1  0  0  0  0
 60 62  1  6  0  0  0
 61 52  2  0  0  0  0
 61 63  1  0  0  0  0
 63 64  1  0  0  0  0
 64 68  1  0  0  0  0
 67 68  1  0  0  0  0
 68 65  1  0  0  0  0
 68 66  1  0  0  0  0
M  END
>  <MODEL>
4

>  <REMARK>
 VINA RESULT:      -5.1      2.029      2.846
  Name = 
  28 active torsions:
  status: ('A' for Active; 'I' for Inactive)
    1  A    between atoms: C_5  and  C_13
    2  A    between atoms: C_7  and  C_9
    3  A    between atoms: C_7  and  C_12
    4  A    between atoms: C_8  and  C_18
    5  A    between atoms: C_8  and  C_48
    6  A    between atoms: C_8  and  O_62
    7  A    between atoms: C_11  and  C_25
    8  A    between atoms: C_12  and  C_15
    9  A    between atoms: C_14  and  C_64
   10  A    between atoms: C_15  and  C_59
   11  A    between atoms: C_15  and  O_60
   12  A    between atoms: C_18  and  O_26
   13  A    between atoms: C_21  and  C_33
   14  A    between atoms: C_22  and  C_23
   15  A    between atoms: C_22  and  O_30
   16  A    between atoms: C_22  and  C_37
   17  A    between atoms: C_23  and  C_66
   18  A    between atoms: C_25  and  C_36
   19  A    between atoms: O_26  and  C_59
   20  A    between atoms: C_33  and  C_61
   21  A    between atoms: C_36  and  C_50
   22  A    between atoms: C_37  and  C_48
   23  A    between atoms: N_43  and  C_50
   24  A    between atoms: N_43  and  C_64
   25  A    between atoms: C_47  and  O_58
   26  A    between atoms: C_47  and  C_63
   27  A    between atoms: O_58  and  C_68
   28  A    between atoms: O_60  and  C_61
                            x       y       z     vdW  Elec       q    Type
                         _______ _______ _______ _____ _____    ______ ____

>  <TORSDO>
F 28

$$$$
=
 OpenBabel11042417363D

 68 77  0  0  1  0  0  0  0  0999 V2000
  188.3620  174.9900  143.0220 C   0  0  1  0  0  3  0  0  0  0  0  0
  188.1140  174.1090  141.8030 C   0  0  0  0  0  2  0  0  0  0  0  0
  188.1410  174.8860  140.6430 O   0  0  0  0  0  0  0  0  0  0  0  0
  188.8400  174.1150  139.7070 C   0  0  1  0  0  3  0  0  0  0  0  0
  188.8330  172.6630  140.1690 C   0  0  0  0  0  1  0  0  0  0  0  0
  188.1730  174.2390  138.3270 C   0  0  1  0  0  3  0  0  0  0  0  0
  186.7190  175.6700  137.2770 C   0  0  0  0  0  1  0  0  0  0  0  0
  187.9580  175.5790  137.9290 O   0  0  0  0  0  0  0  0  0  0  0  0
  188.8500  173.3910  137.2410 C   0  0  0  0  0  2  0  0  0  0  0  0
  190.0570  174.1150  136.6610 C   0  0  0  0  0  2  0  0  0  0  0  0
  191.3780  173.3890  136.9050 C   0  0  2  0  0  3  0  0  0  0  0  0
  191.2150  172.0020  136.8410 O   0  0  0  0  0  0  0  0  0  0  0  0
  191.1230  171.7330  135.5560 O   0  0  0  0  0  1  0  0  0  0  0  0
  191.9950  173.7910  138.2360 C   0  0  0  0  0  2  0  0  0  0  0  0
  196.1740  174.7580  137.8820 C   0  0  0  0  0  2  0  0  0  0  0  0
  196.0440  171.1020  137.0730 C   0  0  0  0  0  2  0  0  0  0  0  0
  195.3950  174.8720  136.5580 C   0  0  1  0  0  0  0  0  0  0  0  0
  196.3810  171.5470  138.4860 C   0  0  0  0  0  2  0  0  0  0  0  0
  193.4040  176.1220  137.0370 O   0  0  0  0  0  1  0  0  0  0  0  0
  194.3090  174.2200  135.6350 C   0  0  2  0  0  0  0  0  0  0  0  0
  193.1570  174.7350  134.8100 C   0  0  0  0  0  2  0  0  0  0  0  0
  196.2600  173.6260  136.9350 C   0  0  2  0  0  3  0  0  0  0  0  0
  194.4490  175.0880  134.5150 O   0  0  0  0  0  0  0  0  0  0  0  0
  193.9550  174.8310  136.9920 C   0  0  1  0  0  0  0  0  0  0  0  0
  195.5390  172.4300  137.5860 C   0  0  0  0  0  0  0  0  0  0  0  0
  194.0380  172.4190  137.8590 C   0  0  0  0  0  2  0  0  0  0  0  0
  193.5070  173.8350  138.0920 C   0  0  2  0  0  3  0  0  0  0  0  0
  189.6190  175.6000  142.9360 O   0  0  0  0  0  0  0  0  0  0  0  0
  190.5280  174.5410  142.9040 C   0  0  0  0  0  2  0  0  0  0  0  0
  191.7790  174.9440  142.1480 C   0  0  0  0  0  2  0  0  0  0  0  0
  194.8590  172.6590  142.2020 C   0  0  0  0  0  0  0  0  0  0  0  0
  194.0470  173.8150  142.3580 C   0  0  0  0  0  0  0  0  0  0  0  0
  192.6910  173.7710  141.9550 C   0  0  0  0  0  0  0  0  0  0  0  0
  194.3020  171.5130  141.6120 C   0  0  0  0  0  3  0  0  0  0  0  0
  192.1690  172.6150  141.3710 C   0  0  0  0  0  3  0  0  0  0  0  0
  192.9730  171.4920  141.1920 C   0  0  0  0  0  0  0  0  0  0  0  0
  192.4120  170.2640  140.5700 C   0  0  0  0  0  1  0  0  0  0  0  0
  196.2750  172.5820  142.6490 C   0  0  0  0  0  0  0  0  0  0  0  0
  196.6340  172.8300  143.9690 O   0  0  0  0  0  1  0  0  0  0  0  0
  197.1770  172.2710  141.8250 O   0  0  0  0  0  0  0  0  0  0  0  0
  194.6040  175.0970  142.9100 C   0  0  0  0  0  2  0  0  0  0  0  0
  194.5210  175.0950  144.3650 N   0  0  0  0  0  2  0  0  0  0  0  0
  194.5280  176.4790  144.8140 C   0  0  0  0  0  2  0  0  0  0  0  0
  193.8670  176.6060  146.1780 C   0  0  0  0  0  2  0  0  0  0  0  0
  192.3680  176.4170  146.0510 C   0  0  0  0  0  2  0  0  0  0  0  0
  191.9450  175.1830  146.8220 C   0  0  0  0  0  3  0  0  0  0  0  0
  190.4490  175.0020  146.6820 C   0  0  0  0  0  2  0  0  0  0  0  0
  191.0230  175.6020  147.9480 C   0  0  0  0  0  2  0  0  0  0  0  0
  187.2670  176.0430  143.1570 C   0  0  0  0  0  2  0  0  0  0  0  0
  187.8460  177.4440  143.2790 C   0  0  0  0  0  2  0  0  0  0  0  0
  185.9820  176.7270  147.2410 N   0  0  1  0  0  0  0  0  0  0  0  0
  185.2340  178.8050  142.3990 N   0  0  0  0  0  0  0  0  0  0  0  0
  183.9320  178.8530  145.3040 N   0  0  0  0  0  0  0  0  0  0  0  0
  186.9940  178.2660  144.2300 C   0  0  2  0  0  3  0  0  0  0  0  0
  185.8990  177.3840  144.8570 C   0  0  2  0  0  3  0  0  0  0  0  0
  185.1550  177.8440  147.0530 N   0  0  0  0  0  2  0  0  0  0  0  0
  183.4660  179.0360  143.9850 N   0  0  0  0  0  2  0  0  0  0  0  0
  184.9610  178.1580  145.6960 C   0  0  0  0  0  0  0  0  0  0  0  0
  186.3550  179.7490  143.3820 S   0  0  0  0  0  0  0  0  0  0  0  0
  186.5330  176.4170  145.8920 C   0  0  1  0  0  3  0  0  0  0  0  0
  184.0330  178.5080  142.7770 C   0  0  0  0  0  0  0  0  0  0  0  0
  187.3590  177.1090  146.8960 C   0  0  0  0  0  2  0  0  0  0  0  0
  183.1340  177.8180  141.8120 C   0  0  0  0  0  2  0  0  0  0  0  0
  182.5290  178.7610  140.9650 O   0  0  0  0  0  0  0  0  0  0  0  0
  180.4190  179.1270  140.1340 F   0  0  0  0  0  0  0  0  0  0  0  0
  180.7600  177.5530  141.6990 F   0  0  0  0  0  0  0  0  0  0  0  0
  180.8880  179.7200  142.2740 F   0  0  0  0  0  0  0  0  0  0  0  0
  181.1550  178.8040  141.2650 C   0  0  0  0  0  0  0  0  0  0  0  0
  1  2  1  6  0  0  0
  1 49  1  0  0  0  0
  3  2  1  0  0  0  0
  4  5  1  1  0  0  0
  4  3  1  0  0  0  0
  6  9  1  6  0  0  0
  6  4  1  0  0  0  0
  7  8  1  0  0  0  0
  8  6  1  0  0  0  0
 10  9  1  0  0  0  0
 11 10  1  1  0  0  0
 11 14  1  0  0  0  0
 12 11  1  0  0  0  0
 13 12  1  0  0  0  0
 16 25  1  0  0  0  0
 16 18  1  0  0  0  0
 17 22  1  0  0  0  0
 17 24  1  0  0  0  0
 17 15  1  6  0  0  0
 20 21  1  6  0  0  0
 20 17  1  0  0  0  0
 20 24  1  0  0  0  0
 22 25  1  0  0  0  0
 22 15  1  1  0  0  0
 23 21  1  0  0  0  0
 23 20  1  0  0  0  0
 24 19  1  6  0  0  0
 24 27  1  0  0  0  0
 25 26  1  0  0  0  0
 25 18  1  0  0  0  0
 26 27  1  0  0  0  0
 27 14  1  6  0  0  0
 28  1  1  0  0  0  0
 29 28  1  0  0  0  0
 30 29  1  0  0  0  0
 31 32  1  0  0  0  0
 31 38  1  0  0  0  0
 32 41  1  0  0  0  0
 33 30  1  0  0  0  0
 33 32  2  0  0  0  0
 34 31  2  0  0  0  0
 35 33  1  0  0  0  0
 36 35  2  0  0  0  0
 36 34  1  0  0  0  0
 37 36  1  0  0  0  0
 38 39  1  0  0  0  0
 40 38  2  0  0  0  0
 41 42  1  0  0  0  0
 42 43  1  0  0  0  0
 43 44  1  0  0  0  0
 45 44  1  0  0  0  0
 45 46  1  0  0  0  0
 46 48  1  0  0  0  0
 47 46  1  0  0  0  0
 47 48  1  0  0  0  0
 49 50  1  0  0  0  0
 51 62  1  1  0  0  0
 52 61  2  0  0  0  0
 52 59  1  0  0  0  0
 53 58  2  0  0  0  0
 54 50  1  6  0  0  0
 54 55  1  0  0  0  0
 55 58  1  1  0  0  0
 55 60  1  0  0  0  0
 56 51  1  0  0  0  0
 57 53  1  0  0  0  0
 58 56  1  0  0  0  0
 59 54  1  0  0  0  0
 60 62  1  1  0  0  0
 60 51  1  0  0  0  0
 61 57  1  0  0  0  0
 63 61  1  0  0  0  0
 64 68  1  0  0  0  0
 64 63  1  0  0  0  0
 65 68  1  0  0  0  0
 68 66  1  0  0  0  0
 68 67  1  0  0  0  0
M  END
>  <MODEL>
5

>  <REMARK>
 VINA RESULT:      -5.0      4.832     10.096
  Name = 
  28 active torsions:
  status: ('A' for Active; 'I' for Inactive)
    1  A    between atoms: C_5  and  C_13
    2  A    between atoms: C_7  and  C_9
    3  A    between atoms: C_7  and  C_12
    4  A    between atoms: C_8  and  C_18
    5  A    between atoms: C_8  and  C_48
    6  A    between atoms: C_8  and  O_62
    7  A    between atoms: C_11  and  C_25
    8  A    between atoms: C_12  and  C_15
    9  A    between atoms: C_14  and  C_64
   10  A    between atoms: C_15  and  C_59
   11  A    between atoms: C_15  and  O_60
   12  A    between atoms: C_18  and  O_26
   13  A    between atoms: C_21  and  C_33
   14  A    between atoms: C_22  and  C_23
   15  A    between atoms: C_22  and  O_30
   16  A    between atoms: C_22  and  C_37
   17  A    between atoms: C_23  and  C_66
   18  A    between atoms: C_25  and  C_36
   19  A    between atoms: O_26  and  C_59
   20  A    between atoms: C_33  and  C_61
   21  A    between atoms: C_36  and  C_50
   22  A    between atoms: C_37  and  C_48
   23  A    between atoms: N_43  and  C_50
   24  A    between atoms: N_43  and  C_64
   25  A    between atoms: C_47  and  O_58
   26  A    between atoms: C_47  and  C_63
   27  A    between atoms: O_58  and  C_68
   28  A    between atoms: O_60  and  C_61
                            x       y       z     vdW  Elec       q    Type
                         _______ _______ _______ _____ _____    ______ ____

>  <TORSDO>
F 28

$$$$
=
 OpenBabel11042417363D

 68 77  0  0  1  0  0  0  0  0999 V2000
  188.7980  174.9190  142.8850 C   0  0  1  0  0  3  0  0  0  0  0  0
  188.7160  175.2020  144.3800 C   0  0  0  0  0  2  0  0  0  0  0  0
  189.9980  175.1930  144.9350 O   0  0  0  0  0  0  0  0  0  0  0  0
  189.8330  175.6780  146.2380 C   0  0  1  0  0  3  0  0  0  0  0  0
  189.2300  174.5720  147.0960 C   0  0  0  0  0  1  0  0  0  0  0  0
  191.1920  176.1160  146.8070 C   0  0  1  0  0  3  0  0  0  0  0  0
  190.2500  177.9340  147.8420 C   0  0  0  0  0  1  0  0  0  0  0  0
  191.0850  176.8230  148.0280 O   0  0  0  0  0  0  0  0  0  0  0  0
  192.2280  174.9850  146.8570 C   0  0  0  0  0  2  0  0  0  0  0  0
  193.2340  175.1200  145.7210 C   0  0  0  0  0  2  0  0  0  0  0  0
  194.6220  175.5570  146.1850 C   0  0  2  0  0  3  0  0  0  0  0  0
  194.8540  176.9040  145.8910 O   0  0  0  0  0  0  0  0  0  0  0  0
  194.4030  177.5600  146.9390 O   0  0  0  0  0  1  0  0  0  0  0  0
  195.7100  174.6840  145.5800 C   0  0  0  0  0  2  0  0  0  0  0  0
  194.2990  173.5290  141.6810 C   0  0  0  0  0  2  0  0  0  0  0  0
  197.3630  175.5550  140.9440 C   0  0  0  0  0  2  0  0  0  0  0  0
  195.3310  172.5580  142.2820 C   0  0  1  0  0  0  0  0  0  0  0  0
  195.9960  176.2170  140.9000 C   0  0  0  0  0  2  0  0  0  0  0  0
  194.6330  172.1150  144.5340 O   0  0  0  0  0  1  0  0  0  0  0  0
  196.6770  172.4260  143.0760 C   0  0  2  0  0  0  0  0  0  0  0  0
  197.1810  171.5420  144.1880 C   0  0  0  0  0  2  0  0  0  0  0  0
  195.7020  173.6590  141.2380 C   0  0  2  0  0  3  0  0  0  0  0  0
  196.8370  171.0160  142.9680 O   0  0  0  0  0  0  0  0  0  0  0  0
  195.4030  172.9680  143.7280 C   0  0  1  0  0  0  0  0  0  0  0  0
  196.2300  175.0020  141.7770 C   0  0  0  0  0  0  0  0  0  0  0  0
  196.4080  175.2820  143.2660 C   0  0  0  0  0  2  0  0  0  0  0  0
  195.4170  174.4720  144.1040 C   0  0  2  0  0  3  0  0  0  0  0  0
  189.2710  176.0430  142.2000 O   0  0  0  0  0  0  0  0  0  0  0  0
  188.5680  177.1180  142.7490 C   0  0  0  0  0  2  0  0  0  0  0  0
  188.3280  178.1830  141.6960 C   0  0  0  0  0  2  0  0  0  0  0  0
  184.7790  177.8610  140.2770 C   0  0  0  0  0  0  0  0  0  0  0  0
  185.8420  178.1820  141.1650 C   0  0  0  0  0  0  0  0  0  0  0  0
  187.1670  177.8210  140.8220 C   0  0  0  0  0  0  0  0  0  0  0  0
  185.0700  177.1540  139.0990 C   0  0  0  0  0  3  0  0  0  0  0  0
  187.4200  177.1180  139.6420 C   0  0  0  0  0  3  0  0  0  0  0  0
  186.3740  176.7780  138.7860 C   0  0  0  0  0  0  0  0  0  0  0  0
  186.6500  176.0300  137.5320 C   0  0  0  0  0  1  0  0  0  0  0  0
  183.3640  178.2490  140.5140 C   0  0  0  0  0  0  0  0  0  0  0  0
  182.9750  179.5840  140.5610 O   0  0  0  0  0  0  0  0  0  0  0  0
  182.4850  177.3580  140.6630 O   0  0  0  0  0  1  0  0  0  0  0  0
  185.5880  178.8670  142.4780 C   0  0  0  0  0  2  0  0  0  0  0  0
  184.6400  178.0960  143.2720 N   0  0  0  0  0  2  0  0  0  0  0  0
  185.3990  177.1580  144.0870 C   0  0  0  0  0  2  0  0  0  0  0  0
  186.4190  177.8920  144.9440 C   0  0  0  0  0  2  0  0  0  0  0  0
  185.7490  178.4620  146.1780 C   0  0  0  0  0  2  0  0  0  0  0  0
  186.5690  178.1170  147.4050 C   0  0  0  0  0  3  0  0  0  0  0  0
  185.7060  178.2810  148.6380 C   0  0  0  0  0  2  0  0  0  0  0  0
  186.7070  179.3550  148.2660 C   0  0  0  0  0  2  0  0  0  0  0  0
  189.6930  173.7140  142.6130 C   0  0  0  0  0  2  0  0  0  0  0  0
  190.2820  173.7560  141.2110 C   0  0  0  0  0  2  0  0  0  0  0  0
  191.4720  169.4990  140.8280 N   0  0  1  0  0  0  0  0  0  0  0  0
  189.9530  173.8430  138.1560 N   0  0  0  0  0  0  0  0  0  0  0  0
  190.2650  170.7020  137.7350 N   0  0  0  0  0  0  0  0  0  0  0  0
  189.7790  172.5680  140.4110 C   0  0  2  0  0  3  0  0  0  0  0  0
  190.9670  171.7340  139.8960 C   0  0  2  0  0  3  0  0  0  0  0  0
  190.7220  169.3960  139.6480 N   0  0  0  0  0  2  0  0  0  0  0  0
  190.3020  171.8420  136.9030 N   0  0  0  0  0  2  0  0  0  0  0  0
  190.5420  170.6350  139.0050 C   0  0  0  0  0  0  0  0  0  0  0  0
  188.6430  173.1280  139.0980 S   0  0  0  0  0  0  0  0  0  0  0  0
  191.6140  170.9610  141.0750 C   0  0  1  0  0  3  0  0  0  0  0  0
  190.6380  173.1850  137.2770 C   0  0  0  0  0  0  0  0  0  0  0  0
  190.6440  170.1640  141.8450 C   0  0  0  0  0  2  0  0  0  0  0  0
  191.6320  173.9260  136.4520 C   0  0  0  0  0  2  0  0  0  0  0  0
  192.9240  173.7220  136.9670 O   0  0  0  0  0  0  0  0  0  0  0  0
  192.6760  176.0010  136.8190 F   0  0  0  0  0  0  0  0  0  0  0  0
  193.4330  175.0680  138.7160 F   0  0  0  0  0  0  0  0  0  0  0  0
  194.7630  175.1150  136.9080 F   0  0  0  0  0  0  0  0  0  0  0  0
  193.4500  174.9730  137.3380 C   0  0  0  0  0  0  0  0  0  0  0  0
  1 49  1  1  0  0  0
  1  2  1  0  0  0  0
  2  3  1  0  0  0  0
  3  4  1  0  0  0  0
  4  6  1  0  0  0  0
  4  5  1  1  0  0  0
  6  9  1  1  0  0  0
  6  8  1  0  0  0  0
  7  8  1  0  0  0  0
 10 11  1  0  0  0  0
 10  9  1  0  0  0  0
 11 14  1  6  0  0  0
 12 11  1  0  0  0  0
 12 13  1  0  0  0  0
 16 25  1  0  0  0  0
 17 15  1  6  0  0  0
 17 20  1  0  0  0  0
 17 24  1  0  0  0  0
 18 16  1  0  0  0  0
 18 25  1  0  0  0  0
 20 24  1  0  0  0  0
 20 21  1  6  0  0  0
 22 15  1  1  0  0  0
 22 25  1  0  0  0  0
 22 17  1  0  0  0  0
 23 20  1  0  0  0  0
 23 21  1  0  0  0  0
 24 27  1  0  0  0  0
 24 19  1  1  0  0  0
 25 26  1  0  0  0  0
 26 27  1  0  0  0  0
 27 14  1  1  0  0  0
 28 29  1  0  0  0  0
 28  1  1  0  0  0  0
 30 29  1  0  0  0  0
 31 38  1  0  0  0  0
 31 32  1  0  0  0  0
 32 41  1  0  0  0  0
 33 32  2  0  0  0  0
 33 30  1  0  0  0  0
 34 31  2  0  0  0  0
 35 33  1  0  0  0  0
 36 34  1  0  0  0  0
 36 35  2  0  0  0  0
 37 36  1  0  0  0  0
 38 39  2  0  0  0  0
 38 40  1  0  0  0  0
 41 42  1  0  0  0  0
 42 43  1  0  0  0  0
 43 44  1  0  0  0  0
 44 45  1  0  0  0  0
 45 46  1  0  0  0  0
 46 48  1  0  0  0  0
 46 47  1  0  0  0  0
 48 47  1  0  0  0  0
 50 49  1  0  0  0  0
 51 60  1  0  0  0  0
 51 62  1  1  0  0  0
 52 59  1  0  0  0  0
 53 58  2  0  0  0  0
 54 50  1  6  0  0  0
 55 58  1  6  0  0  0
 55 54  1  0  0  0  0
 55 60  1  0  0  0  0
 56 51  1  0  0  0  0
 57 61  1  0  0  0  0
 57 53  1  0  0  0  0
 58 56  1  0  0  0  0
 59 54  1  0  0  0  0
 60 62  1  1  0  0  0
 61 52  2  0  0  0  0
 63 64  1  0  0  0  0
 63 61  1  0  0  0  0
 64 68  1  0  0  0  0
 65 68  1  0  0  0  0
 67 68  1  0  0  0  0
 68 66  1  0  0  0  0
M  END
>  <MODEL>
6

>  <REMARK>
 VINA RESULT:      -4.8      2.489      5.144
  Name = 
  28 active torsions:
  status: ('A' for Active; 'I' for Inactive)
    1  A    between atoms: C_5  and  C_13
    2  A    between atoms: C_7  and  C_9
    3  A    between atoms: C_7  and  C_12
    4  A    between atoms: C_8  and  C_18
    5  A    between atoms: C_8  and  C_48
    6  A    between atoms: C_8  and  O_62
    7  A    between atoms: C_11  and  C_25
    8  A    between atoms: C_12  and  C_15
    9  A    between atoms: C_14  and  C_64
   10  A    between atoms: C_15  and  C_59
   11  A    between atoms: C_15  and  O_60
   12  A    between atoms: C_18  and  O_26
   13  A    between atoms: C_21  and  C_33
   14  A    between atoms: C_22  and  C_23
   15  A    between atoms: C_22  and  O_30
   16  A    between atoms: C_22  and  C_37
   17  A    between atoms: C_23  and  C_66
   18  A    between atoms: C_25  and  C_36
   19  A    between atoms: O_26  and  C_59
   20  A    between atoms: C_33  and  C_61
   21  A    between atoms: C_36  and  C_50
   22  A    between atoms: C_37  and  C_48
   23  A    between atoms: N_43  and  C_50
   24  A    between atoms: N_43  and  C_64
   25  A    between atoms: C_47  and  O_58
   26  A    between atoms: C_47  and  C_63
   27  A    between atoms: O_58  and  C_68
   28  A    between atoms: O_60  and  C_61
                            x       y       z     vdW  Elec       q    Type
                         _______ _______ _______ _____ _____    ______ ____

>  <TORSDO>
F 28

$$$$
=
 OpenBabel11042417363D

 68 77  0  0  1  0  0  0  0  0999 V2000
  191.7620  173.0710  142.6700 C   0  0  1  0  0  3  0  0  0  0  0  0
  191.8040  171.8260  143.5470 C   0  0  0  0  0  2  0  0  0  0  0  0
  192.9430  171.0740  143.2500 O   0  0  0  0  0  0  0  0  0  0  0  0
  192.8810  169.9680  144.1050 C   0  0  1  0  0  3  0  0  0  0  0  0
  192.2980  168.7890  143.3340 C   0  0  0  0  0  1  0  0  0  0  0  0
  194.2890  169.6260  144.6200 C   0  0  1  0  0  3  0  0  0  0  0  0
  196.0400  168.1750  144.3180 C   0  0  0  0  0  1  0  0  0  0  0  0
  194.6440  168.2730  144.4190 O   0  0  0  0  0  0  0  0  0  0  0  0
  195.3690  170.6080  144.1440 C   0  0  0  0  0  2  0  0  0  0  0  0
  195.5510  170.5250  142.6340 C   0  0  0  0  0  2  0  0  0  0  0  0
  196.6600  171.4310  142.1030 C   0  0  2  0  0  3  0  0  0  0  0  0
  197.5940  170.7060  141.3570 O   0  0  0  0  0  0  0  0  0  0  0  0
  196.8730  169.9160  140.5910 O   0  0  0  0  0  1  0  0  0  0  0  0
  197.3480  172.1860  143.2310 C   0  0  0  0  0  2  0  0  0  0  0  0
  197.3840  176.4890  143.2760 C   0  0  0  0  0  2  0  0  0  0  0  0
  195.1110  175.6580  140.4160 C   0  0  0  0  0  2  0  0  0  0  0  0
  196.2410  175.8680  144.1010 C   0  0  1  0  0  0  0  0  0  0  0  0
  196.5760  175.9590  140.1480 C   0  0  0  0  0  2  0  0  0  0  0  0
  197.2260  174.1520  145.4590 O   0  0  0  0  0  1  0  0  0  0  0  0
  195.1420  174.7510  144.1550 C   0  0  2  0  0  0  0  0  0  0  0  0
  194.6250  173.8090  145.2120 C   0  0  0  0  0  2  0  0  0  0  0  0
  196.0480  176.4140  142.6500 C   0  0  2  0  0  3  0  0  0  0  0  0
  194.4910  175.1670  145.3510 O   0  0  0  0  0  0  0  0  0  0  0  0
  196.6350  174.4200  144.2140 C   0  0  1  0  0  0  0  0  0  0  0  0
  196.1420  175.4030  141.4910 C   0  0  0  0  0  0  0  0  0  0  0  0
  196.4030  173.9160  141.7110 C   0  0  0  0  0  2  0  0  0  0  0  0
  197.2180  173.6790  142.9840 C   0  0  2  0  0  3  0  0  0  0  0  0
  191.3180  172.7480  141.3830 O   0  0  0  0  0  0  0  0  0  0  0  0
  191.8630  173.7350  140.5590 C   0  0  0  0  0  2  0  0  0  0  0  0
  191.7270  173.3370  139.1010 C   0  0  0  0  0  2  0  0  0  0  0  0
  195.2850  173.0800  137.6930 C   0  0  0  0  0  0  0  0  0  0  0  0
  194.1290  172.7970  138.4700 C   0  0  0  0  0  0  0  0  0  0  0  0
  192.9880  173.6250  138.3470 C   0  0  0  0  0  0  0  0  0  0  0  0
  195.2780  174.2050  136.8530 C   0  0  0  0  0  3  0  0  0  0  0  0
  193.0160  174.7360  137.5010 C   0  0  0  0  0  3  0  0  0  0  0  0
  194.1590  175.0310  136.7620 C   0  0  0  0  0  0  0  0  0  0  0  0
  194.1820  176.2140  135.8640 C   0  0  0  0  0  1  0  0  0  0  0  0
  196.5100  172.2380  137.7040 C   0  0  0  0  0  0  0  0  0  0  0  0
  197.5970  172.5470  138.5140 O   0  0  0  0  0  1  0  0  0  0  0  0
  196.5710  171.2100  136.9780 O   0  0  0  0  0  0  0  0  0  0  0  0
  194.1000  171.6540  139.4460 C   0  0  0  0  0  2  0  0  0  0  0  0
  193.5850  170.4540  138.8000 N   0  0  0  0  0  2  0  0  0  0  0  0
  192.7720  169.7380  139.7720 C   0  0  0  0  0  2  0  0  0  0  0  0
  191.6400  168.9930  139.0820 C   0  0  0  0  0  2  0  0  0  0  0  0
  190.4340  169.8990  138.9300 C   0  0  0  0  0  2  0  0  0  0  0  0
  189.7980  169.6730  137.5740 C   0  0  0  0  0  3  0  0  0  0  0  0
  190.7890  170.0510  136.4940 C   0  0  0  0  0  2  0  0  0  0  0  0
  189.6720  171.0050  136.8640 C   0  0  0  0  0  2  0  0  0  0  0  0
  190.8650  174.1380  143.2910 C   0  0  0  0  0  2  0  0  0  0  0  0
  191.5690  175.4840  143.3760 C   0  0  0  0  0  2  0  0  0  0  0  0
  189.9180  174.8590  147.4470 N   0  0  1  0  0  0  0  0  0  0  0  0
  189.0470  177.1060  142.7020 N   0  0  0  0  0  0  0  0  0  0  0  0
  187.9560  177.2130  145.6920 N   0  0  0  0  0  0  0  0  0  0  0  0
  190.8670  176.3620  144.3970 C   0  0  2  0  0  3  0  0  0  0  0  0
  189.7360  175.5740  145.0850 C   0  0  2  0  0  3  0  0  0  0  0  0
  189.1920  176.0530  147.3350 N   0  0  0  0  0  2  0  0  0  0  0  0
  187.4210  177.4690  144.4110 N   0  0  0  0  0  2  0  0  0  0  0  0
  188.9370  176.4150  145.9990 C   0  0  0  0  0  0  0  0  0  0  0  0
  190.3180  177.9180  143.6190 S   0  0  0  0  0  0  0  0  0  0  0  0
  190.3440  174.5280  146.0580 C   0  0  1  0  0  3  0  0  0  0  0  0
  187.8500  176.9180  143.1590 C   0  0  0  0  0  0  0  0  0  0  0  0
  191.2990  175.1150  147.0130 C   0  0  0  0  0  2  0  0  0  0  0  0
  186.8260  176.3370  142.2480 C   0  0  0  0  0  2  0  0  0  0  0  0
  187.2350  176.4910  140.9120 O   0  0  0  0  0  0  0  0  0  0  0  0
  186.5370  178.6610  141.1930 F   0  0  0  0  0  0  0  0  0  0  0  0
  187.0980  177.9100  139.1530 F   0  0  0  0  0  0  0  0  0  0  0  0
  185.1920  177.1960  140.1010 F   0  0  0  0  0  0  0  0  0  0  0  0
  186.5090  177.5580  140.3520 C   0  0  0  0  0  0  0  0  0  0  0  0
  1 49  1  1  0  0  0
  1  2  1  0  0  0  0
  3  2  1  0  0  0  0
  3  4  1  0  0  0  0
  4  5  1  6  0  0  0
  4  6  1  0  0  0  0
  6  9  1  6  0  0  0
  7  8  1  0  0  0  0
  8  6  1  0  0  0  0
 10  9  1  0  0  0  0
 11 10  1  1  0  0  0
 11 14  1  0  0  0  0
 12 11  1  0  0  0  0
 13 12  1  0  0  0  0
 16 25  1  0  0  0  0
 17 15  1  1  0  0  0
 17 20  1  0  0  0  0
 17 24  1  0  0  0  0
 18 16  1  0  0  0  0
 18 25  1  0  0  0  0
 20 24  1  0  0  0  0
 20 21  1  6  0  0  0
 20 23  1  0  0  0  0
 21 23  1  0  0  0  0
 22 15  1  6  0  0  0
 22 17  1  0  0  0  0
 24 19  1  1  0  0  0
 25 26  1  0  0  0  0
 25 22  1  0  0  0  0
 26 27  1  0  0  0  0
 27 14  1  1  0  0  0
 27 24  1  0  0  0  0
 28  1  1  0  0  0  0
 29 28  1  0  0  0  0
 30 29  1  0  0  0  0
 31 38  1  0  0  0  0
 31 32  1  0  0  0  0
 32 41  1  0  0  0  0
 33 32  2  0  0  0  0
 33 30  1  0  0  0  0
 34 31  2  0  0  0  0
 35 33  1  0  0  0  0
 36 34  1  0  0  0  0
 36 35  2  0  0  0  0
 37 36  1  0  0  0  0
 38 39  1  0  0  0  0
 40 38  2  0  0  0  0
 42 41  1  0  0  0  0
 42 43  1  0  0  0  0
 44 43  1  0  0  0  0
 45 44  1  0  0  0  0
 46 45  1  0  0  0  0
 47 48  1  0  0  0  0
 47 46  1  0  0  0  0
 48 46  1  0  0  0  0
 49 50  1  0  0  0  0
 51 62  1  1  0  0  0
 52 61  2  0  0  0  0
 52 59  1  0  0  0  0
 53 58  2  0  0  0  0
 54 50  1  6  0  0  0
 54 55  1  0  0  0  0
 55 58  1  1  0  0  0
 55 60  1  0  0  0  0
 56 51  1  0  0  0  0
 57 53  1  0  0  0  0
 58 56  1  0  0  0  0
 59 54  1  0  0  0  0
 60 62  1  1  0  0  0
 60 51  1  0  0  0  0
 61 57  1  0  0  0  0
 63 61  1  0  0  0  0
 64 63  1  0  0  0  0
 66 68  1  0  0  0  0
 67 68  1  0  0  0  0
 68 64  1  0  0  0  0
 68 65  1  0  0  0  0
M  END
>  <MODEL>
7

>  <REMARK>
 VINA RESULT:      -4.6      3.516      8.597
  Name = 
  28 active torsions:
  status: ('A' for Active; 'I' for Inactive)
    1  A    between atoms: C_5  and  C_13
    2  A    between atoms: C_7  and  C_9
    3  A    between atoms: C_7  and  C_12
    4  A    between atoms: C_8  and  C_18
    5  A    between atoms: C_8  and  C_48
    6  A    between atoms: C_8  and  O_62
    7  A    between atoms: C_11  and  C_25
    8  A    between atoms: C_12  and  C_15
    9  A    between atoms: C_14  and  C_64
   10  A    between atoms: C_15  and  C_59
   11  A    between atoms: C_15  and  O_60
   12  A    between atoms: C_18  and  O_26
   13  A    between atoms: C_21  and  C_33
   14  A    between atoms: C_22  and  C_23
   15  A    between atoms: C_22  and  O_30
   16  A    between atoms: C_22  and  C_37
   17  A    between atoms: C_23  and  C_66
   18  A    between atoms: C_25  and  C_36
   19  A    between atoms: O_26  and  C_59
   20  A    between atoms: C_33  and  C_61
   21  A    between atoms: C_36  and  C_50
   22  A    between atoms: C_37  and  C_48
   23  A    between atoms: N_43  and  C_50
   24  A    between atoms: N_43  and  C_64
   25  A    between atoms: C_47  and  O_58
   26  A    between atoms: C_47  and  C_63
   27  A    between atoms: O_58  and  C_68
   28  A    between atoms: O_60  and  C_61
                            x       y       z     vdW  Elec       q    Type
                         _______ _______ _______ _____ _____    ______ ____

>  <TORSDO>
F 28

$$$$
=
 OpenBabel11042417363D

 68 77  0  0  1  0  0  0  0  0999 V2000
  191.2950  171.7120  141.4420 C   0  0  1  0  0  3  0  0  0  0  0  0
  190.9440  170.6000  140.4590 C   0  0  0  0  0  2  0  0  0  0  0  0
  190.8960  171.1140  139.1610 O   0  0  0  0  0  0  0  0  0  0  0  0
  191.8920  170.4230  138.4610 C   0  0  1  0  0  3  0  0  0  0  0  0
  191.9280  168.9830  138.9590 C   0  0  0  0  0  1  0  0  0  0  0  0
  191.5900  170.4600  136.9540 C   0  0  1  0  0  3  0  0  0  0  0  0
  189.9060  171.7100  136.0230 C   0  0  0  0  0  1  0  0  0  0  0  0
  190.2080  170.4970  136.6610 O   0  0  0  0  0  0  0  0  0  0  0  0
  192.3940  171.5250  136.1950 C   0  0  0  0  0  2  0  0  0  0  0  0
  193.2420  170.8890  135.1020 C   0  0  0  0  0  2  0  0  0  0  0  0
  194.7270  171.2340  135.2030 C   0  0  2  0  0  3  0  0  0  0  0  0
  195.5070  170.0820  135.3340 O   0  0  0  0  0  0  0  0  0  0  0  0
  195.3390  169.7000  136.5820 O   0  0  0  0  0  1  0  0  0  0  0  0
  194.9960  172.1940  136.3510 C   0  0  0  0  0  2  0  0  0  0  0  0
  197.0100  175.5810  134.6200 C   0  0  0  0  0  2  0  0  0  0  0  0
  193.8390  177.0420  135.9790 C   0  0  0  0  0  2  0  0  0  0  0  0
  197.3170  175.3720  136.1140 C   0  0  1  0  0  0  0  0  0  0  0  0
  193.9160  176.6440  134.5140 C   0  0  0  0  0  2  0  0  0  0  0  0
  197.8450  173.0480  136.3910 O   0  0  0  0  0  1  0  0  0  0  0  0
  196.7220  175.0140  137.5210 C   0  0  2  0  0  0  0  0  0  0  0  0
  197.1610  174.1580  138.6810 C   0  0  0  0  0  2  0  0  0  0  0  0
  196.2650  176.4040  135.5940 C   0  0  2  0  0  3  0  0  0  0  0  0
  197.8890  175.2570  138.3000 O   0  0  0  0  0  0  0  0  0  0  0  0
  196.8010  173.9860  136.3900 C   0  0  1  0  0  0  0  0  0  0  0  0
  194.7920  175.9550  135.5420 C   0  0  0  0  0  0  0  0  0  0  0  0
  194.3360  174.5660  135.9820 C   0  0  0  0  0  2  0  0  0  0  0  0
  195.4460  173.5320  135.7880 C   0  0  2  0  0  3  0  0  0  0  0  0
  190.5620  171.5670  142.6250 O   0  0  0  0  0  0  0  0  0  0  0  0
  189.6260  172.6020  142.5940 C   0  0  0  0  0  2  0  0  0  0  0  0
  190.2180  173.8660  143.1880 C   0  0  0  0  0  2  0  0  0  0  0  0
  187.7640  176.2870  144.8690 C   0  0  0  0  0  0  0  0  0  0  0  0
  188.7340  175.2610  144.7090 C   0  0  0  0  0  0  0  0  0  0  0  0
  189.1590  174.9020  143.4080 C   0  0  0  0  0  0  0  0  0  0  0  0
  187.2200  176.8900  143.7240 C   0  0  0  0  0  3  0  0  0  0  0  0
  188.5970  175.5230  142.2900 C   0  0  0  0  0  3  0  0  0  0  0  0
  187.6240  176.5080  142.4460 C   0  0  0  0  0  0  0  0  0  0  0  0
  187.0300  177.1660  141.2530 C   0  0  0  0  0  1  0  0  0  0  0  0
  187.2970  176.7790  146.1920 C   0  0  0  0  0  0  0  0  0  0  0  0
  188.1080  177.5680  147.0010 O   0  0  0  0  0  1  0  0  0  0  0  0
  186.1370  176.4950  146.5940 O   0  0  0  0  0  0  0  0  0  0  0  0
  189.2970  174.5220  145.8910 C   0  0  0  0  0  2  0  0  0  0  0  0
  190.7200  174.8040  146.0280 N   0  0  0  0  0  2  0  0  0  0  0  0
  190.8650  175.9490  146.9150 C   0  0  0  0  0  2  0  0  0  0  0  0
  192.2930  176.4690  146.8940 C   0  0  0  0  0  2  0  0  0  0  0  0
  193.1880  175.5070  146.1380 C   0  0  0  0  0  2  0  0  0  0  0  0
  194.6360  175.7710  146.4990 C   0  0  0  0  0  3  0  0  0  0  0  0
  195.2940  176.5360  145.3710 C   0  0  0  0  0  2  0  0  0  0  0  0
  195.5260  175.0460  145.5110 C   0  0  0  0  0  2  0  0  0  0  0  0
  192.7910  171.7150  141.7390 C   0  0  0  0  0  2  0  0  0  0  0  0
  193.0830  171.2580  143.1610 C   0  0  0  0  0  2  0  0  0  0  0  0
  195.8740  170.3020  146.4750 N   0  0  1  0  0  0  0  0  0  0  0  0
  195.4160  172.6470  141.7200 N   0  0  0  0  0  0  0  0  0  0  0  0
  197.6620  171.6100  143.7250 N   0  0  0  0  0  0  0  0  0  0  0  0
  194.5130  170.7540  143.2500 C   0  0  2  0  0  3  0  0  0  0  0  0
  195.2600  171.4770  144.3870 C   0  0  2  0  0  3  0  0  0  0  0  0
  196.9500  170.3300  145.5770 N   0  0  0  0  0  2  0  0  0  0  0  0
  197.5800  172.6040  142.7270 N   0  0  0  0  0  2  0  0  0  0  0  0
  196.6920  171.1180  144.4400 C   0  0  0  0  0  0  0  0  0  0  0  0
  195.3310  170.8870  141.6250 S   0  0  0  0  0  0  0  0  0  0  0  0
  194.7480  170.9640  145.7590 C   0  0  1  0  0  3  0  0  0  0  0  0
  196.4040  173.2830  142.2640 C   0  0  0  0  0  0  0  0  0  0  0  0
  194.7960  169.4970  145.8810 C   0  0  0  0  0  2  0  0  0  0  0  0
  196.4300  174.7680  142.1720 C   0  0  0  0  0  2  0  0  0  0  0  0
  195.1170  175.2670  142.1500 O   0  0  0  0  0  0  0  0  0  0  0  0
  196.2790  176.9740  141.1460 F   0  0  0  0  0  0  0  0  0  0  0  0
  194.7880  175.7780  139.9690 F   0  0  0  0  0  0  0  0  0  0  0  0
  194.0560  177.2190  141.5260 F   0  0  0  0  0  0  0  0  0  0  0  0
  195.0610  176.3140  141.2120 C   0  0  0  0  0  0  0  0  0  0  0  0
  1  2  1  6  0  0  0
  1 49  1  0  0  0  0
  1 28  1  0  0  0  0
  3  2  1  0  0  0  0
  4  5  1  1  0  0  0
  4  3  1  0  0  0  0
  6  9  1  1  0  0  0
  6  4  1  0  0  0  0
  7  8  1  0  0  0  0
  8  6  1  0  0  0  0
 10  9  1  0  0  0  0
 11 10  1  1  0  0  0
 11 12  1  0  0  0  0
 11 14  1  0  0  0  0
 12 13  1  0  0  0  0
 17 15  1  6  0  0  0
 17 24  1  0  0  0  0
 17 20  1  0  0  0  0
 18 25  1  0  0  0  0
 18 16  1  0  0  0  0
 20 23  1  0  0  0  0
 20 21  1  1  0  0  0
 22 15  1  6  0  0  0
 22 17  1  0  0  0  0
 23 21  1  0  0  0  0
 24 19  1  1  0  0  0
 24 20  1  0  0  0  0
 25 22  1  0  0  0  0
 25 16  1  0  0  0  0
 25 26  1  0  0  0  0
 27 26  1  0  0  0  0
 27 14  1  1  0  0  0
 27 24  1  0  0  0  0
 29 28  1  0  0  0  0
 29 30  1  0  0  0  0
 30 33  1  0  0  0  0
 31 38  1  0  0  0  0
 32 31  1  0  0  0  0
 32 41  1  0  0  0  0
 33 32  2  0  0  0  0
 34 31  2  0  0  0  0
 35 36  2  0  0  0  0
 35 33  1  0  0  0  0
 36 34  1  0  0  0  0
 37 36  1  0  0  0  0
 38 40  2  0  0  0  0
 38 39  1  0  0  0  0
 41 42  1  0  0  0  0
 42 43  1  0  0  0  0
 44 43  1  0  0  0  0
 45 46  1  0  0  0  0
 45 44  1  0  0  0  0
 47 48  1  0  0  0  0
 47 46  1  0  0  0  0
 48 46  1  0  0  0  0
 49 50  1  0  0  0  0
 51 62  1  6  0  0  0
 52 61  2  0  0  0  0
 53 58  2  0  0  0  0
 54 50  1  6  0  0  0
 54 55  1  0  0  0  0
 55 58  1  6  0  0  0
 55 60  1  0  0  0  0
 56 51  1  0  0  0  0
 57 53  1  0  0  0  0
 58 56  1  0  0  0  0
 59 52  1  0  0  0  0
 59 54  1  0  0  0  0
 60 62  1  6  0  0  0
 60 51  1  0  0  0  0
 61 57  1  0  0  0  0
 63 61  1  0  0  0  0
 64 63  1  0  0  0  0
 65 68  1  0  0  0  0
 66 68  1  0  0  0  0
 68 67  1  0  0  0  0
 68 64  1  0  0  0  0
M  END
>  <MODEL>
8

>  <REMARK>
 VINA RESULT:      -4.4      3.394      7.438
  Name = 
  28 active torsions:
  status: ('A' for Active; 'I' for Inactive)
    1  A    between atoms: C_5  and  C_13
    2  A    between atoms: C_7  and  C_9
    3  A    between atoms: C_7  and  C_12
    4  A    between atoms: C_8  and  C_18
    5  A    between atoms: C_8  and  C_48
    6  A    between atoms: C_8  and  O_62
    7  A    between atoms: C_11  and  C_25
    8  A    between atoms: C_12  and  C_15
    9  A    between atoms: C_14  and  C_64
   10  A    between atoms: C_15  and  C_59
   11  A    between atoms: C_15  and  O_60
   12  A    between atoms: C_18  and  O_26
   13  A    between atoms: C_21  and  C_33
   14  A    between atoms: C_22  and  C_23
   15  A    between atoms: C_22  and  O_30
   16  A    between atoms: C_22  and  C_37
   17  A    between atoms: C_23  and  C_66
   18  A    between atoms: C_25  and  C_36
   19  A    between atoms: O_26  and  C_59
   20  A    between atoms: C_33  and  C_61
   21  A    between atoms: C_36  and  C_50
   22  A    between atoms: C_37  and  C_48
   23  A    between atoms: N_43  and  C_50
   24  A    between atoms: N_43  and  C_64
   25  A    between atoms: C_47  and  O_58
   26  A    between atoms: C_47  and  C_63
   27  A    between atoms: O_58  and  C_68
   28  A    between atoms: O_60  and  C_61
                            x       y       z     vdW  Elec       q    Type
                         _______ _______ _______ _____ _____    ______ ____

>  <TORSDO>
F 28

$$$$
=
 OpenBabel11042417363D

 68 77  0  0  1  0  0  0  0  0999 V2000
  191.7390  176.6760  142.6980 C   0  0  1  0  0  3  0  0  0  0  0  0
  192.4850  175.5740  141.9550 C   0  0  0  0  0  2  0  0  0  0  0  0
  193.6410  176.0960  141.3690 O   0  0  0  0  0  0  0  0  0  0  0  0
  194.5040  175.0020  141.2340 C   0  0  1  0  0  3  0  0  0  0  0  0
  193.7260  173.7270  141.5360 C   0  0  0  0  0  1  0  0  0  0  0  0
  195.0680  174.9570  139.8040 C   0  0  1  0  0  3  0  0  0  0  0  0
  197.0840  175.3990  140.8070 C   0  0  0  0  0  1  0  0  0  0  0  0
  196.3000  175.6380  139.6680 O   0  0  0  0  0  0  0  0  0  0  0  0
  195.0910  173.5460  139.1990 C   0  0  0  0  0  2  0  0  0  0  0  0
  195.0520  173.6080  137.6780 C   0  0  0  0  0  2  0  0  0  0  0  0
  193.6700  173.3300  137.0910 C   0  0  2  0  0  3  0  0  0  0  0  0
  193.1770  174.4430  136.4040 O   0  0  0  0  0  0  0  0  0  0  0  0
  192.2250  174.9220  137.1760 O   0  0  0  0  0  1  0  0  0  0  0  0
  192.6890  172.8900  138.1670 C   0  0  0  0  0  2  0  0  0  0  0  0
  190.5820  169.1570  137.7950 C   0  0  0  0  0  2  0  0  0  0  0  0
  192.6830  169.2940  134.6970 C   0  0  0  0  0  2  0  0  0  0  0  0
  191.9560  169.0290  138.4780 C   0  0  1  0  0  0  0  0  0  0  0  0
  191.2370  169.7570  134.6450 C   0  0  0  0  0  2  0  0  0  0  0  0
  192.0600  170.7560  140.1420 O   0  0  0  0  0  1  0  0  0  0  0  0
  193.4570  169.4810  138.4610 C   0  0  2  0  0  0  0  0  0  0  0  0
  194.4650  169.8860  139.5060 C   0  0  0  0  0  2  0  0  0  0  0  0
  191.7200  168.7040  136.9680 C   0  0  2  0  0  3  0  0  0  0  0  0
  193.9390  168.6190  139.4860 O   0  0  0  0  0  0  0  0  0  0  0  0
  192.3240  170.4530  138.7960 C   0  0  1  0  0  0  0  0  0  0  0  0
  192.0130  169.8180  135.9450 C   0  0  0  0  0  0  0  0  0  0  0  0
  192.5270  171.1970  136.3500 C   0  0  0  0  0  2  0  0  0  0  0  0
  192.0560  171.5720  137.7570 C   0  0  2  0  0  3  0  0  0  0  0  0
  190.4270  176.2770  142.9760 O   0  0  0  0  0  0  0  0  0  0  0  0
  189.6230  177.2060  142.3110 C   0  0  0  0  0  2  0  0  0  0  0  0
  188.1760  176.7530  142.3230 C   0  0  0  0  0  2  0  0  0  0  0  0
  185.8210  178.2300  144.9650 C   0  0  0  0  0  0  0  0  0  0  0  0
  186.4430  177.9910  143.7090 C   0  0  0  0  0  0  0  0  0  0  0  0
  187.5220  177.0800  143.6300 C   0  0  0  0  0  0  0  0  0  0  0  0
  186.3260  177.5840  146.1050 C   0  0  0  0  0  3  0  0  0  0  0  0
  187.9990  176.4550  144.7840 C   0  0  0  0  0  3  0  0  0  0  0  0
  187.4090  176.7110  146.0200 C   0  0  0  0  0  0  0  0  0  0  0  0
  187.9200  176.0420  147.2440 C   0  0  0  0  0  1  0  0  0  0  0  0
  184.6440  179.1190  145.1440 C   0  0  0  0  0  0  0  0  0  0  0  0
  184.5790  180.3690  144.5380 O   0  0  0  0  0  0  0  0  0  0  0  0
  183.6690  178.7370  145.8470 O   0  0  0  0  0  1  0  0  0  0  0  0
  186.0010  178.7110  142.4660 C   0  0  0  0  0  2  0  0  0  0  0  0
  185.0110  177.9170  141.7510 N   0  0  0  0  0  2  0  0  0  0  0  0
  183.8300  178.7450  141.5560 C   0  0  0  0  0  2  0  0  0  0  0  0
  182.5650  177.9050  141.6350 C   0  0  0  0  0  2  0  0  0  0  0  0
  181.3610  178.7960  141.8750 C   0  0  0  0  0  2  0  0  0  0  0  0
  180.5690  178.9330  140.5910 C   0  0  0  0  0  3  0  0  0  0  0  0
  179.9850  180.3280  140.5180 C   0  0  0  0  0  2  0  0  0  0  0  0
  179.1120  179.1630  140.9380 C   0  0  0  0  0  2  0  0  0  0  0  0
  192.4680  177.0450  143.9870 C   0  0  0  0  0  2  0  0  0  0  0  0
  191.6640  176.6550  145.2180 C   0  0  0  0  0  2  0  0  0  0  0  0
  195.7530  174.9400  145.3800 N   0  0  1  0  0  0  0  0  0  0  0  0
  190.5860  173.8080  144.7890 N   0  0  0  0  0  0  0  0  0  0  0  0
  193.3520  172.3500  145.3970 N   0  0  0  0  0  0  0  0  0  0  0  0
  192.2930  175.4380  145.8730 C   0  0  2  0  0  3  0  0  0  0  0  0
  193.3260  174.8000  144.9240 C   0  0  2  0  0  3  0  0  0  0  0  0
  195.2240  173.7220  145.8300 N   0  0  0  0  0  2  0  0  0  0  0  0
  192.1220  171.9810  144.8120 N   0  0  0  0  0  2  0  0  0  0  0  0
  193.8800  173.5390  145.4560 C   0  0  0  0  0  0  0  0  0  0  0  0
  190.9970  174.2850  146.4380 S   0  0  0  0  0  0  0  0  0  0  0  0
  194.5880  175.6980  144.8440 C   0  0  1  0  0  3  0  0  0  0  0  0
  191.1710  172.8370  144.1640 C   0  0  0  0  0  0  0  0  0  0  0  0
  195.1480  176.0250  146.1660 C   0  0  0  0  0  2  0  0  0  0  0  0
  190.6530  172.4420  142.8250 C   0  0  0  0  0  2  0  0  0  0  0  0
  189.2540  172.5650  142.8000 O   0  0  0  0  0  0  0  0  0  0  0  0
  189.3800  174.1520  141.1450 F   0  0  0  0  0  0  0  0  0  0  0  0
  189.3770  171.9700  140.6180 F   0  0  0  0  0  0  0  0  0  0  0  0
  187.4850  172.9230  141.3610 F   0  0  0  0  0  0  0  0  0  0  0  0
  188.8680  172.9100  141.4920 C   0  0  0  0  0  0  0  0  0  0  0  0
  1  2  1  1  0  0  0
  1 28  1  0  0  0  0
  1 49  1  0  0  0  0
  3  2  1  0  0  0  0
  4  3  1  0  0  0  0
  4  5  1  6  0  0  0
  6  9  1  1  0  0  0
  6  4  1  0  0  0  0
  8  6  1  0  0  0  0
  8  7  1  0  0  0  0
 10  9  1  0  0  0  0
 11 10  1  1  0  0  0
 11 14  1  0  0  0  0
 12 11  1  0  0  0  0
 12 13  1  0  0  0  0
 16 25  1  0  0  0  0
 17 15  1  1  0  0  0
 17 24  1  0  0  0  0
 18 16  1  0  0  0  0
 18 25  1  0  0  0  0
 20 17  1  0  0  0  0
 20 24  1  0  0  0  0
 20 23  1  0  0  0  0
 20 21  1  6  0  0  0
 22 15  1  1  0  0  0
 22 17  1  0  0  0  0
 23 21  1  0  0  0  0
 24 19  1  1  0  0  0
 25 26  1  0  0  0  0
 25 22  1  0  0  0  0
 26 27  1  0  0  0  0
 27 14  1  1  0  0  0
 27 24  1  0  0  0  0
 29 30  1  0  0  0  0
 29 28  1  0  0  0  0
 30 33  1  0  0  0  0
 31 38  1  0  0  0  0
 31 34  1  0  0  0  0
 32 31  2  0  0  0  0
 33 32  1  0  0  0  0
 33 35  2  0  0  0  0
 35 36  1  0  0  0  0
 36 34  2  0  0  0  0
 36 37  1  0  0  0  0
 38 40  1  0  0  0  0
 39 38  2  0  0  0  0
 41 32  1  0  0  0  0
 42 41  1  0  0  0  0
 43 44  1  0  0  0  0
 43 42  1  0  0  0  0
 44 45  1  0  0  0  0
 46 48  1  0  0  0  0
 46 45  1  0  0  0  0
 47 46  1  0  0  0  0
 47 48  1  0  0  0  0
 49 50  1  0  0  0  0
 51 56  1  0  0  0  0
 51 62  1  1  0  0  0
 52 59  1  0  0  0  0
 53 58  2  0  0  0  0
 54 50  1  6  0  0  0
 54 59  1  0  0  0  0
 55 58  1  1  0  0  0
 55 54  1  0  0  0  0
 57 53  1  0  0  0  0
 58 56  1  0  0  0  0
 60 55  1  0  0  0  0
 60 51  1  0  0  0  0
 60 62  1  1  0  0  0
 61 52  2  0  0  0  0
 61 57  1  0  0  0  0
 63 61  1  0  0  0  0
 64 63  1  0  0  0  0
 65 68  1  0  0  0  0
 66 68  1  0  0  0  0
 67 68  1  0  0  0  0
 68 64  1  0  0  0  0
M  END
>  <MODEL>
9

>  <REMARK>
 VINA RESULT:      -4.3      3.620      7.079
  Name = 
  28 active torsions:
  status: ('A' for Active; 'I' for Inactive)
    1  A    between atoms: C_5  and  C_13
    2  A    between atoms: C_7  and  C_9
    3  A    between atoms: C_7  and  C_12
    4  A    between atoms: C_8  and  C_18
    5  A    between atoms: C_8  and  C_48
    6  A    between atoms: C_8  and  O_62
    7  A    between atoms: C_11  and  C_25
    8  A    between atoms: C_12  and  C_15
    9  A    between atoms: C_14  and  C_64
   10  A    between atoms: C_15  and  C_59
   11  A    between atoms: C_15  and  O_60
   12  A    between atoms: C_18  and  O_26
   13  A    between atoms: C_21  and  C_33
   14  A    between atoms: C_22  and  C_23
   15  A    between atoms: C_22  and  O_30
   16  A    between atoms: C_22  and  C_37
   17  A    between atoms: C_23  and  C_66
   18  A    between atoms: C_25  and  C_36
   19  A    between atoms: O_26  and  C_59
   20  A    between atoms: C_33  and  C_61
   21  A    between atoms: C_36  and  C_50
   22  A    between atoms: C_37  and  C_48
   23  A    between atoms: N_43  and  C_50
   24  A    between atoms: N_43  and  C_64
   25  A    between atoms: C_47  and  O_58
   26  A    between atoms: C_47  and  C_63
   27  A    between atoms: O_58  and  C_68
   28  A    between atoms: O_60  and  C_61
                            x       y       z     vdW  Elec       q    Type
                         _______ _______ _______ _____ _____    ______ ____

>  <TORSDO>
F 28

$$$$
