=
 OpenBabel11042415263D

 51 57  0  0  1  0  0  0  0  0999 V2000
  190.2960  172.7060  141.9000 C   0  0  2  0  0  3  0  0  0  0  0  0
  188.9860  174.8740  142.2480 N   0  0  0  0  0  0  0  0  0  0  0  0
  187.7830  177.0820  142.3810 C   0  0  1  0  0  0  0  0  0  0  0  0
  187.5990  176.4770  141.0040 C   0  0  0  0  0  2  0  0  0  0  0  0
  187.6880  175.5650  142.2260 C   0  0  1  0  0  3  0  0  0  0  0  0
  190.1290  176.7930  143.2510 C   0  0  0  0  0  2  0  0  0  0  0  0
  187.9160  172.7970  142.1410 O   0  0  0  0  0  0  0  0  0  0  0  0
  189.1340  177.7570  142.6390 C   0  0  0  0  0  2  0  0  0  0  0  0
  189.0000  173.4440  142.1000 C   0  0  0  0  0  0  0  0  0  0  0  0
  190.2620  175.5900  142.3400 C   0  0  0  0  0  2  0  0  0  0  0  0
  186.5750  177.6950  142.9250 N   0  0  0  0  0  2  0  0  0  0  0  0
  186.8780  178.2690  144.2310 C   0  0  0  0  0  2  0  0  0  0  0  0
  185.0390  177.2220  145.5870 C   0  0  0  0  0  2  0  0  0  0  0  0
  184.5990  178.4440  146.3840 C   0  0  0  0  0  2  0  0  0  0  0  0
  186.5530  177.2700  145.3350 C   0  0  2  0  0  3  0  0  0  0  0  0
  187.3410  177.6200  146.5770 C   0  0  0  0  0  0  0  0  0  0  0  0
  185.2710  178.4120  147.7500 C   0  0  0  0  0  2  0  0  0  0  0  0
  186.7560  178.1980  147.6390 C   0  0  0  0  0  3  0  0  0  0  0  0
  188.7580  177.4000  146.5600 N   0  0  0  0  0  2  0  0  0  0  0  0
  189.3790  176.0850  146.6560 C   0  0  2  0  0  3  0  0  0  0  0  0
  188.5080  175.1860  147.2740 O   0  0  0  0  0  1  0  0  0  0  0  0
  190.6950  176.1710  147.4220 C   0  0  0  0  0  2  0  0  0  0  0  0
  191.8960  175.7270  146.5880 C   0  0  0  0  0  2  0  0  0  0  0  0
  193.1760  176.4200  147.0330 C   0  0  0  0  0  2  0  0  0  0  0  0
  193.1420  177.0260  144.7170 O   0  0  0  0  0  1  0  0  0  0  0  0
  193.9710  176.9220  145.8370 C   0  0  0  0  0  2  0  0  0  0  0  0
  190.4770  170.9280  140.1100 C   0  0  0  0  0  3  0  0  0  0  0  0
  190.6580  170.5600  138.7760 C   0  0  0  0  0  3  0  0  0  0  0  0
  190.8840  172.8960  138.1600 C   0  0  0  0  0  0  0  0  0  0  0  0
  190.8630  171.5370  137.7930 C   0  0  0  0  0  0  0  0  0  0  0  0
  190.4930  172.2800  140.4760 C   0  0  0  0  0  0  0  0  0  0  0  0
  191.1350  174.1670  136.9730 Cl  0  0  0  0  0  0  0  0  0  0  0  0
  190.7000  173.2570  139.4980 C   0  0  0  0  0  3  0  0  0  0  0  0
  189.7730  171.1260  135.6720 N   0  0  0  0  0  1  0  0  0  0  0  0
  191.0490  171.1300  136.3640 C   0  0  2  0  0  3  0  0  0  0  0  0
  192.9120  170.0910  136.1110 O   0  0  0  0  0  1  0  0  0  0  0  0
  191.6280  169.8600  136.2920 O   0  0  0  0  0  0  0  0  0  0  0  0
  190.4360  171.5340  142.8590 C   0  0  0  0  0  2  0  0  0  0  0  0
  191.6220  171.7530  143.7840 C   0  0  0  0  0  2  0  0  0  0  0  0
  192.9210  171.4290  143.0670 C   0  0  0  0  0  2  0  0  0  0  0  0
  193.7540  172.9330  144.8240 N   0  0  0  0  0  2  0  0  0  0  0  0
  195.3940  174.8850  141.9160 C   0  0  2  0  0  3  0  0  0  0  0  0
  196.5830  175.3350  144.0090 O   0  0  0  0  0  0  0  0  0  0  0  0
  196.3100  173.9090  145.7960 O   0  0  0  0  0  0  0  0  0  0  0  0
  196.0210  175.9380  142.8420 C   0  0  0  0  0  2  0  0  0  0  0  0
  195.8810  174.3460  144.6950 C   0  0  0  0  0  0  0  0  0  0  0  0
  195.0520  172.7230  143.0970 N   0  0  1  0  0  0  0  0  0  0  0  0
  194.1330  171.8960  143.8780 C   0  0  2  0  0  3  0  0  0  0  0  0
  194.3790  173.9540  142.6250 C   0  0  1  0  0  3  0  0  0  0  0  0
  194.6580  173.7720  144.0540 C   0  0  1  0  0  0  0  0  0  0  0  0
  196.3920  174.1560  141.2660 O   0  0  0  0  0  1  0  0  0  0  0  0
  1  9  1  0  0  0  0
  1 38  1  1  0  0  0
  2 10  1  0  0  0  0
  3  8  1  0  0  0  0
  3 11  1  1  0  0  0
  4  3  1  0  0  0  0
  5  4  1  6  0  0  0
  5  2  1  0  0  0  0
  5  3  1  0  0  0  0
  8  6  1  0  0  0  0
  9  7  2  0  0  0  0
  9  2  1  0  0  0  0
 10  6  1  0  0  0  0
 11 12  1  0  0  0  0
 13 14  1  0  0  0  0
 14 17  1  0  0  0  0
 15 12  1  6  0  0  0
 15 13  1  0  0  0  0
 15 16  1  0  0  0  0
 16 18  2  0  0  0  0
 18 17  1  0  0  0  0
 19 16  1  0  0  0  0
 19 20  1  0  0  0  0
 20 21  1  1  0  0  0
 20 22  1  0  0  0  0
 23 24  1  0  0  0  0
 23 22  1  0  0  0  0
 25 26  1  0  0  0  0
 26 24  1  0  0  0  0
 27 31  1  0  0  0  0
 28 27  2  0  0  0  0
 29 33  1  0  0  0  0
 30 29  2  0  0  0  0
 30 28  1  0  0  0  0
 31  1  1  0  0  0  0
 32 29  1  0  0  0  0
 33 31  2  0  0  0  0
 35 34  1  6  0  0  0
 35 30  1  0  0  0  0
 36 37  1  0  0  0  0
 37 35  1  0  0  0  0
 38 39  1  0  0  0  0
 40 39  1  0  0  0  0
 40 48  1  0  0  0  0
 42 51  1  1  0  0  0
 42 49  1  0  0  0  0
 42 45  1  0  0  0  0
 43 46  1  0  0  0  0
 45 43  1  0  0  0  0
 46 44  2  0  0  0  0
 47 48  1  0  0  0  0
 47 50  1  0  0  0  0
 48 41  1  0  0  0  0
 49 47  1  0  0  0  0
 49 50  1  0  0  0  0
 50 46  1  0  0  0  0
 50 41  1  0  0  0  0
M  END
>  <MODEL>
1

>  <REMARK>
 VINA RESULT:      -6.8      0.000      0.000
  Name = 
  17 active torsions:
  status: ('A' for Active; 'I' for Inactive)
    1  A    between atoms: C_4  and  C_25
    2  A    between atoms: C_4  and  N_33
    3  A    between atoms: C_6  and  C_11
    4  A    between atoms: C_7  and  C_27
    5  A    between atoms: C_7  and  O_45
    6  A    between atoms: C_8  and  C_41
    7  A    between atoms: C_8  and  C_42
    8  A    between atoms: C_10  and  C_12
    9  A    between atoms: C_10  and  C_30
   10  A    between atoms: C_11  and  C_30
   11  A    between atoms: C_12  and  N_37
   12  A    between atoms: C_17  and  C_38
   13  A    between atoms: C_17  and  C_41
   14  A    between atoms: C_22  and  N_33
   15  A    between atoms: C_32  and  C_42
   16  A    between atoms: C_36  and  N_37
   17  A    between atoms: C_42  and  C_44
                            x       y       z     vdW  Elec       q    Type
                         _______ _______ _______ _____ _____    ______ ____

>  <TORSDO>
F 17

$$$$
=
 OpenBabel11042415263D

 51 57  0  0  1  0  0  0  0  0999 V2000
  194.2140  174.8290  144.8830 C   0  0  2  0  0  3  0  0  0  0  0  0
  191.9090  175.9110  145.1150 N   0  0  0  0  0  0  0  0  0  0  0  0
  189.5710  176.8460  145.1550 C   0  0  1  0  0  0  0  0  0  0  0  0
  189.5220  175.3400  145.0020 C   0  0  0  0  0  2  0  0  0  0  0  0
  190.6290  175.9780  145.8360 C   0  0  1  0  0  3  0  0  0  0  0  0
  191.3970  177.8920  143.7700 C   0  0  0  0  0  2  0  0  0  0  0  0
  192.8480  174.6420  146.8400 O   0  0  0  0  0  0  0  0  0  0  0  0
  189.9080  177.6360  143.8870 C   0  0  0  0  0  2  0  0  0  0  0  0
  192.9650  175.1110  145.6730 C   0  0  0  0  0  0  0  0  0  0  0  0
  192.1220  176.5630  143.8190 C   0  0  0  0  0  2  0  0  0  0  0  0
  188.5690  177.3820  146.0720 N   0  0  0  0  0  2  0  0  0  0  0  0
  187.2740  177.4020  145.4040 C   0  0  0  0  0  2  0  0  0  0  0  0
  185.9670  178.9240  146.9180 C   0  0  0  0  0  2  0  0  0  0  0  0
  184.6500  178.1600  146.9540 C   0  0  0  0  0  2  0  0  0  0  0  0
  186.6300  178.7770  145.5410 C   0  0  2  0  0  3  0  0  0  0  0  0
  185.6620  178.9930  144.4000 C   0  0  0  0  0  0  0  0  0  0  0  0
  183.6940  178.7750  145.9400 C   0  0  0  0  0  2  0  0  0  0  0  0
  184.3320  178.9240  144.5860 C   0  0  0  0  0  3  0  0  0  0  0  0
  186.2000  179.1880  143.0860 N   0  0  0  0  0  2  0  0  0  0  0  0
  186.0240  178.2480  141.9860 C   0  0  2  0  0  3  0  0  0  0  0  0
  185.3170  177.1260  142.4210 O   0  0  0  0  0  1  0  0  0  0  0  0
  187.3770  177.8420  141.4100 C   0  0  0  0  0  2  0  0  0  0  0  0
  187.3380  176.4860  140.7080 C   0  0  0  0  0  2  0  0  0  0  0  0
  188.2860  175.4890  141.3590 C   0  0  0  0  0  2  0  0  0  0  0  0
  188.7320  173.1510  141.1060 O   0  0  0  0  0  1  0  0  0  0  0  0
  188.6290  174.3550  140.4050 C   0  0  0  0  0  2  0  0  0  0  0  0
  196.0250  173.2990  145.7650 C   0  0  0  0  0  3  0  0  0  0  0  0
  196.5160  172.0180  146.0220 C   0  0  0  0  0  3  0  0  0  0  0  0
  194.5020  171.0540  145.0740 C   0  0  0  0  0  0  0  0  0  0  0  0
  195.7610  170.8880  145.6800 C   0  0  0  0  0  0  0  0  0  0  0  0
  194.7690  173.4660  145.1660 C   0  0  0  0  0  0  0  0  0  0  0  0
  193.5080  169.6760  144.6230 Cl  0  0  0  0  0  0  0  0  0  0  0  0
  194.0160  172.3400  144.8220 C   0  0  0  0  0  3  0  0  0  0  0  0
  196.5100  169.3530  147.3940 N   0  0  0  0  0  1  0  0  0  0  0  0
  196.2960  169.5190  145.9670 C   0  0  2  0  0  3  0  0  0  0  0  0
  197.1410  169.1870  144.0210 O   0  0  0  0  0  1  0  0  0  0  0  0
  197.4960  169.3130  145.2830 O   0  0  0  0  0  0  0  0  0  0  0  0
  195.2650  175.9110  145.0740 C   0  0  0  0  0  2  0  0  0  0  0  0
  196.2250  175.9210  143.8970 C   0  0  0  0  0  2  0  0  0  0  0  0
  195.4850  176.2460  142.6110 C   0  0  0  0  0  2  0  0  0  0  0  0
  195.6190  175.7510  140.2070 N   0  0  0  0  0  2  0  0  0  0  0  0
  192.2670  173.8970  140.7380 C   0  0  2  0  0  3  0  0  0  0  0  0
  193.4120  173.0180  138.7590 O   0  0  0  0  0  0  0  0  0  0  0  0
  195.6640  173.4150  138.4830 O   0  0  0  0  0  0  0  0  0  0  0  0
  192.1550  173.4690  139.2670 C   0  0  0  0  0  2  0  0  0  0  0  0
  194.5770  173.7300  139.0390 C   0  0  0  0  0  0  0  0  0  0  0  0
  194.6390  174.2320  141.4090 N   0  0  1  0  0  0  0  0  0  0  0  0
  195.7430  175.1820  141.5390 C   0  0  2  0  0  3  0  0  0  0  0  0
  193.3950  174.9250  141.0050 C   0  0  1  0  0  3  0  0  0  0  0  0
  194.5140  174.8180  140.0620 C   0  0  1  0  0  0  0  0  0  0  0  0
  192.3910  172.7750  141.5610 O   0  0  0  0  0  1  0  0  0  0  0  0
  1 38  1  1  0  0  0
  1 31  1  0  0  0  0
  1  9  1  0  0  0  0
  2  9  1  0  0  0  0
  2  5  1  0  0  0  0
  3  5  1  0  0  0  0
  3 11  1  1  0  0  0
  4  3  1  0  0  0  0
  5  4  1  6  0  0  0
  6 10  1  0  0  0  0
  6  8  1  0  0  0  0
  8  3  1  0  0  0  0
  9  7  2  0  0  0  0
 10  2  1  0  0  0  0
 12 11  1  0  0  0  0
 13 14  1  0  0  0  0
 15 12  1  6  0  0  0
 15 13  1  0  0  0  0
 16 18  2  0  0  0  0
 16 15  1  0  0  0  0
 17 14  1  0  0  0  0
 18 17  1  0  0  0  0
 19 16  1  0  0  0  0
 20 21  1  1  0  0  0
 20 19  1  0  0  0  0
 22 20  1  0  0  0  0
 23 24  1  0  0  0  0
 23 22  1  0  0  0  0
 26 25  1  0  0  0  0
 26 24  1  0  0  0  0
 27 28  1  0  0  0  0
 29 30  1  0  0  0  0
 30 35  1  0  0  0  0
 30 28  2  0  0  0  0
 31 27  2  0  0  0  0
 32 29  1  0  0  0  0
 33 29  2  0  0  0  0
 33 31  1  0  0  0  0
 35 34  1  1  0  0  0
 36 37  1  0  0  0  0
 37 35  1  0  0  0  0
 39 38  1  0  0  0  0
 40 39  1  0  0  0  0
 41 48  1  0  0  0  0
 42 49  1  0  0  0  0
 42 51  1  1  0  0  0
 43 46  1  0  0  0  0
 43 45  1  0  0  0  0
 44 46  2  0  0  0  0
 45 42  1  0  0  0  0
 46 50  1  0  0  0  0
 47 48  1  0  0  0  0
 48 40  1  0  0  0  0
 49 47  1  0  0  0  0
 50 41  1  0  0  0  0
 50 49  1  0  0  0  0
 50 47  1  0  0  0  0
M  END
>  <MODEL>
2

>  <REMARK>
 VINA RESULT:      -6.7      2.924      6.247
  Name = 
  17 active torsions:
  status: ('A' for Active; 'I' for Inactive)
    1  A    between atoms: C_4  and  C_25
    2  A    between atoms: C_4  and  N_33
    3  A    between atoms: C_6  and  C_11
    4  A    between atoms: C_7  and  C_27
    5  A    between atoms: C_7  and  O_45
    6  A    between atoms: C_8  and  C_41
    7  A    between atoms: C_8  and  C_42
    8  A    between atoms: C_10  and  C_12
    9  A    between atoms: C_10  and  C_30
   10  A    between atoms: C_11  and  C_30
   11  A    between atoms: C_12  and  N_37
   12  A    between atoms: C_17  and  C_38
   13  A    between atoms: C_17  and  C_41
   14  A    between atoms: C_22  and  N_33
   15  A    between atoms: C_32  and  C_42
   16  A    between atoms: C_36  and  N_37
   17  A    between atoms: C_42  and  C_44
                            x       y       z     vdW  Elec       q    Type
                         _______ _______ _______ _____ _____    ______ ____

>  <TORSDO>
F 17

$$$$
=
 OpenBabel11042415263D

 51 57  0  0  1  0  0  0  0  0999 V2000
  191.8370  171.7890  142.1550 C   0  0  2  0  0  3  0  0  0  0  0  0
  190.5580  173.8970  142.8290 N   0  0  0  0  0  0  0  0  0  0  0  0
  189.2820  176.0250  143.2590 C   0  0  1  0  0  0  0  0  0  0  0  0
  188.6110  175.2360  142.1530 C   0  0  0  0  0  2  0  0  0  0  0  0
  189.3010  174.4980  143.2980 C   0  0  1  0  0  3  0  0  0  0  0  0
  191.7940  175.9980  143.0700 C   0  0  0  0  0  2  0  0  0  0  0  0
  189.7800  171.7620  143.3780 O   0  0  0  0  0  0  0  0  0  0  0  0
  190.5330  176.8100  142.8550 C   0  0  0  0  0  2  0  0  0  0  0  0
  190.6690  172.4650  142.8200 C   0  0  0  0  0  0  0  0  0  0  0  0
  191.6690  174.6980  142.3020 C   0  0  0  0  0  2  0  0  0  0  0  0
  188.3490  176.6270  144.2080 N   0  0  0  0  0  2  0  0  0  0  0  0
  189.0090  177.7380  144.8840 C   0  0  0  0  0  2  0  0  0  0  0  0
  190.4170  177.2420  146.9060 C   0  0  0  0  0  2  0  0  0  0  0  0
  190.8280  175.8140  146.5730 C   0  0  0  0  0  2  0  0  0  0  0  0
  188.9970  177.5200  146.3930 C   0  0  2  0  0  3  0  0  0  0  0  0
  188.0260  176.4130  146.7330 C   0  0  0  0  0  0  0  0  0  0  0  0
  189.9030  174.8500  147.3030 C   0  0  0  0  0  2  0  0  0  0  0  0
  188.4530  175.1880  147.0820 C   0  0  0  0  0  3  0  0  0  0  0  0
  186.6240  176.6780  146.5900 N   0  0  0  0  0  2  0  0  0  0  0  0
  185.9900  177.9350  146.9680 C   0  0  2  0  0  3  0  0  0  0  0  0
  186.0850  178.1260  148.3470 O   0  0  0  0  0  1  0  0  0  0  0  0
  184.5310  177.9510  146.5220 C   0  0  0  0  0  2  0  0  0  0  0  0
  184.3640  178.3520  145.0570 C   0  0  0  0  0  2  0  0  0  0  0  0
  185.3410  179.4490  144.6590 C   0  0  0  0  0  2  0  0  0  0  0  0
  184.9020  178.7360  142.4170 O   0  0  0  0  0  1  0  0  0  0  0  0
  185.9060  179.2010  143.2690 C   0  0  0  0  0  2  0  0  0  0  0  0
  192.4840  170.7800  139.9270 C   0  0  0  0  0  3  0  0  0  0  0  0
  192.2370  170.5710  138.5700 C   0  0  0  0  0  3  0  0  0  0  0  0
  190.2210  171.9130  138.7280 C   0  0  0  0  0  0  0  0  0  0  0  0
  191.1070  171.1340  137.9610 C   0  0  0  0  0  0  0  0  0  0  0  0
  191.6000  171.5510  140.6950 C   0  0  0  0  0  0  0  0  0  0  0  0
  188.7880  172.6430  138.0220 Cl  0  0  0  0  0  0  0  0  0  0  0  0
  190.4750  172.1160  140.0880 C   0  0  0  0  0  3  0  0  0  0  0  0
  191.1740  169.5250  136.1540 N   0  0  0  0  0  1  0  0  0  0  0  0
  190.8490  170.8960  136.5050 C   0  0  2  0  0  3  0  0  0  0  0  0
  191.8860  171.0940  134.6340 O   0  0  0  0  0  1  0  0  0  0  0  0
  191.6080  171.7740  135.7270 O   0  0  0  0  0  0  0  0  0  0  0  0
  192.2370  170.5080  142.8720 C   0  0  0  0  0  2  0  0  0  0  0  0
  192.8010  170.8320  144.2460 C   0  0  0  0  0  2  0  0  0  0  0  0
  194.2830  171.1470  144.1500 C   0  0  0  0  0  2  0  0  0  0  0  0
  193.5830  173.3060  145.0920 N   0  0  0  0  0  2  0  0  0  0  0  0
  196.1330  174.8360  142.6190 C   0  0  2  0  0  3  0  0  0  0  0  0
  195.7470  176.3710  144.4890 O   0  0  0  0  0  0  0  0  0  0  0  0
  194.8050  175.5740  146.4330 O   0  0  0  0  0  0  0  0  0  0  0  0
  195.8550  176.2790  143.0670 C   0  0  0  0  0  2  0  0  0  0  0  0
  195.0160  175.4220  145.1990 C   0  0  0  0  0  0  0  0  0  0  0  0
  195.6510  173.2100  144.4390 N   0  0  1  0  0  0  0  0  0  0  0  0
  194.6580  172.3280  145.0500 C   0  0  2  0  0  3  0  0  0  0  0  0
  195.1300  173.8010  143.1860 C   0  0  1  0  0  3  0  0  0  0  0  0
  194.5560  174.1950  144.4770 C   0  0  1  0  0  0  0  0  0  0  0  0
  197.4530  174.4850  142.9120 O   0  0  0  0  0  1  0  0  0  0  0  0
  1  9  1  0  0  0  0
  1 38  1  1  0  0  0
  2  5  1  0  0  0  0
  3  5  1  0  0  0  0
  3 11  1  1  0  0  0
  4  3  1  0  0  0  0
  5  4  1  6  0  0  0
  8  6  1  0  0  0  0
  8  3  1  0  0  0  0
  9  2  1  0  0  0  0
  9  7  2  0  0  0  0
 10  2  1  0  0  0  0
 10  6  1  0  0  0  0
 11 12  1  0  0  0  0
 14 13  1  0  0  0  0
 14 17  1  0  0  0  0
 15 12  1  6  0  0  0
 15 16  1  0  0  0  0
 15 13  1  0  0  0  0
 16 18  2  0  0  0  0
 18 17  1  0  0  0  0
 19 16  1  0  0  0  0
 19 20  1  0  0  0  0
 20 21  1  1  0  0  0
 22 20  1  0  0  0  0
 23 22  1  0  0  0  0
 24 23  1  0  0  0  0
 25 26  1  0  0  0  0
 26 24  1  0  0  0  0
 27 31  1  0  0  0  0
 28 27  2  0  0  0  0
 29 33  1  0  0  0  0
 30 28  1  0  0  0  0
 30 29  2  0  0  0  0
 31  1  1  0  0  0  0
 32 29  1  0  0  0  0
 33 31  2  0  0  0  0
 35 34  1  6  0  0  0
 35 30  1  0  0  0  0
 36 37  1  0  0  0  0
 37 35  1  0  0  0  0
 38 39  1  0  0  0  0
 40 39  1  0  0  0  0
 40 48  1  0  0  0  0
 42 51  1  1  0  0  0
 42 45  1  0  0  0  0
 42 49  1  0  0  0  0
 43 46  1  0  0  0  0
 45 43  1  0  0  0  0
 46 44  2  0  0  0  0
 47 50  1  0  0  0  0
 47 48  1  0  0  0  0
 48 41  1  0  0  0  0
 49 47  1  0  0  0  0
 49 50  1  0  0  0  0
 50 41  1  0  0  0  0
 50 46  1  0  0  0  0
M  END
>  <MODEL>
3

>  <REMARK>
 VINA RESULT:      -6.5      1.856      3.487
  Name = 
  17 active torsions:
  status: ('A' for Active; 'I' for Inactive)
    1  A    between atoms: C_4  and  C_25
    2  A    between atoms: C_4  and  N_33
    3  A    between atoms: C_6  and  C_11
    4  A    between atoms: C_7  and  C_27
    5  A    between atoms: C_7  and  O_45
    6  A    between atoms: C_8  and  C_41
    7  A    between atoms: C_8  and  C_42
    8  A    between atoms: C_10  and  C_12
    9  A    between atoms: C_10  and  C_30
   10  A    between atoms: C_11  and  C_30
   11  A    between atoms: C_12  and  N_37
   12  A    between atoms: C_17  and  C_38
   13  A    between atoms: C_17  and  C_41
   14  A    between atoms: C_22  and  N_33
   15  A    between atoms: C_32  and  C_42
   16  A    between atoms: C_36  and  N_37
   17  A    between atoms: C_42  and  C_44
                            x       y       z     vdW  Elec       q    Type
                         _______ _______ _______ _____ _____    ______ ____

>  <TORSDO>
F 17

$$$$
=
 OpenBabel11042415263D

 51 57  0  0  1  0  0  0  0  0999 V2000
  193.4840  173.7180  143.0140 C   0  0  2  0  0  3  0  0  0  0  0  0
  191.8510  174.6890  144.7250 N   0  0  0  0  0  0  0  0  0  0  0  0
  190.3410  175.4990  146.5700 C   0  0  1  0  0  0  0  0  0  0  0  0
  191.7720  175.4380  147.0640 C   0  0  0  0  0  2  0  0  0  0  0  0
  191.4890  175.8060  145.6100 C   0  0  1  0  0  3  0  0  0  0  0  0
  189.7380  173.5210  145.1320 C   0  0  0  0  0  2  0  0  0  0  0  0
  193.4090  176.0330  143.6140 O   0  0  0  0  0  0  0  0  0  0  0  0
  189.6020  174.1590  146.4990 C   0  0  0  0  0  2  0  0  0  0  0  0
  192.9260  174.8800  143.7900 C   0  0  0  0  0  0  0  0  0  0  0  0
  191.2110  173.3720  144.8110 C   0  0  0  0  0  2  0  0  0  0  0  0
  189.6100  176.6820  147.0130 N   0  0  0  0  0  2  0  0  0  0  0  0
  188.1880  176.4860  146.7630 C   0  0  0  0  0  2  0  0  0  0  0  0
  186.1980  177.9910  147.0690 C   0  0  0  0  0  2  0  0  0  0  0  0
  185.1270  177.1100  146.4390 C   0  0  0  0  0  2  0  0  0  0  0  0
  187.5380  177.7990  146.3440 C   0  0  2  0  0  3  0  0  0  0  0  0
  187.3980  177.8330  144.8390 C   0  0  0  0  0  0  0  0  0  0  0  0
  184.9100  177.5500  144.9970 C   0  0  0  0  0  2  0  0  0  0  0  0
  186.2080  177.6520  144.2410 C   0  0  0  0  0  3  0  0  0  0  0  0
  188.5880  177.9740  144.0540 N   0  0  0  0  0  2  0  0  0  0  0  0
  189.0160  177.0150  143.0420 C   0  0  2  0  0  3  0  0  0  0  0  0
  190.3790  177.1680  142.7800 O   0  0  0  0  0  1  0  0  0  0  0  0
  188.2000  177.1870  141.7650 C   0  0  0  0  0  2  0  0  0  0  0  0
  187.7090  175.8580  141.1930 C   0  0  0  0  0  2  0  0  0  0  0  0
  187.8090  174.7350  142.2150 C   0  0  0  0  0  2  0  0  0  0  0  0
  188.7150  172.5200  142.1370 O   0  0  0  0  0  1  0  0  0  0  0  0
  187.7850  173.3730  141.5370 C   0  0  0  0  0  2  0  0  0  0  0  0
  194.2540  171.4350  143.7850 C   0  0  0  0  0  3  0  0  0  0  0  0
  195.0750  170.6340  144.5800 C   0  0  0  0  0  3  0  0  0  0  0  0
  196.0850  172.6180  145.5430 C   0  0  0  0  0  0  0  0  0  0  0  0
  195.9930  171.2160  145.4640 C   0  0  0  0  0  0  0  0  0  0  0  0
  194.3470  172.8320  143.8590 C   0  0  0  0  0  0  0  0  0  0  0  0
  197.2180  173.4080  146.6290 Cl  0  0  0  0  0  0  0  0  0  0  0  0
  195.2610  173.4140  144.7420 C   0  0  0  0  0  3  0  0  0  0  0  0
  197.8590  169.6750  145.4780 N   0  0  0  0  0  1  0  0  0  0  0  0
  196.8730  170.3450  146.3070 C   0  0  2  0  0  3  0  0  0  0  0  0
  196.9430  168.8510  147.8480 O   0  0  0  0  0  1  0  0  0  0  0  0
  196.1070  169.3960  146.9880 O   0  0  0  0  0  0  0  0  0  0  0  0
  194.2090  174.1700  141.7560 C   0  0  0  0  0  2  0  0  0  0  0  0
  193.6210  173.4790  140.5360 C   0  0  0  0  0  2  0  0  0  0  0  0
  192.1700  173.8830  140.3460 C   0  0  0  0  0  2  0  0  0  0  0  0
  192.0890  171.9040  138.8900 N   0  0  0  0  0  2  0  0  0  0  0  0
  189.7980  174.0620  136.6420 C   0  0  2  0  0  3  0  0  0  0  0  0
  189.3880  171.6840  136.2260 O   0  0  0  0  0  0  0  0  0  0  0  0
  190.0820  170.1270  137.7740 O   0  0  0  0  0  0  0  0  0  0  0  0
  189.6020  172.9500  135.6010 C   0  0  0  0  0  2  0  0  0  0  0  0
  190.1750  171.2940  137.3070 C   0  0  0  0  0  0  0  0  0  0  0  0
  190.2930  173.1240  138.8920 N   0  0  1  0  0  0  0  0  0  0  0  0
  191.3300  172.7080  139.8350 C   0  0  2  0  0  3  0  0  0  0  0  0
  190.8930  173.7500  137.6920 C   0  0  1  0  0  3  0  0  0  0  0  0
  191.0700  172.3140  137.9370 C   0  0  1  0  0  0  0  0  0  0  0  0
  188.5800  174.3760  137.2500 O   0  0  0  0  0  1  0  0  0  0  0  0
  1 38  1  6  0  0  0
  1  9  1  0  0  0  0
  1 31  1  0  0  0  0
  2 10  1  0  0  0  0
  2  5  1  0  0  0  0
  3 11  1  1  0  0  0
  3  4  1  0  0  0  0
  5  3  1  0  0  0  0
  5  4  1  1  0  0  0
  6  8  1  0  0  0  0
  7  9  2  0  0  0  0
  8  3  1  0  0  0  0
  9  2  1  0  0  0  0
 10  6  1  0  0  0  0
 12 11  1  0  0  0  0
 14 13  1  0  0  0  0
 15 12  1  6  0  0  0
 15 13  1  0  0  0  0
 16 15  1  0  0  0  0
 17 14  1  0  0  0  0
 18 16  2  0  0  0  0
 18 17  1  0  0  0  0
 19 16  1  0  0  0  0
 20 21  1  6  0  0  0
 20 19  1  0  0  0  0
 22 20  1  0  0  0  0
 23 22  1  0  0  0  0
 23 24  1  0  0  0  0
 26 25  1  0  0  0  0
 26 24  1  0  0  0  0
 27 31  2  0  0  0  0
 27 28  1  0  0  0  0
 28 30  2  0  0  0  0
 29 32  1  0  0  0  0
 30 29  1  0  0  0  0
 30 35  1  0  0  0  0
 31 33  1  0  0  0  0
 33 29  2  0  0  0  0
 35 34  1  6  0  0  0
 35 37  1  0  0  0  0
 37 36  1  0  0  0  0
 39 38  1  0  0  0  0
 40 39  1  0  0  0  0
 41 48  1  0  0  0  0
 42 51  1  1  0  0  0
 42 49  1  0  0  0  0
 43 46  1  0  0  0  0
 45 43  1  0  0  0  0
 45 42  1  0  0  0  0
 46 44  2  0  0  0  0
 46 50  1  0  0  0  0
 47 48  1  0  0  0  0
 48 40  1  0  0  0  0
 49 50  1  0  0  0  0
 49 47  1  0  0  0  0
 50 41  1  0  0  0  0
 50 47  1  0  0  0  0
M  END
>  <MODEL>
4

>  <REMARK>
 VINA RESULT:      -6.4      2.773      6.994
  Name = 
  17 active torsions:
  status: ('A' for Active; 'I' for Inactive)
    1  A    between atoms: C_4  and  C_25
    2  A    between atoms: C_4  and  N_33
    3  A    between atoms: C_6  and  C_11
    4  A    between atoms: C_7  and  C_27
    5  A    between atoms: C_7  and  O_45
    6  A    between atoms: C_8  and  C_41
    7  A    between atoms: C_8  and  C_42
    8  A    between atoms: C_10  and  C_12
    9  A    between atoms: C_10  and  C_30
   10  A    between atoms: C_11  and  C_30
   11  A    between atoms: C_12  and  N_37
   12  A    between atoms: C_17  and  C_38
   13  A    between atoms: C_17  and  C_41
   14  A    between atoms: C_22  and  N_33
   15  A    between atoms: C_32  and  C_42
   16  A    between atoms: C_36  and  N_37
   17  A    between atoms: C_42  and  C_44
                            x       y       z     vdW  Elec       q    Type
                         _______ _______ _______ _____ _____    ______ ____

>  <TORSDO>
F 17

$$$$
=
 OpenBabel11042415263D

 51 57  0  0  1  0  0  0  0  0999 V2000
  190.4210  175.7580  145.4560 C   0  0  2  0  0  3  0  0  0  0  0  0
  190.4320  174.3230  143.3410 N   0  0  0  0  0  0  0  0  0  0  0  0
  190.2080  172.9450  141.2450 C   0  0  1  0  0  0  0  0  0  0  0  0
  189.4430  174.2440  141.0920 C   0  0  0  0  0  2  0  0  0  0  0  0
  190.7350  174.2180  141.9050 C   0  0  1  0  0  3  0  0  0  0  0  0
  189.9350  171.9330  143.5350 C   0  0  0  0  0  2  0  0  0  0  0  0
  191.6700  176.3010  143.4880 O   0  0  0  0  0  0  0  0  0  0  0  0
  189.5220  171.8590  142.0800 C   0  0  0  0  0  2  0  0  0  0  0  0
  190.8800  175.4900  144.0490 C   0  0  0  0  0  0  0  0  0  0  0  0
  189.6310  173.3230  144.0550 C   0  0  0  0  0  2  0  0  0  0  0  0
  190.9500  172.5500  140.0510 N   0  0  0  0  0  2  0  0  0  0  0  0
  190.0610  172.6070  138.8970 C   0  0  0  0  0  2  0  0  0  0  0  0
  191.0300  173.8920  136.9660 C   0  0  0  0  0  2  0  0  0  0  0  0
  189.7370  174.3160  136.2820 C   0  0  0  0  0  2  0  0  0  0  0  0
  190.8640  172.5060  137.6050 C   0  0  2  0  0  3  0  0  0  0  0  0
  190.2020  171.5120  136.6790 C   0  0  0  0  0  0  0  0  0  0  0  0
  189.4370  173.3450  135.1470 C   0  0  0  0  0  2  0  0  0  0  0  0
  189.5030  171.9120  135.6040 C   0  0  0  0  0  3  0  0  0  0  0  0
  190.2640  170.1220  137.0260 N   0  0  0  0  0  2  0  0  0  0  0  0
  191.4980  169.3470  137.0670 C   0  0  2  0  0  3  0  0  0  0  0  0
  191.3530  168.1730  136.3250 O   0  0  0  0  0  1  0  0  0  0  0  0
  191.8800  169.0280  138.5090 C   0  0  0  0  0  2  0  0  0  0  0  0
  190.6650  168.8070  139.4090 C   0  0  0  0  0  2  0  0  0  0  0  0
  191.0540  168.7720  140.8790 C   0  0  0  0  0  2  0  0  0  0  0  0
  192.6620  170.2090  141.9180 O   0  0  0  0  0  1  0  0  0  0  0  0
  192.5250  169.1100  141.0660 C   0  0  0  0  0  2  0  0  0  0  0  0
  188.3540  176.5660  146.6700 C   0  0  0  0  0  3  0  0  0  0  0  0
  187.1470  177.2680  146.6820 C   0  0  0  0  0  3  0  0  0  0  0  0
  187.4510  177.8340  144.3420 C   0  0  0  0  0  0  0  0  0  0  0  0
  186.6870  177.9050  145.5220 C   0  0  0  0  0  0  0  0  0  0  0  0
  189.1180  176.4990  145.4970 C   0  0  0  0  0  0  0  0  0  0  0  0
  186.9280  178.6140  142.8570 Cl  0  0  0  0  0  0  0  0  0  0  0  0
  188.6590  177.1320  144.3390 C   0  0  0  0  0  3  0  0  0  0  0  0
  184.9190  178.7940  146.9150 N   0  0  0  0  0  1  0  0  0  0  0  0
  185.3940  178.6610  145.5490 C   0  0  2  0  0  3  0  0  0  0  0  0
  183.7490  178.9740  144.2050 O   0  0  0  0  0  1  0  0  0  0  0  0
  184.4310  178.0050  144.7770 O   0  0  0  0  0  0  0  0  0  0  0  0
  191.4900  176.4590  146.2800 C   0  0  0  0  0  2  0  0  0  0  0  0
  192.4910  175.4460  146.8100 C   0  0  0  0  0  2  0  0  0  0  0  0
  193.8960  175.8050  146.3620 C   0  0  0  0  0  2  0  0  0  0  0  0
  195.9010  174.4510  145.9310 N   0  0  0  0  0  2  0  0  0  0  0  0
  196.1960  176.5190  142.6760 C   0  0  2  0  0  3  0  0  0  0  0  0
  197.3620  174.3800  142.4240 O   0  0  0  0  0  0  0  0  0  0  0  0
  196.8920  172.6550  143.8750 O   0  0  0  0  0  0  0  0  0  0  0  0
  197.4630  175.7880  142.2070 C   0  0  0  0  0  2  0  0  0  0  0  0
  196.8570  173.8900  143.6260 C   0  0  0  0  0  0  0  0  0  0  0  0
  194.8130  175.0790  144.1610 N   0  0  1  0  0  0  0  0  0  0  0  0
  194.5210  174.6770  145.5360 C   0  0  2  0  0  3  0  0  0  0  0  0
  195.7890  176.1910  144.1350 C   0  0  1  0  0  3  0  0  0  0  0  0
  196.2120  174.8550  144.5690 C   0  0  1  0  0  0  0  0  0  0  0  0
  195.1440  176.2850  141.7860 O   0  0  0  0  0  1  0  0  0  0  0  0
  1 31  1  0  0  0  0
  1 38  1  6  0  0  0
  2  9  1  0  0  0  0
  2 10  1  0  0  0  0
  3 11  1  6  0  0  0
  3  5  1  0  0  0  0
  3  8  1  0  0  0  0
  4  3  1  0  0  0  0
  5  4  1  6  0  0  0
  5  2  1  0  0  0  0
  6 10  1  0  0  0  0
  7  9  2  0  0  0  0
  8  6  1  0  0  0  0
  9  1  1  0  0  0  0
 12 11  1  0  0  0  0
 13 15  1  0  0  0  0
 14 13  1  0  0  0  0
 15 12  1  1  0  0  0
 16 19  1  0  0  0  0
 16 15  1  0  0  0  0
 17 18  1  0  0  0  0
 17 14  1  0  0  0  0
 18 16  2  0  0  0  0
 19 20  1  0  0  0  0
 20 21  1  6  0  0  0
 20 22  1  0  0  0  0
 22 23  1  0  0  0  0
 23 24  1  0  0  0  0
 24 26  1  0  0  0  0
 26 25  1  0  0  0  0
 27 28  1  0  0  0  0
 29 30  1  0  0  0  0
 30 35  1  0  0  0  0
 30 28  2  0  0  0  0
 31 27  2  0  0  0  0
 32 29  1  0  0  0  0
 33 29  2  0  0  0  0
 33 31  1  0  0  0  0
 35 34  1  1  0  0  0
 36 37  1  0  0  0  0
 37 35  1  0  0  0  0
 38 39  1  0  0  0  0
 40 39  1  0  0  0  0
 42 51  1  6  0  0  0
 42 49  1  0  0  0  0
 43 46  1  0  0  0  0
 45 43  1  0  0  0  0
 45 42  1  0  0  0  0
 46 44  2  0  0  0  0
 46 50  1  0  0  0  0
 47 50  1  0  0  0  0
 47 48  1  0  0  0  0
 48 41  1  0  0  0  0
 48 40  1  0  0  0  0
 49 47  1  0  0  0  0
 49 50  1  0  0  0  0
 50 41  1  0  0  0  0
M  END
>  <MODEL>
5

>  <REMARK>
 VINA RESULT:      -6.4      2.581      8.462
  Name = 
  17 active torsions:
  status: ('A' for Active; 'I' for Inactive)
    1  A    between atoms: C_4  and  C_25
    2  A    between atoms: C_4  and  N_33
    3  A    between atoms: C_6  and  C_11
    4  A    between atoms: C_7  and  C_27
    5  A    between atoms: C_7  and  O_45
    6  A    between atoms: C_8  and  C_41
    7  A    between atoms: C_8  and  C_42
    8  A    between atoms: C_10  and  C_12
    9  A    between atoms: C_10  and  C_30
   10  A    between atoms: C_11  and  C_30
   11  A    between atoms: C_12  and  N_37
   12  A    between atoms: C_17  and  C_38
   13  A    between atoms: C_17  and  C_41
   14  A    between atoms: C_22  and  N_33
   15  A    between atoms: C_32  and  C_42
   16  A    between atoms: C_36  and  N_37
   17  A    between atoms: C_42  and  C_44
                            x       y       z     vdW  Elec       q    Type
                         _______ _______ _______ _____ _____    ______ ____

>  <TORSDO>
F 17

$$$$
=
 OpenBabel11042415263D

 51 57  0  0  1  0  0  0  0  0999 V2000
  191.3530  172.3550  142.4240 C   0  0  2  0  0  3  0  0  0  0  0  0
  189.4770  174.0890  142.3300 N   0  0  0  0  0  0  0  0  0  0  0  0
  187.7290  175.8780  142.0370 C   0  0  1  0  0  0  0  0  0  0  0  0
  187.9630  175.1650  140.7210 C   0  0  0  0  0  2  0  0  0  0  0  0
  188.0680  174.3890  142.0310 C   0  0  1  0  0  3  0  0  0  0  0  0
  189.8720  176.3060  143.2900 C   0  0  0  0  0  2  0  0  0  0  0  0
  189.0310  171.7940  142.2780 O   0  0  0  0  0  0  0  0  0  0  0  0
  188.7850  176.9170  142.4300 C   0  0  0  0  0  2  0  0  0  0  0  0
  189.8940  172.7140  142.3390 C   0  0  0  0  0  0  0  0  0  0  0  0
  190.4800  175.1370  142.5440 C   0  0  0  0  0  2  0  0  0  0  0  0
  186.3250  176.1620  142.3170 N   0  0  0  0  0  2  0  0  0  0  0  0
  186.1610  176.3950  143.7460 C   0  0  0  0  0  2  0  0  0  0  0  0
  184.7810  178.2930  142.8460 C   0  0  0  0  0  2  0  0  0  0  0  0
  185.8080  179.4130  142.9520 C   0  0  0  0  0  2  0  0  0  0  0  0
  184.9600  177.2980  144.0010 C   0  0  2  0  0  3  0  0  0  0  0  0
  185.1180  177.9790  145.3410 C   0  0  0  0  0  0  0  0  0  0  0  0
  185.5630  180.1890  144.2400 C   0  0  0  0  0  2  0  0  0  0  0  0
  185.4560  179.2770  145.4320 C   0  0  0  0  0  3  0  0  0  0  0  0
  184.9850  177.1810  146.5240 N   0  0  0  0  0  2  0  0  0  0  0  0
  186.0210  177.0520  147.5410 C   0  0  2  0  0  3  0  0  0  0  0  0
  186.2480  178.2850  148.1550 O   0  0  0  0  0  1  0  0  0  0  0  0
  187.3090  176.5130  146.9250 C   0  0  0  0  0  2  0  0  0  0  0  0
  188.3950  177.5800  146.7950 C   0  0  0  0  0  2  0  0  0  0  0  0
  189.7840  176.9950  147.0010 C   0  0  0  0  0  2  0  0  0  0  0  0
  190.5210  174.9180  147.9350 O   0  0  0  0  0  1  0  0  0  0  0  0
  189.7600  175.4770  146.9060 C   0  0  0  0  0  2  0  0  0  0  0  0
  191.6600  170.9770  140.3250 C   0  0  0  0  0  3  0  0  0  0  0  0
  192.2360  170.7890  139.0680 C   0  0  0  0  0  3  0  0  0  0  0  0
  193.4310  172.8880  139.2990 C   0  0  0  0  0  0  0  0  0  0  0  0
  193.1240  171.7390  138.5460 C   0  0  0  0  0  0  0  0  0  0  0  0
  191.9610  172.1230  141.0740 C   0  0  0  0  0  0  0  0  0  0  0  0
  194.5350  174.1160  138.6970 Cl  0  0  0  0  0  0  0  0  0  0  0  0
  192.8480  173.0710  140.5560 C   0  0  0  0  0  3  0  0  0  0  0  0
  193.1260  170.3790  136.5450 N   0  0  0  0  0  1  0  0  0  0  0  0
  193.7300  171.5290  137.1920 C   0  0  2  0  0  3  0  0  0  0  0  0
  195.2420  170.0820  137.6750 O   0  0  0  0  0  1  0  0  0  0  0  0
  195.1100  171.3380  137.3020 O   0  0  0  0  0  0  0  0  0  0  0  0
  191.5960  171.1780  143.3560 C   0  0  0  0  0  2  0  0  0  0  0  0
  193.0720  171.0870  143.7100 C   0  0  0  0  0  2  0  0  0  0  0  0
  193.4440  172.1630  144.7150 C   0  0  0  0  0  2  0  0  0  0  0  0
  195.5570  173.4150  144.7900 N   0  0  0  0  0  2  0  0  0  0  0  0
  193.3830  176.3660  146.0220 C   0  0  2  0  0  3  0  0  0  0  0  0
  195.4500  177.2060  145.0120 O   0  0  0  0  0  0  0  0  0  0  0  0
  196.6780  175.8310  143.6320 O   0  0  0  0  0  0  0  0  0  0  0  0
  194.5740  177.3290  146.1340 C   0  0  0  0  0  2  0  0  0  0  0  0
  195.8030  175.9470  144.5320 C   0  0  0  0  0  0  0  0  0  0  0  0
  193.7990  174.5990  144.3220 N   0  0  1  0  0  0  0  0  0  0  0  0
  194.3060  173.2510  144.0680 C   0  0  2  0  0  3  0  0  0  0  0  0
  193.7910  174.8930  145.7720 C   0  0  1  0  0  3  0  0  0  0  0  0
  195.0660  174.7560  145.0590 C   0  0  1  0  0  0  0  0  0  0  0  0
  192.4830  176.8200  145.0540 O   0  0  0  0  0  1  0  0  0  0  0  0
  1 38  1  1  0  0  0
  2  9  1  0  0  0  0
  2 10  1  0  0  0  0
  3 11  1  1  0  0  0
  3  8  1  0  0  0  0
  4  3  1  0  0  0  0
  5  4  1  6  0  0  0
  5  3  1  0  0  0  0
  5  2  1  0  0  0  0
  7  9  2  0  0  0  0
  8  6  1  0  0  0  0
  9  1  1  0  0  0  0
 10  6  1  0  0  0  0
 11 12  1  0  0  0  0
 13 14  1  0  0  0  0
 13 15  1  0  0  0  0
 14 17  1  0  0  0  0
 15 12  1  6  0  0  0
 15 16  1  0  0  0  0
 16 18  2  0  0  0  0
 16 19  1  0  0  0  0
 17 18  1  0  0  0  0
 19 20  1  0  0  0  0
 20 21  1  6  0  0  0
 22 20  1  0  0  0  0
 23 22  1  0  0  0  0
 23 24  1  0  0  0  0
 26 24  1  0  0  0  0
 26 25  1  0  0  0  0
 27 31  1  0  0  0  0
 28 27  2  0  0  0  0
 29 33  1  0  0  0  0
 30 28  1  0  0  0  0
 30 29  2  0  0  0  0
 31  1  1  0  0  0  0
 32 29  1  0  0  0  0
 33 31  2  0  0  0  0
 35 34  1  1  0  0  0
 35 37  1  0  0  0  0
 35 30  1  0  0  0  0
 37 36  1  0  0  0  0
 38 39  1  0  0  0  0
 39 40  1  0  0  0  0
 41 50  1  0  0  0  0
 42 51  1  6  0  0  0
 42 45  1  0  0  0  0
 43 45  1  0  0  0  0
 44 46  2  0  0  0  0
 46 43  1  0  0  0  0
 46 50  1  0  0  0  0
 47 50  1  0  0  0  0
 47 49  1  0  0  0  0
 48 47  1  0  0  0  0
 48 40  1  0  0  0  0
 48 41  1  0  0  0  0
 49 42  1  0  0  0  0
 50 49  1  0  0  0  0
M  END
>  <MODEL>
6

>  <REMARK>
 VINA RESULT:      -6.1      1.875      2.837
  Name = 
  17 active torsions:
  status: ('A' for Active; 'I' for Inactive)
    1  A    between atoms: C_4  and  C_25
    2  A    between atoms: C_4  and  N_33
    3  A    between atoms: C_6  and  C_11
    4  A    between atoms: C_7  and  C_27
    5  A    between atoms: C_7  and  O_45
    6  A    between atoms: C_8  and  C_41
    7  A    between atoms: C_8  and  C_42
    8  A    between atoms: C_10  and  C_12
    9  A    between atoms: C_10  and  C_30
   10  A    between atoms: C_11  and  C_30
   11  A    between atoms: C_12  and  N_37
   12  A    between atoms: C_17  and  C_38
   13  A    between atoms: C_17  and  C_41
   14  A    between atoms: C_22  and  N_33
   15  A    between atoms: C_32  and  C_42
   16  A    between atoms: C_36  and  N_37
   17  A    between atoms: C_42  and  C_44
                            x       y       z     vdW  Elec       q    Type
                         _______ _______ _______ _____ _____    ______ ____

>  <TORSDO>
F 17

$$$$
=
 OpenBabel11042415263D

 51 57  0  0  1  0  0  0  0  0999 V2000
  190.9500  172.6450  141.4740 C   0  0  2  0  0  3  0  0  0  0  0  0
  190.3980  174.8500  142.6440 N   0  0  0  0  0  0  0  0  0  0  0  0
  189.8540  177.1230  143.5800 C   0  0  1  0  0  0  0  0  0  0  0  0
  188.9710  176.8340  142.3830 C   0  0  0  0  0  2  0  0  0  0  0  0
  189.3910  175.6930  143.3060 C   0  0  1  0  0  3  0  0  0  0  0  0
  192.2300  176.3660  143.2250 C   0  0  0  0  0  2  0  0  0  0  0  0
  188.9860  172.9920  142.7970 O   0  0  0  0  0  0  0  0  0  0  0  0
  191.2900  177.5530  143.2620 C   0  0  0  0  0  2  0  0  0  0  0  0
  190.0520  173.4890  142.3370 C   0  0  0  0  0  0  0  0  0  0  0  0
  191.7050  175.3630  142.2200 C   0  0  0  0  0  2  0  0  0  0  0  0
  189.1560  177.7660  144.6900 N   0  0  0  0  0  2  0  0  0  0  0  0
  187.7470  177.9120  144.3470 C   0  0  0  0  0  2  0  0  0  0  0  0
  185.4060  177.4570  145.1400 C   0  0  0  0  0  2  0  0  0  0  0  0
  185.1330  178.7710  145.8610 C   0  0  0  0  0  2  0  0  0  0  0  0
  186.8850  177.0710  145.2810 C   0  0  2  0  0  3  0  0  0  0  0  0
  187.3940  177.2120  146.6970 C   0  0  0  0  0  0  0  0  0  0  0  0
  185.3960  178.5820  147.3490 C   0  0  0  0  0  2  0  0  0  0  0  0
  186.7400  177.9560  147.6060 C   0  0  0  0  0  3  0  0  0  0  0  0
  188.6480  176.6020  147.0280 N   0  0  0  0  0  2  0  0  0  0  0  0
  188.9280  175.1800  146.8700 C   0  0  2  0  0  3  0  0  0  0  0  0
  188.5310  174.4820  148.0130 O   0  0  0  0  0  1  0  0  0  0  0  0
  190.4110  174.9560  146.5910 C   0  0  0  0  0  2  0  0  0  0  0  0
  191.3160  175.6510  147.6070 C   0  0  0  0  0  2  0  0  0  0  0  0
  192.2080  176.6910  146.9450 C   0  0  0  0  0  2  0  0  0  0  0  0
  194.4130  177.1160  146.1140 O   0  0  0  0  0  1  0  0  0  0  0  0
  193.5940  176.1280  146.6660 C   0  0  0  0  0  2  0  0  0  0  0  0
  191.6960  172.5280  139.0590 C   0  0  0  0  0  3  0  0  0  0  0  0
  191.4710  172.7740  137.7040 C   0  0  0  0  0  3  0  0  0  0  0  0
  189.3290  173.7800  138.2410 C   0  0  0  0  0  0  0  0  0  0  0  0
  190.2900  173.4010  137.2850 C   0  0  0  0  0  0  0  0  0  0  0  0
  190.7390  172.9010  140.0130 C   0  0  0  0  0  0  0  0  0  0  0  0
  187.8290  174.5670  137.7770 Cl  0  0  0  0  0  0  0  0  0  0  0  0
  189.5610  173.5290  139.5960 C   0  0  0  0  0  3  0  0  0  0  0  0
  190.8210  172.7130  135.0270 N   0  0  0  0  0  1  0  0  0  0  0  0
  190.0570  173.6530  135.8270 C   0  0  2  0  0  3  0  0  0  0  0  0
  189.4000  175.4250  134.8060 O   0  0  0  0  0  1  0  0  0  0  0  0
  190.4210  174.9600  135.4960 O   0  0  0  0  0  0  0  0  0  0  0  0
  190.8310  171.1650  141.8050 C   0  0  0  0  0  2  0  0  0  0  0  0
  191.9640  170.7420  142.7250 C   0  0  0  0  0  2  0  0  0  0  0  0
  193.2140  171.5530  142.4340 C   0  0  0  0  0  2  0  0  0  0  0  0
  194.0200  170.9920  144.6880 N   0  0  0  0  0  2  0  0  0  0  0  0
  195.9850  174.3150  144.4550 C   0  0  2  0  0  3  0  0  0  0  0  0
  197.0510  172.8170  146.0720 O   0  0  0  0  0  0  0  0  0  0  0  0
  196.5600  170.5670  146.0290 O   0  0  0  0  0  0  0  0  0  0  0  0
  196.6130  174.1580  145.8470 C   0  0  0  0  0  2  0  0  0  0  0  0
  196.2400  171.7440  145.7100 C   0  0  0  0  0  0  0  0  0  0  0  0
  195.4190  172.1070  143.4580 N   0  0  1  0  0  0  0  0  0  0  0  0
  194.3950  171.0770  143.2860 C   0  0  2  0  0  3  0  0  0  0  0  0
  194.8640  173.2880  144.1560 C   0  0  1  0  0  3  0  0  0  0  0  0
  195.0290  172.0210  144.8770 C   0  0  1  0  0  0  0  0  0  0  0  0
  196.9760  174.2920  143.4700 O   0  0  0  0  0  1  0  0  0  0  0  0
  1 38  1  6  0  0  0
  1  9  1  0  0  0  0
  2  5  1  0  0  0  0
  3 11  1  1  0  0  0
  4  3  1  0  0  0  0
  5  4  1  6  0  0  0
  5  3  1  0  0  0  0
  6  8  1  0  0  0  0
  8  3  1  0  0  0  0
  9  2  1  0  0  0  0
  9  7  2  0  0  0  0
 10  2  1  0  0  0  0
 10  6  1  0  0  0  0
 12 11  1  0  0  0  0
 13 15  1  0  0  0  0
 13 14  1  0  0  0  0
 14 17  1  0  0  0  0
 15 12  1  6  0  0  0
 15 16  1  0  0  0  0
 16 19  1  0  0  0  0
 16 18  2  0  0  0  0
 17 18  1  0  0  0  0
 20 19  1  0  0  0  0
 20 21  1  1  0  0  0
 22 20  1  0  0  0  0
 22 23  1  0  0  0  0
 24 23  1  0  0  0  0
 25 26  1  0  0  0  0
 26 24  1  0  0  0  0
 27 31  1  0  0  0  0
 28 27  2  0  0  0  0
 29 33  1  0  0  0  0
 30 28  1  0  0  0  0
 30 29  2  0  0  0  0
 31  1  1  0  0  0  0
 32 29  1  0  0  0  0
 33 31  2  0  0  0  0
 35 34  1  6  0  0  0
 35 30  1  0  0  0  0
 36 37  1  0  0  0  0
 37 35  1  0  0  0  0
 38 39  1  0  0  0  0
 40 39  1  0  0  0  0
 40 48  1  0  0  0  0
 41 50  1  0  0  0  0
 42 51  1  6  0  0  0
 42 45  1  0  0  0  0
 45 43  1  0  0  0  0
 46 44  2  0  0  0  0
 46 43  1  0  0  0  0
 47 49  1  0  0  0  0
 47 50  1  0  0  0  0
 48 47  1  0  0  0  0
 48 41  1  0  0  0  0
 49 42  1  0  0  0  0
 49 50  1  0  0  0  0
 50 46  1  0  0  0  0
M  END
>  <MODEL>
7

>  <REMARK>
 VINA RESULT:      -6.0      1.809      2.182
  Name = 
  17 active torsions:
  status: ('A' for Active; 'I' for Inactive)
    1  A    between atoms: C_4  and  C_25
    2  A    between atoms: C_4  and  N_33
    3  A    between atoms: C_6  and  C_11
    4  A    between atoms: C_7  and  C_27
    5  A    between atoms: C_7  and  O_45
    6  A    between atoms: C_8  and  C_41
    7  A    between atoms: C_8  and  C_42
    8  A    between atoms: C_10  and  C_12
    9  A    between atoms: C_10  and  C_30
   10  A    between atoms: C_11  and  C_30
   11  A    between atoms: C_12  and  N_37
   12  A    between atoms: C_17  and  C_38
   13  A    between atoms: C_17  and  C_41
   14  A    between atoms: C_22  and  N_33
   15  A    between atoms: C_32  and  C_42
   16  A    between atoms: C_36  and  N_37
   17  A    between atoms: C_42  and  C_44
                            x       y       z     vdW  Elec       q    Type
                         _______ _______ _______ _____ _____    ______ ____

>  <TORSDO>
F 17

$$$$
=
 OpenBabel11042415263D

 51 57  0  0  1  0  0  0  0  0999 V2000
  190.0900  176.0180  144.8380 C   0  0  2  0  0  3  0  0  0  0  0  0
  190.4200  174.2570  143.0140 N   0  0  0  0  0  0  0  0  0  0  0  0
  190.5130  172.5470  141.1680 C   0  0  1  0  0  0  0  0  0  0  0  0
  189.7530  173.7710  140.7000 C   0  0  0  0  0  2  0  0  0  0  0  0
  190.9200  173.9310  141.6700 C   0  0  1  0  0  3  0  0  0  0  0  0
  189.9430  171.9140  143.5390 C   0  0  0  0  0  2  0  0  0  0  0  0
  191.5890  176.2820  142.9910 O   0  0  0  0  0  0  0  0  0  0  0  0
  189.7370  171.5860  142.0750 C   0  0  0  0  0  2  0  0  0  0  0  0
  190.7440  175.5420  143.5690 C   0  0  0  0  0  0  0  0  0  0  0  0
  189.5460  173.3560  143.7730 C   0  0  0  0  0  2  0  0  0  0  0  0
  191.4190  171.9920  140.1670 N   0  0  0  0  0  2  0  0  0  0  0  0
  190.6390  171.4970  139.0400 C   0  0  0  0  0  2  0  0  0  0  0  0
  189.8310  172.2660  136.7880 C   0  0  0  0  0  2  0  0  0  0  0  0
  189.6920  170.9130  136.1030 C   0  0  0  0  0  2  0  0  0  0  0  0
  191.0130  172.2470  137.7670 C   0  0  2  0  0  3  0  0  0  0  0  0
  192.2580  171.6320  137.1690 C   0  0  0  0  0  0  0  0  0  0  0  0
  190.9410  170.6460  135.2750 C   0  0  0  0  0  2  0  0  0  0  0  0
  192.1990  170.8540  136.0740 C   0  0  0  0  0  3  0  0  0  0  0  0
  193.5030  171.8270  137.8530 N   0  0  0  0  0  2  0  0  0  0  0  0
  194.3380  173.0130  137.7020 C   0  0  2  0  0  3  0  0  0  0  0  0
  195.6820  172.6470  137.6220 O   0  0  0  0  0  1  0  0  0  0  0  0
  194.1100  173.9760  138.8620 C   0  0  0  0  0  2  0  0  0  0  0  0
  194.5520  173.4000  140.2060 C   0  0  0  0  0  2  0  0  0  0  0  0
  195.6940  174.2020  140.8140 C   0  0  0  0  0  2  0  0  0  0  0  0
  197.1540  175.6590  139.5990 O   0  0  0  0  0  1  0  0  0  0  0  0
  195.8590  175.5400  140.1100 C   0  0  0  0  0  2  0  0  0  0  0  0
  188.5010  177.3920  143.4290 C   0  0  0  0  0  3  0  0  0  0  0  0
  187.2430  177.9590  143.2170 C   0  0  0  0  0  3  0  0  0  0  0  0
  186.4730  177.0430  145.3280 C   0  0  0  0  0  0  0  0  0  0  0  0
  186.2220  177.7900  144.1620 C   0  0  0  0  0  0  0  0  0  0  0  0
  188.7510  176.6430  144.5870 C   0  0  0  0  0  0  0  0  0  0  0  0
  185.2330  176.7940  146.5480 Cl  0  0  0  0  0  0  0  0  0  0  0  0
  187.7350  176.4760  145.5310 C   0  0  0  0  0  3  0  0  0  0  0  0
  184.3260  177.9190  142.6650 N   0  0  0  0  0  1  0  0  0  0  0  0
  184.8750  178.3980  143.9200 C   0  0  2  0  0  3  0  0  0  0  0  0
  185.2440  180.1300  145.1360 O   0  0  0  0  0  1  0  0  0  0  0  0
  184.9680  179.7910  143.8930 O   0  0  0  0  0  0  0  0  0  0  0  0
  190.9980  176.9420  145.6350 C   0  0  0  0  0  2  0  0  0  0  0  0
  192.0600  176.1330  146.3610 C   0  0  0  0  0  2  0  0  0  0  0  0
  193.4370  176.4440  145.8020 C   0  0  0  0  0  2  0  0  0  0  0  0
  195.6830  175.5070  145.4550 N   0  0  0  0  0  2  0  0  0  0  0  0
  193.8270  172.5270  143.8320 C   0  0  2  0  0  3  0  0  0  0  0  0
  196.0330  171.8160  144.6230 O   0  0  0  0  0  0  0  0  0  0  0  0
  197.1540  173.1060  146.1670 O   0  0  0  0  0  0  0  0  0  0  0  0
  195.1210  171.7580  143.5250 C   0  0  0  0  0  2  0  0  0  0  0  0
  196.2530  173.0190  145.2890 C   0  0  0  0  0  0  0  0  0  0  0  0
  194.1120  174.0440  145.7820 N   0  0  1  0  0  0  0  0  0  0  0  0
  194.4610  175.3900  146.2350 C   0  0  2  0  0  3  0  0  0  0  0  0
  194.0630  173.9830  144.3040 C   0  0  1  0  0  3  0  0  0  0  0  0
  195.3470  174.1710  144.9880 C   0  0  1  0  0  0  0  0  0  0  0  0
  193.0440  171.8130  144.7410 O   0  0  0  0  0  1  0  0  0  0  0  0
  1 38  1  6  0  0  0
  2  9  1  0  0  0  0
  2 10  1  0  0  0  0
  3 11  1  6  0  0  0
  3  5  1  0  0  0  0
  3  8  1  0  0  0  0
  4  3  1  0  0  0  0
  5  4  1  6  0  0  0
  5  2  1  0  0  0  0
  6 10  1  0  0  0  0
  7  9  2  0  0  0  0
  8  6  1  0  0  0  0
  9  1  1  0  0  0  0
 12 11  1  0  0  0  0
 13 15  1  0  0  0  0
 14 13  1  0  0  0  0
 15 12  1  1  0  0  0
 16 15  1  0  0  0  0
 16 19  1  0  0  0  0
 17 18  1  0  0  0  0
 17 14  1  0  0  0  0
 18 16  2  0  0  0  0
 20 21  1  1  0  0  0
 20 19  1  0  0  0  0
 20 22  1  0  0  0  0
 22 23  1  0  0  0  0
 23 24  1  0  0  0  0
 25 26  1  0  0  0  0
 26 24  1  0  0  0  0
 27 31  1  0  0  0  0
 28 27  2  0  0  0  0
 28 30  1  0  0  0  0
 29 33  1  0  0  0  0
 29 32  1  0  0  0  0
 30 29  2  0  0  0  0
 31  1  1  0  0  0  0
 31 33  2  0  0  0  0
 35 34  1  6  0  0  0
 35 30  1  0  0  0  0
 37 35  1  0  0  0  0
 37 36  1  0  0  0  0
 38 39  1  0  0  0  0
 40 48  1  0  0  0  0
 40 39  1  0  0  0  0
 41 48  1  0  0  0  0
 42 49  1  0  0  0  0
 42 51  1  1  0  0  0
 43 46  1  0  0  0  0
 45 42  1  0  0  0  0
 45 43  1  0  0  0  0
 46 44  2  0  0  0  0
 47 48  1  0  0  0  0
 49 50  1  0  0  0  0
 49 47  1  0  0  0  0
 50 46  1  0  0  0  0
 50 41  1  0  0  0  0
 50 47  1  0  0  0  0
M  END
>  <MODEL>
8

>  <REMARK>
 VINA RESULT:      -6.0      2.851      8.312
  Name = 
  17 active torsions:
  status: ('A' for Active; 'I' for Inactive)
    1  A    between atoms: C_4  and  C_25
    2  A    between atoms: C_4  and  N_33
    3  A    between atoms: C_6  and  C_11
    4  A    between atoms: C_7  and  C_27
    5  A    between atoms: C_7  and  O_45
    6  A    between atoms: C_8  and  C_41
    7  A    between atoms: C_8  and  C_42
    8  A    between atoms: C_10  and  C_12
    9  A    between atoms: C_10  and  C_30
   10  A    between atoms: C_11  and  C_30
   11  A    between atoms: C_12  and  N_37
   12  A    between atoms: C_17  and  C_38
   13  A    between atoms: C_17  and  C_41
   14  A    between atoms: C_22  and  N_33
   15  A    between atoms: C_32  and  C_42
   16  A    between atoms: C_36  and  N_37
   17  A    between atoms: C_42  and  C_44
                            x       y       z     vdW  Elec       q    Type
                         _______ _______ _______ _____ _____    ______ ____

>  <TORSDO>
F 17

$$$$
=
 OpenBabel11042415263D

 51 57  0  0  1  0  0  0  0  0999 V2000
  188.6740  174.9710  142.6970 C   0  0  2  0  0  3  0  0  0  0  0  0
  190.9560  175.1120  143.8420 N   0  0  0  0  0  0  0  0  0  0  0  0
  193.1450  175.4740  145.0340 C   0  0  1  0  0  0  0  0  0  0  0  0
  191.9990  175.9550  145.9020 C   0  0  0  0  0  2  0  0  0  0  0  0
  191.8020  174.7470  144.9890 C   0  0  1  0  0  3  0  0  0  0  0  0
  192.8340  176.0860  142.6100 C   0  0  0  0  0  2  0  0  0  0  0  0
  189.3650  173.5180  144.4690 O   0  0  0  0  0  0  0  0  0  0  0  0
  193.5610  176.4140  143.8980 C   0  0  0  0  0  2  0  0  0  0  0  0
  189.6680  174.4860  143.7180 C   0  0  0  0  0  0  0  0  0  0  0  0
  191.3430  176.1390  142.8690 C   0  0  0  0  0  2  0  0  0  0  0  0
  194.1810  174.7520  145.7660 N   0  0  0  0  0  2  0  0  0  0  0  0
  195.4790  175.3430  145.4610 C   0  0  0  0  0  2  0  0  0  0  0  0
  197.3920  174.8740  143.9010 C   0  0  0  0  0  2  0  0  0  0  0  0
  196.6720  175.0540  142.5710 C   0  0  0  0  0  2  0  0  0  0  0  0
  196.4370  174.2770  144.9450 C   0  0  2  0  0  3  0  0  0  0  0  0
  195.6460  173.1050  144.4110 C   0  0  0  0  0  0  0  0  0  0  0  0
  196.2500  173.6880  142.0470 C   0  0  0  0  0  2  0  0  0  0  0  0
  195.5160  172.8900  143.0910 C   0  0  0  0  0  3  0  0  0  0  0  0
  194.9560  172.2720  145.3520 N   0  0  0  0  0  2  0  0  0  0  0  0
  195.4710  170.9990  145.8420 C   0  0  2  0  0  3  0  0  0  0  0  0
  196.8340  171.1060  146.1210 O   0  0  0  0  0  1  0  0  0  0  0  0
  195.2150  169.8930  144.8240 C   0  0  0  0  0  2  0  0  0  0  0  0
  194.1580  168.8930  145.2880 C   0  0  0  0  0  2  0  0  0  0  0  0
  192.9640  168.8590  144.3450 C   0  0  0  0  0  2  0  0  0  0  0  0
  192.0060  171.0120  143.9250 O   0  0  0  0  0  1  0  0  0  0  0  0
  192.9380  170.0870  143.4480 C   0  0  0  0  0  2  0  0  0  0  0  0
  187.9640  176.5750  144.5200 C   0  0  0  0  0  3  0  0  0  0  0  0
  187.0960  177.5520  145.0090 C   0  0  0  0  0  3  0  0  0  0  0  0
  185.7910  177.4170  142.9680 C   0  0  0  0  0  0  0  0  0  0  0  0
  186.0050  177.9800  144.2400 C   0  0  0  0  0  0  0  0  0  0  0  0
  187.7560  176.0170  143.2510 C   0  0  0  0  0  0  0  0  0  0  0  0
  184.4430  177.9140  141.9560 Cl  0  0  0  0  0  0  0  0  0  0  0  0
  186.6670  176.4410  142.4840 C   0  0  0  0  0  3  0  0  0  0  0  0
  185.4690  180.3390  144.2680 N   0  0  0  0  0  1  0  0  0  0  0  0
  185.0850  179.0340  144.7730 C   0  0  2  0  0  3  0  0  0  0  0  0
  184.0680  178.3250  146.5270 O   0  0  0  0  0  1  0  0  0  0  0  0
  185.1130  179.0420  146.1700 O   0  0  0  0  0  0  0  0  0  0  0  0
  187.9000  173.8230  142.0680 C   0  0  0  0  0  2  0  0  0  0  0  0
  188.6930  173.2260  140.9170 C   0  0  0  0  0  2  0  0  0  0  0  0
  188.5650  174.0950  139.6780 C   0  0  0  0  0  2  0  0  0  0  0  0
  189.2880  172.0000  138.6160 N   0  0  0  0  0  2  0  0  0  0  0  0
  191.8330  174.2200  136.7310 C   0  0  2  0  0  3  0  0  0  0  0  0
  191.4110  172.1640  135.4690 O   0  0  0  0  0  0  0  0  0  0  0  0
  189.5350  170.9130  135.9340 O   0  0  0  0  0  0  0  0  0  0  0  0
  192.4310  173.0430  135.9460 C   0  0  0  0  0  2  0  0  0  0  0  0
  190.3600  171.7920  136.3030 C   0  0  0  0  0  0  0  0  0  0  0  0
  189.4730  173.7750  137.3790 N   0  0  1  0  0  0  0  0  0  0  0  0
  188.5720  173.2470  138.4030 C   0  0  2  0  0  3  0  0  0  0  0  0
  190.8710  173.7900  137.8660 C   0  0  1  0  0  3  0  0  0  0  0  0
  190.1990  172.5120  137.6040 C   0  0  1  0  0  0  0  0  0  0  0  0
  191.2240  175.1250  135.8580 O   0  0  0  0  0  1  0  0  0  0  0  0
  1 38  1  1  0  0  0
  1 31  1  0  0  0  0
  1  9  1  0  0  0  0
  2  5  1  0  0  0  0
  3 11  1  1  0  0  0
  3  4  1  0  0  0  0
  5  3  1  0  0  0  0
  5  4  1  1  0  0  0
  6 10  1  0  0  0  0
  6  8  1  0  0  0  0
  8  3  1  0  0  0  0
  9  2  1  0  0  0  0
  9  7  2  0  0  0  0
 10  2  1  0  0  0  0
 12 11  1  0  0  0  0
 13 15  1  0  0  0  0
 14 13  1  0  0  0  0
 15 12  1  6  0  0  0
 16 15  1  0  0  0  0
 16 19  1  0  0  0  0
 17 14  1  0  0  0  0
 17 18  1  0  0  0  0
 18 16  2  0  0  0  0
 19 20  1  0  0  0  0
 20 21  1  6  0  0  0
 22 23  1  0  0  0  0
 22 20  1  0  0  0  0
 24 23  1  0  0  0  0
 26 25  1  0  0  0  0
 26 24  1  0  0  0  0
 27 28  1  0  0  0  0
 29 30  1  0  0  0  0
 30 35  1  0  0  0  0
 30 28  2  0  0  0  0
 31 27  2  0  0  0  0
 32 29  1  0  0  0  0
 33 29  2  0  0  0  0
 33 31  1  0  0  0  0
 35 34  1  6  0  0  0
 35 37  1  0  0  0  0
 37 36  1  0  0  0  0
 39 38  1  0  0  0  0
 40 39  1  0  0  0  0
 42 51  1  6  0  0  0
 42 49  1  0  0  0  0
 43 45  1  0  0  0  0
 43 46  1  0  0  0  0
 44 46  2  0  0  0  0
 45 42  1  0  0  0  0
 46 50  1  0  0  0  0
 47 50  1  0  0  0  0
 47 49  1  0  0  0  0
 47 48  1  0  0  0  0
 48 41  1  0  0  0  0
 48 40  1  0  0  0  0
 50 49  1  0  0  0  0
 50 41  1  0  0  0  0
M  END
>  <MODEL>
9

>  <REMARK>
 VINA RESULT:      -5.9      2.715      8.688
  Name = 
  17 active torsions:
  status: ('A' for Active; 'I' for Inactive)
    1  A    between atoms: C_4  and  C_25
    2  A    between atoms: C_4  and  N_33
    3  A    between atoms: C_6  and  C_11
    4  A    between atoms: C_7  and  C_27
    5  A    between atoms: C_7  and  O_45
    6  A    between atoms: C_8  and  C_41
    7  A    between atoms: C_8  and  C_42
    8  A    between atoms: C_10  and  C_12
    9  A    between atoms: C_10  and  C_30
   10  A    between atoms: C_11  and  C_30
   11  A    between atoms: C_12  and  N_37
   12  A    between atoms: C_17  and  C_38
   13  A    between atoms: C_17  and  C_41
   14  A    between atoms: C_22  and  N_33
   15  A    between atoms: C_32  and  C_42
   16  A    between atoms: C_36  and  N_37
   17  A    between atoms: C_42  and  C_44
                            x       y       z     vdW  Elec       q    Type
                         _______ _______ _______ _____ _____    ______ ____

>  <TORSDO>
F 17

$$$$
