=
 OpenBabel11042413363D

 42 46  0  0  1  0  0  0  0  0999 V2000
  190.7140  174.0340  143.6360 N   0  0  0  0  0  2  0  0  0  0  0  0
  191.6970  175.0850  143.4420 C   0  0  2  0  0  3  0  0  0  0  0  0
  190.5830  173.4010  142.3200 C   0  0  2  0  0  3  0  0  0  0  0  0
  192.1820  173.4990  141.3980 S   0  0  0  0  0  0  0  0  0  0  0  0
  192.9090  174.4980  142.7270 C   0  0  2  0  0  3  0  0  0  0  0  0
  193.7860  173.6160  143.5890 C   0  0  0  0  0  0  0  0  0  0  0  0
  193.9750  171.5730  144.9270 C   0  0  2  0  0  3  0  0  0  0  0  0
  195.7470  173.2540  144.9380 N   0  0  0  0  0  0  0  0  0  0  0  0
  195.3720  172.0440  145.2590 C   0  0  0  0  0  0  0  0  0  0  0  0
  196.2610  171.1490  146.0110 C   0  0  0  0  0  3  0  0  0  0  0  0
  194.8170  169.2830  145.3410 C   0  0  0  0  0  3  0  0  0  0  0  0
  193.9310  170.0790  144.7330 C   0  0  0  0  0  3  0  0  0  0  0  0
  193.4970  172.2610  143.7690 O   0  0  0  0  0  0  0  0  0  0  0  0
  194.8920  174.1180  144.1670 C   0  0  0  0  0  3  0  0  0  0  0  0
  195.9610  169.8440  146.1050 C   0  0  0  0  0  0  0  0  0  0  0  0
  197.9360  168.5580  146.4360 O   0  0  0  0  0  0  0  0  0  0  0  0
  196.3780  168.4640  148.1670 N   0  0  0  0  0  1  0  0  0  0  0  0
  196.8210  168.9320  146.8870 C   0  0  0  0  0  0  0  0  0  0  0  0
  191.9770  175.9500  144.6900 C   0  0  2  0  0  3  0  0  0  0  0  0
  189.5490  174.5130  146.8840 O   0  0  0  0  0  0  0  0  0  0  0  0
  191.6030  175.2990  146.0380 C   0  0  0  0  0  2  0  0  0  0  0  0
  190.1450  175.4440  146.3550 C   0  0  0  0  0  0  0  0  0  0  0  0
  189.4720  176.7710  146.1090 C   0  0  1  0  0  3  0  0  0  0  0  0
  191.3380  177.3300  144.5280 C   0  0  0  0  0  2  0  0  0  0  0  0
  189.8200  177.2700  144.7130 C   0  0  0  0  0  2  0  0  0  0  0  0
  187.8720  178.4250  147.7670 O   0  0  0  0  0  0  0  0  0  0  0  0
  187.2900  177.4840  147.1550 C   0  0  0  0  0  0  0  0  0  0  0  0
  188.0270  176.6620  146.2480 N   0  0  0  0  0  2  0  0  0  0  0  0
  185.8200  177.2360  147.3480 C   0  0  0  0  0  2  0  0  0  0  0  0
  185.1110  176.8810  146.0340 C   0  0  0  0  0  2  0  0  0  0  0  0
  183.7710  178.9040  145.6670 N   0  0  0  0  0  1  0  0  0  0  0  0
  184.8990  178.1290  145.1820 C   0  0  2  0  0  3  0  0  0  0  0  0
  184.7510  177.7820  143.7010 C   0  0  0  0  0  2  0  0  0  0  0  0
  185.5070  178.7120  142.7620 C   0  0  0  0  0  2  0  0  0  0  0  0
  186.7800  178.9790  143.2670 O   0  0  0  0  0  1  0  0  0  0  0  0
  187.9080  175.9070  142.0010 C   0  0  0  0  0  3  0  0  0  0  0  0
  188.2090  174.4890  142.3450 C   0  0  0  0  0  2  0  0  0  0  0  0
  189.4020  173.8970  140.2500 C   0  0  0  0  0  3  0  0  0  0  0  0
  187.6120  175.4540  139.5760 C   0  0  0  0  0  3  0  0  0  0  0  0
  188.3790  174.4110  139.3890 N   0  0  0  0  0  0  0  0  0  0  0  0
  187.6070  176.3160  140.7720 C   0  0  0  0  0  3  0  0  0  0  0  0
  189.3940  173.9570  141.5870 C   0  0  0  0  0  0  0  0  0  0  0  0
  2  1  1  1  0  0  0
  2 19  1  0  0  0  0
  3 42  1  6  0  0  0
  3  1  1  0  0  0  0
  4  3  1  0  0  0  0
  4  5  1  0  0  0  0
  5  2  1  0  0  0  0
  5  6  1  1  0  0  0
  6 13  1  0  0  0  0
  6 14  2  0  0  0  0
  7 12  1  6  0  0  0
  7  9  1  0  0  0  0
  8  9  2  0  0  0  0
  9 10  1  0  0  0  0
 10 15  2  0  0  0  0
 11 15  1  0  0  0  0
 12 11  2  0  0  0  0
 13  7  1  0  0  0  0
 14  8  1  0  0  0  0
 15 18  1  0  0  0  0
 16 18  2  0  0  0  0
 18 17  1  0  0  0  0
 19 24  1  6  0  0  0
 19 21  1  0  0  0  0
 21 22  1  0  0  0  0
 22 20  2  0  0  0  0
 23 28  1  6  0  0  0
 23 22  1  0  0  0  0
 24 25  1  0  0  0  0
 25 23  1  0  0  0  0
 27 29  1  0  0  0  0
 27 26  2  0  0  0  0
 28 27  1  0  0  0  0
 30 29  1  0  0  0  0
 32 31  1  1  0  0  0
 32 30  1  0  0  0  0
 33 32  1  0  0  0  0
 34 35  1  0  0  0  0
 34 33  1  0  0  0  0
 36 37  1  0  0  0  0
 38 42  2  0  0  0  0
 39 41  1  0  0  0  0
 40 39  2  0  0  0  0
 40 38  1  0  0  0  0
 41 36  2  0  0  0  0
 42 37  1  0  0  0  0
M  END
>  <MODEL>
1

>  <REMARK>
 VINA RESULT:      -7.2      0.000      0.000
  Name = 
  10 active torsions:
  status: ('A' for Active; 'I' for Inactive)
    1  A    between atoms: C_1  and  C_24
    2  A    between atoms: C_6  and  C_11
    3  A    between atoms: C_9  and  C_21
    4  A    between atoms: C_13  and  C_28
    5  A    between atoms: C_18  and  C_38
    6  A    between atoms: C_20  and  N_34
    7  A    between atoms: C_21  and  C_35
    8  A    between atoms: C_27  and  C_42
    9  A    between atoms: C_28  and  C_33
   10  A    between atoms: C_33  and  C_35
                            x       y       z     vdW  Elec       q    Type
                         _______ _______ _______ _____ _____    ______ ____

>  <TORSDO>
F 10

$$$$
=
 OpenBabel11042413363D

 42 46  0  0  1  0  0  0  0  0999 V2000
  190.1640  175.4280  144.4490 N   0  0  0  0  0  2  0  0  0  0  0  0
  190.3830  175.7000  143.0400 C   0  0  2  0  0  3  0  0  0  0  0  0
  190.8330  176.5310  145.1470 C   0  0  2  0  0  3  0  0  0  0  0  0
  190.7810  178.0670  144.1200 S   0  0  0  0  0  0  0  0  0  0  0  0
  190.0110  177.1510  142.7560 C   0  0  2  0  0  3  0  0  0  0  0  0
  188.5240  177.4330  142.7440 C   0  0  0  0  0  0  0  0  0  0  0  0
  186.5890  178.2390  141.4780 C   0  0  2  0  0  3  0  0  0  0  0  0
  186.4310  177.7980  143.8740 N   0  0  0  0  0  0  0  0  0  0  0  0
  185.8040  178.0470  142.7560 C   0  0  0  0  0  0  0  0  0  0  0  0
  184.3470  178.2230  142.7250 C   0  0  0  0  0  3  0  0  0  0  0  0
  184.4400  177.9090  140.2940 C   0  0  0  0  0  3  0  0  0  0  0  0
  185.7760  177.8460  140.2710 C   0  0  0  0  0  3  0  0  0  0  0  0
  187.8090  177.4980  141.5450 O   0  0  0  0  0  0  0  0  0  0  0  0
  187.8540  177.5850  143.9000 C   0  0  0  0  0  3  0  0  0  0  0  0
  183.7050  178.2230  141.5450 C   0  0  0  0  0  0  0  0  0  0  0  0
  181.6400  179.0040  142.4360 O   0  0  0  0  0  0  0  0  0  0  0  0
  181.5070  177.9820  140.3450 N   0  0  0  0  0  1  0  0  0  0  0  0
  182.2440  178.4350  141.4880 C   0  0  0  0  0  0  0  0  0  0  0  0
  189.8130  174.6350  142.0770 C   0  0  2  0  0  3  0  0  0  0  0  0
  189.3640  171.9830  144.4310 O   0  0  0  0  0  0  0  0  0  0  0  0
  188.9230  173.5620  142.7380 C   0  0  0  0  0  2  0  0  0  0  0  0
  189.7260  172.4610  143.3630 C   0  0  0  0  0  0  0  0  0  0  0  0
  190.9050  171.8990  142.6080 C   0  0  1  0  0  3  0  0  0  0  0  0
  190.9410  174.0110  141.2560 C   0  0  0  0  0  2  0  0  0  0  0  0
  191.7740  173.0390  142.0940 C   0  0  0  0  0  2  0  0  0  0  0  0
  192.3140  169.6130  141.6960 O   0  0  0  0  0  0  0  0  0  0  0  0
  192.3260  169.8410  142.9400 C   0  0  0  0  0  0  0  0  0  0  0  0
  191.6980  171.0170  143.4530 N   0  0  0  0  0  2  0  0  0  0  0  0
  193.0230  168.9040  143.8860 C   0  0  0  0  0  2  0  0  0  0  0  0
  194.0370  169.6260  144.7830 C   0  0  0  0  0  2  0  0  0  0  0  0
  195.5140  168.1760  143.4650 N   0  0  0  0  0  1  0  0  0  0  0  0
  195.4140  168.9780  144.6710 C   0  0  2  0  0  3  0  0  0  0  0  0
  195.7570  168.1660  145.9200 C   0  0  0  0  0  2  0  0  0  0  0  0
  195.7070  168.9630  147.2160 C   0  0  0  0  0  2  0  0  0  0  0  0
  194.6320  168.5460  148.0000 O   0  0  0  0  0  1  0  0  0  0  0  0
  193.3290  173.9020  145.7710 C   0  0  0  0  0  3  0  0  0  0  0  0
  192.3970  174.8680  146.4160 C   0  0  0  0  0  2  0  0  0  0  0  0
  193.2310  176.9180  145.2920 C   0  0  0  0  0  3  0  0  0  0  0  0
  195.2210  175.5090  145.6640 C   0  0  0  0  0  3  0  0  0  0  0  0
  194.6070  176.6610  145.5990 N   0  0  0  0  0  0  0  0  0  0  0  0
  194.5950  174.1870  145.4770 C   0  0  0  0  0  3  0  0  0  0  0  0
  192.2060  176.1120  145.5940 C   0  0  0  0  0  0  0  0  0  0  0  0
  1  3  1  0  0  0  0
  2  1  1  1  0  0  0
  3 42  1  6  0  0  0
  4  3  1  0  0  0  0
  5  6  1  1  0  0  0
  5  2  1  0  0  0  0
  5  4  1  0  0  0  0
  6 14  2  0  0  0  0
  7 12  1  6  0  0  0
  7 13  1  0  0  0  0
  7  9  1  0  0  0  0
  8 14  1  0  0  0  0
  9  8  2  0  0  0  0
 10  9  1  0  0  0  0
 11 15  1  0  0  0  0
 12 11  2  0  0  0  0
 13  6  1  0  0  0  0
 15 10  2  0  0  0  0
 17 18  1  0  0  0  0
 18 15  1  0  0  0  0
 18 16  2  0  0  0  0
 19 24  1  1  0  0  0
 19 21  1  0  0  0  0
 19  2  1  0  0  0  0
 21 22  1  0  0  0  0
 22 20  2  0  0  0  0
 23 22  1  0  0  0  0
 23 28  1  1  0  0  0
 24 25  1  0  0  0  0
 25 23  1  0  0  0  0
 26 27  2  0  0  0  0
 27 28  1  0  0  0  0
 27 29  1  0  0  0  0
 29 30  1  0  0  0  0
 32 31  1  6  0  0  0
 32 30  1  0  0  0  0
 32 33  1  0  0  0  0
 33 34  1  0  0  0  0
 34 35  1  0  0  0  0
 36 37  1  0  0  0  0
 38 42  2  0  0  0  0
 38 40  1  0  0  0  0
 40 39  2  0  0  0  0
 41 39  1  0  0  0  0
 41 36  2  0  0  0  0
 42 37  1  0  0  0  0
M  END
>  <MODEL>
2

>  <REMARK>
 VINA RESULT:      -7.0      2.765     10.567
  Name = 
  10 active torsions:
  status: ('A' for Active; 'I' for Inactive)
    1  A    between atoms: C_1  and  C_24
    2  A    between atoms: C_6  and  C_11
    3  A    between atoms: C_9  and  C_21
    4  A    between atoms: C_13  and  C_28
    5  A    between atoms: C_18  and  C_38
    6  A    between atoms: C_20  and  N_34
    7  A    between atoms: C_21  and  C_35
    8  A    between atoms: C_27  and  C_42
    9  A    between atoms: C_28  and  C_33
   10  A    between atoms: C_33  and  C_35
                            x       y       z     vdW  Elec       q    Type
                         _______ _______ _______ _____ _____    ______ ____

>  <TORSDO>
F 10

$$$$
=
 OpenBabel11042413363D

 42 46  0  0  1  0  0  0  0  0999 V2000
  189.0050  177.5330  145.1270 N   0  0  0  0  0  2  0  0  0  0  0  0
  188.5940  176.4310  144.2750 C   0  0  2  0  0  3  0  0  0  0  0  0
  188.9120  177.0030  146.4900 C   0  0  2  0  0  3  0  0  0  0  0  0
  189.2550  175.1870  146.4990 S   0  0  0  0  0  0  0  0  0  0  0  0
  189.3610  175.1790  144.6870 C   0  0  2  0  0  3  0  0  0  0  0  0
  190.8160  175.1650  144.2740 C   0  0  0  0  0  0  0  0  0  0  0  0
  192.9860  176.3000  144.3270 C   0  0  2  0  0  3  0  0  0  0  0  0
  192.6180  174.3560  142.8970 N   0  0  0  0  0  0  0  0  0  0  0  0
  193.4730  175.1880  143.4280 C   0  0  0  0  0  0  0  0  0  0  0  0
  194.9040  175.1130  143.1060 C   0  0  0  0  0  3  0  0  0  0  0  0
  195.3380  176.5210  145.0660 C   0  0  0  0  0  3  0  0  0  0  0  0
  194.0390  176.6950  145.3320 C   0  0  0  0  0  3  0  0  0  0  0  0
  191.7760  175.9030  144.9740 O   0  0  0  0  0  0  0  0  0  0  0  0
  191.2210  174.4020  143.2440 C   0  0  0  0  0  3  0  0  0  0  0  0
  195.7860  175.8020  143.8470 C   0  0  0  0  0  0  0  0  0  0  0  0
  197.8310  176.8230  143.1810 O   0  0  0  0  0  0  0  0  0  0  0  0
  197.9400  174.5290  143.5790 N   0  0  0  0  0  1  0  0  0  0  0  0
  197.2270  175.7710  143.5190 C   0  0  0  0  0  0  0  0  0  0  0  0
  188.5520  176.7560  142.7670 C   0  0  2  0  0  3  0  0  0  0  0  0
  186.3700  179.5840  142.8960 O   0  0  0  0  0  0  0  0  0  0  0  0
  188.2360  178.2260  142.4200 C   0  0  0  0  0  2  0  0  0  0  0  0
  186.7660  178.5140  142.4480 C   0  0  0  0  0  0  0  0  0  0  0  0
  185.8140  177.5210  141.8270 C   0  0  1  0  0  3  0  0  0  0  0  0
  187.6140  175.7880  142.0450 C   0  0  0  0  0  2  0  0  0  0  0  0
  186.1460  176.1190  142.3200 C   0  0  0  0  0  2  0  0  0  0  0  0
  183.7300  177.8130  139.9270 O   0  0  0  0  0  0  0  0  0  0  0  0
  183.4450  178.0440  141.1370 C   0  0  0  0  0  0  0  0  0  0  0  0
  184.4320  177.8440  142.1510 N   0  0  0  0  0  2  0  0  0  0  0  0
  182.0680  178.5010  141.5290 C   0  0  0  0  0  2  0  0  0  0  0  0
  181.0490  178.3220  140.3950 C   0  0  0  0  0  2  0  0  0  0  0  0
  179.8660  180.4680  140.2770 N   0  0  0  0  0  1  0  0  0  0  0  0
  179.7630  179.0830  140.7000 C   0  0  2  0  0  3  0  0  0  0  0  0
  179.3760  178.9700  142.1740 C   0  0  0  0  0  2  0  0  0  0  0  0
  178.1880  178.0550  142.4400 C   0  0  0  0  0  2  0  0  0  0  0  0
  178.0950  177.0820  141.4460 O   0  0  0  0  0  1  0  0  0  0  0  0
  186.7310  179.5730  147.9640 C   0  0  0  0  0  3  0  0  0  0  0  0
  187.5790  178.3860  148.2610 C   0  0  0  0  0  2  0  0  0  0  0  0
  186.4930  176.8120  146.6780 C   0  0  0  0  0  3  0  0  0  0  0  0
  184.6770  178.2390  147.5450 C   0  0  0  0  0  3  0  0  0  0  0  0
  185.1640  177.0980  147.1300 N   0  0  0  0  0  0  0  0  0  0  0  0
  185.4330  179.4980  147.6840 C   0  0  0  0  0  3  0  0  0  0  0  0
  187.6080  177.4050  147.1210 C   0  0  0  0  0  0  0  0  0  0  0  0
  1  3  1  0  0  0  0
  2  5  1  0  0  0  0
  2  1  1  1  0  0  0
  3  4  1  0  0  0  0
  3 42  1  6  0  0  0
  5  6  1  1  0  0  0
  5  4  1  0  0  0  0
  6 13  1  0  0  0  0
  7 13  1  0  0  0  0
  7 12  1  1  0  0  0
  8 14  1  0  0  0  0
  8  9  2  0  0  0  0
  9  7  1  0  0  0  0
 10  9  1  0  0  0  0
 10 15  2  0  0  0  0
 11 12  2  0  0  0  0
 14  6  2  0  0  0  0
 15 11  1  0  0  0  0
 16 18  2  0  0  0  0
 18 17  1  0  0  0  0
 18 15  1  0  0  0  0
 19 24  1  6  0  0  0
 19  2  1  0  0  0  0
 21 22  1  0  0  0  0
 21 19  1  0  0  0  0
 22 20  2  0  0  0  0
 23 28  1  1  0  0  0
 23 25  1  0  0  0  0
 23 22  1  0  0  0  0
 24 25  1  0  0  0  0
 26 27  2  0  0  0  0
 27 29  1  0  0  0  0
 27 28  1  0  0  0  0
 30 32  1  0  0  0  0
 30 29  1  0  0  0  0
 32 31  1  1  0  0  0
 32 33  1  0  0  0  0
 33 34  1  0  0  0  0
 35 34  1  0  0  0  0
 36 37  1  0  0  0  0
 38 42  2  0  0  0  0
 38 40  1  0  0  0  0
 39 41  1  0  0  0  0
 40 39  2  0  0  0  0
 41 36  2  0  0  0  0
 42 37  1  0  0  0  0
M  END
>  <MODEL>
3

>  <REMARK>
 VINA RESULT:      -6.7      3.682      6.435
  Name = 
  10 active torsions:
  status: ('A' for Active; 'I' for Inactive)
    1  A    between atoms: C_1  and  C_24
    2  A    between atoms: C_6  and  C_11
    3  A    between atoms: C_9  and  C_21
    4  A    between atoms: C_13  and  C_28
    5  A    between atoms: C_18  and  C_38
    6  A    between atoms: C_20  and  N_34
    7  A    between atoms: C_21  and  C_35
    8  A    between atoms: C_27  and  C_42
    9  A    between atoms: C_28  and  C_33
   10  A    between atoms: C_33  and  C_35
                            x       y       z     vdW  Elec       q    Type
                         _______ _______ _______ _____ _____    ______ ____

>  <TORSDO>
F 10

$$$$
=
 OpenBabel11042413363D

 42 46  0  0  1  0  0  0  0  0999 V2000
  189.7640  175.5130  144.2900 N   0  0  0  0  0  2  0  0  0  0  0  0
  190.1740  175.6280  142.9020 C   0  0  2  0  0  3  0  0  0  0  0  0
  190.3190  176.7040  144.9410 C   0  0  2  0  0  3  0  0  0  0  0  0
  190.3960  178.1120  143.7460 S   0  0  0  0  0  0  0  0  0  0  0  0
  189.8320  177.0280  142.4040 C   0  0  2  0  0  3  0  0  0  0  0  0
  188.3580  177.2680  142.1560 C   0  0  0  0  0  0  0  0  0  0  0  0
  186.1080  177.4370  143.1080 C   0  0  2  0  0  3  0  0  0  0  0  0
  186.4530  177.3980  140.6910 N   0  0  0  0  0  0  0  0  0  0  0  0
  185.6310  177.6110  141.6840 C   0  0  0  0  0  0  0  0  0  0  0  0
  184.2220  177.9430  141.4450 C   0  0  0  0  0  3  0  0  0  0  0  0
  184.0890  178.7040  143.7730 C   0  0  0  0  0  3  0  0  0  0  0  0
  185.3380  178.3210  144.0560 C   0  0  0  0  0  3  0  0  0  0  0  0
  187.5110  177.6960  143.1820 O   0  0  0  0  0  0  0  0  0  0  0  0
  187.8440  177.1130  140.9230 C   0  0  0  0  0  3  0  0  0  0  0  0
  183.4690  178.4020  142.4570 C   0  0  0  0  0  0  0  0  0  0  0  0
  181.4080  179.4220  143.0730 O   0  0  0  0  0  0  0  0  0  0  0  0
  181.3620  178.1820  141.1000 N   0  0  0  0  0  1  0  0  0  0  0  0
  182.0380  178.7080  142.2490 C   0  0  0  0  0  0  0  0  0  0  0  0
  189.7540  174.4470  142.0010 C   0  0  2  0  0  3  0  0  0  0  0  0
  189.4340  171.9410  144.5300 O   0  0  0  0  0  0  0  0  0  0  0  0
  188.9350  173.3440  142.7030 C   0  0  0  0  0  2  0  0  0  0  0  0
  189.8040  172.3740  143.4450 C   0  0  0  0  0  0  0  0  0  0  0  0
  191.0660  171.8730  142.7880 C   0  0  1  0  0  3  0  0  0  0  0  0
  190.9750  173.8760  141.2790 C   0  0  0  0  0  2  0  0  0  0  0  0
  191.8510  173.0510  142.2250 C   0  0  0  0  0  2  0  0  0  0  0  0
  192.2130  169.3270  142.2940 O   0  0  0  0  0  0  0  0  0  0  0  0
  192.3830  169.8240  143.4440 C   0  0  0  0  0  0  0  0  0  0  0  0
  191.8930  171.1350  143.7320 N   0  0  0  0  0  2  0  0  0  0  0  0
  193.1230  169.0630  144.5080 C   0  0  0  0  0  2  0  0  0  0  0  0
  194.6340  169.0140  144.2470 C   0  0  0  0  0  2  0  0  0  0  0  0
  194.9650  169.0450  146.6780 N   0  0  0  0  0  1  0  0  0  0  0  0
  195.4040  169.6170  145.4180 C   0  0  2  0  0  3  0  0  0  0  0  0
  195.3110  171.1430  145.4280 C   0  0  0  0  0  2  0  0  0  0  0  0
  196.0660  171.8210  144.2920 C   0  0  0  0  0  2  0  0  0  0  0  0
  195.1690  172.3640  143.3720 O   0  0  0  0  0  1  0  0  0  0  0  0
  192.8000  174.2340  146.0690 C   0  0  0  0  0  3  0  0  0  0  0  0
  191.7340  175.1730  146.5140 C   0  0  0  0  0  2  0  0  0  0  0  0
  192.6430  177.2210  145.4450 C   0  0  0  0  0  3  0  0  0  0  0  0
  194.6100  175.9320  146.1890 C   0  0  0  0  0  3  0  0  0  0  0  0
  193.9630  177.0480  145.9760 N   0  0  0  0  0  0  0  0  0  0  0  0
  194.0820  174.5730  145.9650 C   0  0  0  0  0  3  0  0  0  0  0  0
  191.6200  176.3750  145.6170 C   0  0  0  0  0  0  0  0  0  0  0  0
  1  3  1  0  0  0  0
  2  1  1  1  0  0  0
  3 42  1  6  0  0  0
  4  3  1  0  0  0  0
  5  6  1  1  0  0  0
  5  2  1  0  0  0  0
  5  4  1  0  0  0  0
  6 13  1  0  0  0  0
  7 13  1  0  0  0  0
  7 12  1  1  0  0  0
  8 14  1  0  0  0  0
  8  9  2  0  0  0  0
  9  7  1  0  0  0  0
 10  9  1  0  0  0  0
 10 15  2  0  0  0  0
 11 12  2  0  0  0  0
 14  6  2  0  0  0  0
 15 11  1  0  0  0  0
 17 18  1  0  0  0  0
 18 15  1  0  0  0  0
 18 16  2  0  0  0  0
 19 24  1  1  0  0  0
 19 21  1  0  0  0  0
 19  2  1  0  0  0  0
 21 22  1  0  0  0  0
 22 20  2  0  0  0  0
 23 22  1  0  0  0  0
 23 28  1  1  0  0  0
 24 25  1  0  0  0  0
 25 23  1  0  0  0  0
 26 27  2  0  0  0  0
 27 28  1  0  0  0  0
 27 29  1  0  0  0  0
 30 29  1  0  0  0  0
 30 32  1  0  0  0  0
 32 33  1  0  0  0  0
 32 31  1  1  0  0  0
 34 33  1  0  0  0  0
 35 34  1  0  0  0  0
 36 37  1  0  0  0  0
 38 42  2  0  0  0  0
 38 40  1  0  0  0  0
 40 39  2  0  0  0  0
 41 36  2  0  0  0  0
 41 39  1  0  0  0  0
 42 37  1  0  0  0  0
M  END
>  <MODEL>
4

>  <REMARK>
 VINA RESULT:      -6.7      2.512     10.325
  Name = 
  10 active torsions:
  status: ('A' for Active; 'I' for Inactive)
    1  A    between atoms: C_1  and  C_24
    2  A    between atoms: C_6  and  C_11
    3  A    between atoms: C_9  and  C_21
    4  A    between atoms: C_13  and  C_28
    5  A    between atoms: C_18  and  C_38
    6  A    between atoms: C_20  and  N_34
    7  A    between atoms: C_21  and  C_35
    8  A    between atoms: C_27  and  C_42
    9  A    between atoms: C_28  and  C_33
   10  A    between atoms: C_33  and  C_35
                            x       y       z     vdW  Elec       q    Type
                         _______ _______ _______ _____ _____    ______ ____

>  <TORSDO>
F 10

$$$$
=
 OpenBabel11042413363D

 42 46  0  0  1  0  0  0  0  0999 V2000
  191.1020  174.9930  142.5100 N   0  0  0  0  0  2  0  0  0  0  0  0
  189.9160  174.1610  142.5880 C   0  0  2  0  0  3  0  0  0  0  0  0
  191.9150  174.5890  143.6610 C   0  0  2  0  0  3  0  0  0  0  0  0
  191.6320  172.8050  144.0530 S   0  0  0  0  0  0  0  0  0  0  0  0
  190.3450  172.7100  142.7770 C   0  0  2  0  0  3  0  0  0  0  0  0
  190.9200  172.0540  141.5400 C   0  0  0  0  0  0  0  0  0  0  0  0
  190.5200  170.6300  139.5870 C   0  0  2  0  0  3  0  0  0  0  0  0
  192.7830  171.2980  140.2170 N   0  0  0  0  0  0  0  0  0  0  0  0
  192.0010  170.7630  139.3170 C   0  0  0  0  0  0  0  0  0  0  0  0
  192.5460  170.2150  138.0690 C   0  0  0  0  0  3  0  0  0  0  0  0
  190.2700  170.2500  137.1540 C   0  0  0  0  0  3  0  0  0  0  0  0
  189.7250  170.6530  138.3070 C   0  0  0  0  0  3  0  0  0  0  0  0
  190.0980  171.6640  140.4790 O   0  0  0  0  0  0  0  0  0  0  0  0
  192.2470  171.8730  141.4230 C   0  0  0  0  0  3  0  0  0  0  0  0
  191.7120  169.9080  137.0620 C   0  0  0  0  0  0  0  0  0  0  0  0
  191.5340  168.5180  135.1380 O   0  0  0  0  0  0  0  0  0  0  0  0
  193.5510  169.6640  135.3620 N   0  0  0  0  0  1  0  0  0  0  0  0
  192.2340  169.3210  135.8100 C   0  0  0  0  0  0  0  0  0  0  0  0
  188.8560  174.4360  141.4990 C   0  0  2  0  0  3  0  0  0  0  0  0
  188.6520  177.9880  141.8470 O   0  0  0  0  0  0  0  0  0  0  0  0
  188.8980  175.8500  140.8840 C   0  0  0  0  0  2  0  0  0  0  0  0
  188.1850  176.8610  141.7300 C   0  0  0  0  0  0  0  0  0  0  0  0
  186.8510  176.4960  142.3350 C   0  0  1  0  0  3  0  0  0  0  0  0
  187.4620  174.0840  142.0190 C   0  0  0  0  0  2  0  0  0  0  0  0
  186.9510  175.1330  143.0080 C   0  0  0  0  0  2  0  0  0  0  0  0
  184.5600  178.1440  142.0600 O   0  0  0  0  0  0  0  0  0  0  0  0
  185.2950  178.3400  143.0700 C   0  0  0  0  0  0  0  0  0  0  0  0
  186.4230  177.4950  143.3040 N   0  0  0  0  0  2  0  0  0  0  0  0
  184.9800  179.4370  144.0480 C   0  0  0  0  0  2  0  0  0  0  0  0
  183.8820  179.0350  145.0420 C   0  0  0  0  0  2  0  0  0  0  0  0
  185.6810  179.4400  146.6620 N   0  0  0  0  0  1  0  0  0  0  0  0
  184.4890  178.6560  146.3910 C   0  0  2  0  0  3  0  0  0  0  0  0
  184.7650  177.1560  146.4830 C   0  0  0  0  0  2  0  0  0  0  0  0
  186.2430  176.7970  146.5600 C   0  0  0  0  0  2  0  0  0  0  0  0
  186.5770  176.3980  147.8530 O   0  0  0  0  0  1  0  0  0  0  0  0
  190.0250  177.3150  145.2510 C   0  0  0  0  0  3  0  0  0  0  0  0
  191.2980  176.9610  144.5650 C   0  0  0  0  0  2  0  0  0  0  0  0
  191.9480  175.0770  146.0450 C   0  0  0  0  0  3  0  0  0  0  0  0
  190.8650  176.7340  147.5170 C   0  0  0  0  0  3  0  0  0  0  0  0
  191.7610  175.8180  147.2570 N   0  0  0  0  0  0  0  0  0  0  0  0
  189.8580  177.2460  146.5690 C   0  0  0  0  0  3  0  0  0  0  0  0
  191.7020  175.5330  144.8110 C   0  0  0  0  0  0  0  0  0  0  0  0
  1  3  1  0  0  0  0
  2  1  1  6  0  0  0
  2  5  1  0  0  0  0
  3  4  1  0  0  0  0
  3 42  1  1  0  0  0
  5  6  1  6  0  0  0
  5  4  1  0  0  0  0
  7 12  1  6  0  0  0
  7 13  1  0  0  0  0
  8 14  1  0  0  0  0
  9  7  1  0  0  0  0
  9  8  2  0  0  0  0
 10  9  1  0  0  0  0
 11 12  2  0  0  0  0
 13  6  1  0  0  0  0
 14  6  2  0  0  0  0
 15 11  1  0  0  0  0
 15 10  2  0  0  0  0
 16 18  2  0  0  0  0
 17 18  1  0  0  0  0
 18 15  1  0  0  0  0
 19 21  1  1  0  0  0
 19 24  1  0  0  0  0
 19  2  1  0  0  0  0
 21 22  1  0  0  0  0
 22 20  2  0  0  0  0
 22 23  1  0  0  0  0
 23 25  1  0  0  0  0
 23 28  1  1  0  0  0
 24 25  1  0  0  0  0
 26 27  2  0  0  0  0
 27 28  1  0  0  0  0
 27 29  1  0  0  0  0
 29 30  1  0  0  0  0
 30 32  1  0  0  0  0
 32 33  1  0  0  0  0
 32 31  1  6  0  0  0
 33 34  1  0  0  0  0
 34 35  1  0  0  0  0
 36 41  2  0  0  0  0
 37 42  1  0  0  0  0
 37 36  1  0  0  0  0
 38 40  1  0  0  0  0
 40 39  2  0  0  0  0
 41 39  1  0  0  0  0
 42 38  2  0  0  0  0
M  END
>  <MODEL>
5

>  <REMARK>
 VINA RESULT:      -6.5      3.639      6.292
  Name = 
  10 active torsions:
  status: ('A' for Active; 'I' for Inactive)
    1  A    between atoms: C_1  and  C_24
    2  A    between atoms: C_6  and  C_11
    3  A    between atoms: C_9  and  C_21
    4  A    between atoms: C_13  and  C_28
    5  A    between atoms: C_18  and  C_38
    6  A    between atoms: C_20  and  N_34
    7  A    between atoms: C_21  and  C_35
    8  A    between atoms: C_27  and  C_42
    9  A    between atoms: C_28  and  C_33
   10  A    between atoms: C_33  and  C_35
                            x       y       z     vdW  Elec       q    Type
                         _______ _______ _______ _____ _____    ______ ____

>  <TORSDO>
F 10

$$$$
=
 OpenBabel11042413363D

 42 46  0  0  1  0  0  0  0  0999 V2000
  189.7900  175.4150  144.8370 N   0  0  0  0  0  2  0  0  0  0  0  0
  189.9620  175.4640  143.3960 C   0  0  2  0  0  3  0  0  0  0  0  0
  190.5470  176.5660  145.3390 C   0  0  2  0  0  3  0  0  0  0  0  0
  190.5350  177.9350  144.0980 S   0  0  0  0  0  0  0  0  0  0  0  0
  189.6580  176.8770  142.9120 C   0  0  2  0  0  3  0  0  0  0  0  0
  188.1900  177.2430  142.9100 C   0  0  0  0  0  0  0  0  0  0  0  0
  186.3070  178.2100  141.6760 C   0  0  2  0  0  3  0  0  0  0  0  0
  186.1150  177.6790  144.0520 N   0  0  0  0  0  0  0  0  0  0  0  0
  185.5090  178.0100  142.9440 C   0  0  0  0  0  0  0  0  0  0  0  0
  184.0640  178.2690  142.9180 C   0  0  0  0  0  3  0  0  0  0  0  0
  184.1490  178.0530  140.4760 C   0  0  0  0  0  3  0  0  0  0  0  0
  185.4780  177.9150  140.4520 C   0  0  0  0  0  3  0  0  0  0  0  0
  187.4830  177.3990  141.7140 O   0  0  0  0  0  0  0  0  0  0  0  0
  187.5240  177.3850  144.0710 C   0  0  0  0  0  3  0  0  0  0  0  0
  183.4270  178.3550  141.7390 C   0  0  0  0  0  0  0  0  0  0  0  0
  181.4070  179.2170  142.6570 O   0  0  0  0  0  0  0  0  0  0  0  0
  181.2230  178.2860  140.5280 N   0  0  0  0  0  1  0  0  0  0  0  0
  181.9800  178.6510  141.6880 C   0  0  0  0  0  0  0  0  0  0  0  0
  189.2950  174.3060  142.6230 C   0  0  2  0  0  3  0  0  0  0  0  0
  191.0620  171.5840  144.1210 O   0  0  0  0  0  0  0  0  0  0  0  0
  189.2990  172.9440  143.3480 C   0  0  0  0  0  2  0  0  0  0  0  0
  190.5960  172.2120  143.1770 C   0  0  0  0  0  0  0  0  0  0  0  0
  191.2450  172.1830  141.8160 C   0  0  1  0  0  3  0  0  0  0  0  0
  189.8840  174.2030  141.2160 C   0  0  0  0  0  2  0  0  0  0  0  0
  191.2870  173.5920  141.2390 C   0  0  0  0  0  2  0  0  0  0  0  0
  192.6000  170.9190  139.6700 O   0  0  0  0  0  0  0  0  0  0  0  0
  193.1920  170.9530  140.7870 C   0  0  0  0  0  0  0  0  0  0  0  0
  192.5940  171.6390  141.8880 N   0  0  0  0  0  2  0  0  0  0  0  0
  194.5360  170.3020  140.9650 C   0  0  0  0  0  2  0  0  0  0  0  0
  195.3880  171.0060  142.0280 C   0  0  0  0  0  2  0  0  0  0  0  0
  197.5780  171.7340  141.1950 N   0  0  0  0  0  1  0  0  0  0  0  0
  196.2000  172.1390  141.4060 C   0  0  2  0  0  3  0  0  0  0  0  0
  196.1080  173.4200  142.2340 C   0  0  0  0  0  2  0  0  0  0  0  0
  194.9180  174.3050  141.8850 C   0  0  0  0  0  2  0  0  0  0  0  0
  194.8680  174.5270  140.5090 O   0  0  0  0  0  1  0  0  0  0  0  0
  193.1010  173.9520  145.7630 C   0  0  0  0  0  3  0  0  0  0  0  0
  192.1110  174.8080  146.4740 C   0  0  0  0  0  2  0  0  0  0  0  0
  192.9230  176.9990  145.6370 C   0  0  0  0  0  3  0  0  0  0  0  0
  194.9420  175.6120  145.9310 C   0  0  0  0  0  3  0  0  0  0  0  0
  194.2930  176.7470  145.9730 N   0  0  0  0  0  0  0  0  0  0  0  0
  194.3670  174.3050  145.5610 C   0  0  0  0  0  3  0  0  0  0  0  0
  191.9130  176.1360  145.7950 C   0  0  0  0  0  0  0  0  0  0  0  0
  1  3  1  0  0  0  0
  2  1  1  1  0  0  0
  3 42  1  6  0  0  0
  4  3  1  0  0  0  0
  5  6  1  1  0  0  0
  5  2  1  0  0  0  0
  5  4  1  0  0  0  0
  6 14  2  0  0  0  0
  7 12  1  6  0  0  0
  7 13  1  0  0  0  0
  7  9  1  0  0  0  0
  8 14  1  0  0  0  0
  9  8  2  0  0  0  0
 10  9  1  0  0  0  0
 11 15  1  0  0  0  0
 12 11  2  0  0  0  0
 13  6  1  0  0  0  0
 15 10  2  0  0  0  0
 17 18  1  0  0  0  0
 18 15  1  0  0  0  0
 18 16  2  0  0  0  0
 19 24  1  6  0  0  0
 19 21  1  0  0  0  0
 19  2  1  0  0  0  0
 22 21  1  0  0  0  0
 22 20  2  0  0  0  0
 23 28  1  1  0  0  0
 23 22  1  0  0  0  0
 24 25  1  0  0  0  0
 25 23  1  0  0  0  0
 26 27  2  0  0  0  0
 27 29  1  0  0  0  0
 27 28  1  0  0  0  0
 29 30  1  0  0  0  0
 32 31  1  1  0  0  0
 32 30  1  0  0  0  0
 32 33  1  0  0  0  0
 34 33  1  0  0  0  0
 35 34  1  0  0  0  0
 36 37  1  0  0  0  0
 38 42  2  0  0  0  0
 38 40  1  0  0  0  0
 39 40  2  0  0  0  0
 41 36  2  0  0  0  0
 41 39  1  0  0  0  0
 42 37  1  0  0  0  0
M  END
>  <MODEL>
6

>  <REMARK>
 VINA RESULT:      -6.4      3.363     10.439
  Name = 
  10 active torsions:
  status: ('A' for Active; 'I' for Inactive)
    1  A    between atoms: C_1  and  C_24
    2  A    between atoms: C_6  and  C_11
    3  A    between atoms: C_9  and  C_21
    4  A    between atoms: C_13  and  C_28
    5  A    between atoms: C_18  and  C_38
    6  A    between atoms: C_20  and  N_34
    7  A    between atoms: C_21  and  C_35
    8  A    between atoms: C_27  and  C_42
    9  A    between atoms: C_28  and  C_33
   10  A    between atoms: C_33  and  C_35
                            x       y       z     vdW  Elec       q    Type
                         _______ _______ _______ _____ _____    ______ ____

>  <TORSDO>
F 10

$$$$
=
 OpenBabel11042413363D

 42 46  0  0  1  0  0  0  0  0999 V2000
  191.4550  174.0510  143.4380 N   0  0  0  0  0  2  0  0  0  0  0  0
  191.6860  173.9930  144.8710 C   0  0  2  0  0  3  0  0  0  0  0  0
  190.7490  172.8050  143.1260 C   0  0  2  0  0  3  0  0  0  0  0  0
  189.7170  172.2730  144.5640 S   0  0  0  0  0  0  0  0  0  0  0  0
  190.3760  173.6350  145.5650 C   0  0  2  0  0  3  0  0  0  0  0  0
  189.3600  174.7550  145.6130 C   0  0  0  0  0  0  0  0  0  0  0  0
  188.2820  176.6130  144.4350 C   0  0  2  0  0  3  0  0  0  0  0  0
  187.9250  176.2600  146.8250 N   0  0  0  0  0  0  0  0  0  0  0  0
  187.5590  176.8800  145.7350 C   0  0  0  0  0  0  0  0  0  0  0  0
  186.5010  177.8980  145.7610 C   0  0  0  0  0  3  0  0  0  0  0  0
  186.3510  177.6890  143.3210 C   0  0  0  0  0  3  0  0  0  0  0  0
  187.3790  176.8360  143.2490 C   0  0  0  0  0  3  0  0  0  0  0  0
  188.8100  175.2850  144.4420 O   0  0  0  0  0  0  0  0  0  0  0  0
  188.9330  175.2330  146.7950 C   0  0  0  0  0  3  0  0  0  0  0  0
  185.9720  178.3320  144.6050 C   0  0  0  0  0  0  0  0  0  0  0  0
  185.1770  180.5270  144.1420 O   0  0  0  0  0  0  0  0  0  0  0  0
  183.6350  179.0950  145.1430 N   0  0  0  0  0  1  0  0  0  0  0  0
  184.9320  179.3820  144.6050 C   0  0  0  0  0  0  0  0  0  0  0  0
  192.4770  175.1850  145.4500 C   0  0  2  0  0  3  0  0  0  0  0  0
  193.8490  176.4410  142.3980 O   0  0  0  0  0  0  0  0  0  0  0  0
  192.7260  176.3480  144.4680 C   0  0  0  0  0  2  0  0  0  0  0  0
  193.9020  176.0970  143.5730 C   0  0  0  0  0  0  0  0  0  0  0  0
  195.1620  175.5190  144.1680 C   0  0  1  0  0  3  0  0  0  0  0  0
  193.7770  174.6940  146.0890 C   0  0  0  0  0  2  0  0  0  0  0  0
  194.8140  174.3130  145.0310 C   0  0  0  0  0  2  0  0  0  0  0  0
  197.2330  177.1670  143.1500 O   0  0  0  0  0  0  0  0  0  0  0  0
  197.0800  176.0320  142.6120 C   0  0  0  0  0  0  0  0  0  0  0  0
  196.1030  175.1270  143.1280 N   0  0  0  0  0  2  0  0  0  0  0  0
  197.9370  175.6100  141.4510 C   0  0  0  0  0  2  0  0  0  0  0  0
  197.1730  175.6420  140.1210 C   0  0  0  0  0  2  0  0  0  0  0  0
  197.9160  173.3070  140.2630 N   0  0  0  0  0  1  0  0  0  0  0  0
  197.2440  174.2850  139.4260 C   0  0  2  0  0  3  0  0  0  0  0  0
  197.8960  174.3910  138.0480 C   0  0  0  0  0  2  0  0  0  0  0  0
  197.2620  175.4340  137.1360 C   0  0  0  0  0  2  0  0  0  0  0  0
  196.6310  174.8150  136.0580 O   0  0  0  0  0  1  0  0  0  0  0  0
  193.9560  171.0210  143.3870 C   0  0  0  0  0  3  0  0  0  0  0  0
  193.1920  172.0380  142.6120 C   0  0  0  0  0  2  0  0  0  0  0  0
  191.2040  170.6380  142.1160 C   0  0  0  0  0  3  0  0  0  0  0  0
  193.1320  169.1010  142.0420 C   0  0  0  0  0  3  0  0  0  0  0  0
  191.9670  169.5280  141.6280 N   0  0  0  0  0  0  0  0  0  0  0  0
  193.9500  169.7220  143.1000 C   0  0  0  0  0  3  0  0  0  0  0  0
  191.7130  171.7690  142.6190 C   0  0  0  0  0  0  0  0  0  0  0  0
  2  1  1  6  0  0  0
  2 19  1  0  0  0  0
  2  5  1  0  0  0  0
  3 42  1  1  0  0  0
  3  1  1  0  0  0  0
  3  4  1  0  0  0  0
  4  5  1  0  0  0  0
  5  6  1  6  0  0  0
  6 14  2  0  0  0  0
  7 12  1  6  0  0  0
  7 13  1  0  0  0  0
  7  9  1  0  0  0  0
  9 10  1  0  0  0  0
  9  8  2  0  0  0  0
 11 15  1  0  0  0  0
 12 11  2  0  0  0  0
 13  6  1  0  0  0  0
 14  8  1  0  0  0  0
 15 10  2  0  0  0  0
 16 18  2  0  0  0  0
 18 15  1  0  0  0  0
 18 17  1  0  0  0  0
 19 21  1  6  0  0  0
 19 24  1  0  0  0  0
 20 22  2  0  0  0  0
 22 23  1  0  0  0  0
 22 21  1  0  0  0  0
 23 28  1  6  0  0  0
 23 25  1  0  0  0  0
 25 24  1  0  0  0  0
 27 28  1  0  0  0  0
 27 26  2  0  0  0  0
 29 27  1  0  0  0  0
 30 29  1  0  0  0  0
 32 30  1  0  0  0  0
 32 31  1  1  0  0  0
 33 32  1  0  0  0  0
 34 33  1  0  0  0  0
 35 34  1  0  0  0  0
 37 42  1  0  0  0  0
 37 36  1  0  0  0  0
 38 42  2  0  0  0  0
 39 41  1  0  0  0  0
 40 39  2  0  0  0  0
 40 38  1  0  0  0  0
 41 36  2  0  0  0  0
M  END
>  <MODEL>
7

>  <REMARK>
 VINA RESULT:      -6.3      3.367      9.688
  Name = 
  10 active torsions:
  status: ('A' for Active; 'I' for Inactive)
    1  A    between atoms: C_1  and  C_24
    2  A    between atoms: C_6  and  C_11
    3  A    between atoms: C_9  and  C_21
    4  A    between atoms: C_13  and  C_28
    5  A    between atoms: C_18  and  C_38
    6  A    between atoms: C_20  and  N_34
    7  A    between atoms: C_21  and  C_35
    8  A    between atoms: C_27  and  C_42
    9  A    between atoms: C_28  and  C_33
   10  A    between atoms: C_33  and  C_35
                            x       y       z     vdW  Elec       q    Type
                         _______ _______ _______ _____ _____    ______ ____

>  <TORSDO>
F 10

$$$$
=
 OpenBabel11042413363D

 42 46  0  0  1  0  0  0  0  0999 V2000
  191.6490  173.7110  144.5340 N   0  0  0  0  0  2  0  0  0  0  0  0
  191.5400  174.1030  143.1400 C   0  0  2  0  0  3  0  0  0  0  0  0
  192.7790  174.4910  145.0510 C   0  0  2  0  0  3  0  0  0  0  0  0
  192.9000  176.1100  144.1680 S   0  0  0  0  0  0  0  0  0  0  0  0
  191.5490  175.6260  143.0570 C   0  0  2  0  0  3  0  0  0  0  0  0
  190.2680  176.2910  143.5110 C   0  0  0  0  0  0  0  0  0  0  0  0
  188.2900  176.1890  144.9520 C   0  0  2  0  0  3  0  0  0  0  0  0
  188.4970  177.8960  143.2180 N   0  0  0  0  0  0  0  0  0  0  0  0
  187.8580  177.4690  144.2740 C   0  0  0  0  0  0  0  0  0  0  0  0
  186.6710  178.1710  144.7780 C   0  0  0  0  0  3  0  0  0  0  0  0
  186.9300  176.9350  146.8800 C   0  0  0  0  0  3  0  0  0  0  0  0
  187.9510  176.2040  146.4210 C   0  0  0  0  0  3  0  0  0  0  0  0
  189.6880  175.9810  144.7450 O   0  0  0  0  0  0  0  0  0  0  0  0
  189.6840  177.2320  142.7470 C   0  0  0  0  0  3  0  0  0  0  0  0
  186.1900  177.8690  145.9940 C   0  0  0  0  0  0  0  0  0  0  0  0
  184.7870  178.6660  147.7450 O   0  0  0  0  0  0  0  0  0  0  0  0
  183.9990  179.0360  145.5830 N   0  0  0  0  0  1  0  0  0  0  0  0
  184.9750  178.5370  146.5060 C   0  0  0  0  0  0  0  0  0  0  0  0
  190.4400  173.3700  142.3430 C   0  0  2  0  0  3  0  0  0  0  0  0
  192.0540  170.1970  142.0160 O   0  0  0  0  0  0  0  0  0  0  0  0
  190.4290  171.8350  142.4990 C   0  0  0  0  0  2  0  0  0  0  0  0
  191.4250  171.1640  141.6020 C   0  0  0  0  0  0  0  0  0  0  0  0
  191.5530  171.6320  140.1730 C   0  0  1  0  0  3  0  0  0  0  0  0
  190.4850  173.7910  140.8740 C   0  0  0  0  0  2  0  0  0  0  0  0
  191.6660  173.1510  140.1420 C   0  0  0  0  0  2  0  0  0  0  0  0
  191.7900  171.1510  137.3890 O   0  0  0  0  0  0  0  0  0  0  0  0
  192.7400  170.7600  138.1260 C   0  0  0  0  0  0  0  0  0  0  0  0
  192.7140  171.0380  139.5270 N   0  0  0  0  0  2  0  0  0  0  0  0
  193.9160  170.0280  137.5400 C   0  0  0  0  0  2  0  0  0  0  0  0
  195.2330  170.7900  137.7370 C   0  0  0  0  0  2  0  0  0  0  0  0
  195.7090  172.2210  135.8010 N   0  0  0  0  0  1  0  0  0  0  0  0
  195.1410  172.1900  137.1370 C   0  0  2  0  0  3  0  0  0  0  0  0
  195.7810  173.2370  138.0470 C   0  0  0  0  0  2  0  0  0  0  0  0
  194.8270  174.3290  138.5110 C   0  0  0  0  0  2  0  0  0  0  0  0
  195.5160  175.2960  139.2410 O   0  0  0  0  0  1  0  0  0  0  0  0
  196.3950  174.1630  145.6410 C   0  0  0  0  0  3  0  0  0  0  0  0
  195.3410  174.2660  144.5940 C   0  0  0  0  0  2  0  0  0  0  0  0
  193.9350  172.3730  145.3680 C   0  0  0  0  0  3  0  0  0  0  0  0
  196.2650  171.6870  145.7970 C   0  0  0  0  0  3  0  0  0  0  0  0
  195.0270  171.4490  145.4500 N   0  0  0  0  0  0  0  0  0  0  0  0
  196.8240  173.0080  146.1400 C   0  0  0  0  0  3  0  0  0  0  0  0
  194.0350  173.6660  145.0380 C   0  0  0  0  0  0  0  0  0  0  0  0
  1  3  1  0  0  0  0
  2  1  1  1  0  0  0
  3 42  1  6  0  0  0
  4  3  1  0  0  0  0
  5  2  1  0  0  0  0
  5  6  1  1  0  0  0
  5  4  1  0  0  0  0
  6 13  1  0  0  0  0
  7 12  1  1  0  0  0
  8  9  2  0  0  0  0
  9 10  1  0  0  0  0
  9  7  1  0  0  0  0
 10 15  2  0  0  0  0
 12 11  2  0  0  0  0
 13  7  1  0  0  0  0
 14  8  1  0  0  0  0
 14  6  2  0  0  0  0
 15 18  1  0  0  0  0
 15 11  1  0  0  0  0
 17 18  1  0  0  0  0
 18 16  2  0  0  0  0
 19 24  1  6  0  0  0
 19 21  1  0  0  0  0
 19  2  1  0  0  0  0
 22 20  2  0  0  0  0
 22 21  1  0  0  0  0
 23 28  1  1  0  0  0
 23 22  1  0  0  0  0
 25 23  1  0  0  0  0
 25 24  1  0  0  0  0
 26 27  2  0  0  0  0
 27 28  1  0  0  0  0
 29 30  1  0  0  0  0
 29 27  1  0  0  0  0
 32 31  1  6  0  0  0
 32 30  1  0  0  0  0
 32 33  1  0  0  0  0
 33 34  1  0  0  0  0
 34 35  1  0  0  0  0
 36 41  2  0  0  0  0
 37 42  1  0  0  0  0
 37 36  1  0  0  0  0
 38 40  1  0  0  0  0
 39 41  1  0  0  0  0
 40 39  2  0  0  0  0
 42 38  2  0  0  0  0
M  END
>  <MODEL>
8

>  <REMARK>
 VINA RESULT:      -6.2      3.482     10.006
  Name = 
  10 active torsions:
  status: ('A' for Active; 'I' for Inactive)
    1  A    between atoms: C_1  and  C_24
    2  A    between atoms: C_6  and  C_11
    3  A    between atoms: C_9  and  C_21
    4  A    between atoms: C_13  and  C_28
    5  A    between atoms: C_18  and  C_38
    6  A    between atoms: C_20  and  N_34
    7  A    between atoms: C_21  and  C_35
    8  A    between atoms: C_27  and  C_42
    9  A    between atoms: C_28  and  C_33
   10  A    between atoms: C_33  and  C_35
                            x       y       z     vdW  Elec       q    Type
                         _______ _______ _______ _____ _____    ______ ____

>  <TORSDO>
F 10

$$$$
=
 OpenBabel11042413363D

 42 46  0  0  1  0  0  0  0  0999 V2000
  191.4880  173.1900  144.7640 N   0  0  0  0  0  2  0  0  0  0  0  0
  191.1820  173.6750  143.4300 C   0  0  2  0  0  3  0  0  0  0  0  0
  192.7470  173.8540  145.1200 C   0  0  2  0  0  3  0  0  0  0  0  0
  192.8510  175.5110  144.3100 S   0  0  0  0  0  0  0  0  0  0  0  0
  191.3000  175.1950  143.4210 C   0  0  2  0  0  3  0  0  0  0  0  0
  190.1710  175.9220  144.1180 C   0  0  0  0  0  0  0  0  0  0  0  0
  187.9910  177.0210  143.9160 C   0  0  2  0  0  3  0  0  0  0  0  0
  189.2770  177.1470  145.9880 N   0  0  0  0  0  0  0  0  0  0  0  0
  188.1370  177.3490  145.3850 C   0  0  0  0  0  0  0  0  0  0  0  0
  187.0040  177.9630  146.0890 C   0  0  0  0  0  3  0  0  0  0  0  0
  185.5480  177.1520  144.2890 C   0  0  0  0  0  3  0  0  0  0  0  0
  186.5670  176.6680  143.5710 C   0  0  0  0  0  3  0  0  0  0  0  0
  188.8870  175.9650  143.5670 O   0  0  0  0  0  0  0  0  0  0  0  0
  190.3750  176.5070  145.3120 C   0  0  0  0  0  3  0  0  0  0  0  0
  185.7820  177.9270  145.5340 C   0  0  0  0  0  0  0  0  0  0  0  0
  183.6780  179.0410  145.5360 O   0  0  0  0  0  0  0  0  0  0  0  0
  184.6150  178.6670  147.6370 N   0  0  0  0  0  1  0  0  0  0  0  0
  184.6350  178.5710  146.2070 C   0  0  0  0  0  0  0  0  0  0  0  0
  189.9100  173.0730  142.7960 C   0  0  2  0  0  3  0  0  0  0  0  0
  191.1910  169.8260  142.0240 O   0  0  0  0  0  0  0  0  0  0  0  0
  189.8050  171.5350  142.8680 C   0  0  0  0  0  2  0  0  0  0  0  0
  190.5800  170.8590  141.7780 C   0  0  0  0  0  0  0  0  0  0  0  0
  190.5030  171.4130  140.3760 C   0  0  1  0  0  3  0  0  0  0  0  0
  189.7400  173.5880  141.3660 C   0  0  0  0  0  2  0  0  0  0  0  0
  190.7280  172.9190  140.4080 C   0  0  0  0  0  2  0  0  0  0  0  0
  189.8930  169.6740  138.2210 O   0  0  0  0  0  0  0  0  0  0  0  0
  191.1150  169.8630  138.4830 C   0  0  0  0  0  0  0  0  0  0  0  0
  191.4890  170.7850  139.5080 N   0  0  0  0  0  2  0  0  0  0  0  0
  192.1860  169.1500  137.7050 C   0  0  0  0  0  2  0  0  0  0  0  0
  191.6640  168.5820  136.3790 C   0  0  0  0  0  2  0  0  0  0  0  0
  193.2290  170.2610  135.5090 N   0  0  0  0  0  1  0  0  0  0  0  0
  192.0240  169.5050  135.2180 C   0  0  2  0  0  3  0  0  0  0  0  0
  190.8590  170.4200  134.8430 C   0  0  0  0  0  2  0  0  0  0  0  0
  191.1190  171.8990  135.0980 C   0  0  0  0  0  2  0  0  0  0  0  0
  190.3200  172.3570  136.1450 O   0  0  0  0  0  1  0  0  0  0  0  0
  196.3410  173.1080  145.3600 C   0  0  0  0  0  3  0  0  0  0  0  0
  195.2430  173.5060  144.4350 C   0  0  0  0  0  2  0  0  0  0  0  0
  193.7040  171.6240  144.9360 C   0  0  0  0  0  3  0  0  0  0  0  0
  195.9760  170.6700  145.0480 C   0  0  0  0  0  3  0  0  0  0  0  0
  194.7030  170.6120  144.7570 N   0  0  0  0  0  0  0  0  0  0  0  0
  196.6820  171.8440  145.5940 C   0  0  0  0  0  3  0  0  0  0  0  0
  193.9130  172.9430  144.8540 C   0  0  0  0  0  0  0  0  0  0  0  0
  1  3  1  0  0  0  0
  2  1  1  1  0  0  0
  3 42  1  6  0  0  0
  4  3  1  0  0  0  0
  5  2  1  0  0  0  0
  5  6  1  1  0  0  0
  5  4  1  0  0  0  0
  6 14  2  0  0  0  0
  7 12  1  1  0  0  0
  7  9  1  0  0  0  0
  9  8  2  0  0  0  0
  9 10  1  0  0  0  0
 11 15  1  0  0  0  0
 12 11  2  0  0  0  0
 13  7  1  0  0  0  0
 13  6  1  0  0  0  0
 14  8  1  0  0  0  0
 15 10  2  0  0  0  0
 15 18  1  0  0  0  0
 16 18  2  0  0  0  0
 18 17  1  0  0  0  0
 19 24  1  6  0  0  0
 19 21  1  0  0  0  0
 19  2  1  0  0  0  0
 22 20  2  0  0  0  0
 22 21  1  0  0  0  0
 23 28  1  6  0  0  0
 23 25  1  0  0  0  0
 23 22  1  0  0  0  0
 25 24  1  0  0  0  0
 26 27  2  0  0  0  0
 27 28  1  0  0  0  0
 29 27  1  0  0  0  0
 30 29  1  0  0  0  0
 32 31  1  1  0  0  0
 32 30  1  0  0  0  0
 33 34  1  0  0  0  0
 33 32  1  0  0  0  0
 34 35  1  0  0  0  0
 36 41  2  0  0  0  0
 37 42  1  0  0  0  0
 37 36  1  0  0  0  0
 39 41  1  0  0  0  0
 40 38  1  0  0  0  0
 40 39  2  0  0  0  0
 42 38  2  0  0  0  0
M  END
>  <MODEL>
9

>  <REMARK>
 VINA RESULT:      -6.2      3.652     10.006
  Name = 
  10 active torsions:
  status: ('A' for Active; 'I' for Inactive)
    1  A    between atoms: C_1  and  C_24
    2  A    between atoms: C_6  and  C_11
    3  A    between atoms: C_9  and  C_21
    4  A    between atoms: C_13  and  C_28
    5  A    between atoms: C_18  and  C_38
    6  A    between atoms: C_20  and  N_34
    7  A    between atoms: C_21  and  C_35
    8  A    between atoms: C_27  and  C_42
    9  A    between atoms: C_28  and  C_33
   10  A    between atoms: C_33  and  C_35
                            x       y       z     vdW  Elec       q    Type
                         _______ _______ _______ _____ _____    ______ ____

>  <TORSDO>
F 10

$$$$
