=
 OpenBabel11042417543D

 55 61  0  0  1  0  0  0  0  0999 V2000
  192.9560  174.0340  142.8580 N   0  0  1  0  0  0  0  0  0  0  0  0
  194.9960  171.9530  141.4130 N   0  0  0  0  0  0  0  0  0  0  0  0
  192.7540  171.3300  141.1410 O   0  0  0  0  0  0  0  0  0  0  0  0
  190.6890  174.2360  141.2100 C   0  0  0  0  0  0  0  0  0  0  0  0
  193.5960  172.2590  141.2860 C   0  0  0  0  0  0  0  0  0  0  0  0
  189.5000  175.3470  143.0250 C   0  0  0  0  0  0  0  0  0  0  0  0
  195.8560  172.8950  142.1300 C   0  0  0  0  0  2  0  0  0  0  0  0
  193.1150  173.6760  141.4230 C   0  0  1  0  0  3  0  0  0  0  0  0
  191.8980  173.7950  140.6670 O   0  0  0  0  0  0  0  0  0  0  0  0
  190.7010  174.8890  142.4370 C   0  0  0  0  0  0  0  0  0  0  0  0
  189.4820  174.0250  140.5330 C   0  0  0  0  0  0  0  0  0  0  0  0
  194.2720  174.3900  143.4580 C   0  0  2  0  0  3  0  0  0  0  0  0
  194.7600  172.1050  144.1400 O   0  0  0  0  0  1  0  0  0  0  0  0
  188.2760  175.1120  142.3490 C   0  0  0  0  0  0  0  0  0  0  0  0
  195.2830  173.2350  143.5030 C   0  0  1  0  0  3  0  0  0  0  0  0
  192.0490  175.1950  142.9990 C   0  0  2  0  0  3  0  0  0  0  0  0
  192.5740  176.3320  142.3720 O   0  0  0  0  0  1  0  0  0  0  0  0
  188.2860  174.4540  141.1090 C   0  0  0  0  0  3  0  0  0  0  0  0
  189.5320  176.0590  144.3250 C   0  0  0  0  0  0  0  0  0  0  0  0
  189.6850  177.4530  144.3650 C   0  0  0  0  0  3  0  0  0  0  0  0
  189.6030  178.0620  147.9710 F   0  0  0  0  0  0  0  0  0  0  0  0
  189.4000  175.3480  145.5280 C   0  0  0  0  0  3  0  0  0  0  0  0
  189.4240  176.0210  146.7530 C   0  0  0  0  0  3  0  0  0  0  0  0
  189.5790  177.4100  146.7840 C   0  0  0  0  0  0  0  0  0  0  0  0
  189.7090  178.1250  145.5910 C   0  0  0  0  0  3  0  0  0  0  0  0
  196.6390  168.3990  139.8320 N   0  0  0  0  0  0  0  0  0  0  0  0
  196.1670  169.3500  138.9840 C   0  0  0  0  0  3  0  0  0  0  0  0
  195.6240  170.5320  139.4900 C   0  0  0  0  0  3  0  0  0  0  0  0
  195.5720  170.7420  140.8770 C   0  0  0  0  0  0  0  0  0  0  0  0
  196.5980  168.5670  141.1810 C   0  0  0  0  0  3  0  0  0  0  0  0
  196.0620  169.7360  141.7240 C   0  0  0  0  0  3  0  0  0  0  0  0
  194.9820  175.7510  145.2930 O   0  0  0  0  0  0  0  0  0  0  0  0
  193.0940  174.5090  145.6740 O   0  0  0  0  0  1  0  0  0  0  0  0
  194.1350  174.9300  144.8560 C   0  0  0  0  0  0  0  0  0  0  0  0
  186.9920  175.5270  142.9490 C   0  0  0  0  0  3  0  0  0  0  0  0
  186.4590  176.7360  142.7750 C   0  0  0  0  0  3  0  0  0  0  0  0
  184.3060  178.4140  145.2000 C   0  0  2  0  0  3  0  0  0  0  0  0
  184.7850  179.1730  146.2650 O   0  0  0  0  0  1  0  0  0  0  0  0
  184.6550  178.4640  142.8780 C   0  0  2  0  0  3  0  0  0  0  0  0
  185.1520  177.1270  143.3970 C   0  0  2  0  0  3  0  0  0  0  0  0
  185.2760  177.3020  144.8860 C   0  0  0  0  0  2  0  0  0  0  0  0
  184.1800  179.2520  144.0140 N   0  0  0  0  0  2  0  0  0  0  0  0
  183.5460  178.2480  141.9020 C   0  0  0  0  0  3  0  0  0  0  0  0
  182.3440  178.5790  142.2060 N   0  0  0  0  0  0  0  0  0  0  0  0
  180.0370  177.8900  142.0080 C   0  0  0  0  0  2  0  0  0  0  0  0
  181.2680  178.3740  141.2720 C   0  0  1  0  0  3  0  0  0  0  0  0
  179.3600  179.5410  140.4890 C   0  0  0  0  0  2  0  0  0  0  0  0
  180.8520  179.6790  140.6480 C   0  0  0  0  0  2  0  0  0  0  0  0
  178.8820  178.6490  141.5370 N   0  0  0  0  0  2  0  0  0  0  0  0
  189.4530  173.3140  139.2220 C   0  0  0  0  0  2  0  0  0  0  0  0
  188.1320  173.5640  138.5200 C   0  0  0  0  0  2  0  0  0  0  0  0
  188.3240  174.6110  137.4420 C   0  0  0  0  0  2  0  0  0  0  0  0
  186.8990  176.2570  138.4240 O   0  0  0  0  0  1  0  0  0  0  0  0
  186.3650  175.6250  136.2850 O   0  0  0  0  0  0  0  0  0  0  0  0
  187.1690  175.5520  137.4160 C   0  0  0  0  0  0  0  0  0  0  0  0
  1 16  1  0  0  0  0
  1 12  1  0  0  0  0
  2  7  1  0  0  0  0
  3  5  2  0  0  0  0
  4 10  1  0  0  0  0
  5  2  1  0  0  0  0
  5  8  1  0  0  0  0
  6 19  1  0  0  0  0
  7 15  1  0  0  0  0
  8  1  1  0  0  0  0
  9  4  1  0  0  0  0
  9  8  1  0  0  0  0
 10 16  1  0  0  0  0
 10  6  2  0  0  0  0
 11 18  1  0  0  0  0
 11  4  2  0  0  0  0
 12 15  1  0  0  0  0
 12 34  1  0  0  0  0
 14 35  1  0  0  0  0
 14  6  1  0  0  0  0
 15 13  1  0  0  0  0
 17 16  1  0  0  0  0
 18 14  2  0  0  0  0
 19 20  2  0  0  0  0
 19 22  1  0  0  0  0
 20 25  1  0  0  0  0
 22 23  2  0  0  0  0
 23 24  1  0  0  0  0
 24 21  1  0  0  0  0
 25 24  2  0  0  0  0
 26 30  1  0  0  0  0
 27 28  1  0  0  0  0
 27 26  2  0  0  0  0
 28 29  2  0  0  0  0
 29  2  1  0  0  0  0
 29 31  1  0  0  0  0
 30 31  2  0  0  0  0
 34 32  2  0  0  0  0
 34 33  1  0  0  0  0
 36 35  2  0  0  0  0
 36 40  1  0  0  0  0
 37 38  1  0  0  0  0
 39 40  1  0  0  0  0
 39 42  1  0  0  0  0
 40 41  1  0  0  0  0
 41 37  1  0  0  0  0
 42 37  1  0  0  0  0
 43 44  2  0  0  0  0
 43 39  1  0  0  0  0
 46 45  1  0  0  0  0
 46 44  1  0  0  0  0
 47 48  1  0  0  0  0
 47 49  1  0  0  0  0
 48 46  1  0  0  0  0
 49 45  1  0  0  0  0
 50 11  1  0  0  0  0
 51 50  1  0  0  0  0
 52 51  1  0  0  0  0
 54 55  2  0  0  0  0
 55 52  1  0  0  0  0
 55 53  1  0  0  0  0
M  END
>  <MODEL>
1

>  <REMARK>
 VINA RESULT:      -7.7      0.000      0.000
  Name = 
  11 active torsions:
  status: ('A' for Active; 'I' for Inactive)
    1  A    between atoms: C_2  and  C_20
    2  A    between atoms: C_2  and  C_27
    3  A    between atoms: N_7  and  C_41
    4  A    between atoms: C_13  and  C_16
    5  A    between atoms: C_20  and  C_44
    6  A    between atoms: C_23  and  N_33
    7  A    between atoms: C_26  and  C_32
    8  A    between atoms: C_28  and  C_53
    9  A    between atoms: C_30  and  C_44
   10  A    between atoms: C_34  and  C_36
   11  A    between atoms: C_38  and  C_46
                            x       y       z     vdW  Elec       q    Type
                         _______ _______ _______ _____ _____    ______ ____

>  <TORSDO>
F 11

$$$$
=
 OpenBabel11042417543D

 55 61  0  0  1  0  0  0  0  0999 V2000
  193.0390  173.9050  142.7900 N   0  0  1  0  0  0  0  0  0  0  0  0
  195.0460  171.8230  141.3010 N   0  0  0  0  0  0  0  0  0  0  0  0
  192.7940  171.2610  140.9870 O   0  0  0  0  0  0  0  0  0  0  0  0
  190.7950  174.2090  141.1250 C   0  0  0  0  0  0  0  0  0  0  0  0
  193.6550  172.1650  141.1690 C   0  0  0  0  0  0  0  0  0  0  0  0
  189.6120  175.2900  142.9620 C   0  0  0  0  0  0  0  0  0  0  0  0
  195.9200  172.7220  142.0560 C   0  0  0  0  0  2  0  0  0  0  0  0
  193.2060  173.5870  141.3450 C   0  0  1  0  0  3  0  0  0  0  0  0
  191.9990  173.7580  140.5810 O   0  0  0  0  0  0  0  0  0  0  0  0
  190.8090  174.8240  142.3720 C   0  0  0  0  0  0  0  0  0  0  0  0
  189.5910  174.0480  140.4300 C   0  0  0  0  0  0  0  0  0  0  0  0
  194.3560  174.2110  143.4140 C   0  0  2  0  0  3  0  0  0  0  0  0
  194.7840  171.8960  144.0290 O   0  0  0  0  0  1  0  0  0  0  0  0
  188.3900  175.1050  142.2660 C   0  0  0  0  0  0  0  0  0  0  0  0
  195.3390  173.0320  143.4330 C   0  0  1  0  0  3  0  0  0  0  0  0
  192.1560  175.0810  142.9580 C   0  0  2  0  0  3  0  0  0  0  0  0
  192.7140  176.2250  142.3720 O   0  0  0  0  0  1  0  0  0  0  0  0
  188.3990  174.4860  141.0070 C   0  0  0  0  0  3  0  0  0  0  0  0
  189.6450  175.9600  144.2850 C   0  0  0  0  0  0  0  0  0  0  0  0
  189.8880  177.3390  144.3730 C   0  0  0  0  0  3  0  0  0  0  0  0
  189.7220  177.8470  147.9920 F   0  0  0  0  0  0  0  0  0  0  0  0
  189.4260  175.2250  145.4590 C   0  0  0  0  0  3  0  0  0  0  0  0
  189.4520  175.8590  146.7050 C   0  0  0  0  0  3  0  0  0  0  0  0
  189.6960  177.2340  146.7840 C   0  0  0  0  0  0  0  0  0  0  0  0
  189.9140  177.9730  145.6190 C   0  0  0  0  0  3  0  0  0  0  0  0
  196.7000  168.2970  139.6680 N   0  0  0  0  0  0  0  0  0  0  0  0
  196.1720  168.2670  140.9200 C   0  0  0  0  0  3  0  0  0  0  0  0
  195.6180  169.4230  141.4740 C   0  0  0  0  0  3  0  0  0  0  0  0
  195.6010  170.6160  140.7330 C   0  0  0  0  0  0  0  0  0  0  0  0
  196.7060  169.4370  138.9270 C   0  0  0  0  0  3  0  0  0  0  0  0
  196.1610  170.6120  139.4460 C   0  0  0  0  0  3  0  0  0  0  0  0
  194.8490  175.7330  145.1920 O   0  0  0  0  0  0  0  0  0  0  0  0
  193.4110  174.0340  145.7350 O   0  0  0  0  0  1  0  0  0  0  0  0
  194.2150  174.7100  144.8270 C   0  0  0  0  0  0  0  0  0  0  0  0
  187.1090  175.5300  142.8660 C   0  0  0  0  0  3  0  0  0  0  0  0
  186.5360  176.7060  142.6120 C   0  0  0  0  0  3  0  0  0  0  0  0
  184.4030  178.3700  145.0650 C   0  0  2  0  0  3  0  0  0  0  0  0
  184.8910  179.0940  146.1510 O   0  0  0  0  0  1  0  0  0  0  0  0
  184.7680  178.4690  142.7470 C   0  0  2  0  0  3  0  0  0  0  0  0
  185.2340  177.1090  143.2360 C   0  0  2  0  0  3  0  0  0  0  0  0
  185.3520  177.2460  144.7300 C   0  0  0  0  0  2  0  0  0  0  0  0
  184.3020  179.2390  143.8990 N   0  0  0  0  0  2  0  0  0  0  0  0
  183.6600  178.2990  141.7600 C   0  0  0  0  0  3  0  0  0  0  0  0
  182.4380  178.4130  142.1330 N   0  0  0  0  0  0  0  0  0  0  0  0
  180.1070  177.8160  141.9140 C   0  0  0  0  0  2  0  0  0  0  0  0
  181.3640  178.2500  141.1890 C   0  0  1  0  0  3  0  0  0  0  0  0
  179.5120  179.4910  140.3870 C   0  0  0  0  0  2  0  0  0  0  0  0
  181.0070  179.5700  140.5610 C   0  0  0  0  0  2  0  0  0  0  0  0
  178.9890  178.6210  141.4320 N   0  0  0  0  0  2  0  0  0  0  0  0
  189.5610  173.3780  139.0960 C   0  0  0  0  0  2  0  0  0  0  0  0
  189.2360  171.9050  139.2580 C   0  0  0  0  0  2  0  0  0  0  0  0
  189.6680  171.1540  138.0150 C   0  0  0  0  0  2  0  0  0  0  0  0
  190.4020  169.4900  139.5630 O   0  0  0  0  0  1  0  0  0  0  0  0
  190.2760  168.8260  137.3710 O   0  0  0  0  0  0  0  0  0  0  0  0
  190.1240  169.7810  138.3690 C   0  0  0  0  0  0  0  0  0  0  0  0
  1 16  1  0  0  0  0
  1 12  1  0  0  0  0
  2  7  1  0  0  0  0
  3  5  2  0  0  0  0
  4 10  1  0  0  0  0
  5  2  1  0  0  0  0
  5  8  1  0  0  0  0
  6 19  1  0  0  0  0
  7 15  1  0  0  0  0
  8  1  1  0  0  0  0
  9  4  1  0  0  0  0
  9  8  1  0  0  0  0
 10 16  1  0  0  0  0
 10  6  2  0  0  0  0
 11 18  1  0  0  0  0
 11  4  2  0  0  0  0
 12 15  1  0  0  0  0
 12 34  1  0  0  0  0
 14 35  1  0  0  0  0
 14  6  1  0  0  0  0
 15 13  1  0  0  0  0
 17 16  1  0  0  0  0
 18 14  2  0  0  0  0
 19 20  2  0  0  0  0
 19 22  1  0  0  0  0
 20 25  1  0  0  0  0
 22 23  2  0  0  0  0
 23 24  1  0  0  0  0
 24 21  1  0  0  0  0
 25 24  2  0  0  0  0
 26 27  1  0  0  0  0
 27 28  2  0  0  0  0
 29  2  1  0  0  0  0
 29 28  1  0  0  0  0
 30 31  1  0  0  0  0
 30 26  2  0  0  0  0
 31 29  2  0  0  0  0
 34 32  2  0  0  0  0
 34 33  1  0  0  0  0
 36 35  2  0  0  0  0
 36 40  1  0  0  0  0
 37 38  1  0  0  0  0
 39 40  1  0  0  0  0
 39 42  1  0  0  0  0
 40 41  1  0  0  0  0
 41 37  1  0  0  0  0
 42 37  1  0  0  0  0
 43 44  2  0  0  0  0
 43 39  1  0  0  0  0
 46 45  1  0  0  0  0
 46 44  1  0  0  0  0
 47 48  1  0  0  0  0
 47 49  1  0  0  0  0
 48 46  1  0  0  0  0
 49 45  1  0  0  0  0
 50 51  1  0  0  0  0
 50 11  1  0  0  0  0
 52 55  1  0  0  0  0
 52 51  1  0  0  0  0
 54 55  2  0  0  0  0
 55 53  1  0  0  0  0
M  END
>  <MODEL>
2

>  <REMARK>
 VINA RESULT:      -7.5      1.447      1.942
  Name = 
  11 active torsions:
  status: ('A' for Active; 'I' for Inactive)
    1  A    between atoms: C_2  and  C_20
    2  A    between atoms: C_2  and  C_27
    3  A    between atoms: N_7  and  C_41
    4  A    between atoms: C_13  and  C_16
    5  A    between atoms: C_20  and  C_44
    6  A    between atoms: C_23  and  N_33
    7  A    between atoms: C_26  and  C_32
    8  A    between atoms: C_28  and  C_53
    9  A    between atoms: C_30  and  C_44
   10  A    between atoms: C_34  and  C_36
   11  A    between atoms: C_38  and  C_46
                            x       y       z     vdW  Elec       q    Type
                         _______ _______ _______ _____ _____    ______ ____

>  <TORSDO>
F 11

$$$$
=
 OpenBabel11042417543D

 55 61  0  0  1  0  0  0  0  0999 V2000
  190.6570  175.4910  144.3890 N   0  0  1  0  0  0  0  0  0  0  0  0
  187.6970  176.4940  145.2910 N   0  0  0  0  0  0  0  0  0  0  0  0
  187.9710  176.5200  142.9650 O   0  0  0  0  0  0  0  0  0  0  0  0
  190.3350  174.0290  142.0100 C   0  0  0  0  0  0  0  0  0  0  0  0
  188.2730  175.9950  144.0710 C   0  0  0  0  0  0  0  0  0  0  0  0
  192.7460  174.1200  141.6590 C   0  0  0  0  0  0  0  0  0  0  0  0
  188.4350  176.3100  146.5410 C   0  0  0  0  0  2  0  0  0  0  0  0
  189.3140  174.9120  144.1130 C   0  0  1  0  0  3  0  0  0  0  0  0
  189.2460  174.1970  142.8670 O   0  0  0  0  0  0  0  0  0  0  0  0
  191.6150  174.2730  142.4940 C   0  0  0  0  0  0  0  0  0  0  0  0
  190.1460  173.6210  140.6840 C   0  0  0  0  0  0  0  0  0  0  0  0
  190.8250  175.7520  145.8450 C   0  0  2  0  0  3  0  0  0  0  0  0
  189.9400  178.0150  145.7050 O   0  0  0  0  0  1  0  0  0  0  0  0
  192.5500  173.7290  140.3100 C   0  0  0  0  0  0  0  0  0  0  0  0
  189.8710  176.8120  146.4150 C   0  0  1  0  0  3  0  0  0  0  0  0
  191.7180  174.5540  143.9550 C   0  0  2  0  0  3  0  0  0  0  0  0
  191.6600  173.3520  144.6720 O   0  0  0  0  0  1  0  0  0  0  0  0
  191.2500  173.4840  139.8430 C   0  0  0  0  0  3  0  0  0  0  0  0
  194.1060  174.3660  142.1950 C   0  0  0  0  0  0  0  0  0  0  0  0
  194.6370  175.6640  142.2090 C   0  0  0  0  0  3  0  0  0  0  0  0
  197.9160  175.0630  143.7140 F   0  0  0  0  0  0  0  0  0  0  0  0
  194.8730  173.3050  142.7010 C   0  0  0  0  0  3  0  0  0  0  0  0
  196.1530  173.5390  143.2120 C   0  0  0  0  0  3  0  0  0  0  0  0
  196.6750  174.8370  143.2210 C   0  0  0  0  0  0  0  0  0  0  0  0
  195.9170  175.8980  142.7200 C   0  0  0  0  0  3  0  0  0  0  0  0
  184.0100  178.5510  145.3700 N   0  0  0  0  0  0  0  0  0  0  0  0
  184.7730  178.5940  144.2460 C   0  0  0  0  0  3  0  0  0  0  0  0
  185.9930  177.9160  144.2020 C   0  0  0  0  0  3  0  0  0  0  0  0
  186.4290  177.1840  145.3180 C   0  0  0  0  0  0  0  0  0  0  0  0
  184.4060  177.8570  146.4710 C   0  0  0  0  0  3  0  0  0  0  0  0
  185.6190  177.1670  146.4640 C   0  0  0  0  0  3  0  0  0  0  0  0
  192.7650  175.7420  147.2460 O   0  0  0  0  0  1  0  0  0  0  0  0
  192.9270  177.0430  145.3660 O   0  0  0  0  0  0  0  0  0  0  0  0
  192.2290  176.1700  146.1910 C   0  0  0  0  0  0  0  0  0  0  0  0
  193.6970  173.6070  139.3870 C   0  0  0  0  0  3  0  0  0  0  0  0
  194.0160  174.5370  138.4880 C   0  0  0  0  0  3  0  0  0  0  0  0
  196.7190  172.7320  136.8230 C   0  0  2  0  0  3  0  0  0  0  0  0
  197.0160  171.3920  137.0600 O   0  0  0  0  0  1  0  0  0  0  0  0
  194.7690  173.8810  136.1960 C   0  0  2  0  0  3  0  0  0  0  0  0
  195.1880  174.3840  137.5650 C   0  0  2  0  0  3  0  0  0  0  0  0
  196.1700  173.3660  138.0770 C   0  0  0  0  0  2  0  0  0  0  0  0
  195.7020  172.8360  135.7820 N   0  0  0  0  0  2  0  0  0  0  0  0
  194.7900  175.0060  135.2150 C   0  0  0  0  0  3  0  0  0  0  0  0
  194.5190  176.2020  135.5950 N   0  0  0  0  0  0  0  0  0  0  0  0
  193.4610  178.2960  135.0180 C   0  0  0  0  0  2  0  0  0  0  0  0
  194.5360  177.2920  134.6560 C   0  0  1  0  0  3  0  0  0  0  0  0
  195.4150  179.4880  134.5130 C   0  0  0  0  0  2  0  0  0  0  0  0
  195.8260  178.0600  134.7590 C   0  0  0  0  0  2  0  0  0  0  0  0
  194.0360  179.6360  134.9610 N   0  0  0  0  0  2  0  0  0  0  0  0
  188.7760  173.3690  140.1490 C   0  0  0  0  0  2  0  0  0  0  0  0
  188.5130  174.2580  138.9480 C   0  0  0  0  0  2  0  0  0  0  0  0
  188.3480  173.3980  137.7110 C   0  0  0  0  0  2  0  0  0  0  0  0
  190.3520  173.1370  136.4360 O   0  0  0  0  0  1  0  0  0  0  0  0
  189.0820  174.9780  135.9300 O   0  0  0  0  0  0  0  0  0  0  0  0
  189.3140  173.8150  136.6550 C   0  0  0  0  0  0  0  0  0  0  0  0
  1 12  1  0  0  0  0
  2 29  1  0  0  0  0
  2  7  1  0  0  0  0
  3  5  2  0  0  0  0
  4 10  1  0  0  0  0
  4  9  1  0  0  0  0
  5  8  1  0  0  0  0
  5  2  1  0  0  0  0
  6 19  1  0  0  0  0
  6 10  2  0  0  0  0
  8  1  1  0  0  0  0
  9  8  1  0  0  0  0
 10 16  1  0  0  0  0
 11  4  2  0  0  0  0
 12 34  1  0  0  0  0
 12 15  1  0  0  0  0
 13 15  1  0  0  0  0
 14  6  1  0  0  0  0
 15  7  1  0  0  0  0
 16  1  1  0  0  0  0
 16 17  1  0  0  0  0
 18 14  2  0  0  0  0
 18 11  1  0  0  0  0
 19 20  2  0  0  0  0
 19 22  1  0  0  0  0
 20 25  1  0  0  0  0
 22 23  2  0  0  0  0
 23 24  1  0  0  0  0
 24 21  1  0  0  0  0
 25 24  2  0  0  0  0
 26 30  1  0  0  0  0
 27 26  2  0  0  0  0
 28 27  1  0  0  0  0
 28 29  2  0  0  0  0
 29 31  1  0  0  0  0
 31 30  2  0  0  0  0
 33 34  2  0  0  0  0
 34 32  1  0  0  0  0
 35 14  1  0  0  0  0
 36 35  2  0  0  0  0
 37 38  1  0  0  0  0
 37 41  1  0  0  0  0
 39 40  1  0  0  0  0
 40 41  1  0  0  0  0
 40 36  1  0  0  0  0
 42 39  1  0  0  0  0
 42 37  1  0  0  0  0
 43 44  2  0  0  0  0
 43 39  1  0  0  0  0
 46 48  1  0  0  0  0
 46 45  1  0  0  0  0
 46 44  1  0  0  0  0
 47 48  1  0  0  0  0
 47 49  1  0  0  0  0
 49 45  1  0  0  0  0
 50 11  1  0  0  0  0
 51 50  1  0  0  0  0
 52 51  1  0  0  0  0
 53 55  1  0  0  0  0
 54 55  2  0  0  0  0
 55 52  1  0  0  0  0
M  END
>  <MODEL>
3

>  <REMARK>
 VINA RESULT:      -7.5      3.970      9.871
  Name = 
  11 active torsions:
  status: ('A' for Active; 'I' for Inactive)
    1  A    between atoms: C_2  and  C_20
    2  A    between atoms: C_2  and  C_27
    3  A    between atoms: N_7  and  C_41
    4  A    between atoms: C_13  and  C_16
    5  A    between atoms: C_20  and  C_44
    6  A    between atoms: C_23  and  N_33
    7  A    between atoms: C_26  and  C_32
    8  A    between atoms: C_28  and  C_53
    9  A    between atoms: C_30  and  C_44
   10  A    between atoms: C_34  and  C_36
   11  A    between atoms: C_38  and  C_46
                            x       y       z     vdW  Elec       q    Type
                         _______ _______ _______ _____ _____    ______ ____

>  <TORSDO>
F 11

$$$$
=
 OpenBabel11042417543D

 55 61  0  0  1  0  0  0  0  0999 V2000
  190.7640  175.5570  144.1200 N   0  0  1  0  0  0  0  0  0  0  0  0
  187.9060  176.6060  145.2660 N   0  0  0  0  0  0  0  0  0  0  0  0
  188.0130  176.7020  142.9280 O   0  0  0  0  0  0  0  0  0  0  0  0
  190.2310  174.1830  141.7270 C   0  0  0  0  0  0  0  0  0  0  0  0
  188.3790  176.1320  143.9920 C   0  0  0  0  0  0  0  0  0  0  0  0
  192.6120  174.2230  141.2040 C   0  0  0  0  0  0  0  0  0  0  0  0
  188.7270  176.3620  146.4520 C   0  0  0  0  0  2  0  0  0  0  0  0
  189.3880  175.0220  143.9250 C   0  0  1  0  0  3  0  0  0  0  0  0
  189.2110  174.3510  142.6650 O   0  0  0  0  0  0  0  0  0  0  0  0
  191.5490  174.3780  142.1230 C   0  0  0  0  0  0  0  0  0  0  0  0
  189.9360  173.8250  140.4060 C   0  0  0  0  0  0  0  0  0  0  0  0
  191.0440  175.7650  145.5670 C   0  0  2  0  0  3  0  0  0  0  0  0
  190.2150  178.0530  145.5630 O   0  0  0  0  0  1  0  0  0  0  0  0
  192.3090  173.8830  139.8610 C   0  0  0  0  0  0  0  0  0  0  0  0
  190.1640  176.8300  146.2380 C   0  0  1  0  0  3  0  0  0  0  0  0
  191.7640  174.6080  143.5820 C   0  0  2  0  0  3  0  0  0  0  0  0
  191.7240  173.3840  144.2630 O   0  0  0  0  0  1  0  0  0  0  0  0
  190.9720  173.6870  139.4830 C   0  0  0  0  0  3  0  0  0  0  0  0
  194.0140  174.4160  141.6470 C   0  0  0  0  0  0  0  0  0  0  0  0
  194.5940  175.6930  141.6220 C   0  0  0  0  0  3  0  0  0  0  0  0
  197.9410  174.9650  142.9070 F   0  0  0  0  0  0  0  0  0  0  0  0
  194.7710  173.3260  142.1040 C   0  0  0  0  0  3  0  0  0  0  0  0
  196.0900  173.5100  142.5270 C   0  0  0  0  0  3  0  0  0  0  0  0
  196.6620  174.7870  142.4980 C   0  0  0  0  0  0  0  0  0  0  0  0
  195.9140  175.8770  142.0460 C   0  0  0  0  0  3  0  0  0  0  0  0
  184.2500  178.6820  145.6580 N   0  0  0  0  0  0  0  0  0  0  0  0
  184.4890  177.5990  146.4440 C   0  0  0  0  0  3  0  0  0  0  0  0
  185.6940  176.9030  146.3290 C   0  0  0  0  0  3  0  0  0  0  0  0
  186.6630  177.3280  145.4060 C   0  0  0  0  0  0  0  0  0  0  0  0
  185.1640  179.1160  144.7500 C   0  0  0  0  0  3  0  0  0  0  0  0
  186.3800  178.4460  144.6060 C   0  0  0  0  0  3  0  0  0  0  0  0
  193.0990  175.6040  146.7810 O   0  0  0  0  0  1  0  0  0  0  0  0
  193.1180  177.0760  145.0250 O   0  0  0  0  0  0  0  0  0  0  0  0
  192.4800  176.1350  145.8230 C   0  0  0  0  0  0  0  0  0  0  0  0
  193.3820  173.7610  138.8540 C   0  0  0  0  0  3  0  0  0  0  0  0
  193.8200  174.7850  138.1230 C   0  0  0  0  0  3  0  0  0  0  0  0
  196.2610  175.9450  135.6680 C   0  0  2  0  0  3  0  0  0  0  0  0
  196.4140  177.2800  135.2990 O   0  0  0  0  0  1  0  0  0  0  0  0
  196.2880  174.8120  137.7250 C   0  0  2  0  0  3  0  0  0  0  0  0
  194.9130  174.6300  137.1080 C   0  0  2  0  0  3  0  0  0  0  0  0
  194.8220  175.6750  136.0290 C   0  0  0  0  0  2  0  0  0  0  0  0
  197.0830  175.6600  136.8380 N   0  0  0  0  0  2  0  0  0  0  0  0
  196.9480  173.4830  137.8910 C   0  0  0  0  0  3  0  0  0  0  0  0
  196.9650  172.9080  139.0380 N   0  0  0  0  0  0  0  0  0  0  0  0
  196.6240  170.6530  139.8350 C   0  0  0  0  0  2  0  0  0  0  0  0
  197.5990  171.6280  139.2090 C   0  0  1  0  0  3  0  0  0  0  0  0
  197.7150  169.5480  138.0800 C   0  0  0  0  0  2  0  0  0  0  0  0
  197.9400  171.0240  137.8740 C   0  0  0  0  0  2  0  0  0  0  0  0
  196.6850  169.3940  139.0990 N   0  0  0  0  0  2  0  0  0  0  0  0
  188.5250  173.6260  139.9640 C   0  0  0  0  0  2  0  0  0  0  0  0
  188.0190  174.8670  139.2540 C   0  0  0  0  0  2  0  0  0  0  0  0
  187.8470  174.5690  137.7780 C   0  0  0  0  0  2  0  0  0  0  0  0
  186.0240  176.0980  137.5610 O   0  0  0  0  0  1  0  0  0  0  0  0
  187.6440  176.2420  135.9440 O   0  0  0  0  0  0  0  0  0  0  0  0
  187.1220  175.6820  137.1030 C   0  0  0  0  0  0  0  0  0  0  0  0
  1 12  1  0  0  0  0
  2 29  1  0  0  0  0
  2  7  1  0  0  0  0
  3  5  2  0  0  0  0
  4 10  1  0  0  0  0
  4  9  1  0  0  0  0
  5  2  1  0  0  0  0
  6 19  1  0  0  0  0
  6 10  2  0  0  0  0
  8  5  1  0  0  0  0
  8  1  1  0  0  0  0
  9  8  1  0  0  0  0
 10 16  1  0  0  0  0
 11  4  2  0  0  0  0
 12 34  1  0  0  0  0
 12 15  1  0  0  0  0
 13 15  1  0  0  0  0
 14  6  1  0  0  0  0
 15  7  1  0  0  0  0
 16  1  1  0  0  0  0
 16 17  1  0  0  0  0
 18 14  2  0  0  0  0
 18 11  1  0  0  0  0
 19 22  1  0  0  0  0
 20 19  2  0  0  0  0
 20 25  1  0  0  0  0
 22 23  2  0  0  0  0
 24 23  1  0  0  0  0
 24 21  1  0  0  0  0
 25 24  2  0  0  0  0
 26 27  1  0  0  0  0
 28 27  2  0  0  0  0
 29 28  1  0  0  0  0
 30 26  2  0  0  0  0
 31 30  1  0  0  0  0
 31 29  2  0  0  0  0
 33 34  2  0  0  0  0
 34 32  1  0  0  0  0
 35 14  1  0  0  0  0
 36 35  2  0  0  0  0
 37 41  1  0  0  0  0
 37 42  1  0  0  0  0
 38 37  1  0  0  0  0
 39 43  1  0  0  0  0
 40 39  1  0  0  0  0
 40 36  1  0  0  0  0
 41 40  1  0  0  0  0
 42 39  1  0  0  0  0
 43 44  2  0  0  0  0
 44 46  1  0  0  0  0
 46 45  1  0  0  0  0
 47 49  1  0  0  0  0
 48 47  1  0  0  0  0
 48 46  1  0  0  0  0
 49 45  1  0  0  0  0
 50 11  1  0  0  0  0
 51 50  1  0  0  0  0
 52 51  1  0  0  0  0
 54 55  2  0  0  0  0
 55 53  1  0  0  0  0
 55 52  1  0  0  0  0
M  END
>  <MODEL>
4

>  <REMARK>
 VINA RESULT:      -7.4      3.159     10.412
  Name = 
  11 active torsions:
  status: ('A' for Active; 'I' for Inactive)
    1  A    between atoms: C_2  and  C_20
    2  A    between atoms: C_2  and  C_27
    3  A    between atoms: N_7  and  C_41
    4  A    between atoms: C_13  and  C_16
    5  A    between atoms: C_20  and  C_44
    6  A    between atoms: C_23  and  N_33
    7  A    between atoms: C_26  and  C_32
    8  A    between atoms: C_28  and  C_53
    9  A    between atoms: C_30  and  C_44
   10  A    between atoms: C_34  and  C_36
   11  A    between atoms: C_38  and  C_46
                            x       y       z     vdW  Elec       q    Type
                         _______ _______ _______ _____ _____    ______ ____

>  <TORSDO>
F 11

$$$$
=
 OpenBabel11042417543D

 55 61  0  0  1  0  0  0  0  0999 V2000
  189.5790  172.9660  138.9400 N   0  0  1  0  0  0  0  0  0  0  0  0
  191.0440  171.0180  136.7860 N   0  0  0  0  0  0  0  0  0  0  0  0
  192.3920  171.4470  138.6530 O   0  0  0  0  0  0  0  0  0  0  0  0
  190.3350  172.0740  141.4960 C   0  0  0  0  0  0  0  0  0  0  0  0
  191.2290  171.3120  138.1820 C   0  0  0  0  0  0  0  0  0  0  0  0
  189.4560  174.1390  142.4480 C   0  0  0  0  0  0  0  0  0  0  0  0
  189.7920  171.4220  136.1460 C   0  0  0  0  0  2  0  0  0  0  0  0
  190.0410  171.5570  139.0690 C   0  0  1  0  0  3  0  0  0  0  0  0
  190.4200  171.2020  140.4090 O   0  0  0  0  0  0  0  0  0  0  0  0
  189.5660  173.2260  141.3750 C   0  0  0  0  0  0  0  0  0  0  0  0
  191.0100  171.7970  142.6910 C   0  0  0  0  0  0  0  0  0  0  0  0
  188.7430  173.1340  137.7200 C   0  0  2  0  0  3  0  0  0  0  0  0
  190.6400  173.6850  136.2990 O   0  0  0  0  0  1  0  0  0  0  0  0
  190.1600  173.8690  143.6500 C   0  0  0  0  0  0  0  0  0  0  0  0
  189.4900  172.8960  136.4000 C   0  0  1  0  0  3  0  0  0  0  0  0
  188.7700  173.3500  140.1190 C   0  0  2  0  0  3  0  0  0  0  0  0
  187.6110  172.5690  140.2170 O   0  0  0  0  0  1  0  0  0  0  0  0
  190.9260  172.6980  143.7530 C   0  0  0  0  0  3  0  0  0  0  0  0
  188.6180  175.3540  142.3090 C   0  0  0  0  0  0  0  0  0  0  0  0
  187.2310  175.2840  142.5100 C   0  0  0  0  0  3  0  0  0  0  0  0
  186.2640  178.7650  141.9380 F   0  0  0  0  0  0  0  0  0  0  0  0
  189.2030  176.5880  141.9850 C   0  0  0  0  0  3  0  0  0  0  0  0
  188.4120  177.7340  141.8600 C   0  0  0  0  0  3  0  0  0  0  0  0
  187.0300  177.6550  142.0600 C   0  0  0  0  0  0  0  0  0  0  0  0
  186.4410  176.4300  142.3850 C   0  0  0  0  0  3  0  0  0  0  0  0
  194.0210  169.0690  134.5130 N   0  0  0  0  0  0  0  0  0  0  0  0
  192.9770  168.3490  135.0000 C   0  0  0  0  0  3  0  0  0  0  0  0
  191.9820  168.9780  135.7510 C   0  0  0  0  0  3  0  0  0  0  0  0
  192.0570  170.3590  135.9960 C   0  0  0  0  0  0  0  0  0  0  0  0
  194.1280  170.4060  134.7380 C   0  0  0  0  0  3  0  0  0  0  0  0
  193.1530  171.0700  135.4830 C   0  0  0  0  0  3  0  0  0  0  0  0
  187.9000  175.0270  136.5250 O   0  0  0  0  0  0  0  0  0  0  0  0
  187.7750  175.1820  138.8070 O   0  0  0  0  0  1  0  0  0  0  0  0
  188.1080  174.4970  137.6460 C   0  0  0  0  0  0  0  0  0  0  0  0
  190.1160  174.8190  144.7790 C   0  0  0  0  0  3  0  0  0  0  0  0
  189.8240  174.4590  146.0290 C   0  0  0  0  0  3  0  0  0  0  0  0
  191.2320  176.8960  148.3540 C   0  0  2  0  0  3  0  0  0  0  0  0
  192.5820  177.2370  148.3950 O   0  0  0  0  0  1  0  0  0  0  0  0
  189.6110  176.8700  146.6550 C   0  0  2  0  0  3  0  0  0  0  0  0
  189.7880  175.4470  147.1550 C   0  0  2  0  0  3  0  0  0  0  0  0
  191.0790  175.4580  147.9270 C   0  0  0  0  0  2  0  0  0  0  0  0
  190.5420  177.7330  147.3790 N   0  0  0  0  0  2  0  0  0  0  0  0
  188.2060  177.3180  146.8890 C   0  0  0  0  0  3  0  0  0  0  0  0
  187.3100  176.4750  147.2530 N   0  0  0  0  0  0  0  0  0  0  0  0
  185.9330  178.3570  147.8830 C   0  0  0  0  0  2  0  0  0  0  0  0
  185.9530  176.8970  147.4800 C   0  0  1  0  0  3  0  0  0  0  0  0
  184.2320  178.0240  146.3050 C   0  0  0  0  0  2  0  0  0  0  0  0
  185.1600  176.8410  146.2030 C   0  0  0  0  0  2  0  0  0  0  0  0
  184.8910  179.0370  147.1180 N   0  0  0  0  0  2  0  0  0  0  0  0
  191.8480  170.5710  142.8300 C   0  0  0  0  0  2  0  0  0  0  0  0
  193.2550  170.9450  143.2570 C   0  0  0  0  0  2  0  0  0  0  0  0
  194.1190  171.1430  142.0280 C   0  0  0  0  0  2  0  0  0  0  0  0
  194.6360  172.9920  140.6080 O   0  0  0  0  0  0  0  0  0  0  0  0
  194.1870  173.5110  142.7970 O   0  0  0  0  0  1  0  0  0  0  0  0
  194.3190  172.5950  141.7600 C   0  0  0  0  0  0  0  0  0  0  0  0
  1  8  1  0  0  0  0
  1 16  1  0  0  0  0
  2  5  1  0  0  0  0
  4 11  1  0  0  0  0
  5  3  2  0  0  0  0
  5  8  1  0  0  0  0
  6 14  2  0  0  0  0
  7 15  1  0  0  0  0
  7  2  1  0  0  0  0
  8  9  1  0  0  0  0
  9  4  1  0  0  0  0
 10  4  2  0  0  0  0
 10  6  1  0  0  0  0
 11 50  1  0  0  0  0
 11 18  2  0  0  0  0
 12  1  1  0  0  0  0
 13 15  1  0  0  0  0
 14 18  1  0  0  0  0
 14 35  1  0  0  0  0
 15 12  1  0  0  0  0
 16 17  1  0  0  0  0
 16 10  1  0  0  0  0
 19  6  1  0  0  0  0
 19 20  1  0  0  0  0
 21 24  1  0  0  0  0
 22 19  2  0  0  0  0
 23 22  1  0  0  0  0
 23 24  2  0  0  0  0
 24 25  1  0  0  0  0
 25 20  2  0  0  0  0
 26 30  2  0  0  0  0
 26 27  1  0  0  0  0
 27 28  2  0  0  0  0
 28 29  1  0  0  0  0
 29  2  1  0  0  0  0
 30 31  1  0  0  0  0
 31 29  2  0  0  0  0
 32 34  2  0  0  0  0
 34 12  1  0  0  0  0
 34 33  1  0  0  0  0
 35 36  2  0  0  0  0
 36 40  1  0  0  0  0
 37 38  1  0  0  0  0
 39 43  1  0  0  0  0
 39 40  1  0  0  0  0
 39 42  1  0  0  0  0
 40 41  1  0  0  0  0
 41 37  1  0  0  0  0
 42 37  1  0  0  0  0
 43 44  2  0  0  0  0
 44 46  1  0  0  0  0
 46 45  1  0  0  0  0
 47 49  1  0  0  0  0
 48 47  1  0  0  0  0
 48 46  1  0  0  0  0
 49 45  1  0  0  0  0
 50 51  1  0  0  0  0
 52 51  1  0  0  0  0
 53 55  2  0  0  0  0
 55 52  1  0  0  0  0
 55 54  1  0  0  0  0
M  END
>  <MODEL>
5

>  <REMARK>
 VINA RESULT:      -7.3      3.548      6.603
  Name = 
  11 active torsions:
  status: ('A' for Active; 'I' for Inactive)
    1  A    between atoms: C_2  and  C_20
    2  A    between atoms: C_2  and  C_27
    3  A    between atoms: N_7  and  C_41
    4  A    between atoms: C_13  and  C_16
    5  A    between atoms: C_20  and  C_44
    6  A    between atoms: C_23  and  N_33
    7  A    between atoms: C_26  and  C_32
    8  A    between atoms: C_28  and  C_53
    9  A    between atoms: C_30  and  C_44
   10  A    between atoms: C_34  and  C_36
   11  A    between atoms: C_38  and  C_46
                            x       y       z     vdW  Elec       q    Type
                         _______ _______ _______ _____ _____    ______ ____

>  <TORSDO>
F 11

$$$$
=
 OpenBabel11042417543D

 55 61  0  0  1  0  0  0  0  0999 V2000
  188.3210  176.2970  143.8140 N   0  0  1  0  0  0  0  0  0  0  0  0
  185.3360  177.2640  142.9560 N   0  0  0  0  0  0  0  0  0  0  0  0
  186.7270  176.9300  141.1010 O   0  0  0  0  0  0  0  0  0  0  0  0
  189.1740  174.4540  141.8710 C   0  0  0  0  0  0  0  0  0  0  0  0
  186.4250  176.6080  142.2830 C   0  0  0  0  0  0  0  0  0  0  0  0
  191.4440  174.6230  142.7440 C   0  0  0  0  0  0  0  0  0  0  0  0
  185.3530  177.3270  144.4170 C   0  0  0  0  0  2  0  0  0  0  0  0
  187.2730  175.6060  143.0140 C   0  0  1  0  0  3  0  0  0  0  0  0
  187.8090  174.6970  142.0370 O   0  0  0  0  0  0  0  0  0  0  0  0
  190.0530  174.8450  142.8740 C   0  0  0  0  0  0  0  0  0  0  0  0
  189.6540  173.8280  140.7140 C   0  0  0  0  0  0  0  0  0  0  0  0
  187.7550  176.8000  145.0950 C   0  0  2  0  0  3  0  0  0  0  0  0
  187.1260  178.9560  144.1590 O   0  0  0  0  0  1  0  0  0  0  0  0
  191.9300  174.0090  141.5620 C   0  0  0  0  0  0  0  0  0  0  0  0
  186.6780  177.8820  144.9340 C   0  0  1  0  0  3  0  0  0  0  0  0
  189.4280  175.3640  144.1250 C   0  0  2  0  0  3  0  0  0  0  0  0
  188.9850  174.2920  144.9100 O   0  0  0  0  0  1  0  0  0  0  0  0
  191.0250  173.6190  140.5630 C   0  0  0  0  0  3  0  0  0  0  0  0
  192.3670  175.0290  143.8310 C   0  0  0  0  0  0  0  0  0  0  0  0
  192.9040  176.3250  143.8560 C   0  0  0  0  0  3  0  0  0  0  0  0
  194.9440  176.1780  146.8880 F   0  0  0  0  0  0  0  0  0  0  0  0
  192.7070  174.1260  144.8490 C   0  0  0  0  0  3  0  0  0  0  0  0
  193.5730  174.5110  145.8770 C   0  0  0  0  0  3  0  0  0  0  0  0
  194.1040  175.8050  145.8940 C   0  0  0  0  0  0  0  0  0  0  0  0
  193.7700  176.7110  144.8840 C   0  0  0  0  0  3  0  0  0  0  0  0
  182.1150  179.0230  140.8670 N   0  0  0  0  0  0  0  0  0  0  0  0
  182.0940  178.9980  142.2250 C   0  0  0  0  0  3  0  0  0  0  0  0
  183.1530  178.4240  142.9320 C   0  0  0  0  0  3  0  0  0  0  0  0
  184.2440  177.8770  142.2370 C   0  0  0  0  0  0  0  0  0  0  0  0
  183.1540  178.4960  140.1630 C   0  0  0  0  0  3  0  0  0  0  0  0
  184.2290  177.9140  140.8340 C   0  0  0  0  0  3  0  0  0  0  0  0
  189.9040  177.7560  145.5330 O   0  0  0  0  0  0  0  0  0  0  0  0
  188.6110  177.3770  147.3860 O   0  0  0  0  0  1  0  0  0  0  0  0
  188.8160  177.3460  146.0130 C   0  0  0  0  0  0  0  0  0  0  0  0
  193.3780  173.8040  141.3600 C   0  0  0  0  0  3  0  0  0  0  0  0
  194.1050  174.5120  140.4960 C   0  0  0  0  0  3  0  0  0  0  0  0
  197.3530  174.9010  138.8720 C   0  0  2  0  0  3  0  0  0  0  0  0
  197.5550  175.6510  137.7160 O   0  0  0  0  0  1  0  0  0  0  0  0
  196.4060  175.3690  140.9700 C   0  0  2  0  0  3  0  0  0  0  0  0
  195.5750  174.2810  140.3140 C   0  0  2  0  0  3  0  0  0  0  0  0
  195.9670  174.3060  138.8620 C   0  0  0  0  0  2  0  0  0  0  0  0
  197.4650  175.7630  140.0440 N   0  0  0  0  0  2  0  0  0  0  0  0
  196.9980  174.8580  142.2420 C   0  0  0  0  0  3  0  0  0  0  0  0
  196.9870  173.6010  142.5010 N   0  0  0  0  0  0  0  0  0  0  0  0
  197.5230  174.1800  144.7850 C   0  0  0  0  0  2  0  0  0  0  0  0
  197.5550  173.0990  143.7240 C   0  0  1  0  0  3  0  0  0  0  0  0
  196.8050  172.1810  145.7750 C   0  0  0  0  0  2  0  0  0  0  0  0
  196.7090  171.9880  144.2840 C   0  0  0  0  0  2  0  0  0  0  0  0
  197.0210  173.5990  146.0270 N   0  0  0  0  0  2  0  0  0  0  0  0
  188.7220  173.4150  139.6240 C   0  0  0  0  0  2  0  0  0  0  0  0
  189.3680  172.3480  138.7610 C   0  0  0  0  0  2  0  0  0  0  0  0
  189.0070  172.5870  137.3090 C   0  0  0  0  0  2  0  0  0  0  0  0
  190.6850  174.2180  136.8310 O   0  0  0  0  0  1  0  0  0  0  0  0
  188.5160  174.9100  136.5550 O   0  0  0  0  0  0  0  0  0  0  0  0
  189.4570  173.9410  136.8770 C   0  0  0  0  0  0  0  0  0  0  0  0
  1 16  1  0  0  0  0
  1 12  1  0  0  0  0
  2  7  1  0  0  0  0
  3  5  2  0  0  0  0
  4  9  1  0  0  0  0
  4 10  1  0  0  0  0
  5  2  1  0  0  0  0
  5  8  1  0  0  0  0
  6 10  2  0  0  0  0
  6 19  1  0  0  0  0
  7 15  1  0  0  0  0
  8  1  1  0  0  0  0
  9  8  1  0  0  0  0
 10 16  1  0  0  0  0
 11  4  2  0  0  0  0
 12 34  1  0  0  0  0
 13 15  1  0  0  0  0
 14  6  1  0  0  0  0
 15 12  1  0  0  0  0
 16 17  1  0  0  0  0
 18 11  1  0  0  0  0
 18 14  2  0  0  0  0
 19 20  2  0  0  0  0
 19 22  1  0  0  0  0
 20 25  1  0  0  0  0
 22 23  2  0  0  0  0
 23 24  1  0  0  0  0
 24 21  1  0  0  0  0
 25 24  2  0  0  0  0
 26 27  1  0  0  0  0
 27 28  2  0  0  0  0
 29 28  1  0  0  0  0
 29  2  1  0  0  0  0
 30 31  1  0  0  0  0
 30 26  2  0  0  0  0
 31 29  2  0  0  0  0
 32 34  2  0  0  0  0
 34 33  1  0  0  0  0
 35 14  1  0  0  0  0
 36 35  2  0  0  0  0
 37 42  1  0  0  0  0
 38 37  1  0  0  0  0
 39 43  1  0  0  0  0
 40 36  1  0  0  0  0
 40 39  1  0  0  0  0
 41 37  1  0  0  0  0
 41 40  1  0  0  0  0
 42 39  1  0  0  0  0
 43 44  2  0  0  0  0
 44 46  1  0  0  0  0
 45 49  1  0  0  0  0
 46 48  1  0  0  0  0
 46 45  1  0  0  0  0
 47 49  1  0  0  0  0
 48 47  1  0  0  0  0
 50 11  1  0  0  0  0
 51 50  1  0  0  0  0
 52 51  1  0  0  0  0
 53 55  1  0  0  0  0
 54 55  2  0  0  0  0
 55 52  1  0  0  0  0
M  END
>  <MODEL>
6

>  <REMARK>
 VINA RESULT:      -7.2      2.857     10.417
  Name = 
  11 active torsions:
  status: ('A' for Active; 'I' for Inactive)
    1  A    between atoms: C_2  and  C_20
    2  A    between atoms: C_2  and  C_27
    3  A    between atoms: N_7  and  C_41
    4  A    between atoms: C_13  and  C_16
    5  A    between atoms: C_20  and  C_44
    6  A    between atoms: C_23  and  N_33
    7  A    between atoms: C_26  and  C_32
    8  A    between atoms: C_28  and  C_53
    9  A    between atoms: C_30  and  C_44
   10  A    between atoms: C_34  and  C_36
   11  A    between atoms: C_38  and  C_46
                            x       y       z     vdW  Elec       q    Type
                         _______ _______ _______ _____ _____    ______ ____

>  <TORSDO>
F 11

$$$$
=
 OpenBabel11042417543D

 55 61  0  0  1  0  0  0  0  0999 V2000
  190.2970  175.3330  144.8290 N   0  0  1  0  0  0  0  0  0  0  0  0
  187.3850  176.7800  144.7290 N   0  0  0  0  0  0  0  0  0  0  0  0
  188.4860  176.8600  142.6630 O   0  0  0  0  0  0  0  0  0  0  0  0
  190.6580  174.0490  142.3550 C   0  0  0  0  0  0  0  0  0  0  0  0
  188.2890  176.2430  143.7460 C   0  0  0  0  0  0  0  0  0  0  0  0
  193.0190  173.7490  142.8850 C   0  0  0  0  0  0  0  0  0  0  0  0
  187.5850  176.4210  146.1330 C   0  0  0  0  0  2  0  0  0  0  0  0
  189.0780  175.0000  144.0420 C   0  0  1  0  0  3  0  0  0  0  0  0
  189.3670  174.3620  142.7860 O   0  0  0  0  0  0  0  0  0  0  0  0
  191.6960  174.0540  143.2800 C   0  0  0  0  0  0  0  0  0  0  0  0
  190.9080  173.7370  141.0140 C   0  0  0  0  0  0  0  0  0  0  0  0
  189.9600  175.4990  146.2690 C   0  0  2  0  0  3  0  0  0  0  0  0
  189.5150  177.8820  146.0560 O   0  0  0  0  0  1  0  0  0  0  0  0
  193.2740  173.4550  141.5210 C   0  0  0  0  0  0  0  0  0  0  0  0
  189.0240  176.6790  146.5720 C   0  0  1  0  0  3  0  0  0  0  0  0
  191.2990  174.2510  144.7050 C   0  0  2  0  0  3  0  0  0  0  0  0
  190.8150  173.0450  145.2300 O   0  0  0  0  0  1  0  0  0  0  0  0
  192.2110  173.4520  140.6050 C   0  0  0  0  0  3  0  0  0  0  0  0
  194.1110  173.7390  143.8870 C   0  0  0  0  0  0  0  0  0  0  0  0
  194.5510  172.5290  144.4430 C   0  0  0  0  0  3  0  0  0  0  0  0
  197.1890  173.7060  146.6870 F   0  0  0  0  0  0  0  0  0  0  0  0
  194.7230  174.9380  144.2840 C   0  0  0  0  0  3  0  0  0  0  0  0
  195.7570  174.9280  145.2240 C   0  0  0  0  0  3  0  0  0  0  0  0
  196.1880  173.7160  145.7740 C   0  0  0  0  0  0  0  0  0  0  0  0
  195.5850  172.5180  145.3840 C   0  0  0  0  0  3  0  0  0  0  0  0
  184.2100  179.3820  143.7410 N   0  0  0  0  0  0  0  0  0  0  0  0
  185.1410  179.7810  144.6460 C   0  0  0  0  0  3  0  0  0  0  0  0
  186.1990  178.9340  144.9820 C   0  0  0  0  0  3  0  0  0  0  0  0
  186.3050  177.6720  144.3770 C   0  0  0  0  0  0  0  0  0  0  0  0
  184.2790  178.1630  143.1410 C   0  0  0  0  0  3  0  0  0  0  0  0
  185.3220  177.2890  143.4500 C   0  0  0  0  0  3  0  0  0  0  0  0
  191.1620  175.2800  148.3260 O   0  0  0  0  0  1  0  0  0  0  0  0
  192.3340  176.2470  146.6110 O   0  0  0  0  0  0  0  0  0  0  0  0
  191.1860  175.6600  147.1270 C   0  0  0  0  0  0  0  0  0  0  0  0
  194.6470  173.1810  141.0540 C   0  0  0  0  0  3  0  0  0  0  0  0
  194.9200  172.4980  139.9420 C   0  0  0  0  0  3  0  0  0  0  0  0
  197.8690  170.4480  139.2830 C   0  0  2  0  0  3  0  0  0  0  0  0
  197.9410  169.0850  139.5590 O   0  0  0  0  0  1  0  0  0  0  0  0
  196.3840  171.7820  138.0460 C   0  0  2  0  0  3  0  0  0  0  0  0
  196.3260  172.2370  139.4930 C   0  0  2  0  0  3  0  0  0  0  0  0
  196.9650  171.1260  140.2820 C   0  0  0  0  0  2  0  0  0  0  0  0
  197.3070  170.6530  137.9530 N   0  0  0  0  0  2  0  0  0  0  0  0
  196.8540  172.9040  137.1800 C   0  0  0  0  0  3  0  0  0  0  0  0
  196.1390  173.3030  136.1930 N   0  0  0  0  0  0  0  0  0  0  0  0
  195.4020  174.9920  134.6310 C   0  0  0  0  0  2  0  0  0  0  0  0
  196.5850  174.3830  135.3530 C   0  0  1  0  0  3  0  0  0  0  0  0
  196.7290  176.7470  135.4390 C   0  0  0  0  0  2  0  0  0  0  0  0
  197.1450  175.5050  136.1850 C   0  0  0  0  0  2  0  0  0  0  0  0
  195.4920  176.4460  134.7310 N   0  0  0  0  0  2  0  0  0  0  0  0
  189.8060  173.7420  140.0080 C   0  0  0  0  0  2  0  0  0  0  0  0
  190.1950  172.9070  138.8020 C   0  0  0  0  0  2  0  0  0  0  0  0
  190.5310  173.8230  137.6420 C   0  0  0  0  0  2  0  0  0  0  0  0
  188.3200  174.4730  137.0140 O   0  0  0  0  0  1  0  0  0  0  0  0
  189.4950  173.2860  135.4420 O   0  0  0  0  0  0  0  0  0  0  0  0
  189.3890  173.8930  136.6870 C   0  0  0  0  0  0  0  0  0  0  0  0
  1 12  1  0  0  0  0
  2  7  1  0  0  0  0
  3  5  2  0  0  0  0
  4  9  1  0  0  0  0
  4 10  1  0  0  0  0
  5  8  1  0  0  0  0
  5  2  1  0  0  0  0
  6 10  2  0  0  0  0
  6 19  1  0  0  0  0
  7 15  1  0  0  0  0
  8  1  1  0  0  0  0
  9  8  1  0  0  0  0
 10 16  1  0  0  0  0
 11  4  2  0  0  0  0
 12 15  1  0  0  0  0
 12 34  1  0  0  0  0
 13 15  1  0  0  0  0
 14  6  1  0  0  0  0
 16  1  1  0  0  0  0
 16 17  1  0  0  0  0
 18 11  1  0  0  0  0
 18 14  2  0  0  0  0
 19 22  2  0  0  0  0
 19 20  1  0  0  0  0
 20 25  2  0  0  0  0
 22 23  1  0  0  0  0
 23 24  2  0  0  0  0
 24 21  1  0  0  0  0
 25 24  1  0  0  0  0
 26 27  1  0  0  0  0
 27 28  2  0  0  0  0
 29  2  1  0  0  0  0
 29 28  1  0  0  0  0
 30 31  1  0  0  0  0
 30 26  2  0  0  0  0
 31 29  2  0  0  0  0
 33 34  2  0  0  0  0
 34 32  1  0  0  0  0
 35 14  1  0  0  0  0
 36 35  2  0  0  0  0
 37 38  1  0  0  0  0
 37 41  1  0  0  0  0
 39 40  1  0  0  0  0
 40 36  1  0  0  0  0
 40 41  1  0  0  0  0
 42 39  1  0  0  0  0
 42 37  1  0  0  0  0
 43 39  1  0  0  0  0
 44 43  2  0  0  0  0
 45 49  1  0  0  0  0
 45 46  1  0  0  0  0
 46 48  1  0  0  0  0
 46 44  1  0  0  0  0
 47 48  1  0  0  0  0
 49 47  1  0  0  0  0
 50 11  1  0  0  0  0
 51 50  1  0  0  0  0
 52 51  1  0  0  0  0
 54 55  2  0  0  0  0
 55 53  1  0  0  0  0
 55 52  1  0  0  0  0
M  END
>  <MODEL>
7

>  <REMARK>
 VINA RESULT:      -7.1      3.308     10.427
  Name = 
  11 active torsions:
  status: ('A' for Active; 'I' for Inactive)
    1  A    between atoms: C_2  and  C_20
    2  A    between atoms: C_2  and  C_27
    3  A    between atoms: N_7  and  C_41
    4  A    between atoms: C_13  and  C_16
    5  A    between atoms: C_20  and  C_44
    6  A    between atoms: C_23  and  N_33
    7  A    between atoms: C_26  and  C_32
    8  A    between atoms: C_28  and  C_53
    9  A    between atoms: C_30  and  C_44
   10  A    between atoms: C_34  and  C_36
   11  A    between atoms: C_38  and  C_46
                            x       y       z     vdW  Elec       q    Type
                         _______ _______ _______ _____ _____    ______ ____

>  <TORSDO>
F 11

$$$$
=
 OpenBabel11042417543D

 55 61  0  0  1  0  0  0  0  0999 V2000
  191.9260  172.1870  139.4270 N   0  0  1  0  0  0  0  0  0  0  0  0
  194.1550  170.8360  137.4800 N   0  0  0  0  0  0  0  0  0  0  0  0
  195.1190  171.8750  139.3450 O   0  0  0  0  0  0  0  0  0  0  0  0
  192.8170  171.8240  142.0670 C   0  0  0  0  0  0  0  0  0  0  0  0
  194.1300  171.2660  138.8530 C   0  0  0  0  0  0  0  0  0  0  0  0
  191.1520  173.4360  142.8230 C   0  0  0  0  0  0  0  0  0  0  0  0
  192.8830  170.6760  136.7740 C   0  0  0  0  0  2  0  0  0  0  0  0
  192.8900  171.0820  139.6820 C   0  0  1  0  0  3  0  0  0  0  0  0
  193.2980  170.9880  141.0570 O   0  0  0  0  0  0  0  0  0  0  0  0
  191.6710  172.5730  141.8300 C   0  0  0  0  0  0  0  0  0  0  0  0
  193.4760  171.9090  143.3000 C   0  0  0  0  0  0  0  0  0  0  0  0
  191.1630  171.9370  138.1730 C   0  0  2  0  0  3  0  0  0  0  0  0
  192.7770  173.0960  136.7680 O   0  0  0  0  0  1  0  0  0  0  0  0
  191.8340  173.5390  144.0630 C   0  0  0  0  0  0  0  0  0  0  0  0
  192.0190  171.9280  136.8980 C   0  0  1  0  0  3  0  0  0  0  0  0
  190.9630  172.2970  140.5460 C   0  0  2  0  0  3  0  0  0  0  0  0
  190.1940  171.1330  140.6730 O   0  0  0  0  0  1  0  0  0  0  0  0
  192.9870  172.7700  144.2820 C   0  0  0  0  0  3  0  0  0  0  0  0
  189.9180  174.2150  142.5620 C   0  0  0  0  0  0  0  0  0  0  0  0
  188.6620  173.5930  142.6270 C   0  0  0  0  0  3  0  0  0  0  0  0
  186.4500  176.4010  141.8480 F   0  0  0  0  0  0  0  0  0  0  0  0
  189.9920  175.5830  142.2570 C   0  0  0  0  0  3  0  0  0  0  0  0
  188.8270  176.3180  142.0170 C   0  0  0  0  0  3  0  0  0  0  0  0
  187.5790  175.6890  142.0820 C   0  0  0  0  0  0  0  0  0  0  0  0
  187.4970  174.3280  142.3870 C   0  0  0  0  0  3  0  0  0  0  0  0
  197.7430  170.0900  135.3840 N   0  0  0  0  0  0  0  0  0  0  0  0
  197.2890  171.3650  135.4940 C   0  0  0  0  0  3  0  0  0  0  0  0
  196.1060  171.6300  136.1870 C   0  0  0  0  0  3  0  0  0  0  0  0
  195.3890  170.5770  136.7760 C   0  0  0  0  0  0  0  0  0  0  0  0
  197.0690  169.0460  135.9370 C   0  0  0  0  0  3  0  0  0  0  0  0
  195.8830  169.2710  136.6370 C   0  0  0  0  0  3  0  0  0  0  0  0
  190.3010  174.1660  138.0550 O   0  0  0  0  0  1  0  0  0  0  0  0
  188.7580  172.5060  137.7160 O   0  0  0  0  0  0  0  0  0  0  0  0
  190.0540  172.9350  137.9710 C   0  0  0  0  0  0  0  0  0  0  0  0
  191.3590  174.4650  145.1100 C   0  0  0  0  0  3  0  0  0  0  0  0
  190.3670  174.1730  145.9510 C   0  0  0  0  0  3  0  0  0  0  0  0
  190.7460  176.8930  148.3580 C   0  0  2  0  0  3  0  0  0  0  0  0
  191.9530  177.5420  148.6090 O   0  0  0  0  0  1  0  0  0  0  0  0
  189.4980  176.4720  146.4130 C   0  0  2  0  0  3  0  0  0  0  0  0
  189.9080  175.1350  147.0050 C   0  0  2  0  0  3  0  0  0  0  0  0
  191.0050  175.4550  147.9830 C   0  0  0  0  0  2  0  0  0  0  0  0
  190.0640  177.5350  147.2400 N   0  0  0  0  0  2  0  0  0  0  0  0
  188.0090  176.5790  146.3850 C   0  0  0  0  0  3  0  0  0  0  0  0
  187.4100  176.9920  145.3280 N   0  0  0  0  0  0  0  0  0  0  0  0
  185.4320  177.1700  146.7040 C   0  0  0  0  0  2  0  0  0  0  0  0
  185.9750  177.0990  145.2920 C   0  0  1  0  0  3  0  0  0  0  0  0
  184.3250  178.7940  145.4260 C   0  0  0  0  0  2  0  0  0  0  0  0
  185.5570  178.3960  144.6550 C   0  0  0  0  0  2  0  0  0  0  0  0
  184.4470  178.2460  146.7710 N   0  0  0  0  0  2  0  0  0  0  0  0
  194.7150  171.1200  143.5620 C   0  0  0  0  0  2  0  0  0  0  0  0
  195.9420  171.9660  143.2830 C   0  0  0  0  0  2  0  0  0  0  0  0
  196.8330  171.9820  144.5090 C   0  0  0  0  0  2  0  0  0  0  0  0
  196.2810  174.3040  144.6010 O   0  0  0  0  0  0  0  0  0  0  0  0
  197.1950  173.4200  146.5100 O   0  0  0  0  0  1  0  0  0  0  0  0
  196.7410  173.2970  145.2020 C   0  0  0  0  0  0  0  0  0  0  0  0
  1  8  1  0  0  0  0
  1 16  1  0  0  0  0
  2  5  1  0  0  0  0
  4 11  1  0  0  0  0
  5  3  2  0  0  0  0
  5  8  1  0  0  0  0
  6 14  2  0  0  0  0
  7 15  1  0  0  0  0
  7  2  1  0  0  0  0
  8  9  1  0  0  0  0
  9  4  1  0  0  0  0
 10  4  2  0  0  0  0
 10  6  1  0  0  0  0
 11 50  1  0  0  0  0
 11 18  2  0  0  0  0
 12  1  1  0  0  0  0
 13 15  1  0  0  0  0
 14 18  1  0  0  0  0
 14 35  1  0  0  0  0
 15 12  1  0  0  0  0
 16 17  1  0  0  0  0
 16 10  1  0  0  0  0
 19 20  1  0  0  0  0
 19  6  1  0  0  0  0
 21 24  1  0  0  0  0
 22 19  2  0  0  0  0
 23 24  2  0  0  0  0
 23 22  1  0  0  0  0
 24 25  1  0  0  0  0
 25 20  2  0  0  0  0
 26 27  2  0  0  0  0
 26 30  1  0  0  0  0
 27 28  1  0  0  0  0
 28 29  2  0  0  0  0
 29  2  1  0  0  0  0
 30 31  2  0  0  0  0
 31 29  1  0  0  0  0
 33 34  2  0  0  0  0
 34 32  1  0  0  0  0
 34 12  1  0  0  0  0
 35 36  2  0  0  0  0
 36 40  1  0  0  0  0
 37 38  1  0  0  0  0
 39 40  1  0  0  0  0
 39 42  1  0  0  0  0
 40 41  1  0  0  0  0
 41 37  1  0  0  0  0
 42 37  1  0  0  0  0
 43 39  1  0  0  0  0
 44 43  2  0  0  0  0
 45 49  1  0  0  0  0
 46 44  1  0  0  0  0
 46 45  1  0  0  0  0
 47 49  1  0  0  0  0
 48 46  1  0  0  0  0
 48 47  1  0  0  0  0
 51 50  1  0  0  0  0
 51 52  1  0  0  0  0
 52 55  1  0  0  0  0
 53 55  2  0  0  0  0
 55 54  1  0  0  0  0
M  END
>  <MODEL>
8

>  <REMARK>
 VINA RESULT:      -6.9      3.370      6.601
  Name = 
  11 active torsions:
  status: ('A' for Active; 'I' for Inactive)
    1  A    between atoms: C_2  and  C_20
    2  A    between atoms: C_2  and  C_27
    3  A    between atoms: N_7  and  C_41
    4  A    between atoms: C_13  and  C_16
    5  A    between atoms: C_20  and  C_44
    6  A    between atoms: C_23  and  N_33
    7  A    between atoms: C_26  and  C_32
    8  A    between atoms: C_28  and  C_53
    9  A    between atoms: C_30  and  C_44
   10  A    between atoms: C_34  and  C_36
   11  A    between atoms: C_38  and  C_46
                            x       y       z     vdW  Elec       q    Type
                         _______ _______ _______ _____ _____    ______ ____

>  <TORSDO>
F 11

$$$$
=
 OpenBabel11042417543D

 55 61  0  0  1  0  0  0  0  0999 V2000
  188.2370  176.4870  143.8900 N   0  0  1  0  0  0  0  0  0  0  0  0
  185.2040  177.3290  143.0700 N   0  0  0  0  0  0  0  0  0  0  0  0
  186.5980  177.1060  141.2010 O   0  0  0  0  0  0  0  0  0  0  0  0
  189.1660  174.7340  141.8990 C   0  0  0  0  0  0  0  0  0  0  0  0
  186.3190  176.7420  142.3760 C   0  0  0  0  0  0  0  0  0  0  0  0
  191.4300  174.9910  142.7650 C   0  0  0  0  0  0  0  0  0  0  0  0
  185.2260  177.3580  144.5320 C   0  0  0  0  0  2  0  0  0  0  0  0
  187.2190  175.7660  143.0780 C   0  0  1  0  0  3  0  0  0  0  0  0
  187.7920  174.9070  142.0770 O   0  0  0  0  0  0  0  0  0  0  0  0
  190.0320  175.1430  142.9070 C   0  0  0  0  0  0  0  0  0  0  0  0
  189.6680  174.1590  140.7260 C   0  0  0  0  0  0  0  0  0  0  0  0
  187.6550  176.9310  145.1860 C   0  0  2  0  0  3  0  0  0  0  0  0
  186.9180  179.0770  144.3040 O   0  0  0  0  0  1  0  0  0  0  0  0
  191.9380  174.4300  141.5660 C   0  0  0  0  0  0  0  0  0  0  0  0
  186.5260  177.9640  145.0550 C   0  0  1  0  0  3  0  0  0  0  0  0
  189.3890  175.6010  144.1730 C   0  0  2  0  0  3  0  0  0  0  0  0
  189.0030  174.4910  144.9340 O   0  0  0  0  0  1  0  0  0  0  0  0
  191.0470  174.0200  140.5630 C   0  0  0  0  0  3  0  0  0  0  0  0
  192.3400  175.4150  143.8570 C   0  0  0  0  0  0  0  0  0  0  0  0
  192.7670  174.4900  144.8210 C   0  0  0  0  0  3  0  0  0  0  0  0
  194.9050  176.5960  146.9120 F   0  0  0  0  0  0  0  0  0  0  0  0
  192.7880  176.7430  143.9330 C   0  0  0  0  0  3  0  0  0  0  0  0
  193.6500  177.1400  144.9590 C   0  0  0  0  0  3  0  0  0  0  0  0
  194.0710  176.2110  145.9170 C   0  0  0  0  0  0  0  0  0  0  0  0
  193.6290  174.8880  145.8470 C   0  0  0  0  0  3  0  0  0  0  0  0
  181.8880  178.9850  141.0470 N   0  0  0  0  0  0  0  0  0  0  0  0
  182.0040  179.1580  142.3900 C   0  0  0  0  0  3  0  0  0  0  0  0
  183.0960  178.6200  143.0740 C   0  0  0  0  0  3  0  0  0  0  0  0
  184.0790  177.9060  142.3710 C   0  0  0  0  0  0  0  0  0  0  0  0
  182.8190  178.2930  140.3380 C   0  0  0  0  0  3  0  0  0  0  0  0
  183.9250  177.7410  140.9860 C   0  0  0  0  0  3  0  0  0  0  0  0
  188.4340  177.6410  147.3340 O   0  0  0  0  0  1  0  0  0  0  0  0
  189.9270  177.9130  145.6180 O   0  0  0  0  0  0  0  0  0  0  0  0
  188.6940  177.5070  146.1110 C   0  0  0  0  0  0  0  0  0  0  0  0
  193.3930  174.3000  141.3530 C   0  0  0  0  0  3  0  0  0  0  0  0
  194.1530  175.2800  140.8640 C   0  0  0  0  0  3  0  0  0  0  0  0
  197.5710  174.4540  141.8480 C   0  0  2  0  0  3  0  0  0  0  0  0
  197.9300  174.0470  143.1310 O   0  0  0  0  0  1  0  0  0  0  0  0
  195.9960  173.6940  140.2810 C   0  0  2  0  0  3  0  0  0  0  0  0
  195.6290  175.1170  140.6590 C   0  0  2  0  0  3  0  0  0  0  0  0
  196.4000  175.4020  141.9190 C   0  0  0  0  0  2  0  0  0  0  0  0
  197.1670  173.2960  141.0580 N   0  0  0  0  0  2  0  0  0  0  0  0
  196.2980  173.6200  138.8200 C   0  0  0  0  0  3  0  0  0  0  0  0
  196.2010  174.6670  138.0860 N   0  0  0  0  0  0  0  0  0  0  0  0
  195.7340  175.6990  135.9510 C   0  0  0  0  0  2  0  0  0  0  0  0
  196.4900  174.6050  136.6770 C   0  0  1  0  0  3  0  0  0  0  0  0
  197.9250  175.6660  135.1190 C   0  0  0  0  0  2  0  0  0  0  0  0
  197.9410  174.9070  136.4210 C   0  0  0  0  0  2  0  0  0  0  0  0
  196.6480  176.3620  135.0260 N   0  0  0  0  0  2  0  0  0  0  0  0
  188.7510  173.7280  139.6310 C   0  0  0  0  0  2  0  0  0  0  0  0
  189.3510  172.5550  138.8780 C   0  0  0  0  0  2  0  0  0  0  0  0
  188.9770  172.6530  137.4120 C   0  0  0  0  0  2  0  0  0  0  0  0
  190.4500  172.5020  135.5380 O   0  0  0  0  0  0  0  0  0  0  0  0
  190.9280  174.1580  137.0510 O   0  0  0  0  0  1  0  0  0  0  0  0
  190.1480  173.0990  136.6050 C   0  0  0  0  0  0  0  0  0  0  0  0
  1 16  1  0  0  0  0
  1 12  1  0  0  0  0
  2  7  1  0  0  0  0
  3  5  2  0  0  0  0
  4  9  1  0  0  0  0
  4 10  1  0  0  0  0
  5  2  1  0  0  0  0
  5  8  1  0  0  0  0
  6 10  2  0  0  0  0
  6 19  1  0  0  0  0
  7 15  1  0  0  0  0
  8  1  1  0  0  0  0
  9  8  1  0  0  0  0
 10 16  1  0  0  0  0
 11  4  2  0  0  0  0
 12 34  1  0  0  0  0
 13 15  1  0  0  0  0
 14  6  1  0  0  0  0
 15 12  1  0  0  0  0
 16 17  1  0  0  0  0
 18 11  1  0  0  0  0
 18 14  2  0  0  0  0
 19 22  2  0  0  0  0
 19 20  1  0  0  0  0
 20 25  2  0  0  0  0
 22 23  1  0  0  0  0
 23 24  2  0  0  0  0
 24 21  1  0  0  0  0
 25 24  1  0  0  0  0
 26 27  1  0  0  0  0
 27 28  2  0  0  0  0
 29  2  1  0  0  0  0
 29 28  1  0  0  0  0
 30 31  1  0  0  0  0
 30 26  2  0  0  0  0
 31 29  2  0  0  0  0
 33 34  2  0  0  0  0
 34 32  1  0  0  0  0
 35 14  1  0  0  0  0
 36 35  2  0  0  0  0
 37 41  1  0  0  0  0
 37 38  1  0  0  0  0
 39 40  1  0  0  0  0
 39 42  1  0  0  0  0
 40 36  1  0  0  0  0
 40 41  1  0  0  0  0
 42 37  1  0  0  0  0
 43 39  1  0  0  0  0
 44 43  2  0  0  0  0
 45 46  1  0  0  0  0
 46 44  1  0  0  0  0
 47 48  1  0  0  0  0
 48 46  1  0  0  0  0
 49 47  1  0  0  0  0
 49 45  1  0  0  0  0
 50 11  1  0  0  0  0
 51 50  1  0  0  0  0
 52 51  1  0  0  0  0
 53 55  2  0  0  0  0
 55 54  1  0  0  0  0
 55 52  1  0  0  0  0
M  END
>  <MODEL>
9

>  <REMARK>
 VINA RESULT:      -6.6      3.109     10.385
  Name = 
  11 active torsions:
  status: ('A' for Active; 'I' for Inactive)
    1  A    between atoms: C_2  and  C_20
    2  A    between atoms: C_2  and  C_27
    3  A    between atoms: N_7  and  C_41
    4  A    between atoms: C_13  and  C_16
    5  A    between atoms: C_20  and  C_44
    6  A    between atoms: C_23  and  N_33
    7  A    between atoms: C_26  and  C_32
    8  A    between atoms: C_28  and  C_53
    9  A    between atoms: C_30  and  C_44
   10  A    between atoms: C_34  and  C_36
   11  A    between atoms: C_38  and  C_46
                            x       y       z     vdW  Elec       q    Type
                         _______ _______ _______ _____ _____    ______ ____

>  <TORSDO>
F 11

$$$$
