=
 OpenBabel11042416433D

 55 60  0  0  1  0  0  0  0  0999 V2000
  194.8170  175.5920  145.0150 C   0  0  2  0  0  3  0  0  0  0  0  0
  194.2050  176.3610  143.7980 C   0  0  1  0  0  3  0  0  0  0  0  0
  195.9330  175.7800  140.4180 C   0  0  0  0  0  3  0  0  0  0  0  0
  197.0560  174.6220  142.2410 C   0  0  0  0  0  3  0  0  0  0  0  0
  195.0740  175.9320  142.6590 C   0  0  0  0  0  0  0  0  0  0  0  0
  194.9750  176.2840  141.3130 C   0  0  0  0  0  3  0  0  0  0  0  0
  196.0910  175.1330  143.1070 C   0  0  0  0  0  0  0  0  0  0  0  0
  196.0050  174.9120  144.4980 N   0  0  0  0  0  0  0  0  0  0  0  0
  196.9770  174.9530  140.8750 C   0  0  0  0  0  0  0  0  0  0  0  0
  190.4030  176.5450  143.3950 N   0  0  0  0  0  2  0  0  0  0  0  0
  191.9720  178.1350  144.0760 O   0  0  0  0  0  0  0  0  0  0  0  0
  191.7370  176.9510  143.6950 C   0  0  0  0  0  0  0  0  0  0  0  0
  192.8070  176.0150  143.5520 N   0  0  0  0  0  2  0  0  0  0  0  0
  189.2600  177.4280  143.5830 C   0  0  1  0  0  3  0  0  0  0  0  0
  187.7270  176.3880  141.1000 O   0  0  0  0  0  1  0  0  0  0  0  0
  187.0530  177.0230  144.6540 C   0  0  0  0  0  1  0  0  0  0  0  0
  188.9230  178.1160  142.2630 C   0  0  0  0  0  2  0  0  0  0  0  0
  187.6510  177.2940  142.1630 C   0  0  2  0  0  0  0  0  0  0  0  0
  187.9700  176.6180  143.5020 C   0  0  1  0  0  3  0  0  0  0  0  0
  186.4020  178.1750  142.0830 C   0  0  0  0  0  2  0  0  0  0  0  0
  185.9080  178.2200  140.7310 N   0  0  0  0  0  0  0  0  0  0  0  0
  184.6650  178.0080  140.4990 C   0  0  0  0  0  2  0  0  0  0  0  0
  197.9290  174.4540  139.9300 N   0  0  0  0  0  2  0  0  0  0  0  0
  197.3610  174.3860  137.6370 O   0  0  0  0  0  1  0  0  0  0  0  0
  197.6380  173.6130  138.7660 C   0  0  2  0  0  3  0  0  0  0  0  0
  192.9560  172.1590  138.1600 C   0  0  0  0  0  0  0  0  0  0  0  0
  191.9850  171.2340  138.3860 N   0  0  0  0  0  0  0  0  0  0  0  0
  194.2310  171.9640  138.7050 C   0  0  0  0  0  0  0  0  0  0  0  0
  192.5770  173.5660  137.1770 Cl  0  0  0  0  0  0  0  0  0  0  0  0
  194.4550  170.8160  139.4920 C   0  0  0  0  0  0  0  0  0  0  0  0
  196.7470  171.4990  139.8390 C   0  0  0  0  0  3  0  0  0  0  0  0
  192.2220  170.1270  139.1390 C   0  0  0  0  0  3  0  0  0  0  0  0
  193.4480  169.9240  139.6880 N   0  0  0  0  0  0  0  0  0  0  0  0
  195.7100  170.5900  140.0610 C   0  0  0  0  0  3  0  0  0  0  0  0
  195.2770  172.8660  138.4850 C   0  0  0  0  0  3  0  0  0  0  0  0
  196.5380  172.6340  139.0420 C   0  0  0  0  0  0  0  0  0  0  0  0
  196.9910  174.1980  145.3020 C   0  0  0  0  0  2  0  0  0  0  0  0
  196.4290  172.8580  145.7730 C   0  0  0  0  0  2  0  0  0  0  0  0
  196.5990  171.7730  144.6960 C   0  0  2  0  0  3  0  0  0  0  0  0
  192.9580  170.7540  144.6210 O   0  0  0  0  0  0  0  0  0  0  0  0
  192.4510  171.8630  143.9120 C   0  0  1  0  0  3  0  0  0  0  0  0
  193.4270  172.2920  142.8350 C   0  0  0  0  0  0  0  0  0  0  0  0
  193.0530  172.9800  141.8490 O   0  0  0  0  0  0  0  0  0  0  0  0
  194.8240  172.0250  143.0280 N   0  0  0  0  0  2  0  0  0  0  0  0
  194.1670  171.1560  145.2270 C   0  0  0  0  0  2  0  0  0  0  0  0
  195.2710  171.2210  144.1600 C   0  0  2  0  0  3  0  0  0  0  0  0
  191.0900  171.4880  143.3270 C   0  0  0  0  0  2  0  0  0  0  0  0
  190.0210  171.9930  144.1720 N   0  0  0  0  0  1  0  0  0  0  0  0
  197.5140  170.7600  145.0520 O   0  0  0  0  0  0  0  0  0  0  0  0
  197.2060  169.6910  144.3400 O   0  0  0  0  0  1  0  0  0  0  0  0
  193.8790  174.6020  145.7270 C   0  0  0  0  0  2  0  0  0  0  0  0
  191.6420  174.8450  146.7060 C   0  0  0  0  0  3  0  0  0  0  0  0
  192.8990  175.2900  146.6260 C   0  0  0  0  0  3  0  0  0  0  0  0
  190.6780  175.5340  147.6050 C   0  0  0  0  0  2  0  0  0  0  0  0
  189.2680  175.1210  147.2370 C   0  0  0  0  0  1  0  0  0  0  0  0
  1 51  1  6  0  0  0
  2 13  1  6  0  0  0
  2  1  1  0  0  0  0
  3  9  2  0  0  0  0
  3  6  1  0  0  0  0
  4  7  2  0  0  0  0
  5  7  1  0  0  0  0
  5  2  1  0  0  0  0
  6  5  2  0  0  0  0
  7  8  1  0  0  0  0
  8  1  1  0  0  0  0
  8 37  1  0  0  0  0
  9  4  1  0  0  0  0
 10 12  1  0  0  0  0
 12 11  2  0  0  0  0
 13 12  1  0  0  0  0
 14 10  1  6  0  0  0
 17 14  1  0  0  0  0
 18 15  1  6  0  0  0
 18 17  1  0  0  0  0
 18 19  1  0  0  0  0
 19 14  1  0  0  0  0
 19 16  1  1  0  0  0
 20 18  1  0  0  0  0
 21 20  1  0  0  0  0
 22 21  2  0  0  0  0
 23  9  1  0  0  0  0
 25 24  1  6  0  0  0
 25 36  1  0  0  0  0
 25 23  1  0  0  0  0
 26 27  2  0  0  0  0
 26 28  1  0  0  0  0
 27 32  1  0  0  0  0
 28 30  1  0  0  0  0
 29 26  1  0  0  0  0
 30 33  1  0  0  0  0
 30 34  2  0  0  0  0
 31 34  1  0  0  0  0
 32 33  2  0  0  0  0
 35 28  2  0  0  0  0
 35 36  1  0  0  0  0
 36 31  2  0  0  0  0
 37 38  1  0  0  0  0
 39 49  1  0  0  0  0
 39 38  1  1  0  0  0
 40 45  1  0  0  0  0
 41 47  1  6  0  0  0
 41 40  1  0  0  0  0
 42 44  1  0  0  0  0
 42 41  1  0  0  0  0
 43 42  2  0  0  0  0
 44 46  1  0  0  0  0
 46 39  1  1  0  0  0
 46 45  1  0  0  0  0
 47 48  1  0  0  0  0
 50 49  1  0  0  0  0
 51 53  1  0  0  0  0
 52 54  1  0  0  0  0
 53 52  2  0  0  0  0
 55 54  1  0  0  0  0
M  END
>  <MODEL>
1

>  <REMARK>
 VINA RESULT:      -6.3      0.000      0.000
  Name = 
  16 active torsions:
  status: ('A' for Active; 'I' for Inactive)
    1  A    between atoms: N_2  and  C_16
    2  A    between atoms: C_3  and  N_7
    3  A    between atoms: C_4  and  C_27
    4  A    between atoms: C_5  and  C_35
    5  A    between atoms: C_6  and  N_52
    6  A    between atoms: C_10  and  C_26
    7  A    between atoms: C_16  and  C_42
    8  A    between atoms: O_18  and  C_30
    9  A    between atoms: C_27  and  C_49
   10  A    between atoms: C_30  and  C_44
   11  A    between atoms: C_30  and  C_48
   12  A    between atoms: C_36  and  C_54
   13  A    between atoms: C_36  and  N_55
   14  A    between atoms: C_43  and  C_44
   15  A    between atoms: C_43  and  N_50
   16  A    between atoms: C_53  and  N_55
                            x       y       z     vdW  Elec       q    Type
                         _______ _______ _______ _____ _____    ______ ____

>  <TORSDO>
F 16

$$$$
=
 OpenBabel11042416433D

 55 60  0  0  1  0  0  0  0  0999 V2000
  186.4670  177.4250  144.1280 C   0  0  2  0  0  3  0  0  0  0  0  0
  186.2110  177.5640  142.5920 C   0  0  1  0  0  3  0  0  0  0  0  0
  188.2570  175.2200  140.3410 C   0  0  0  0  0  3  0  0  0  0  0  0
  188.8400  174.9840  142.6930 C   0  0  0  0  0  3  0  0  0  0  0  0
  187.1300  176.5410  142.0050 C   0  0  0  0  0  0  0  0  0  0  0  0
  187.3030  176.1980  140.6640 C   0  0  0  0  0  3  0  0  0  0  0  0
  187.8850  175.9550  142.9860 C   0  0  0  0  0  0  0  0  0  0  0  0
  187.5530  176.4530  144.2640 N   0  0  0  0  0  0  0  0  0  0  0  0
  189.0310  174.6120  141.3490 C   0  0  0  0  0  0  0  0  0  0  0  0
  182.4670  177.9530  141.8980 N   0  0  0  0  0  2  0  0  0  0  0  0
  184.0470  179.4340  142.7690 O   0  0  0  0  0  0  0  0  0  0  0  0
  183.7900  178.2800  142.3200 C   0  0  0  0  0  0  0  0  0  0  0  0
  184.8230  177.2980  142.2210 N   0  0  0  0  0  2  0  0  0  0  0  0
  181.3540  178.8830  142.0320 C   0  0  1  0  0  3  0  0  0  0  0  0
  179.7700  177.7330  139.6310 O   0  0  0  0  0  1  0  0  0  0  0  0
  179.1430  178.6220  143.1400 C   0  0  0  0  0  1  0  0  0  0  0  0
  181.0310  179.4930  140.6720 C   0  0  0  0  0  2  0  0  0  0  0  0
  179.7320  178.7090  140.6330 C   0  0  2  0  0  0  0  0  0  0  0  0
  180.0390  178.1130  142.0120 C   0  0  1  0  0  3  0  0  0  0  0  0
  178.5120  179.6240  140.5010 C   0  0  0  0  0  2  0  0  0  0  0  0
  177.9870  179.5670  139.1620 N   0  0  0  0  0  0  0  0  0  0  0  0
  178.0410  180.6040  138.4100 C   0  0  0  0  0  2  0  0  0  0  0  0
  189.9880  173.6140  140.9790 N   0  0  0  0  0  2  0  0  0  0  0  0
  190.3290  171.5340  139.9090 O   0  0  0  0  0  1  0  0  0  0  0  0
  190.0350  172.8840  139.7090 C   0  0  2  0  0  3  0  0  0  0  0  0
  194.5480  174.5770  138.6240 C   0  0  0  0  0  0  0  0  0  0  0  0
  195.4050  175.1060  137.7110 N   0  0  0  0  0  0  0  0  0  0  0  0
  193.2210  174.3240  138.2550 C   0  0  0  0  0  0  0  0  0  0  0  0
  195.1430  174.2170  140.2390 Cl  0  0  0  0  0  0  0  0  0  0  0  0
  192.8150  174.6490  136.9450 C   0  0  0  0  0  0  0  0  0  0  0  0
  190.5860  173.8580  137.4360 C   0  0  0  0  0  3  0  0  0  0  0  0
  194.9990  175.4040  136.4470 C   0  0  0  0  0  3  0  0  0  0  0  0
  193.7130  175.1780  136.0720 N   0  0  0  0  0  0  0  0  0  0  0  0
  191.4980  174.4210  136.5420 C   0  0  0  0  0  3  0  0  0  0  0  0
  192.3010  173.7560  139.1430 C   0  0  0  0  0  3  0  0  0  0  0  0
  190.9850  173.5130  138.7360 C   0  0  0  0  0  0  0  0  0  0  0  0
  188.2430  176.1190  145.5050 C   0  0  0  0  0  2  0  0  0  0  0  0
  189.3530  177.1290  145.7880 C   0  0  0  0  0  2  0  0  0  0  0  0
  190.6060  176.4380  146.3520 C   0  0  2  0  0  3  0  0  0  0  0  0
  194.2430  176.4530  145.3200 O   0  0  0  0  0  0  0  0  0  0  0  0
  194.2720  175.2090  144.6570 C   0  0  1  0  0  3  0  0  0  0  0  0
  192.9810  174.9870  143.8940 C   0  0  0  0  0  0  0  0  0  0  0  0
  192.9170  174.1650  142.9420 O   0  0  0  0  0  0  0  0  0  0  0  0
  191.7860  175.6240  144.3670 N   0  0  0  0  0  2  0  0  0  0  0  0
  193.1670  176.4230  146.2320 C   0  0  0  0  0  2  0  0  0  0  0  0
  191.8470  176.5860  145.4620 C   0  0  2  0  0  3  0  0  0  0  0  0
  195.4890  175.1740  143.7340 C   0  0  0  0  0  2  0  0  0  0  0  0
  195.6030  176.4240  143.0020 N   0  0  0  0  0  1  0  0  0  0  0  0
  190.3810  175.1100  146.7690 O   0  0  0  0  0  0  0  0  0  0  0  0
  190.5360  175.0840  148.0810 O   0  0  0  0  0  1  0  0  0  0  0  0
  185.2520  177.0190  144.9810 C   0  0  0  0  0  2  0  0  0  0  0  0
  185.9550  178.8330  146.4760 C   0  0  0  0  0  3  0  0  0  0  0  0
  185.2080  177.7420  146.2910 C   0  0  0  0  0  3  0  0  0  0  0  0
  185.9000  179.5450  147.7810 C   0  0  0  0  0  2  0  0  0  0  0  0
  187.1460  179.2230  148.5800 C   0  0  0  0  0  1  0  0  0  0  0  0
  1  8  1  0  0  0  0
  1 51  1  1  0  0  0
  2 13  1  1  0  0  0
  2  1  1  0  0  0  0
  3  6  2  0  0  0  0
  3  9  1  0  0  0  0
  4  7  1  0  0  0  0
  5  2  1  0  0  0  0
  5  7  2  0  0  0  0
  6  5  1  0  0  0  0
  7  8  1  0  0  0  0
  8 37  1  0  0  0  0
  9  4  2  0  0  0  0
 10 12  1  0  0  0  0
 12 11  2  0  0  0  0
 13 12  1  0  0  0  0
 14 10  1  6  0  0  0
 17 14  1  0  0  0  0
 18 15  1  6  0  0  0
 18 17  1  0  0  0  0
 18 19  1  0  0  0  0
 19 14  1  0  0  0  0
 19 16  1  1  0  0  0
 20 18  1  0  0  0  0
 21 20  1  0  0  0  0
 22 21  2  0  0  0  0
 23  9  1  0  0  0  0
 25 24  1  1  0  0  0
 25 23  1  0  0  0  0
 26 29  1  0  0  0  0
 27 26  2  0  0  0  0
 28 26  1  0  0  0  0
 28 35  1  0  0  0  0
 30 28  2  0  0  0  0
 31 36  1  0  0  0  0
 32 27  1  0  0  0  0
 33 32  2  0  0  0  0
 33 30  1  0  0  0  0
 34 30  1  0  0  0  0
 34 31  2  0  0  0  0
 36 35  2  0  0  0  0
 36 25  1  0  0  0  0
 37 38  1  0  0  0  0
 39 38  1  6  0  0  0
 39 49  1  0  0  0  0
 40 45  1  0  0  0  0
 41 47  1  6  0  0  0
 41 40  1  0  0  0  0
 42 44  1  0  0  0  0
 42 41  1  0  0  0  0
 43 42  2  0  0  0  0
 44 46  1  0  0  0  0
 46 45  1  0  0  0  0
 46 39  1  1  0  0  0
 48 47  1  0  0  0  0
 49 50  1  0  0  0  0
 51 53  1  0  0  0  0
 52 54  1  0  0  0  0
 53 52  2  0  0  0  0
 54 55  1  0  0  0  0
M  END
>  <MODEL>
2

>  <REMARK>
 VINA RESULT:      -6.1      3.607      7.151
  Name = 
  16 active torsions:
  status: ('A' for Active; 'I' for Inactive)
    1  A    between atoms: N_2  and  C_16
    2  A    between atoms: C_3  and  N_7
    3  A    between atoms: C_4  and  C_27
    4  A    between atoms: C_5  and  C_35
    5  A    between atoms: C_6  and  N_52
    6  A    between atoms: C_10  and  C_26
    7  A    between atoms: C_16  and  C_42
    8  A    between atoms: O_18  and  C_30
    9  A    between atoms: C_27  and  C_49
   10  A    between atoms: C_30  and  C_44
   11  A    between atoms: C_30  and  C_48
   12  A    between atoms: C_36  and  C_54
   13  A    between atoms: C_36  and  N_55
   14  A    between atoms: C_43  and  C_44
   15  A    between atoms: C_43  and  N_50
   16  A    between atoms: C_53  and  N_55
                            x       y       z     vdW  Elec       q    Type
                         _______ _______ _______ _____ _____    ______ ____

>  <TORSDO>
F 16

$$$$
=
 OpenBabel11042416433D

 55 60  0  0  1  0  0  0  0  0999 V2000
  186.5490  177.4150  144.2610 C   0  0  2  0  0  3  0  0  0  0  0  0
  186.2880  177.5380  142.7240 C   0  0  1  0  0  3  0  0  0  0  0  0
  188.3690  175.2130  140.4860 C   0  0  0  0  0  3  0  0  0  0  0  0
  188.9590  175.0030  142.8380 C   0  0  0  0  0  3  0  0  0  0  0  0
  187.2230  176.5260  142.1430 C   0  0  0  0  0  0  0  0  0  0  0  0
  187.3990  176.1770  140.8040 C   0  0  0  0  0  3  0  0  0  0  0  0
  187.9890  175.9600  143.1260 C   0  0  0  0  0  0  0  0  0  0  0  0
  187.6510  176.4610  144.4010 N   0  0  0  0  0  0  0  0  0  0  0  0
  189.1540  174.6250  141.4960 C   0  0  0  0  0  0  0  0  0  0  0  0
  182.5490  177.8750  141.9740 N   0  0  0  0  0  2  0  0  0  0  0  0
  184.1190  179.4110  142.7670 O   0  0  0  0  0  0  0  0  0  0  0  0
  183.8680  178.2310  142.3870 C   0  0  0  0  0  0  0  0  0  0  0  0
  184.9040  177.2470  142.3580 N   0  0  0  0  0  2  0  0  0  0  0  0
  181.4340  178.8090  142.0410 C   0  0  1  0  0  3  0  0  0  0  0  0
  179.9790  177.6450  139.5660 O   0  0  0  0  0  1  0  0  0  0  0  0
  179.1660  178.5630  143.0280 C   0  0  0  0  0  1  0  0  0  0  0  0
  181.1870  179.4100  140.6610 C   0  0  0  0  0  2  0  0  0  0  0  0
  179.8890  178.6290  140.5560 C   0  0  2  0  0  0  0  0  0  0  0  0
  180.1190  178.0430  141.9550 C   0  0  1  0  0  3  0  0  0  0  0  0
  178.6810  179.5460  140.3530 C   0  0  0  0  0  2  0  0  0  0  0  0
  178.1180  179.3460  139.0420 N   0  0  0  0  0  0  0  0  0  0  0  0
  177.8830  180.3560  138.2880 C   0  0  0  0  0  2  0  0  0  0  0  0
  190.1270  173.6400  141.1320 N   0  0  0  0  0  2  0  0  0  0  0  0
  188.9740  171.8820  142.2130 O   0  0  0  0  0  1  0  0  0  0  0  0
  190.0180  172.1930  141.3400 C   0  0  2  0  0  3  0  0  0  0  0  0
  194.8790  172.5970  142.1210 C   0  0  0  0  0  0  0  0  0  0  0  0
  196.0340  172.0490  142.5860 N   0  0  0  0  0  0  0  0  0  0  0  0
  193.6960  171.8490  142.1690 C   0  0  0  0  0  0  0  0  0  0  0  0
  194.9110  174.2360  141.4870 Cl  0  0  0  0  0  0  0  0  0  0  0  0
  193.7520  170.5380  142.6820 C   0  0  0  0  0  0  0  0  0  0  0  0
  191.3800  170.2830  142.2940 C   0  0  0  0  0  3  0  0  0  0  0  0
  196.0670  170.7850  143.0870 C   0  0  0  0  0  3  0  0  0  0  0  0
  194.9330  170.0380  143.1310 N   0  0  0  0  0  0  0  0  0  0  0  0
  192.5960  169.7570  142.7370 C   0  0  0  0  0  3  0  0  0  0  0  0
  192.4730  172.3690  141.7310 C   0  0  0  0  0  3  0  0  0  0  0  0
  191.3120  171.5940  141.7990 C   0  0  0  0  0  0  0  0  0  0  0  0
  188.3490  176.1480  145.6430 C   0  0  0  0  0  2  0  0  0  0  0  0
  189.5700  177.0490  145.8120 C   0  0  0  0  0  2  0  0  0  0  0  0
  190.6930  176.3290  146.5770 C   0  0  2  0  0  3  0  0  0  0  0  0
  194.3210  176.3010  145.5110 O   0  0  0  0  0  0  0  0  0  0  0  0
  194.6330  174.9770  145.8830 C   0  0  1  0  0  3  0  0  0  0  0  0
  193.4630  174.0580  145.5940 C   0  0  0  0  0  0  0  0  0  0  0  0
  193.6220  172.8150  145.4760 O   0  0  0  0  0  0  0  0  0  0  0  0
  192.1390  174.6100  145.6010 N   0  0  0  0  0  2  0  0  0  0  0  0
  193.2120  176.7090  146.2820 C   0  0  0  0  0  2  0  0  0  0  0  0
  191.9400  176.0490  145.7260 C   0  0  2  0  0  3  0  0  0  0  0  0
  195.8930  174.5430  145.1370 C   0  0  0  0  0  2  0  0  0  0  0  0
  196.7890  173.8290  146.0310 N   0  0  0  0  0  1  0  0  0  0  0  0
  190.2540  175.2000  147.2990 O   0  0  0  0  0  0  0  0  0  0  0  0
  190.9580  175.1540  148.4150 O   0  0  0  0  0  1  0  0  0  0  0  0
  185.3430  176.9950  145.1190 C   0  0  0  0  0  2  0  0  0  0  0  0
  186.0200  178.8310  146.5980 C   0  0  0  0  0  3  0  0  0  0  0  0
  185.2840  177.7310  146.4210 C   0  0  0  0  0  3  0  0  0  0  0  0
  185.9530  179.5570  147.8950 C   0  0  0  0  0  2  0  0  0  0  0  0
  187.2340  179.3230  148.6670 C   0  0  0  0  0  1  0  0  0  0  0  0
  1  8  1  0  0  0  0
  1 51  1  1  0  0  0
  2 13  1  1  0  0  0
  2  1  1  0  0  0  0
  3  6  2  0  0  0  0
  3  9  1  0  0  0  0
  4  7  1  0  0  0  0
  5  2  1  0  0  0  0
  5  7  2  0  0  0  0
  6  5  1  0  0  0  0
  7  8  1  0  0  0  0
  8 37  1  0  0  0  0
  9  4  2  0  0  0  0
 10 12  1  0  0  0  0
 12 11  2  0  0  0  0
 13 12  1  0  0  0  0
 14 10  1  6  0  0  0
 17 14  1  0  0  0  0
 18 15  1  6  0  0  0
 18 17  1  0  0  0  0
 18 19  1  0  0  0  0
 19 14  1  0  0  0  0
 19 16  1  1  0  0  0
 20 18  1  0  0  0  0
 21 20  1  0  0  0  0
 22 21  2  0  0  0  0
 23 25  1  0  0  0  0
 23  9  1  0  0  0  0
 25 36  1  0  0  0  0
 25 24  1  1  0  0  0
 26 28  2  0  0  0  0
 26 27  1  0  0  0  0
 27 32  2  0  0  0  0
 28 30  1  0  0  0  0
 29 26  1  0  0  0  0
 30 34  1  0  0  0  0
 30 33  2  0  0  0  0
 31 34  2  0  0  0  0
 32 33  1  0  0  0  0
 35 36  2  0  0  0  0
 35 28  1  0  0  0  0
 36 31  1  0  0  0  0
 37 38  1  0  0  0  0
 39 38  1  6  0  0  0
 39 49  1  0  0  0  0
 40 41  1  0  0  0  0
 40 45  1  0  0  0  0
 41 47  1  6  0  0  0
 42 44  1  0  0  0  0
 42 41  1  0  0  0  0
 43 42  2  0  0  0  0
 44 46  1  0  0  0  0
 46 45  1  0  0  0  0
 46 39  1  1  0  0  0
 47 48  1  0  0  0  0
 49 50  1  0  0  0  0
 51 53  1  0  0  0  0
 52 54  1  0  0  0  0
 53 52  2  0  0  0  0
 54 55  1  0  0  0  0
M  END
>  <MODEL>
3

>  <REMARK>
 VINA RESULT:      -5.9      3.453      7.103
  Name = 
  16 active torsions:
  status: ('A' for Active; 'I' for Inactive)
    1  A    between atoms: N_2  and  C_16
    2  A    between atoms: C_3  and  N_7
    3  A    between atoms: C_4  and  C_27
    4  A    between atoms: C_5  and  C_35
    5  A    between atoms: C_6  and  N_52
    6  A    between atoms: C_10  and  C_26
    7  A    between atoms: C_16  and  C_42
    8  A    between atoms: O_18  and  C_30
    9  A    between atoms: C_27  and  C_49
   10  A    between atoms: C_30  and  C_44
   11  A    between atoms: C_30  and  C_48
   12  A    between atoms: C_36  and  C_54
   13  A    between atoms: C_36  and  N_55
   14  A    between atoms: C_43  and  C_44
   15  A    between atoms: C_43  and  N_50
   16  A    between atoms: C_53  and  N_55
                            x       y       z     vdW  Elec       q    Type
                         _______ _______ _______ _____ _____    ______ ____

>  <TORSDO>
F 16

$$$$
=
 OpenBabel11042416433D

 55 60  0  0  1  0  0  0  0  0999 V2000
  187.7000  176.6850  144.4120 C   0  0  2  0  0  3  0  0  0  0  0  0
  187.2840  176.8860  142.9190 C   0  0  1  0  0  3  0  0  0  0  0  0
  188.7490  174.3610  140.4240 C   0  0  0  0  0  3  0  0  0  0  0  0
  189.5690  174.0060  142.6880 C   0  0  0  0  0  3  0  0  0  0  0  0
  187.9950  175.7720  142.2190 C   0  0  0  0  0  0  0  0  0  0  0  0
  187.9660  175.4400  140.8650 C   0  0  0  0  0  3  0  0  0  0  0  0
  188.7820  175.0780  143.0990 C   0  0  0  0  0  0  0  0  0  0  0  0
  188.6660  175.5850  144.4100 N   0  0  0  0  0  0  0  0  0  0  0  0
  189.5540  173.6420  141.3280 C   0  0  0  0  0  0  0  0  0  0  0  0
  183.6140  177.7720  142.2860 N   0  0  0  0  0  2  0  0  0  0  0  0
  185.5110  179.1070  142.5500 O   0  0  0  0  0  0  0  0  0  0  0  0
  185.0100  177.9450  142.5210 C   0  0  0  0  0  0  0  0  0  0  0  0
  185.8400  176.7980  142.7130 N   0  0  0  0  0  2  0  0  0  0  0  0
  182.7020  178.8980  142.1480 C   0  0  1  0  0  3  0  0  0  0  0  0
  180.9940  177.5720  139.9290 O   0  0  0  0  0  1  0  0  0  0  0  0
  180.4510  179.2960  143.1260 C   0  0  0  0  0  1  0  0  0  0  0  0
  182.5440  179.2510  140.6720 C   0  0  0  0  0  2  0  0  0  0  0  0
  181.1180  178.7310  140.7030 C   0  0  2  0  0  0  0  0  0  0  0  0
  181.2620  178.3990  142.1940 C   0  0  1  0  0  3  0  0  0  0  0  0
  180.1050  179.8050  140.3010 C   0  0  0  0  0  2  0  0  0  0  0  0
  178.9550  179.2000  139.6820 N   0  0  0  0  0  0  0  0  0  0  0  0
  177.7800  179.4660  140.1200 C   0  0  0  0  0  2  0  0  0  0  0  0
  190.3320  172.5430  140.8400 N   0  0  0  0  0  2  0  0  0  0  0  0
  190.7630  171.5710  138.7290 O   0  0  0  0  0  1  0  0  0  0  0  0
  191.1770  172.5420  139.6430 C   0  0  2  0  0  3  0  0  0  0  0  0
  195.5180  174.5600  140.8650 C   0  0  0  0  0  0  0  0  0  0  0  0
  196.8210  174.3960  141.2150 N   0  0  0  0  0  0  0  0  0  0  0  0
  194.7340  173.4340  140.5860 C   0  0  0  0  0  0  0  0  0  0  0  0
  194.8570  176.1870  140.7880 Cl  0  0  0  0  0  0  0  0  0  0  0  0
  195.3370  172.1620  140.6590 C   0  0  0  0  0  0  0  0  0  0  0  0
  193.2430  171.1300  140.0380 C   0  0  0  0  0  3  0  0  0  0  0  0
  197.3850  173.1600  141.2910 C   0  0  0  0  0  3  0  0  0  0  0  0
  196.6460  172.0550  141.0120 N   0  0  0  0  0  0  0  0  0  0  0  0
  194.5920  171.0150  140.3790 C   0  0  0  0  0  3  0  0  0  0  0  0
  193.3800  173.5380  140.2480 C   0  0  0  0  0  3  0  0  0  0  0  0
  192.6290  172.3900  139.9810 C   0  0  0  0  0  0  0  0  0  0  0  0
  189.4510  175.1430  145.5580 C   0  0  0  0  0  2  0  0  0  0  0  0
  190.4830  176.2030  145.9400 C   0  0  0  0  0  2  0  0  0  0  0  0
  191.6430  176.2400  144.9310 C   0  0  2  0  0  3  0  0  0  0  0  0
  194.2500  173.5650  145.5170 O   0  0  0  0  0  0  0  0  0  0  0  0
  195.1950  173.9870  144.5590 C   0  0  1  0  0  3  0  0  0  0  0  0
  195.2590  175.5010  144.5130 C   0  0  0  0  0  0  0  0  0  0  0  0
  196.2610  176.1000  144.0410 O   0  0  0  0  0  0  0  0  0  0  0  0
  194.0910  176.2490  144.8830 N   0  0  0  0  0  2  0  0  0  0  0  0
  192.9920  174.0680  145.1230 C   0  0  0  0  0  2  0  0  0  0  0  0
  192.9270  175.5700  145.4400 C   0  0  2  0  0  3  0  0  0  0  0  0
  196.5500  173.3730  144.9050 C   0  0  0  0  0  2  0  0  0  0  0  0
  196.8980  173.6620  146.2860 N   0  0  0  0  0  1  0  0  0  0  0  0
  191.8690  177.5150  144.3740 O   0  0  0  0  0  0  0  0  0  0  0  0
  191.2850  177.5320  143.1900 O   0  0  0  0  0  1  0  0  0  0  0  0
  186.5520  176.4100  145.4010 C   0  0  0  0  0  2  0  0  0  0  0  0
  185.9140  178.5450  146.4280 C   0  0  0  0  0  3  0  0  0  0  0  0
  186.5440  177.3730  146.5460 C   0  0  0  0  0  3  0  0  0  0  0  0
  185.9090  179.4930  147.5740 C   0  0  0  0  0  2  0  0  0  0  0  0
  187.0610  179.1640  148.5010 C   0  0  0  0  0  1  0  0  0  0  0  0
  1 51  1  1  0  0  0
  2 13  1  1  0  0  0
  2  1  1  0  0  0  0
  3  6  2  0  0  0  0
  3  9  1  0  0  0  0
  4  7  1  0  0  0  0
  5  2  1  0  0  0  0
  5  7  2  0  0  0  0
  6  5  1  0  0  0  0
  7  8  1  0  0  0  0
  8  1  1  0  0  0  0
  8 37  1  0  0  0  0
  9  4  2  0  0  0  0
 10 12  1  0  0  0  0
 12 11  2  0  0  0  0
 12 13  1  0  0  0  0
 14 19  1  0  0  0  0
 14 10  1  6  0  0  0
 17 18  1  0  0  0  0
 17 14  1  0  0  0  0
 18 15  1  6  0  0  0
 18 19  1  0  0  0  0
 19 16  1  1  0  0  0
 20 18  1  0  0  0  0
 21 22  2  0  0  0  0
 21 20  1  0  0  0  0
 23  9  1  0  0  0  0
 25 24  1  6  0  0  0
 25 36  1  0  0  0  0
 25 23  1  0  0  0  0
 26 27  1  0  0  0  0
 27 32  2  0  0  0  0
 28 30  1  0  0  0  0
 28 26  2  0  0  0  0
 29 26  1  0  0  0  0
 30 33  2  0  0  0  0
 31 34  2  0  0  0  0
 33 32  1  0  0  0  0
 34 30  1  0  0  0  0
 35 28  1  0  0  0  0
 36 31  1  0  0  0  0
 36 35  2  0  0  0  0
 37 38  1  0  0  0  0
 39 38  1  1  0  0  0
 41 47  1  1  0  0  0
 41 40  1  0  0  0  0
 42 41  1  0  0  0  0
 42 44  1  0  0  0  0
 43 42  2  0  0  0  0
 44 46  1  0  0  0  0
 45 46  1  0  0  0  0
 45 40  1  0  0  0  0
 46 39  1  6  0  0  0
 47 48  1  0  0  0  0
 49 39  1  0  0  0  0
 50 49  1  0  0  0  0
 51 53  1  0  0  0  0
 52 53  2  0  0  0  0
 52 54  1  0  0  0  0
 54 55  1  0  0  0  0
M  END
>  <MODEL>
4

>  <REMARK>
 VINA RESULT:      -5.8      3.075      6.320
  Name = 
  16 active torsions:
  status: ('A' for Active; 'I' for Inactive)
    1  A    between atoms: N_2  and  C_16
    2  A    between atoms: C_3  and  N_7
    3  A    between atoms: C_4  and  C_27
    4  A    between atoms: C_5  and  C_35
    5  A    between atoms: C_6  and  N_52
    6  A    between atoms: C_10  and  C_26
    7  A    between atoms: C_16  and  C_42
    8  A    between atoms: O_18  and  C_30
    9  A    between atoms: C_27  and  C_49
   10  A    between atoms: C_30  and  C_44
   11  A    between atoms: C_30  and  C_48
   12  A    between atoms: C_36  and  C_54
   13  A    between atoms: C_36  and  N_55
   14  A    between atoms: C_43  and  C_44
   15  A    between atoms: C_43  and  N_50
   16  A    between atoms: C_53  and  N_55
                            x       y       z     vdW  Elec       q    Type
                         _______ _______ _______ _____ _____    ______ ____

>  <TORSDO>
F 16

$$$$
=
 OpenBabel11042416433D

 55 60  0  0  1  0  0  0  0  0999 V2000
  190.6920  172.0900  140.3710 C   0  0  2  0  0  3  0  0  0  0  0  0
  191.5100  173.0140  141.3310 C   0  0  1  0  0  3  0  0  0  0  0  0
  189.7960  176.2970  142.3460 C   0  0  0  0  0  3  0  0  0  0  0  0
  188.4690  175.0140  140.7610 C   0  0  0  0  0  3  0  0  0  0  0  0
  190.5940  174.1780  141.5370 C   0  0  0  0  0  0  0  0  0  0  0  0
  190.7910  175.3060  142.3330 C   0  0  0  0  0  3  0  0  0  0  0  0
  189.4690  174.0450  140.7680 C   0  0  0  0  0  0  0  0  0  0  0  0
  189.4780  172.8370  140.0390 N   0  0  0  0  0  0  0  0  0  0  0  0
  188.6360  176.1600  141.5610 C   0  0  0  0  0  0  0  0  0  0  0  0
  193.3130  171.9060  144.5210 N   0  0  0  0  0  2  0  0  0  0  0  0
  193.9960  173.2480  142.7360 O   0  0  0  0  0  0  0  0  0  0  0  0
  193.0900  172.5370  143.2610 C   0  0  0  0  0  0  0  0  0  0  0  0
  191.8340  172.3690  142.6020 N   0  0  0  0  0  2  0  0  0  0  0  0
  194.5920  171.9810  145.2130 C   0  0  1  0  0  3  0  0  0  0  0  0
  195.2820  168.9900  144.7980 O   0  0  0  0  0  1  0  0  0  0  0  0
  196.9020  172.2540  144.3360 C   0  0  0  0  0  1  0  0  0  0  0  0
  194.6970  170.8380  146.2180 C   0  0  0  0  0  2  0  0  0  0  0  0
  195.7590  170.1810  145.3540 C   0  0  2  0  0  0  0  0  0  0  0  0
  195.6770  171.3420  144.3550 C   0  0  1  0  0  3  0  0  0  0  0  0
  197.0730  169.9790  146.1140 C   0  0  0  0  0  2  0  0  0  0  0  0
  197.2370  168.5930  146.4670 N   0  0  0  0  0  0  0  0  0  0  0  0
  197.3020  168.2530  147.7010 C   0  0  0  0  0  2  0  0  0  0  0  0
  187.6420  177.1890  141.6080 N   0  0  0  0  0  2  0  0  0  0  0  0
  185.5050  177.6220  140.6960 O   0  0  0  0  0  1  0  0  0  0  0  0
  186.1950  176.9940  141.7340 C   0  0  2  0  0  3  0  0  0  0  0  0
  186.5940  177.0310  146.6580 C   0  0  0  0  0  0  0  0  0  0  0  0
  186.1410  177.4770  147.8600 N   0  0  0  0  0  0  0  0  0  0  0  0
  185.9330  177.4210  145.4870 C   0  0  0  0  0  0  0  0  0  0  0  0
  188.0090  175.9880  146.6170 Cl  0  0  0  0  0  0  0  0  0  0  0  0
  184.7990  178.2500  145.6010 C   0  0  0  0  0  0  0  0  0  0  0  0
  184.5460  178.2410  143.1980 C   0  0  0  0  0  3  0  0  0  0  0  0
  185.0510  178.2860  147.9510 C   0  0  0  0  0  3  0  0  0  0  0  0
  184.3870  178.6660  146.8290 N   0  0  0  0  0  0  0  0  0  0  0  0
  184.1060  178.6530  144.4580 C   0  0  0  0  0  3  0  0  0  0  0  0
  186.3680  177.0170  144.2200 C   0  0  0  0  0  3  0  0  0  0  0  0
  185.6850  177.4310  143.0730 C   0  0  0  0  0  0  0  0  0  0  0  0
  188.4840  172.4440  139.0450 C   0  0  0  0  0  2  0  0  0  0  0  0
  188.8200  173.0480  137.6840 C   0  0  0  0  0  2  0  0  0  0  0  0
  189.9160  172.2400  136.9690 C   0  0  2  0  0  3  0  0  0  0  0  0
  191.3670  175.2920  135.2730 O   0  0  0  0  0  0  0  0  0  0  0  0
  192.4700  175.4960  136.1280 C   0  0  1  0  0  3  0  0  0  0  0  0
  193.0630  174.1670  136.5500 C   0  0  0  0  0  0  0  0  0  0  0  0
  194.2450  174.0840  136.9780 O   0  0  0  0  0  0  0  0  0  0  0  0
  192.2080  173.0150  136.5930 N   0  0  0  0  0  2  0  0  0  0  0  0
  190.3990  174.5620  135.9950 C   0  0  0  0  0  2  0  0  0  0  0  0
  190.8410  173.0930  136.0910 C   0  0  2  0  0  3  0  0  0  0  0  0
  193.4930  176.3700  135.4070 C   0  0  0  0  0  2  0  0  0  0  0  0
  193.1970  177.7770  135.6230 N   0  0  0  0  0  1  0  0  0  0  0  0
  189.4330  171.0910  136.3100 O   0  0  0  0  0  0  0  0  0  0  0  0
  189.0750  171.4630  135.0940 O   0  0  0  0  0  1  0  0  0  0  0  0
  190.3480  170.6910  140.9130 C   0  0  0  0  0  2  0  0  0  0  0  0
  191.8560  169.9010  139.1460 C   0  0  0  0  0  3  0  0  0  0  0  0
  190.9990  169.5980  140.1240 C   0  0  0  0  0  3  0  0  0  0  0  0
  192.5000  168.8070  138.3700 C   0  0  0  0  0  2  0  0  0  0  0  0
  191.9820  168.8310  136.9480 C   0  0  0  0  0  1  0  0  0  0  0  0
  1 51  1  1  0  0  0
  1  2  1  0  0  0  0
  2  5  1  0  0  0  0
  2 13  1  1  0  0  0
  4  7  2  0  0  0  0
  4  9  1  0  0  0  0
  5  6  2  0  0  0  0
  6  3  1  0  0  0  0
  7  5  1  0  0  0  0
  8  1  1  0  0  0  0
  8  7  1  0  0  0  0
  9 23  1  0  0  0  0
  9  3  2  0  0  0  0
 11 12  2  0  0  0  0
 12 10  1  0  0  0  0
 13 12  1  0  0  0  0
 14 10  1  6  0  0  0
 14 17  1  0  0  0  0
 18 15  1  6  0  0  0
 18 20  1  0  0  0  0
 18 17  1  0  0  0  0
 19 16  1  1  0  0  0
 19 14  1  0  0  0  0
 19 18  1  0  0  0  0
 20 21  1  0  0  0  0
 21 22  2  0  0  0  0
 23 25  1  0  0  0  0
 25 24  1  6  0  0  0
 25 36  1  0  0  0  0
 26 27  1  0  0  0  0
 27 32  2  0  0  0  0
 28 30  1  0  0  0  0
 28 26  2  0  0  0  0
 29 26  1  0  0  0  0
 30 33  2  0  0  0  0
 31 34  2  0  0  0  0
 33 32  1  0  0  0  0
 34 30  1  0  0  0  0
 35 28  1  0  0  0  0
 36 31  1  0  0  0  0
 36 35  2  0  0  0  0
 37  8  1  0  0  0  0
 38 37  1  0  0  0  0
 39 38  1  6  0  0  0
 40 45  1  0  0  0  0
 40 41  1  0  0  0  0
 41 47  1  6  0  0  0
 41 42  1  0  0  0  0
 42 44  1  0  0  0  0
 42 43  2  0  0  0  0
 45 46  1  0  0  0  0
 46 44  1  0  0  0  0
 46 39  1  1  0  0  0
 47 48  1  0  0  0  0
 49 39  1  0  0  0  0
 50 49  1  0  0  0  0
 52 53  2  0  0  0  0
 53 51  1  0  0  0  0
 54 52  1  0  0  0  0
 55 54  1  0  0  0  0
M  END
>  <MODEL>
5

>  <REMARK>
 VINA RESULT:      -5.8      3.737     10.481
  Name = 
  16 active torsions:
  status: ('A' for Active; 'I' for Inactive)
    1  A    between atoms: N_2  and  C_16
    2  A    between atoms: C_3  and  N_7
    3  A    between atoms: C_4  and  C_27
    4  A    between atoms: C_5  and  C_35
    5  A    between atoms: C_6  and  N_52
    6  A    between atoms: C_10  and  C_26
    7  A    between atoms: C_16  and  C_42
    8  A    between atoms: O_18  and  C_30
    9  A    between atoms: C_27  and  C_49
   10  A    between atoms: C_30  and  C_44
   11  A    between atoms: C_30  and  C_48
   12  A    between atoms: C_36  and  C_54
   13  A    between atoms: C_36  and  N_55
   14  A    between atoms: C_43  and  C_44
   15  A    between atoms: C_43  and  N_50
   16  A    between atoms: C_53  and  N_55
                            x       y       z     vdW  Elec       q    Type
                         _______ _______ _______ _____ _____    ______ ____

>  <TORSDO>
F 16

$$$$
=
 OpenBabel11042416433D

 55 60  0  0  1  0  0  0  0  0999 V2000
  187.9960  176.6140  144.3450 C   0  0  2  0  0  3  0  0  0  0  0  0
  187.4960  176.7900  142.8740 C   0  0  1  0  0  3  0  0  0  0  0  0
  188.7270  174.1550  140.3670 C   0  0  0  0  0  3  0  0  0  0  0  0
  189.6740  173.8320  142.5860 C   0  0  0  0  0  3  0  0  0  0  0  0
  188.1290  175.6360  142.1640 C   0  0  0  0  0  0  0  0  0  0  0  0
  188.0070  175.2700  140.8240 C   0  0  0  0  0  3  0  0  0  0  0  0
  188.9460  174.9400  143.0140 C   0  0  0  0  0  0  0  0  0  0  0  0
  188.9260  175.4840  144.3160 N   0  0  0  0  0  0  0  0  0  0  0  0
  189.5640  173.4340  141.2400 C   0  0  0  0  0  0  0  0  0  0  0  0
  183.8260  177.7740  142.4110 N   0  0  0  0  0  2  0  0  0  0  0  0
  185.7780  179.0520  142.4920 O   0  0  0  0  0  0  0  0  0  0  0  0
  185.2390  177.9090  142.5550 C   0  0  0  0  0  0  0  0  0  0  0  0
  186.0400  176.7440  142.7590 N   0  0  0  0  0  2  0  0  0  0  0  0
  182.9440  178.9240  142.2670 C   0  0  1  0  0  3  0  0  0  0  0  0
  181.1000  177.5690  140.1780 O   0  0  0  0  0  1  0  0  0  0  0  0
  180.7520  179.4340  143.3240 C   0  0  0  0  0  1  0  0  0  0  0  0
  182.7330  179.2230  140.7860 C   0  0  0  0  0  2  0  0  0  0  0  0
  181.2940  178.7530  140.8990 C   0  0  2  0  0  0  0  0  0  0  0  0
  181.4930  178.4750  142.3940 C   0  0  1  0  0  3  0  0  0  0  0  0
  180.2990  179.8440  140.4980 C   0  0  0  0  0  2  0  0  0  0  0  0
  179.1000  179.2530  139.9630 N   0  0  0  0  0  0  0  0  0  0  0  0
  178.1190  178.9820  140.7420 C   0  0  0  0  0  2  0  0  0  0  0  0
  190.2760  172.2990  140.7370 N   0  0  0  0  0  2  0  0  0  0  0  0
  190.9690  170.6610  139.1800 O   0  0  0  0  0  1  0  0  0  0  0  0
  190.4940  171.9650  139.3270 C   0  0  2  0  0  3  0  0  0  0  0  0
  191.3250  175.1770  135.6660 C   0  0  0  0  0  0  0  0  0  0  0  0
  192.1360  176.1050  135.0930 N   0  0  0  0  0  0  0  0  0  0  0  0
  191.7430  174.5250  136.8320 C   0  0  0  0  0  0  0  0  0  0  0  0
  189.7660  174.8370  134.9260 Cl  0  0  0  0  0  0  0  0  0  0  0  0
  193.0110  174.8430  137.3600 C   0  0  0  0  0  0  0  0  0  0  0  0
  192.6620  173.2630  139.1560 C   0  0  0  0  0  3  0  0  0  0  0  0
  193.3520  176.4070  135.6220 C   0  0  0  0  0  3  0  0  0  0  0  0
  193.7830  175.7780  136.7460 N   0  0  0  0  0  0  0  0  0  0  0  0
  193.4680  174.2070  138.5160 C   0  0  0  0  0  3  0  0  0  0  0  0
  190.9410  173.5810  137.4830 C   0  0  0  0  0  3  0  0  0  0  0  0
  191.3910  172.9540  138.6480 C   0  0  0  0  0  0  0  0  0  0  0  0
  189.7660  175.0470  145.4260 C   0  0  0  0  0  2  0  0  0  0  0  0
  190.7860  176.1260  145.7810 C   0  0  0  0  0  2  0  0  0  0  0  0
  191.8680  176.2510  144.6950 C   0  0  2  0  0  3  0  0  0  0  0  0
  194.9550  174.0780  144.9110 O   0  0  0  0  0  0  0  0  0  0  0  0
  195.8100  174.8590  144.1070 C   0  0  1  0  0  3  0  0  0  0  0  0
  195.5650  176.3340  144.3520 C   0  0  0  0  0  0  0  0  0  0  0  0
  196.4320  177.1990  144.0620 O   0  0  0  0  0  0  0  0  0  0  0  0
  194.2630  176.7500  144.7900 N   0  0  0  0  0  2  0  0  0  0  0  0
  193.6280  174.3920  144.5480 C   0  0  0  0  0  2  0  0  0  0  0  0
  193.2520  175.7590  145.1410 C   0  0  2  0  0  3  0  0  0  0  0  0
  197.2560  174.4670  144.4070 C   0  0  0  0  0  2  0  0  0  0  0  0
  197.3250  173.6930  145.6350 N   0  0  0  0  0  1  0  0  0  0  0  0
  191.9050  177.5170  144.0750 O   0  0  0  0  0  0  0  0  0  0  0  0
  191.8420  177.3130  142.7720 O   0  0  0  0  0  1  0  0  0  0  0  0
  186.9030  176.4030  145.4080 C   0  0  0  0  0  2  0  0  0  0  0  0
  185.4690  177.8220  146.8040 C   0  0  0  0  0  3  0  0  0  0  0  0
  186.6570  177.6320  146.2250 C   0  0  0  0  0  3  0  0  0  0  0  0
  185.2360  179.0460  147.6170 C   0  0  0  0  0  2  0  0  0  0  0  0
  186.5080  179.4040  148.3560 C   0  0  0  0  0  1  0  0  0  0  0  0
  1 51  1  1  0  0  0
  2 13  1  1  0  0  0
  2  1  1  0  0  0  0
  3  6  2  0  0  0  0
  3  9  1  0  0  0  0
  4  7  1  0  0  0  0
  5  2  1  0  0  0  0
  5  7  2  0  0  0  0
  6  5  1  0  0  0  0
  7  8  1  0  0  0  0
  8  1  1  0  0  0  0
  8 37  1  0  0  0  0
  9  4  2  0  0  0  0
 10 12  1  0  0  0  0
 11 12  2  0  0  0  0
 12 13  1  0  0  0  0
 14 19  1  0  0  0  0
 14 10  1  6  0  0  0
 17 18  1  0  0  0  0
 17 14  1  0  0  0  0
 18 15  1  6  0  0  0
 18 19  1  0  0  0  0
 19 16  1  1  0  0  0
 20 18  1  0  0  0  0
 21 20  1  0  0  0  0
 21 22  2  0  0  0  0
 23  9  1  0  0  0  0
 25 24  1  1  0  0  0
 25 23  1  0  0  0  0
 26 28  1  0  0  0  0
 27 32  1  0  0  0  0
 27 26  2  0  0  0  0
 28 30  2  0  0  0  0
 28 35  1  0  0  0  0
 29 26  1  0  0  0  0
 30 34  1  0  0  0  0
 32 33  2  0  0  0  0
 33 30  1  0  0  0  0
 34 31  2  0  0  0  0
 35 36  2  0  0  0  0
 36 31  1  0  0  0  0
 36 25  1  0  0  0  0
 37 38  1  0  0  0  0
 39 38  1  1  0  0  0
 41 42  1  0  0  0  0
 41 47  1  1  0  0  0
 41 40  1  0  0  0  0
 42 44  1  0  0  0  0
 43 42  2  0  0  0  0
 44 46  1  0  0  0  0
 45 40  1  0  0  0  0
 45 46  1  0  0  0  0
 46 39  1  6  0  0  0
 47 48  1  0  0  0  0
 49 39  1  0  0  0  0
 50 49  1  0  0  0  0
 51 53  1  0  0  0  0
 52 54  1  0  0  0  0
 53 52  2  0  0  0  0
 54 55  1  0  0  0  0
M  END
>  <MODEL>
6

>  <REMARK>
 VINA RESULT:      -5.6      3.295      6.452
  Name = 
  16 active torsions:
  status: ('A' for Active; 'I' for Inactive)
    1  A    between atoms: N_2  and  C_16
    2  A    between atoms: C_3  and  N_7
    3  A    between atoms: C_4  and  C_27
    4  A    between atoms: C_5  and  C_35
    5  A    between atoms: C_6  and  N_52
    6  A    between atoms: C_10  and  C_26
    7  A    between atoms: C_16  and  C_42
    8  A    between atoms: O_18  and  C_30
    9  A    between atoms: C_27  and  C_49
   10  A    between atoms: C_30  and  C_44
   11  A    between atoms: C_30  and  C_48
   12  A    between atoms: C_36  and  C_54
   13  A    between atoms: C_36  and  N_55
   14  A    between atoms: C_43  and  C_44
   15  A    between atoms: C_43  and  N_50
   16  A    between atoms: C_53  and  N_55
                            x       y       z     vdW  Elec       q    Type
                         _______ _______ _______ _____ _____    ______ ____

>  <TORSDO>
F 16

$$$$
=
 OpenBabel11042416433D

 55 60  0  0  1  0  0  0  0  0999 V2000
  188.4470  176.3360  143.7970 C   0  0  2  0  0  3  0  0  0  0  0  0
  187.8700  176.4940  142.3520 C   0  0  1  0  0  3  0  0  0  0  0  0
  188.8970  173.7760  139.8400 C   0  0  0  0  0  3  0  0  0  0  0  0
  189.9580  173.4770  142.0110 C   0  0  0  0  0  3  0  0  0  0  0  0
  188.4350  175.3090  141.6340 C   0  0  0  0  0  0  0  0  0  0  0  0
  188.2300  174.9180  140.3110 C   0  0  0  0  0  3  0  0  0  0  0  0
  189.2820  174.6110  142.4530 C   0  0  0  0  0  0  0  0  0  0  0  0
  189.3470  175.1830  143.7420 N   0  0  0  0  0  0  0  0  0  0  0  0
  189.7640  173.0540  140.6820 C   0  0  0  0  0  0  0  0  0  0  0  0
  184.2030  177.5650  142.1110 N   0  0  0  0  0  2  0  0  0  0  0  0
  186.1860  178.7980  142.1020 O   0  0  0  0  0  0  0  0  0  0  0  0
  185.6250  177.6670  142.1770 C   0  0  0  0  0  0  0  0  0  0  0  0
  186.4090  176.4810  142.3180 N   0  0  0  0  0  2  0  0  0  0  0  0
  183.3410  178.7360  142.0350 C   0  0  1  0  0  3  0  0  0  0  0  0
  181.3550  177.4580  140.0300 O   0  0  0  0  0  1  0  0  0  0  0  0
  181.2230  179.2760  143.2190 C   0  0  0  0  0  1  0  0  0  0  0  0
  183.0560  179.0660  140.5730 C   0  0  0  0  0  2  0  0  0  0  0  0
  181.6150  178.6250  140.7570 C   0  0  2  0  0  0  0  0  0  0  0  0
  181.8890  178.3170  142.2350 C   0  0  1  0  0  3  0  0  0  0  0  0
  180.6250  179.7440  140.4290 C   0  0  0  0  0  2  0  0  0  0  0  0
  179.3490  179.1890  140.0570 N   0  0  0  0  0  0  0  0  0  0  0  0
  178.3330  179.9580  139.9220 C   0  0  0  0  0  2  0  0  0  0  0  0
  190.4200  171.8900  140.1670 N   0  0  0  0  0  2  0  0  0  0  0  0
  190.1390  170.4830  142.0450 O   0  0  0  0  0  1  0  0  0  0  0  0
  190.9580  170.7760  140.9530 C   0  0  2  0  0  3  0  0  0  0  0  0
  194.8410  169.5990  143.7720 C   0  0  0  0  0  0  0  0  0  0  0  0
  196.1400  169.8100  144.1100 N   0  0  0  0  0  0  0  0  0  0  0  0
  194.2500  170.3970  142.7830 C   0  0  0  0  0  0  0  0  0  0  0  0
  193.9480  168.3180  144.5800 Cl  0  0  0  0  0  0  0  0  0  0  0  0
  195.0260  171.4110  142.1880 C   0  0  0  0  0  0  0  0  0  0  0  0
  193.1470  172.0410  140.8060 C   0  0  0  0  0  3  0  0  0  0  0  0
  196.8780  170.7870  143.5170 C   0  0  0  0  0  3  0  0  0  0  0  0
  196.3210  171.5800  142.5660 N   0  0  0  0  0  0  0  0  0  0  0  0
  194.4710  172.2330  141.2060 C   0  0  0  0  0  3  0  0  0  0  0  0
  192.9260  170.2090  142.3730 C   0  0  0  0  0  3  0  0  0  0  0  0
  192.3730  171.0220  141.3800 C   0  0  0  0  0  0  0  0  0  0  0  0
  190.2360  174.7490  144.8130 C   0  0  0  0  0  2  0  0  0  0  0  0
  191.4100  175.7150  144.9580 C   0  0  0  0  0  2  0  0  0  0  0  0
  192.2370  175.7860  143.6630 C   0  0  2  0  0  3  0  0  0  0  0  0
  195.8410  175.3080  144.7060 O   0  0  0  0  0  0  0  0  0  0  0  0
  195.6340  174.3570  145.7260 C   0  0  1  0  0  3  0  0  0  0  0  0
  194.5350  173.3910  145.3310 C   0  0  0  0  0  0  0  0  0  0  0  0
  194.4320  172.2600  145.8740 O   0  0  0  0  0  0  0  0  0  0  0  0
  193.5160  173.8420  144.4260 N   0  0  0  0  0  2  0  0  0  0  0  0
  194.6350  176.0230  144.5410 C   0  0  0  0  0  2  0  0  0  0  0  0
  193.6270  175.1450  143.7820 C   0  0  2  0  0  3  0  0  0  0  0  0
  196.9520  173.6360  145.9970 C   0  0  0  0  0  2  0  0  0  0  0  0
  197.9410  173.9960  144.9940 N   0  0  0  0  0  1  0  0  0  0  0  0
  192.2690  177.0690  143.0810 O   0  0  0  0  0  0  0  0  0  0  0  0
  191.8230  177.9190  143.9880 O   0  0  0  0  0  1  0  0  0  0  0  0
  187.4100  176.1740  144.9230 C   0  0  0  0  0  2  0  0  0  0  0  0
  186.7210  177.2640  147.0100 C   0  0  0  0  0  3  0  0  0  0  0  0
  187.4100  177.3350  145.8680 C   0  0  0  0  0  3  0  0  0  0  0  0
  186.7290  178.4220  147.9440 C   0  0  0  0  0  2  0  0  0  0  0  0
  185.6420  179.3970  147.5420 C   0  0  0  0  0  1  0  0  0  0  0  0
  1 51  1  1  0  0  0
  2 13  1  1  0  0  0
  2  1  1  0  0  0  0
  3  6  2  0  0  0  0
  3  9  1  0  0  0  0
  4  7  1  0  0  0  0
  5  2  1  0  0  0  0
  5  7  2  0  0  0  0
  6  5  1  0  0  0  0
  7  8  1  0  0  0  0
  8  1  1  0  0  0  0
  8 37  1  0  0  0  0
  9  4  2  0  0  0  0
 10 12  1  0  0  0  0
 11 12  2  0  0  0  0
 12 13  1  0  0  0  0
 14 10  1  6  0  0  0
 14 19  1  0  0  0  0
 17 18  1  0  0  0  0
 17 14  1  0  0  0  0
 18 15  1  6  0  0  0
 18 19  1  0  0  0  0
 19 16  1  1  0  0  0
 20 18  1  0  0  0  0
 21 20  1  0  0  0  0
 22 21  2  0  0  0  0
 23  9  1  0  0  0  0
 23 25  1  0  0  0  0
 25 36  1  0  0  0  0
 25 24  1  1  0  0  0
 26 27  1  0  0  0  0
 26 29  1  0  0  0  0
 28 26  2  0  0  0  0
 30 33  2  0  0  0  0
 30 28  1  0  0  0  0
 31 34  2  0  0  0  0
 31 36  1  0  0  0  0
 32 27  2  0  0  0  0
 33 32  1  0  0  0  0
 34 30  1  0  0  0  0
 35 28  1  0  0  0  0
 36 35  2  0  0  0  0
 37 38  1  0  0  0  0
 39 38  1  1  0  0  0
 40 41  1  0  0  0  0
 41 47  1  6  0  0  0
 42 41  1  0  0  0  0
 42 43  2  0  0  0  0
 44 42  1  0  0  0  0
 45 40  1  0  0  0  0
 46 39  1  1  0  0  0
 46 44  1  0  0  0  0
 46 45  1  0  0  0  0
 48 47  1  0  0  0  0
 49 39  1  0  0  0  0
 49 50  1  0  0  0  0
 51 53  1  0  0  0  0
 52 54  1  0  0  0  0
 53 52  2  0  0  0  0
 55 54  1  0  0  0  0
M  END
>  <MODEL>
7

>  <REMARK>
 VINA RESULT:      -5.4      3.107      6.323
  Name = 
  16 active torsions:
  status: ('A' for Active; 'I' for Inactive)
    1  A    between atoms: N_2  and  C_16
    2  A    between atoms: C_3  and  N_7
    3  A    between atoms: C_4  and  C_27
    4  A    between atoms: C_5  and  C_35
    5  A    between atoms: C_6  and  N_52
    6  A    between atoms: C_10  and  C_26
    7  A    between atoms: C_16  and  C_42
    8  A    between atoms: O_18  and  C_30
    9  A    between atoms: C_27  and  C_49
   10  A    between atoms: C_30  and  C_44
   11  A    between atoms: C_30  and  C_48
   12  A    between atoms: C_36  and  C_54
   13  A    between atoms: C_36  and  N_55
   14  A    between atoms: C_43  and  C_44
   15  A    between atoms: C_43  and  N_50
   16  A    between atoms: C_53  and  N_55
                            x       y       z     vdW  Elec       q    Type
                         _______ _______ _______ _____ _____    ______ ____

>  <TORSDO>
F 16

$$$$
=
 OpenBabel11042416433D

 55 60  0  0  1  0  0  0  0  0999 V2000
  189.9920  173.7860  142.3920 C   0  0  2  0  0  3  0  0  0  0  0  0
  190.5290  172.3380  142.1430 C   0  0  1  0  0  3  0  0  0  0  0  0
  190.1010  170.9900  138.5730 C   0  0  0  0  0  3  0  0  0  0  0  0
  189.1180  173.1990  138.8500 C   0  0  0  0  0  3  0  0  0  0  0  0
  190.2270  172.1120  140.6960 C   0  0  0  0  0  0  0  0  0  0  0  0
  190.5140  170.9930  139.9150 C   0  0  0  0  0  3  0  0  0  0  0  0
  189.5410  173.1770  140.1770 C   0  0  0  0  0  0  0  0  0  0  0  0
  189.3530  174.1920  141.1390 N   0  0  0  0  0  0  0  0  0  0  0  0
  189.4010  172.0870  138.0350 C   0  0  0  0  0  0  0  0  0  0  0  0
  193.9800  170.9310  143.0170 N   0  0  0  0  0  2  0  0  0  0  0  0
  191.8610  169.9500  142.9990 O   0  0  0  0  0  0  0  0  0  0  0  0
  192.5680  170.9840  142.8190 C   0  0  0  0  0  0  0  0  0  0  0  0
  191.9610  172.2100  142.4070 N   0  0  0  0  0  2  0  0  0  0  0  0
  194.6540  169.7340  143.4990 C   0  0  1  0  0  3  0  0  0  0  0  0
  196.1200  171.1830  145.8120 O   0  0  0  0  0  1  0  0  0  0  0  0
  194.0700  168.1720  145.3440 C   0  0  0  0  0  1  0  0  0  0  0  0
  196.1370  170.0290  143.7040 C   0  0  0  0  0  2  0  0  0  0  0  0
  195.9450  169.9340  145.2070 C   0  0  2  0  0  0  0  0  0  0  0  0
  194.4590  169.6090  145.0060 C   0  0  1  0  0  3  0  0  0  0  0  0
  196.8360  168.8580  145.8340 C   0  0  0  0  0  2  0  0  0  0  0  0
  197.0230  169.1210  147.2370 N   0  0  0  0  0  0  0  0  0  0  0  0
  196.9080  168.1670  148.0850 C   0  0  0  0  0  2  0  0  0  0  0  0
  189.0040  172.0490  136.6600 N   0  0  0  0  0  2  0  0  0  0  0  0
  190.9540  171.3240  135.5370 O   0  0  0  0  0  1  0  0  0  0  0  0
  189.8820  172.2170  135.4980 C   0  0  2  0  0  3  0  0  0  0  0  0
  193.5250  175.5510  135.6690 C   0  0  0  0  0  0  0  0  0  0  0  0
  193.9400  176.8320  135.4850 N   0  0  0  0  0  0  0  0  0  0  0  0
  192.1810  175.2250  135.4440 C   0  0  0  0  0  0  0  0  0  0  0  0
  194.6970  174.3400  136.1700 Cl  0  0  0  0  0  0  0  0  0  0  0  0
  191.2980  176.2520  135.0540 C   0  0  0  0  0  0  0  0  0  0  0  0
  189.4780  174.6640  134.9820 C   0  0  0  0  0  3  0  0  0  0  0  0
  193.0760  177.8090  135.0980 C   0  0  0  0  0  3  0  0  0  0  0  0
  191.7660  177.5180  134.8870 N   0  0  0  0  0  0  0  0  0  0  0  0
  189.9490  175.9700  134.8300 C   0  0  0  0  0  3  0  0  0  0  0  0
  191.7010  173.9190  135.5900 C   0  0  0  0  0  3  0  0  0  0  0  0
  190.3530  173.6320  135.3520 C   0  0  0  0  0  0  0  0  0  0  0  0
  188.5690  175.4070  140.9420 C   0  0  0  0  0  2  0  0  0  0  0  0
  188.0350  175.9210  142.2770 C   0  0  0  0  0  2  0  0  0  0  0  0
  187.2340  177.2210  142.0930 C   0  0  2  0  0  3  0  0  0  0  0  0
  185.3160  178.1310  145.2220 O   0  0  0  0  0  0  0  0  0  0  0  0
  186.0800  177.3960  146.1520 C   0  0  1  0  0  3  0  0  0  0  0  0
  187.5500  177.4520  145.7870 C   0  0  0  0  0  0  0  0  0  0  0  0
  188.4460  177.2140  146.6400 O   0  0  0  0  0  0  0  0  0  0  0  0
  187.9100  177.6380  144.4100 N   0  0  0  0  0  2  0  0  0  0  0  0
  185.5000  177.5370  143.9560 C   0  0  0  0  0  2  0  0  0  0  0  0
  186.8850  177.9240  143.4130 C   0  0  2  0  0  3  0  0  0  0  0  0
  185.8220  177.9550  147.5490 C   0  0  0  0  0  2  0  0  0  0  0  0
  184.4860  178.5230  147.6270 N   0  0  0  0  0  1  0  0  0  0  0  0
  186.1280  177.0880  141.2290 O   0  0  0  0  0  0  0  0  0  0  0  0
  186.3250  177.9120  140.2160 O   0  0  0  0  0  1  0  0  0  0  0  0
  191.0350  174.8240  142.8420 C   0  0  0  0  0  2  0  0  0  0  0  0
  191.2450  175.8740  145.0490 C   0  0  0  0  0  3  0  0  0  0  0  0
  191.3040  174.7610  144.3130 C   0  0  0  0  0  3  0  0  0  0  0  0
  191.5110  175.7990  146.5110 C   0  0  0  0  0  2  0  0  0  0  0  0
  192.8790  176.3790  146.8010 C   0  0  0  0  0  1  0  0  0  0  0  0
  1 51  1  6  0  0  0
  2  1  1  0  0  0  0
  2 13  1  6  0  0  0
  3  6  1  0  0  0  0
  4  7  2  0  0  0  0
  5  2  1  0  0  0  0
  6  5  2  0  0  0  0
  7  5  1  0  0  0  0
  7  8  1  0  0  0  0
  8  1  1  0  0  0  0
  9  3  2  0  0  0  0
  9  4  1  0  0  0  0
 12 11  2  0  0  0  0
 12 10  1  0  0  0  0
 13 12  1  0  0  0  0
 14 10  1  1  0  0  0
 14 17  1  0  0  0  0
 14 19  1  0  0  0  0
 17 18  1  0  0  0  0
 18 15  1  1  0  0  0
 18 20  1  0  0  0  0
 19 18  1  0  0  0  0
 19 16  1  6  0  0  0
 20 21  1  0  0  0  0
 21 22  2  0  0  0  0
 23  9  1  0  0  0  0
 25 24  1  1  0  0  0
 25 23  1  0  0  0  0
 26 29  1  0  0  0  0
 27 26  1  0  0  0  0
 28 35  1  0  0  0  0
 28 26  2  0  0  0  0
 30 28  1  0  0  0  0
 31 36  1  0  0  0  0
 32 27  2  0  0  0  0
 33 30  2  0  0  0  0
 33 32  1  0  0  0  0
 34 31  2  0  0  0  0
 34 30  1  0  0  0  0
 36 25  1  0  0  0  0
 36 35  2  0  0  0  0
 37  8  1  0  0  0  0
 37 38  1  0  0  0  0
 39 38  1  1  0  0  0
 40 41  1  0  0  0  0
 41 47  1  1  0  0  0
 42 41  1  0  0  0  0
 42 43  2  0  0  0  0
 44 42  1  0  0  0  0
 45 40  1  0  0  0  0
 46 39  1  6  0  0  0
 46 45  1  0  0  0  0
 46 44  1  0  0  0  0
 47 48  1  0  0  0  0
 49 39  1  0  0  0  0
 50 49  1  0  0  0  0
 51 53  1  0  0  0  0
 52 54  1  0  0  0  0
 53 52  2  0  0  0  0
 54 55  1  0  0  0  0
M  END
>  <MODEL>
8

>  <REMARK>
 VINA RESULT:      -5.3      3.609      8.970
  Name = 
  16 active torsions:
  status: ('A' for Active; 'I' for Inactive)
    1  A    between atoms: N_2  and  C_16
    2  A    between atoms: C_3  and  N_7
    3  A    between atoms: C_4  and  C_27
    4  A    between atoms: C_5  and  C_35
    5  A    between atoms: C_6  and  N_52
    6  A    between atoms: C_10  and  C_26
    7  A    between atoms: C_16  and  C_42
    8  A    between atoms: O_18  and  C_30
    9  A    between atoms: C_27  and  C_49
   10  A    between atoms: C_30  and  C_44
   11  A    between atoms: C_30  and  C_48
   12  A    between atoms: C_36  and  C_54
   13  A    between atoms: C_36  and  N_55
   14  A    between atoms: C_43  and  C_44
   15  A    between atoms: C_43  and  N_50
   16  A    between atoms: C_53  and  N_55
                            x       y       z     vdW  Elec       q    Type
                         _______ _______ _______ _____ _____    ______ ____

>  <TORSDO>
F 16

$$$$
=
 OpenBabel11042416433D

 55 60  0  0  1  0  0  0  0  0999 V2000
  189.8840  173.1700  143.2770 C   0  0  2  0  0  3  0  0  0  0  0  0
  190.4680  171.7310  143.4570 C   0  0  1  0  0  3  0  0  0  0  0  0
  190.8660  169.6750  140.2380 C   0  0  0  0  0  3  0  0  0  0  0  0
  189.8390  171.8430  139.8290 C   0  0  0  0  0  3  0  0  0  0  0  0
  190.5030  171.2040  142.0580 C   0  0  0  0  0  0  0  0  0  0  0  0
  190.9630  169.9670  141.6080 C   0  0  0  0  0  3  0  0  0  0  0  0
  189.9490  172.1080  141.1920 C   0  0  0  0  0  0  0  0  0  0  0  0
  189.5450  173.2850  141.8570 N   0  0  0  0  0  0  0  0  0  0  0  0
  190.3030  170.6060  139.3440 C   0  0  0  0  0  0  0  0  0  0  0  0
  194.2280  172.1780  144.0200 N   0  0  0  0  0  2  0  0  0  0  0  0
  192.8790  172.5660  142.1530 O   0  0  0  0  0  0  0  0  0  0  0  0
  192.9660  172.1720  143.3530 C   0  0  0  0  0  0  0  0  0  0  0  0
  191.8020  171.7290  144.0530 N   0  0  0  0  0  2  0  0  0  0  0  0
  195.4630  172.5530  143.3460 C   0  0  1  0  0  3  0  0  0  0  0  0
  195.8490  175.1660  144.9650 O   0  0  0  0  0  1  0  0  0  0  0  0
  197.8380  172.2300  144.0070 C   0  0  0  0  0  1  0  0  0  0  0  0
  195.3830  174.0130  142.9090 C   0  0  0  0  0  2  0  0  0  0  0  0
  196.4180  174.3800  143.9570 C   0  0  2  0  0  0  0  0  0  0  0  0
  196.5230  172.9100  144.3820 C   0  0  1  0  0  3  0  0  0  0  0  0
  197.6540  175.0380  143.3390 C   0  0  0  0  0  2  0  0  0  0  0  0
  197.4340  176.4500  143.1670 N   0  0  0  0  0  0  0  0  0  0  0  0
  196.8310  176.8790  142.1210 C   0  0  0  0  0  2  0  0  0  0  0  0
  190.2290  170.2730  137.9540 N   0  0  0  0  0  2  0  0  0  0  0  0
  192.0120  169.6340  136.5410 O   0  0  0  0  0  1  0  0  0  0  0  0
  191.1720  170.6860  136.9110 C   0  0  2  0  0  3  0  0  0  0  0  0
  194.9970  172.7070  139.2970 C   0  0  0  0  0  0  0  0  0  0  0  0
  195.7200  173.8150  139.6110 N   0  0  0  0  0  0  0  0  0  0  0  0
  193.8560  172.8360  138.4960 C   0  0  0  0  0  0  0  0  0  0  0  0
  195.5310  171.1450  139.9000 Cl  0  0  0  0  0  0  0  0  0  0  0  0
  193.4840  174.1240  138.0590 C   0  0  0  0  0  0  0  0  0  0  0  0
  191.5840  173.1850  136.8980 C   0  0  0  0  0  3  0  0  0  0  0  0
  195.3530  175.0490  139.1720 C   0  0  0  0  0  3  0  0  0  0  0  0
  194.2420  175.1980  138.4040 N   0  0  0  0  0  0  0  0  0  0  0  0
  192.3470  174.2950  137.2670 C   0  0  0  0  0  3  0  0  0  0  0  0
  193.0870  171.7300  138.1180 C   0  0  0  0  0  3  0  0  0  0  0  0
  191.9570  171.8970  137.3120 C   0  0  0  0  0  0  0  0  0  0  0  0
  188.8220  174.3950  141.2450 C   0  0  0  0  0  2  0  0  0  0  0  0
  187.5330  174.6820  142.0120 C   0  0  0  0  0  2  0  0  0  0  0  0
  187.4080  176.1770  142.3510 C   0  0  2  0  0  3  0  0  0  0  0  0
  187.1070  177.5650  145.8560 O   0  0  0  0  0  0  0  0  0  0  0  0
  186.1880  178.6000  145.5870 C   0  0  1  0  0  3  0  0  0  0  0  0
  185.1670  178.1460  144.5630 C   0  0  0  0  0  0  0  0  0  0  0  0
  184.0540  178.7240  144.4490 O   0  0  0  0  0  0  0  0  0  0  0  0
  185.5440  177.1340  143.6190 N   0  0  0  0  0  2  0  0  0  0  0  0
  187.7690  177.2600  144.6470 C   0  0  0  0  0  2  0  0  0  0  0  0
  186.8250  176.4490  143.7450 C   0  0  2  0  0  3  0  0  0  0  0  0
  185.5280  179.0200  146.8990 C   0  0  0  0  0  2  0  0  0  0  0  0
  186.4510  178.8460  148.0070 N   0  0  0  0  0  1  0  0  0  0  0  0
  186.7890  176.9380  141.3370 O   0  0  0  0  0  0  0  0  0  0  0  0
  187.6570  177.8580  140.9580 O   0  0  0  0  0  1  0  0  0  0  0  0
  190.7940  174.3280  143.7220 C   0  0  0  0  0  2  0  0  0  0  0  0
  189.6800  174.1700  145.9030 C   0  0  0  0  0  3  0  0  0  0  0  0
  190.3720  174.9120  145.0350 C   0  0  0  0  0  3  0  0  0  0  0  0
  189.2680  174.7590  147.2050 C   0  0  0  0  0  2  0  0  0  0  0  0
  190.3230  175.7450  147.6640 C   0  0  0  0  0  1  0  0  0  0  0  0
  1  2  1  0  0  0  0
  1 51  1  6  0  0  0
  2 13  1  6  0  0  0
  3  6  1  0  0  0  0
  4  7  2  0  0  0  0
  5  2  1  0  0  0  0
  6  5  2  0  0  0  0
  7  8  1  0  0  0  0
  7  5  1  0  0  0  0
  8  1  1  0  0  0  0
  9  4  1  0  0  0  0
  9  3  2  0  0  0  0
 11 12  2  0  0  0  0
 12 10  1  0  0  0  0
 12 13  1  0  0  0  0
 14 10  1  1  0  0  0
 14 19  1  0  0  0  0
 17 14  1  0  0  0  0
 17 18  1  0  0  0  0
 18 19  1  0  0  0  0
 18 15  1  1  0  0  0
 19 16  1  6  0  0  0
 20 18  1  0  0  0  0
 21 20  1  0  0  0  0
 22 21  2  0  0  0  0
 23  9  1  0  0  0  0
 25 24  1  1  0  0  0
 25 36  1  0  0  0  0
 25 23  1  0  0  0  0
 26 27  1  0  0  0  0
 26 29  1  0  0  0  0
 28 26  2  0  0  0  0
 30 33  2  0  0  0  0
 30 28  1  0  0  0  0
 31 34  2  0  0  0  0
 31 36  1  0  0  0  0
 32 27  2  0  0  0  0
 33 32  1  0  0  0  0
 34 30  1  0  0  0  0
 35 28  1  0  0  0  0
 36 35  2  0  0  0  0
 37  8  1  0  0  0  0
 37 38  1  0  0  0  0
 39 38  1  6  0  0  0
 41 40  1  0  0  0  0
 41 47  1  1  0  0  0
 42 41  1  0  0  0  0
 43 42  2  0  0  0  0
 44 46  1  0  0  0  0
 44 42  1  0  0  0  0
 45 40  1  0  0  0  0
 46 39  1  6  0  0  0
 46 45  1  0  0  0  0
 47 48  1  0  0  0  0
 49 39  1  0  0  0  0
 50 49  1  0  0  0  0
 51 53  1  0  0  0  0
 52 54  1  0  0  0  0
 53 52  2  0  0  0  0
 54 55  1  0  0  0  0
M  END
>  <MODEL>
9

>  <REMARK>
 VINA RESULT:      -5.2      2.600      7.938
  Name = 
  16 active torsions:
  status: ('A' for Active; 'I' for Inactive)
    1  A    between atoms: N_2  and  C_16
    2  A    between atoms: C_3  and  N_7
    3  A    between atoms: C_4  and  C_27
    4  A    between atoms: C_5  and  C_35
    5  A    between atoms: C_6  and  N_52
    6  A    between atoms: C_10  and  C_26
    7  A    between atoms: C_16  and  C_42
    8  A    between atoms: O_18  and  C_30
    9  A    between atoms: C_27  and  C_49
   10  A    between atoms: C_30  and  C_44
   11  A    between atoms: C_30  and  C_48
   12  A    between atoms: C_36  and  C_54
   13  A    between atoms: C_36  and  N_55
   14  A    between atoms: C_43  and  C_44
   15  A    between atoms: C_43  and  N_50
   16  A    between atoms: C_53  and  N_55
                            x       y       z     vdW  Elec       q    Type
                         _______ _______ _______ _____ _____    ______ ____

>  <TORSDO>
F 16

$$$$
