=
 OpenBabel11042414083D

 49 53  0  0  1  0  0  0  0  0999 V2000
  187.2570  176.5000  143.8920 C   0  0  2  0  0  3  0  0  0  0  0  0
  185.9580  178.6300  144.0000 C   0  0  0  0  0  3  0  0  0  0  0  0
  184.9960  179.4470  144.6000 C   0  0  0  0  0  3  0  0  0  0  0  0
  185.5430  176.9610  145.6980 C   0  0  0  0  0  3  0  0  0  0  0  0
  184.5910  177.8080  146.2690 C   0  0  0  0  0  3  0  0  0  0  0  0
  184.3390  179.0230  145.7120 N   0  0  0  0  0  0  0  0  0  0  0  0
  186.2360  177.3790  144.5530 C   0  0  0  0  0  0  0  0  0  0  0  0
  190.1210  174.7130  145.6210 C   0  0  0  0  0  3  0  0  0  0  0  0
  189.0480  177.2920  145.5100 C   0  0  0  0  0  3  0  0  0  0  0  0
  189.0090  174.9720  144.8150 C   0  0  0  0  0  3  0  0  0  0  0  0
  188.4700  176.2620  144.7520 C   0  0  0  0  0  0  0  0  0  0  0  0
  190.1600  177.0340  146.3140 C   0  0  0  0  0  3  0  0  0  0  0  0
  190.6990  175.7440  146.3710 C   0  0  0  0  0  0  0  0  0  0  0  0
  191.8750  175.4570  147.2440 C   0  0  0  0  0  2  0  0  0  0  0  0
  195.1130  177.6290  145.8170 O   0  0  0  0  0  1  0  0  0  0  0  0
  195.3240  175.5140  144.7060 C   0  0  2  0  0  3  0  0  0  0  0  0
  194.4720  176.7690  144.9230 C   0  0  1  0  0  3  0  0  0  0  0  0
  193.1170  176.4640  145.4030 N   0  0  0  0  0  2  0  0  0  0  0  0
  196.3590  175.7530  143.7750 O   0  0  0  0  0  0  0  0  0  0  0  0
  197.5890  174.3850  145.1790 O   0  0  0  0  0  0  0  0  0  0  0  0
  194.4470  174.3300  144.2790 C   0  0  2  0  0  3  0  0  0  0  0  0
  196.8530  173.1230  144.2100 P   0  0  1  0  0  4  0  0  0  0  0  0
  193.3970  173.7660  145.6660 S   0  0  0  0  0  0  0  0  0  0  0  0
  193.1600  175.4240  146.4300 C   0  0  2  0  0  3  0  0  0  0  0  0
  197.4320  174.8200  143.9140 C   0  0  0  0  0  2  0  0  0  0  0  0
  195.1740  173.2010  143.6810 N   0  0  0  0  0  2  0  0  0  0  0  0
  197.7630  172.2280  143.4020 O   0  0  0  0  0  0  0  0  0  0  0  0
  188.5680  177.8490  142.3600 O   0  0  0  0  0  1  0  0  0  0  0  0
  187.5490  176.8980  142.4380 C   0  0  1  0  0  3  0  0  0  0  0  0
  187.9030  175.7230  141.6340 C   0  0  0  0  0  0  0  0  0  0  0  0
  188.2030  174.7620  140.9710 C   0  0  0  0  0  0  0  0  0  0  0  0
  190.5800  172.3040  138.4250 C   0  0  0  0  0  2  0  0  0  0  0  0
  188.5770  173.6000  140.1640 C   0  0  1  0  0  0  0  0  0  0  0  0
  189.2940  172.8950  137.8490 C   0  0  1  0  0  3  0  0  0  0  0  0
  189.8670  172.9960  140.7220 C   0  0  0  0  0  2  0  0  0  0  0  0
  187.5560  172.6660  140.2270 F   0  0  0  0  0  0  0  0  0  0  0  0
  190.3490  171.8320  139.8560 C   0  0  2  0  0  3  0  0  0  0  0  0
  188.7800  174.0460  138.7160 C   0  0  0  0  0  2  0  0  0  0  0  0
  191.6410  171.2670  140.4140 C   0  0  0  0  0  2  0  0  0  0  0  0
  192.5790  172.2870  140.5730 O   0  0  0  0  0  1  0  0  0  0  0  0
  189.4830  173.3380  136.4010 C   0  0  0  0  0  2  0  0  0  0  0  0
  191.0510  174.2330  136.1460 S   0  0  0  0  0  0  0  0  0  0  0  0
  190.2900  175.3470  134.9350 C   0  0  0  0  0  2  0  0  0  0  0  0
  188.7920  175.3790  135.1530 C   0  0  0  0  0  2  0  0  0  0  0  0
  188.3580  176.7520  135.3300 N   0  0  0  0  0  2  0  0  0  0  0  0
  186.9050  176.7430  135.3230 C   0  0  0  0  0  2  0  0  0  0  0  0
  185.0000  175.8210  136.4080 O   0  0  0  0  0  1  0  0  0  0  0  0
  186.3840  175.9590  136.5140 C   0  0  0  0  0  3  0  0  0  0  0  0
  186.6910  176.6330  137.6970 O   0  0  0  0  0  1  0  0  0  0  0  0
  1 29  1  6  0  0  0
  1  7  1  0  0  0  0
  1 11  1  0  0  0  0
  2  7  2  0  0  0  0
  2  3  1  0  0  0  0
  3  6  2  0  0  0  0
  4  5  2  0  0  0  0
  6  5  1  0  0  0  0
  7  4  1  0  0  0  0
  8 13  1  0  0  0  0
  9 12  1  0  0  0  0
 10  8  2  0  0  0  0
 11 10  1  0  0  0  0
 11  9  2  0  0  0  0
 12 13  2  0  0  0  0
 13 14  1  0  0  0  0
 16 19  1  6  0  0  0
 16 17  1  0  0  0  0
 17 18  1  0  0  0  0
 17 15  1  1  0  0  0
 18 24  1  0  0  0  0
 19 25  1  0  0  0  0
 21 26  1  1  0  0  0
 21 16  1  0  0  0  0
 21 23  1  0  0  0  0
 22 27  2  6  0  0  0
 22 20  1  0  0  0  0
 23 24  1  0  0  0  0
 24 14  1  6  0  0  0
 25 20  1  0  0  0  0
 26 22  1  0  0  0  0
 29 28  1  1  0  0  0
 30 29  1  0  0  0  0
 31 30  3  0  0  0  0
 32 37  1  0  0  0  0
 33 36  1  1  0  0  0
 33 35  1  0  0  0  0
 33 31  1  0  0  0  0
 34 41  1  6  0  0  0
 34 32  1  0  0  0  0
 34 38  1  0  0  0  0
 37 39  1  1  0  0  0
 37 35  1  0  0  0  0
 38 33  1  0  0  0  0
 39 40  1  0  0  0  0
 42 41  1  0  0  0  0
 43 44  1  0  0  0  0
 43 42  1  0  0  0  0
 44 45  1  0  0  0  0
 46 45  1  0  0  0  0
 46 48  1  0  0  0  0
 47 48  1  0  0  0  0
 48 49  1  0  0  0  0
M  END
>  <MODEL>
1

>  <REMARK>
 VINA RESULT:      -7.6      0.000      0.000
  Name = 
  15 active torsions:
  status: ('A' for Active; 'I' for Inactive)
    1  A    between atoms: N_2  and  C_6
    2  A    between atoms: N_2  and  C_21
    3  A    between atoms: S_3  and  C_23
    4  A    between atoms: S_3  and  C_34
    5  A    between atoms: C_6  and  C_34
    6  A    between atoms: C_8  and  C_40
    7  A    between atoms: C_11  and  C_23
    8  A    between atoms: C_17  and  C_43
    9  A    between atoms: C_19  and  C_47
   10  A    between atoms: C_20  and  C_45
   11  A    between atoms: C_21  and  C_24
   12  A    between atoms: C_28  and  C_31
   13  A    between atoms: C_28  and  C_38
   14  A    between atoms: C_42  and  C_47
   15  A    between atoms: C_45  and  C_47
                            x       y       z     vdW  Elec       q    Type
                         _______ _______ _______ _____ _____    ______ ____

>  <TORSDO>
F 15

$$$$
=
 OpenBabel11042414083D

 49 53  0  0  1  0  0  0  0  0999 V2000
  187.0880  176.4280  143.9540 C   0  0  2  0  0  3  0  0  0  0  0  0
  185.4420  176.9580  145.7560 C   0  0  0  0  0  3  0  0  0  0  0  0
  184.4980  177.8070  146.3380 C   0  0  0  0  0  3  0  0  0  0  0  0
  185.7290  178.5640  143.9730 C   0  0  0  0  0  3  0  0  0  0  0  0
  184.7790  179.3840  144.5850 C   0  0  0  0  0  3  0  0  0  0  0  0
  184.1880  178.9920  145.7460 N   0  0  0  0  0  0  0  0  0  0  0  0
  186.0610  177.3370  144.5630 C   0  0  0  0  0  0  0  0  0  0  0  0
  189.9870  174.8320  145.8070 C   0  0  0  0  0  3  0  0  0  0  0  0
  188.9190  177.3880  145.4300 C   0  0  0  0  0  3  0  0  0  0  0  0
  188.8570  175.0050  145.0030 C   0  0  0  0  0  3  0  0  0  0  0  0
  188.3200  176.2820  144.8070 C   0  0  0  0  0  0  0  0  0  0  0  0
  190.0500  177.2160  146.2330 C   0  0  0  0  0  3  0  0  0  0  0  0
  190.5850  175.9380  146.4230 C   0  0  0  0  0  0  0  0  0  0  0  0
  191.7810  175.7450  147.2950 C   0  0  0  0  0  2  0  0  0  0  0  0
  195.0500  177.7730  145.7350 O   0  0  0  0  0  1  0  0  0  0  0  0
  195.1860  175.6140  144.7010 C   0  0  2  0  0  3  0  0  0  0  0  0
  194.3720  176.8980  144.8840 C   0  0  1  0  0  3  0  0  0  0  0  0
  193.0170  176.6490  145.3970 N   0  0  0  0  0  2  0  0  0  0  0  0
  196.2110  175.7890  143.7460 O   0  0  0  0  0  0  0  0  0  0  0  0
  197.4280  174.4420  145.1800 O   0  0  0  0  0  0  0  0  0  0  0  0
  194.2710  174.4380  144.3340 C   0  0  2  0  0  3  0  0  0  0  0  0
  196.6430  173.1650  144.2720 P   0  0  1  0  0  4  0  0  0  0  0  0
  193.2300  173.9550  145.7580 S   0  0  0  0  0  0  0  0  0  0  0  0
  193.0500  175.6470  146.4630 C   0  0  2  0  0  3  0  0  0  0  0  0
  197.2610  174.8330  143.9020 C   0  0  0  0  0  2  0  0  0  0  0  0
  194.9580  173.2680  143.7670 N   0  0  0  0  0  2  0  0  0  0  0  0
  197.5150  172.2160  143.4840 O   0  0  0  0  0  0  0  0  0  0  0  0
  188.2200  177.7910  142.2970 O   0  0  0  0  0  1  0  0  0  0  0  0
  187.3470  176.7150  142.4680 C   0  0  1  0  0  3  0  0  0  0  0  0
  187.8800  175.5290  141.7900 C   0  0  0  0  0  0  0  0  0  0  0  0
  188.3080  174.5490  141.2330 C   0  0  0  0  0  0  0  0  0  0  0  0
  191.1660  171.7970  139.6730 C   0  0  0  0  0  2  0  0  0  0  0  0
  188.8200  173.3550  140.5590 C   0  0  1  0  0  0  0  0  0  0  0  0
  190.3140  172.5840  138.6770 C   0  0  1  0  0  3  0  0  0  0  0  0
  189.6800  172.5560  141.5390 C   0  0  0  0  0  2  0  0  0  0  0  0
  187.7470  172.5860  140.1400 F   0  0  0  0  0  0  0  0  0  0  0  0
  190.3130  171.3450  140.8540 C   0  0  2  0  0  3  0  0  0  0  0  0
  189.6500  173.7870  139.3500 C   0  0  0  0  0  2  0  0  0  0  0  0
  191.1810  170.5840  141.8370 C   0  0  0  0  0  2  0  0  0  0  0  0
  192.0650  171.4580  142.4700 O   0  0  0  0  0  1  0  0  0  0  0  0
  191.1310  173.0130  137.4620 C   0  0  0  0  0  2  0  0  0  0  0  0
  192.5000  171.8640  137.1030 S   0  0  0  0  0  0  0  0  0  0  0  0
  193.6340  173.2300  136.7340 C   0  0  0  0  0  2  0  0  0  0  0  0
  194.0400  173.9080  138.0250 C   0  0  0  0  0  2  0  0  0  0  0  0
  194.7010  172.9460  138.8890 N   0  0  0  0  0  2  0  0  0  0  0  0
  194.4610  173.3700  140.2580 C   0  0  0  0  0  2  0  0  0  0  0  0
  194.6040  175.6850  140.7840 O   0  0  0  0  0  1  0  0  0  0  0  0
  193.7480  174.7110  140.2700 C   0  0  0  0  0  3  0  0  0  0  0  0
  192.6050  174.6340  141.0670 O   0  0  0  0  0  1  0  0  0  0  0  0
  1 29  1  6  0  0  0
  1  7  1  0  0  0  0
  1 11  1  0  0  0  0
  2  3  1  0  0  0  0
  4  7  1  0  0  0  0
  4  5  2  0  0  0  0
  5  6  1  0  0  0  0
  6  3  2  0  0  0  0
  7  2  2  0  0  0  0
  8 13  1  0  0  0  0
  9 12  1  0  0  0  0
 10  8  2  0  0  0  0
 11 10  1  0  0  0  0
 11  9  2  0  0  0  0
 12 13  2  0  0  0  0
 13 14  1  0  0  0  0
 16 19  1  6  0  0  0
 16 17  1  0  0  0  0
 17 18  1  0  0  0  0
 17 15  1  1  0  0  0
 18 24  1  0  0  0  0
 19 25  1  0  0  0  0
 21 26  1  1  0  0  0
 21 16  1  0  0  0  0
 21 23  1  0  0  0  0
 22 27  2  6  0  0  0
 22 20  1  0  0  0  0
 23 24  1  0  0  0  0
 24 14  1  6  0  0  0
 25 20  1  0  0  0  0
 26 22  1  0  0  0  0
 29 28  1  1  0  0  0
 30 29  1  0  0  0  0
 31 30  3  0  0  0  0
 32 37  1  0  0  0  0
 33 36  1  6  0  0  0
 33 31  1  0  0  0  0
 33 35  1  0  0  0  0
 34 41  1  6  0  0  0
 34 38  1  0  0  0  0
 34 32  1  0  0  0  0
 37 35  1  0  0  0  0
 37 39  1  1  0  0  0
 38 33  1  0  0  0  0
 39 40  1  0  0  0  0
 42 41  1  0  0  0  0
 43 42  1  0  0  0  0
 43 44  1  0  0  0  0
 44 45  1  0  0  0  0
 45 46  1  0  0  0  0
 46 48  1  0  0  0  0
 48 47  1  0  0  0  0
 48 49  1  0  0  0  0
M  END
>  <MODEL>
2

>  <REMARK>
 VINA RESULT:      -7.5      2.263      3.197
  Name = 
  15 active torsions:
  status: ('A' for Active; 'I' for Inactive)
    1  A    between atoms: N_2  and  C_6
    2  A    between atoms: N_2  and  C_21
    3  A    between atoms: S_3  and  C_23
    4  A    between atoms: S_3  and  C_34
    5  A    between atoms: C_6  and  C_34
    6  A    between atoms: C_8  and  C_40
    7  A    between atoms: C_11  and  C_23
    8  A    between atoms: C_17  and  C_43
    9  A    between atoms: C_19  and  C_47
   10  A    between atoms: C_20  and  C_45
   11  A    between atoms: C_21  and  C_24
   12  A    between atoms: C_28  and  C_31
   13  A    between atoms: C_28  and  C_38
   14  A    between atoms: C_42  and  C_47
   15  A    between atoms: C_45  and  C_47
                            x       y       z     vdW  Elec       q    Type
                         _______ _______ _______ _____ _____    ______ ____

>  <TORSDO>
F 15

$$$$
=
 OpenBabel11042414083D

 49 53  0  0  1  0  0  0  0  0999 V2000
  189.4670  176.7390  145.3740 C   0  0  2  0  0  3  0  0  0  0  0  0
  187.3210  177.9310  144.9100 C   0  0  0  0  0  3  0  0  0  0  0  0
  186.0010  178.2450  145.2410 C   0  0  0  0  0  3  0  0  0  0  0  0
  187.4540  176.5660  146.9000 C   0  0  0  0  0  3  0  0  0  0  0  0
  186.1330  176.9060  147.1970 C   0  0  0  0  0  3  0  0  0  0  0  0
  185.4400  177.7310  146.3680 N   0  0  0  0  0  0  0  0  0  0  0  0
  188.0550  177.0870  145.7460 C   0  0  0  0  0  0  0  0  0  0  0  0
  189.5050  173.2300  143.9350 C   0  0  0  0  0  3  0  0  0  0  0  0
  189.7880  175.8540  143.0150 C   0  0  0  0  0  3  0  0  0  0  0  0
  189.4120  174.2980  144.8320 C   0  0  0  0  0  3  0  0  0  0  0  0
  189.5490  175.6140  144.3770 C   0  0  0  0  0  0  0  0  0  0  0  0
  189.8800  174.7870  142.1180 C   0  0  0  0  0  3  0  0  0  0  0  0
  189.7380  173.4730  142.5770 C   0  0  0  0  0  0  0  0  0  0  0  0
  189.8550  172.3280  141.6270 C   0  0  0  0  0  2  0  0  0  0  0  0
  188.0030  174.7150  138.7790 O   0  0  0  0  0  1  0  0  0  0  0  0
  189.6280  173.4900  137.5120 C   0  0  2  0  0  3  0  0  0  0  0  0
  188.3770  173.4270  138.3920 C   0  0  1  0  0  3  0  0  0  0  0  0
  188.5550  172.5780  139.5790 N   0  0  0  0  0  2  0  0  0  0  0  0
  189.3000  173.8230  136.1790 O   0  0  0  0  0  0  0  0  0  0  0  0
  191.2660  175.0400  136.2680 O   0  0  0  0  0  0  0  0  0  0  0  0
  190.4110  172.1730  137.5850 C   0  0  2  0  0  3  0  0  0  0  0  0
  191.9680  173.4940  135.8300 P   0  0  1  0  0  4  0  0  0  0  0  0
  191.1890  171.9680  139.2280 S   0  0  0  0  0  0  0  0  0  0  0  0
  189.8640  172.8150  140.1860 C   0  0  2  0  0  3  0  0  0  0  0  0
  190.4150  174.3660  135.4700 C   0  0  0  0  0  2  0  0  0  0  0  0
  191.3960  171.9730  136.5120 N   0  0  0  0  0  2  0  0  0  0  0  0
  192.7030  173.3970  134.5140 O   0  0  0  0  0  0  0  0  0  0  0  0
  190.0350  175.5440  147.4070 O   0  0  0  0  0  1  0  0  0  0  0  0
  190.4000  176.6120  146.5860 C   0  0  1  0  0  3  0  0  0  0  0  0
  191.7950  176.4580  146.1610 C   0  0  0  0  0  0  0  0  0  0  0  0
  192.9430  176.3420  145.8090 C   0  0  0  0  0  0  0  0  0  0  0  0
  196.3750  174.6150  143.9640 C   0  0  0  0  0  2  0  0  0  0  0  0
  194.3360  176.2110  145.3820 C   0  0  1  0  0  0  0  0  0  0  0  0
  196.3460  174.6880  145.4900 C   0  0  1  0  0  3  0  0  0  0  0  0
  194.3860  176.1300  143.8560 C   0  0  0  0  0  2  0  0  0  0  0  0
  195.0430  177.3190  145.8170 F   0  0  0  0  0  0  0  0  0  0  0  0
  195.8160  175.9000  143.3630 C   0  0  2  0  0  3  0  0  0  0  0  0
  194.9270  174.9450  146.0020 C   0  0  0  0  0  2  0  0  0  0  0  0
  195.8370  175.7980  141.8510 C   0  0  0  0  0  2  0  0  0  0  0  0
  196.1590  177.0360  141.2930 O   0  0  0  0  0  1  0  0  0  0  0  0
  196.9410  173.4330  146.1200 C   0  0  0  0  0  2  0  0  0  0  0  0
  197.0860  172.0590  144.9310 S   0  0  0  0  0  0  0  0  0  0  0  0
  196.5710  170.8440  146.1740 C   0  0  0  0  0  2  0  0  0  0  0  0
  195.2880  170.1790  145.7230 C   0  0  0  0  0  2  0  0  0  0  0  0
  194.3110  171.1950  145.3790 N   0  0  0  0  0  2  0  0  0  0  0  0
  193.5720  170.7020  144.2290 C   0  0  0  0  0  2  0  0  0  0  0  0
  194.2590  172.1270  142.4530 O   0  0  0  0  0  1  0  0  0  0  0  0
  193.1980  171.8580  143.3170 C   0  0  0  0  0  3  0  0  0  0  0  0
  192.9230  172.9940  144.0790 O   0  0  0  0  0  1  0  0  0  0  0  0
  1  7  1  0  0  0  0
  1 29  1  1  0  0  0
  2  3  2  0  0  0  0
  2  7  1  0  0  0  0
  3  6  1  0  0  0  0
  4  5  1  0  0  0  0
  6  5  2  0  0  0  0
  7  4  2  0  0  0  0
  8 10  1  0  0  0  0
  9 11  1  0  0  0  0
 11 10  2  0  0  0  0
 11  1  1  0  0  0  0
 12 13  1  0  0  0  0
 12  9  2  0  0  0  0
 13  8  2  0  0  0  0
 14 13  1  0  0  0  0
 16 19  1  6  0  0  0
 16 21  1  0  0  0  0
 16 17  1  0  0  0  0
 17 15  1  1  0  0  0
 17 18  1  0  0  0  0
 18 24  1  0  0  0  0
 21 26  1  6  0  0  0
 21 23  1  0  0  0  0
 22 27  2  6  0  0  0
 22 20  1  0  0  0  0
 22 26  1  0  0  0  0
 23 24  1  0  0  0  0
 24 14  1  1  0  0  0
 25 19  1  0  0  0  0
 25 20  1  0  0  0  0
 29 28  1  6  0  0  0
 30 29  1  0  0  0  0
 31 30  3  0  0  0  0
 32 34  1  0  0  0  0
 33 31  1  0  0  0  0
 33 36  1  1  0  0  0
 33 38  1  0  0  0  0
 34 38  1  0  0  0  0
 34 41  1  1  0  0  0
 35 33  1  0  0  0  0
 37 39  1  6  0  0  0
 37 35  1  0  0  0  0
 37 32  1  0  0  0  0
 40 39  1  0  0  0  0
 42 41  1  0  0  0  0
 42 43  1  0  0  0  0
 44 43  1  0  0  0  0
 45 44  1  0  0  0  0
 46 45  1  0  0  0  0
 47 48  1  0  0  0  0
 48 49  1  0  0  0  0
 48 46  1  0  0  0  0
M  END
>  <MODEL>
3

>  <REMARK>
 VINA RESULT:      -7.2      3.463      8.272
  Name = 
  15 active torsions:
  status: ('A' for Active; 'I' for Inactive)
    1  A    between atoms: N_2  and  C_6
    2  A    between atoms: N_2  and  C_21
    3  A    between atoms: S_3  and  C_23
    4  A    between atoms: S_3  and  C_34
    5  A    between atoms: C_6  and  C_34
    6  A    between atoms: C_8  and  C_40
    7  A    between atoms: C_11  and  C_23
    8  A    between atoms: C_17  and  C_43
    9  A    between atoms: C_19  and  C_47
   10  A    between atoms: C_20  and  C_45
   11  A    between atoms: C_21  and  C_24
   12  A    between atoms: C_28  and  C_31
   13  A    between atoms: C_28  and  C_38
   14  A    between atoms: C_42  and  C_47
   15  A    between atoms: C_45  and  C_47
                            x       y       z     vdW  Elec       q    Type
                         _______ _______ _______ _____ _____    ______ ____

>  <TORSDO>
F 15

$$$$
=
 OpenBabel11042414083D

 49 53  0  0  1  0  0  0  0  0999 V2000
  187.3430  176.1680  144.9700 C   0  0  2  0  0  3  0  0  0  0  0  0
  186.8100  177.2470  147.1590 C   0  0  0  0  0  3  0  0  0  0  0  0
  185.9720  178.0130  147.9720 C   0  0  0  0  0  3  0  0  0  0  0  0
  185.2150  177.4820  145.3600 C   0  0  0  0  0  3  0  0  0  0  0  0
  184.4040  178.2430  146.2050 C   0  0  0  0  0  3  0  0  0  0  0  0
  184.7970  178.4900  147.4830 N   0  0  0  0  0  0  0  0  0  0  0  0
  186.4290  176.9760  145.8430 C   0  0  0  0  0  0  0  0  0  0  0  0
  190.8500  177.2850  145.8850 C   0  0  0  0  0  3  0  0  0  0  0  0
  189.3280  174.9430  145.9770 C   0  0  0  0  0  3  0  0  0  0  0  0
  189.5270  177.2960  145.4360 C   0  0  0  0  0  3  0  0  0  0  0  0
  188.7580  176.1270  145.4840 C   0  0  0  0  0  0  0  0  0  0  0  0
  190.6500  174.9330  146.4270 C   0  0  0  0  0  3  0  0  0  0  0  0
  191.4140  176.1040  146.3810 C   0  0  0  0  0  0  0  0  0  0  0  0
  192.8330  176.0960  146.8420 C   0  0  0  0  0  2  0  0  0  0  0  0
  195.0590  172.8120  145.6170 O   0  0  0  0  0  1  0  0  0  0  0  0
  195.6650  174.5180  144.0440 C   0  0  2  0  0  3  0  0  0  0  0  0
  195.6560  174.0690  145.5090 C   0  0  1  0  0  3  0  0  0  0  0  0
  194.9780  175.0260  146.3950 N   0  0  0  0  0  2  0  0  0  0  0  0
  196.7290  173.9220  143.3330 O   0  0  0  0  0  0  0  0  0  0  0  0
  195.1840  173.8180  141.6130 O   0  0  0  0  0  0  0  0  0  0  0  0
  195.7100  176.0480  143.9440 C   0  0  2  0  0  3  0  0  0  0  0  0
  195.7510  175.4500  141.3190 P   0  0  1  0  0  4  0  0  0  0  0  0
  194.1270  176.7820  144.4920 S   0  0  0  0  0  0  0  0  0  0  0  0
  193.7480  175.5160  145.7740 C   0  0  2  0  0  3  0  0  0  0  0  0
  196.4920  173.9060  141.9230 C   0  0  0  0  0  2  0  0  0  0  0  0
  196.1030  176.5750  142.6290 N   0  0  0  0  0  2  0  0  0  0  0  0
  196.4200  175.7410  139.9960 O   0  0  0  0  0  0  0  0  0  0  0  0
  187.4650  177.8320  143.2090 O   0  0  0  0  0  1  0  0  0  0  0  0
  187.1950  176.4890  143.4760 C   0  0  1  0  0  3  0  0  0  0  0  0
  188.0720  175.6360  142.6670 C   0  0  0  0  0  0  0  0  0  0  0  0
  188.7970  174.9320  142.0100 C   0  0  0  0  0  0  0  0  0  0  0  0
  189.9970  171.6340  139.5900 C   0  0  0  0  0  2  0  0  0  0  0  0
  189.6830  174.0740  141.2220 C   0  0  1  0  0  0  0  0  0  0  0  0
  190.5450  171.7110  141.0140 C   0  0  1  0  0  3  0  0  0  0  0  0
  189.1470  173.9790  139.7930 C   0  0  0  0  0  2  0  0  0  0  0  0
  190.9510  174.6310  141.2120 F   0  0  0  0  0  0  0  0  0  0  0  0
  189.9890  173.0190  138.9520 C   0  0  2  0  0  3  0  0  0  0  0  0
  189.7320  172.6880  141.8660 C   0  0  0  0  0  2  0  0  0  0  0  0
  189.4240  172.9220  137.5480 C   0  0  0  0  0  2  0  0  0  0  0  0
  189.1790  174.1990  137.0430 O   0  0  0  0  0  1  0  0  0  0  0  0
  190.6060  170.3320  141.6640 C   0  0  0  0  0  2  0  0  0  0  0  0
  192.2370  169.9800  142.3990 S   0  0  0  0  0  0  0  0  0  0  0  0
  193.0150  169.8510  140.7670 C   0  0  0  0  0  2  0  0  0  0  0  0
  194.5110  170.0370  140.9080 C   0  0  0  0  0  2  0  0  0  0  0  0
  195.0050  170.8390  139.8040 N   0  0  0  0  0  2  0  0  0  0  0  0
  193.8750  171.5930  139.2880 C   0  0  0  0  0  2  0  0  0  0  0  0
  195.7190  172.8640  138.4880 O   0  0  0  0  0  1  0  0  0  0  0  0
  194.3560  172.6370  138.2950 C   0  0  0  0  0  3  0  0  0  0  0  0
  193.6570  173.8300  138.4840 O   0  0  0  0  0  1  0  0  0  0  0  0
  1 29  1  6  0  0  0
  1 11  1  0  0  0  0
  1  7  1  0  0  0  0
  2  3  1  0  0  0  0
  4  7  1  0  0  0  0
  4  5  2  0  0  0  0
  5  6  1  0  0  0  0
  6  3  2  0  0  0  0
  7  2  2  0  0  0  0
  8 13  1  0  0  0  0
  9 12  1  0  0  0  0
 10 11  1  0  0  0  0
 10  8  2  0  0  0  0
 11  9  2  0  0  0  0
 13 12  2  0  0  0  0
 13 14  1  0  0  0  0
 16 19  1  6  0  0  0
 16 17  1  0  0  0  0
 17 15  1  6  0  0  0
 17 18  1  0  0  0  0
 20 25  1  0  0  0  0
 21 26  1  6  0  0  0
 21 16  1  0  0  0  0
 21 23  1  0  0  0  0
 22 27  2  1  0  0  0
 22 20  1  0  0  0  0
 22 26  1  0  0  0  0
 23 24  1  0  0  0  0
 24 18  1  0  0  0  0
 24 14  1  1  0  0  0
 25 19  1  0  0  0  0
 29 28  1  1  0  0  0
 30 29  1  0  0  0  0
 31 30  3  0  0  0  0
 32 34  1  0  0  0  0
 33 36  1  6  0  0  0
 33 38  1  0  0  0  0
 33 31  1  0  0  0  0
 34 41  1  1  0  0  0
 34 38  1  0  0  0  0
 35 33  1  0  0  0  0
 37 39  1  6  0  0  0
 37 32  1  0  0  0  0
 37 35  1  0  0  0  0
 40 39  1  0  0  0  0
 41 42  1  0  0  0  0
 43 44  1  0  0  0  0
 43 42  1  0  0  0  0
 45 44  1  0  0  0  0
 46 45  1  0  0  0  0
 48 49  1  0  0  0  0
 48 47  1  0  0  0  0
 48 46  1  0  0  0  0
M  END
>  <MODEL>
4

>  <REMARK>
 VINA RESULT:      -7.1      2.883      4.554
  Name = 
  15 active torsions:
  status: ('A' for Active; 'I' for Inactive)
    1  A    between atoms: N_2  and  C_6
    2  A    between atoms: N_2  and  C_21
    3  A    between atoms: S_3  and  C_23
    4  A    between atoms: S_3  and  C_34
    5  A    between atoms: C_6  and  C_34
    6  A    between atoms: C_8  and  C_40
    7  A    between atoms: C_11  and  C_23
    8  A    between atoms: C_17  and  C_43
    9  A    between atoms: C_19  and  C_47
   10  A    between atoms: C_20  and  C_45
   11  A    between atoms: C_21  and  C_24
   12  A    between atoms: C_28  and  C_31
   13  A    between atoms: C_28  and  C_38
   14  A    between atoms: C_42  and  C_47
   15  A    between atoms: C_45  and  C_47
                            x       y       z     vdW  Elec       q    Type
                         _______ _______ _______ _____ _____    ______ ____

>  <TORSDO>
F 15

$$$$
=
 OpenBabel11042414083D

 49 53  0  0  1  0  0  0  0  0999 V2000
  194.4000  174.3770  145.0020 C   0  0  2  0  0  3  0  0  0  0  0  0
  196.4280  174.1300  143.5660 C   0  0  0  0  0  3  0  0  0  0  0  0
  197.3640  174.6550  142.6710 C   0  0  0  0  0  3  0  0  0  0  0  0
  195.3440  176.2890  143.6360 C   0  0  0  0  0  3  0  0  0  0  0  0
  196.2990  176.7760  142.7420 C   0  0  0  0  0  3  0  0  0  0  0  0
  197.2810  175.9550  142.2810 N   0  0  0  0  0  0  0  0  0  0  0  0
  195.4120  174.9530  144.0550 C   0  0  0  0  0  0  0  0  0  0  0  0
  191.6540  173.8180  142.4460 C   0  0  0  0  0  3  0  0  0  0  0  0
  192.5620  172.6340  144.8100 C   0  0  0  0  0  3  0  0  0  0  0  0
  192.7590  174.3520  143.1140 C   0  0  0  0  0  3  0  0  0  0  0  0
  193.2210  173.7610  144.2950 C   0  0  0  0  0  0  0  0  0  0  0  0
  191.4590  172.0980  144.1410 C   0  0  0  0  0  3  0  0  0  0  0  0
  191.0020  172.6900  142.9580 C   0  0  0  0  0  0  0  0  0  0  0  0
  189.8120  172.1350  142.2500 C   0  0  0  0  0  2  0  0  0  0  0  0
  188.1950  174.8760  139.5840 O   0  0  0  0  0  1  0  0  0  0  0  0
  189.3750  173.3440  138.1660 C   0  0  2  0  0  3  0  0  0  0  0  0
  188.2440  173.5400  139.1810 C   0  0  1  0  0  3  0  0  0  0  0  0
  188.3720  172.6650  140.3550 N   0  0  0  0  0  2  0  0  0  0  0  0
  188.9760  173.7470  136.8720 O   0  0  0  0  0  0  0  0  0  0  0  0
  191.1510  174.5220  136.7220 O   0  0  0  0  0  0  0  0  0  0  0  0
  189.8670  171.8910  138.1750 C   0  0  2  0  0  3  0  0  0  0  0  0
  191.4600  172.8670  136.2350 P   0  0  1  0  0  4  0  0  0  0  0  0
  190.7630  171.5180  139.7250 S   0  0  0  0  0  0  0  0  0  0  0  0
  189.7620  172.6180  140.8090 C   0  0  2  0  0  3  0  0  0  0  0  0
  190.0940  174.0480  136.0350 C   0  0  0  0  0  2  0  0  0  0  0  0
  190.6620  171.4960  137.0030 N   0  0  0  0  0  2  0  0  0  0  0  0
  192.0060  172.6260  134.8480 O   0  0  0  0  0  0  0  0  0  0  0  0
  195.0120  176.3190  146.3200 O   0  0  0  0  0  1  0  0  0  0  0  0
  194.0520  175.3190  146.1630 C   0  0  1  0  0  3  0  0  0  0  0  0
  192.7300  175.9250  145.9690 C   0  0  0  0  0  0  0  0  0  0  0  0
  191.6390  176.4140  145.8100 C   0  0  0  0  0  0  0  0  0  0  0  0
  187.4500  176.5630  145.0340 C   0  0  0  0  0  2  0  0  0  0  0  0
  190.3120  176.9980  145.6170 C   0  0  1  0  0  0  0  0  0  0  0  0
  188.3920  177.1540  143.9850 C   0  0  1  0  0  3  0  0  0  0  0  0
  189.3520  176.4150  146.6540 C   0  0  0  0  0  2  0  0  0  0  0  0
  190.4000  178.3710  145.7780 F   0  0  0  0  0  0  0  0  0  0  0  0
  187.9280  176.9260  146.4360 C   0  0  2  0  0  3  0  0  0  0  0  0
  189.8290  176.6750  144.2030 C   0  0  0  0  0  2  0  0  0  0  0  0
  186.9910  176.3150  147.4600 C   0  0  0  0  0  2  0  0  0  0  0  0
  185.8970  177.1550  147.6690 O   0  0  0  0  0  1  0  0  0  0  0  0
  187.9160  176.8430  142.5700 C   0  0  0  0  0  2  0  0  0  0  0  0
  188.1500  178.2490  141.4330 S   0  0  0  0  0  0  0  0  0  0  0  0
  186.5850  177.9060  140.5850 C   0  0  0  0  0  2  0  0  0  0  0  0
  185.5440  177.4880  141.6020 C   0  0  0  0  0  2  0  0  0  0  0  0
  185.0580  178.6610  142.3060 N   0  0  0  0  0  2  0  0  0  0  0  0
  184.4470  178.1940  143.5390 C   0  0  0  0  0  2  0  0  0  0  0  0
  184.0090  179.0390  145.7180 O   0  0  0  0  0  1  0  0  0  0  0  0
  184.9790  178.9910  144.7170 C   0  0  0  0  0  3  0  0  0  0  0  0
  185.2880  180.2890  144.3110 O   0  0  0  0  0  1  0  0  0  0  0  0
  1 29  1  1  0  0  0
  2  7  1  0  0  0  0
  3  2  2  0  0  0  0
  4  7  2  0  0  0  0
  5  4  1  0  0  0  0
  6  3  1  0  0  0  0
  6  5  2  0  0  0  0
  7  1  1  0  0  0  0
  8 13  2  0  0  0  0
  8 10  1  0  0  0  0
 10 11  2  0  0  0  0
 11  9  1  0  0  0  0
 11  1  1  0  0  0  0
 12  9  2  0  0  0  0
 13 12  1  0  0  0  0
 14 13  1  0  0  0  0
 16 19  1  6  0  0  0
 16 21  1  0  0  0  0
 16 17  1  0  0  0  0
 17 15  1  1  0  0  0
 17 18  1  0  0  0  0
 18 24  1  0  0  0  0
 21 26  1  6  0  0  0
 21 23  1  0  0  0  0
 22 27  2  6  0  0  0
 22 20  1  0  0  0  0
 22 26  1  0  0  0  0
 23 24  1  0  0  0  0
 24 14  1  1  0  0  0
 25 20  1  0  0  0  0
 25 19  1  0  0  0  0
 29 28  1  6  0  0  0
 30 29  1  0  0  0  0
 31 30  3  0  0  0  0
 32 37  1  0  0  0  0
 33 36  1  1  0  0  0
 33 31  1  0  0  0  0
 33 35  1  0  0  0  0
 34 41  1  6  0  0  0
 34 38  1  0  0  0  0
 34 32  1  0  0  0  0
 37 35  1  0  0  0  0
 37 39  1  1  0  0  0
 38 33  1  0  0  0  0
 39 40  1  0  0  0  0
 42 41  1  0  0  0  0
 43 42  1  0  0  0  0
 43 44  1  0  0  0  0
 44 45  1  0  0  0  0
 45 46  1  0  0  0  0
 46 48  1  0  0  0  0
 48 47  1  0  0  0  0
 49 48  1  0  0  0  0
M  END
>  <MODEL>
5

>  <REMARK>
 VINA RESULT:      -6.9      3.492      8.543
  Name = 
  15 active torsions:
  status: ('A' for Active; 'I' for Inactive)
    1  A    between atoms: N_2  and  C_6
    2  A    between atoms: N_2  and  C_21
    3  A    between atoms: S_3  and  C_23
    4  A    between atoms: S_3  and  C_34
    5  A    between atoms: C_6  and  C_34
    6  A    between atoms: C_8  and  C_40
    7  A    between atoms: C_11  and  C_23
    8  A    between atoms: C_17  and  C_43
    9  A    between atoms: C_19  and  C_47
   10  A    between atoms: C_20  and  C_45
   11  A    between atoms: C_21  and  C_24
   12  A    between atoms: C_28  and  C_31
   13  A    between atoms: C_28  and  C_38
   14  A    between atoms: C_42  and  C_47
   15  A    between atoms: C_45  and  C_47
                            x       y       z     vdW  Elec       q    Type
                         _______ _______ _______ _____ _____    ______ ____

>  <TORSDO>
F 15

$$$$
=
 OpenBabel11042414083D

 49 53  0  0  1  0  0  0  0  0999 V2000
  193.6740  174.0620  145.5500 C   0  0  2  0  0  3  0  0  0  0  0  0
  196.1470  174.1970  145.8740 C   0  0  0  0  0  3  0  0  0  0  0  0
  197.4430  173.7610  145.5880 C   0  0  0  0  0  3  0  0  0  0  0  0
  195.2960  172.5740  144.2990 C   0  0  0  0  0  3  0  0  0  0  0  0
  196.6060  172.1680  144.0400 C   0  0  0  0  0  3  0  0  0  0  0  0
  197.6440  172.7650  144.6840 N   0  0  0  0  0  0  0  0  0  0  0  0
  195.0650  173.6010  145.2230 C   0  0  0  0  0  0  0  0  0  0  0  0
  191.8150  173.6590  142.2690 C   0  0  0  0  0  3  0  0  0  0  0  0
  191.5880  172.7630  144.9070 C   0  0  0  0  0  3  0  0  0  0  0  0
  192.7590  174.0500  143.2220 C   0  0  0  0  0  3  0  0  0  0  0  0
  192.6530  173.6020  144.5440 C   0  0  0  0  0  0  0  0  0  0  0  0
  190.6450  172.3710  143.9540 C   0  0  0  0  0  3  0  0  0  0  0  0
  190.7570  172.8180  142.6330 C   0  0  0  0  0  0  0  0  0  0  0  0
  189.7420  172.4180  141.6150 C   0  0  0  0  0  2  0  0  0  0  0  0
  190.4980  173.9530  137.8330 O   0  0  0  0  0  1  0  0  0  0  0  0
  191.2720  171.6880  137.6830 C   0  0  2  0  0  3  0  0  0  0  0  0
  190.0810  172.6230  137.9140 C   0  0  1  0  0  3  0  0  0  0  0  0
  189.4090  172.3850  139.2000 N   0  0  0  0  0  2  0  0  0  0  0  0
  191.5490  171.5440  136.3060 O   0  0  0  0  0  0  0  0  0  0  0  0
  193.7540  171.5480  137.0090 O   0  0  0  0  0  0  0  0  0  0  0  0
  191.0350  170.3290  138.3530 C   0  0  2  0  0  3  0  0  0  0  0  0
  193.4380  169.8400  137.2420 P   0  0  1  0  0  4  0  0  0  0  0  0
  191.1000  170.4820  140.1750 S   0  0  0  0  0  0  0  0  0  0  0  0
  190.3940  172.1810  140.2620 C   0  0  2  0  0  3  0  0  0  0  0  0
  192.8920  171.1150  136.0690 C   0  0  0  0  0  2  0  0  0  0  0  0
  191.9110  169.2440  137.8880 N   0  0  0  0  0  2  0  0  0  0  0  0
  194.2470  168.8530  136.4330 O   0  0  0  0  0  0  0  0  0  0  0  0
  194.5970  176.2910  145.2890 O   0  0  0  0  0  1  0  0  0  0  0  0
  193.6020  175.5490  145.9270 C   0  0  1  0  0  3  0  0  0  0  0  0
  192.2830  176.1070  145.6080 C   0  0  0  0  0  0  0  0  0  0  0  0
  191.1950  176.5570  145.3480 C   0  0  0  0  0  0  0  0  0  0  0  0
  186.9450  176.6970  145.0520 C   0  0  0  0  0  2  0  0  0  0  0  0
  189.8710  177.0930  145.0330 C   0  0  1  0  0  0  0  0  0  0  0  0
  187.7480  176.6090  143.7550 C   0  0  1  0  0  3  0  0  0  0  0  0
  189.0480  177.1830  146.3190 C   0  0  0  0  0  2  0  0  0  0  0  0
  190.0200  178.3540  144.4810 F   0  0  0  0  0  0  0  0  0  0  0  0
  187.6220  177.6530  146.0280 C   0  0  2  0  0  3  0  0  0  0  0  0
  189.1870  176.1660  144.0270 C   0  0  0  0  0  2  0  0  0  0  0  0
  186.8200  177.7110  147.3140 C   0  0  0  0  0  2  0  0  0  0  0  0
  185.6550  178.4530  147.1170 O   0  0  0  0  0  1  0  0  0  0  0  0
  187.0720  175.6930  142.7410 C   0  0  0  0  0  2  0  0  0  0  0  0
  187.8510  175.7800  141.0950 S   0  0  0  0  0  0  0  0  0  0  0  0
  187.4550  177.5420  140.9320 C   0  0  0  0  0  2  0  0  0  0  0  0
  186.0380  177.6930  140.4190 C   0  0  0  0  0  2  0  0  0  0  0  0
  185.3480  178.7050  141.1970 N   0  0  0  0  0  2  0  0  0  0  0  0
  184.4050  178.0110  142.0570 C   0  0  0  0  0  2  0  0  0  0  0  0
  183.2160  179.1330  143.7840 O   0  0  0  0  0  1  0  0  0  0  0  0
  184.4590  178.5880  143.4610 C   0  0  0  0  0  3  0  0  0  0  0  0
  185.4320  179.5860  143.5260 O   0  0  0  0  0  1  0  0  0  0  0  0
  1 29  1  6  0  0  0
  3  2  1  0  0  0  0
  4  7  1  0  0  0  0
  5  4  2  0  0  0  0
  5  6  1  0  0  0  0
  6  3  2  0  0  0  0
  7  1  1  0  0  0  0
  7  2  2  0  0  0  0
  8 13  2  0  0  0  0
  8 10  1  0  0  0  0
 10 11  2  0  0  0  0
 11  9  1  0  0  0  0
 11  1  1  0  0  0  0
 12  9  2  0  0  0  0
 13 12  1  0  0  0  0
 14 13  1  0  0  0  0
 16 19  1  6  0  0  0
 16 17  1  0  0  0  0
 16 21  1  0  0  0  0
 17 15  1  1  0  0  0
 17 18  1  0  0  0  0
 18 24  1  0  0  0  0
 20 22  1  0  0  0  0
 21 26  1  6  0  0  0
 21 23  1  0  0  0  0
 22 27  2  6  0  0  0
 22 26  1  0  0  0  0
 23 24  1  0  0  0  0
 24 14  1  1  0  0  0
 25 19  1  0  0  0  0
 25 20  1  0  0  0  0
 29 28  1  6  0  0  0
 30 29  1  0  0  0  0
 31 30  3  0  0  0  0
 32 37  1  0  0  0  0
 33 36  1  6  0  0  0
 33 31  1  0  0  0  0
 33 35  1  0  0  0  0
 34 41  1  6  0  0  0
 34 38  1  0  0  0  0
 34 32  1  0  0  0  0
 37 35  1  0  0  0  0
 37 39  1  1  0  0  0
 38 33  1  0  0  0  0
 40 39  1  0  0  0  0
 42 41  1  0  0  0  0
 43 42  1  0  0  0  0
 44 43  1  0  0  0  0
 44 45  1  0  0  0  0
 45 46  1  0  0  0  0
 46 48  1  0  0  0  0
 48 49  1  0  0  0  0
 48 47  1  0  0  0  0
M  END
>  <MODEL>
6

>  <REMARK>
 VINA RESULT:      -6.9      3.479      8.300
  Name = 
  15 active torsions:
  status: ('A' for Active; 'I' for Inactive)
    1  A    between atoms: N_2  and  C_6
    2  A    between atoms: N_2  and  C_21
    3  A    between atoms: S_3  and  C_23
    4  A    between atoms: S_3  and  C_34
    5  A    between atoms: C_6  and  C_34
    6  A    between atoms: C_8  and  C_40
    7  A    between atoms: C_11  and  C_23
    8  A    between atoms: C_17  and  C_43
    9  A    between atoms: C_19  and  C_47
   10  A    between atoms: C_20  and  C_45
   11  A    between atoms: C_21  and  C_24
   12  A    between atoms: C_28  and  C_31
   13  A    between atoms: C_28  and  C_38
   14  A    between atoms: C_42  and  C_47
   15  A    between atoms: C_45  and  C_47
                            x       y       z     vdW  Elec       q    Type
                         _______ _______ _______ _____ _____    ______ ____

>  <TORSDO>
F 15

$$$$
=
 OpenBabel11042414083D

 49 53  0  0  1  0  0  0  0  0999 V2000
  195.7320  174.4130  145.2380 C   0  0  2  0  0  3  0  0  0  0  0  0
  194.9750  172.1800  144.4130 C   0  0  0  0  0  3  0  0  0  0  0  0
  195.1080  170.7910  144.3490 C   0  0  0  0  0  3  0  0  0  0  0  0
  196.8900  172.2570  145.8850 C   0  0  0  0  0  3  0  0  0  0  0  0
  196.9880  170.8670  145.7970 C   0  0  0  0  0  3  0  0  0  0  0  0
  196.1020  170.1690  145.0370 N   0  0  0  0  0  0  0  0  0  0  0  0
  195.8700  172.9200  145.1890 C   0  0  0  0  0  0  0  0  0  0  0  0
  192.8960  176.3990  146.7860 C   0  0  0  0  0  3  0  0  0  0  0  0
  193.2060  174.1750  145.1220 C   0  0  0  0  0  3  0  0  0  0  0  0
  194.1760  175.9710  146.4250 C   0  0  0  0  0  3  0  0  0  0  0  0
  194.3380  174.8610  145.5880 C   0  0  0  0  0  0  0  0  0  0  0  0
  191.9260  174.6030  145.4820 C   0  0  0  0  0  3  0  0  0  0  0  0
  191.7690  175.7160  146.3150 C   0  0  0  0  0  0  0  0  0  0  0  0
  190.4050  176.1670  146.7190 C   0  0  0  0  0  2  0  0  0  0  0  0
  190.4740  177.0360  142.6600 O   0  0  0  0  0  1  0  0  0  0  0  0
  188.2920  177.7510  143.3490 C   0  0  2  0  0  3  0  0  0  0  0  0
  189.8060  177.9310  143.4970 C   0  0  1  0  0  3  0  0  0  0  0  0
  190.2680  177.7650  144.8830 N   0  0  0  0  0  2  0  0  0  0  0  0
  187.8070  178.4200  142.2040 O   0  0  0  0  0  0  0  0  0  0  0  0
  186.4180  176.5770  142.0290 O   0  0  0  0  0  0  0  0  0  0  0  0
  187.5630  178.2110  144.6180 C   0  0  2  0  0  3  0  0  0  0  0  0
  185.4280  177.5120  143.1330 P   0  0  1  0  0  4  0  0  0  0  0  0
  187.8850  177.0640  146.0050 S   0  0  0  0  0  0  0  0  0  0  0  0
  189.6030  176.6230  145.5110 C   0  0  2  0  0  3  0  0  0  0  0  0
  186.5560  177.8900  141.7600 C   0  0  0  0  0  2  0  0  0  0  0  0
  186.1200  178.4460  144.4580 N   0  0  0  0  0  2  0  0  0  0  0  0
  184.0540  177.9340  142.6700 O   0  0  0  0  0  0  0  0  0  0  0  0
  197.7560  174.9870  144.0300 O   0  0  0  0  0  1  0  0  0  0  0  0
  196.3660  175.1200  144.0320 C   0  0  1  0  0  3  0  0  0  0  0  0
  195.8150  174.6060  142.7730 C   0  0  0  0  0  0  0  0  0  0  0  0
  195.3540  174.1900  141.7400 C   0  0  0  0  0  0  0  0  0  0  0  0
  192.9060  174.1170  138.2510 C   0  0  0  0  0  2  0  0  0  0  0  0
  194.7870  173.6910  140.4870 C   0  0  1  0  0  0  0  0  0  0  0  0
  192.6120  173.0980  139.3510 C   0  0  1  0  0  3  0  0  0  0  0  0
  195.0660  174.7010  139.3730 C   0  0  0  0  0  2  0  0  0  0  0  0
  195.3790  172.4780  140.1800 F   0  0  0  0  0  0  0  0  0  0  0  0
  194.4120  174.2680  138.0600 C   0  0  2  0  0  3  0  0  0  0  0  0
  193.2800  173.4990  140.6670 C   0  0  0  0  0  2  0  0  0  0  0  0
  194.6810  175.2960  136.9790 C   0  0  0  0  0  2  0  0  0  0  0  0
  196.0260  175.6660  136.9960 O   0  0  0  0  0  1  0  0  0  0  0  0
  191.1120  172.8930  139.5350 C   0  0  0  0  0  2  0  0  0  0  0  0
  190.1560  173.3930  138.0650 S   0  0  0  0  0  0  0  0  0  0  0  0
  188.6790  173.7290  139.0610 C   0  0  0  0  0  2  0  0  0  0  0  0
  188.8600  173.1340  140.4420 C   0  0  0  0  0  2  0  0  0  0  0  0
  188.2490  174.0070  141.4280 N   0  0  0  0  0  2  0  0  0  0  0  0
  189.0460  173.9040  142.6390 C   0  0  0  0  0  2  0  0  0  0  0  0
  188.9460  171.9210  143.9480 O   0  0  0  0  0  1  0  0  0  0  0  0
  189.5400  172.4790  142.8160 C   0  0  0  0  0  3  0  0  0  0  0  0
  190.9270  172.4740  142.9720 O   0  0  0  0  0  1  0  0  0  0  0  0
  1 29  1  6  0  0  0
  1 11  1  0  0  0  0
  2  7  1  0  0  0  0
  3  2  2  0  0  0  0
  3  6  1  0  0  0  0
  5  4  1  0  0  0  0
  6  5  2  0  0  0  0
  7  1  1  0  0  0  0
  7  4  2  0  0  0  0
  9 12  2  0  0  0  0
  9 11  1  0  0  0  0
 10  8  1  0  0  0  0
 11 10  2  0  0  0  0
 12 13  1  0  0  0  0
 13 14  1  0  0  0  0
 13  8  2  0  0  0  0
 16 19  1  6  0  0  0
 16 17  1  0  0  0  0
 16 21  1  0  0  0  0
 17 15  1  6  0  0  0
 17 18  1  0  0  0  0
 18 24  1  0  0  0  0
 20 22  1  0  0  0  0
 21 26  1  6  0  0  0
 21 23  1  0  0  0  0
 22 27  2  6  0  0  0
 22 26  1  0  0  0  0
 24 23  1  0  0  0  0
 24 14  1  1  0  0  0
 25 20  1  0  0  0  0
 25 19  1  0  0  0  0
 29 28  1  6  0  0  0
 30 29  1  0  0  0  0
 31 30  3  0  0  0  0
 32 34  1  0  0  0  0
 33 36  1  6  0  0  0
 33 38  1  0  0  0  0
 33 31  1  0  0  0  0
 34 41  1  1  0  0  0
 34 38  1  0  0  0  0
 35 33  1  0  0  0  0
 37 39  1  6  0  0  0
 37 32  1  0  0  0  0
 37 35  1  0  0  0  0
 39 40  1  0  0  0  0
 42 43  1  0  0  0  0
 42 41  1  0  0  0  0
 43 44  1  0  0  0  0
 44 45  1  0  0  0  0
 45 46  1  0  0  0  0
 46 48  1  0  0  0  0
 48 49  1  0  0  0  0
 48 47  1  0  0  0  0
M  END
>  <MODEL>
7

>  <REMARK>
 VINA RESULT:      -6.8      3.613      8.120
  Name = 
  15 active torsions:
  status: ('A' for Active; 'I' for Inactive)
    1  A    between atoms: N_2  and  C_6
    2  A    between atoms: N_2  and  C_21
    3  A    between atoms: S_3  and  C_23
    4  A    between atoms: S_3  and  C_34
    5  A    between atoms: C_6  and  C_34
    6  A    between atoms: C_8  and  C_40
    7  A    between atoms: C_11  and  C_23
    8  A    between atoms: C_17  and  C_43
    9  A    between atoms: C_19  and  C_47
   10  A    between atoms: C_20  and  C_45
   11  A    between atoms: C_21  and  C_24
   12  A    between atoms: C_28  and  C_31
   13  A    between atoms: C_28  and  C_38
   14  A    between atoms: C_42  and  C_47
   15  A    between atoms: C_45  and  C_47
                            x       y       z     vdW  Elec       q    Type
                         _______ _______ _______ _____ _____    ______ ____

>  <TORSDO>
F 15

$$$$
=
 OpenBabel11042414083D

 49 53  0  0  1  0  0  0  0  0999 V2000
  192.9450  174.2360  145.6090 C   0  0  2  0  0  3  0  0  0  0  0  0
  194.3450  175.8910  144.3690 C   0  0  0  0  0  3  0  0  0  0  0  0
  195.5390  176.2580  143.7440 C   0  0  0  0  0  3  0  0  0  0  0  0
  195.3050  173.7260  144.8470 C   0  0  0  0  0  3  0  0  0  0  0  0
  196.4810  174.1290  144.2130 C   0  0  0  0  0  3  0  0  0  0  0  0
  196.5730  175.3770  143.6790 N   0  0  0  0  0  0  0  0  0  0  0  0
  194.2240  174.6150  144.9230 C   0  0  0  0  0  0  0  0  0  0  0  0
  190.6550  174.2170  142.5860 C   0  0  0  0  0  3  0  0  0  0  0  0
  191.0520  172.6980  144.8990 C   0  0  0  0  0  3  0  0  0  0  0  0
  191.6610  174.5710  143.4890 C   0  0  0  0  0  3  0  0  0  0  0  0
  191.8670  173.8120  144.6460 C   0  0  0  0  0  0  0  0  0  0  0  0
  190.0470  172.3430  143.9950 C   0  0  0  0  0  3  0  0  0  0  0  0
  189.8470  173.1020  142.8370 C   0  0  0  0  0  0  0  0  0  0  0  0
  188.7620  172.7400  141.8780 C   0  0  0  0  0  2  0  0  0  0  0  0
  187.9250  174.6290  138.2780 O   0  0  0  0  0  1  0  0  0  0  0  0
  189.7690  173.1940  137.7410 C   0  0  2  0  0  3  0  0  0  0  0  0
  188.3180  173.2910  138.2240 C   0  0  1  0  0  3  0  0  0  0  0  0
  188.1070  172.6520  139.5310 N   0  0  0  0  0  2  0  0  0  0  0  0
  189.8470  173.3000  136.3350 O   0  0  0  0  0  0  0  0  0  0  0  0
  191.7750  174.4970  136.7900 O   0  0  0  0  0  0  0  0  0  0  0  0
  190.4240  171.9010  138.2440 C   0  0  2  0  0  3  0  0  0  0  0  0
  192.4830  172.8940  136.8220 P   0  0  1  0  0  4  0  0  0  0  0  0
  190.6940  171.9690  140.0510 S   0  0  0  0  0  0  0  0  0  0  0  0
  189.2040  172.9780  140.4430 C   0  0  2  0  0  3  0  0  0  0  0  0
  191.1460  173.7070  135.8990 C   0  0  0  0  0  2  0  0  0  0  0  0
  191.6580  171.5150  137.5440 N   0  0  0  0  0  2  0  0  0  0  0  0
  193.5520  172.5700  135.8050 O   0  0  0  0  0  0  0  0  0  0  0  0
  193.4990  176.2000  146.9210 O   0  0  0  0  0  1  0  0  0  0  0  0
  192.5090  175.2450  146.6800 C   0  0  1  0  0  3  0  0  0  0  0  0
  191.2590  175.9110  146.2960 C   0  0  0  0  0  0  0  0  0  0  0  0
  190.2360  176.4680  145.9850 C   0  0  0  0  0  0  0  0  0  0  0  0
  186.0620  177.0250  145.3260 C   0  0  0  0  0  2  0  0  0  0  0  0
  188.9980  177.1510  145.6120 C   0  0  1  0  0  0  0  0  0  0  0  0
  186.9790  176.9920  144.1040 C   0  0  1  0  0  3  0  0  0  0  0  0
  188.0620  177.1900  146.8210 C   0  0  0  0  0  2  0  0  0  0  0  0
  189.3030  178.4420  145.2120 F   0  0  0  0  0  0  0  0  0  0  0  0
  186.7150  177.8140  146.4550 C   0  0  2  0  0  3  0  0  0  0  0  0
  188.3430  176.3940  144.4560 C   0  0  0  0  0  2  0  0  0  0  0  0
  185.7970  177.8180  147.6620 C   0  0  0  0  0  2  0  0  0  0  0  0
  184.5350  178.2920  147.3010 O   0  0  0  0  0  1  0  0  0  0  0  0
  186.3330  176.2450  142.9420 C   0  0  0  0  0  2  0  0  0  0  0  0
  186.0970  177.3060  141.4780 S   0  0  0  0  0  0  0  0  0  0  0  0
  184.5580  177.9940  142.1460 C   0  0  0  0  0  2  0  0  0  0  0  0
  183.5940  178.2630  141.0100 C   0  0  0  0  0  2  0  0  0  0  0  0
  182.3860  178.8730  141.5350 N   0  0  0  0  0  2  0  0  0  0  0  0
  181.2960  177.9480  141.2760 C   0  0  0  0  0  2  0  0  0  0  0  0
  179.9420  179.8910  141.0560 O   0  0  0  0  0  1  0  0  0  0  0  0
  180.2000  178.6430  140.4870 C   0  0  0  0  0  3  0  0  0  0  0  0
  179.0370  177.8740  140.5120 O   0  0  0  0  0  1  0  0  0  0  0  0
  1 29  1  6  0  0  0
  2  7  1  0  0  0  0
  3  2  2  0  0  0  0
  4  7  2  0  0  0  0
  5  4  1  0  0  0  0
  6  3  1  0  0  0  0
  6  5  2  0  0  0  0
  7  1  1  0  0  0  0
  8 13  2  0  0  0  0
  8 10  1  0  0  0  0
 10 11  2  0  0  0  0
 11  9  1  0  0  0  0
 11  1  1  0  0  0  0
 12  9  2  0  0  0  0
 13 12  1  0  0  0  0
 14 13  1  0  0  0  0
 16 19  1  6  0  0  0
 16 17  1  0  0  0  0
 16 21  1  0  0  0  0
 17 15  1  1  0  0  0
 17 18  1  0  0  0  0
 18 24  1  0  0  0  0
 20 22  1  0  0  0  0
 21 26  1  6  0  0  0
 21 23  1  0  0  0  0
 22 27  2  6  0  0  0
 22 26  1  0  0  0  0
 23 24  1  0  0  0  0
 24 14  1  1  0  0  0
 25 19  1  0  0  0  0
 25 20  1  0  0  0  0
 29 28  1  6  0  0  0
 30 29  1  0  0  0  0
 31 30  3  0  0  0  0
 32 37  1  0  0  0  0
 33 36  1  6  0  0  0
 33 31  1  0  0  0  0
 33 35  1  0  0  0  0
 34 41  1  6  0  0  0
 34 38  1  0  0  0  0
 34 32  1  0  0  0  0
 37 35  1  0  0  0  0
 37 39  1  1  0  0  0
 38 33  1  0  0  0  0
 40 39  1  0  0  0  0
 42 43  1  0  0  0  0
 42 41  1  0  0  0  0
 44 45  1  0  0  0  0
 44 43  1  0  0  0  0
 46 45  1  0  0  0  0
 48 49  1  0  0  0  0
 48 47  1  0  0  0  0
 48 46  1  0  0  0  0
M  END
>  <MODEL>
8

>  <REMARK>
 VINA RESULT:      -6.8      3.821      8.388
  Name = 
  15 active torsions:
  status: ('A' for Active; 'I' for Inactive)
    1  A    between atoms: N_2  and  C_6
    2  A    between atoms: N_2  and  C_21
    3  A    between atoms: S_3  and  C_23
    4  A    between atoms: S_3  and  C_34
    5  A    between atoms: C_6  and  C_34
    6  A    between atoms: C_8  and  C_40
    7  A    between atoms: C_11  and  C_23
    8  A    between atoms: C_17  and  C_43
    9  A    between atoms: C_19  and  C_47
   10  A    between atoms: C_20  and  C_45
   11  A    between atoms: C_21  and  C_24
   12  A    between atoms: C_28  and  C_31
   13  A    between atoms: C_28  and  C_38
   14  A    between atoms: C_42  and  C_47
   15  A    between atoms: C_45  and  C_47
                            x       y       z     vdW  Elec       q    Type
                         _______ _______ _______ _____ _____    ______ ____

>  <TORSDO>
F 15

$$$$
=
 OpenBabel11042414083D

 49 53  0  0  1  0  0  0  0  0999 V2000
  194.0730  175.9090  145.7500 C   0  0  2  0  0  3  0  0  0  0  0  0
  195.9150  174.2260  145.8560 C   0  0  0  0  0  3  0  0  0  0  0  0
  196.3740  172.9090  145.7720 C   0  0  0  0  0  3  0  0  0  0  0  0
  193.6870  173.4400  145.3460 C   0  0  0  0  0  3  0  0  0  0  0  0
  194.1860  172.1380  145.2690 C   0  0  0  0  0  3  0  0  0  0  0  0
  195.5080  171.9020  145.4820 N   0  0  0  0  0  0  0  0  0  0  0  0
  194.5620  174.4950  145.6390 C   0  0  0  0  0  0  0  0  0  0  0  0
  190.4260  176.9510  145.7550 C   0  0  0  0  0  3  0  0  0  0  0  0
  192.1130  175.2920  147.2430 C   0  0  0  0  0  3  0  0  0  0  0  0
  191.7730  176.8300  145.4030 C   0  0  0  0  0  3  0  0  0  0  0  0
  192.6220  175.9980  146.1420 C   0  0  0  0  0  0  0  0  0  0  0  0
  190.7660  175.4120  147.5940 C   0  0  0  0  0  3  0  0  0  0  0  0
  189.9200  176.2420  146.8500 C   0  0  0  0  0  0  0  0  0  0  0  0
  188.4850  176.3890  147.2320 C   0  0  0  0  0  2  0  0  0  0  0  0
  185.4000  178.8680  145.9760 O   0  0  0  0  0  1  0  0  0  0  0  0
  185.9070  177.5730  144.0230 C   0  0  2  0  0  3  0  0  0  0  0  0
  185.4210  177.5650  145.4760 C   0  0  1  0  0  3  0  0  0  0  0  0
  186.2350  176.7050  146.3470 N   0  0  0  0  0  2  0  0  0  0  0  0
  184.8660  177.9240  143.1370 O   0  0  0  0  0  0  0  0  0  0  0  0
  186.5480  179.0490  142.0130 O   0  0  0  0  0  0  0  0  0  0  0  0
  186.5290  176.2200  143.6510 C   0  0  2  0  0  3  0  0  0  0  0  0
  186.7920  177.4740  141.2830 P   0  0  1  0  0  4  0  0  0  0  0  0
  188.1210  175.9760  144.5180 S   0  0  0  0  0  0  0  0  0  0  0  0
  187.6580  176.8800  146.0540 C   0  0  2  0  0  3  0  0  0  0  0  0
  185.3640  178.4180  141.8910 C   0  0  0  0  0  2  0  0  0  0  0  0
  186.6770  175.9790  142.2080 N   0  0  0  0  0  2  0  0  0  0  0  0
  186.5990  177.3470  139.7900 O   0  0  0  0  0  0  0  0  0  0  0  0
  195.7330  177.3840  144.7730 O   0  0  0  0  0  1  0  0  0  0  0  0
  194.4880  176.7890  144.5620 C   0  0  1  0  0  3  0  0  0  0  0  0
  194.5130  176.0120  143.3180 C   0  0  0  0  0  0  0  0  0  0  0  0
  194.5240  175.3760  142.2940 C   0  0  0  0  0  0  0  0  0  0  0  0
  194.0320  174.5580  138.1390 C   0  0  0  0  0  2  0  0  0  0  0  0
  194.5260  174.6060  141.0500 C   0  0  1  0  0  0  0  0  0  0  0  0
  193.0690  173.8860  139.1180 C   0  0  1  0  0  3  0  0  0  0  0  0
  195.4800  175.2660  140.0530 C   0  0  0  0  0  2  0  0  0  0  0  0
  194.9510  173.3170  141.3230 F   0  0  0  0  0  0  0  0  0  0  0  0
  195.4490  174.5490  138.7030 C   0  0  2  0  0  3  0  0  0  0  0  0
  193.1060  174.5720  140.4850 C   0  0  0  0  0  2  0  0  0  0  0  0
  196.3820  175.2370  137.7260 C   0  0  0  0  0  2  0  0  0  0  0  0
  195.7130  175.5010  136.5300 O   0  0  0  0  0  1  0  0  0  0  0  0
  191.6500  173.8400  138.5620 C   0  0  0  0  0  2  0  0  0  0  0  0
  191.0480  172.1340  138.3310 S   0  0  0  0  0  0  0  0  0  0  0  0
  190.0500  172.2140  139.8430 C   0  0  0  0  0  2  0  0  0  0  0  0
  189.4910  173.6130  140.0010 C   0  0  0  0  0  2  0  0  0  0  0  0
  189.3650  173.9260  141.4120 N   0  0  0  0  0  2  0  0  0  0  0  0
  189.3490  172.6610  142.1280 C   0  0  0  0  0  2  0  0  0  0  0  0
  190.8990  173.9790  143.3600 O   0  0  0  0  0  1  0  0  0  0  0  0
  190.2580  172.7410  143.3420 C   0  0  0  0  0  3  0  0  0  0  0  0
  191.2150  171.7260  143.2860 O   0  0  0  0  0  1  0  0  0  0  0  0
  1 29  1  6  0  0  0
  1 11  1  0  0  0  0
  3  2  1  0  0  0  0
  4  7  1  0  0  0  0
  5  4  2  0  0  0  0
  5  6  1  0  0  0  0
  6  3  2  0  0  0  0
  7  1  1  0  0  0  0
  7  2  2  0  0  0  0
  8 13  1  0  0  0  0
  9 12  1  0  0  0  0
 10  8  2  0  0  0  0
 10 11  1  0  0  0  0
 11  9  2  0  0  0  0
 13 14  1  0  0  0  0
 13 12  2  0  0  0  0
 16 19  1  6  0  0  0
 16 17  1  0  0  0  0
 17 15  1  1  0  0  0
 17 18  1  0  0  0  0
 21 26  1  6  0  0  0
 21 16  1  0  0  0  0
 21 23  1  0  0  0  0
 22 27  2  6  0  0  0
 22 20  1  0  0  0  0
 22 26  1  0  0  0  0
 23 24  1  0  0  0  0
 24 18  1  0  0  0  0
 24 14  1  1  0  0  0
 25 20  1  0  0  0  0
 25 19  1  0  0  0  0
 29 28  1  1  0  0  0
 30 29  1  0  0  0  0
 31 30  3  0  0  0  0
 32 37  1  0  0  0  0
 32 34  1  0  0  0  0
 33 36  1  1  0  0  0
 33 31  1  0  0  0  0
 34 41  1  6  0  0  0
 34 38  1  0  0  0  0
 35 33  1  0  0  0  0
 37 39  1  6  0  0  0
 37 35  1  0  0  0  0
 38 33  1  0  0  0  0
 40 39  1  0  0  0  0
 42 41  1  0  0  0  0
 42 43  1  0  0  0  0
 43 44  1  0  0  0  0
 44 45  1  0  0  0  0
 45 46  1  0  0  0  0
 46 48  1  0  0  0  0
 48 47  1  0  0  0  0
 49 48  1  0  0  0  0
M  END
>  <MODEL>
9

>  <REMARK>
 VINA RESULT:      -6.8      3.550      7.938
  Name = 
  15 active torsions:
  status: ('A' for Active; 'I' for Inactive)
    1  A    between atoms: N_2  and  C_6
    2  A    between atoms: N_2  and  C_21
    3  A    between atoms: S_3  and  C_23
    4  A    between atoms: S_3  and  C_34
    5  A    between atoms: C_6  and  C_34
    6  A    between atoms: C_8  and  C_40
    7  A    between atoms: C_11  and  C_23
    8  A    between atoms: C_17  and  C_43
    9  A    between atoms: C_19  and  C_47
   10  A    between atoms: C_20  and  C_45
   11  A    between atoms: C_21  and  C_24
   12  A    between atoms: C_28  and  C_31
   13  A    between atoms: C_28  and  C_38
   14  A    between atoms: C_42  and  C_47
   15  A    between atoms: C_45  and  C_47
                            x       y       z     vdW  Elec       q    Type
                         _______ _______ _______ _____ _____    ______ ____

>  <TORSDO>
F 15

$$$$
