=
 OpenBabel11042414303D

 52 57  0  0  1  0  0  0  0  0999 V2000
  191.1810  171.5410  142.0380 C   0  0  0  0  0  3  0  0  0  0  0  0
  188.8960  173.8040  143.1740 O   0  0  0  0  0  0  0  0  0  0  0  0
  188.3330  173.9320  141.9090 N   0  0  0  0  0  0  0  0  0  0  0  0
  193.5620  174.4020  142.1220 C   0  0  2  0  0  3  0  0  0  0  0  0
  193.7200  172.1610  142.1980 C   0  0  0  0  0  0  0  0  0  0  0  0
  192.3100  172.4700  142.1640 C   0  0  0  0  0  0  0  0  0  0  0  0
  194.4400  173.2330  142.1650 N   0  0  0  0  0  0  0  0  0  0  0  0
  189.7010  173.5030  142.1260 C   0  0  2  0  0  0  0  0  0  0  0  0
  192.1940  173.7870  142.1210 C   0  0  0  0  0  0  0  0  0  0  0  0
  189.9330  172.0220  142.0050 C   0  0  0  0  0  3  0  0  0  0  0  0
  190.8780  174.4970  141.9450 C   0  0  0  0  0  2  0  0  0  0  0  0
  188.1690  175.6750  141.6280 S   0  0  0  0  0  0  0  0  0  0  0  0
  186.9150  175.8160  142.7930 O   0  0  0  0  0  0  0  0  0  0  0  0
  186.7120  177.1120  142.9180 O   0  0  0  0  0  0  0  0  0  0  0  0
  185.4550  177.3470  142.3510 C   0  0  1  0  0  3  0  0  0  0  0  0
  184.5290  178.1590  143.2040 C   0  0  2  0  0  3  0  0  0  0  0  0
  185.2870  178.7310  142.1620 O   0  0  0  0  0  0  0  0  0  0  0  0
  185.0220  178.6870  144.5360 C   0  0  0  0  0  0  0  0  0  0  0  0
  185.6370  179.7390  144.6310 O   0  0  0  0  0  0  0  0  0  0  0  0
  184.7750  177.8550  145.7570 C   0  0  2  0  0  3  0  0  0  0  0  0
  184.0260  178.6130  146.7460 N   0  0  0  0  0  1  0  0  0  0  0  0
  186.6120  178.0120  147.2220 O   0  0  0  0  0  0  0  0  0  0  0  0
  186.0630  177.3660  146.3440 C   0  0  0  0  0  0  0  0  0  0  0  0
  186.6150  176.1990  145.9180 F   0  0  0  0  0  0  0  0  0  0  0  0
  194.2550  170.8750  142.3110 O   0  0  0  0  0  0  0  0  0  0  0  0
  194.4120  170.2070  143.5280 C   0  0  0  0  0  0  0  0  0  0  0  0
  193.9110  169.0550  143.6650 O   0  0  0  0  0  0  0  0  0  0  0  0
  195.2210  170.8260  144.6320 C   0  0  1  0  0  3  0  0  0  0  0  0
  194.3230  171.3150  145.7580 C   0  0  0  0  0  1  0  0  0  0  0  0
  196.3450  169.4590  146.4690 N   0  0  0  0  0  1  0  0  0  0  0  0
  196.2970  169.8910  145.1120 C   0  0  0  0  0  0  0  0  0  0  0  0
  197.0880  169.3760  144.2740 O   0  0  0  0  0  0  0  0  0  0  0  0
  193.8040  175.2030  140.8520 C   0  0  0  0  0  2  0  0  0  0  0  0
  195.2940  175.4610  140.6750 C   0  0  0  0  0  2  0  0  0  0  0  0
  195.6710  176.6690  141.3930 N   0  0  0  0  0  2  0  0  0  0  0  0
  196.8940  176.3630  142.1160 C   0  0  0  0  0  2  0  0  0  0  0  0
  195.9250  174.6250  145.9210 C   0  0  0  0  0  3  0  0  0  0  0  0
  196.9620  174.0830  145.1510 C   0  0  0  0  0  3  0  0  0  0  0  0
  195.5310  176.2970  144.2100 C   0  0  0  0  0  3  0  0  0  0  0  0
  197.2830  174.6480  143.9100 C   0  0  0  0  0  3  0  0  0  0  0  0
  196.5690  175.7590  143.4400 C   0  0  0  0  0  0  0  0  0  0  0  0
  195.2070  175.7320  145.4520 C   0  0  0  0  0  0  0  0  0  0  0  0
  192.8220  175.7720  146.1180 C   0  0  0  0  0  0  0  0  0  0  0  0
  194.3730  177.4050  146.9630 O   0  0  0  0  0  1  0  0  0  0  0  0
  194.1510  176.2830  146.2410 N   0  0  0  0  0  0  0  0  0  0  0  0
  192.5130  174.7060  146.7180 O   0  0  0  0  0  0  0  0  0  0  0  0
  192.2320  177.1920  144.2190 C   0  0  0  0  0  3  0  0  0  0  0  0
  191.2490  177.9280  143.3510 C   0  0  0  0  0  2  0  0  0  0  0  0
  191.8340  176.4620  145.2700 C   0  0  0  0  0  0  0  0  0  0  0  0
  189.5390  177.2180  145.0060 C   0  0  0  0  0  3  0  0  0  0  0  0
  189.9850  178.0920  144.0050 O   0  0  0  0  0  0  0  0  0  0  0  0
  190.4030  176.4150  145.6250 C   0  0  0  0  0  3  0  0  0  0  0  0
  1  6  1  0  0  0  0
  3  8  1  0  0  0  0
  3  2  1  0  0  0  0
  4 33  1  6  0  0  0
  4  7  1  0  0  0  0
  5 25  1  0  0  0  0
  6  5  1  0  0  0  0
  7  5  2  0  0  0  0
  8 11  1  6  0  0  0
  8  2  1  0  0  0  0
  9  4  1  0  0  0  0
  9  6  2  0  0  0  0
 10  1  2  0  0  0  0
 10  8  1  0  0  0  0
 11  9  1  0  0  0  0
 12  3  1  0  0  0  0
 12 13  1  0  0  0  0
 13 14  1  0  0  0  0
 15 14  1  1  0  0  0
 15 16  1  0  0  0  0
 16 18  1  1  0  0  0
 17 15  1  0  0  0  0
 17 16  1  0  0  0  0
 18 19  2  0  0  0  0
 18 20  1  0  0  0  0
 20 23  1  0  0  0  0
 20 21  1  1  0  0  0
 23 22  2  0  0  0  0
 24 23  1  0  0  0  0
 25 26  1  0  0  0  0
 26 27  2  0  0  0  0
 26 28  1  0  0  0  0
 28 31  1  0  0  0  0
 28 29  1  1  0  0  0
 31 30  1  0  0  0  0
 32 31  2  0  0  0  0
 34 33  1  0  0  0  0
 34 35  1  0  0  0  0
 35 36  1  0  0  0  0
 36 41  1  0  0  0  0
 38 37  2  0  0  0  0
 39 42  2  0  0  0  0
 40 38  1  0  0  0  0
 41 40  2  0  0  0  0
 41 39  1  0  0  0  0
 42 37  1  0  0  0  0
 42 45  1  0  0  0  0
 43 45  1  0  0  0  0
 43 46  2  0  0  0  0
 45 44  1  0  0  0  0
 47 49  2  0  0  0  0
 48 51  1  0  0  0  0
 48 47  1  0  0  0  0
 49 52  1  0  0  0  0
 49 43  1  0  0  0  0
 50 52  2  0  0  0  0
 51 50  1  0  0  0  0
M  END
>  <MODEL>
1

>  <REMARK>
 VINA RESULT:      -7.0      0.000      0.000
  Name = 
  18 active torsions:
  status: ('A' for Active; 'I' for Inactive)
    1  A    between atoms: S_1  and  N_11
    2  A    between atoms: S_1  and  O_21
    3  A    between atoms: C_3  and  O_47
    4  A    between atoms: C_9  and  C_32
    5  A    between atoms: C_12  and  C_38
    6  A    between atoms: C_13  and  C_18
    7  A    between atoms: C_14  and  O_30
    8  A    between atoms: C_17  and  C_18
    9  A    between atoms: C_17  and  C_25
   10  A    between atoms: C_19  and  C_34
   11  A    between atoms: C_19  and  C_43
   12  A    between atoms: O_21  and  O_47
   13  A    between atoms: C_22  and  C_52
   14  A    between atoms: N_29  and  C_40
   15  A    between atoms: O_30  and  C_43
   16  A    between atoms: C_38  and  C_41
   17  A    between atoms: C_41  and  N_49
   18  A    between atoms: N_49  and  C_52
                            x       y       z     vdW  Elec       q    Type
                         _______ _______ _______ _____ _____    ______ ____

>  <TORSDO>
F 18

$$$$
=
 OpenBabel11042414303D

 52 57  0  0  1  0  0  0  0  0999 V2000
  191.3050  172.9700  144.9140 C   0  0  0  0  0  3  0  0  0  0  0  0
  189.6770  174.8490  147.2500 O   0  0  0  0  0  0  0  0  0  0  0  0
  189.2040  175.7220  146.2770 N   0  0  0  0  0  0  0  0  0  0  0  0
  194.3600  174.7250  146.1130 C   0  0  2  0  0  3  0  0  0  0  0  0
  193.9120  172.7840  145.0740 C   0  0  0  0  0  0  0  0  0  0  0  0
  192.6370  173.4040  145.3500 C   0  0  0  0  0  0  0  0  0  0  0  0
  194.8930  173.5160  145.4870 N   0  0  0  0  0  0  0  0  0  0  0  0
  190.4010  174.9220  146.1060 C   0  0  2  0  0  0  0  0  0  0  0  0
  192.8780  174.5490  145.9650 C   0  0  0  0  0  0  0  0  0  0  0  0
  190.2310  173.6920  145.2560 C   0  0  0  0  0  3  0  0  0  0  0  0
  191.8050  175.5500  146.3020 C   0  0  0  0  0  2  0  0  0  0  0  0
  189.5200  177.3530  146.8980 S   0  0  0  0  0  0  0  0  0  0  0  0
  187.8670  177.5990  147.2930 O   0  0  0  0  0  0  0  0  0  0  0  0
  187.2860  177.8960  146.1480 O   0  0  0  0  0  0  0  0  0  0  0  0
  185.9110  177.8340  146.4020 C   0  0  1  0  0  3  0  0  0  0  0  0
  185.0660  177.5650  145.1940 C   0  0  2  0  0  3  0  0  0  0  0  0
  185.4440  176.5440  146.0910 O   0  0  0  0  0  0  0  0  0  0  0  0
  185.7390  177.3360  143.8560 C   0  0  0  0  0  0  0  0  0  0  0  0
  186.2130  176.2540  143.5430 O   0  0  0  0  0  0  0  0  0  0  0  0
  185.8560  178.5000  142.9200 C   0  0  2  0  0  3  0  0  0  0  0  0
  185.5570  179.7420  143.6140 N   0  0  0  0  0  1  0  0  0  0  0  0
  185.4270  178.2520  140.6180 O   0  0  0  0  0  0  0  0  0  0  0  0
  184.9510  178.3340  141.7390 C   0  0  0  0  0  0  0  0  0  0  0  0
  183.6040  178.2580  141.9080 F   0  0  0  0  0  0  0  0  0  0  0  0
  194.0800  171.5260  144.4880 O   0  0  0  0  0  0  0  0  0  0  0  0
  195.3290  170.9590  144.2200 C   0  0  0  0  0  0  0  0  0  0  0  0
  195.9970  171.3860  143.2360 O   0  0  0  0  0  0  0  0  0  0  0  0
  195.8910  169.9040  145.1280 C   0  0  1  0  0  3  0  0  0  0  0  0
  196.6010  170.5320  146.3180 C   0  0  0  0  0  1  0  0  0  0  0  0
  194.6640  168.5430  146.9030 N   0  0  0  0  0  1  0  0  0  0  0  0
  194.8340  168.9150  145.5380 C   0  0  0  0  0  0  0  0  0  0  0  0
  194.0000  168.5110  144.6820 O   0  0  0  0  0  0  0  0  0  0  0  0
  194.8420  175.9640  145.3740 C   0  0  0  0  0  2  0  0  0  0  0  0
  195.4000  175.5730  144.0120 C   0  0  0  0  0  2  0  0  0  0  0  0
  194.6560  176.2550  142.9630 N   0  0  0  0  0  2  0  0  0  0  0  0
  193.8280  175.2510  142.3170 C   0  0  0  0  0  2  0  0  0  0  0  0
  189.6810  176.3340  142.5740 C   0  0  0  0  0  3  0  0  0  0  0  0
  190.6530  177.1540  143.1610 C   0  0  0  0  0  3  0  0  0  0  0  0
  191.4170  174.8190  141.8200 C   0  0  0  0  0  3  0  0  0  0  0  0
  192.0070  176.8060  143.0780 C   0  0  0  0  0  3  0  0  0  0  0  0
  192.3900  175.6390  142.4030 C   0  0  0  0  0  0  0  0  0  0  0  0
  190.0600  175.1650  141.9030 C   0  0  0  0  0  0  0  0  0  0  0  0
  189.1130  172.9150  141.4860 C   0  0  0  0  0  0  0  0  0  0  0  0
  188.1940  174.8650  140.4170 O   0  0  0  0  0  1  0  0  0  0  0  0
  189.0670  174.3320  141.3040 N   0  0  0  0  0  0  0  0  0  0  0  0
  188.6730  172.4160  142.5570 O   0  0  0  0  0  0  0  0  0  0  0  0
  190.7890  171.3110  140.7180 C   0  0  0  0  0  3  0  0  0  0  0  0
  191.4290  170.4390  139.6740 C   0  0  0  0  0  2  0  0  0  0  0  0
  189.7040  172.0500  140.4500 C   0  0  0  0  0  0  0  0  0  0  0  0
  189.8100  171.4630  138.0920 C   0  0  0  0  0  3  0  0  0  0  0  0
  191.0260  170.8150  138.3510 O   0  0  0  0  0  0  0  0  0  0  0  0
  189.1470  172.0570  139.0830 C   0  0  0  0  0  3  0  0  0  0  0  0
  1 10  2  0  0  0  0
  1  6  1  0  0  0  0
  3 12  1  0  0  0  0
  3  2  1  0  0  0  0
  4 33  1  6  0  0  0
  5  6  1  0  0  0  0
  5  7  2  0  0  0  0
  6  9  2  0  0  0  0
  7  4  1  0  0  0  0
  8 10  1  6  0  0  0
  8  3  1  0  0  0  0
  8 11  1  0  0  0  0
  8  2  1  0  0  0  0
  9  4  1  0  0  0  0
  9 11  1  0  0  0  0
 12 13  1  0  0  0  0
 14 13  1  0  0  0  0
 15 14  1  6  0  0  0
 16 18  1  6  0  0  0
 16 17  1  0  0  0  0
 16 15  1  0  0  0  0
 17 15  1  0  0  0  0
 19 18  2  0  0  0  0
 20 21  1  1  0  0  0
 20 18  1  0  0  0  0
 22 23  2  0  0  0  0
 23 24  1  0  0  0  0
 23 20  1  0  0  0  0
 25  5  1  0  0  0  0
 26 25  1  0  0  0  0
 26 28  1  0  0  0  0
 27 26  2  0  0  0  0
 28 31  1  0  0  0  0
 28 29  1  1  0  0  0
 31 30  1  0  0  0  0
 32 31  2  0  0  0  0
 34 33  1  0  0  0  0
 35 34  1  0  0  0  0
 36 41  1  0  0  0  0
 36 35  1  0  0  0  0
 37 38  1  0  0  0  0
 39 42  1  0  0  0  0
 39 41  2  0  0  0  0
 40 38  2  0  0  0  0
 41 40  1  0  0  0  0
 42 37  2  0  0  0  0
 43 46  2  0  0  0  0
 44 45  1  0  0  0  0
 45 43  1  0  0  0  0
 45 42  1  0  0  0  0
 48 47  1  0  0  0  0
 49 47  2  0  0  0  0
 49 43  1  0  0  0  0
 50 51  1  0  0  0  0
 50 52  2  0  0  0  0
 51 48  1  0  0  0  0
 52 49  1  0  0  0  0
M  END
>  <MODEL>
2

>  <REMARK>
 VINA RESULT:      -6.8      2.317      5.087
  Name = 
  18 active torsions:
  status: ('A' for Active; 'I' for Inactive)
    1  A    between atoms: S_1  and  N_11
    2  A    between atoms: S_1  and  O_21
    3  A    between atoms: C_3  and  O_47
    4  A    between atoms: C_9  and  C_32
    5  A    between atoms: C_12  and  C_38
    6  A    between atoms: C_13  and  C_18
    7  A    between atoms: C_14  and  O_30
    8  A    between atoms: C_17  and  C_18
    9  A    between atoms: C_17  and  C_25
   10  A    between atoms: C_19  and  C_34
   11  A    between atoms: C_19  and  C_43
   12  A    between atoms: O_21  and  O_47
   13  A    between atoms: C_22  and  C_52
   14  A    between atoms: N_29  and  C_40
   15  A    between atoms: O_30  and  C_43
   16  A    between atoms: C_38  and  C_41
   17  A    between atoms: C_41  and  N_49
   18  A    between atoms: N_49  and  C_52
                            x       y       z     vdW  Elec       q    Type
                         _______ _______ _______ _____ _____    ______ ____

>  <TORSDO>
F 18

$$$$
=
 OpenBabel11042414303D

 52 57  0  0  1  0  0  0  0  0999 V2000
  191.0960  172.8290  144.7800 C   0  0  0  0  0  3  0  0  0  0  0  0
  189.4380  174.6990  147.1020 O   0  0  0  0  0  0  0  0  0  0  0  0
  188.9860  175.5820  146.1270 N   0  0  0  0  0  0  0  0  0  0  0  0
  194.1390  174.5580  146.0460 C   0  0  2  0  0  3  0  0  0  0  0  0
  193.6980  172.6280  144.9840 C   0  0  0  0  0  0  0  0  0  0  0  0
  192.4230  173.2520  145.2430 C   0  0  0  0  0  0  0  0  0  0  0  0
  194.6760  173.3510  145.4200 N   0  0  0  0  0  0  0  0  0  0  0  0
  190.1820  174.7760  145.9710 C   0  0  2  0  0  0  0  0  0  0  0  0
  192.6590  174.3920  145.8700 C   0  0  0  0  0  0  0  0  0  0  0  0
  190.0210  173.5540  145.1100 C   0  0  0  0  0  3  0  0  0  0  0  0
  191.5860  175.3960  146.1960 C   0  0  0  0  0  2  0  0  0  0  0  0
  189.3000  177.2070  146.7660 S   0  0  0  0  0  0  0  0  0  0  0  0
  187.6670  177.4050  147.2580 O   0  0  0  0  0  0  0  0  0  0  0  0
  187.0500  177.8880  146.1990 O   0  0  0  0  0  0  0  0  0  0  0  0
  185.7260  178.0940  146.6030 C   0  0  1  0  0  3  0  0  0  0  0  0
  184.7120  177.9500  145.5090 C   0  0  2  0  0  3  0  0  0  0  0  0
  184.9960  176.9060  146.4130 O   0  0  0  0  0  0  0  0  0  0  0  0
  185.1720  177.5560  144.1200 C   0  0  0  0  0  0  0  0  0  0  0  0
  185.7440  176.4990  143.9010 O   0  0  0  0  0  0  0  0  0  0  0  0
  184.9470  178.5280  143.0030 C   0  0  2  0  0  3  0  0  0  0  0  0
  183.6930  178.2400  142.3230 N   0  0  0  0  0  1  0  0  0  0  0  0
  185.8850  178.1490  140.8770 O   0  0  0  0  0  0  0  0  0  0  0  0
  186.0830  178.5010  142.0280 C   0  0  0  0  0  0  0  0  0  0  0  0
  187.3300  178.8810  142.4140 F   0  0  0  0  0  0  0  0  0  0  0  0
  193.8700  171.3730  144.3930 O   0  0  0  0  0  0  0  0  0  0  0  0
  194.0220  171.1800  143.0170 C   0  0  0  0  0  0  0  0  0  0  0  0
  194.5540  172.0950  142.3250 O   0  0  0  0  0  0  0  0  0  0  0  0
  193.6180  169.8790  142.3870 C   0  0  1  0  0  3  0  0  0  0  0  0
  193.2180  168.8610  143.4450 C   0  0  0  0  0  1  0  0  0  0  0  0
  192.8880  170.2360  139.9690 N   0  0  0  0  0  1  0  0  0  0  0  0
  192.5520  170.0830  141.3460 C   0  0  0  0  0  0  0  0  0  0  0  0
  191.3380  169.9850  141.6750 O   0  0  0  0  0  0  0  0  0  0  0  0
  194.6400  175.8000  145.3240 C   0  0  0  0  0  2  0  0  0  0  0  0
  195.2590  175.4110  143.9880 C   0  0  0  0  0  2  0  0  0  0  0  0
  194.6520  176.1920  142.9200 N   0  0  0  0  0  2  0  0  0  0  0  0
  193.7100  175.3160  142.2450 C   0  0  0  0  0  2  0  0  0  0  0  0
  189.6950  176.7470  142.7660 C   0  0  0  0  0  3  0  0  0  0  0  0
  190.7730  177.5060  143.2400 C   0  0  0  0  0  3  0  0  0  0  0  0
  191.2410  175.0660  141.9520 C   0  0  0  0  0  3  0  0  0  0  0  0
  192.0850  177.0450  143.0710 C   0  0  0  0  0  3  0  0  0  0  0  0
  192.3190  175.8240  142.4220 C   0  0  0  0  0  0  0  0  0  0  0  0
  189.9270  175.5260  142.1220 C   0  0  0  0  0  0  0  0  0  0  0  0
  189.0420  173.4420  141.1170 C   0  0  0  0  0  0  0  0  0  0  0  0
  187.6110  175.3370  141.5030 O   0  0  0  0  0  1  0  0  0  0  0  0
  188.8260  174.7560  141.6380 N   0  0  0  0  0  0  0  0  0  0  0  0
  189.1750  172.4760  141.9170 O   0  0  0  0  0  0  0  0  0  0  0  0
  188.5220  174.0430  138.8070 C   0  0  0  0  0  3  0  0  0  0  0  0
  188.5900  173.8320  137.3200 C   0  0  0  0  0  2  0  0  0  0  0  0
  189.1480  173.2250  139.6640 C   0  0  0  0  0  0  0  0  0  0  0  0
  189.7870  171.7240  137.8620 C   0  0  0  0  0  3  0  0  0  0  0  0
  189.0070  172.5000  136.9940 O   0  0  0  0  0  0  0  0  0  0  0  0
  189.8820  172.0530  139.1490 C   0  0  0  0  0  3  0  0  0  0  0  0
  1 10  2  0  0  0  0
  1  6  1  0  0  0  0
  3 12  1  0  0  0  0
  3  2  1  0  0  0  0
  4 33  1  6  0  0  0
  5  6  1  0  0  0  0
  5  7  2  0  0  0  0
  6  9  2  0  0  0  0
  7  4  1  0  0  0  0
  8 10  1  6  0  0  0
  8  3  1  0  0  0  0
  8 11  1  0  0  0  0
  8  2  1  0  0  0  0
  9  4  1  0  0  0  0
  9 11  1  0  0  0  0
 12 13  1  0  0  0  0
 14 13  1  0  0  0  0
 15 14  1  6  0  0  0
 16 18  1  6  0  0  0
 16 17  1  0  0  0  0
 16 15  1  0  0  0  0
 17 15  1  0  0  0  0
 19 18  2  0  0  0  0
 20 21  1  6  0  0  0
 20 18  1  0  0  0  0
 22 23  2  0  0  0  0
 23 24  1  0  0  0  0
 23 20  1  0  0  0  0
 25  5  1  0  0  0  0
 26 25  1  0  0  0  0
 27 26  2  0  0  0  0
 28 26  1  0  0  0  0
 28 29  1  1  0  0  0
 30 31  1  0  0  0  0
 31 32  2  0  0  0  0
 31 28  1  0  0  0  0
 34 33  1  0  0  0  0
 35 34  1  0  0  0  0
 36 41  1  0  0  0  0
 36 35  1  0  0  0  0
 37 38  1  0  0  0  0
 39 42  1  0  0  0  0
 39 41  2  0  0  0  0
 40 38  2  0  0  0  0
 41 40  1  0  0  0  0
 42 37  2  0  0  0  0
 43 45  1  0  0  0  0
 43 46  2  0  0  0  0
 44 45  1  0  0  0  0
 45 42  1  0  0  0  0
 47 49  2  0  0  0  0
 48 47  1  0  0  0  0
 49 43  1  0  0  0  0
 50 52  2  0  0  0  0
 51 48  1  0  0  0  0
 51 50  1  0  0  0  0
 52 49  1  0  0  0  0
M  END
>  <MODEL>
3

>  <REMARK>
 VINA RESULT:      -6.8      2.561      5.224
  Name = 
  18 active torsions:
  status: ('A' for Active; 'I' for Inactive)
    1  A    between atoms: S_1  and  N_11
    2  A    between atoms: S_1  and  O_21
    3  A    between atoms: C_3  and  O_47
    4  A    between atoms: C_9  and  C_32
    5  A    between atoms: C_12  and  C_38
    6  A    between atoms: C_13  and  C_18
    7  A    between atoms: C_14  and  O_30
    8  A    between atoms: C_17  and  C_18
    9  A    between atoms: C_17  and  C_25
   10  A    between atoms: C_19  and  C_34
   11  A    between atoms: C_19  and  C_43
   12  A    between atoms: O_21  and  O_47
   13  A    between atoms: C_22  and  C_52
   14  A    between atoms: N_29  and  C_40
   15  A    between atoms: O_30  and  C_43
   16  A    between atoms: C_38  and  C_41
   17  A    between atoms: C_41  and  N_49
   18  A    between atoms: N_49  and  C_52
                            x       y       z     vdW  Elec       q    Type
                         _______ _______ _______ _____ _____    ______ ____

>  <TORSDO>
F 18

$$$$
=
 OpenBabel11042414303D

 52 57  0  0  1  0  0  0  0  0999 V2000
  191.7390  176.7380  142.8140 C   0  0  0  0  0  3  0  0  0  0  0  0
  188.5870  177.1760  141.5850 O   0  0  0  0  0  0  0  0  0  0  0  0
  188.0330  177.0670  142.8560 N   0  0  0  0  0  0  0  0  0  0  0  0
  191.4040  173.2640  141.5190 C   0  0  2  0  0  3  0  0  0  0  0  0
  193.1020  174.6520  142.0090 C   0  0  0  0  0  0  0  0  0  0  0  0
  191.8860  175.4000  142.2310 C   0  0  0  0  0  0  0  0  0  0  0  0
  192.8510  173.4470  141.6170 N   0  0  0  0  0  0  0  0  0  0  0  0
  189.3130  176.4860  142.4990 C   0  0  2  0  0  0  0  0  0  0  0  0
  190.8720  174.6000  141.9470 C   0  0  0  0  0  0  0  0  0  0  0  0
  190.5160  177.2630  142.9590 C   0  0  0  0  0  3  0  0  0  0  0  0
  189.4320  174.9740  142.1800 C   0  0  0  0  0  2  0  0  0  0  0  0
  186.6710  175.9430  142.6920 S   0  0  0  0  0  0  0  0  0  0  0  0
  185.6610  177.1550  142.0130 O   0  0  0  0  0  0  0  0  0  0  0  0
  184.9420  177.6010  143.0220 O   0  0  0  0  0  0  0  0  0  0  0  0
  185.1040  178.9910  143.0070 C   0  0  1  0  0  3  0  0  0  0  0  0
  184.8400  179.6630  144.3200 C   0  0  2  0  0  3  0  0  0  0  0  0
  186.1430  179.3430  143.8870 O   0  0  0  0  0  0  0  0  0  0  0  0
  184.4860  178.8180  145.5260 C   0  0  0  0  0  0  0  0  0  0  0  0
  183.3530  178.7740  145.9800 O   0  0  0  0  0  0  0  0  0  0  0  0
  185.5860  178.0530  146.1950 C   0  0  2  0  0  3  0  0  0  0  0  0
  185.2630  176.6360  146.2450 N   0  0  0  0  0  1  0  0  0  0  0  0
  185.9920  179.7740  147.7500 O   0  0  0  0  0  0  0  0  0  0  0  0
  185.8450  178.5750  147.5740 C   0  0  0  0  0  0  0  0  0  0  0  0
  185.9030  177.7250  148.6340 F   0  0  0  0  0  0  0  0  0  0  0  0
  194.3940  175.1690  142.1370 O   0  0  0  0  0  0  0  0  0  0  0  0
  195.4740  174.7550  141.3540 C   0  0  0  0  0  0  0  0  0  0  0  0
  196.1780  173.7800  141.7460 O   0  0  0  0  0  0  0  0  0  0  0  0
  195.7510  175.4180  140.0360 C   0  0  1  0  0  3  0  0  0  0  0  0
  197.2470  175.4930  139.7660 C   0  0  0  0  0  1  0  0  0  0  0  0
  195.3470  173.4520  138.4610 N   0  0  0  0  0  1  0  0  0  0  0  0
  194.9930  174.7540  138.9200 C   0  0  0  0  0  0  0  0  0  0  0  0
  193.9460  175.3000  138.4720 O   0  0  0  0  0  0  0  0  0  0  0  0
  190.9410  172.1630  142.4610 C   0  0  0  0  0  2  0  0  0  0  0  0
  192.1420  171.3820  142.9780 C   0  0  0  0  0  2  0  0  0  0  0  0
  192.2860  171.5940  144.4100 N   0  0  0  0  0  2  0  0  0  0  0  0
  193.6600  171.2620  144.7470 C   0  0  0  0  0  2  0  0  0  0  0  0
  195.7610  174.8100  145.9470 C   0  0  0  0  0  3  0  0  0  0  0  0
  196.4550  173.6000  145.8130 C   0  0  0  0  0  3  0  0  0  0  0  0
  193.7060  173.7010  145.2930 C   0  0  0  0  0  3  0  0  0  0  0  0
  195.7740  172.4410  145.4200 C   0  0  0  0  0  3  0  0  0  0  0  0
  194.3990  172.4920  145.1560 C   0  0  0  0  0  0  0  0  0  0  0  0
  194.3860  174.8620  145.6890 C   0  0  0  0  0  0  0  0  0  0  0  0
  192.6490  176.2310  146.8040 C   0  0  0  0  0  0  0  0  0  0  0  0
  193.8650  177.0750  144.9070 O   0  0  0  0  0  1  0  0  0  0  0  0
  193.6810  176.0980  145.8240 N   0  0  0  0  0  0  0  0  0  0  0  0
  192.9630  176.4490  148.0060 O   0  0  0  0  0  0  0  0  0  0  0  0
  190.3630  177.0740  146.6250 C   0  0  0  0  0  3  0  0  0  0  0  0
  188.9080  176.9370  146.2680 C   0  0  0  0  0  2  0  0  0  0  0  0
  191.2350  176.0770  146.4210 C   0  0  0  0  0  0  0  0  0  0  0  0
  189.4490  174.5680  145.7530 C   0  0  0  0  0  3  0  0  0  0  0  0
  188.5300  175.5640  146.1090 O   0  0  0  0  0  0  0  0  0  0  0  0
  190.7570  174.7890  145.8820 C   0  0  0  0  0  3  0  0  0  0  0  0
  1 10  2  0  0  0  0
  2  8  1  0  0  0  0
  2  3  1  0  0  0  0
  4  7  1  0  0  0  0
  4  9  1  0  0  0  0
  4 33  1  1  0  0  0
  5 25  1  0  0  0  0
  5  6  1  0  0  0  0
  6  1  1  0  0  0  0
  7  5  2  0  0  0  0
  8 11  1  6  0  0  0
  8  3  1  0  0  0  0
  8 10  1  0  0  0  0
  9 11  1  0  0  0  0
  9  6  2  0  0  0  0
 12  3  1  0  0  0  0
 13 12  1  0  0  0  0
 13 14  1  0  0  0  0
 15 14  1  1  0  0  0
 15 17  1  0  0  0  0
 15 16  1  0  0  0  0
 16 18  1  1  0  0  0
 17 16  1  0  0  0  0
 18 19  2  0  0  0  0
 18 20  1  0  0  0  0
 20 21  1  1  0  0  0
 20 23  1  0  0  0  0
 23 22  2  0  0  0  0
 23 24  1  0  0  0  0
 26 27  2  0  0  0  0
 26 25  1  0  0  0  0
 28 29  1  6  0  0  0
 28 26  1  0  0  0  0
 30 31  1  0  0  0  0
 31 28  1  0  0  0  0
 32 31  2  0  0  0  0
 33 34  1  0  0  0  0
 34 35  1  0  0  0  0
 35 36  1  0  0  0  0
 36 41  1  0  0  0  0
 38 37  1  0  0  0  0
 39 42  1  0  0  0  0
 40 38  2  0  0  0  0
 41 39  2  0  0  0  0
 41 40  1  0  0  0  0
 42 45  1  0  0  0  0
 42 37  2  0  0  0  0
 43 46  2  0  0  0  0
 44 45  1  0  0  0  0
 45 43  1  0  0  0  0
 48 47  1  0  0  0  0
 49 47  2  0  0  0  0
 49 43  1  0  0  0  0
 50 52  2  0  0  0  0
 50 51  1  0  0  0  0
 51 48  1  0  0  0  0
 52 49  1  0  0  0  0
M  END
>  <MODEL>
4

>  <REMARK>
 VINA RESULT:      -6.7      2.232      3.975
  Name = 
  18 active torsions:
  status: ('A' for Active; 'I' for Inactive)
    1  A    between atoms: S_1  and  N_11
    2  A    between atoms: S_1  and  O_21
    3  A    between atoms: C_3  and  O_47
    4  A    between atoms: C_9  and  C_32
    5  A    between atoms: C_12  and  C_38
    6  A    between atoms: C_13  and  C_18
    7  A    between atoms: C_14  and  O_30
    8  A    between atoms: C_17  and  C_18
    9  A    between atoms: C_17  and  C_25
   10  A    between atoms: C_19  and  C_34
   11  A    between atoms: C_19  and  C_43
   12  A    between atoms: O_21  and  O_47
   13  A    between atoms: C_22  and  C_52
   14  A    between atoms: N_29  and  C_40
   15  A    between atoms: O_30  and  C_43
   16  A    between atoms: C_38  and  C_41
   17  A    between atoms: C_41  and  N_49
   18  A    between atoms: N_49  and  C_52
                            x       y       z     vdW  Elec       q    Type
                         _______ _______ _______ _____ _____    ______ ____

>  <TORSDO>
F 18

$$$$
=
 OpenBabel11042414303D

 52 57  0  0  1  0  0  0  0  0999 V2000
  191.1020  176.2090  142.5920 C   0  0  0  0  0  3  0  0  0  0  0  0
  188.3710  177.8310  141.3480 O   0  0  0  0  0  0  0  0  0  0  0  0
  187.7230  177.7650  142.5770 N   0  0  0  0  0  0  0  0  0  0  0  0
  189.7260  173.2340  140.8270 C   0  0  2  0  0  3  0  0  0  0  0  0
  191.7490  173.8960  141.5470 C   0  0  0  0  0  0  0  0  0  0  0  0
  190.8380  174.9790  141.8360 C   0  0  0  0  0  0  0  0  0  0  0  0
  191.1410  172.9030  140.9880 N   0  0  0  0  0  0  0  0  0  0  0  0
  188.7600  176.8330  142.1790 C   0  0  2  0  0  0  0  0  0  0  0  0
  189.6390  174.6100  141.4180 C   0  0  0  0  0  0  0  0  0  0  0  0
  190.1160  177.0950  142.7740 C   0  0  0  0  0  3  0  0  0  0  0  0
  188.3920  175.4180  141.6610 C   0  0  0  0  0  2  0  0  0  0  0  0
  186.0800  177.1970  142.2250 S   0  0  0  0  0  0  0  0  0  0  0  0
  185.3810  178.6770  142.7450 O   0  0  0  0  0  0  0  0  0  0  0  0
  184.4240  178.3260  143.5790 O   0  0  0  0  0  0  0  0  0  0  0  0
  184.3020  179.3930  144.4750 C   0  0  1  0  0  3  0  0  0  0  0  0
  184.8050  179.1060  145.8570 C   0  0  2  0  0  3  0  0  0  0  0  0
  185.5840  179.7860  144.8990 O   0  0  0  0  0  0  0  0  0  0  0  0
  185.4300  177.7580  146.1520 C   0  0  0  0  0  0  0  0  0  0  0  0
  184.7650  176.7960  146.5060 O   0  0  0  0  0  0  0  0  0  0  0  0
  186.9190  177.6350  146.0420 C   0  0  2  0  0  3  0  0  0  0  0  0
  187.2950  176.2650  145.7310 N   0  0  0  0  0  1  0  0  0  0  0  0
  186.9350  178.6210  148.1810 O   0  0  0  0  0  0  0  0  0  0  0  0
  187.5910  178.0840  147.3030 C   0  0  0  0  0  0  0  0  0  0  0  0
  188.9240  177.8820  147.4830 F   0  0  0  0  0  0  0  0  0  0  0  0
  193.1270  173.9260  141.7790 O   0  0  0  0  0  0  0  0  0  0  0  0
  194.0730  173.4090  140.8900 C   0  0  0  0  0  0  0  0  0  0  0  0
  194.0130  173.7410  139.6710 O   0  0  0  0  0  0  0  0  0  0  0  0
  195.1790  172.5270  141.3910 C   0  0  1  0  0  3  0  0  0  0  0  0
  195.2160  172.5100  142.9120 C   0  0  0  0  0  1  0  0  0  0  0  0
  194.0870  170.2280  141.2170 N   0  0  0  0  0  1  0  0  0  0  0  0
  195.0910  171.1490  140.7970 C   0  0  0  0  0  0  0  0  0  0  0  0
  195.8300  170.8470  139.8200 O   0  0  0  0  0  0  0  0  0  0  0  0
  188.8580  172.2510  141.5980 C   0  0  0  0  0  2  0  0  0  0  0  0
  189.7060  171.4900  142.6080 C   0  0  0  0  0  2  0  0  0  0  0  0
  189.6150  172.1350  143.9100 N   0  0  0  0  0  2  0  0  0  0  0  0
  190.9250  172.0210  144.5260 C   0  0  0  0  0  2  0  0  0  0  0  0
  192.1320  175.8040  146.1600 C   0  0  0  0  0  3  0  0  0  0  0  0
  190.7740  175.4640  146.1190 C   0  0  0  0  0  3  0  0  0  0  0  0
  192.6940  173.6760  145.1430 C   0  0  0  0  0  3  0  0  0  0  0  0
  190.3750  174.2300  145.5880 C   0  0  0  0  0  3  0  0  0  0  0  0
  191.3370  173.3330  145.1030 C   0  0  0  0  0  0  0  0  0  0  0  0
  193.0940  174.9120  145.6720 C   0  0  0  0  0  0  0  0  0  0  0  0
  194.9580  176.3930  144.9890 C   0  0  0  0  0  0  0  0  0  0  0  0
  195.3610  174.4150  146.2990 O   0  0  0  0  0  1  0  0  0  0  0  0
  194.4790  175.2610  145.7180 N   0  0  0  0  0  0  0  0  0  0  0  0
  194.8040  177.5480  145.4720 O   0  0  0  0  0  0  0  0  0  0  0  0
  196.8610  175.8000  143.5760 C   0  0  0  0  0  3  0  0  0  0  0  0
  197.5420  175.6350  142.2450 C   0  0  0  0  0  2  0  0  0  0  0  0
  195.5910  176.2160  143.6700 C   0  0  0  0  0  0  0  0  0  0  0  0
  195.4850  176.6380  141.2780 C   0  0  0  0  0  3  0  0  0  0  0  0
  196.8540  176.3460  141.2080 O   0  0  0  0  0  0  0  0  0  0  0  0
  194.8480  176.5740  142.4460 C   0  0  0  0  0  3  0  0  0  0  0  0
  1 10  2  0  0  0  0
  2  8  1  0  0  0  0
  2  3  1  0  0  0  0
  4  7  1  0  0  0  0
  4  9  1  0  0  0  0
  4 33  1  1  0  0  0
  5 25  1  0  0  0  0
  5  6  1  0  0  0  0
  6  1  1  0  0  0  0
  7  5  2  0  0  0  0
  8 11  1  6  0  0  0
  8  3  1  0  0  0  0
  8 10  1  0  0  0  0
  9 11  1  0  0  0  0
  9  6  2  0  0  0  0
 12  3  1  0  0  0  0
 12 13  1  0  0  0  0
 13 14  1  0  0  0  0
 15 14  1  6  0  0  0
 15 17  1  0  0  0  0
 15 16  1  0  0  0  0
 16 18  1  6  0  0  0
 17 16  1  0  0  0  0
 18 19  2  0  0  0  0
 20 21  1  1  0  0  0
 20 18  1  0  0  0  0
 20 23  1  0  0  0  0
 23 24  1  0  0  0  0
 23 22  2  0  0  0  0
 26 28  1  0  0  0  0
 26 25  1  0  0  0  0
 27 26  2  0  0  0  0
 28 29  1  1  0  0  0
 31 30  1  0  0  0  0
 31 28  1  0  0  0  0
 32 31  2  0  0  0  0
 33 34  1  0  0  0  0
 34 35  1  0  0  0  0
 35 36  1  0  0  0  0
 36 41  1  0  0  0  0
 38 37  1  0  0  0  0
 39 42  1  0  0  0  0
 40 38  2  0  0  0  0
 41 39  2  0  0  0  0
 41 40  1  0  0  0  0
 42 45  1  0  0  0  0
 42 37  2  0  0  0  0
 43 46  2  0  0  0  0
 43 45  1  0  0  0  0
 45 44  1  0  0  0  0
 47 49  2  0  0  0  0
 48 47  1  0  0  0  0
 49 43  1  0  0  0  0
 50 52  2  0  0  0  0
 51 50  1  0  0  0  0
 51 48  1  0  0  0  0
 52 49  1  0  0  0  0
M  END
>  <MODEL>
5

>  <REMARK>
 VINA RESULT:      -6.6      2.470      4.517
  Name = 
  18 active torsions:
  status: ('A' for Active; 'I' for Inactive)
    1  A    between atoms: S_1  and  N_11
    2  A    between atoms: S_1  and  O_21
    3  A    between atoms: C_3  and  O_47
    4  A    between atoms: C_9  and  C_32
    5  A    between atoms: C_12  and  C_38
    6  A    between atoms: C_13  and  C_18
    7  A    between atoms: C_14  and  O_30
    8  A    between atoms: C_17  and  C_18
    9  A    between atoms: C_17  and  C_25
   10  A    between atoms: C_19  and  C_34
   11  A    between atoms: C_19  and  C_43
   12  A    between atoms: O_21  and  O_47
   13  A    between atoms: C_22  and  C_52
   14  A    between atoms: N_29  and  C_40
   15  A    between atoms: O_30  and  C_43
   16  A    between atoms: C_38  and  C_41
   17  A    between atoms: C_41  and  N_49
   18  A    between atoms: N_49  and  C_52
                            x       y       z     vdW  Elec       q    Type
                         _______ _______ _______ _____ _____    ______ ____

>  <TORSDO>
F 18

$$$$
=
 OpenBabel11042414303D

 52 57  0  0  1  0  0  0  0  0999 V2000
  189.3950  171.9290  142.0940 C   0  0  0  0  0  3  0  0  0  0  0  0
  188.3090  174.9310  143.2960 O   0  0  0  0  0  0  0  0  0  0  0  0
  187.6220  175.2000  142.1180 N   0  0  0  0  0  0  0  0  0  0  0  0
  192.6220  173.6960  141.5330 C   0  0  2  0  0  3  0  0  0  0  0  0
  191.9730  171.5650  141.8230 C   0  0  0  0  0  0  0  0  0  0  0  0
  190.7860  172.3750  141.9590 C   0  0  0  0  0  0  0  0  0  0  0  0
  193.0140  172.2880  141.5750 N   0  0  0  0  0  0  0  0  0  0  0  0
  188.7590  174.3030  142.1820 C   0  0  2  0  0  0  0  0  0  0  0  0
  191.1460  173.6370  141.7920 C   0  0  0  0  0  0  0  0  0  0  0  0
  188.4170  172.8380  142.1880 C   0  0  0  0  0  3  0  0  0  0  0  0
  190.1650  174.7770  141.7310 C   0  0  0  0  0  2  0  0  0  0  0  0
  188.0510  176.8640  141.6790 S   0  0  0  0  0  0  0  0  0  0  0  0
  186.4060  177.3080  141.4680 O   0  0  0  0  0  0  0  0  0  0  0  0
  185.8250  177.0070  142.6120 O   0  0  0  0  0  0  0  0  0  0  0  0
  184.8650  178.0060  142.8130 C   0  0  1  0  0  3  0  0  0  0  0  0
  184.5890  178.3210  144.2520 C   0  0  2  0  0  3  0  0  0  0  0  0
  185.4670  179.0970  143.4670 O   0  0  0  0  0  0  0  0  0  0  0  0
  185.3750  177.6050  145.3310 C   0  0  0  0  0  0  0  0  0  0  0  0
  185.2030  176.4220  145.5840 O   0  0  0  0  0  0  0  0  0  0  0  0
  186.3570  178.4040  146.1320 C   0  0  2  0  0  3  0  0  0  0  0  0
  187.4640  177.5650  146.5620 N   0  0  0  0  0  1  0  0  0  0  0  0
  186.2530  179.9560  147.8990 O   0  0  0  0  0  0  0  0  0  0  0  0
  185.6970  179.0400  147.3160 C   0  0  0  0  0  0  0  0  0  0  0  0
  184.4770  178.6130  147.7370 F   0  0  0  0  0  0  0  0  0  0  0  0
  192.0200  170.1790  141.9960 O   0  0  0  0  0  0  0  0  0  0  0  0
  192.9860  169.5280  142.7680 C   0  0  0  0  0  0  0  0  0  0  0  0
  193.9380  168.9320  142.1860 O   0  0  0  0  0  0  0  0  0  0  0  0
  192.9260  169.5930  144.2670 C   0  0  1  0  0  3  0  0  0  0  0  0
  192.9770  168.1990  144.8760 C   0  0  0  0  0  1  0  0  0  0  0  0
  193.7490  171.9030  144.9730 N   0  0  0  0  0  1  0  0  0  0  0  0
  193.9870  170.5060  144.8170 C   0  0  0  0  0  0  0  0  0  0  0  0
  195.0550  170.0100  145.2720 O   0  0  0  0  0  0  0  0  0  0  0  0
  192.9140  174.2900  140.1630 C   0  0  0  0  0  2  0  0  0  0  0  0
  194.4190  174.3720  139.9420 C   0  0  0  0  0  2  0  0  0  0  0  0
  194.8970  175.6970  140.3080 N   0  0  0  0  0  2  0  0  0  0  0  0
  196.1410  175.5080  141.0330 C   0  0  0  0  0  2  0  0  0  0  0  0
  195.3380  175.2880  145.2460 C   0  0  0  0  0  3  0  0  0  0  0  0
  196.4490  174.6230  144.7120 C   0  0  0  0  0  3  0  0  0  0  0  0
  194.7620  176.0960  143.0330 C   0  0  0  0  0  3  0  0  0  0  0  0
  196.7170  174.6930  143.3390 C   0  0  0  0  0  3  0  0  0  0  0  0
  195.8740  175.4340  142.4990 C   0  0  0  0  0  0  0  0  0  0  0  0
  194.4920  176.0250  144.4080 C   0  0  0  0  0  0  0  0  0  0  0  0
  192.8750  176.3570  146.2540 C   0  0  0  0  0  0  0  0  0  0  0  0
  192.6420  177.5410  144.1730 O   0  0  0  0  0  1  0  0  0  0  0  0
  193.3610  176.7040  144.9560 N   0  0  0  0  0  0  0  0  0  0  0  0
  193.4570  176.8170  147.2740 O   0  0  0  0  0  0  0  0  0  0  0  0
  191.4610  174.5320  145.4550 C   0  0  0  0  0  3  0  0  0  0  0  0
  190.2840  173.6020  145.5650 C   0  0  0  0  0  2  0  0  0  0  0  0
  191.7300  175.4420  146.4010 C   0  0  0  0  0  0  0  0  0  0  0  0
  189.6690  174.9180  147.5800 C   0  0  0  0  0  3  0  0  0  0  0  0
  189.3210  174.0780  146.5130 O   0  0  0  0  0  0  0  0  0  0  0  0
  190.8250  175.5790  147.5590 C   0  0  0  0  0  3  0  0  0  0  0  0
  1 10  2  0  0  0  0
  3  8  1  0  0  0  0
  3  2  1  0  0  0  0
  4 33  1  6  0  0  0
  4  7  1  0  0  0  0
  4  9  1  0  0  0  0
  5  6  1  0  0  0  0
  5 25  1  0  0  0  0
  6  1  1  0  0  0  0
  7  5  2  0  0  0  0
  8 11  1  6  0  0  0
  8 10  1  0  0  0  0
  8  2  1  0  0  0  0
  9  6  2  0  0  0  0
 11  9  1  0  0  0  0
 12  3  1  0  0  0  0
 13 12  1  0  0  0  0
 13 14  1  0  0  0  0
 15 14  1  1  0  0  0
 15 17  1  0  0  0  0
 15 16  1  0  0  0  0
 16 18  1  1  0  0  0
 17 16  1  0  0  0  0
 18 19  2  0  0  0  0
 18 20  1  0  0  0  0
 20 21  1  1  0  0  0
 20 23  1  0  0  0  0
 23 24  1  0  0  0  0
 23 22  2  0  0  0  0
 25 26  1  0  0  0  0
 26 28  1  0  0  0  0
 27 26  2  0  0  0  0
 28 31  1  0  0  0  0
 28 29  1  1  0  0  0
 31 30  1  0  0  0  0
 31 32  2  0  0  0  0
 34 33  1  0  0  0  0
 34 35  1  0  0  0  0
 35 36  1  0  0  0  0
 36 41  1  0  0  0  0
 38 37  1  0  0  0  0
 39 42  1  0  0  0  0
 40 38  2  0  0  0  0
 41 39  2  0  0  0  0
 41 40  1  0  0  0  0
 42 45  1  0  0  0  0
 42 37  2  0  0  0  0
 43 49  1  0  0  0  0
 43 46  2  0  0  0  0
 44 45  1  0  0  0  0
 45 43  1  0  0  0  0
 47 48  1  0  0  0  0
 47 49  2  0  0  0  0
 48 51  1  0  0  0  0
 49 52  1  0  0  0  0
 51 50  1  0  0  0  0
 52 50  2  0  0  0  0
M  END
>  <MODEL>
6

>  <REMARK>
 VINA RESULT:      -6.4      1.778      2.217
  Name = 
  18 active torsions:
  status: ('A' for Active; 'I' for Inactive)
    1  A    between atoms: S_1  and  N_11
    2  A    between atoms: S_1  and  O_21
    3  A    between atoms: C_3  and  O_47
    4  A    between atoms: C_9  and  C_32
    5  A    between atoms: C_12  and  C_38
    6  A    between atoms: C_13  and  C_18
    7  A    between atoms: C_14  and  O_30
    8  A    between atoms: C_17  and  C_18
    9  A    between atoms: C_17  and  C_25
   10  A    between atoms: C_19  and  C_34
   11  A    between atoms: C_19  and  C_43
   12  A    between atoms: O_21  and  O_47
   13  A    between atoms: C_22  and  C_52
   14  A    between atoms: N_29  and  C_40
   15  A    between atoms: O_30  and  C_43
   16  A    between atoms: C_38  and  C_41
   17  A    between atoms: C_41  and  N_49
   18  A    between atoms: N_49  and  C_52
                            x       y       z     vdW  Elec       q    Type
                         _______ _______ _______ _____ _____    ______ ____

>  <TORSDO>
F 18

$$$$
=
 OpenBabel11042414303D

 52 57  0  0  1  0  0  0  0  0999 V2000
  190.1180  171.8620  142.7790 C   0  0  0  0  0  3  0  0  0  0  0  0
  188.3320  174.6450  143.6140 O   0  0  0  0  0  0  0  0  0  0  0  0
  187.7410  174.6920  142.3560 N   0  0  0  0  0  0  0  0  0  0  0  0
  192.9740  174.2170  142.3860 C   0  0  2  0  0  3  0  0  0  0  0  0
  192.7320  172.0200  142.7910 C   0  0  0  0  0  0  0  0  0  0  0  0
  191.4000  172.5750  142.7420 C   0  0  0  0  0  0  0  0  0  0  0  0
  193.6290  172.9250  142.5840 N   0  0  0  0  0  0  0  0  0  0  0  0
  189.0190  174.0540  142.6060 C   0  0  2  0  0  0  0  0  0  0  0  0
  191.5190  173.8710  142.5060 C   0  0  0  0  0  0  0  0  0  0  0  0
  188.9750  172.5540  142.7020 C   0  0  0  0  0  3  0  0  0  0  0  0
  190.3440  174.7780  142.2540 C   0  0  0  0  0  2  0  0  0  0  0  0
  187.8780  176.3780  141.8220 S   0  0  0  0  0  0  0  0  0  0  0  0
  186.2030  176.6660  142.0690 O   0  0  0  0  0  0  0  0  0  0  0  0
  186.0930  176.9430  143.3530 O   0  0  0  0  0  0  0  0  0  0  0  0
  185.5460  178.2300  143.4090 C   0  0  1  0  0  3  0  0  0  0  0  0
  185.1120  178.6620  144.7770 C   0  0  2  0  0  3  0  0  0  0  0  0
  186.3560  179.0380  144.2290 O   0  0  0  0  0  0  0  0  0  0  0  0
  185.3380  177.7340  145.9530 C   0  0  0  0  0  0  0  0  0  0  0  0
  184.4680  176.9810  146.3640 O   0  0  0  0  0  0  0  0  0  0  0  0
  186.6640  177.7910  146.6480 C   0  0  2  0  0  3  0  0  0  0  0  0
  187.0100  176.4860  147.1910 N   0  0  0  0  0  1  0  0  0  0  0  0
  185.6920  179.5510  147.8730 O   0  0  0  0  0  0  0  0  0  0  0  0
  186.6600  178.8210  147.7350 C   0  0  0  0  0  0  0  0  0  0  0  0
  187.7200  178.9370  148.5780 F   0  0  0  0  0  0  0  0  0  0  0  0
  193.0330  170.6870  143.0840 O   0  0  0  0  0  0  0  0  0  0  0  0
  193.4940  169.7720  142.1340 C   0  0  0  0  0  0  0  0  0  0  0  0
  194.7180  169.4510  142.1350 O   0  0  0  0  0  0  0  0  0  0  0  0
  192.5360  169.1320  141.1710 C   0  0  1  0  0  3  0  0  0  0  0  0
  191.3330  168.5550  141.9030 C   0  0  0  0  0  1  0  0  0  0  0  0
  193.1330  170.7990  139.3350 N   0  0  0  0  0  1  0  0  0  0  0  0
  192.1460  170.0840  140.0740 C   0  0  0  0  0  0  0  0  0  0  0  0
  190.9390  170.1510  139.7120 O   0  0  0  0  0  0  0  0  0  0  0  0
  193.2930  174.7700  141.0060 C   0  0  0  0  0  2  0  0  0  0  0  0
  194.8010  174.8020  140.7950 C   0  0  0  0  0  2  0  0  0  0  0  0
  195.3280  176.0930  141.2130 N   0  0  0  0  0  2  0  0  0  0  0  0
  196.6030  175.8350  141.8580 C   0  0  0  0  0  2  0  0  0  0  0  0
  195.9430  174.5760  145.9100 C   0  0  0  0  0  3  0  0  0  0  0  0
  196.8950  173.9170  145.1220 C   0  0  0  0  0  3  0  0  0  0  0  0
  195.4330  176.0530  144.0560 C   0  0  0  0  0  3  0  0  0  0  0  0
  197.1150  174.3250  143.8000 C   0  0  0  0  0  3  0  0  0  0  0  0
  196.3860  175.3980  143.2680 C   0  0  0  0  0  0  0  0  0  0  0  0
  195.2100  175.6450  145.3790 C   0  0  0  0  0  0  0  0  0  0  0  0
  192.8760  175.8960  146.1680 C   0  0  0  0  0  0  0  0  0  0  0  0
  194.5820  177.4620  146.8230 O   0  0  0  0  0  1  0  0  0  0  0  0
  194.2420  176.3170  146.1860 N   0  0  0  0  0  0  0  0  0  0  0  0
  192.5310  174.8930  146.8500 O   0  0  0  0  0  0  0  0  0  0  0  0
  192.2850  177.2980  144.2570 C   0  0  0  0  0  3  0  0  0  0  0  0
  191.3050  178.0510  143.4000 C   0  0  0  0  0  2  0  0  0  0  0  0
  191.8900  176.6030  145.3320 C   0  0  0  0  0  0  0  0  0  0  0  0
  189.6150  177.4320  145.1120 C   0  0  0  0  0  3  0  0  0  0  0  0
  190.0640  178.2700  144.0830 O   0  0  0  0  0  0  0  0  0  0  0  0
  190.4680  176.6120  145.7250 C   0  0  0  0  0  3  0  0  0  0  0  0
  3  8  1  0  0  0  0
  3  2  1  0  0  0  0
  4 33  1  6  0  0  0
  4  9  1  0  0  0  0
  4  7  1  0  0  0  0
  5 25  1  0  0  0  0
  6  1  1  0  0  0  0
  6  5  1  0  0  0  0
  7  5  2  0  0  0  0
  8 11  1  6  0  0  0
  8 10  1  0  0  0  0
  8  2  1  0  0  0  0
  9  6  2  0  0  0  0
 10  1  2  0  0  0  0
 11  9  1  0  0  0  0
 12 13  1  0  0  0  0
 12  3  1  0  0  0  0
 13 14  1  0  0  0  0
 15 14  1  1  0  0  0
 15 17  1  0  0  0  0
 15 16  1  0  0  0  0
 16 18  1  1  0  0  0
 17 16  1  0  0  0  0
 18 19  2  0  0  0  0
 18 20  1  0  0  0  0
 20 21  1  1  0  0  0
 20 23  1  0  0  0  0
 23 22  2  0  0  0  0
 23 24  1  0  0  0  0
 26 27  2  0  0  0  0
 26 25  1  0  0  0  0
 28 29  1  1  0  0  0
 28 26  1  0  0  0  0
 30 31  1  0  0  0  0
 31 28  1  0  0  0  0
 32 31  2  0  0  0  0
 34 33  1  0  0  0  0
 34 35  1  0  0  0  0
 35 36  1  0  0  0  0
 36 41  1  0  0  0  0
 38 37  2  0  0  0  0
 39 42  2  0  0  0  0
 40 38  1  0  0  0  0
 41 40  2  0  0  0  0
 41 39  1  0  0  0  0
 42 37  1  0  0  0  0
 42 45  1  0  0  0  0
 43 45  1  0  0  0  0
 43 46  2  0  0  0  0
 45 44  1  0  0  0  0
 47 49  2  0  0  0  0
 48 51  1  0  0  0  0
 48 47  1  0  0  0  0
 49 52  1  0  0  0  0
 49 43  1  0  0  0  0
 50 52  2  0  0  0  0
 51 50  1  0  0  0  0
M  END
>  <MODEL>
7

>  <REMARK>
 VINA RESULT:      -6.3      1.705      2.448
  Name = 
  18 active torsions:
  status: ('A' for Active; 'I' for Inactive)
    1  A    between atoms: S_1  and  N_11
    2  A    between atoms: S_1  and  O_21
    3  A    between atoms: C_3  and  O_47
    4  A    between atoms: C_9  and  C_32
    5  A    between atoms: C_12  and  C_38
    6  A    between atoms: C_13  and  C_18
    7  A    between atoms: C_14  and  O_30
    8  A    between atoms: C_17  and  C_18
    9  A    between atoms: C_17  and  C_25
   10  A    between atoms: C_19  and  C_34
   11  A    between atoms: C_19  and  C_43
   12  A    between atoms: O_21  and  O_47
   13  A    between atoms: C_22  and  C_52
   14  A    between atoms: N_29  and  C_40
   15  A    between atoms: O_30  and  C_43
   16  A    between atoms: C_38  and  C_41
   17  A    between atoms: C_41  and  N_49
   18  A    between atoms: N_49  and  C_52
                            x       y       z     vdW  Elec       q    Type
                         _______ _______ _______ _____ _____    ______ ____

>  <TORSDO>
F 18

$$$$
=
 OpenBabel11042414303D

 52 57  0  0  1  0  0  0  0  0999 V2000
  193.6960  176.1170  143.3720 C   0  0  0  0  0  3  0  0  0  0  0  0
  195.8530  175.1970  140.8950 O   0  0  0  0  0  0  0  0  0  0  0  0
  194.9020  175.4590  139.9140 N   0  0  0  0  0  0  0  0  0  0  0  0
  193.2720  172.4580  143.9070 C   0  0  2  0  0  3  0  0  0  0  0  0
  193.0050  174.3150  145.1420 C   0  0  0  0  0  0  0  0  0  0  0  0
  193.5220  174.7460  143.8640 C   0  0  0  0  0  0  0  0  0  0  0  0
  192.8500  173.0340  145.1830 N   0  0  0  0  0  0  0  0  0  0  0  0
  194.5560  175.1400  141.2860 C   0  0  2  0  0  0  0  0  0  0  0  0
  193.6880  173.6650  143.1200 C   0  0  0  0  0  0  0  0  0  0  0  0
  194.1760  176.3190  142.1390 C   0  0  0  0  0  3  0  0  0  0  0  0
  194.0880  173.7120  141.6700 C   0  0  0  0  0  2  0  0  0  0  0  0
  194.9200  174.0510  138.8370 S   0  0  0  0  0  0  0  0  0  0  0  0
  193.7800  174.7650  137.7690 O   0  0  0  0  0  0  0  0  0  0  0  0
  193.3180  173.7630  137.0480 O   0  0  0  0  0  0  0  0  0  0  0  0
  192.0020  174.1140  136.7270 C   0  0  1  0  0  3  0  0  0  0  0  0
  191.0160  172.9890  136.8250 C   0  0  2  0  0  3  0  0  0  0  0  0
  191.1880  173.9320  137.8600 O   0  0  0  0  0  0  0  0  0  0  0  0
  191.4900  171.6300  137.2970 C   0  0  0  0  0  0  0  0  0  0  0  0
  191.9150  170.7850  136.5240 O   0  0  0  0  0  0  0  0  0  0  0  0
  191.3820  171.3170  138.7580 C   0  0  2  0  0  3  0  0  0  0  0  0
  192.6970  171.0490  139.3190 N   0  0  0  0  0  1  0  0  0  0  0  0
  190.7670  169.3100  139.8250 O   0  0  0  0  0  0  0  0  0  0  0  0
  190.4700  170.1520  138.9940 C   0  0  0  0  0  0  0  0  0  0  0  0
  189.3070  170.0360  138.3000 F   0  0  0  0  0  0  0  0  0  0  0  0
  192.7570  175.1570  146.2300 O   0  0  0  0  0  0  0  0  0  0  0  0
  191.5530  175.1700  146.9390 C   0  0  0  0  0  0  0  0  0  0  0  0
  191.5670  174.9120  148.1770 O   0  0  0  0  0  0  0  0  0  0  0  0
  190.2740  175.5500  146.2510 C   0  0  1  0  0  3  0  0  0  0  0  0
  189.0720  174.9450  146.9610 C   0  0  0  0  0  1  0  0  0  0  0  0
  190.4710  177.6720  144.8470 N   0  0  0  0  0  1  0  0  0  0  0  0
  190.1630  177.0410  146.0880 C   0  0  0  0  0  0  0  0  0  0  0  0
  189.6630  177.7300  147.0200 O   0  0  0  0  0  0  0  0  0  0  0  0
  192.1110  171.7400  143.2360 C   0  0  0  0  0  2  0  0  0  0  0  0
  190.9690  171.5580  144.2270 C   0  0  0  0  0  2  0  0  0  0  0  0
  189.7080  171.9150  143.5950 N   0  0  0  0  0  2  0  0  0  0  0  0
  189.6360  173.3660  143.5930 C   0  0  0  0  0  2  0  0  0  0  0  0
  187.9980  174.7880  139.8870 C   0  0  0  0  0  3  0  0  0  0  0  0
  188.5320  173.4950  139.9620 C   0  0  0  0  0  3  0  0  0  0  0  0
  188.5290  175.1410  142.2260 C   0  0  0  0  0  3  0  0  0  0  0  0
  189.0660  173.0260  141.1690 C   0  0  0  0  0  3  0  0  0  0  0  0
  189.0610  173.8490  142.3040 C   0  0  0  0  0  0  0  0  0  0  0  0
  187.9960  175.6130  141.0180 C   0  0  0  0  0  0  0  0  0  0  0  0
  187.7480  177.8950  141.9500 C   0  0  0  0  0  0  0  0  0  0  0  0
  186.5040  177.2060  140.0090 O   0  0  0  0  0  1  0  0  0  0  0  0
  187.4480  176.9300  140.9380 N   0  0  0  0  0  0  0  0  0  0  0  0
  188.8480  178.5100  141.9090 O   0  0  0  0  0  0  0  0  0  0  0  0
  185.7890  179.0070  142.8970 C   0  0  0  0  0  3  0  0  0  0  0  0
  184.8200  179.2960  144.0100 C   0  0  0  0  0  2  0  0  0  0  0  0
  186.7990  178.1390  143.0500 C   0  0  0  0  0  0  0  0  0  0  0  0
  186.2970  177.8770  145.4150 C   0  0  0  0  0  3  0  0  0  0  0  0
  185.3410  178.8930  145.2820 O   0  0  0  0  0  0  0  0  0  0  0  0
  187.0070  177.4860  144.3570 C   0  0  0  0  0  3  0  0  0  0  0  0
  1  6  1  0  0  0  0
  2  8  1  0  0  0  0
  3  2  1  0  0  0  0
  3  8  1  0  0  0  0
  4 33  1  6  0  0  0
  4  7  1  0  0  0  0
  5  7  2  0  0  0  0
  5 25  1  0  0  0  0
  6  5  1  0  0  0  0
  8 11  1  1  0  0  0
  8 10  1  0  0  0  0
  9  6  2  0  0  0  0
  9  4  1  0  0  0  0
 10  1  2  0  0  0  0
 11  9  1  0  0  0  0
 12  3  1  0  0  0  0
 13 12  1  0  0  0  0
 14 13  1  0  0  0  0
 15 16  1  0  0  0  0
 15 14  1  1  0  0  0
 15 17  1  0  0  0  0
 16 18  1  1  0  0  0
 16 17  1  0  0  0  0
 18 20  1  0  0  0  0
 19 18  2  0  0  0  0
 20 23  1  0  0  0  0
 20 21  1  6  0  0  0
 23 22  2  0  0  0  0
 24 23  1  0  0  0  0
 25 26  1  0  0  0  0
 26 27  2  0  0  0  0
 28 26  1  0  0  0  0
 28 29  1  1  0  0  0
 30 31  1  0  0  0  0
 31 28  1  0  0  0  0
 31 32  2  0  0  0  0
 33 34  1  0  0  0  0
 35 34  1  0  0  0  0
 36 35  1  0  0  0  0
 37 38  2  0  0  0  0
 37 42  1  0  0  0  0
 38 40  1  0  0  0  0
 39 41  1  0  0  0  0
 40 41  2  0  0  0  0
 41 36  1  0  0  0  0
 42 39  2  0  0  0  0
 43 49  1  0  0  0  0
 44 45  1  0  0  0  0
 45 42  1  0  0  0  0
 45 43  1  0  0  0  0
 46 43  2  0  0  0  0
 47 49  2  0  0  0  0
 47 48  1  0  0  0  0
 48 51  1  0  0  0  0
 49 52  1  0  0  0  0
 51 50  1  0  0  0  0
 52 50  2  0  0  0  0
M  END
>  <MODEL>
8

>  <REMARK>
 VINA RESULT:      -6.2      3.475      8.137
  Name = 
  18 active torsions:
  status: ('A' for Active; 'I' for Inactive)
    1  A    between atoms: S_1  and  N_11
    2  A    between atoms: S_1  and  O_21
    3  A    between atoms: C_3  and  O_47
    4  A    between atoms: C_9  and  C_32
    5  A    between atoms: C_12  and  C_38
    6  A    between atoms: C_13  and  C_18
    7  A    between atoms: C_14  and  O_30
    8  A    between atoms: C_17  and  C_18
    9  A    between atoms: C_17  and  C_25
   10  A    between atoms: C_19  and  C_34
   11  A    between atoms: C_19  and  C_43
   12  A    between atoms: O_21  and  O_47
   13  A    between atoms: C_22  and  C_52
   14  A    between atoms: N_29  and  C_40
   15  A    between atoms: O_30  and  C_43
   16  A    between atoms: C_38  and  C_41
   17  A    between atoms: C_41  and  N_49
   18  A    between atoms: N_49  and  C_52
                            x       y       z     vdW  Elec       q    Type
                         _______ _______ _______ _____ _____    ______ ____

>  <TORSDO>
F 18

$$$$
=
 OpenBabel11042414303D

 52 57  0  0  1  0  0  0  0  0999 V2000
  190.2390  174.0610  140.9180 C   0  0  0  0  0  3  0  0  0  0  0  0
  190.2440  175.2320  144.1220 O   0  0  0  0  0  0  0  0  0  0  0  0
  189.8330  176.4940  143.7040 N   0  0  0  0  0  0  0  0  0  0  0  0
  193.9330  174.4730  141.1130 C   0  0  2  0  0  3  0  0  0  0  0  0
  192.5050  173.2320  139.9010 C   0  0  0  0  0  0  0  0  0  0  0  0
  191.7020  173.9760  140.8420 C   0  0  0  0  0  0  0  0  0  0  0  0
  193.7610  173.5040  140.0310 N   0  0  0  0  0  0  0  0  0  0  0  0
  190.5370  175.5650  142.8400 C   0  0  2  0  0  0  0  0  0  0  0  0
  192.5250  174.7140  141.5690 C   0  0  0  0  0  0  0  0  0  0  0  0
  189.6710  174.8250  141.8580 C   0  0  0  0  0  3  0  0  0  0  0  0
  192.0560  175.7300  142.5760 C   0  0  0  0  0  2  0  0  0  0  0  0
  190.8990  177.6460  144.5300 S   0  0  0  0  0  0  0  0  0  0  0  0
  190.2300  177.2710  146.0670 O   0  0  0  0  0  0  0  0  0  0  0  0
  188.9530  177.5790  145.9650 O   0  0  0  0  0  0  0  0  0  0  0  0
  188.2840  176.6650  146.7860 C   0  0  1  0  0  3  0  0  0  0  0  0
  186.8450  176.9960  147.0420 C   0  0  2  0  0  3  0  0  0  0  0  0
  187.2400  176.0690  146.0560 O   0  0  0  0  0  0  0  0  0  0  0  0
  186.2350  178.2120  146.3750 C   0  0  0  0  0  0  0  0  0  0  0  0
  186.2140  179.3080  146.9160 O   0  0  0  0  0  0  0  0  0  0  0  0
  185.6040  178.0330  145.0290 C   0  0  2  0  0  3  0  0  0  0  0  0
  186.4320  178.6340  143.9950 N   0  0  0  0  0  1  0  0  0  0  0  0
  183.7830  179.0670  143.9520 O   0  0  0  0  0  0  0  0  0  0  0  0
  184.2260  178.6200  144.9970 C   0  0  0  0  0  0  0  0  0  0  0  0
  183.4610  178.6430  146.1200 F   0  0  0  0  0  0  0  0  0  0  0  0
  192.0100  172.2890  138.9970 O   0  0  0  0  0  0  0  0  0  0  0  0
  191.4230  172.6230  137.7730 C   0  0  0  0  0  0  0  0  0  0  0  0
  190.1780  172.4600  137.6260 O   0  0  0  0  0  0  0  0  0  0  0  0
  192.2520  173.2270  136.6770 C   0  0  1  0  0  3  0  0  0  0  0  0
  192.4300  174.7230  136.8890 C   0  0  0  0  0  1  0  0  0  0  0  0
  193.6030  171.1490  136.0750 N   0  0  0  0  0  1  0  0  0  0  0  0
  193.5600  172.5030  136.5180 C   0  0  0  0  0  0  0  0  0  0  0  0
  194.6410  173.1410  136.6510 O   0  0  0  0  0  0  0  0  0  0  0  0
  194.5650  175.7520  140.5870 C   0  0  0  0  0  2  0  0  0  0  0  0
  196.0060  175.8580  141.0700 C   0  0  0  0  0  2  0  0  0  0  0  0
  196.1020  176.8690  142.1120 N   0  0  0  0  0  2  0  0  0  0  0  0
  196.7270  176.2330  143.2580 C   0  0  0  0  0  2  0  0  0  0  0  0
  193.7610  174.3920  145.7600 C   0  0  0  0  0  3  0  0  0  0  0  0
  193.9740  175.7750  145.8330 C   0  0  0  0  0  3  0  0  0  0  0  0
  195.4760  174.2210  144.0550 C   0  0  0  0  0  3  0  0  0  0  0  0
  194.9390  176.3800  145.0180 C   0  0  0  0  0  3  0  0  0  0  0  0
  195.6890  175.6020  144.1250 C   0  0  0  0  0  0  0  0  0  0  0  0
  194.5110  173.6130  144.8720 C   0  0  0  0  0  0  0  0  0  0  0  0
  193.8860  171.6040  143.5650 C   0  0  0  0  0  0  0  0  0  0  0  0
  194.2860  171.4680  145.9340 O   0  0  0  0  0  1  0  0  0  0  0  0
  194.2910  172.2030  144.7980 N   0  0  0  0  0  0  0  0  0  0  0  0
  194.7530  171.3640  142.6820 O   0  0  0  0  0  0  0  0  0  0  0  0
  192.1030  170.5580  142.2620 C   0  0  0  0  0  3  0  0  0  0  0  0
  190.6600  170.2570  141.9660 C   0  0  0  0  0  2  0  0  0  0  0  0
  192.4650  171.3040  143.3150 C   0  0  0  0  0  0  0  0  0  0  0  0
  190.1450  171.8200  143.8270 C   0  0  0  0  0  3  0  0  0  0  0  0
  189.7810  171.1640  142.6430 O   0  0  0  0  0  0  0  0  0  0  0  0
  191.4270  171.8940  144.1820 C   0  0  0  0  0  3  0  0  0  0  0  0
  1 10  2  0  0  0  0
  3  2  1  0  0  0  0
  3 12  1  0  0  0  0
  4 33  1  6  0  0  0
  4  9  1  0  0  0  0
  5  7  2  0  0  0  0
  5  6  1  0  0  0  0
  6  1  1  0  0  0  0
  6  9  2  0  0  0  0
  7  4  1  0  0  0  0
  8 10  1  6  0  0  0
  8  3  1  0  0  0  0
  8  2  1  0  0  0  0
  9 11  1  0  0  0  0
 11  8  1  0  0  0  0
 12 13  1  0  0  0  0
 14 13  1  0  0  0  0
 15 14  1  6  0  0  0
 15 16  1  0  0  0  0
 16 18  1  6  0  0  0
 17 15  1  0  0  0  0
 17 16  1  0  0  0  0
 18 19  2  0  0  0  0
 20 21  1  6  0  0  0
 20 18  1  0  0  0  0
 22 23  2  0  0  0  0
 23 20  1  0  0  0  0
 23 24  1  0  0  0  0
 25  5  1  0  0  0  0
 26 25  1  0  0  0  0
 27 26  2  0  0  0  0
 28 29  1  1  0  0  0
 28 26  1  0  0  0  0
 30 31  1  0  0  0  0
 31 32  2  0  0  0  0
 31 28  1  0  0  0  0
 33 34  1  0  0  0  0
 34 35  1  0  0  0  0
 35 36  1  0  0  0  0
 36 41  1  0  0  0  0
 37 38  1  0  0  0  0
 39 41  2  0  0  0  0
 39 42  1  0  0  0  0
 40 38  2  0  0  0  0
 41 40  1  0  0  0  0
 42 37  2  0  0  0  0
 43 45  1  0  0  0  0
 45 42  1  0  0  0  0
 45 44  1  0  0  0  0
 46 43  2  0  0  0  0
 47 49  2  0  0  0  0
 48 47  1  0  0  0  0
 48 51  1  0  0  0  0
 49 43  1  0  0  0  0
 49 52  1  0  0  0  0
 50 52  2  0  0  0  0
 51 50  1  0  0  0  0
M  END
>  <MODEL>
9

>  <REMARK>
 VINA RESULT:      -6.1      2.769      4.896
  Name = 
  18 active torsions:
  status: ('A' for Active; 'I' for Inactive)
    1  A    between atoms: S_1  and  N_11
    2  A    between atoms: S_1  and  O_21
    3  A    between atoms: C_3  and  O_47
    4  A    between atoms: C_9  and  C_32
    5  A    between atoms: C_12  and  C_38
    6  A    between atoms: C_13  and  C_18
    7  A    between atoms: C_14  and  O_30
    8  A    between atoms: C_17  and  C_18
    9  A    between atoms: C_17  and  C_25
   10  A    between atoms: C_19  and  C_34
   11  A    between atoms: C_19  and  C_43
   12  A    between atoms: O_21  and  O_47
   13  A    between atoms: C_22  and  C_52
   14  A    between atoms: N_29  and  C_40
   15  A    between atoms: O_30  and  C_43
   16  A    between atoms: C_38  and  C_41
   17  A    between atoms: C_41  and  N_49
   18  A    between atoms: N_49  and  C_52
                            x       y       z     vdW  Elec       q    Type
                         _______ _______ _______ _____ _____    ______ ____

>  <TORSDO>
F 18

$$$$
