=
 OpenBabel11042417453D

 48 52  0  0  1  0  0  0  0  0999 V2000
  189.0790  176.2230  142.8650 C   0  0  2  0  0  3  0  0  0  0  0  0
  187.7190  175.8010  140.3420 C   0  0  0  0  0  3  0  0  0  0  0  0
  189.9860  175.9610  145.2650 N   0  0  0  0  0  2  0  0  0  0  0  0
  185.5600  178.8320  142.5920 O   0  0  0  0  0  0  0  0  0  0  0  0
  187.3720  177.7200  143.5720 N   0  0  0  0  0  0  0  0  0  0  0  0
  186.2250  178.5790  143.6310 C   0  0  0  0  0  0  0  0  0  0  0  0
  188.1250  177.3520  144.6890 N   0  0  0  0  0  0  0  0  0  0  0  0
  187.8720  176.9970  142.4560 C   0  0  0  0  0  0  0  0  0  0  0  0
  188.7840  174.4650  142.4940 S   0  0  0  0  0  0  0  0  0  0  0  0
  187.2320  176.8150  141.2970 C   0  0  0  0  0  3  0  0  0  0  0  0
  188.5010  174.7820  140.7260 C   0  0  0  0  0  0  0  0  0  0  0  0
  189.0490  176.5130  144.3380 C   0  0  0  0  0  0  0  0  0  0  0  0
  187.7620  174.6620  137.8410 N   0  0  0  0  0  2  0  0  0  0  0  0
  190.3410  172.2310  135.5450 N   0  0  0  0  0  0  0  0  0  0  0  0
  191.0210  171.7940  136.5630 C   0  0  0  0  0  0  0  0  0  0  0  0
  189.3580  173.0950  136.0360 N   0  0  0  0  0  2  0  0  0  0  0  0
  189.0080  173.9020  139.7140 N   0  0  0  0  0  2  0  0  0  0  0  0
  190.5730  172.3290  137.8080 N   0  0  0  0  0  2  0  0  0  0  0  0
  189.5090  173.1430  137.4210 N   0  0  0  0  0  0  0  0  0  0  0  0
  188.7450  173.9610  138.3060 C   0  0  0  0  0  0  0  0  0  0  0  0
  193.4150  168.3420  138.7950 C   0  0  0  0  0  1  0  0  0  0  0  0
  192.0110  169.5150  137.1280 C   0  0  1  0  0  3  0  0  0  0  0  0
  192.1950  170.8650  136.4450 C   0  0  2  0  0  3  0  0  0  0  0  0
  193.3840  171.4890  137.0210 N   0  0  0  0  0  2  0  0  0  0  0  0
  193.7500  170.7280  138.2170 C   0  0  0  0  0  2  0  0  0  0  0  0
  192.7190  169.6410  138.4470 C   0  0  2  0  0  3  0  0  0  0  0  0
  190.0990  169.0570  138.5440 O   0  0  0  0  0  1  0  0  0  0  0  0
  190.5820  168.9710  137.2350 C   0  0  0  0  0  2  0  0  0  0  0  0
  189.3250  175.0130  147.4160 C   0  0  0  0  0  1  0  0  0  0  0  0
  189.9220  176.2130  146.7010 C   0  0  1  0  0  3  0  0  0  0  0  0
  191.2280  176.8940  148.6020 O   0  0  0  0  0  1  0  0  0  0  0  0
  191.3080  176.5120  147.2600 C   0  0  1  0  0  3  0  0  0  0  0  0
  192.2080  175.2920  147.1080 C   0  0  0  0  0  2  0  0  0  0  0  0
  193.5090  175.6360  146.3980 C   0  0  0  0  0  2  0  0  0  0  0  0
  193.6130  174.9390  145.0400 C   0  0  2  0  0  3  0  0  0  0  0  0
  196.7970  172.4330  145.2300 O   0  0  0  0  0  0  0  0  0  0  0  0
  195.8240  174.5540  145.8870 C   0  0  0  0  0  2  0  0  0  0  0  0
  195.6200  171.7650  145.6090 C   0  0  0  0  0  2  0  0  0  0  0  0
  194.7690  174.0220  145.0140 N   0  0  0  0  0  0  0  0  0  0  0  0
  194.3850  172.6530  145.3980 C   0  0  0  0  0  2  0  0  0  0  0  0
  196.9390  173.5220  146.1100 C   0  0  0  0  0  2  0  0  0  0  0  0
  193.5640  175.9360  143.8980 C   0  0  0  0  0  0  0  0  0  0  0  0
  192.7950  176.9330  143.9460 O   0  0  0  0  0  0  0  0  0  0  0  0
  194.4630  175.8130  142.7970 N   0  0  0  0  0  1  0  0  0  0  0  0
  185.8290  179.2160  144.9220 C   0  0  0  0  0  2  0  0  0  0  0  0
  184.3850  178.8820  145.2660 C   0  0  0  0  0  2  0  0  0  0  0  0
  185.4940  178.5020  147.4670 C   0  0  0  0  0  1  0  0  0  0  0  0
  184.2830  178.1800  146.6120 C   0  0  0  0  0  2  0  0  0  0  0  0
  1  8  1  6  0  0  0
  1 12  1  0  0  0  0
  2 11  2  0  0  0  0
  2 10  1  0  0  0  0
  3 30  1  0  0  0  0
  4  6  2  0  0  0  0
  5  6  1  0  0  0  0
  5  7  1  0  0  0  0
  6 45  1  0  0  0  0
  8  5  1  0  0  0  0
  9  1  1  0  0  0  0
 10  8  2  0  0  0  0
 11  9  1  0  0  0  0
 12  7  2  0  0  0  0
 12  3  1  0  0  0  0
 13 20  2  0  0  0  0
 14 16  1  0  0  0  0
 14 15  2  0  0  0  0
 15 18  1  0  0  0  0
 16 19  1  0  0  0  0
 17 11  1  0  0  0  0
 19 18  1  0  0  0  0
 19 20  1  0  0  0  0
 20 17  1  0  0  0  0
 22 28  1  1  0  0  0
 22 26  1  0  0  0  0
 23 15  1  1  0  0  0
 23 24  1  0  0  0  0
 23 22  1  0  0  0  0
 24 25  1  0  0  0  0
 25 26  1  0  0  0  0
 26 21  1  6  0  0  0
 28 27  1  0  0  0  0
 30 32  1  0  0  0  0
 30 29  1  1  0  0  0
 32 31  1  1  0  0  0
 33 32  1  0  0  0  0
 34 33  1  0  0  0  0
 35 34  1  1  0  0  0
 36 38  1  0  0  0  0
 36 41  1  0  0  0  0
 37 41  1  0  0  0  0
 39 35  1  0  0  0  0
 39 40  1  0  0  0  0
 39 37  1  0  0  0  0
 40 38  1  0  0  0  0
 42 43  2  0  0  0  0
 42 35  1  0  0  0  0
 44 42  1  0  0  0  0
 45 46  1  0  0  0  0
 46 48  1  0  0  0  0
 48 47  1  0  0  0  0
M  END
>  <MODEL>
1

>  <REMARK>
 VINA RESULT:      -7.5      0.000      0.000
  Name = 
  13 active torsions:
  status: ('A' for Active; 'I' for Inactive)
    1  A    between atoms: C_5  and  C_14
    2  A    between atoms: C_7  and  C_10
    3  A    between atoms: C_9  and  C_26
    4  A    between atoms: C_9  and  C_39
    5  A    between atoms: N_13  and  C_40
    6  A    between atoms: C_17  and  C_32
    7  A    between atoms: N_19  and  C_30
    8  A    between atoms: C_26  and  C_27
    9  A    between atoms: C_30  and  C_36
   10  A    between atoms: C_32  and  C_34
   11  A    between atoms: C_32  and  N_42
   12  A    between atoms: C_34  and  C_43
   13  A    between atoms: C_36  and  C_43
                            x       y       z     vdW  Elec       q    Type
                         _______ _______ _______ _____ _____    ______ ____

>  <TORSDO>
F 13

$$$$
=
 OpenBabel11042417453D

 48 52  0  0  1  0  0  0  0  0999 V2000
  188.8060  176.6940  142.9240 C   0  0  2  0  0  3  0  0  0  0  0  0
  187.5910  176.0920  140.3640 C   0  0  0  0  0  3  0  0  0  0  0  0
  189.6280  176.5740  145.3660 N   0  0  0  0  0  2  0  0  0  0  0  0
  185.1160  179.0150  142.4230 O   0  0  0  0  0  0  0  0  0  0  0  0
  186.9630  178.0760  143.5120 N   0  0  0  0  0  0  0  0  0  0  0  0
  185.7520  178.8450  143.4960 C   0  0  0  0  0  0  0  0  0  0  0  0
  187.6930  177.8010  144.6700 N   0  0  0  0  0  0  0  0  0  0  0  0
  187.5630  177.3600  142.4410 C   0  0  0  0  0  0  0  0  0  0  0  0
  188.6600  174.9070  142.6010 S   0  0  0  0  0  0  0  0  0  0  0  0
  186.9880  177.0940  141.2650 C   0  0  0  0  0  3  0  0  0  0  0  0
  188.4300  175.1480  140.8130 C   0  0  0  0  0  0  0  0  0  0  0  0
  188.6920  177.0240  144.3840 C   0  0  0  0  0  0  0  0  0  0  0  0
  188.1930  172.1870  140.5790 N   0  0  0  0  0  2  0  0  0  0  0  0
  189.7910  170.6510  136.9840 N   0  0  0  0  0  0  0  0  0  0  0  0
  190.2770  171.7870  136.5810 C   0  0  0  0  0  0  0  0  0  0  0  0
  189.1800  170.8700  138.2230 N   0  0  0  0  0  2  0  0  0  0  0  0
  189.0440  174.2800  139.8510 N   0  0  0  0  0  2  0  0  0  0  0  0
  190.0270  172.8580  137.4910 N   0  0  0  0  0  2  0  0  0  0  0  0
  189.3350  172.2220  138.5220 N   0  0  0  0  0  0  0  0  0  0  0  0
  188.7990  172.8790  139.6700 C   0  0  0  0  0  0  0  0  0  0  0  0
  194.0500  173.8150  134.5130 C   0  0  0  0  0  1  0  0  0  0  0  0
  192.4980  172.0880  135.3690 C   0  0  1  0  0  3  0  0  0  0  0  0
  190.9810  171.9750  135.2690 C   0  0  2  0  0  3  0  0  0  0  0  0
  190.4950  173.1850  134.6100 N   0  0  0  0  0  2  0  0  0  0  0  0
  191.5960  174.1480  134.5810 C   0  0  0  0  0  2  0  0  0  0  0  0
  192.7880  173.5610  135.3090 C   0  0  2  0  0  3  0  0  0  0  0  0
  193.5300  172.2510  137.5550 O   0  0  0  0  0  1  0  0  0  0  0  0
  193.1800  171.3630  136.5340 C   0  0  0  0  0  2  0  0  0  0  0  0
  188.1500  176.3430  147.2960 C   0  0  0  0  0  1  0  0  0  0  0  0
  189.4830  176.8640  146.7890 C   0  0  1  0  0  3  0  0  0  0  0  0
  190.5840  174.8420  147.4880 O   0  0  0  0  0  1  0  0  0  0  0  0
  190.6210  176.2370  147.5860 C   0  0  1  0  0  3  0  0  0  0  0  0
  191.9610  176.7680  147.0920 C   0  0  0  0  0  2  0  0  0  0  0  0
  192.7570  175.6970  146.3610 C   0  0  0  0  0  2  0  0  0  0  0  0
  193.2570  176.1940  145.0030 C   0  0  2  0  0  3  0  0  0  0  0  0
  192.6250  173.2940  142.2380 O   0  0  0  0  0  0  0  0  0  0  0  0
  192.2700  174.0640  144.5090 C   0  0  0  0  0  2  0  0  0  0  0  0
  192.2230  174.5460  141.7420 C   0  0  0  0  0  2  0  0  0  0  0  0
  193.1210  175.1380  143.9800 N   0  0  0  0  0  0  0  0  0  0  0  0
  192.5950  175.6750  142.7140 C   0  0  0  0  0  2  0  0  0  0  0  0
  191.8750  173.0700  143.4080 C   0  0  0  0  0  2  0  0  0  0  0  0
  194.6430  176.8030  145.1100 C   0  0  0  0  0  0  0  0  0  0  0  0
  194.8490  177.8110  145.8370 O   0  0  0  0  0  0  0  0  0  0  0  0
  195.7530  176.1800  144.4670 N   0  0  0  0  0  1  0  0  0  0  0  0
  185.2550  179.4890  144.7480 C   0  0  0  0  0  2  0  0  0  0  0  0
  184.1400  178.6610  145.3710 C   0  0  0  0  0  2  0  0  0  0  0  0
  185.6230  179.0920  147.3300 C   0  0  0  0  0  1  0  0  0  0  0  0
  184.4910  178.2390  146.7910 C   0  0  0  0  0  2  0  0  0  0  0  0
  1  8  1  6  0  0  0
  1 12  1  0  0  0  0
  2 11  2  0  0  0  0
  2 10  1  0  0  0  0
  3 30  1  0  0  0  0
  4  6  2  0  0  0  0
  5  7  1  0  0  0  0
  6  5  1  0  0  0  0
  6 45  1  0  0  0  0
  8  5  1  0  0  0  0
  9  1  1  0  0  0  0
 10  8  2  0  0  0  0
 11  9  1  0  0  0  0
 12  7  2  0  0  0  0
 12  3  1  0  0  0  0
 14 16  1  0  0  0  0
 15 14  2  0  0  0  0
 15 18  1  0  0  0  0
 16 19  1  0  0  0  0
 17 11  1  0  0  0  0
 18 19  1  0  0  0  0
 19 20  1  0  0  0  0
 20 17  1  0  0  0  0
 20 13  2  0  0  0  0
 22 28  1  1  0  0  0
 23 22  1  0  0  0  0
 23 15  1  1  0  0  0
 24 23  1  0  0  0  0
 25 24  1  0  0  0  0
 25 26  1  0  0  0  0
 26 21  1  6  0  0  0
 26 22  1  0  0  0  0
 28 27  1  0  0  0  0
 30 29  1  1  0  0  0
 30 32  1  0  0  0  0
 32 31  1  6  0  0  0
 33 32  1  0  0  0  0
 34 33  1  0  0  0  0
 35 42  1  0  0  0  0
 35 34  1  1  0  0  0
 36 41  1  0  0  0  0
 38 36  1  0  0  0  0
 38 40  1  0  0  0  0
 39 37  1  0  0  0  0
 39 35  1  0  0  0  0
 40 39  1  0  0  0  0
 41 37  1  0  0  0  0
 42 43  2  0  0  0  0
 44 42  1  0  0  0  0
 45 46  1  0  0  0  0
 46 48  1  0  0  0  0
 48 47  1  0  0  0  0
M  END
>  <MODEL>
2

>  <REMARK>
 VINA RESULT:      -7.2      2.059      2.795
  Name = 
  13 active torsions:
  status: ('A' for Active; 'I' for Inactive)
    1  A    between atoms: C_5  and  C_14
    2  A    between atoms: C_7  and  C_10
    3  A    between atoms: C_9  and  C_26
    4  A    between atoms: C_9  and  C_39
    5  A    between atoms: N_13  and  C_40
    6  A    between atoms: C_17  and  C_32
    7  A    between atoms: N_19  and  C_30
    8  A    between atoms: C_26  and  C_27
    9  A    between atoms: C_30  and  C_36
   10  A    between atoms: C_32  and  C_34
   11  A    between atoms: C_32  and  N_42
   12  A    between atoms: C_34  and  C_43
   13  A    between atoms: C_36  and  C_43
                            x       y       z     vdW  Elec       q    Type
                         _______ _______ _______ _____ _____    ______ ____

>  <TORSDO>
F 13

$$$$
=
 OpenBabel11042417453D

 48 52  0  0  1  0  0  0  0  0999 V2000
  188.8620  176.2630  143.0280 C   0  0  2  0  0  3  0  0  0  0  0  0
  187.5180  175.7130  140.5220 C   0  0  0  0  0  3  0  0  0  0  0  0
  189.9800  176.0370  145.3420 N   0  0  0  0  0  2  0  0  0  0  0  0
  184.6970  177.6340  143.2160 O   0  0  0  0  0  0  0  0  0  0  0  0
  186.8320  177.0530  143.9820 N   0  0  0  0  0  0  0  0  0  0  0  0
  185.4820  177.4910  144.1900 C   0  0  0  0  0  0  0  0  0  0  0  0
  187.7410  176.8210  145.0150 N   0  0  0  0  0  0  0  0  0  0  0  0
  187.4470  176.6540  142.7650 C   0  0  0  0  0  0  0  0  0  0  0  0
  189.1010  174.5540  142.4450 S   0  0  0  0  0  0  0  0  0  0  0  0
  186.8120  176.4080  141.6160 C   0  0  0  0  0  3  0  0  0  0  0  0
  188.6040  174.9590  140.7430 C   0  0  0  0  0  0  0  0  0  0  0  0
  188.8520  176.3620  144.5270 C   0  0  0  0  0  0  0  0  0  0  0  0
  188.0010  172.4330  139.2810 N   0  0  0  0  0  2  0  0  0  0  0  0
  190.1120  172.0520  135.6440 N   0  0  0  0  0  0  0  0  0  0  0  0
  190.8320  173.1200  135.8180 C   0  0  0  0  0  0  0  0  0  0  0  0
  189.2820  171.9180  136.7600 N   0  0  0  0  0  2  0  0  0  0  0  0
  189.2830  174.4040  139.6090 N   0  0  0  0  0  2  0  0  0  0  0  0
  190.5450  173.7970  137.0410 N   0  0  0  0  0  2  0  0  0  0  0  0
  189.5600  172.9880  137.6080 N   0  0  0  0  0  0  0  0  0  0  0  0
  188.8850  173.2660  138.8350 C   0  0  0  0  0  0  0  0  0  0  0  0
  195.2290  174.8660  135.3280 C   0  0  0  0  0  1  0  0  0  0  0  0
  193.2840  173.3460  135.1620 C   0  0  1  0  0  3  0  0  0  0  0  0
  191.8260  173.6280  134.8150 C   0  0  2  0  0  3  0  0  0  0  0  0
  191.6850  175.0730  134.6600 N   0  0  0  0  0  2  0  0  0  0  0  0
  192.8990  175.6980  135.1870 C   0  0  0  0  0  2  0  0  0  0  0  0
  193.8000  174.6230  135.7620 C   0  0  2  0  0  3  0  0  0  0  0  0
  194.8680  171.6160  135.7680 O   0  0  0  0  0  1  0  0  0  0  0  0
  193.5760  172.0970  136.0000 C   0  0  0  0  0  2  0  0  0  0  0  0
  189.4620  174.7700  147.3640 C   0  0  0  0  0  1  0  0  0  0  0  0
  189.9470  176.0940  146.8000 C   0  0  1  0  0  3  0  0  0  0  0  0
  191.2370  176.8020  148.7020 O   0  0  0  0  0  1  0  0  0  0  0  0
  191.3260  176.4230  147.3590 C   0  0  1  0  0  3  0  0  0  0  0  0
  192.2530  175.2240  147.2060 C   0  0  0  0  0  2  0  0  0  0  0  0
  193.5030  175.5750  146.4140 C   0  0  0  0  0  2  0  0  0  0  0  0
  193.5700  174.8070  145.0920 C   0  0  2  0  0  3  0  0  0  0  0  0
  196.8550  172.4330  145.2560 O   0  0  0  0  0  0  0  0  0  0  0  0
  195.8210  174.5360  145.8760 C   0  0  0  0  0  2  0  0  0  0  0  0
  195.7170  171.7340  145.6960 C   0  0  0  0  0  2  0  0  0  0  0  0
  194.7600  173.9350  145.0570 N   0  0  0  0  0  0  0  0  0  0  0  0
  194.4420  172.5660  145.4990 C   0  0  0  0  0  2  0  0  0  0  0  0
  196.9820  173.5560  146.0940 C   0  0  0  0  0  2  0  0  0  0  0  0
  193.4240  175.7370  143.9020 C   0  0  0  0  0  0  0  0  0  0  0  0
  193.7540  175.3590  142.7460 O   0  0  0  0  0  0  0  0  0  0  0  0
  192.8160  177.0170  144.0600 N   0  0  0  0  0  1  0  0  0  0  0  0
  185.0040  177.8210  145.5660 C   0  0  0  0  0  2  0  0  0  0  0  0
  185.4050  179.2380  145.9480 C   0  0  0  0  0  2  0  0  0  0  0  0
  186.0270  177.9020  147.9600 C   0  0  0  0  0  1  0  0  0  0  0  0
  185.9460  179.2970  147.3690 C   0  0  0  0  0  2  0  0  0  0  0  0
  1  9  1  1  0  0  0
  1 12  1  0  0  0  0
  2 11  2  0  0  0  0
  2 10  1  0  0  0  0
  3 30  1  0  0  0  0
  4  6  2  0  0  0  0
  5  6  1  0  0  0  0
  5  7  1  0  0  0  0
  6 45  1  0  0  0  0
  8  1  1  0  0  0  0
  8  5  1  0  0  0  0
 10  8  2  0  0  0  0
 11  9  1  0  0  0  0
 12  7  2  0  0  0  0
 12  3  1  0  0  0  0
 14 15  2  0  0  0  0
 14 16  1  0  0  0  0
 15 18  1  0  0  0  0
 16 19  1  0  0  0  0
 17 11  1  0  0  0  0
 18 19  1  0  0  0  0
 19 20  1  0  0  0  0
 20 13  2  0  0  0  0
 20 17  1  0  0  0  0
 22 26  1  0  0  0  0
 22 28  1  1  0  0  0
 23 22  1  0  0  0  0
 23 15  1  1  0  0  0
 24 23  1  0  0  0  0
 24 25  1  0  0  0  0
 25 26  1  0  0  0  0
 26 21  1  6  0  0  0
 27 28  1  0  0  0  0
 30 32  1  0  0  0  0
 30 29  1  1  0  0  0
 32 31  1  1  0  0  0
 33 32  1  0  0  0  0
 34 33  1  0  0  0  0
 35 34  1  1  0  0  0
 36 38  1  0  0  0  0
 36 41  1  0  0  0  0
 37 41  1  0  0  0  0
 39 35  1  0  0  0  0
 39 40  1  0  0  0  0
 39 37  1  0  0  0  0
 40 38  1  0  0  0  0
 42 44  1  0  0  0  0
 42 35  1  0  0  0  0
 43 42  2  0  0  0  0
 45 46  1  0  0  0  0
 46 48  1  0  0  0  0
 48 47  1  0  0  0  0
M  END
>  <MODEL>
3

>  <REMARK>
 VINA RESULT:      -7.1      1.849      2.409
  Name = 
  13 active torsions:
  status: ('A' for Active; 'I' for Inactive)
    1  A    between atoms: C_5  and  C_14
    2  A    between atoms: C_7  and  C_10
    3  A    between atoms: C_9  and  C_26
    4  A    between atoms: C_9  and  C_39
    5  A    between atoms: N_13  and  C_40
    6  A    between atoms: C_17  and  C_32
    7  A    between atoms: N_19  and  C_30
    8  A    between atoms: C_26  and  C_27
    9  A    between atoms: C_30  and  C_36
   10  A    between atoms: C_32  and  C_34
   11  A    between atoms: C_32  and  N_42
   12  A    between atoms: C_34  and  C_43
   13  A    between atoms: C_36  and  C_43
                            x       y       z     vdW  Elec       q    Type
                         _______ _______ _______ _____ _____    ______ ____

>  <TORSDO>
F 13

$$$$
=
 OpenBabel11042417453D

 48 52  0  0  1  0  0  0  0  0999 V2000
  191.8810  172.4150  142.9180 C   0  0  2  0  0  3  0  0  0  0  0  0
  189.3830  172.8730  141.5250 C   0  0  0  0  0  3  0  0  0  0  0  0
  194.3520  172.4660  143.6560 N   0  0  0  0  0  2  0  0  0  0  0  0
  190.8430  168.9100  140.4890 O   0  0  0  0  0  0  0  0  0  0  0  0
  192.1560  170.3300  141.8080 N   0  0  0  0  0  0  0  0  0  0  0  0
  191.9610  169.1500  141.0170 C   0  0  0  0  0  0  0  0  0  0  0  0
  193.3780  170.6890  142.3800 N   0  0  0  0  0  0  0  0  0  0  0  0
  191.2390  171.3890  142.0470 C   0  0  0  0  0  0  0  0  0  0  0  0
  191.8250  174.0160  142.0510 S   0  0  0  0  0  0  0  0  0  0  0  0
  190.0880  171.5830  141.3970 C   0  0  0  0  0  3  0  0  0  0  0  0
  190.0120  173.9910  141.9120 C   0  0  0  0  0  0  0  0  0  0  0  0
  193.2660  171.8390  142.9710 C   0  0  0  0  0  0  0  0  0  0  0  0
  187.9750  175.1760  140.0860 N   0  0  0  0  0  2  0  0  0  0  0  0
  185.6980  178.2480  141.8770 N   0  0  0  0  0  0  0  0  0  0  0  0
  186.3840  178.2700  142.9810 C   0  0  0  0  0  0  0  0  0  0  0  0
  186.2650  177.2760  141.0480 N   0  0  0  0  0  2  0  0  0  0  0  0
  189.2260  175.1750  142.1040 N   0  0  0  0  0  2  0  0  0  0  0  0
  187.4490  177.3190  142.9980 N   0  0  0  0  0  2  0  0  0  0  0  0
  187.3370  176.7200  141.7440 N   0  0  0  0  0  0  0  0  0  0  0  0
  188.1510  175.6430  141.2800 C   0  0  0  0  0  0  0  0  0  0  0  0
  184.6610  178.3070  147.4140 C   0  0  0  0  0  1  0  0  0  0  0  0
  186.2330  178.5080  145.5130 C   0  0  1  0  0  3  0  0  0  0  0  0
  186.0620  179.1600  144.1460 C   0  0  2  0  0  3  0  0  0  0  0  0
  184.6810  179.6260  144.0510 N   0  0  0  0  0  2  0  0  0  0  0  0
  183.9340  179.0270  145.1580 C   0  0  0  0  0  2  0  0  0  0  0  0
  184.8480  178.0950  145.9270 C   0  0  2  0  0  3  0  0  0  0  0  0
  188.0860  177.5750  146.7620 O   0  0  0  0  0  1  0  0  0  0  0  0
  187.2800  177.3960  145.6350 C   0  0  0  0  0  2  0  0  0  0  0  0
  196.4270  172.2950  142.3820 C   0  0  0  0  0  1  0  0  0  0  0  0
  195.7050  171.9200  143.6640 C   0  0  1  0  0  3  0  0  0  0  0  0
  197.6810  171.7200  145.0210 O   0  0  0  0  0  1  0  0  0  0  0  0
  196.4870  172.4320  144.8670 C   0  0  1  0  0  3  0  0  0  0  0  0
  196.7730  173.9210  144.7120 C   0  0  0  0  0  2  0  0  0  0  0  0
  195.9280  174.7590  145.6600 C   0  0  0  0  0  2  0  0  0  0  0  0
  195.2090  175.8910  144.9250 C   0  0  2  0  0  3  0  0  0  0  0  0
  191.1940  175.4050  145.2340 O   0  0  0  0  0  0  0  0  0  0  0  0
  193.3820  174.9840  146.1880 C   0  0  0  0  0  2  0  0  0  0  0  0
  191.5160  176.7630  145.0730 C   0  0  0  0  0  2  0  0  0  0  0  0
  193.7490  175.6810  144.9480 N   0  0  0  0  0  0  0  0  0  0  0  0
  193.0160  176.9510  144.8020 C   0  0  0  0  0  2  0  0  0  0  0  0
  191.8610  174.9720  146.3950 C   0  0  0  0  0  2  0  0  0  0  0  0
  195.7990  176.1210  143.5460 C   0  0  0  0  0  0  0  0  0  0  0  0
  195.2590  175.6210  142.5230 O   0  0  0  0  0  0  0  0  0  0  0  0
  196.9160  176.9920  143.3790 N   0  0  0  0  0  1  0  0  0  0  0  0
  193.0740  168.1700  140.8450 C   0  0  0  0  0  2  0  0  0  0  0  0
  193.5830  168.1820  139.4110 C   0  0  0  0  0  2  0  0  0  0  0  0
  195.7560  169.3430  139.7980 C   0  0  0  0  0  1  0  0  0  0  0  0
  194.4000  169.4330  139.1230 C   0  0  0  0  0  2  0  0  0  0  0  0
  1  8  1  6  0  0  0
  1 12  1  0  0  0  0
  2 11  2  0  0  0  0
  3 30  1  0  0  0  0
  4  6  2  0  0  0  0
  5  8  1  0  0  0  0
  5  7  1  0  0  0  0
  6  5  1  0  0  0  0
  7 12  2  0  0  0  0
  9  1  1  0  0  0  0
 10  2  1  0  0  0  0
 10  8  2  0  0  0  0
 11  9  1  0  0  0  0
 11 17  1  0  0  0  0
 12  3  1  0  0  0  0
 13 20  2  0  0  0  0
 14 15  2  0  0  0  0
 15 18  1  0  0  0  0
 16 19  1  0  0  0  0
 16 14  1  0  0  0  0
 19 18  1  0  0  0  0
 20 19  1  0  0  0  0
 20 17  1  0  0  0  0
 22 28  1  6  0  0  0
 22 26  1  0  0  0  0
 23 15  1  6  0  0  0
 23 22  1  0  0  0  0
 24 23  1  0  0  0  0
 24 25  1  0  0  0  0
 25 26  1  0  0  0  0
 26 21  1  1  0  0  0
 28 27  1  0  0  0  0
 30 29  1  6  0  0  0
 30 32  1  0  0  0  0
 32 31  1  6  0  0  0
 33 32  1  0  0  0  0
 33 34  1  0  0  0  0
 35 39  1  0  0  0  0
 35 34  1  6  0  0  0
 36 41  1  0  0  0  0
 37 41  1  0  0  0  0
 38 36  1  0  0  0  0
 39 37  1  0  0  0  0
 40 39  1  0  0  0  0
 40 38  1  0  0  0  0
 42 35  1  0  0  0  0
 43 42  2  0  0  0  0
 44 42  1  0  0  0  0
 45  6  1  0  0  0  0
 46 45  1  0  0  0  0
 48 46  1  0  0  0  0
 48 47  1  0  0  0  0
M  END
>  <MODEL>
4

>  <REMARK>
 VINA RESULT:      -6.9      2.661      8.984
  Name = 
  13 active torsions:
  status: ('A' for Active; 'I' for Inactive)
    1  A    between atoms: C_5  and  C_14
    2  A    between atoms: C_7  and  C_10
    3  A    between atoms: C_9  and  C_26
    4  A    between atoms: C_9  and  C_39
    5  A    between atoms: N_13  and  C_40
    6  A    between atoms: C_17  and  C_32
    7  A    between atoms: N_19  and  C_30
    8  A    between atoms: C_26  and  C_27
    9  A    between atoms: C_30  and  C_36
   10  A    between atoms: C_32  and  C_34
   11  A    between atoms: C_32  and  N_42
   12  A    between atoms: C_34  and  C_43
   13  A    between atoms: C_36  and  C_43
                            x       y       z     vdW  Elec       q    Type
                         _______ _______ _______ _____ _____    ______ ____

>  <TORSDO>
F 13

$$$$
=
 OpenBabel11042417453D

 48 52  0  0  1  0  0  0  0  0999 V2000
  188.9990  175.2340  144.0590 C   0  0  2  0  0  3  0  0  0  0  0  0
  190.6780  174.9250  146.4000 C   0  0  0  0  0  3  0  0  0  0  0  0
  187.9610  176.0560  141.8460 N   0  0  0  0  0  2  0  0  0  0  0  0
  186.8890  176.6690  147.6300 O   0  0  0  0  0  0  0  0  0  0  0  0
  187.3340  176.3280  145.3570 N   0  0  0  0  0  0  0  0  0  0  0  0
  186.5610  176.8790  146.4330 C   0  0  0  0  0  0  0  0  0  0  0  0
  187.0640  176.5620  144.0070 N   0  0  0  0  0  0  0  0  0  0  0  0
  188.5450  175.5900  145.4340 C   0  0  0  0  0  0  0  0  0  0  0  0
  190.6830  175.8880  143.8260 S   0  0  0  0  0  0  0  0  0  0  0  0
  189.3060  175.4540  146.5240 C   0  0  0  0  0  3  0  0  0  0  0  0
  191.3480  174.9560  145.2400 C   0  0  0  0  0  0  0  0  0  0  0  0
  187.9730  175.9980  143.2740 C   0  0  0  0  0  0  0  0  0  0  0  0
  194.0300  176.2150  145.5620 N   0  0  0  0  0  2  0  0  0  0  0  0
  197.1630  173.4140  145.9750 N   0  0  0  0  0  0  0  0  0  0  0  0
  196.4150  172.3730  145.7550 C   0  0  0  0  0  0  0  0  0  0  0  0
  196.3470  174.5450  145.8850 N   0  0  0  0  0  2  0  0  0  0  0  0
  192.6370  174.3300  145.1880 N   0  0  0  0  0  2  0  0  0  0  0  0
  195.0480  172.7060  145.5170 N   0  0  0  0  0  2  0  0  0  0  0  0
  195.0580  174.0990  145.6010 N   0  0  0  0  0  0  0  0  0  0  0  0
  193.9030  174.9290  145.4910 C   0  0  0  0  0  0  0  0  0  0  0  0
  196.2360  168.1690  143.5390 C   0  0  0  0  0  1  0  0  0  0  0  0
  197.1050  170.3040  144.4380 C   0  0  1  0  0  3  0  0  0  0  0  0
  196.9180  170.9600  145.8020 C   0  0  2  0  0  3  0  0  0  0  0  0
  195.9930  170.1260  146.5650 N   0  0  0  0  0  2  0  0  0  0  0  0
  195.3820  169.1740  145.6360 C   0  0  0  0  0  2  0  0  0  0  0  0
  195.8760  169.4650  144.2330 C   0  0  2  0  0  3  0  0  0  0  0  0
  196.3170  171.4600  142.4610 O   0  0  0  0  0  1  0  0  0  0  0  0
  197.4400  171.2230  143.2580 C   0  0  0  0  0  2  0  0  0  0  0  0
  187.4160  178.2920  141.0330 C   0  0  0  0  0  1  0  0  0  0  0  0
  186.9860  176.8380  141.0930 C   0  0  1  0  0  3  0  0  0  0  0  0
  187.0430  177.2880  138.7310 O   0  0  0  0  0  1  0  0  0  0  0  0
  186.8250  176.2860  139.6810 C   0  0  1  0  0  3  0  0  0  0  0  0
  187.7870  175.1250  139.4600 C   0  0  0  0  0  2  0  0  0  0  0  0
  188.1170  174.9390  137.9870 C   0  0  0  0  0  2  0  0  0  0  0  0
  188.9020  173.6490  137.7420 C   0  0  2  0  0  3  0  0  0  0  0  0
  190.8720  172.2510  141.0000 O   0  0  0  0  0  0  0  0  0  0  0  0
  189.4920  171.7430  139.0730 C   0  0  0  0  0  2  0  0  0  0  0  0
  191.7320  173.0160  140.1940 C   0  0  0  0  0  2  0  0  0  0  0  0
  189.5740  173.2070  138.9790 N   0  0  0  0  0  0  0  0  0  0  0  0
  190.9680  173.6780  139.0380 C   0  0  0  0  0  2  0  0  0  0  0  0
  190.3940  171.2020  140.1920 C   0  0  0  0  0  2  0  0  0  0  0  0
  189.8100  173.7720  136.5320 C   0  0  0  0  0  0  0  0  0  0  0  0
  190.1620  174.9040  136.1030 O   0  0  0  0  0  0  0  0  0  0  0  0
  190.3600  172.6050  135.9260 N   0  0  0  0  0  1  0  0  0  0  0  0
  185.3320  177.6750  146.1430 C   0  0  0  0  0  2  0  0  0  0  0  0
  185.6700  179.1520  146.0010 C   0  0  0  0  0  2  0  0  0  0  0  0
  184.1770  179.0400  144.0060 C   0  0  0  0  0  1  0  0  0  0  0  0
  185.4500  179.6370  144.5750 C   0  0  0  0  0  2  0  0  0  0  0  0
  1 12  1  6  0  0  0
  1  8  1  0  0  0  0
  2 10  1  0  0  0  0
  3 12  1  0  0  0  0
  5  8  1  0  0  0  0
  5  6  1  0  0  0  0
  6  4  2  0  0  0  0
  7  5  1  0  0  0  0
  8 10  2  0  0  0  0
  9  1  1  0  0  0  0
  9 11  1  0  0  0  0
 11  2  2  0  0  0  0
 12  7  2  0  0  0  0
 15 14  2  0  0  0  0
 16 14  1  0  0  0  0
 17 11  1  0  0  0  0
 17 20  1  0  0  0  0
 18 19  1  0  0  0  0
 18 15  1  0  0  0  0
 19 16  1  0  0  0  0
 20 13  2  0  0  0  0
 20 19  1  0  0  0  0
 22 28  1  6  0  0  0
 22 23  1  0  0  0  0
 23 15  1  6  0  0  0
 23 24  1  0  0  0  0
 25 24  1  0  0  0  0
 26 21  1  1  0  0  0
 26 22  1  0  0  0  0
 26 25  1  0  0  0  0
 27 28  1  0  0  0  0
 30 29  1  6  0  0  0
 30  3  1  0  0  0  0
 32 31  1  6  0  0  0
 32 30  1  0  0  0  0
 33 32  1  0  0  0  0
 34 33  1  0  0  0  0
 35 34  1  1  0  0  0
 35 39  1  0  0  0  0
 37 41  1  0  0  0  0
 38 36  1  0  0  0  0
 39 40  1  0  0  0  0
 39 37  1  0  0  0  0
 40 38  1  0  0  0  0
 41 36  1  0  0  0  0
 42 35  1  0  0  0  0
 43 42  2  0  0  0  0
 44 42  1  0  0  0  0
 45  6  1  0  0  0  0
 46 45  1  0  0  0  0
 47 48  1  0  0  0  0
 48 46  1  0  0  0  0
M  END
>  <MODEL>
5

>  <REMARK>
 VINA RESULT:      -6.5      2.443      7.605
  Name = 
  13 active torsions:
  status: ('A' for Active; 'I' for Inactive)
    1  A    between atoms: C_5  and  C_14
    2  A    between atoms: C_7  and  C_10
    3  A    between atoms: C_9  and  C_26
    4  A    between atoms: C_9  and  C_39
    5  A    between atoms: N_13  and  C_40
    6  A    between atoms: C_17  and  C_32
    7  A    between atoms: N_19  and  C_30
    8  A    between atoms: C_26  and  C_27
    9  A    between atoms: C_30  and  C_36
   10  A    between atoms: C_32  and  C_34
   11  A    between atoms: C_32  and  N_42
   12  A    between atoms: C_34  and  C_43
   13  A    between atoms: C_36  and  C_43
                            x       y       z     vdW  Elec       q    Type
                         _______ _______ _______ _____ _____    ______ ____

>  <TORSDO>
F 13

$$$$
=
 OpenBabel11042417453D

 48 52  0  0  1  0  0  0  0  0999 V2000
  193.3130  172.9360  141.8940 C   0  0  2  0  0  3  0  0  0  0  0  0
  191.2420  171.8050  143.5740 C   0  0  0  0  0  3  0  0  0  0  0  0
  194.5840  174.1690  140.0180 N   0  0  0  0  0  2  0  0  0  0  0  0
  193.1010  168.5910  141.3110 O   0  0  0  0  0  0  0  0  0  0  0  0
  193.7090  170.8140  140.8970 N   0  0  0  0  0  0  0  0  0  0  0  0
  193.7040  169.4160  140.5750 C   0  0  0  0  0  0  0  0  0  0  0  0
  194.3090  171.7920  140.1020 N   0  0  0  0  0  0  0  0  0  0  0  0
  193.0280  171.4730  141.9550 C   0  0  0  0  0  0  0  0  0  0  0  0
  191.7270  173.8230  141.7730 S   0  0  0  0  0  0  0  0  0  0  0  0
  192.0770  170.9350  142.7230 C   0  0  0  0  0  3  0  0  0  0  0  0
  191.0980  173.1140  143.3260 C   0  0  0  0  0  0  0  0  0  0  0  0
  194.0870  172.9650  140.6070 C   0  0  0  0  0  0  0  0  0  0  0  0
  192.0060  175.4780  144.8980 N   0  0  0  0  0  2  0  0  0  0  0  0
  188.8530  177.5320  146.8140 N   0  0  0  0  0  0  0  0  0  0  0  0
  187.9390  176.6680  146.4880 C   0  0  0  0  0  0  0  0  0  0  0  0
  190.0670  177.0780  146.2920 N   0  0  0  0  0  2  0  0  0  0  0  0
  190.3490  173.9000  144.2620 N   0  0  0  0  0  2  0  0  0  0  0  0
  188.4460  175.5800  145.7160 N   0  0  0  0  0  2  0  0  0  0  0  0
  189.8050  175.8820  145.6270 N   0  0  0  0  0  0  0  0  0  0  0  0
  190.7630  175.1180  144.8950 C   0  0  0  0  0  0  0  0  0  0  0  0
  183.9670  179.0450  145.3910 C   0  0  0  0  0  1  0  0  0  0  0  0
  185.5870  177.1930  145.6610 C   0  0  1  0  0  3  0  0  0  0  0  0
  186.4860  176.8200  146.8340 C   0  0  2  0  0  3  0  0  0  0  0  0
  186.3210  177.8490  147.8570 N   0  0  0  0  0  2  0  0  0  0  0  0
  185.6080  178.9720  147.2460 C   0  0  0  0  0  2  0  0  0  0  0  0
  185.3840  178.6770  145.7770 C   0  0  2  0  0  3  0  0  0  0  0  0
  186.4620  177.7990  143.4850 O   0  0  0  0  0  1  0  0  0  0  0  0
  186.0220  176.7280  144.2670 C   0  0  0  0  0  2  0  0  0  0  0  0
  194.5400  175.0420  137.7390 C   0  0  0  0  0  1  0  0  0  0  0  0
  195.2960  174.1920  138.7450 C   0  0  1  0  0  3  0  0  0  0  0  0
  197.0880  175.5030  137.8200 O   0  0  0  0  0  1  0  0  0  0  0  0
  196.7080  174.7360  138.9260 C   0  0  1  0  0  3  0  0  0  0  0  0
  196.7910  175.5650  140.2010 C   0  0  0  0  0  2  0  0  0  0  0  0
  197.9310  175.1070  141.0980 C   0  0  0  0  0  2  0  0  0  0  0  0
  197.4690  174.9090  142.5430 C   0  0  2  0  0  3  0  0  0  0  0  0
  196.2320  171.0840  143.0820 O   0  0  0  0  0  0  0  0  0  0  0  0
  197.6330  172.6220  141.8390 C   0  0  0  0  0  2  0  0  0  0  0  0
  196.6920  171.6290  144.2930 C   0  0  0  0  0  2  0  0  0  0  0  0
  196.9290  173.5490  142.7340 N   0  0  0  0  0  0  0  0  0  0  0  0
  197.0220  173.1210  144.1410 C   0  0  0  0  0  2  0  0  0  0  0  0
  197.3060  171.1600  142.1760 C   0  0  0  0  0  2  0  0  0  0  0  0
  196.5490  176.0290  142.9910 C   0  0  0  0  0  0  0  0  0  0  0  0
  197.0040  177.1800  143.2280 O   0  0  0  0  0  0  0  0  0  0  0  0
  195.1390  175.8200  143.0510 N   0  0  0  0  0  1  0  0  0  0  0  0
  194.4500  168.9180  139.3810 C   0  0  0  0  0  2  0  0  0  0  0  0
  193.5080  168.2220  138.4100 C   0  0  0  0  0  2  0  0  0  0  0  0
  192.2090  168.7940  136.3590 C   0  0  0  0  0  1  0  0  0  0  0  0
  192.5320  169.2060  137.7830 C   0  0  0  0  0  2  0  0  0  0  0  0
  1 12  1  6  0  0  0
  1  8  1  0  0  0  0
  3 12  1  0  0  0  0
  5  8  1  0  0  0  0
  6  5  1  0  0  0  0
  6  4  2  0  0  0  0
  7 12  2  0  0  0  0
  7  5  1  0  0  0  0
  8 10  2  0  0  0  0
  9  1  1  0  0  0  0
  9 11  1  0  0  0  0
 10  2  1  0  0  0  0
 11  2  2  0  0  0  0
 11 17  1  0  0  0  0
 15 14  2  0  0  0  0
 16 14  1  0  0  0  0
 17 20  1  0  0  0  0
 18 15  1  0  0  0  0
 19 18  1  0  0  0  0
 19 16  1  0  0  0  0
 20 13  2  0  0  0  0
 20 19  1  0  0  0  0
 22 28  1  6  0  0  0
 22 26  1  0  0  0  0
 22 23  1  0  0  0  0
 23 15  1  6  0  0  0
 23 24  1  0  0  0  0
 25 24  1  0  0  0  0
 26 21  1  1  0  0  0
 26 25  1  0  0  0  0
 27 28  1  0  0  0  0
 30 29  1  6  0  0  0
 30 32  1  0  0  0  0
 30  3  1  0  0  0  0
 32 31  1  6  0  0  0
 32 33  1  0  0  0  0
 33 34  1  0  0  0  0
 35 34  1  6  0  0  0
 35 39  1  0  0  0  0
 35 42  1  0  0  0  0
 36 38  1  0  0  0  0
 37 41  1  0  0  0  0
 37 39  1  0  0  0  0
 39 40  1  0  0  0  0
 40 38  1  0  0  0  0
 41 36  1  0  0  0  0
 42 44  1  0  0  0  0
 42 43  2  0  0  0  0
 45  6  1  0  0  0  0
 46 45  1  0  0  0  0
 47 48  1  0  0  0  0
 48 46  1  0  0  0  0
M  END
>  <MODEL>
6

>  <REMARK>
 VINA RESULT:      -6.5      3.358      9.816
  Name = 
  13 active torsions:
  status: ('A' for Active; 'I' for Inactive)
    1  A    between atoms: C_5  and  C_14
    2  A    between atoms: C_7  and  C_10
    3  A    between atoms: C_9  and  C_26
    4  A    between atoms: C_9  and  C_39
    5  A    between atoms: N_13  and  C_40
    6  A    between atoms: C_17  and  C_32
    7  A    between atoms: N_19  and  C_30
    8  A    between atoms: C_26  and  C_27
    9  A    between atoms: C_30  and  C_36
   10  A    between atoms: C_32  and  C_34
   11  A    between atoms: C_32  and  N_42
   12  A    between atoms: C_34  and  C_43
   13  A    between atoms: C_36  and  C_43
                            x       y       z     vdW  Elec       q    Type
                         _______ _______ _______ _____ _____    ______ ____

>  <TORSDO>
F 13

$$$$
=
 OpenBabel11042417453D

 48 52  0  0  1  0  0  0  0  0999 V2000
  193.4530  173.2800  143.4980 C   0  0  2  0  0  3  0  0  0  0  0  0
  193.0190  174.4160  146.1280 C   0  0  0  0  0  3  0  0  0  0  0  0
  193.4470  171.7290  141.4370 N   0  0  0  0  0  2  0  0  0  0  0  0
  197.1340  173.0310  145.8750 O   0  0  0  0  0  0  0  0  0  0  0  0
  195.6510  172.6140  144.1120 N   0  0  0  0  0  0  0  0  0  0  0  0
  196.8960  172.4220  144.7990 C   0  0  0  0  0  0  0  0  0  0  0  0
  195.2950  171.9350  142.9450 N   0  0  0  0  0  0  0  0  0  0  0  0
  194.5300  173.3840  144.5230 C   0  0  0  0  0  0  0  0  0  0  0  0
  191.9480  172.6540  144.3110 S   0  0  0  0  0  0  0  0  0  0  0  0
  194.3480  173.9040  145.7400 C   0  0  0  0  0  3  0  0  0  0  0  0
  191.8990  174.0280  145.5020 C   0  0  0  0  0  0  0  0  0  0  0  0
  194.0880  172.2590  142.6000 C   0  0  0  0  0  0  0  0  0  0  0  0
  191.4950  176.4820  147.1450 N   0  0  0  0  0  2  0  0  0  0  0  0
  187.5240  177.9160  147.0740 N   0  0  0  0  0  0  0  0  0  0  0  0
  187.0520  176.9120  146.3960 C   0  0  0  0  0  0  0  0  0  0  0  0
  188.8900  177.6910  147.2630 N   0  0  0  0  0  2  0  0  0  0  0  0
  190.6650  174.6520  145.8790 N   0  0  0  0  0  2  0  0  0  0  0  0
  188.0470  175.9450  146.0610 N   0  0  0  0  0  2  0  0  0  0  0  0
  189.1960  176.4810  146.6430 N   0  0  0  0  0  0  0  0  0  0  0  0
  190.5010  175.9110  146.5450 C   0  0  0  0  0  0  0  0  0  0  0  0
  183.6750  179.0010  143.7780 C   0  0  0  0  0  1  0  0  0  0  0  0
  185.3390  177.3440  144.5610 C   0  0  1  0  0  3  0  0  0  0  0  0
  185.6210  176.8010  145.9570 C   0  0  2  0  0  3  0  0  0  0  0  0
  184.7560  177.5180  146.8890 N   0  0  0  0  0  2  0  0  0  0  0  0
  184.1890  178.6650  146.1780 C   0  0  0  0  0  2  0  0  0  0  0  0
  184.7730  178.7190  144.7810 C   0  0  2  0  0  3  0  0  0  0  0  0
  186.1200  176.5790  142.3990 O   0  0  0  0  0  1  0  0  0  0  0  0
  186.4830  177.2950  143.5430 C   0  0  0  0  0  2  0  0  0  0  0  0
  193.1560  169.4810  140.5320 C   0  0  0  0  0  1  0  0  0  0  0  0
  194.0540  170.7040  140.5950 C   0  0  1  0  0  3  0  0  0  0  0  0
  193.2150  171.9950  138.7480 O   0  0  0  0  0  1  0  0  0  0  0  0
  194.3040  171.2370  139.1900 C   0  0  1  0  0  3  0  0  0  0  0  0
  195.5780  172.0730  139.1650 C   0  0  0  0  0  2  0  0  0  0  0  0
  195.2820  173.5440  138.9190 C   0  0  0  0  0  2  0  0  0  0  0  0
  196.5650  174.3760  138.8590 C   0  0  2  0  0  3  0  0  0  0  0  0
  196.7140  176.5780  142.2610 O   0  0  0  0  0  0  0  0  0  0  0  0
  195.3520  175.6660  140.4760 C   0  0  0  0  0  2  0  0  0  0  0  0
  197.3110  175.3210  142.4600 C   0  0  0  0  0  2  0  0  0  0  0  0
  196.6900  175.2280  140.0570 N   0  0  0  0  0  0  0  0  0  0  0  0
  197.3990  174.5330  141.1450 C   0  0  0  0  0  2  0  0  0  0  0  0
  195.3880  176.3310  141.8590 C   0  0  0  0  0  2  0  0  0  0  0  0
  196.6900  175.1110  137.5370 C   0  0  0  0  0  0  0  0  0  0  0  0
  195.6780  175.3130  136.8150 O   0  0  0  0  0  0  0  0  0  0  0  0
  197.9400  175.6730  137.1430 N   0  0  0  0  0  1  0  0  0  0  0  0
  197.9410  171.5260  144.2210 C   0  0  0  0  0  2  0  0  0  0  0  0
  197.5560  170.0650  144.4000 C   0  0  0  0  0  2  0  0  0  0  0  0
  197.0570  168.2390  146.0240 C   0  0  0  0  0  1  0  0  0  0  0  0
  197.4840  169.6860  145.8720 C   0  0  0  0  0  2  0  0  0  0  0  0
  1 12  1  6  0  0  0
  1  9  1  0  0  0  0
  1  8  1  0  0  0  0
  3 12  1  0  0  0  0
  5  8  1  0  0  0  0
  5  6  1  0  0  0  0
  6  4  2  0  0  0  0
  7  5  1  0  0  0  0
  8 10  2  0  0  0  0
  9 11  1  0  0  0  0
 10  2  1  0  0  0  0
 11 17  1  0  0  0  0
 11  2  2  0  0  0  0
 12  7  2  0  0  0  0
 14 16  1  0  0  0  0
 15 14  2  0  0  0  0
 17 20  1  0  0  0  0
 18 15  1  0  0  0  0
 18 19  1  0  0  0  0
 19 16  1  0  0  0  0
 20 19  1  0  0  0  0
 20 13  2  0  0  0  0
 22 28  1  6  0  0  0
 22 26  1  0  0  0  0
 22 23  1  0  0  0  0
 23 15  1  1  0  0  0
 23 24  1  0  0  0  0
 25 24  1  0  0  0  0
 26 21  1  6  0  0  0
 26 25  1  0  0  0  0
 27 28  1  0  0  0  0
 30 29  1  6  0  0  0
 30  3  1  0  0  0  0
 32 31  1  1  0  0  0
 32 30  1  0  0  0  0
 33 32  1  0  0  0  0
 34 33  1  0  0  0  0
 35 34  1  6  0  0  0
 35 39  1  0  0  0  0
 36 38  1  0  0  0  0
 37 41  1  0  0  0  0
 39 37  1  0  0  0  0
 39 40  1  0  0  0  0
 40 38  1  0  0  0  0
 41 36  1  0  0  0  0
 42 35  1  0  0  0  0
 43 42  2  0  0  0  0
 44 42  1  0  0  0  0
 45 46  1  0  0  0  0
 45  6  1  0  0  0  0
 46 48  1  0  0  0  0
 48 47  1  0  0  0  0
M  END
>  <MODEL>
7

>  <REMARK>
 VINA RESULT:      -6.5      3.536     10.216
  Name = 
  13 active torsions:
  status: ('A' for Active; 'I' for Inactive)
    1  A    between atoms: C_5  and  C_14
    2  A    between atoms: C_7  and  C_10
    3  A    between atoms: C_9  and  C_26
    4  A    between atoms: C_9  and  C_39
    5  A    between atoms: N_13  and  C_40
    6  A    between atoms: C_17  and  C_32
    7  A    between atoms: N_19  and  C_30
    8  A    between atoms: C_26  and  C_27
    9  A    between atoms: C_30  and  C_36
   10  A    between atoms: C_32  and  C_34
   11  A    between atoms: C_32  and  N_42
   12  A    between atoms: C_34  and  C_43
   13  A    between atoms: C_36  and  C_43
                            x       y       z     vdW  Elec       q    Type
                         _______ _______ _______ _____ _____    ______ ____

>  <TORSDO>
F 13

$$$$
=
 OpenBabel11042417453D

 48 52  0  0  1  0  0  0  0  0999 V2000
  192.5520  173.1210  142.3100 C   0  0  2  0  0  3  0  0  0  0  0  0
  189.7390  172.4730  142.5520 C   0  0  0  0  0  3  0  0  0  0  0  0
  194.8280  174.0070  141.4810 N   0  0  0  0  0  2  0  0  0  0  0  0
  191.9020  168.8670  141.4440 O   0  0  0  0  0  0  0  0  0  0  0  0
  193.0280  170.9170  141.5530 N   0  0  0  0  0  0  0  0  0  0  0  0
  192.9430  169.5310  141.1950 C   0  0  0  0  0  0  0  0  0  0  0  0
  194.1260  171.7290  141.2620 N   0  0  0  0  0  0  0  0  0  0  0  0
  192.0190  171.7410  142.1210 C   0  0  0  0  0  0  0  0  0  0  0  0
  191.4690  174.2790  141.4140 S   0  0  0  0  0  0  0  0  0  0  0  0
  190.7260  171.4250  142.2290 C   0  0  0  0  0  3  0  0  0  0  0  0
  189.9900  173.7730  142.3450 C   0  0  0  0  0  0  0  0  0  0  0  0
  193.8840  172.9460  141.6400 C   0  0  0  0  0  0  0  0  0  0  0  0
  188.0870  175.3590  140.6890 N   0  0  0  0  0  2  0  0  0  0  0  0
  185.1280  177.3380  142.9620 N   0  0  0  0  0  0  0  0  0  0  0  0
  185.6340  177.0130  144.1150 C   0  0  0  0  0  0  0  0  0  0  0  0
  185.9530  176.7950  141.9730 N   0  0  0  0  0  2  0  0  0  0  0  0
  189.0140  174.7270  142.7810 N   0  0  0  0  0  2  0  0  0  0  0  0
  186.8170  176.2230  144.0050 N   0  0  0  0  0  2  0  0  0  0  0  0
  186.9840  176.1200  142.6240 N   0  0  0  0  0  0  0  0  0  0  0  0
  188.0120  175.3670  141.9810 C   0  0  0  0  0  0  0  0  0  0  0  0
  186.3120  179.5040  148.1100 C   0  0  0  0  0  1  0  0  0  0  0  0
  185.3720  178.7710  145.9410 C   0  0  1  0  0  3  0  0  0  0  0  0
  185.0130  177.3800  145.4310 C   0  0  2  0  0  3  0  0  0  0  0  0
  185.4150  176.4200  146.4570 N   0  0  0  0  0  2  0  0  0  0  0  0
  186.2640  177.1260  147.4170 C   0  0  0  0  0  2  0  0  0  0  0  0
  186.4690  178.5510  146.9440 C   0  0  2  0  0  3  0  0  0  0  0  0
  184.5290  180.3010  144.2630 O   0  0  0  0  0  1  0  0  0  0  0  0
  185.6890  179.8420  144.8920 C   0  0  0  0  0  2  0  0  0  0  0  0
  195.9890  174.3350  139.3590 C   0  0  0  0  0  1  0  0  0  0  0  0
  196.1020  173.8380  140.7890 C   0  0  1  0  0  3  0  0  0  0  0  0
  196.9240  175.9540  141.5830 O   0  0  0  0  0  1  0  0  0  0  0  0
  197.2130  174.5880  141.5130 C   0  0  1  0  0  3  0  0  0  0  0  0
  197.4090  174.0140  142.9110 C   0  0  0  0  0  2  0  0  0  0  0  0
  197.2770  175.0840  143.9830 C   0  0  0  0  0  2  0  0  0  0  0  0
  196.3080  174.6600  145.0890 C   0  0  2  0  0  3  0  0  0  0  0  0
  195.3150  170.7300  144.9530 O   0  0  0  0  0  0  0  0  0  0  0  0
  196.8280  172.4270  145.7940 C   0  0  0  0  0  2  0  0  0  0  0  0
  194.2120  171.5050  145.3500 C   0  0  0  0  0  2  0  0  0  0  0  0
  195.9450  173.2380  144.9440 N   0  0  0  0  0  0  0  0  0  0  0  0
  194.5250  173.0060  145.2600 C   0  0  0  0  0  2  0  0  0  0  0  0
  196.3340  170.9770  145.8930 C   0  0  0  0  0  2  0  0  0  0  0  0
  195.1310  175.6120  145.1910 C   0  0  0  0  0  0  0  0  0  0  0  0
  194.5760  176.0640  144.1540 O   0  0  0  0  0  0  0  0  0  0  0  0
  194.5720  175.9280  146.4640 N   0  0  0  0  0  1  0  0  0  0  0  0
  194.1080  168.8470  140.5570 C   0  0  0  0  0  2  0  0  0  0  0  0
  193.7890  168.4740  139.1170 C   0  0  0  0  0  2  0  0  0  0  0  0
  195.2820  170.2310  138.1670 C   0  0  0  0  0  1  0  0  0  0  0  0
  193.8670  169.6860  138.2000 C   0  0  0  0  0  2  0  0  0  0  0  0
  1  9  1  6  0  0  0
  3 12  1  0  0  0  0
  5  8  1  0  0  0  0
  6  4  2  0  0  0  0
  6  5  1  0  0  0  0
  7  5  1  0  0  0  0
  7 12  2  0  0  0  0
  8 10  2  0  0  0  0
  8  1  1  0  0  0  0
  9 11  1  0  0  0  0
 10  2  1  0  0  0  0
 11  2  2  0  0  0  0
 11 17  1  0  0  0  0
 12  1  1  0  0  0  0
 13 20  2  0  0  0  0
 14 15  2  0  0  0  0
 16 19  1  0  0  0  0
 16 14  1  0  0  0  0
 18 15  1  0  0  0  0
 19 18  1  0  0  0  0
 20 19  1  0  0  0  0
 20 17  1  0  0  0  0
 22 28  1  6  0  0  0
 22 26  1  0  0  0  0
 23 15  1  6  0  0  0
 23 22  1  0  0  0  0
 23 24  1  0  0  0  0
 24 25  1  0  0  0  0
 26 25  1  0  0  0  0
 26 21  1  1  0  0  0
 27 28  1  0  0  0  0
 30 29  1  6  0  0  0
 30  3  1  0  0  0  0
 30 32  1  0  0  0  0
 32 31  1  1  0  0  0
 32 33  1  0  0  0  0
 33 34  1  0  0  0  0
 35 34  1  6  0  0  0
 35 42  1  0  0  0  0
 36 38  1  0  0  0  0
 36 41  1  0  0  0  0
 37 41  1  0  0  0  0
 39 35  1  0  0  0  0
 39 40  1  0  0  0  0
 39 37  1  0  0  0  0
 40 38  1  0  0  0  0
 42 44  1  0  0  0  0
 43 42  2  0  0  0  0
 45  6  1  0  0  0  0
 46 45  1  0  0  0  0
 47 48  1  0  0  0  0
 48 46  1  0  0  0  0
M  END
>  <MODEL>
8

>  <REMARK>
 VINA RESULT:      -6.4      2.861      9.186
  Name = 
  13 active torsions:
  status: ('A' for Active; 'I' for Inactive)
    1  A    between atoms: C_5  and  C_14
    2  A    between atoms: C_7  and  C_10
    3  A    between atoms: C_9  and  C_26
    4  A    between atoms: C_9  and  C_39
    5  A    between atoms: N_13  and  C_40
    6  A    between atoms: C_17  and  C_32
    7  A    between atoms: N_19  and  C_30
    8  A    between atoms: C_26  and  C_27
    9  A    between atoms: C_30  and  C_36
   10  A    between atoms: C_32  and  C_34
   11  A    between atoms: C_32  and  N_42
   12  A    between atoms: C_34  and  C_43
   13  A    between atoms: C_36  and  C_43
                            x       y       z     vdW  Elec       q    Type
                         _______ _______ _______ _____ _____    ______ ____

>  <TORSDO>
F 13

$$$$
=
 OpenBabel11042417453D

 48 52  0  0  1  0  0  0  0  0999 V2000
  188.6340  176.7550  143.0710 C   0  0  2  0  0  3  0  0  0  0  0  0
  187.1300  176.7910  140.5950 C   0  0  0  0  0  3  0  0  0  0  0  0
  189.6520  176.0790  145.3430 N   0  0  0  0  0  2  0  0  0  0  0  0
  185.2150  179.4850  143.4210 O   0  0  0  0  0  0  0  0  0  0  0  0
  187.0280  178.1720  144.1050 N   0  0  0  0  0  0  0  0  0  0  0  0
  185.9210  179.0460  144.3660 C   0  0  0  0  0  0  0  0  0  0  0  0
  187.8210  177.6040  145.1040 N   0  0  0  0  0  0  0  0  0  0  0  0
  187.4400  177.6230  142.8610 C   0  0  0  0  0  0  0  0  0  0  0  0
  188.2490  175.0910  142.4410 S   0  0  0  0  0  0  0  0  0  0  0  0
  186.7350  177.6520  141.7270 C   0  0  0  0  0  3  0  0  0  0  0  0
  187.8880  175.6990  140.7650 C   0  0  0  0  0  0  0  0  0  0  0  0
  188.6920  176.8030  144.5710 C   0  0  0  0  0  0  0  0  0  0  0  0
  186.7840  175.8570  138.0020 N   0  0  0  0  0  2  0  0  0  0  0  0
  189.1720  173.8950  135.1230 N   0  0  0  0  0  0  0  0  0  0  0  0
  190.0030  173.3940  135.9880 C   0  0  0  0  0  0  0  0  0  0  0  0
  188.2150  174.6250  135.8350 N   0  0  0  0  0  2  0  0  0  0  0  0
  188.3070  174.9800  139.5980 N   0  0  0  0  0  2  0  0  0  0  0  0
  189.6940  173.7500  137.3350 N   0  0  0  0  0  2  0  0  0  0  0  0
  188.5440  174.5250  137.1850 N   0  0  0  0  0  0  0  0  0  0  0  0
  187.8580  175.1800  138.2520 C   0  0  0  0  0  0  0  0  0  0  0  0
  192.8380  169.8660  137.4490 C   0  0  0  0  0  1  0  0  0  0  0  0
  191.1770  171.1370  136.1270 C   0  0  1  0  0  3  0  0  0  0  0  0
  191.2020  172.5720  135.6130 C   0  0  2  0  0  3  0  0  0  0  0  0
  192.4180  173.2000  136.1240 N   0  0  0  0  0  2  0  0  0  0  0  0
  192.9700  172.3230  137.1580 C   0  0  0  0  0  2  0  0  0  0  0  0
  192.0360  171.1460  137.3600 C   0  0  2  0  0  3  0  0  0  0  0  0
  189.5840  170.1550  137.6660 O   0  0  0  0  0  1  0  0  0  0  0  0
  189.8050  170.4860  136.3260 C   0  0  0  0  0  2  0  0  0  0  0  0
  188.9960  174.8510  147.3480 C   0  0  0  0  0  1  0  0  0  0  0  0
  189.6710  176.0960  146.8010 C   0  0  1  0  0  3  0  0  0  0  0  0
  191.3410  175.1860  148.2740 O   0  0  0  0  0  1  0  0  0  0  0  0
  191.1010  176.1810  147.3210 C   0  0  1  0  0  3  0  0  0  0  0  0
  192.0870  176.0590  146.1660 C   0  0  0  0  0  2  0  0  0  0  0  0
  193.2730  175.1770  146.5270 C   0  0  0  0  0  2  0  0  0  0  0  0
  194.0010  174.6710  145.2800 C   0  0  2  0  0  3  0  0  0  0  0  0
  191.7730  174.8240  141.8950 O   0  0  0  0  0  0  0  0  0  0  0  0
  193.5370  175.8200  143.2260 C   0  0  0  0  0  2  0  0  0  0  0  0
  192.3670  173.5580  142.0380 C   0  0  0  0  0  2  0  0  0  0  0  0
  193.1130  174.7200  144.1030 N   0  0  0  0  0  0  0  0  0  0  0  0
  193.0890  173.4330  143.3880 C   0  0  0  0  0  2  0  0  0  0  0  0
  192.8260  175.7580  141.8670 C   0  0  0  0  0  2  0  0  0  0  0  0
  194.6590  173.3260  145.5280 C   0  0  0  0  0  0  0  0  0  0  0  0
  193.9780  172.3380  145.9120 O   0  0  0  0  0  0  0  0  0  0  0  0
  196.0400  173.1370  145.2320 N   0  0  0  0  0  1  0  0  0  0  0  0
  185.6180  179.4770  145.7630 C   0  0  0  0  0  2  0  0  0  0  0  0
  184.9090  178.3680  146.5270 C   0  0  0  0  0  2  0  0  0  0  0  0
  186.4260  179.0720  148.3770 C   0  0  0  0  0  1  0  0  0  0  0  0
  185.7360  177.8950  147.7130 C   0  0  0  0  0  2  0  0  0  0  0  0
  1  9  1  1  0  0  0
  1 12  1  0  0  0  0
  2 11  2  0  0  0  0
  2 10  1  0  0  0  0
  3 30  1  0  0  0  0
  4  6  2  0  0  0  0
  5  6  1  0  0  0  0
  5  7  1  0  0  0  0
  6 45  1  0  0  0  0
  8  1  1  0  0  0  0
  8  5  1  0  0  0  0
 10  8  2  0  0  0  0
 11  9  1  0  0  0  0
 12  7  2  0  0  0  0
 12  3  1  0  0  0  0
 13 20  2  0  0  0  0
 14 16  1  0  0  0  0
 14 15  2  0  0  0  0
 15 18  1  0  0  0  0
 16 19  1  0  0  0  0
 17 11  1  0  0  0  0
 19 18  1  0  0  0  0
 19 20  1  0  0  0  0
 20 17  1  0  0  0  0
 22 28  1  1  0  0  0
 22 26  1  0  0  0  0
 23 15  1  1  0  0  0
 23 24  1  0  0  0  0
 23 22  1  0  0  0  0
 24 25  1  0  0  0  0
 25 26  1  0  0  0  0
 26 21  1  6  0  0  0
 28 27  1  0  0  0  0
 30 32  1  0  0  0  0
 30 29  1  1  0  0  0
 32 31  1  1  0  0  0
 33 34  1  0  0  0  0
 33 32  1  0  0  0  0
 35 42  1  0  0  0  0
 35 34  1  1  0  0  0
 36 38  1  0  0  0  0
 37 39  1  0  0  0  0
 38 40  1  0  0  0  0
 39 35  1  0  0  0  0
 40 39  1  0  0  0  0
 41 36  1  0  0  0  0
 41 37  1  0  0  0  0
 42 43  2  0  0  0  0
 44 42  1  0  0  0  0
 45 46  1  0  0  0  0
 46 48  1  0  0  0  0
 48 47  1  0  0  0  0
M  END
>  <MODEL>
9

>  <REMARK>
 VINA RESULT:      -6.4      1.418      2.349
  Name = 
  13 active torsions:
  status: ('A' for Active; 'I' for Inactive)
    1  A    between atoms: C_5  and  C_14
    2  A    between atoms: C_7  and  C_10
    3  A    between atoms: C_9  and  C_26
    4  A    between atoms: C_9  and  C_39
    5  A    between atoms: N_13  and  C_40
    6  A    between atoms: C_17  and  C_32
    7  A    between atoms: N_19  and  C_30
    8  A    between atoms: C_26  and  C_27
    9  A    between atoms: C_30  and  C_36
   10  A    between atoms: C_32  and  C_34
   11  A    between atoms: C_32  and  N_42
   12  A    between atoms: C_34  and  C_43
   13  A    between atoms: C_36  and  C_43
                            x       y       z     vdW  Elec       q    Type
                         _______ _______ _______ _____ _____    ______ ____

>  <TORSDO>
F 13

$$$$
