=
 OpenBabel11042416543D

 35 39  0  0  1  0  0  0  0  0999 V2000
  191.2960  175.0100  145.2920 N   0  0  0  0  0  0  0  0  0  0  0  0
  191.0940  173.2260  143.5680 C   0  0  0  0  0  0  0  0  0  0  0  0
  191.7890  173.6850  141.2890 C   0  0  0  0  0  0  0  0  0  0  0  0
  192.1500  174.9840  141.6550 C   0  0  0  0  0  3  0  0  0  0  0  0
  191.2560  172.8130  142.2410 C   0  0  0  0  0  3  0  0  0  0  0  0
  191.9850  175.4070  142.9760 C   0  0  0  0  0  3  0  0  0  0  0  0
  191.4680  174.5360  143.9440 C   0  0  0  0  0  0  0  0  0  0  0  0
  191.9620  173.2340  139.8840 C   0  0  0  0  0  1  0  0  0  0  0  0
  190.4560  172.2850  144.5330 C   0  0  0  0  0  2  0  0  0  0  0  0
  189.2000  171.9040  144.0620 O   0  0  0  0  0  1  0  0  0  0  0  0
  187.6240  176.6960  146.6230 C   0  0  0  0  0  0  0  0  0  0  0  0
  190.0540  175.5900  145.7410 C   0  0  0  0  0  0  0  0  0  0  0  0
  189.3390  174.9970  146.7940 C   0  0  0  0  0  3  0  0  0  0  0  0
  188.3200  177.2900  145.5660 C   0  0  0  0  0  3  0  0  0  0  0  0
  188.1350  175.5470  147.2360 C   0  0  0  0  0  3  0  0  0  0  0  0
  189.5250  176.7380  145.1250 C   0  0  0  0  0  3  0  0  0  0  0  0
  186.3580  177.3020  147.1180 C   0  0  0  0  0  2  0  0  0  0  0  0
  185.4130  177.5420  145.9570 C   0  0  0  0  0  2  0  0  0  0  0  0
  185.1230  178.9070  145.8610 O   0  0  0  0  0  0  0  0  0  0  0  0
  183.9600  178.8090  143.8060 N   0  0  0  0  0  2  0  0  0  0  0  0
  185.1920  179.2100  144.4950 C   0  0  1  0  0  0  0  0  0  0  0  0
  185.5920  180.4840  144.1210 F   0  0  0  0  0  0  0  0  0  0  0  0
  185.2200  178.0820  143.5610 C   0  0  2  0  0  3  0  0  0  0  0  0
  186.3790  177.2790  141.5310 C   0  0  0  0  0  2  0  0  0  0  0  0
  187.2900  178.2670  142.2250 C   0  0  0  0  0  2  0  0  0  0  0  0
  185.7930  178.4960  142.2180 C   0  0  0  0  0  3  0  0  0  0  0  0
  192.3260  174.7860  146.2200 N   0  0  0  0  0  2  0  0  0  0  0  0
  192.8660  176.0850  146.5990 C   0  0  0  0  0  2  0  0  0  0  0  0
  194.3770  176.0810  146.4420 C   0  0  0  0  0  2  0  0  0  0  0  0
  194.8020  176.9960  145.3060 C   0  0  0  0  0  2  0  0  0  0  0  0
  195.1170  176.1940  144.0500 C   0  0  2  0  0  3  0  0  0  0  0  0
  197.0720  175.3000  143.8970 N   0  0  0  0  0  2  0  0  0  0  0  0
  195.2120  173.7510  143.6210 C   0  0  0  0  0  1  0  0  0  0  0  0
  195.7810  174.8960  144.4400 C   0  0  2  0  0  3  0  0  0  0  0  0
  196.4780  176.5720  143.5070 C   0  0  0  0  0  2  0  0  0  0  0  0
  1 12  1  0  0  0  0
  1 27  1  0  0  0  0
  2  7  1  0  0  0  0
  2  9  1  0  0  0  0
  3  4  2  0  0  0  0
  3  5  1  0  0  0  0
  4  6  1  0  0  0  0
  5  2  2  0  0  0  0
  6  7  2  0  0  0  0
  7  1  1  0  0  0  0
  8  3  1  0  0  0  0
 10  9  1  0  0  0  0
 11 17  1  0  0  0  0
 11 15  1  0  0  0  0
 12 13  1  0  0  0  0
 13 15  2  0  0  0  0
 14 11  2  0  0  0  0
 16 14  1  0  0  0  0
 16 12  2  0  0  0  0
 18 17  1  0  0  0  0
 19 18  1  0  0  0  0
 20 21  1  0  0  0  0
 21 22  1  6  0  0  0
 21 19  1  0  0  0  0
 23 26  1  6  0  0  0
 23 20  1  0  0  0  0
 23 21  1  0  0  0  0
 24 26  1  0  0  0  0
 24 25  1  0  0  0  0
 26 25  1  0  0  0  0
 27 28  1  0  0  0  0
 29 28  1  0  0  0  0
 30 29  1  0  0  0  0
 31 34  1  0  0  0  0
 31 30  1  1  0  0  0
 32 34  1  0  0  0  0
 34 33  1  6  0  0  0
 35 32  1  0  0  0  0
 35 31  1  0  0  0  0
M  END
>  <MODEL>
1

>  <REMARK>
 VINA RESULT:      -6.8      0.000      0.000
  Name = 
  13 active torsions:
  status: ('A' for Active; 'I' for Inactive)
    1  A    between atoms: C_1  and  C_20
    2  A    between atoms: C_3  and  C_8
    3  A    between atoms: C_3  and  C_28
    4  A    between atoms: C_4  and  C_7
    5  A    between atoms: N_5  and  C_11
    6  A    between atoms: N_5  and  N_31
    7  A    between atoms: C_11  and  C_30
    8  A    between atoms: C_15  and  O_17
    9  A    between atoms: O_17  and  C_28
   10  A    between atoms: C_20  and  C_30
   11  A    between atoms: C_21  and  N_31
   12  A    between atoms: C_23  and  C_29
   13  A    between atoms: N_31  and  C_32
                            x       y       z     vdW  Elec       q    Type
                         _______ _______ _______ _____ _____    ______ ____

>  <TORSDO>
F 13

$$$$
=
 OpenBabel11042416543D

 35 39  0  0  1  0  0  0  0  0999 V2000
  189.9660  175.3960  142.7750 N   0  0  0  0  0  0  0  0  0  0  0  0
  190.9450  175.0100  145.0300 C   0  0  0  0  0  0  0  0  0  0  0  0
  193.0950  175.9900  145.5810 C   0  0  0  0  0  0  0  0  0  0  0  0
  193.1660  176.5620  144.3080 C   0  0  0  0  0  3  0  0  0  0  0  0
  191.9920  175.2110  145.9360 C   0  0  0  0  0  3  0  0  0  0  0  0
  192.1290  176.3620  143.3940 C   0  0  0  0  0  3  0  0  0  0  0  0
  191.0090  175.5970  143.7450 C   0  0  0  0  0  0  0  0  0  0  0  0
  194.1990  176.2010  146.5530 C   0  0  0  0  0  1  0  0  0  0  0  0
  189.8220  174.1130  145.4280 C   0  0  0  0  0  2  0  0  0  0  0  0
  189.6250  174.1850  146.8070 O   0  0  0  0  0  1  0  0  0  0  0  0
  186.2780  177.5110  142.9420 C   0  0  0  0  0  0  0  0  0  0  0  0
  188.7190  176.1200  142.8380 C   0  0  0  0  0  0  0  0  0  0  0  0
  187.5000  175.4330  142.7280 C   0  0  0  0  0  3  0  0  0  0  0  0
  187.4850  178.2090  143.0420 C   0  0  0  0  0  3  0  0  0  0  0  0
  186.2860  176.1220  142.7840 C   0  0  0  0  0  3  0  0  0  0  0  0
  188.6980  177.5180  142.9850 C   0  0  0  0  0  3  0  0  0  0  0  0
  184.9840  178.2410  143.0370 C   0  0  0  0  0  2  0  0  0  0  0  0
  185.0000  179.1620  144.2410 C   0  0  0  0  0  2  0  0  0  0  0  0
  184.0000  178.7800  145.1400 O   0  0  0  0  0  0  0  0  0  0  0  0
  184.8800  179.0470  147.3160 N   0  0  0  0  0  2  0  0  0  0  0  0
  184.6650  178.1330  146.1890 C   0  0  1  0  0  0  0  0  0  0  0  0
  184.1880  176.9030  146.6150 F   0  0  0  0  0  0  0  0  0  0  0  0
  186.0220  178.5890  146.5010 C   0  0  2  0  0  3  0  0  0  0  0  0
  188.2090  177.4580  146.7170 C   0  0  0  0  0  2  0  0  0  0  0  0
  187.1870  176.4200  146.3060 C   0  0  0  0  0  2  0  0  0  0  0  0
  186.7970  177.5290  147.2620 C   0  0  0  0  0  3  0  0  0  0  0  0
  190.2230  174.5640  141.6730 N   0  0  0  0  0  2  0  0  0  0  0  0
  190.4470  173.2170  142.1820 C   0  0  0  0  0  2  0  0  0  0  0  0
  189.6870  172.2130  141.3340 C   0  0  0  0  0  2  0  0  0  0  0  0
  188.6800  172.9160  140.4390 C   0  0  0  0  0  2  0  0  0  0  0  0
  188.7570  172.3870  139.0130 C   0  0  2  0  0  3  0  0  0  0  0  0
  190.6530  172.5230  137.9960 N   0  0  0  0  0  2  0  0  0  0  0  0
  189.6870  170.2880  138.0680 C   0  0  0  0  0  1  0  0  0  0  0  0
  190.0010  171.5460  138.8590 C   0  0  2  0  0  3  0  0  0  0  0  0
  189.4780  173.3740  138.1200 C   0  0  0  0  0  2  0  0  0  0  0  0
  1 12  1  0  0  0  0
  1  7  1  0  0  0  0
  2  9  1  0  0  0  0
  2  5  1  0  0  0  0
  3  5  2  0  0  0  0
  3  8  1  0  0  0  0
  4  3  1  0  0  0  0
  6  7  1  0  0  0  0
  6  4  2  0  0  0  0
  7  2  2  0  0  0  0
  9 10  1  0  0  0  0
 11 17  1  0  0  0  0
 11 14  1  0  0  0  0
 12 16  1  0  0  0  0
 13 15  1  0  0  0  0
 13 12  2  0  0  0  0
 15 11  2  0  0  0  0
 16 14  2  0  0  0  0
 17 18  1  0  0  0  0
 18 19  1  0  0  0  0
 19 21  1  0  0  0  0
 21 23  1  0  0  0  0
 21 22  1  1  0  0  0
 21 20  1  0  0  0  0
 23 26  1  1  0  0  0
 23 20  1  0  0  0  0
 24 26  1  0  0  0  0
 25 24  1  0  0  0  0
 25 26  1  0  0  0  0
 27 28  1  0  0  0  0
 27  1  1  0  0  0  0
 29 28  1  0  0  0  0
 30 29  1  0  0  0  0
 31 30  1  1  0  0  0
 32 35  1  0  0  0  0
 32 34  1  0  0  0  0
 34 33  1  6  0  0  0
 34 31  1  0  0  0  0
 35 31  1  0  0  0  0
M  END
>  <MODEL>
2

>  <REMARK>
 VINA RESULT:      -6.8      2.568      5.306
  Name = 
  13 active torsions:
  status: ('A' for Active; 'I' for Inactive)
    1  A    between atoms: C_1  and  C_20
    2  A    between atoms: C_3  and  C_8
    3  A    between atoms: C_3  and  C_28
    4  A    between atoms: C_4  and  C_7
    5  A    between atoms: N_5  and  C_11
    6  A    between atoms: N_5  and  N_31
    7  A    between atoms: C_11  and  C_30
    8  A    between atoms: C_15  and  O_17
    9  A    between atoms: O_17  and  C_28
   10  A    between atoms: C_20  and  C_30
   11  A    between atoms: C_21  and  N_31
   12  A    between atoms: C_23  and  C_29
   13  A    between atoms: N_31  and  C_32
                            x       y       z     vdW  Elec       q    Type
                         _______ _______ _______ _____ _____    ______ ____

>  <TORSDO>
F 13

$$$$
=
 OpenBabel11042416543D

 35 39  0  0  1  0  0  0  0  0999 V2000
  190.3010  175.2650  142.8250 N   0  0  0  0  0  0  0  0  0  0  0  0
  191.1600  175.1750  145.1590 C   0  0  0  0  0  0  0  0  0  0  0  0
  193.2680  176.2500  145.6960 C   0  0  0  0  0  0  0  0  0  0  0  0
  193.4020  176.6630  144.3680 C   0  0  0  0  0  3  0  0  0  0  0  0
  192.1550  175.5020  146.0860 C   0  0  0  0  0  3  0  0  0  0  0  0
  192.4170  176.3340  143.4330 C   0  0  0  0  0  3  0  0  0  0  0  0
  191.2870  175.6000  143.8160 C   0  0  0  0  0  0  0  0  0  0  0  0
  194.3150  176.5970  146.6920 C   0  0  0  0  0  1  0  0  0  0  0  0
  190.0250  174.3160  145.6050 C   0  0  0  0  0  2  0  0  0  0  0  0
  189.8640  174.4260  146.9860 O   0  0  0  0  0  1  0  0  0  0  0  0
  186.5570  177.2790  142.6490 C   0  0  0  0  0  0  0  0  0  0  0  0
  189.0270  175.9410  142.7600 C   0  0  0  0  0  0  0  0  0  0  0  0
  188.9750  177.3430  142.7330 C   0  0  0  0  0  3  0  0  0  0  0  0
  186.5940  175.8820  142.6860 C   0  0  0  0  0  3  0  0  0  0  0  0
  187.7490  178.0090  142.6740 C   0  0  0  0  0  3  0  0  0  0  0  0
  187.8220  175.2170  142.7460 C   0  0  0  0  0  3  0  0  0  0  0  0
  185.2520  177.9880  142.5500 C   0  0  0  0  0  2  0  0  0  0  0  0
  185.0870  178.9290  143.7280 C   0  0  0  0  0  2  0  0  0  0  0  0
  184.0910  178.4440  144.5810 O   0  0  0  0  0  0  0  0  0  0  0  0
  184.9490  179.1980  146.6490 N   0  0  0  0  0  2  0  0  0  0  0  0
  184.7550  178.0550  145.7500 C   0  0  1  0  0  0  0  0  0  0  0  0
  184.2890  176.9430  146.4360 F   0  0  0  0  0  0  0  0  0  0  0  0
  186.1040  178.5870  145.9620 C   0  0  2  0  0  3  0  0  0  0  0  0
  188.2870  177.5190  146.4100 C   0  0  0  0  0  2  0  0  0  0  0  0
  187.2530  176.4230  146.2750 C   0  0  0  0  0  2  0  0  0  0  0  0
  186.8840  177.7320  146.9430 C   0  0  0  0  0  3  0  0  0  0  0  0
  190.6410  174.3410  141.8230 N   0  0  0  0  0  2  0  0  0  0  0  0
  190.6400  173.0160  142.4290 C   0  0  0  0  0  2  0  0  0  0  0  0
  192.0630  172.4960  142.5350 C   0  0  0  0  0  2  0  0  0  0  0  0
  192.2890  171.8170  143.8750 C   0  0  0  0  0  2  0  0  0  0  0  0
  193.4920  172.4140  144.5920 C   0  0  2  0  0  3  0  0  0  0  0  0
  195.3640  171.3520  144.4630 N   0  0  0  0  0  2  0  0  0  0  0  0
  195.4570  173.6830  143.7610 C   0  0  0  0  0  1  0  0  0  0  0  0
  194.6900  172.3760  143.6740 C   0  0  2  0  0  3  0  0  0  0  0  0
  194.2270  171.3480  145.3740 C   0  0  0  0  0  2  0  0  0  0  0  0
  1  7  1  0  0  0  0
  2  9  1  0  0  0  0
  2  5  1  0  0  0  0
  3  5  2  0  0  0  0
  3  8  1  0  0  0  0
  4  3  1  0  0  0  0
  6  7  1  0  0  0  0
  6  4  2  0  0  0  0
  7  2  2  0  0  0  0
  9 10  1  0  0  0  0
 11 15  2  0  0  0  0
 11 14  1  0  0  0  0
 12  1  1  0  0  0  0
 13 12  2  0  0  0  0
 14 16  2  0  0  0  0
 15 13  1  0  0  0  0
 16 12  1  0  0  0  0
 17 11  1  0  0  0  0
 17 18  1  0  0  0  0
 18 19  1  0  0  0  0
 19 21  1  0  0  0  0
 21 23  1  0  0  0  0
 21 22  1  1  0  0  0
 21 20  1  0  0  0  0
 23 20  1  0  0  0  0
 23 26  1  1  0  0  0
 24 26  1  0  0  0  0
 25 24  1  0  0  0  0
 25 26  1  0  0  0  0
 27 28  1  0  0  0  0
 27  1  1  0  0  0  0
 28 29  1  0  0  0  0
 29 30  1  0  0  0  0
 31 30  1  6  0  0  0
 31 35  1  0  0  0  0
 32 35  1  0  0  0  0
 34 33  1  1  0  0  0
 34 32  1  0  0  0  0
 34 31  1  0  0  0  0
M  END
>  <MODEL>
3

>  <REMARK>
 VINA RESULT:      -6.7      2.058      4.171
  Name = 
  13 active torsions:
  status: ('A' for Active; 'I' for Inactive)
    1  A    between atoms: C_1  and  C_20
    2  A    between atoms: C_3  and  C_8
    3  A    between atoms: C_3  and  C_28
    4  A    between atoms: C_4  and  C_7
    5  A    between atoms: N_5  and  C_11
    6  A    between atoms: N_5  and  N_31
    7  A    between atoms: C_11  and  C_30
    8  A    between atoms: C_15  and  O_17
    9  A    between atoms: O_17  and  C_28
   10  A    between atoms: C_20  and  C_30
   11  A    between atoms: C_21  and  N_31
   12  A    between atoms: C_23  and  C_29
   13  A    between atoms: N_31  and  C_32
                            x       y       z     vdW  Elec       q    Type
                         _______ _______ _______ _____ _____    ______ ____

>  <TORSDO>
F 13

$$$$
=
 OpenBabel11042416543D

 35 39  0  0  1  0  0  0  0  0999 V2000
  192.0310  174.3390  143.7450 N   0  0  0  0  0  0  0  0  0  0  0  0
  194.4620  174.5970  144.2090 C   0  0  0  0  0  0  0  0  0  0  0  0
  195.6200  172.8920  145.4880 C   0  0  0  0  0  0  0  0  0  0  0  0
  194.4330  172.1660  145.6050 C   0  0  0  0  0  3  0  0  0  0  0  0
  195.6320  174.1070  144.8000 C   0  0  0  0  0  3  0  0  0  0  0  0
  193.2580  172.6510  145.0250 C   0  0  0  0  0  3  0  0  0  0  0  0
  193.2610  173.8590  144.3160 C   0  0  0  0  0  0  0  0  0  0  0  0
  196.8700  172.3770  146.1070 C   0  0  0  0  0  1  0  0  0  0  0  0
  194.5060  175.9320  143.5450 C   0  0  0  0  0  2  0  0  0  0  0  0
  195.7230  176.5560  143.8180 O   0  0  0  0  0  1  0  0  0  0  0  0
  189.2240  176.5940  146.0120 C   0  0  0  0  0  0  0  0  0  0  0  0
  191.0850  175.1110  144.5140 C   0  0  0  0  0  0  0  0  0  0  0  0
  190.2250  174.4720  145.4200 C   0  0  0  0  0  3  0  0  0  0  0  0
  190.0680  177.2430  145.1040 C   0  0  0  0  0  3  0  0  0  0  0  0
  189.3040  175.2070  146.1680 C   0  0  0  0  0  3  0  0  0  0  0  0
  190.9890  176.5050  144.3560 C   0  0  0  0  0  3  0  0  0  0  0  0
  188.2670  177.3820  146.8350 C   0  0  0  0  0  2  0  0  0  0  0  0
  186.9140  176.6970  146.8480 C   0  0  0  0  0  2  0  0  0  0  0  0
  186.0540  177.3690  147.7210 O   0  0  0  0  0  0  0  0  0  0  0  0
  184.0160  178.2680  146.9310 N   0  0  0  0  0  2  0  0  0  0  0  0
  185.4770  178.3960  146.9630 C   0  0  1  0  0  0  0  0  0  0  0  0
  185.8680  179.7030  147.2150 F   0  0  0  0  0  0  0  0  0  0  0  0
  184.8120  178.0130  145.7150 C   0  0  2  0  0  3  0  0  0  0  0  0
  184.5930  178.6860  143.3470 C   0  0  0  0  0  2  0  0  0  0  0  0
  185.9050  179.2320  143.8660 C   0  0  0  0  0  2  0  0  0  0  0  0
  184.6910  179.1940  144.7710 C   0  0  0  0  0  3  0  0  0  0  0  0
  191.8090  174.1510  142.3700 N   0  0  0  0  0  2  0  0  0  0  0  0
  191.0730  172.9030  142.2110 C   0  0  0  0  0  2  0  0  0  0  0  0
  189.6570  173.1950  141.7450 C   0  0  0  0  0  2  0  0  0  0  0  0
  189.5860  174.5470  141.0540 C   0  0  0  0  0  2  0  0  0  0  0  0
  188.1730  175.1120  141.1090 C   0  0  2  0  0  3  0  0  0  0  0  0
  187.5460  176.0650  142.9380 N   0  0  0  0  0  2  0  0  0  0  0  0
  187.3040  177.4300  140.9350 C   0  0  0  0  0  1  0  0  0  0  0  0
  188.2110  176.4940  141.7140 C   0  0  2  0  0  3  0  0  0  0  0  0
  187.4920  174.7120  142.4000 C   0  0  0  0  0  2  0  0  0  0  0  0
  1  7  1  0  0  0  0
  1 12  1  0  0  0  0
  2  7  2  0  0  0  0
  2  5  1  0  0  0  0
  3  4  1  0  0  0  0
  3  8  1  0  0  0  0
  5  3  2  0  0  0  0
  6  4  2  0  0  0  0
  7  6  1  0  0  0  0
  9 10  1  0  0  0  0
  9  2  1  0  0  0  0
 11 15  1  0  0  0  0
 11 17  1  0  0  0  0
 12 13  1  0  0  0  0
 13 15  2  0  0  0  0
 14 11  2  0  0  0  0
 16 12  2  0  0  0  0
 16 14  1  0  0  0  0
 17 18  1  0  0  0  0
 18 19  1  0  0  0  0
 20 21  1  0  0  0  0
 21 22  1  1  0  0  0
 21 19  1  0  0  0  0
 23 26  1  6  0  0  0
 23 20  1  0  0  0  0
 23 21  1  0  0  0  0
 24 25  1  0  0  0  0
 24 26  1  0  0  0  0
 25 26  1  0  0  0  0
 27  1  1  0  0  0  0
 28 27  1  0  0  0  0
 29 28  1  0  0  0  0
 30 29  1  0  0  0  0
 31 30  1  1  0  0  0
 31 34  1  0  0  0  0
 31 35  1  0  0  0  0
 34 33  1  6  0  0  0
 34 32  1  0  0  0  0
 35 32  1  0  0  0  0
M  END
>  <MODEL>
4

>  <REMARK>
 VINA RESULT:      -6.7      2.414      5.087
  Name = 
  13 active torsions:
  status: ('A' for Active; 'I' for Inactive)
    1  A    between atoms: C_1  and  C_20
    2  A    between atoms: C_3  and  C_8
    3  A    between atoms: C_3  and  C_28
    4  A    between atoms: C_4  and  C_7
    5  A    between atoms: N_5  and  C_11
    6  A    between atoms: N_5  and  N_31
    7  A    between atoms: C_11  and  C_30
    8  A    between atoms: C_15  and  O_17
    9  A    between atoms: O_17  and  C_28
   10  A    between atoms: C_20  and  C_30
   11  A    between atoms: C_21  and  N_31
   12  A    between atoms: C_23  and  C_29
   13  A    between atoms: N_31  and  C_32
                            x       y       z     vdW  Elec       q    Type
                         _______ _______ _______ _____ _____    ______ ____

>  <TORSDO>
F 13

$$$$
=
 OpenBabel11042416543D

 35 39  0  0  1  0  0  0  0  0999 V2000
  190.4330  175.5690  144.3180 N   0  0  0  0  0  0  0  0  0  0  0  0
  188.7550  175.2250  142.5130 C   0  0  0  0  0  0  0  0  0  0  0  0
  187.7500  177.1520  141.4350 C   0  0  0  0  0  0  0  0  0  0  0  0
  188.5040  178.0040  142.2440 C   0  0  0  0  0  3  0  0  0  0  0  0
  187.8700  175.7670  141.5760 C   0  0  0  0  0  3  0  0  0  0  0  0
  189.3860  177.4720  143.1880 C   0  0  0  0  0  3  0  0  0  0  0  0
  189.5290  176.0850  143.3260 C   0  0  0  0  0  0  0  0  0  0  0  0
  186.8100  177.7170  140.4320 C   0  0  0  0  0  1  0  0  0  0  0  0
  188.7980  173.7430  142.6760 C   0  0  0  0  0  2  0  0  0  0  0  0
  189.7880  173.2040  141.8540 O   0  0  0  0  0  1  0  0  0  0  0  0
  194.6490  176.0130  143.9610 C   0  0  0  0  0  0  0  0  0  0  0  0
  191.8620  175.7290  144.2010 C   0  0  0  0  0  0  0  0  0  0  0  0
  192.5490  175.1520  143.1210 C   0  0  0  0  0  3  0  0  0  0  0  0
  193.9790  176.5820  145.0480 C   0  0  0  0  0  3  0  0  0  0  0  0
  193.9320  175.2970  142.9970 C   0  0  0  0  0  3  0  0  0  0  0  0
  192.5950  176.4370  145.1700 C   0  0  0  0  0  3  0  0  0  0  0  0
  196.1180  176.1960  143.8100 C   0  0  0  0  0  2  0  0  0  0  0  0
  196.7800  174.8580  143.5460 C   0  0  0  0  0  2  0  0  0  0  0  0
  197.6650  174.5570  144.5850 O   0  0  0  0  0  0  0  0  0  0  0  0
  197.5130  172.2450  145.0490 N   0  0  0  0  0  2  0  0  0  0  0  0
  197.0160  173.5890  145.3620 C   0  0  1  0  0  0  0  0  0  0  0  0
  196.9280  173.7920  146.7310 F   0  0  0  0  0  0  0  0  0  0  0  0
  196.1460  172.6420  144.6610 C   0  0  2  0  0  3  0  0  0  0  0  0
  193.9130  171.5960  144.8290 C   0  0  0  0  0  2  0  0  0  0  0  0
  193.8940  172.8650  145.6520 C   0  0  0  0  0  2  0  0  0  0  0  0
  195.1440  172.0100  145.6090 C   0  0  0  0  0  3  0  0  0  0  0  0
  189.8970  175.0050  145.4890 N   0  0  0  0  0  2  0  0  0  0  0  0
  189.5310  176.1010  146.3760 C   0  0  0  0  0  2  0  0  0  0  0  0
  188.0230  176.1360  146.5570 C   0  0  0  0  0  2  0  0  0  0  0  0
  187.4950  177.5520  146.3960 C   0  0  0  0  0  2  0  0  0  0  0  0
  186.3620  177.5970  145.3800 C   0  0  2  0  0  3  0  0  0  0  0  0
  184.5170  178.5390  145.9780 N   0  0  0  0  0  2  0  0  0  0  0  0
  185.5020  179.4210  143.9310 C   0  0  0  0  0  1  0  0  0  0  0  0
  185.7620  178.9820  145.3620 C   0  0  2  0  0  3  0  0  0  0  0  0
  185.0560  177.1860  146.0240 C   0  0  0  0  0  2  0  0  0  0  0  0
  1 27  1  0  0  0  0
  2  9  1  0  0  0  0
  2  7  1  0  0  0  0
  3  5  1  0  0  0  0
  3  4  2  0  0  0  0
  4  6  1  0  0  0  0
  5  2  2  0  0  0  0
  6  7  2  0  0  0  0
  7  1  1  0  0  0  0
  8  3  1  0  0  0  0
 10  9  1  0  0  0  0
 11 14  1  0  0  0  0
 12  1  1  0  0  0  0
 12 16  1  0  0  0  0
 13 12  2  0  0  0  0
 14 16  2  0  0  0  0
 15 13  1  0  0  0  0
 15 11  2  0  0  0  0
 17 11  1  0  0  0  0
 18 17  1  0  0  0  0
 18 19  1  0  0  0  0
 19 21  1  0  0  0  0
 20 21  1  0  0  0  0
 21 22  1  1  0  0  0
 23 20  1  0  0  0  0
 23 21  1  0  0  0  0
 23 26  1  1  0  0  0
 24 26  1  0  0  0  0
 24 25  1  0  0  0  0
 26 25  1  0  0  0  0
 27 28  1  0  0  0  0
 28 29  1  0  0  0  0
 30 29  1  0  0  0  0
 31 35  1  0  0  0  0
 31 30  1  1  0  0  0
 32 35  1  0  0  0  0
 34 33  1  6  0  0  0
 34 31  1  0  0  0  0
 34 32  1  0  0  0  0
M  END
>  <MODEL>
5

>  <REMARK>
 VINA RESULT:      -6.7      3.227      8.578
  Name = 
  13 active torsions:
  status: ('A' for Active; 'I' for Inactive)
    1  A    between atoms: C_1  and  C_20
    2  A    between atoms: C_3  and  C_8
    3  A    between atoms: C_3  and  C_28
    4  A    between atoms: C_4  and  C_7
    5  A    between atoms: N_5  and  C_11
    6  A    between atoms: N_5  and  N_31
    7  A    between atoms: C_11  and  C_30
    8  A    between atoms: C_15  and  O_17
    9  A    between atoms: O_17  and  C_28
   10  A    between atoms: C_20  and  C_30
   11  A    between atoms: C_21  and  N_31
   12  A    between atoms: C_23  and  C_29
   13  A    between atoms: N_31  and  C_32
                            x       y       z     vdW  Elec       q    Type
                         _______ _______ _______ _____ _____    ______ ____

>  <TORSDO>
F 13

$$$$
=
 OpenBabel11042416543D

 35 39  0  0  1  0  0  0  0  0999 V2000
  192.4250  175.5040  143.9570 N   0  0  0  0  0  0  0  0  0  0  0  0
  194.5720  175.4530  145.2160 C   0  0  0  0  0  0  0  0  0  0  0  0
  195.6830  173.3300  145.5950 C   0  0  0  0  0  0  0  0  0  0  0  0
  194.6640  172.6680  144.9060 C   0  0  0  0  0  3  0  0  0  0  0  0
  195.6310  174.7160  145.7560 C   0  0  0  0  0  3  0  0  0  0  0  0
  193.5990  173.3950  144.3690 C   0  0  0  0  0  3  0  0  0  0  0  0
  193.5450  174.7880  144.5080 C   0  0  0  0  0  0  0  0  0  0  0  0
  196.8160  172.5580  146.1690 C   0  0  0  0  0  1  0  0  0  0  0  0
  194.5230  176.9220  145.4720 C   0  0  0  0  0  2  0  0  0  0  0  0
  194.1950  177.1580  146.8080 O   0  0  0  0  0  1  0  0  0  0  0  0
  188.8610  176.1540  146.1880 C   0  0  0  0  0  0  0  0  0  0  0  0
  191.2130  175.7150  144.7110 C   0  0  0  0  0  0  0  0  0  0  0  0
  190.6800  177.0070  144.8380 C   0  0  0  0  0  3  0  0  0  0  0  0
  189.3870  174.8630  146.0780 C   0  0  0  0  0  3  0  0  0  0  0  0
  189.5090  177.2260  145.5670 C   0  0  0  0  0  3  0  0  0  0  0  0
  190.5590  174.6460  145.3480 C   0  0  0  0  0  3  0  0  0  0  0  0
  187.5940  176.3820  146.9350 C   0  0  0  0  0  2  0  0  0  0  0  0
  186.4650  176.6610  145.9620 C   0  0  0  0  0  2  0  0  0  0  0  0
  186.0750  178.0000  146.0660 O   0  0  0  0  0  0  0  0  0  0  0  0
  184.9080  177.8980  144.0130 N   0  0  0  0  0  2  0  0  0  0  0  0
  186.0340  178.4810  144.7510 C   0  0  1  0  0  0  0  0  0  0  0  0
  186.1200  179.8510  144.5470 F   0  0  0  0  0  0  0  0  0  0  0  0
  186.2950  177.5190  143.6780 C   0  0  2  0  0  3  0  0  0  0  0  0
  187.2660  177.1970  141.4280 C   0  0  0  0  0  2  0  0  0  0  0  0
  188.2150  178.0650  142.2240 C   0  0  0  0  0  2  0  0  0  0  0  0
  186.7190  178.2210  142.4010 C   0  0  0  0  0  3  0  0  0  0  0  0
  192.5690  176.1140  142.7000 N   0  0  0  0  0  2  0  0  0  0  0  0
  192.6520  175.0540  141.7040 C   0  0  0  0  0  2  0  0  0  0  0  0
  191.2950  174.3900  141.5440 C   0  0  0  0  0  2  0  0  0  0  0  0
  191.4540  172.9120  141.2290 C   0  0  0  0  0  2  0  0  0  0  0  0
  190.1240  172.1820  141.3650 C   0  0  2  0  0  3  0  0  0  0  0  0
  189.3230  171.9200  143.3490 N   0  0  0  0  0  2  0  0  0  0  0  0
  187.8150  172.9990  141.7680 C   0  0  0  0  0  1  0  0  0  0  0  0
  189.2310  172.9430  142.3140 C   0  0  2  0  0  3  0  0  0  0  0  0
  190.1950  171.1520  142.4710 C   0  0  0  0  0  2  0  0  0  0  0  0
  1  7  1  0  0  0  0
  1 12  1  0  0  0  0
  2  9  1  0  0  0  0
  2  5  1  0  0  0  0
  3  5  2  0  0  0  0
  3  8  1  0  0  0  0
  4  3  1  0  0  0  0
  6  7  1  0  0  0  0
  6  4  2  0  0  0  0
  7  2  2  0  0  0  0
  9 10  1  0  0  0  0
 11 17  1  0  0  0  0
 12 13  2  0  0  0  0
 12 16  1  0  0  0  0
 13 15  1  0  0  0  0
 14 11  1  0  0  0  0
 15 11  2  0  0  0  0
 16 14  2  0  0  0  0
 18 19  1  0  0  0  0
 18 17  1  0  0  0  0
 20 21  1  0  0  0  0
 21 22  1  6  0  0  0
 21 19  1  0  0  0  0
 23 26  1  6  0  0  0
 23 20  1  0  0  0  0
 23 21  1  0  0  0  0
 24 25  1  0  0  0  0
 24 26  1  0  0  0  0
 25 26  1  0  0  0  0
 27  1  1  0  0  0  0
 28 27  1  0  0  0  0
 29 28  1  0  0  0  0
 30 29  1  0  0  0  0
 31 30  1  1  0  0  0
 31 34  1  0  0  0  0
 31 35  1  0  0  0  0
 34 33  1  6  0  0  0
 34 32  1  0  0  0  0
 35 32  1  0  0  0  0
M  END
>  <MODEL>
6

>  <REMARK>
 VINA RESULT:      -6.6      2.149      4.656
  Name = 
  13 active torsions:
  status: ('A' for Active; 'I' for Inactive)
    1  A    between atoms: C_1  and  C_20
    2  A    between atoms: C_3  and  C_8
    3  A    between atoms: C_3  and  C_28
    4  A    between atoms: C_4  and  C_7
    5  A    between atoms: N_5  and  C_11
    6  A    between atoms: N_5  and  N_31
    7  A    between atoms: C_11  and  C_30
    8  A    between atoms: C_15  and  O_17
    9  A    between atoms: O_17  and  C_28
   10  A    between atoms: C_20  and  C_30
   11  A    between atoms: C_21  and  N_31
   12  A    between atoms: C_23  and  C_29
   13  A    between atoms: N_31  and  C_32
                            x       y       z     vdW  Elec       q    Type
                         _______ _______ _______ _____ _____    ______ ____

>  <TORSDO>
F 13

$$$$
=
 OpenBabel11042416543D

 35 39  0  0  1  0  0  0  0  0999 V2000
  192.0920  174.4950  144.9590 N   0  0  0  0  0  0  0  0  0  0  0  0
  194.2660  175.6700  144.6660 C   0  0  0  0  0  0  0  0  0  0  0  0
  195.0440  176.2020  142.4310 C   0  0  0  0  0  0  0  0  0  0  0  0
  193.8950  175.6220  141.8880 C   0  0  0  0  0  3  0  0  0  0  0  0
  195.2310  176.2180  143.8140 C   0  0  0  0  0  3  0  0  0  0  0  0
  192.9290  175.0660  142.7300 C   0  0  0  0  0  3  0  0  0  0  0  0
  193.0970  175.0920  144.1210 C   0  0  0  0  0  0  0  0  0  0  0  0
  196.0730  176.7930  141.5350 C   0  0  0  0  0  1  0  0  0  0  0  0
  194.5420  175.6470  146.1320 C   0  0  0  0  0  2  0  0  0  0  0  0
  194.5470  176.9480  146.6330 O   0  0  0  0  0  1  0  0  0  0  0  0
  188.7840  176.7470  146.4060 C   0  0  0  0  0  0  0  0  0  0  0  0
  190.9650  175.2510  145.4490 C   0  0  0  0  0  0  0  0  0  0  0  0
  190.8210  176.6040  145.1070 C   0  0  0  0  0  3  0  0  0  0  0  0
  188.9210  175.4020  146.7640 C   0  0  0  0  0  3  0  0  0  0  0  0
  189.7370  177.3480  145.5770 C   0  0  0  0  0  3  0  0  0  0  0  0
  190.0070  174.6600  146.2920 C   0  0  0  0  0  3  0  0  0  0  0  0
  187.6100  177.5290  146.8790 C   0  0  0  0  0  2  0  0  0  0  0  0
  186.3290  176.8830  146.3890 C   0  0  0  0  0  2  0  0  0  0  0  0
  185.2450  177.7240  146.6550 O   0  0  0  0  0  0  0  0  0  0  0  0
  183.8430  178.8560  145.1270 N   0  0  0  0  0  2  0  0  0  0  0  0
  185.2160  178.6430  145.5980 C   0  0  1  0  0  0  0  0  0  0  0  0
  185.8940  179.8440  145.7480 F   0  0  0  0  0  0  0  0  0  0  0  0
  184.8160  178.1370  144.2830 C   0  0  2  0  0  3  0  0  0  0  0  0
  185.5390  178.2290  141.9210 C   0  0  0  0  0  2  0  0  0  0  0  0
  186.7080  178.6530  142.7820 C   0  0  0  0  0  2  0  0  0  0  0  0
  185.3000  179.0500  143.1720 C   0  0  0  0  0  3  0  0  0  0  0  0
  192.1510  173.1130  145.2010 N   0  0  0  0  0  2  0  0  0  0  0  0
  191.8390  172.4340  143.9500 C   0  0  0  0  0  2  0  0  0  0  0  0
  190.4500  171.8250  144.0260 C   0  0  0  0  0  2  0  0  0  0  0  0
  189.6790  172.0800  142.7420 C   0  0  0  0  0  2  0  0  0  0  0  0
  189.6930  173.5600  142.3850 C   0  0  2  0  0  3  0  0  0  0  0  0
  188.4770  174.2020  140.7240 N   0  0  0  0  0  2  0  0  0  0  0  0
  188.0670  175.3870  142.8120 C   0  0  0  0  0  1  0  0  0  0  0  0
  188.2770  174.0330  142.1580 C   0  0  2  0  0  3  0  0  0  0  0  0
  189.8500  173.7440  140.8910 C   0  0  0  0  0  2  0  0  0  0  0  0
  1 27  1  0  0  0  0
  1 12  1  0  0  0  0
  2  9  1  0  0  0  0
  3  5  1  0  0  0  0
  4  3  2  0  0  0  0
  4  6  1  0  0  0  0
  5  2  2  0  0  0  0
  6  7  2  0  0  0  0
  7  2  1  0  0  0  0
  7  1  1  0  0  0  0
  8  3  1  0  0  0  0
  9 10  1  0  0  0  0
 11 14  1  0  0  0  0
 11 17  1  0  0  0  0
 12 16  1  0  0  0  0
 13 12  2  0  0  0  0
 13 15  1  0  0  0  0
 15 11  2  0  0  0  0
 16 14  2  0  0  0  0
 18 19  1  0  0  0  0
 18 17  1  0  0  0  0
 20 21  1  0  0  0  0
 21 22  1  1  0  0  0
 21 19  1  0  0  0  0
 23 26  1  6  0  0  0
 23 20  1  0  0  0  0
 23 21  1  0  0  0  0
 24 25  1  0  0  0  0
 24 26  1  0  0  0  0
 25 26  1  0  0  0  0
 28 29  1  0  0  0  0
 28 27  1  0  0  0  0
 30 29  1  0  0  0  0
 31 30  1  6  0  0  0
 32 35  1  0  0  0  0
 32 34  1  0  0  0  0
 34 31  1  0  0  0  0
 34 33  1  1  0  0  0
 35 31  1  0  0  0  0
M  END
>  <MODEL>
7

>  <REMARK>
 VINA RESULT:      -6.5      2.135      4.359
  Name = 
  13 active torsions:
  status: ('A' for Active; 'I' for Inactive)
    1  A    between atoms: C_1  and  C_20
    2  A    between atoms: C_3  and  C_8
    3  A    between atoms: C_3  and  C_28
    4  A    between atoms: C_4  and  C_7
    5  A    between atoms: N_5  and  C_11
    6  A    between atoms: N_5  and  N_31
    7  A    between atoms: C_11  and  C_30
    8  A    between atoms: C_15  and  O_17
    9  A    between atoms: O_17  and  C_28
   10  A    between atoms: C_20  and  C_30
   11  A    between atoms: C_21  and  N_31
   12  A    between atoms: C_23  and  C_29
   13  A    between atoms: N_31  and  C_32
                            x       y       z     vdW  Elec       q    Type
                         _______ _______ _______ _____ _____    ______ ____

>  <TORSDO>
F 13

$$$$
=
 OpenBabel11042416543D

 35 39  0  0  1  0  0  0  0  0999 V2000
  191.1310  175.5240  144.5620 N   0  0  0  0  0  0  0  0  0  0  0  0
  190.5670  173.8440  142.8150 C   0  0  0  0  0  0  0  0  0  0  0  0
  191.5250  171.6190  142.9450 C   0  0  0  0  0  0  0  0  0  0  0  0
  192.2000  171.9730  144.1160 C   0  0  0  0  0  3  0  0  0  0  0  0
  190.7190  172.5540  142.2940 C   0  0  0  0  0  3  0  0  0  0  0  0
  192.0610  173.2600  144.6400 C   0  0  0  0  0  3  0  0  0  0  0  0
  191.2400  174.2020  144.0050 C   0  0  0  0  0  0  0  0  0  0  0  0
  191.6750  170.2500  142.3850 C   0  0  0  0  0  1  0  0  0  0  0  0
  189.7520  174.8300  142.0480 C   0  0  0  0  0  2  0  0  0  0  0  0
  188.4050  174.6960  142.3860 O   0  0  0  0  0  1  0  0  0  0  0  0
  187.6190  176.8600  146.5590 C   0  0  0  0  0  0  0  0  0  0  0  0
  189.9370  175.9680  145.2400 C   0  0  0  0  0  0  0  0  0  0  0  0
  189.3460  177.1930  144.8950 C   0  0  0  0  0  3  0  0  0  0  0  0
  188.2050  175.6420  146.9200 C   0  0  0  0  0  3  0  0  0  0  0  0
  188.1920  177.6350  145.5450 C   0  0  0  0  0  3  0  0  0  0  0  0
  189.3590  175.2020  146.2680 C   0  0  0  0  0  3  0  0  0  0  0  0
  186.3700  177.3150  147.2270 C   0  0  0  0  0  2  0  0  0  0  0  0
  185.9270  178.6420  146.6430 C   0  0  0  0  0  2  0  0  0  0  0  0
  184.7210  178.4750  145.9570 O   0  0  0  0  0  0  0  0  0  0  0  0
  183.7050  178.9790  143.8840 N   0  0  0  0  0  2  0  0  0  0  0  0
  184.9320  179.0260  144.6870 C   0  0  1  0  0  0  0  0  0  0  0  0
  185.5500  180.2650  144.5990 F   0  0  0  0  0  0  0  0  0  0  0  0
  184.8520  178.1170  143.5410 C   0  0  2  0  0  3  0  0  0  0  0  0
  185.8930  177.5640  141.3690 C   0  0  0  0  0  2  0  0  0  0  0  0
  186.9740  178.1090  142.2770 C   0  0  0  0  0  2  0  0  0  0  0  0
  185.5750  178.6870  142.3350 C   0  0  0  0  0  3  0  0  0  0  0  0
  192.2640  176.3550  144.5490 N   0  0  0  0  0  2  0  0  0  0  0  0
  192.8560  176.3110  145.8790 C   0  0  0  0  0  2  0  0  0  0  0  0
  194.3470  176.5850  145.7890 C   0  0  0  0  0  2  0  0  0  0  0  0
  195.1380  175.2900  145.8690 C   0  0  0  0  0  2  0  0  0  0  0  0
  196.0430  175.1300  144.6550 C   0  0  2  0  0  3  0  0  0  0  0  0
  195.1690  175.4280  142.7080 N   0  0  0  0  0  2  0  0  0  0  0  0
  197.1360  176.7900  143.1680 C   0  0  0  0  0  1  0  0  0  0  0  0
  195.8100  176.2780  143.7030 C   0  0  2  0  0  3  0  0  0  0  0  0
  195.3650  174.2900  143.5950 C   0  0  0  0  0  2  0  0  0  0  0  0
  1 12  1  0  0  0  0
  2  7  1  0  0  0  0
  3  4  2  0  0  0  0
  4  6  1  0  0  0  0
  5  2  2  0  0  0  0
  5  3  1  0  0  0  0
  7  1  1  0  0  0  0
  7  6  2  0  0  0  0
  8  3  1  0  0  0  0
  9 10  1  0  0  0  0
  9  2  1  0  0  0  0
 11 14  1  0  0  0  0
 11 17  1  0  0  0  0
 12 16  1  0  0  0  0
 13 12  2  0  0  0  0
 13 15  1  0  0  0  0
 15 11  2  0  0  0  0
 16 14  2  0  0  0  0
 18 17  1  0  0  0  0
 19 18  1  0  0  0  0
 20 21  1  0  0  0  0
 21 22  1  6  0  0  0
 21 19  1  0  0  0  0
 23 26  1  6  0  0  0
 23 20  1  0  0  0  0
 23 21  1  0  0  0  0
 24 25  1  0  0  0  0
 24 26  1  0  0  0  0
 25 26  1  0  0  0  0
 27  1  1  0  0  0  0
 27 28  1  0  0  0  0
 29 30  1  0  0  0  0
 29 28  1  0  0  0  0
 31 30  1  1  0  0  0
 32 35  1  0  0  0  0
 32 34  1  0  0  0  0
 34 33  1  6  0  0  0
 34 31  1  0  0  0  0
 35 31  1  0  0  0  0
M  END
>  <MODEL>
8

>  <REMARK>
 VINA RESULT:      -6.5      1.250      1.993
  Name = 
  13 active torsions:
  status: ('A' for Active; 'I' for Inactive)
    1  A    between atoms: C_1  and  C_20
    2  A    between atoms: C_3  and  C_8
    3  A    between atoms: C_3  and  C_28
    4  A    between atoms: C_4  and  C_7
    5  A    between atoms: N_5  and  C_11
    6  A    between atoms: N_5  and  N_31
    7  A    between atoms: C_11  and  C_30
    8  A    between atoms: C_15  and  O_17
    9  A    between atoms: O_17  and  C_28
   10  A    between atoms: C_20  and  C_30
   11  A    between atoms: C_21  and  N_31
   12  A    between atoms: C_23  and  C_29
   13  A    between atoms: N_31  and  C_32
                            x       y       z     vdW  Elec       q    Type
                         _______ _______ _______ _____ _____    ______ ____

>  <TORSDO>
F 13

$$$$
=
 OpenBabel11042416543D

 35 39  0  0  1  0  0  0  0  0999 V2000
  188.1170  176.2370  143.1970 N   0  0  0  0  0  0  0  0  0  0  0  0
  186.6860  178.1260  143.9580 C   0  0  0  0  0  0  0  0  0  0  0  0
  186.0310  178.2630  146.2900 C   0  0  0  0  0  0  0  0  0  0  0  0
  186.7420  177.0920  146.5630 C   0  0  0  0  0  3  0  0  0  0  0  0
  185.9970  178.7720  144.9900 C   0  0  0  0  0  3  0  0  0  0  0  0
  187.4260  176.4360  145.5370 C   0  0  0  0  0  3  0  0  0  0  0  0
  187.4150  176.9470  144.2330 C   0  0  0  0  0  0  0  0  0  0  0  0
  185.3000  178.9610  147.3800 C   0  0  0  0  0  1  0  0  0  0  0  0
  186.5630  178.6670  142.5730 C   0  0  0  0  0  2  0  0  0  0  0  0
  185.2600  178.4870  142.1080 O   0  0  0  0  0  1  0  0  0  0  0  0
  192.3610  176.3120  142.9070 C   0  0  0  0  0  0  0  0  0  0  0  0
  189.5570  176.2550  143.1040 C   0  0  0  0  0  0  0  0  0  0  0  0
  190.2420  177.4770  143.0200 C   0  0  0  0  0  3  0  0  0  0  0  0
  191.6890  175.0870  142.9790 C   0  0  0  0  0  3  0  0  0  0  0  0
  191.6350  177.5070  142.9270 C   0  0  0  0  0  3  0  0  0  0  0  0
  190.2960  175.0590  143.0720 C   0  0  0  0  0  3  0  0  0  0  0  0
  193.8470  176.3460  142.8440 C   0  0  0  0  0  2  0  0  0  0  0  0
  194.4290  175.9780  144.1940 C   0  0  0  0  0  2  0  0  0  0  0  0
  194.5060  177.1180  145.0000 O   0  0  0  0  0  0  0  0  0  0  0  0
  194.1260  175.3300  146.4980 N   0  0  0  0  0  2  0  0  0  0  0  0
  193.9200  176.7550  146.2190 C   0  0  1  0  0  0  0  0  0  0  0  0
  194.1830  177.5350  147.3360 F   0  0  0  0  0  0  0  0  0  0  0  0
  192.7800  175.8360  146.1660 C   0  0  2  0  0  3  0  0  0  0  0  0
  190.5860  175.3030  147.1720 C   0  0  0  0  0  2  0  0  0  0  0  0
  190.7420  176.8080  147.1680 C   0  0  0  0  0  2  0  0  0  0  0  0
  191.9440  175.9240  147.4300 C   0  0  0  0  0  3  0  0  0  0  0  0
  187.3820  175.4110  142.3310 N   0  0  0  0  0  2  0  0  0  0  0  0
  187.5290  175.9440  140.9830 C   0  0  0  0  0  2  0  0  0  0  0  0
  188.1880  174.9090  140.0880 C   0  0  0  0  0  2  0  0  0  0  0  0
  188.2560  173.5610  140.7850 C   0  0  0  0  0  2  0  0  0  0  0  0
  189.0640  172.5650  139.9630 C   0  0  2  0  0  3  0  0  0  0  0  0
  191.1190  173.0540  139.5350 N   0  0  0  0  0  2  0  0  0  0  0  0
  190.7810  170.8900  140.6030 C   0  0  0  0  0  1  0  0  0  0  0  0
  190.4140  172.3640  140.6080 C   0  0  2  0  0  3  0  0  0  0  0  0
  189.8390  173.2790  138.8780 C   0  0  0  0  0  2  0  0  0  0  0  0
  1  7  1  0  0  0  0
  2  7  2  0  0  0  0
  2  5  1  0  0  0  0
  3  4  1  0  0  0  0
  3  8  1  0  0  0  0
  5  3  2  0  0  0  0
  6  4  2  0  0  0  0
  7  6  1  0  0  0  0
  9  2  1  0  0  0  0
 10  9  1  0  0  0  0
 11 15  2  0  0  0  0
 11 14  1  0  0  0  0
 12  1  1  0  0  0  0
 13 12  2  0  0  0  0
 14 16  2  0  0  0  0
 15 13  1  0  0  0  0
 16 12  1  0  0  0  0
 17 11  1  0  0  0  0
 17 18  1  0  0  0  0
 18 19  1  0  0  0  0
 19 21  1  0  0  0  0
 21 20  1  0  0  0  0
 21 22  1  1  0  0  0
 23 21  1  0  0  0  0
 23 20  1  0  0  0  0
 23 26  1  1  0  0  0
 24 26  1  0  0  0  0
 25 24  1  0  0  0  0
 25 26  1  0  0  0  0
 27  1  1  0  0  0  0
 28 27  1  0  0  0  0
 29 30  1  0  0  0  0
 29 28  1  0  0  0  0
 31 34  1  0  0  0  0
 31 30  1  1  0  0  0
 32 34  1  0  0  0  0
 34 33  1  6  0  0  0
 35 32  1  0  0  0  0
 35 31  1  0  0  0  0
M  END
>  <MODEL>
9

>  <REMARK>
 VINA RESULT:      -6.4      3.109      7.627
  Name = 
  13 active torsions:
  status: ('A' for Active; 'I' for Inactive)
    1  A    between atoms: C_1  and  C_20
    2  A    between atoms: C_3  and  C_8
    3  A    between atoms: C_3  and  C_28
    4  A    between atoms: C_4  and  C_7
    5  A    between atoms: N_5  and  C_11
    6  A    between atoms: N_5  and  N_31
    7  A    between atoms: C_11  and  C_30
    8  A    between atoms: C_15  and  O_17
    9  A    between atoms: O_17  and  C_28
   10  A    between atoms: C_20  and  C_30
   11  A    between atoms: C_21  and  N_31
   12  A    between atoms: C_23  and  C_29
   13  A    between atoms: N_31  and  C_32
                            x       y       z     vdW  Elec       q    Type
                         _______ _______ _______ _____ _____    ______ ____

>  <TORSDO>
F 13

$$$$
