=
 OpenBabel11042416283D

 38 43  0  0  1  0  0  0  0  0999 V2000
  187.6710  177.5270  145.0970 C   0  0  0  0  0  0  0  0  0  0  0  0
  185.3050  178.3260  145.5970 C   0  0  0  0  0  0  0  0  0  0  0  0
  188.6510  177.4990  144.2270 N   0  0  0  0  0  0  0  0  0  0  0  0
  185.3330  178.5470  146.9200 C   0  0  0  0  0  3  0  0  0  0  0  0
  192.0990  174.5350  145.2030 N   0  0  0  0  0  2  0  0  0  0  0  0
  187.6530  177.8660  147.5550 C   0  0  0  0  0  3  0  0  0  0  0  0
  189.5680  175.4680  147.6430 C   0  0  0  0  0  3  0  0  0  0  0  0
  190.0320  176.0370  145.5080 C   0  0  0  0  0  0  0  0  0  0  0  0
  186.4410  178.1770  144.7400 N   0  0  0  0  0  0  0  0  0  0  0  0
  190.8720  174.8860  147.2620 C   0  0  0  0  0  3  0  0  0  0  0  0
  187.7910  176.8580  146.4570 C   0  0  2  0  0  3  0  0  0  0  0  0
  186.4950  179.4150  142.6410 C   0  0  0  0  0  1  0  0  0  0  0  0
  184.4570  178.3180  143.5430 C   0  0  0  0  0  0  0  0  0  0  0  0
  186.5430  178.5780  147.7660 C   0  0  0  0  0  3  0  0  0  0  0  0
  192.4640  175.6090  142.4230 C   0  0  0  0  0  2  0  0  0  0  0  0
  183.4870  178.3010  142.4170 C   0  0  0  0  0  1  0  0  0  0  0  0
  191.6430  173.8200  144.0130 C   0  0  1  0  0  3  0  0  0  0  0  0
  184.0870  178.3930  144.8150 C   0  0  0  0  0  3  0  0  0  0  0  0
  191.0320  177.0780  143.4980 C   0  0  0  0  0  2  0  0  0  0  0  0
  189.0830  176.1010  146.5810 C   0  0  0  0  0  0  0  0  0  0  0  0
  191.1480  175.2410  146.0090 C   0  0  0  0  0  0  0  0  0  0  0  0
  191.0880  176.0960  142.4300 N   0  0  0  0  0  2  0  0  0  0  0  0
  189.8940  176.8040  144.4250 C   0  0  0  0  0  0  0  0  0  0  0  0
  185.9450  178.2010  143.3720 C   0  0  2  0  0  3  0  0  0  0  0  0
  192.5220  174.1380  142.8100 C   0  0  0  0  0  2  0  0  0  0  0  0
  191.6580  172.3180  144.2580 C   0  0  0  0  0  2  0  0  0  0  0  0
  192.3970  171.4540  142.8320 S   0  0  0  0  0  0  0  0  0  0  0  0
  190.8030  170.7750  142.2640 C   0  0  0  0  0  2  0  0  0  0  0  0
  189.4610  172.8390  139.3930 N   0  0  0  0  0  0  0  0  0  0  0  0
  188.5140  174.1750  140.8730 C   0  0  0  0  0  0  0  0  0  0  0  0
  189.1480  173.1480  141.5470 C   0  0  0  0  0  3  0  0  0  0  0  0
  188.7240  173.9620  139.5220 C   0  0  0  0  0  3  0  0  0  0  0  0
  190.5000  171.1940  140.8570 C   0  0  0  0  0  0  0  0  0  0  0  0
  189.7080  172.3620  140.6040 N   0  0  0  0  0  0  0  0  0  0  0  0
  190.9530  170.5150  139.8920 O   0  0  0  0  0  0  0  0  0  0  0  0
  187.7610  175.2840  141.4760 C   0  0  0  0  0  0  0  0  0  0  0  0
  187.8270  176.5600  140.9220 O   0  0  0  0  0  0  0  0  0  0  0  0
  187.0340  175.0800  142.4850 O   0  0  0  0  0  1  0  0  0  0  0  0
  1 11  1  0  0  0  0
  2  4  2  0  0  0  0
  3 23  1  0  0  0  0
  3  1  2  0  0  0  0
  4 14  1  0  0  0  0
  5 21  1  0  0  0  0
  6 14  2  0  0  0  0
  8 21  1  0  0  0  0
  8 20  1  0  0  0  0
  9  1  1  0  0  0  0
  9  2  1  0  0  0  0
 10  7  1  0  0  0  0
 11 20  1  0  0  0  0
 11  6  1  1  0  0  0
 13 18  2  0  0  0  0
 15 22  1  0  0  0  0
 15 25  1  0  0  0  0
 16 13  1  0  0  0  0
 17 26  1  1  0  0  0
 17  5  1  0  0  0  0
 18  2  1  0  0  0  0
 19 23  1  0  0  0  0
 20  7  2  0  0  0  0
 21 10  2  0  0  0  0
 22 19  1  0  0  0  0
 23  8  2  0  0  0  0
 24 12  1  6  0  0  0
 24 13  1  0  0  0  0
 24  9  1  0  0  0  0
 25 17  1  0  0  0  0
 27 26  1  0  0  0  0
 28 27  1  0  0  0  0
 29 32  2  0  0  0  0
 29 34  1  0  0  0  0
 30 36  1  0  0  0  0
 30 31  2  0  0  0  0
 32 30  1  0  0  0  0
 33 28  1  0  0  0  0
 34 33  1  0  0  0  0
 34 31  1  0  0  0  0
 35 33  2  0  0  0  0
 36 38  1  0  0  0  0
 37 36  2  0  0  0  0
M  END
>  <MODEL>
1

>  <REMARK>
 VINA RESULT:      -8.0      0.000      0.000
  Name = 
  5 active torsions:
  status: ('A' for Active; 'I' for Inactive)
    1  A    between atoms: C_6  and  C_16
    2  A    between atoms: C_9  and  C_25
    3  A    between atoms: C_25  and  S_28
    4  A    between atoms: C_27  and  C_34
    5  A    between atoms: S_28  and  C_34
                            x       y       z     vdW  Elec       q    Type
                         _______ _______ _______ _____ _____    ______ ____

>  <TORSDO>
F 5

$$$$
=
 OpenBabel11042416283D

 38 43  0  0  1  0  0  0  0  0999 V2000
  188.9190  176.9340  144.2580 C   0  0  0  0  0  0  0  0  0  0  0  0
  186.4860  177.1900  143.5480 C   0  0  0  0  0  0  0  0  0  0  0  0
  190.1720  177.1760  143.9600 N   0  0  0  0  0  0  0  0  0  0  0  0
  185.8400  177.3070  144.7190 C   0  0  0  0  0  3  0  0  0  0  0  0
  193.3070  174.9090  146.5410 N   0  0  0  0  0  2  0  0  0  0  0  0
  187.6740  177.0650  146.4000 C   0  0  0  0  0  3  0  0  0  0  0  0
  189.7920  175.1080  147.4550 C   0  0  0  0  0  3  0  0  0  0  0  0
  191.0700  175.9290  145.7840 C   0  0  0  0  0  0  0  0  0  0  0  0
  187.8940  177.3450  143.3400 N   0  0  0  0  0  0  0  0  0  0  0  0
  191.2130  174.8370  147.7570 C   0  0  0  0  0  3  0  0  0  0  0  0
  188.5270  176.1970  145.5290 C   0  0  2  0  0  3  0  0  0  0  0  0
  188.6580  178.7320  141.4860 C   0  0  0  0  0  1  0  0  0  0  0  0
  186.7290  177.1740  141.3400 C   0  0  0  0  0  0  0  0  0  0  0  0
  186.4710  177.5160  146.0370 C   0  0  0  0  0  3  0  0  0  0  0  0
  194.6930  176.2540  144.2410 C   0  0  0  0  0  2  0  0  0  0  0  0
  186.4320  177.0490  139.8880 C   0  0  0  0  0  1  0  0  0  0  0  0
  193.6320  174.2140  145.2980 C   0  0  1  0  0  3  0  0  0  0  0  0
  185.7970  177.0700  142.2790 C   0  0  0  0  0  3  0  0  0  0  0  0
  192.6440  177.3090  144.4640 C   0  0  0  0  0  2  0  0  0  0  0  0
  189.7390  175.7120  146.2730 C   0  0  0  0  0  0  0  0  0  0  0  0
  191.9610  175.3400  146.7770 C   0  0  0  0  0  0  0  0  0  0  0  0
  193.4070  176.4480  143.5790 N   0  0  0  0  0  2  0  0  0  0  0  0
  191.2940  176.7360  144.7450 C   0  0  0  0  0  0  0  0  0  0  0  0
  188.1070  177.3770  141.9010 C   0  0  2  0  0  3  0  0  0  0  0  0
  194.8810  174.8000  144.6500 C   0  0  0  0  0  2  0  0  0  0  0  0
  193.8570  172.7320  145.5620 C   0  0  0  0  0  2  0  0  0  0  0  0
  192.9350  171.7290  144.3490 S   0  0  0  0  0  0  0  0  0  0  0  0
  191.9890  173.1520  143.7110 C   0  0  0  0  0  2  0  0  0  0  0  0
  188.4490  172.7440  142.4440 N   0  0  0  0  0  0  0  0  0  0  0  0
  189.1430  173.4270  140.4630 C   0  0  0  0  0  0  0  0  0  0  0  0
  190.2110  173.4610  141.3400 C   0  0  0  0  0  3  0  0  0  0  0  0
  188.0480  172.9730  141.1770 C   0  0  0  0  0  3  0  0  0  0  0  0
  190.5160  172.8790  143.7260 C   0  0  0  0  0  0  0  0  0  0  0  0
  189.7380  173.0370  142.5310 N   0  0  0  0  0  0  0  0  0  0  0  0
  189.9600  172.5020  144.7970 O   0  0  0  0  0  0  0  0  0  0  0  0
  189.1660  173.7990  139.0410 C   0  0  0  0  0  0  0  0  0  0  0  0
  188.0170  174.2820  138.4220 O   0  0  0  0  0  1  0  0  0  0  0  0
  190.2360  173.7020  138.3800 O   0  0  0  0  0  0  0  0  0  0  0  0
  1 11  1  0  0  0  0
  2  4  2  0  0  0  0
  3  1  2  0  0  0  0
  3 23  1  0  0  0  0
  4 14  1  0  0  0  0
  5 21  1  0  0  0  0
  7 10  1  0  0  0  0
  8 20  1  0  0  0  0
  8 21  1  0  0  0  0
  9  2  1  0  0  0  0
  9  1  1  0  0  0  0
 11 20  1  0  0  0  0
 11  6  1  1  0  0  0
 13 24  1  0  0  0  0
 13 18  2  0  0  0  0
 14  6  2  0  0  0  0
 15 25  1  0  0  0  0
 16 13  1  0  0  0  0
 17 26  1  1  0  0  0
 17  5  1  0  0  0  0
 18  2  1  0  0  0  0
 19 23  1  0  0  0  0
 20  7  2  0  0  0  0
 21 10  2  0  0  0  0
 22 15  1  0  0  0  0
 22 19  1  0  0  0  0
 23  8  2  0  0  0  0
 24 12  1  1  0  0  0
 24  9  1  0  0  0  0
 25 17  1  0  0  0  0
 27 26  1  0  0  0  0
 28 33  1  0  0  0  0
 28 27  1  0  0  0  0
 29 34  1  0  0  0  0
 30 32  1  0  0  0  0
 30 31  2  0  0  0  0
 31 34  1  0  0  0  0
 32 29  2  0  0  0  0
 33 35  2  0  0  0  0
 34 33  1  0  0  0  0
 36 30  1  0  0  0  0
 37 36  1  0  0  0  0
 38 36  2  0  0  0  0
M  END
>  <MODEL>
2

>  <REMARK>
 VINA RESULT:      -8.0      1.991      2.606
  Name = 
  5 active torsions:
  status: ('A' for Active; 'I' for Inactive)
    1  A    between atoms: C_6  and  C_16
    2  A    between atoms: C_9  and  C_25
    3  A    between atoms: C_25  and  S_28
    4  A    between atoms: C_27  and  C_34
    5  A    between atoms: S_28  and  C_34
                            x       y       z     vdW  Elec       q    Type
                         _______ _______ _______ _____ _____    ______ ____

>  <TORSDO>
F 5

$$$$
=
 OpenBabel11042416283D

 38 43  0  0  1  0  0  0  0  0999 V2000
  192.3540  176.1280  144.5140 C   0  0  0  0  0  0  0  0  0  0  0  0
  190.2380  176.3690  145.9110 C   0  0  0  0  0  0  0  0  0  0  0  0
  192.9270  176.3520  143.3560 N   0  0  0  0  0  0  0  0  0  0  0  0
  190.7150  176.5340  147.1550 C   0  0  0  0  0  3  0  0  0  0  0  0
  196.9790  174.1710  142.6840 N   0  0  0  0  0  2  0  0  0  0  0  0
  193.1870  176.3480  146.8400 C   0  0  0  0  0  3  0  0  0  0  0  0
  195.4100  174.4230  145.9560 C   0  0  0  0  0  3  0  0  0  0  0  0
  194.9330  175.1720  143.8800 C   0  0  0  0  0  0  0  0  0  0  0  0
  190.9820  176.5090  144.6960 N   0  0  0  0  0  0  0  0  0  0  0  0
  196.5630  174.1570  145.0700 C   0  0  0  0  0  3  0  0  0  0  0  0
  193.0930  175.4430  145.6530 C   0  0  2  0  0  3  0  0  0  0  0  0
  190.0190  177.8180  142.8790 C   0  0  0  0  0  1  0  0  0  0  0  0
  188.7060  176.2650  144.3060 C   0  0  0  0  0  0  0  0  0  0  0  0
  192.1230  176.7920  147.5150 C   0  0  0  0  0  3  0  0  0  0  0  0
  196.0780  175.4180  140.1060 C   0  0  0  0  0  2  0  0  0  0  0  0
  187.4090  176.0860  143.6020 C   0  0  0  0  0  1  0  0  0  0  0  0
  196.2560  173.4260  141.6560 C   0  0  1  0  0  3  0  0  0  0  0  0
  188.8280  176.2030  145.6260 C   0  0  0  0  0  3  0  0  0  0  0  0
  194.9010  176.4910  141.7860 C   0  0  0  0  0  2  0  0  0  0  0  0
  194.4560  174.9810  145.2180 C   0  0  0  0  0  0  0  0  0  0  0  0
  196.2820  174.6170  143.8530 C   0  0  0  0  0  0  0  0  0  0  0  0
  194.7380  175.5920  140.6580 N   0  0  0  0  0  2  0  0  0  0  0  0
  194.2610  175.9360  143.0160 C   0  0  0  0  0  0  0  0  0  0  0  0
  190.0180  176.4830  143.6060 C   0  0  2  0  0  3  0  0  0  0  0  0
  196.5500  173.9790  140.2670 C   0  0  0  0  0  2  0  0  0  0  0  0
  196.6420  171.9540  141.6970 C   0  0  0  0  0  2  0  0  0  0  0  0
  195.7330  171.1010  143.0290 S   0  0  0  0  0  0  0  0  0  0  0  0
  194.1280  171.8320  142.5650 C   0  0  0  0  0  2  0  0  0  0  0  0
  190.9410  172.3390  144.5370 N   0  0  0  0  0  0  0  0  0  0  0  0
  189.9540  172.9700  142.6660 C   0  0  0  0  0  0  0  0  0  0  0  0
  191.2810  172.6980  142.3940 C   0  0  0  0  0  3  0  0  0  0  0  0
  189.7620  172.7360  144.0170 C   0  0  0  0  0  3  0  0  0  0  0  0
  193.2020  171.9080  143.7400 C   0  0  0  0  0  0  0  0  0  0  0  0
  191.8390  172.3190  143.5630 N   0  0  0  0  0  0  0  0  0  0  0  0
  193.6250  171.6000  144.8910 O   0  0  0  0  0  0  0  0  0  0  0  0
  188.9370  173.4180  141.7040 C   0  0  0  0  0  0  0  0  0  0  0  0
  187.6540  172.8780  141.7350 O   0  0  0  0  0  1  0  0  0  0  0  0
  189.2170  174.3110  140.8600 O   0  0  0  0  0  0  0  0  0  0  0  0
  1  9  1  0  0  0  0
  1 11  1  0  0  0  0
  2  4  2  0  0  0  0
  3  1  2  0  0  0  0
  4 14  1  0  0  0  0
  5 21  1  0  0  0  0
  6 14  2  0  0  0  0
  8 20  1  0  0  0  0
  9  2  1  0  0  0  0
 10  7  1  0  0  0  0
 11  6  1  1  0  0  0
 13 18  2  0  0  0  0
 15 25  1  0  0  0  0
 15 22  1  0  0  0  0
 16 13  1  0  0  0  0
 17 26  1  6  0  0  0
 17  5  1  0  0  0  0
 18  2  1  0  0  0  0
 19 23  1  0  0  0  0
 20 11  1  0  0  0  0
 20  7  2  0  0  0  0
 21  8  1  0  0  0  0
 21 10  2  0  0  0  0
 22 19  1  0  0  0  0
 23  3  1  0  0  0  0
 23  8  2  0  0  0  0
 24 12  1  1  0  0  0
 24 13  1  0  0  0  0
 24  9  1  0  0  0  0
 25 17  1  0  0  0  0
 26 27  1  0  0  0  0
 28 27  1  0  0  0  0
 28 33  1  0  0  0  0
 30 32  1  0  0  0  0
 31 30  2  0  0  0  0
 31 34  1  0  0  0  0
 32 29  2  0  0  0  0
 33 35  2  0  0  0  0
 34 33  1  0  0  0  0
 34 29  1  0  0  0  0
 36 37  1  0  0  0  0
 36 30  1  0  0  0  0
 38 36  2  0  0  0  0
M  END
>  <MODEL>
3

>  <REMARK>
 VINA RESULT:      -7.5      3.012      4.773
  Name = 
  5 active torsions:
  status: ('A' for Active; 'I' for Inactive)
    1  A    between atoms: C_6  and  C_16
    2  A    between atoms: C_9  and  C_25
    3  A    between atoms: C_25  and  S_28
    4  A    between atoms: C_27  and  C_34
    5  A    between atoms: S_28  and  C_34
                            x       y       z     vdW  Elec       q    Type
                         _______ _______ _______ _____ _____    ______ ____

>  <TORSDO>
F 5

$$$$
=
 OpenBabel11042416283D

 38 43  0  0  1  0  0  0  0  0999 V2000
  193.2150  175.4580  143.9990 C   0  0  0  0  0  0  0  0  0  0  0  0
  195.5020  176.5750  144.0940 C   0  0  0  0  0  0  0  0  0  0  0  0
  192.5140  174.4470  143.5460 N   0  0  0  0  0  0  0  0  0  0  0  0
  195.5120  177.1410  145.3110 C   0  0  0  0  0  3  0  0  0  0  0  0
  187.9030  174.8620  143.9930 N   0  0  0  0  0  2  0  0  0  0  0  0
  193.2420  176.5940  146.2040 C   0  0  0  0  0  3  0  0  0  0  0  0
  190.2430  177.0430  145.7240 C   0  0  0  0  0  3  0  0  0  0  0  0
  190.4200  175.2670  144.3410 C   0  0  0  0  0  0  0  0  0  0  0  0
  194.6020  175.5580  143.6420 N   0  0  0  0  0  0  0  0  0  0  0  0
  188.9020  176.4580  145.5170 C   0  0  0  0  0  3  0  0  0  0  0  0
  192.5890  176.5440  144.8590 C   0  0  2  0  0  3  0  0  0  0  0  0
  195.5160  173.6200  142.4790 C   0  0  0  0  0  1  0  0  0  0  0  0
  196.3180  175.9440  142.1260 C   0  0  0  0  0  0  0  0  0  0  0  0
  194.5310  176.8960  146.3870 C   0  0  0  0  0  3  0  0  0  0  0  0
  188.5290  172.4780  142.2770 C   0  0  0  0  0  2  0  0  0  0  0  0
  197.1460  175.8920  140.8930 C   0  0  0  0  0  1  0  0  0  0  0  0
  187.9000  174.9160  142.5340 C   0  0  1  0  0  3  0  0  0  0  0  0
  196.5470  176.7980  143.1160 C   0  0  0  0  0  3  0  0  0  0  0  0
  190.4730  172.9640  143.4380 C   0  0  0  0  0  2  0  0  0  0  0  0
  191.1040  176.3480  144.9890 C   0  0  0  0  0  0  0  0  0  0  0  0
  189.0170  175.4010  144.7160 C   0  0  0  0  0  0  0  0  0  0  0  0
  189.8960  172.9600  142.1060 N   0  0  0  0  0  2  0  0  0  0  0  0
  191.1010  174.2820  143.7520 C   0  0  0  0  0  0  0  0  0  0  0  0
  195.1120  175.0810  142.3650 C   0  0  2  0  0  3  0  0  0  0  0  0
  187.5220  173.5670  141.9340 C   0  0  0  0  0  2  0  0  0  0  0  0
  186.9180  175.9710  142.0440 C   0  0  0  0  0  2  0  0  0  0  0  0
  187.7850  177.2220  141.0390 S   0  0  0  0  0  0  0  0  0  0  0  0
  187.3870  178.5890  142.1790 C   0  0  0  0  0  2  0  0  0  0  0  0
  184.1910  178.8190  144.1860 N   0  0  0  0  0  0  0  0  0  0  0  0
  185.4130  178.7920  146.0240 C   0  0  0  0  0  0  0  0  0  0  0  0
  186.2540  178.6760  144.9330 C   0  0  0  0  0  3  0  0  0  0  0  0
  184.1220  178.8820  145.5320 C   0  0  0  0  0  3  0  0  0  0  0  0
  185.9210  178.6380  142.4810 C   0  0  0  0  0  0  0  0  0  0  0  0
  185.4640  178.6970  143.8400 N   0  0  0  0  0  0  0  0  0  0  0  0
  185.0860  178.6360  141.5320 O   0  0  0  0  0  0  0  0  0  0  0  0
  185.8120  178.8180  147.4380 C   0  0  0  0  0  0  0  0  0  0  0  0
  185.9050  177.6340  148.1640 O   0  0  0  0  0  1  0  0  0  0  0  0
  186.0940  179.9140  147.9940 O   0  0  0  0  0  0  0  0  0  0  0  0
  1 11  1  0  0  0  0
  2  4  2  0  0  0  0
  3 23  1  0  0  0  0
  3  1  2  0  0  0  0
  4 14  1  0  0  0  0
  5 21  1  0  0  0  0
  6 14  2  0  0  0  0
  8 21  1  0  0  0  0
  8 20  1  0  0  0  0
  9  1  1  0  0  0  0
  9  2  1  0  0  0  0
 10  7  1  0  0  0  0
 11 20  1  0  0  0  0
 11  6  1  1  0  0  0
 13 24  1  0  0  0  0
 13 18  2  0  0  0  0
 16 13  1  0  0  0  0
 17 26  1  1  0  0  0
 17  5  1  0  0  0  0
 18  2  1  0  0  0  0
 19 23  1  0  0  0  0
 20  7  2  0  0  0  0
 21 10  2  0  0  0  0
 22 15  1  0  0  0  0
 22 19  1  0  0  0  0
 23  8  2  0  0  0  0
 24 12  1  1  0  0  0
 24  9  1  0  0  0  0
 25 15  1  0  0  0  0
 25 17  1  0  0  0  0
 27 26  1  0  0  0  0
 27 28  1  0  0  0  0
 28 33  1  0  0  0  0
 29 32  2  0  0  0  0
 30 36  1  0  0  0  0
 31 30  2  0  0  0  0
 32 30  1  0  0  0  0
 33 34  1  0  0  0  0
 34 29  1  0  0  0  0
 34 31  1  0  0  0  0
 35 33  2  0  0  0  0
 36 38  2  0  0  0  0
 36 37  1  0  0  0  0
M  END
>  <MODEL>
4

>  <REMARK>
 VINA RESULT:      -7.5      3.055      7.631
  Name = 
  5 active torsions:
  status: ('A' for Active; 'I' for Inactive)
    1  A    between atoms: C_6  and  C_16
    2  A    between atoms: C_9  and  C_25
    3  A    between atoms: C_25  and  S_28
    4  A    between atoms: C_27  and  C_34
    5  A    between atoms: S_28  and  C_34
                            x       y       z     vdW  Elec       q    Type
                         _______ _______ _______ _____ _____    ______ ____

>  <TORSDO>
F 5

$$$$
=
 OpenBabel11042416283D

 38 43  0  0  1  0  0  0  0  0999 V2000
  194.4980  174.1990  143.0870 C   0  0  0  0  0  0  0  0  0  0  0  0
  196.9620  174.8430  143.1230 C   0  0  0  0  0  0  0  0  0  0  0  0
  193.5360  173.6040  142.4240 N   0  0  0  0  0  0  0  0  0  0  0  0
  197.2690  174.7920  144.4280 C   0  0  0  0  0  3  0  0  0  0  0  0
  189.2380  174.3730  144.0270 N   0  0  0  0  0  2  0  0  0  0  0  0
  195.0870  174.2040  145.4970 C   0  0  0  0  0  3  0  0  0  0  0  0
  192.2200  175.2110  145.9350 C   0  0  0  0  0  3  0  0  0  0  0  0
  191.8060  174.2440  143.9370 C   0  0  0  0  0  0  0  0  0  0  0  0
  195.8070  174.2670  142.5030 N   0  0  0  0  0  0  0  0  0  0  0  0
  190.7680  174.9640  145.8100 C   0  0  0  0  0  3  0  0  0  0  0  0
  194.2520  174.8530  144.4380 C   0  0  2  0  0  3  0  0  0  0  0  0
  196.1020  172.9590  140.4660 C   0  0  0  0  0  1  0  0  0  0  0  0
  197.3300  175.0650  140.9430 C   0  0  0  0  0  0  0  0  0  0  0  0
  196.4220  174.2190  145.4940 C   0  0  0  0  0  3  0  0  0  0  0  0
  189.0790  172.9610  141.3820 C   0  0  0  0  0  2  0  0  0  0  0  0
  197.9410  175.4670  139.6490 C   0  0  0  0  0  1  0  0  0  0  0  0
  189.0370  175.0790  142.7640 C   0  0  1  0  0  3  0  0  0  0  0  0
  197.8780  175.3440  142.1190 C   0  0  0  0  0  3  0  0  0  0  0  0
  191.2280  172.6100  142.1700 C   0  0  0  0  0  2  0  0  0  0  0  0
  192.7940  174.8160  144.8040 C   0  0  0  0  0  0  0  0  0  0  0  0
  190.5340  174.3770  144.6380 C   0  0  0  0  0  0  0  0  0  0  0  0
  190.4790  173.2830  141.1240 N   0  0  0  0  0  2  0  0  0  0  0  0
  192.1650  173.5500  142.8550 C   0  0  0  0  0  0  0  0  0  0  0  0
  196.0120  174.3540  141.0650 C   0  0  2  0  0  3  0  0  0  0  0  0
  188.2930  174.2090  141.7590 C   0  0  0  0  0  2  0  0  0  0  0  0
  188.2480  176.3610  142.9930 C   0  0  0  0  0  2  0  0  0  0  0  0
  187.4780  176.9130  141.4350 S   0  0  0  0  0  0  0  0  0  0  0  0
  187.0150  178.5460  142.1030 C   0  0  0  0  0  2  0  0  0  0  0  0
  184.0020  178.6930  144.3840 N   0  0  0  0  0  0  0  0  0  0  0  0
  185.3790  178.6270  146.1080 C   0  0  0  0  0  0  0  0  0  0  0  0
  186.1230  178.5480  144.9460 C   0  0  0  0  0  3  0  0  0  0  0  0
  184.0500  178.7180  145.7320 C   0  0  0  0  0  3  0  0  0  0  0  0
  185.5800  178.5740  142.5320 C   0  0  0  0  0  0  0  0  0  0  0  0
  185.2410  178.5910  143.9260 N   0  0  0  0  0  0  0  0  0  0  0  0
  184.6660  178.5910  141.6590 O   0  0  0  0  0  0  0  0  0  0  0  0
  185.8990  178.6180  147.4830 C   0  0  0  0  0  0  0  0  0  0  0  0
  186.3220  179.8020  148.0810 O   0  0  0  0  0  0  0  0  0  0  0  0
  185.9410  177.5410  148.1350 O   0  0  0  0  0  1  0  0  0  0  0  0
  1 11  1  0  0  0  0
  2  4  2  0  0  0  0
  3 23  1  0  0  0  0
  3  1  2  0  0  0  0
  4 14  1  0  0  0  0
  5 21  1  0  0  0  0
  8 21  1  0  0  0  0
  8 20  1  0  0  0  0
  9  1  1  0  0  0  0
  9  2  1  0  0  0  0
 10  7  1  0  0  0  0
 11 20  1  0  0  0  0
 11  6  1  1  0  0  0
 13 24  1  0  0  0  0
 13 18  2  0  0  0  0
 14  6  2  0  0  0  0
 15 25  1  0  0  0  0
 16 13  1  0  0  0  0
 17 26  1  1  0  0  0
 17  5  1  0  0  0  0
 18  2  1  0  0  0  0
 19 23  1  0  0  0  0
 20  7  2  0  0  0  0
 21 10  2  0  0  0  0
 22 15  1  0  0  0  0
 22 19  1  0  0  0  0
 23  8  2  0  0  0  0
 24 12  1  1  0  0  0
 24  9  1  0  0  0  0
 25 17  1  0  0  0  0
 27 28  1  0  0  0  0
 27 26  1  0  0  0  0
 28 33  1  0  0  0  0
 29 32  2  0  0  0  0
 30 36  1  0  0  0  0
 31 30  2  0  0  0  0
 32 30  1  0  0  0  0
 33 34  1  0  0  0  0
 34 29  1  0  0  0  0
 34 31  1  0  0  0  0
 35 33  2  0  0  0  0
 36 37  2  0  0  0  0
 36 38  1  0  0  0  0
M  END
>  <MODEL>
5

>  <REMARK>
 VINA RESULT:      -7.5      3.476      8.352
  Name = 
  5 active torsions:
  status: ('A' for Active; 'I' for Inactive)
    1  A    between atoms: C_6  and  C_16
    2  A    between atoms: C_9  and  C_25
    3  A    between atoms: C_25  and  S_28
    4  A    between atoms: C_27  and  C_34
    5  A    between atoms: S_28  and  C_34
                            x       y       z     vdW  Elec       q    Type
                         _______ _______ _______ _____ _____    ______ ____

>  <TORSDO>
F 5

$$$$
=
 OpenBabel11042416283D

 38 43  0  0  1  0  0  0  0  0999 V2000
  191.3640  176.0800  144.2740 C   0  0  0  0  0  0  0  0  0  0  0  0
  189.0900  176.3580  145.3860 C   0  0  0  0  0  0  0  0  0  0  0  0
  192.0800  176.2760  143.1940 N   0  0  0  0  0  0  0  0  0  0  0  0
  189.4050  176.5510  146.6760 C   0  0  0  0  0  3  0  0  0  0  0  0
  196.1740  174.0710  143.0910 N   0  0  0  0  0  2  0  0  0  0  0  0
  191.8970  176.3520  146.6820 C   0  0  0  0  0  3  0  0  0  0  0  0
  194.2040  174.4030  146.1300 C   0  0  0  0  0  3  0  0  0  0  0  0
  193.9970  175.1040  143.9940 C   0  0  0  0  0  0  0  0  0  0  0  0
  189.9820  176.4680  144.2730 N   0  0  0  0  0  0  0  0  0  0  0  0
  195.4580  174.1130  145.4040 C   0  0  0  0  0  3  0  0  0  0  0  0
  191.9490  175.4200  145.5130 C   0  0  2  0  0  3  0  0  0  0  0  0
  189.2640  177.7370  142.3190 C   0  0  0  0  0  1  0  0  0  0  0  0
  187.7730  176.2210  143.6020 C   0  0  0  0  0  0  0  0  0  0  0  0
  190.7580  176.8140  147.2060 C   0  0  0  0  0  3  0  0  0  0  0  0
  195.6130  175.2590  140.3910 C   0  0  0  0  0  2  0  0  0  0  0  0
  186.5740  176.0280  142.7440 C   0  0  0  0  0  1  0  0  0  0  0  0
  195.5830  173.3040  141.9970 C   0  0  1  0  0  3  0  0  0  0  0  0
  187.7260  176.1890  144.9280 C   0  0  0  0  0  3  0  0  0  0  0  0
  194.2380  176.3740  141.8840 C   0  0  0  0  0  2  0  0  0  0  0  0
  193.3540  174.9450  145.2650 C   0  0  0  0  0  0  0  0  0  0  0  0
  195.3360  174.5450  144.1510 C   0  0  0  0  0  0  0  0  0  0  0  0
  194.2150  175.4500  140.7650 N   0  0  0  0  0  2  0  0  0  0  0  0
  193.4440  175.8490  143.0350 C   0  0  0  0  0  0  0  0  0  0  0  0
  189.1630  176.4190  143.0700 C   0  0  2  0  0  3  0  0  0  0  0  0
  196.0530  173.8240  140.6440 C   0  0  0  0  0  2  0  0  0  0  0  0
  195.9530  171.8320  142.1200 C   0  0  0  0  0  2  0  0  0  0  0  0
  194.6080  170.9110  142.9380 S   0  0  0  0  0  0  0  0  0  0  0  0
  193.2960  171.9660  142.2390 C   0  0  0  0  0  2  0  0  0  0  0  0
  189.7190  172.4480  143.3660 N   0  0  0  0  0  0  0  0  0  0  0  0
  189.2100  173.0410  141.3020 C   0  0  0  0  0  0  0  0  0  0  0  0
  190.5670  172.7870  141.3660 C   0  0  0  0  0  3  0  0  0  0  0  0
  188.6970  172.8210  142.5680 C   0  0  0  0  0  3  0  0  0  0  0  0
  192.1110  172.0420  143.1520 C   0  0  0  0  0  0  0  0  0  0  0  0
  190.8280  172.4300  142.6410 N   0  0  0  0  0  0  0  0  0  0  0  0
  192.2440  171.7550  144.3760 O   0  0  0  0  0  0  0  0  0  0  0  0
  188.4540  173.4620  140.1140 C   0  0  0  0  0  0  0  0  0  0  0  0
  188.2240  174.8130  139.8690 O   0  0  0  0  0  1  0  0  0  0  0  0
  188.0290  172.6000  139.2980 O   0  0  0  0  0  0  0  0  0  0  0  0
  1 11  1  0  0  0  0
  2  4  2  0  0  0  0
  3  1  2  0  0  0  0
  4 14  1  0  0  0  0
  5 21  1  0  0  0  0
  6 14  2  0  0  0  0
  8 21  1  0  0  0  0
  8 20  1  0  0  0  0
  9  1  1  0  0  0  0
  9  2  1  0  0  0  0
 10  7  1  0  0  0  0
 11  6  1  1  0  0  0
 13 18  2  0  0  0  0
 15 25  1  0  0  0  0
 15 22  1  0  0  0  0
 16 13  1  0  0  0  0
 17 26  1  1  0  0  0
 17  5  1  0  0  0  0
 18  2  1  0  0  0  0
 19 23  1  0  0  0  0
 20 11  1  0  0  0  0
 20  7  2  0  0  0  0
 21 10  2  0  0  0  0
 22 19  1  0  0  0  0
 23  3  1  0  0  0  0
 23  8  2  0  0  0  0
 24 12  1  1  0  0  0
 24 13  1  0  0  0  0
 24  9  1  0  0  0  0
 25 17  1  0  0  0  0
 26 27  1  0  0  0  0
 28 27  1  0  0  0  0
 28 33  1  0  0  0  0
 30 31  2  0  0  0  0
 30 32  1  0  0  0  0
 31 34  1  0  0  0  0
 32 29  2  0  0  0  0
 33 35  2  0  0  0  0
 34 33  1  0  0  0  0
 34 29  1  0  0  0  0
 36 30  1  0  0  0  0
 37 36  1  0  0  0  0
 38 36  2  0  0  0  0
M  END
>  <MODEL>
6

>  <REMARK>
 VINA RESULT:      -7.4      2.545      3.899
  Name = 
  5 active torsions:
  status: ('A' for Active; 'I' for Inactive)
    1  A    between atoms: C_6  and  C_16
    2  A    between atoms: C_9  and  C_25
    3  A    between atoms: C_25  and  S_28
    4  A    between atoms: C_27  and  C_34
    5  A    between atoms: S_28  and  C_34
                            x       y       z     vdW  Elec       q    Type
                         _______ _______ _______ _____ _____    ______ ____

>  <TORSDO>
F 5

$$$$
=
 OpenBabel11042416283D

 38 43  0  0  1  0  0  0  0  0999 V2000
  187.4120  177.4420  144.8480 C   0  0  0  0  0  0  0  0  0  0  0  0
  184.9950  178.2030  145.1040 C   0  0  0  0  0  0  0  0  0  0  0  0
  188.4850  177.4550  144.0940 N   0  0  0  0  0  0  0  0  0  0  0  0
  184.8710  178.3730  146.4300 C   0  0  0  0  0  3  0  0  0  0  0  0
  191.8330  174.4790  145.3440 N   0  0  0  0  0  2  0  0  0  0  0  0
  187.1110  177.6840  147.2980 C   0  0  0  0  0  3  0  0  0  0  0  0
  189.0310  175.2980  147.5130 C   0  0  0  0  0  3  0  0  0  0  0  0
  189.7290  175.9540  145.4680 C   0  0  0  0  0  0  0  0  0  0  0  0
  186.2240  178.0960  144.3780 N   0  0  0  0  0  0  0  0  0  0  0  0
  190.3770  174.7410  147.2610 C   0  0  0  0  0  3  0  0  0  0  0  0
  187.3840  176.7210  146.1860 C   0  0  2  0  0  3  0  0  0  0  0  0
  186.5010  179.4160  142.3470 C   0  0  0  0  0  1  0  0  0  0  0  0
  184.3870  178.2700  142.9690 C   0  0  0  0  0  0  0  0  0  0  0  0
  185.9760  178.3800  147.4080 C   0  0  0  0  0  3  0  0  0  0  0  0
  192.5000  175.6640  142.6660 C   0  0  0  0  0  2  0  0  0  0  0  0
  183.5510  178.2900  141.7390 C   0  0  0  0  0  1  0  0  0  0  0  0
  191.5240  173.8090  144.0830 C   0  0  1  0  0  3  0  0  0  0  0  0
  183.8730  178.2930  144.1920 C   0  0  0  0  0  3  0  0  0  0  0  0
  190.9380  177.0790  143.6260 C   0  0  0  0  0  2  0  0  0  0  0  0
  188.6630  175.9690  146.4270 C   0  0  0  0  0  0  0  0  0  0  0  0
  190.7890  175.1460  146.0620 C   0  0  0  0  0  0  0  0  0  0  0  0
  191.1270  176.1410  142.5340 N   0  0  0  0  0  2  0  0  0  0  0  0
  189.7050  176.7610  144.4060 C   0  0  0  0  0  0  0  0  0  0  0  0
  185.8860  178.1700  142.9640 C   0  0  2  0  0  3  0  0  0  0  0  0
  192.5310  174.1790  143.0010 C   0  0  0  0  0  2  0  0  0  0  0  0
  191.5290  172.2980  144.2710 C   0  0  0  0  0  2  0  0  0  0  0  0
  190.3970  171.5110  143.0770 S   0  0  0  0  0  0  0  0  0  0  0  0
  189.3430  172.9910  142.9170 C   0  0  0  0  0  2  0  0  0  0  0  0
  188.0490  172.8820  139.3660 N   0  0  0  0  0  0  0  0  0  0  0  0
  190.0660  173.4540  138.6760 C   0  0  0  0  0  0  0  0  0  0  0  0
  190.0690  173.4090  140.0570 C   0  0  0  0  0  3  0  0  0  0  0  0
  188.7880  173.1180  138.2630 C   0  0  0  0  0  3  0  0  0  0  0  0
  188.3790  172.8550  141.7790 C   0  0  0  0  0  0  0  0  0  0  0  0
  188.8200  173.0580  140.4290 N   0  0  0  0  0  0  0  0  0  0  0  0
  187.1740  172.5540  142.0120 O   0  0  0  0  0  0  0  0  0  0  0  0
  191.2040  173.7910  137.8090 C   0  0  0  0  0  0  0  0  0  0  0  0
  192.4460  174.0890  138.3630 O   0  0  0  0  0  1  0  0  0  0  0  0
  191.0660  173.7870  136.5560 O   0  0  0  0  0  0  0  0  0  0  0  0
  1 11  1  0  0  0  0
  2  4  2  0  0  0  0
  3 23  1  0  0  0  0
  3  1  2  0  0  0  0
  4 14  1  0  0  0  0
  5 21  1  0  0  0  0
  6 14  2  0  0  0  0
  8 21  1  0  0  0  0
  8 20  1  0  0  0  0
  9  1  1  0  0  0  0
  9  2  1  0  0  0  0
 10  7  1  0  0  0  0
 11 20  1  0  0  0  0
 11  6  1  1  0  0  0
 13 18  2  0  0  0  0
 15 25  1  0  0  0  0
 16 13  1  0  0  0  0
 17 26  1  1  0  0  0
 17  5  1  0  0  0  0
 18  2  1  0  0  0  0
 19 23  1  0  0  0  0
 20  7  2  0  0  0  0
 21 10  2  0  0  0  0
 22 15  1  0  0  0  0
 22 19  1  0  0  0  0
 23  8  2  0  0  0  0
 24 12  1  1  0  0  0
 24 13  1  0  0  0  0
 24  9  1  0  0  0  0
 25 17  1  0  0  0  0
 27 26  1  0  0  0  0
 28 27  1  0  0  0  0
 29 34  1  0  0  0  0
 30 31  2  0  0  0  0
 31 34  1  0  0  0  0
 32 30  1  0  0  0  0
 32 29  2  0  0  0  0
 33 35  2  0  0  0  0
 33 28  1  0  0  0  0
 34 33  1  0  0  0  0
 36 37  1  0  0  0  0
 36 30  1  0  0  0  0
 38 36  2  0  0  0  0
M  END
>  <MODEL>
7

>  <REMARK>
 VINA RESULT:      -7.4      1.436      2.170
  Name = 
  5 active torsions:
  status: ('A' for Active; 'I' for Inactive)
    1  A    between atoms: C_6  and  C_16
    2  A    between atoms: C_9  and  C_25
    3  A    between atoms: C_25  and  S_28
    4  A    between atoms: C_27  and  C_34
    5  A    between atoms: S_28  and  C_34
                            x       y       z     vdW  Elec       q    Type
                         _______ _______ _______ _____ _____    ______ ____

>  <TORSDO>
F 5

$$$$
=
 OpenBabel11042416283D

 38 43  0  0  1  0  0  0  0  0999 V2000
  188.9350  174.8460  143.7290 C   0  0  0  0  0  0  0  0  0  0  0  0
  188.1260  176.9390  144.9340 C   0  0  0  0  0  0  0  0  0  0  0  0
  189.5130  173.6750  143.8480 N   0  0  0  0  0  0  0  0  0  0  0  0
  187.0480  177.3010  144.2200 C   0  0  0  0  0  3  0  0  0  0  0  0
  190.8090  171.6800  139.8510 N   0  0  0  0  0  2  0  0  0  0  0  0
  186.9910  175.6020  142.3870 C   0  0  0  0  0  3  0  0  0  0  0  0
  188.5660  174.5410  139.9750 C   0  0  0  0  0  3  0  0  0  0  0  0
  189.6130  173.2490  141.5030 C   0  0  0  0  0  0  0  0  0  0  0  0
  188.7730  175.6630  144.8990 N   0  0  0  0  0  0  0  0  0  0  0  0
  189.1880  173.3890  139.2880 C   0  0  0  0  0  3  0  0  0  0  0  0
  188.4700  175.3750  142.3820 C   0  0  0  0  0  0  0  0  0  0  0  0
  189.3330  174.5760  147.0080 C   0  0  0  0  0  1  0  0  0  0  0  0
  189.5930  177.0120  146.6000 C   0  0  0  0  0  0  0  0  0  0  0  0
  186.3840  176.4860  143.1840 C   0  0  0  0  0  3  0  0  0  0  0  0
  191.9440  170.1260  142.1570 C   0  0  0  0  0  2  0  0  0  0  0  0
  190.4310  177.5120  147.7220 C   0  0  0  0  0  1  0  0  0  0  0  0
  192.1690  171.8800  140.3470 C   0  0  1  0  0  3  0  0  0  0  0  0
  188.6750  177.7560  145.9960 C   0  0  0  0  0  3  0  0  0  0  0  0
  190.2100  171.3910  143.0250 C   0  0  0  0  0  2  0  0  0  0  0  0
  188.8690  174.4510  141.2660 C   0  0  2  0  0  3  0  0  0  0  0  0
  189.7880  172.6230  140.1970 C   0  0  0  0  0  0  0  0  0  0  0  0
  191.6530  171.2400  143.0520 N   0  0  0  0  0  2  0  0  0  0  0  0
  189.8180  172.8040  142.7450 C   0  0  0  0  0  0  0  0  0  0  0  0
  189.7260  175.6430  145.9980 C   0  0  2  0  0  3  0  0  0  0  0  0
  192.7320  170.5950  140.9420 C   0  0  0  0  0  2  0  0  0  0  0  0
  193.0800  172.3480  139.2210 C   0  0  0  0  0  2  0  0  0  0  0  0
  193.0220  174.1650  139.0780 S   0  0  0  0  0  0  0  0  0  0  0  0
  193.1740  174.4320  140.8750 C   0  0  0  0  0  2  0  0  0  0  0  0
  195.7670  176.2480  142.9440 N   0  0  0  0  0  0  0  0  0  0  0  0
  194.4310  176.0460  144.6890 C   0  0  0  0  0  0  0  0  0  0  0  0
  193.8030  175.4980  143.5870 C   0  0  0  0  0  3  0  0  0  0  0  0
  195.6630  176.5100  144.2630 C   0  0  0  0  0  3  0  0  0  0  0  0
  194.4260  175.1840  141.2120 C   0  0  0  0  0  0  0  0  0  0  0  0
  194.6550  175.6460  142.5510 N   0  0  0  0  0  0  0  0  0  0  0  0
  195.2850  175.4030  140.3110 O   0  0  0  0  0  0  0  0  0  0  0  0
  193.8940  176.1200  146.0560 C   0  0  0  0  0  0  0  0  0  0  0  0
  193.0770  175.1050  146.5450 O   0  0  0  0  0  0  0  0  0  0  0  0
  194.1910  177.0940  146.7980 O   0  0  0  0  0  1  0  0  0  0  0  0
  1  3  1  0  0  0  0
  1  9  1  0  0  0  0
  2 18  1  0  0  0  0
  4  2  2  0  0  0  0
  5 21  1  0  0  0  0
  5 17  1  0  0  0  0
  6 14  2  0  0  0  0
  8 23  1  0  0  0  0
  9  2  1  0  0  0  0
  9 24  1  0  0  0  0
 10  7  2  0  0  0  0
 10 21  1  0  0  0  0
 11  6  1  0  0  0  0
 11  1  2  0  0  0  0
 13 16  1  0  0  0  0
 14  4  1  0  0  0  0
 15 22  1  0  0  0  0
 17 26  1  6  0  0  0
 17 25  1  0  0  0  0
 18 13  2  0  0  0  0
 19 22  1  0  0  0  0
 20  7  1  1  0  0  0
 20  8  1  0  0  0  0
 20 11  1  0  0  0  0
 21  8  2  0  0  0  0
 23 19  1  0  0  0  0
 23  3  2  0  0  0  0
 24 13  1  0  0  0  0
 24 12  1  1  0  0  0
 25 15  1  0  0  0  0
 27 26  1  0  0  0  0
 27 28  1  0  0  0  0
 28 33  1  0  0  0  0
 29 32  2  0  0  0  0
 30 36  1  0  0  0  0
 31 30  2  0  0  0  0
 32 30  1  0  0  0  0
 33 34  1  0  0  0  0
 34 29  1  0  0  0  0
 34 31  1  0  0  0  0
 35 33  2  0  0  0  0
 36 37  2  0  0  0  0
 36 38  1  0  0  0  0
M  END
>  <MODEL>
8

>  <REMARK>
 VINA RESULT:      -7.3      3.029      5.986
  Name = 
  5 active torsions:
  status: ('A' for Active; 'I' for Inactive)
    1  A    between atoms: C_6  and  C_16
    2  A    between atoms: C_9  and  C_25
    3  A    between atoms: C_25  and  S_28
    4  A    between atoms: C_27  and  C_34
    5  A    between atoms: S_28  and  C_34
                            x       y       z     vdW  Elec       q    Type
                         _______ _______ _______ _____ _____    ______ ____

>  <TORSDO>
F 5

$$$$
=
 OpenBabel11042416283D

 38 43  0  0  1  0  0  0  0  0999 V2000
  194.9480  174.8610  142.2510 C   0  0  0  0  0  0  0  0  0  0  0  0
  196.9770  175.3750  140.8010 C   0  0  0  0  0  0  0  0  0  0  0  0
  193.8380  174.1740  142.3680 N   0  0  0  0  0  0  0  0  0  0  0  0
  197.9410  175.6160  141.7030 C   0  0  0  0  0  3  0  0  0  0  0  0
  191.0270  175.5020  145.8270 N   0  0  0  0  0  2  0  0  0  0  0  0
  196.7370  175.4000  143.8830 C   0  0  0  0  0  3  0  0  0  0  0  0
  194.4800  176.6180  145.5700 C   0  0  0  0  0  3  0  0  0  0  0  0
  193.1440  175.2320  144.3900 C   0  0  0  0  0  0  0  0  0  0  0  0
  195.7270  174.7270  141.0520 N   0  0  0  0  0  0  0  0  0  0  0  0
  193.2160  176.4190  146.3110 C   0  0  0  0  0  3  0  0  0  0  0  0
  195.4110  175.8230  143.3340 C   0  0  2  0  0  3  0  0  0  0  0  0
  194.9940  172.9680  139.5320 C   0  0  0  0  0  1  0  0  0  0  0  0
  196.0950  175.0650  138.7850 C   0  0  0  0  0  0  0  0  0  0  0  0
  197.8540  175.3500  143.1530 C   0  0  0  0  0  3  0  0  0  0  0  0
  189.5960  173.5200  144.0830 C   0  0  0  0  0  2  0  0  0  0  0  0
  195.8770  175.1230  137.3160 C   0  0  0  0  0  1  0  0  0  0  0  0
  190.1180  175.9030  144.7560 C   0  0  1  0  0  3  0  0  0  0  0  0
  197.1630  175.5830  139.3790 C   0  0  0  0  0  3  0  0  0  0  0  0
  191.8520  173.2610  143.6340 C   0  0  0  0  0  2  0  0  0  0  0  0
  194.3890  175.9430  144.4300 C   0  0  0  0  0  0  0  0  0  0  0  0
  192.4420  175.5870  145.6180 C   0  0  0  0  0  0  0  0  0  0  0  0
  190.6030  173.7060  143.0440 N   0  0  0  0  0  2  0  0  0  0  0  0
  192.9240  174.2880  143.4720 C   0  0  0  0  0  0  0  0  0  0  0  0
  195.1180  174.4660  139.7560 C   0  0  2  0  0  3  0  0  0  0  0  0
  189.0300  174.8590  144.5380 C   0  0  0  0  0  2  0  0  0  0  0  0
  189.4660  177.2390  145.0860 C   0  0  0  0  0  2  0  0  0  0  0  0
  189.2100  177.3880  146.8860 S   0  0  0  0  0  0  0  0  0  0  0  0
  187.5330  176.6740  146.8280 C   0  0  0  0  0  2  0  0  0  0  0  0
  184.6510  178.9700  145.9790 N   0  0  0  0  0  0  0  0  0  0  0  0
  184.7270  178.2030  143.9100 C   0  0  0  0  0  0  0  0  0  0  0  0
  185.7360  177.6040  144.6400 C   0  0  0  0  0  3  0  0  0  0  0  0
  184.0580  179.0560  144.7700 C   0  0  0  0  0  3  0  0  0  0  0  0
  186.4830  177.7290  146.9960 C   0  0  0  0  0  0  0  0  0  0  0  0
  185.6490  178.1030  145.8900 N   0  0  0  0  0  0  0  0  0  0  0  0
  186.3300  178.2850  148.1210 O   0  0  0  0  0  0  0  0  0  0  0  0
  184.4200  177.9760  142.4900 C   0  0  0  0  0  0  0  0  0  0  0  0
  183.1260  178.1670  142.0130 O   0  0  0  0  0  1  0  0  0  0  0  0
  185.3330  177.6300  141.6940 O   0  0  0  0  0  0  0  0  0  0  0  0
  1  3  2  0  0  0  0
  1 11  1  0  0  0  0
  2  9  1  0  0  0  0
  2  4  2  0  0  0  0
  3 23  1  0  0  0  0
  4 14  1  0  0  0  0
  7 10  1  0  0  0  0
  8 20  1  0  0  0  0
  8 21  1  0  0  0  0
  9  1  1  0  0  0  0
 11  6  1  1  0  0  0
 11 20  1  0  0  0  0
 13 18  2  0  0  0  0
 13 24  1  0  0  0  0
 14  6  2  0  0  0  0
 15 25  1  0  0  0  0
 16 13  1  0  0  0  0
 17 26  1  1  0  0  0
 17  5  1  0  0  0  0
 18  2  1  0  0  0  0
 20  7  2  0  0  0  0
 21  5  1  0  0  0  0
 21 10  2  0  0  0  0
 22 19  1  0  0  0  0
 22 15  1  0  0  0  0
 23 19  1  0  0  0  0
 23  8  2  0  0  0  0
 24 12  1  6  0  0  0
 24  9  1  0  0  0  0
 25 17  1  0  0  0  0
 26 27  1  0  0  0  0
 28 27  1  0  0  0  0
 28 33  1  0  0  0  0
 30 31  2  0  0  0  0
 30 32  1  0  0  0  0
 31 34  1  0  0  0  0
 32 29  2  0  0  0  0
 33 35  2  0  0  0  0
 34 29  1  0  0  0  0
 34 33  1  0  0  0  0
 36 30  1  0  0  0  0
 37 36  1  0  0  0  0
 38 36  2  0  0  0  0
M  END
>  <MODEL>
9

>  <REMARK>
 VINA RESULT:      -7.3      3.581      8.392
  Name = 
  5 active torsions:
  status: ('A' for Active; 'I' for Inactive)
    1  A    between atoms: C_6  and  C_16
    2  A    between atoms: C_9  and  C_25
    3  A    between atoms: C_25  and  S_28
    4  A    between atoms: C_27  and  C_34
    5  A    between atoms: S_28  and  C_34
                            x       y       z     vdW  Elec       q    Type
                         _______ _______ _______ _____ _____    ______ ____

>  <TORSDO>
F 5

$$$$
