=
 OpenBabel11042418253D

 28 31  0  0  1  0  0  0  0  0999 V2000
  186.2860  179.0400  144.1640 C   0  0  0  0  0  2  0  0  0  0  0  0
  184.6870  177.6630  145.4530 O   0  0  0  0  0  0  0  0  0  0  0  0
  186.3280  177.6880  147.6930 O   0  0  0  0  0  0  0  0  0  0  0  0
  186.9480  177.7890  146.4350 C   0  0  2  0  0  3  0  0  0  0  0  0
  185.9340  178.3070  145.4480 C   0  0  1  0  0  0  0  0  0  0  0  0
  184.8230  178.8480  146.2120 C   0  0  2  0  0  3  0  0  0  0  0  0
  185.1740  178.4990  147.6470 C   0  0  0  0  0  2  0  0  0  0  0  0
  187.4700  176.4300  145.9930 C   0  0  0  0  0  2  0  0  0  0  0  0
  188.6610  176.0440  146.7980 C   0  0  0  0  0  0  0  0  0  0  0  0
  188.6530  174.9610  147.4430 O   0  0  0  0  0  0  0  0  0  0  0  0
  189.8130  176.8880  146.8070 N   0  0  0  0  0  2  0  0  0  0  0  0
  191.0420  176.5310  147.4990 C   0  0  0  0  0  2  0  0  0  0  0  0
  192.0770  175.4710  146.4400 S   0  0  0  0  0  0  0  0  0  0  0  0
  193.5670  176.4760  146.7100 C   0  0  0  0  0  2  0  0  0  0  0  0
  194.6830  175.8120  146.2000 O   0  0  0  0  0  1  0  0  0  0  0  0
  186.1230  178.1250  142.9610 C   0  0  0  0  0  2  0  0  0  0  0  0
  189.7210  177.1530  142.8930 C   0  0  0  0  0  0  0  0  0  0  0  0
  189.6750  175.8180  142.4390 C   0  0  0  0  0  0  0  0  0  0  0  0
  187.2660  176.0000  142.3170 C   0  0  0  0  0  3  0  0  0  0  0  0
  192.0440  175.6670  142.5740 C   0  0  0  0  0  3  0  0  0  0  0  0
  192.1260  176.9870  143.0270 C   0  0  0  0  0  3  0  0  0  0  0  0
  190.8330  175.1140  142.2920 N   0  0  0  0  0  0  0  0  0  0  0  0
  187.3590  177.3210  142.7630 C   0  0  0  0  0  0  0  0  0  0  0  0
  188.4280  175.2410  142.1500 C   0  0  0  0  0  0  0  0  0  0  0  0
  188.5740  177.8650  143.0450 N   0  0  0  0  0  0  0  0  0  0  0  0
  190.9570  177.7320  143.1860 C   0  0  0  0  0  3  0  0  0  0  0  0
  188.3160  173.8840  141.6860 C   0  0  0  0  0  0  0  0  0  0  0  0
  188.2250  172.7920  141.3120 N   0  0  0  0  0  0  0  0  0  0  0  0
  2  6  1  0  0  0  0
  4  8  1  6  0  0  0
  4  3  1  0  0  0  0
  5  1  1  6  0  0  0
  5  2  1  0  0  0  0
  5  6  1  0  0  0  0
  5  4  1  0  0  0  0
  6  7  1  1  0  0  0
  7  3  1  0  0  0  0
  8  9  1  0  0  0  0
  9 11  1  0  0  0  0
  9 10  2  0  0  0  0
 11 12  1  0  0  0  0
 13 14  1  0  0  0  0
 13 12  1  0  0  0  0
 15 14  1  0  0  0  0
 16  1  1  0  0  0  0
 17 25  1  0  0  0  0
 17 26  1  0  0  0  0
 18 17  2  0  0  0  0
 19 23  1  0  0  0  0
 20 21  1  0  0  0  0
 21 26  2  0  0  0  0
 22 18  1  0  0  0  0
 22 20  2  0  0  0  0
 23 16  1  0  0  0  0
 23 25  2  0  0  0  0
 24 19  2  0  0  0  0
 24 18  1  0  0  0  0
 27 24  1  0  0  0  0
 28 27  3  0  0  0  0
M  END
>  <MODEL>
1

>  <REMARK>
 VINA RESULT:      -6.3      0.000      0.000
  Name = 
  9 active torsions:
  status: ('A' for Active; 'I' for Inactive)
    1  A    between atoms: C_1  and  C_3
    2  A    between atoms: C_1  and  C_20
    3  A    between atoms: C_3  and  C_13
    4  A    between atoms: C_4  and  S_22
    5  A    between atoms: C_6  and  C_17
    6  A    between atoms: C_10  and  C_21
    7  A    between atoms: C_11  and  C_17
    8  A    between atoms: S_22  and  C_25
    9  A    between atoms: C_25  and  N_27
                            x       y       z     vdW  Elec       q    Type
                         _______ _______ _______ _____ _____    ______ ____

>  <TORSDO>
F 9

$$$$
=
 OpenBabel11042418253D

 28 31  0  0  1  0  0  0  0  0999 V2000
  186.9830  176.7830  146.4810 C   0  0  0  0  0  2  0  0  0  0  0  0
  186.0250  179.0340  146.8390 O   0  0  0  0  0  0  0  0  0  0  0  0
  184.2280  178.7020  144.7490 O   0  0  0  0  0  0  0  0  0  0  0  0
  185.4510  178.0140  144.6660 C   0  0  2  0  0  3  0  0  0  0  0  0
  186.0060  177.8670  146.0600 C   0  0  1  0  0  0  0  0  0  0  0  0
  184.9270  178.1560  146.9880 C   0  0  2  0  0  3  0  0  0  0  0  0
  183.7900  178.6010  146.0860 C   0  0  0  0  0  2  0  0  0  0  0  0
  186.4280  178.7770  143.7850 C   0  0  0  0  0  2  0  0  0  0  0  0
  187.0190  177.8720  142.7610 C   0  0  0  0  0  0  0  0  0  0  0  0
  186.5040  177.8080  141.6130 O   0  0  0  0  0  0  0  0  0  0  0  0
  188.1840  177.1100  143.0800 N   0  0  0  0  0  2  0  0  0  0  0  0
  188.8670  176.2740  142.1030 C   0  0  0  0  0  2  0  0  0  0  0  0
  188.0890  174.6300  142.0250 S   0  0  0  0  0  0  0  0  0  0  0  0
  189.5400  173.8650  141.2440 C   0  0  0  0  0  2  0  0  0  0  0  0
  189.3450  172.4880  141.1330 O   0  0  0  0  0  1  0  0  0  0  0  0
  188.3180  177.3890  146.8830 C   0  0  0  0  0  2  0  0  0  0  0  0
  191.7540  176.0300  146.3880 C   0  0  0  0  0  0  0  0  0  0  0  0
  191.5090  174.7640  145.8160 C   0  0  0  0  0  0  0  0  0  0  0  0
  189.1380  175.2270  145.9360 C   0  0  0  0  0  3  0  0  0  0  0  0
  193.8450  174.3330  145.7140 C   0  0  0  0  0  3  0  0  0  0  0  0
  194.1240  175.5810  146.2800 C   0  0  0  0  0  3  0  0  0  0  0  0
  192.5570  173.9530  145.4950 N   0  0  0  0  0  0  0  0  0  0  0  0
  189.4270  176.4760  146.4950 C   0  0  0  0  0  0  0  0  0  0  0  0
  190.1820  174.3650  145.5910 C   0  0  0  0  0  0  0  0  0  0  0  0
  190.7180  176.8460  146.7130 N   0  0  0  0  0  0  0  0  0  0  0  0
  193.0700  176.4320  146.6180 C   0  0  0  0  0  3  0  0  0  0  0  0
  189.8690  173.0840  145.0120 C   0  0  0  0  0  0  0  0  0  0  0  0
  189.6190  172.0540  144.5470 N   0  0  0  0  0  0  0  0  0  0  0  0
  1 16  1  0  0  0  0
  2  6  1  0  0  0  0
  3  7  1  0  0  0  0
  4  8  1  6  0  0  0
  4  3  1  0  0  0  0
  4  5  1  0  0  0  0
  5  1  1  1  0  0  0
  5  2  1  0  0  0  0
  5  6  1  0  0  0  0
  6  7  1  6  0  0  0
  9 11  1  0  0  0  0
  9  8  1  0  0  0  0
 10  9  2  0  0  0  0
 12 11  1  0  0  0  0
 13 12  1  0  0  0  0
 14 13  1  0  0  0  0
 15 14  1  0  0  0  0
 17 26  1  0  0  0  0
 17 25  1  0  0  0  0
 18 17  2  0  0  0  0
 19 23  1  0  0  0  0
 20 21  1  0  0  0  0
 21 26  2  0  0  0  0
 22 20  2  0  0  0  0
 22 18  1  0  0  0  0
 23 25  2  0  0  0  0
 23 16  1  0  0  0  0
 24 18  1  0  0  0  0
 24 19  2  0  0  0  0
 27 24  1  0  0  0  0
 28 27  3  0  0  0  0
M  END
>  <MODEL>
2

>  <REMARK>
 VINA RESULT:      -6.3      2.695      4.406
  Name = 
  9 active torsions:
  status: ('A' for Active; 'I' for Inactive)
    1  A    between atoms: C_1  and  C_3
    2  A    between atoms: C_1  and  C_20
    3  A    between atoms: C_3  and  C_13
    4  A    between atoms: C_4  and  S_22
    5  A    between atoms: C_6  and  C_17
    6  A    between atoms: C_10  and  C_21
    7  A    between atoms: C_11  and  C_17
    8  A    between atoms: S_22  and  C_25
    9  A    between atoms: C_25  and  N_27
                            x       y       z     vdW  Elec       q    Type
                         _______ _______ _______ _____ _____    ______ ____

>  <TORSDO>
F 9

$$$$
=
 OpenBabel11042418253D

 28 31  0  0  1  0  0  0  0  0999 V2000
  189.8170  177.4520  145.7280 C   0  0  0  0  0  2  0  0  0  0  0  0
  190.3990  175.6280  147.2920 O   0  0  0  0  0  0  0  0  0  0  0  0
  191.9670  174.3640  145.3810 O   0  0  0  0  0  0  0  0  0  0  0  0
  190.8830  175.1340  144.9230 C   0  0  2  0  0  3  0  0  0  0  0  0
  190.5310  176.1370  145.9910 C   0  0  1  0  0  0  0  0  0  0  0  0
  191.6440  176.1850  146.9230 C   0  0  2  0  0  3  0  0  0  0  0  0
  192.5700  175.0890  146.4300 C   0  0  0  0  0  2  0  0  0  0  0  0
  189.6890  174.2400  144.6230 C   0  0  0  0  0  2  0  0  0  0  0  0
  189.4450  174.1760  143.1560 C   0  0  0  0  0  0  0  0  0  0  0  0
  188.3170  174.5020  142.6970 O   0  0  0  0  0  0  0  0  0  0  0  0
  190.5000  173.7770  142.2800 N   0  0  0  0  0  2  0  0  0  0  0  0
  190.3600  173.7770  140.8310 C   0  0  0  0  0  2  0  0  0  0  0  0
  189.8180  172.1390  140.2490 S   0  0  0  0  0  0  0  0  0  0  0  0
  188.3220  172.7990  139.4570 C   0  0  0  0  0  2  0  0  0  0  0  0
  188.3810  174.1930  139.4230 O   0  0  0  0  0  1  0  0  0  0  0  0
  189.6520  177.6850  144.2350 C   0  0  0  0  0  2  0  0  0  0  0  0
  186.5110  177.9970  142.2510 C   0  0  0  0  0  0  0  0  0  0  0  0
  185.5120  178.0050  143.2480 C   0  0  0  0  0  0  0  0  0  0  0  0
  187.2520  177.8080  144.9170 C   0  0  0  0  0  3  0  0  0  0  0  0
  183.8240  178.1930  141.5840 C   0  0  0  0  0  3  0  0  0  0  0  0
  184.7870  178.1880  140.5710 C   0  0  0  0  0  3  0  0  0  0  0  0
  184.2010  178.1030  142.8880 N   0  0  0  0  0  0  0  0  0  0  0  0
  188.2090  177.8110  143.8970 C   0  0  0  0  0  0  0  0  0  0  0  0
  185.8960  177.9080  144.5950 C   0  0  0  0  0  0  0  0  0  0  0  0
  187.8210  177.8990  142.5960 N   0  0  0  0  0  0  0  0  0  0  0  0
  186.1380  178.0900  140.9090 C   0  0  0  0  0  3  0  0  0  0  0  0
  184.9230  177.9080  145.6550 C   0  0  0  0  0  0  0  0  0  0  0  0
  184.1420  177.9080  146.5090 N   0  0  0  0  0  0  0  0  0  0  0  0
  3  7  1  0  0  0  0
  4  8  1  1  0  0  0
  4  3  1  0  0  0  0
  4  5  1  0  0  0  0
  5  1  1  6  0  0  0
  5  6  1  0  0  0  0
  5  2  1  0  0  0  0
  6  7  1  6  0  0  0
  6  2  1  0  0  0  0
  9  8  1  0  0  0  0
 10  9  2  0  0  0  0
 11  9  1  0  0  0  0
 12 11  1  0  0  0  0
 13 12  1  0  0  0  0
 14 13  1  0  0  0  0
 15 14  1  0  0  0  0
 16  1  1  0  0  0  0
 17 25  2  0  0  0  0
 17 18  1  0  0  0  0
 18 24  2  0  0  0  0
 20 22  2  0  0  0  0
 21 26  2  0  0  0  0
 21 20  1  0  0  0  0
 22 18  1  0  0  0  0
 23 16  1  0  0  0  0
 23 19  2  0  0  0  0
 24 19  1  0  0  0  0
 24 27  1  0  0  0  0
 25 23  1  0  0  0  0
 26 17  1  0  0  0  0
 27 28  3  0  0  0  0
M  END
>  <MODEL>
3

>  <REMARK>
 VINA RESULT:      -6.3      3.134      6.160
  Name = 
  9 active torsions:
  status: ('A' for Active; 'I' for Inactive)
    1  A    between atoms: C_1  and  C_3
    2  A    between atoms: C_1  and  C_20
    3  A    between atoms: C_3  and  C_13
    4  A    between atoms: C_4  and  S_22
    5  A    between atoms: C_6  and  C_17
    6  A    between atoms: C_10  and  C_21
    7  A    between atoms: C_11  and  C_17
    8  A    between atoms: S_22  and  C_25
    9  A    between atoms: C_25  and  N_27
                            x       y       z     vdW  Elec       q    Type
                         _______ _______ _______ _____ _____    ______ ____

>  <TORSDO>
F 9

$$$$
=
 OpenBabel11042418253D

 28 31  0  0  1  0  0  0  0  0999 V2000
  189.8150  177.7840  144.9950 C   0  0  0  0  0  2  0  0  0  0  0  0
  189.6900  175.3860  145.5820 O   0  0  0  0  0  0  0  0  0  0  0  0
  192.0860  175.5080  146.9780 O   0  0  0  0  0  0  0  0  0  0  0  0
  191.9160  176.4020  145.9070 C   0  0  2  0  0  3  0  0  0  0  0  0
  190.4380  176.5700  145.6630 C   0  0  1  0  0  0  0  0  0  0  0  0
  189.7450  176.0500  146.8280 C   0  0  2  0  0  3  0  0  0  0  0  0
  190.8600  175.4620  147.6730 C   0  0  0  0  0  2  0  0  0  0  0  0
  192.6010  175.8670  144.6580 C   0  0  0  0  0  2  0  0  0  0  0  0
  194.0790  175.9790  144.7880 C   0  0  0  0  0  0  0  0  0  0  0  0
  194.5850  177.0230  145.2820 O   0  0  0  0  0  0  0  0  0  0  0  0
  194.9090  174.8900  144.3820 N   0  0  0  0  0  2  0  0  0  0  0  0
  196.3540  174.8940  144.5620 C   0  0  0  0  0  2  0  0  0  0  0  0
  197.1880  174.5420  142.9830 S   0  0  0  0  0  0  0  0  0  0  0  0
  196.8810  176.2090  142.3280 C   0  0  0  0  0  2  0  0  0  0  0  0
  197.2600  177.1640  143.2720 O   0  0  0  0  0  1  0  0  0  0  0  0
  189.4240  177.4680  143.5610 C   0  0  0  0  0  2  0  0  0  0  0  0
  186.1090  177.9340  141.9190 C   0  0  0  0  0  0  0  0  0  0  0  0
  185.2250  178.0070  143.0160 C   0  0  0  0  0  0  0  0  0  0  0  0
  187.1210  177.7310  144.4930 C   0  0  0  0  0  3  0  0  0  0  0  0
  183.3800  178.2710  141.5400 C   0  0  0  0  0  3  0  0  0  0  0  0
  184.2270  178.2030  140.4300 C   0  0  0  0  0  3  0  0  0  0  0  0
  183.8900  178.1730  142.7980 N   0  0  0  0  0  0  0  0  0  0  0  0
  187.9610  177.6710  143.3770 C   0  0  0  0  0  0  0  0  0  0  0  0
  185.7450  177.9020  144.3160 C   0  0  0  0  0  0  0  0  0  0  0  0
  187.4420  177.7680  142.1230 N   0  0  0  0  0  0  0  0  0  0  0  0
  185.5990  178.0340  140.6240 C   0  0  0  0  0  3  0  0  0  0  0  0
  184.8930  177.9670  145.4750 C   0  0  0  0  0  0  0  0  0  0  0  0
  184.2100  178.0180  146.4070 N   0  0  0  0  0  0  0  0  0  0  0  0
  2  5  1  0  0  0  0
  2  6  1  0  0  0  0
  3  7  1  0  0  0  0
  4  8  1  6  0  0  0
  4  3  1  0  0  0  0
  5  1  1  6  0  0  0
  5  4  1  0  0  0  0
  5  6  1  0  0  0  0
  6  7  1  1  0  0  0
  8  9  1  0  0  0  0
  9 10  2  0  0  0  0
 11 12  1  0  0  0  0
 11  9  1  0  0  0  0
 13 12  1  0  0  0  0
 14 13  1  0  0  0  0
 14 15  1  0  0  0  0
 16  1  1  0  0  0  0
 17 25  2  0  0  0  0
 17 18  1  0  0  0  0
 18 24  2  0  0  0  0
 20 22  2  0  0  0  0
 21 26  2  0  0  0  0
 21 20  1  0  0  0  0
 22 18  1  0  0  0  0
 23 16  1  0  0  0  0
 23 19  2  0  0  0  0
 24 19  1  0  0  0  0
 24 27  1  0  0  0  0
 25 23  1  0  0  0  0
 26 17  1  0  0  0  0
 27 28  3  0  0  0  0
M  END
>  <MODEL>
4

>  <REMARK>
 VINA RESULT:      -6.2      2.942      5.716
  Name = 
  9 active torsions:
  status: ('A' for Active; 'I' for Inactive)
    1  A    between atoms: C_1  and  C_3
    2  A    between atoms: C_1  and  C_20
    3  A    between atoms: C_3  and  C_13
    4  A    between atoms: C_4  and  S_22
    5  A    between atoms: C_6  and  C_17
    6  A    between atoms: C_10  and  C_21
    7  A    between atoms: C_11  and  C_17
    8  A    between atoms: S_22  and  C_25
    9  A    between atoms: C_25  and  N_27
                            x       y       z     vdW  Elec       q    Type
                         _______ _______ _______ _____ _____    ______ ____

>  <TORSDO>
F 9

$$$$
=
 OpenBabel11042418253D

 28 31  0  0  1  0  0  0  0  0999 V2000
  191.0860  176.8420  145.9950 C   0  0  0  0  0  2  0  0  0  0  0  0
  192.1660  174.9450  147.1550 O   0  0  0  0  0  0  0  0  0  0  0  0
  192.4500  173.5350  144.7810 O   0  0  0  0  0  0  0  0  0  0  0  0
  191.3690  174.4280  144.8770 C   0  0  2  0  0  3  0  0  0  0  0  0
  191.6950  175.4520  145.9340 C   0  0  1  0  0  0  0  0  0  0  0  0
  193.1200  175.3620  146.1980 C   0  0  2  0  0  3  0  0  0  0  0  0
  193.5630  174.1730  145.3660 C   0  0  0  0  0  2  0  0  0  0  0  0
  190.0950  173.6800  145.2410 C   0  0  0  0  0  2  0  0  0  0  0  0
  189.4360  173.1500  144.0150 C   0  0  0  0  0  0  0  0  0  0  0  0
  189.2960  171.9060  143.8710 O   0  0  0  0  0  0  0  0  0  0  0  0
  188.9410  174.0590  143.0300 N   0  0  0  0  0  2  0  0  0  0  0  0
  188.2090  173.6160  141.8530 C   0  0  0  0  0  2  0  0  0  0  0  0
  189.3670  173.1440  140.5290 S   0  0  0  0  0  0  0  0  0  0  0  0
  188.5520  174.2000  139.2960 C   0  0  0  0  0  2  0  0  0  0  0  0
  188.1880  173.4360  138.1870 O   0  0  0  0  0  1  0  0  0  0  0  0
  189.8700  176.8580  146.9060 C   0  0  0  0  0  2  0  0  0  0  0  0
  186.3960  177.9640  146.1250 C   0  0  0  0  0  0  0  0  0  0  0  0
  186.4160  178.0840  144.7190 C   0  0  0  0  0  0  0  0  0  0  0  0
  188.7310  177.3810  144.7450 C   0  0  0  0  0  3  0  0  0  0  0  0
  184.1420  178.7760  144.7250 C   0  0  0  0  0  3  0  0  0  0  0  0
  184.0870  178.6690  146.1180 C   0  0  0  0  0  3  0  0  0  0  0  0
  185.2920  178.4840  144.0600 N   0  0  0  0  0  0  0  0  0  0  0  0
  188.6650  177.2700  146.1380 C   0  0  0  0  0  0  0  0  0  0  0  0
  187.6020  177.7880  144.0290 C   0  0  0  0  0  0  0  0  0  0  0  0
  187.5100  177.5670  146.7940 N   0  0  0  0  0  0  0  0  0  0  0  0
  185.2220  178.2600  146.8190 C   0  0  0  0  0  3  0  0  0  0  0  0
  187.6840  177.8930  142.5960 C   0  0  0  0  0  0  0  0  0  0  0  0
  187.7520  177.9780  141.4430 N   0  0  0  0  0  0  0  0  0  0  0  0
  1 16  1  0  0  0  0
  3  4  1  0  0  0  0
  3  7  1  0  0  0  0
  4  8  1  1  0  0  0
  4  5  1  0  0  0  0
  5  1  1  6  0  0  0
  5  6  1  0  0  0  0
  5  2  1  0  0  0  0
  6  7  1  6  0  0  0
  6  2  1  0  0  0  0
  9  8  1  0  0  0  0
 10  9  2  0  0  0  0
 11  9  1  0  0  0  0
 12 11  1  0  0  0  0
 13 12  1  0  0  0  0
 14 13  1  0  0  0  0
 15 14  1  0  0  0  0
 17 25  1  0  0  0  0
 17 26  1  0  0  0  0
 18 17  2  0  0  0  0
 19 23  1  0  0  0  0
 20 21  1  0  0  0  0
 21 26  2  0  0  0  0
 22 18  1  0  0  0  0
 22 20  2  0  0  0  0
 23 25  2  0  0  0  0
 23 16  1  0  0  0  0
 24 18  1  0  0  0  0
 24 19  2  0  0  0  0
 27 24  1  0  0  0  0
 28 27  3  0  0  0  0
M  END
>  <MODEL>
5

>  <REMARK>
 VINA RESULT:      -6.1      3.052      6.532
  Name = 
  9 active torsions:
  status: ('A' for Active; 'I' for Inactive)
    1  A    between atoms: C_1  and  C_3
    2  A    between atoms: C_1  and  C_20
    3  A    between atoms: C_3  and  C_13
    4  A    between atoms: C_4  and  S_22
    5  A    between atoms: C_6  and  C_17
    6  A    between atoms: C_10  and  C_21
    7  A    between atoms: C_11  and  C_17
    8  A    between atoms: S_22  and  C_25
    9  A    between atoms: C_25  and  N_27
                            x       y       z     vdW  Elec       q    Type
                         _______ _______ _______ _____ _____    ______ ____

>  <TORSDO>
F 9

$$$$
=
 OpenBabel11042418253D

 28 31  0  0  1  0  0  0  0  0999 V2000
  186.3150  178.9970  144.0540 C   0  0  0  0  0  2  0  0  0  0  0  0
  184.5310  177.7600  145.2350 O   0  0  0  0  0  0  0  0  0  0  0  0
  185.9520  177.8020  147.6200 O   0  0  0  0  0  0  0  0  0  0  0  0
  186.6920  177.8170  146.4250 C   0  0  2  0  0  3  0  0  0  0  0  0
  185.8050  178.3410  145.3250 C   0  0  1  0  0  0  0  0  0  0  0  0
  184.6580  178.9680  145.9570 C   0  0  2  0  0  3  0  0  0  0  0  0
  184.8530  178.6660  147.4310 C   0  0  0  0  0  2  0  0  0  0  0  0
  187.1800  176.4160  146.0890 C   0  0  0  0  0  2  0  0  0  0  0  0
  188.4500  176.1210  146.8080 C   0  0  0  0  0  0  0  0  0  0  0  0
  188.5660  175.0440  147.4530 O   0  0  0  0  0  0  0  0  0  0  0  0
  189.5350  177.0470  146.7360 N   0  0  0  0  0  2  0  0  0  0  0  0
  190.8330  176.7840  147.3390 C   0  0  0  0  0  2  0  0  0  0  0  0
  191.7520  175.5600  146.3520 S   0  0  0  0  0  0  0  0  0  0  0  0
  193.3380  176.4190  146.5700 C   0  0  0  0  0  2  0  0  0  0  0  0
  194.3900  175.5470  146.2890 O   0  0  0  0  0  1  0  0  0  0  0  0
  186.1260  178.0770  142.8590 C   0  0  0  0  0  2  0  0  0  0  0  0
  188.0700  174.9400  142.3310 C   0  0  0  0  0  0  0  0  0  0  0  0
  189.4010  175.3610  142.5300 C   0  0  0  0  0  0  0  0  0  0  0  0
  188.5750  177.5940  142.9590 C   0  0  0  0  0  3  0  0  0  0  0  0
  190.1850  173.1580  142.0980 C   0  0  0  0  0  3  0  0  0  0  0  0
  188.8780  172.7070  141.8940 C   0  0  0  0  0  3  0  0  0  0  0  0
  190.4190  174.4620  142.4090 N   0  0  0  0  0  0  0  0  0  0  0  0
  187.2700  177.1310  142.7600 C   0  0  0  0  0  0  0  0  0  0  0  0
  189.6480  176.7060  142.8470 C   0  0  0  0  0  0  0  0  0  0  0  0
  187.0470  175.8260  142.4480 N   0  0  0  0  0  0  0  0  0  0  0  0
  187.8160  173.6050  142.0130 C   0  0  0  0  0  3  0  0  0  0  0  0
  190.9850  177.1960  143.0580 C   0  0  0  0  0  0  0  0  0  0  0  0
  192.0610  177.5900  143.2260 N   0  0  0  0  0  0  0  0  0  0  0  0
  2  5  1  0  0  0  0
  2  6  1  0  0  0  0
  4  8  1  6  0  0  0
  4  3  1  0  0  0  0
  5  1  1  6  0  0  0
  5  6  1  0  0  0  0
  5  4  1  0  0  0  0
  6  7  1  1  0  0  0
  7  3  1  0  0  0  0
  8  9  1  0  0  0  0
  9 10  2  0  0  0  0
 11  9  1  0  0  0  0
 11 12  1  0  0  0  0
 13 14  1  0  0  0  0
 13 12  1  0  0  0  0
 15 14  1  0  0  0  0
 16  1  1  0  0  0  0
 17 25  2  0  0  0  0
 17 18  1  0  0  0  0
 18 24  2  0  0  0  0
 20 22  2  0  0  0  0
 21 26  2  0  0  0  0
 21 20  1  0  0  0  0
 22 18  1  0  0  0  0
 23 16  1  0  0  0  0
 23 19  2  0  0  0  0
 24 19  1  0  0  0  0
 24 27  1  0  0  0  0
 25 23  1  0  0  0  0
 26 17  1  0  0  0  0
 27 28  3  0  0  0  0
M  END
>  <MODEL>
6

>  <REMARK>
 VINA RESULT:      -6.1      0.970      2.358
  Name = 
  9 active torsions:
  status: ('A' for Active; 'I' for Inactive)
    1  A    between atoms: C_1  and  C_3
    2  A    between atoms: C_1  and  C_20
    3  A    between atoms: C_3  and  C_13
    4  A    between atoms: C_4  and  S_22
    5  A    between atoms: C_6  and  C_17
    6  A    between atoms: C_10  and  C_21
    7  A    between atoms: C_11  and  C_17
    8  A    between atoms: S_22  and  C_25
    9  A    between atoms: C_25  and  N_27
                            x       y       z     vdW  Elec       q    Type
                         _______ _______ _______ _____ _____    ______ ____

>  <TORSDO>
F 9

$$$$
=
 OpenBabel11042418253D

 28 31  0  0  1  0  0  0  0  0999 V2000
  191.2350  177.1380  145.1960 C   0  0  0  0  0  2  0  0  0  0  0  0
  193.1870  176.3970  146.5210 O   0  0  0  0  0  0  0  0  0  0  0  0
  194.0990  174.7890  144.4490 O   0  0  0  0  0  0  0  0  0  0  0  0
  192.7130  175.0070  144.5360 C   0  0  2  0  0  3  0  0  0  0  0  0
  192.4830  176.2790  145.3130 C   0  0  1  0  0  0  0  0  0  0  0  0
  193.7490  176.9880  145.3670 C   0  0  2  0  0  3  0  0  0  0  0  0
  194.7260  176.0230  144.7220 C   0  0  0  0  0  2  0  0  0  0  0  0
  192.0350  173.8350  145.2290 C   0  0  0  0  0  2  0  0  0  0  0  0
  190.7660  173.4850  144.5350 C   0  0  0  0  0  0  0  0  0  0  0  0
  189.7190  173.2910  145.2100 O   0  0  0  0  0  0  0  0  0  0  0  0
  190.7390  173.4030  143.1090 N   0  0  0  0  0  2  0  0  0  0  0  0
  189.5160  173.1540  142.3610 C   0  0  0  0  0  2  0  0  0  0  0  0
  189.6750  173.7880  140.6610 S   0  0  0  0  0  0  0  0  0  0  0  0
  188.2000  174.8380  140.8030 C   0  0  0  0  0  2  0  0  0  0  0  0
  187.7050  174.7850  142.1060 O   0  0  0  0  0  1  0  0  0  0  0  0
  190.2330  176.7810  146.2810 C   0  0  0  0  0  2  0  0  0  0  0  0
  186.6580  177.8220  146.4840 C   0  0  0  0  0  0  0  0  0  0  0  0
  186.3270  178.0630  145.1340 C   0  0  0  0  0  0  0  0  0  0  0  0
  188.5860  177.4470  144.5250 C   0  0  0  0  0  3  0  0  0  0  0  0
  184.1160  178.6680  145.7640 C   0  0  0  0  0  3  0  0  0  0  0  0
  184.4100  178.4390  147.1110 C   0  0  0  0  0  3  0  0  0  0  0  0
  185.0690  178.4780  144.8120 N   0  0  0  0  0  0  0  0  0  0  0  0
  188.8690  177.2140  145.8740 C   0  0  0  0  0  0  0  0  0  0  0  0
  187.3080  177.8720  144.1490 C   0  0  0  0  0  0  0  0  0  0  0  0
  187.9090  177.4090  146.8190 N   0  0  0  0  0  0  0  0  0  0  0  0
  185.6900  178.0130  147.4700 C   0  0  0  0  0  3  0  0  0  0  0  0
  187.0310  178.1040  142.7560 C   0  0  0  0  0  0  0  0  0  0  0  0
  186.8060  178.2900  141.6360 N   0  0  0  0  0  0  0  0  0  0  0  0
  1 16  1  0  0  0  0
  3  4  1  0  0  0  0
  3  7  1  0  0  0  0
  4  8  1  1  0  0  0
  4  5  1  0  0  0  0
  5  1  1  6  0  0  0
  5  6  1  0  0  0  0
  5  2  1  0  0  0  0
  6  7  1  6  0  0  0
  6  2  1  0  0  0  0
  9 10  2  0  0  0  0
  9  8  1  0  0  0  0
 11  9  1  0  0  0  0
 12 11  1  0  0  0  0
 13 14  1  0  0  0  0
 13 12  1  0  0  0  0
 14 15  1  0  0  0  0
 17 25  1  0  0  0  0
 17 26  1  0  0  0  0
 18 17  2  0  0  0  0
 19 23  1  0  0  0  0
 20 21  1  0  0  0  0
 21 26  2  0  0  0  0
 22 18  1  0  0  0  0
 22 20  2  0  0  0  0
 23 16  1  0  0  0  0
 23 25  2  0  0  0  0
 24 19  2  0  0  0  0
 24 18  1  0  0  0  0
 27 24  1  0  0  0  0
 28 27  3  0  0  0  0
M  END
>  <MODEL>
7

>  <REMARK>
 VINA RESULT:      -6.1      2.598      6.530
  Name = 
  9 active torsions:
  status: ('A' for Active; 'I' for Inactive)
    1  A    between atoms: C_1  and  C_3
    2  A    between atoms: C_1  and  C_20
    3  A    between atoms: C_3  and  C_13
    4  A    between atoms: C_4  and  S_22
    5  A    between atoms: C_6  and  C_17
    6  A    between atoms: C_10  and  C_21
    7  A    between atoms: C_11  and  C_17
    8  A    between atoms: S_22  and  C_25
    9  A    between atoms: C_25  and  N_27
                            x       y       z     vdW  Elec       q    Type
                         _______ _______ _______ _____ _____    ______ ____

>  <TORSDO>
F 9

$$$$
=
 OpenBabel11042418253D

 28 31  0  0  1  0  0  0  0  0999 V2000
  186.9600  176.7390  146.8310 C   0  0  0  0  0  2  0  0  0  0  0  0
  186.1200  179.0630  146.7450 O   0  0  0  0  0  0  0  0  0  0  0  0
  184.5550  178.5120  144.5190 O   0  0  0  0  0  0  0  0  0  0  0  0
  185.7300  177.7600  144.6850 C   0  0  2  0  0  3  0  0  0  0  0  0
  186.1120  177.7950  146.1430 C   0  0  1  0  0  0  0  0  0  0  0  0
  184.9560  178.2730  146.8810 C   0  0  2  0  0  3  0  0  0  0  0  0
  183.9620  178.6340  145.7930 C   0  0  0  0  0  2  0  0  0  0  0  0
  186.8510  178.3330  143.8310 C   0  0  0  0  0  2  0  0  0  0  0  0
  187.2100  177.3850  142.7410 C   0  0  0  0  0  0  0  0  0  0  0  0
  187.3710  177.8160  141.5670 O   0  0  0  0  0  0  0  0  0  0  0  0
  187.4000  176.0020  143.0410 N   0  0  0  0  0  2  0  0  0  0  0  0
  187.8380  175.0350  142.0450 C   0  0  0  0  0  2  0  0  0  0  0  0
  189.6550  175.0230  141.9330 S   0  0  0  0  0  0  0  0  0  0  0  0
  189.6760  173.6690  140.7220 C   0  0  0  0  0  2  0  0  0  0  0  0
  189.1700  172.5070  141.3050 O   0  0  0  0  0  1  0  0  0  0  0  0
  188.3190  177.3040  147.2110 C   0  0  0  0  0  2  0  0  0  0  0  0
  190.0400  174.4010  145.6280 C   0  0  0  0  0  0  0  0  0  0  0  0
  191.4020  174.7610  145.7130 C   0  0  0  0  0  0  0  0  0  0  0  0
  190.7350  176.8150  146.8040 C   0  0  0  0  0  3  0  0  0  0  0  0
  192.0270  172.7370  144.6340 C   0  0  0  0  0  3  0  0  0  0  0  0
  190.6880  172.3490  144.5330 C   0  0  0  0  0  3  0  0  0  0  0  0
  192.3550  173.9230  145.2170 N   0  0  0  0  0  0  0  0  0  0  0  0
  189.3990  176.4150  146.7040 C   0  0  0  0  0  0  0  0  0  0  0  0
  191.7450  175.9850  146.3100 C   0  0  0  0  0  0  0  0  0  0  0  0
  189.0810  175.2290  146.1180 N   0  0  0  0  0  0  0  0  0  0  0  0
  189.6910  173.1880  145.0340 C   0  0  0  0  0  3  0  0  0  0  0  0
  193.1160  176.4080  146.4240 C   0  0  0  0  0  0  0  0  0  0  0  0
  194.2180  176.7500  146.5150 N   0  0  0  0  0  0  0  0  0  0  0  0
  1 16  1  0  0  0  0
  2  6  1  0  0  0  0
  3  4  1  0  0  0  0
  3  7  1  0  0  0  0
  4  8  1  6  0  0  0
  4  5  1  0  0  0  0
  5  2  1  0  0  0  0
  5  1  1  1  0  0  0
  5  6  1  0  0  0  0
  6  7  1  6  0  0  0
  9 11  1  0  0  0  0
  9  8  1  0  0  0  0
 10  9  2  0  0  0  0
 12 11  1  0  0  0  0
 13 12  1  0  0  0  0
 14 15  1  0  0  0  0
 14 13  1  0  0  0  0
 17 18  1  0  0  0  0
 17 25  1  0  0  0  0
 18 24  1  0  0  0  0
 20 22  1  0  0  0  0
 21 20  2  0  0  0  0
 21 26  1  0  0  0  0
 22 18  2  0  0  0  0
 23 19  1  0  0  0  0
 23 16  1  0  0  0  0
 24 27  1  0  0  0  0
 24 19  2  0  0  0  0
 25 23  2  0  0  0  0
 26 17  2  0  0  0  0
 27 28  3  0  0  0  0
M  END
>  <MODEL>
8

>  <REMARK>
 VINA RESULT:      -6.0      2.759      4.964
  Name = 
  9 active torsions:
  status: ('A' for Active; 'I' for Inactive)
    1  A    between atoms: C_1  and  C_3
    2  A    between atoms: C_1  and  C_20
    3  A    between atoms: C_3  and  C_13
    4  A    between atoms: C_4  and  S_22
    5  A    between atoms: C_6  and  C_17
    6  A    between atoms: C_10  and  C_21
    7  A    between atoms: C_11  and  C_17
    8  A    between atoms: S_22  and  C_25
    9  A    between atoms: C_25  and  N_27
                            x       y       z     vdW  Elec       q    Type
                         _______ _______ _______ _____ _____    ______ ____

>  <TORSDO>
F 9

$$$$
=
 OpenBabel11042418253D

 28 31  0  0  1  0  0  0  0  0999 V2000
  190.4680  177.6060  145.0110 C   0  0  0  0  0  2  0  0  0  0  0  0
  189.9350  175.3630  145.9020 O   0  0  0  0  0  0  0  0  0  0  0  0
  192.5310  175.0090  146.8210 O   0  0  0  0  0  0  0  0  0  0  0  0
  192.3490  175.8310  145.6950 C   0  0  2  0  0  3  0  0  0  0  0  0
  190.9280  176.3330  145.7010 C   0  0  1  0  0  0  0  0  0  0  0  0
  190.3880  176.0890  147.0270 C   0  0  2  0  0  3  0  0  0  0  0  0
  191.4920  175.3160  147.7240 C   0  0  0  0  0  2  0  0  0  0  0  0
  192.6300  175.0510  144.4200 C   0  0  0  0  0  2  0  0  0  0  0  0
  193.6540  175.7500  143.5980 C   0  0  0  0  0  0  0  0  0  0  0  0
  193.2970  176.4160  142.5890 O   0  0  0  0  0  0  0  0  0  0  0  0
  195.0300  175.6870  143.9780 N   0  0  0  0  0  2  0  0  0  0  0  0
  196.0730  176.4180  143.2740 C   0  0  0  0  0  2  0  0  0  0  0  0
  197.5750  175.3980  143.1350 S   0  0  0  0  0  0  0  0  0  0  0  0
  197.6250  175.5340  141.3230 C   0  0  0  0  0  2  0  0  0  0  0  0
  196.3870  175.9660  140.8470 O   0  0  0  0  0  1  0  0  0  0  0  0
  189.7770  177.2860  143.6960 C   0  0  0  0  0  2  0  0  0  0  0  0
  186.4410  178.1470  145.1190 C   0  0  0  0  0  0  0  0  0  0  0  0
  185.6440  178.3150  143.9670 C   0  0  0  0  0  0  0  0  0  0  0  0
  187.5820  177.7920  142.6160 C   0  0  0  0  0  3  0  0  0  0  0  0
  183.7580  178.8300  145.3200 C   0  0  0  0  0  3  0  0  0  0  0  0
  184.5180  178.6720  146.4820 C   0  0  0  0  0  3  0  0  0  0  0  0
  184.3290  178.6490  144.0980 N   0  0  0  0  0  0  0  0  0  0  0  0
  188.3320  177.6300  143.7850 C   0  0  0  0  0  0  0  0  0  0  0  0
  186.2290  178.1340  142.7040 C   0  0  0  0  0  0  0  0  0  0  0  0
  187.7520  177.8140  145.0020 N   0  0  0  0  0  0  0  0  0  0  0  0
  185.8670  178.3280  146.3780 C   0  0  0  0  0  3  0  0  0  0  0  0
  185.4680  178.2930  141.4920 C   0  0  0  0  0  0  0  0  0  0  0  0
  184.8560  178.4230  140.5190 N   0  0  0  0  0  0  0  0  0  0  0  0
  2  6  1  0  0  0  0
  3  7  1  0  0  0  0
  4  8  1  6  0  0  0
  4  5  1  0  0  0  0
  4  3  1  0  0  0  0
  5  1  1  6  0  0  0
  5  2  1  0  0  0  0
  5  6  1  0  0  0  0
  6  7  1  1  0  0  0
  9 11  1  0  0  0  0
  9  8  1  0  0  0  0
 10  9  2  0  0  0  0
 12 11  1  0  0  0  0
 13 12  1  0  0  0  0
 14 13  1  0  0  0  0
 15 14  1  0  0  0  0
 16 23  1  0  0  0  0
 16  1  1  0  0  0  0
 17 26  1  0  0  0  0
 18 22  1  0  0  0  0
 18 17  2  0  0  0  0
 19 24  2  0  0  0  0
 19 23  1  0  0  0  0
 20 21  1  0  0  0  0
 22 20  2  0  0  0  0
 23 25  2  0  0  0  0
 24 18  1  0  0  0  0
 25 17  1  0  0  0  0
 26 21  2  0  0  0  0
 27 24  1  0  0  0  0
 28 27  3  0  0  0  0
M  END
>  <MODEL>
9

>  <REMARK>
 VINA RESULT:      -6.0      2.942      5.880
  Name = 
  9 active torsions:
  status: ('A' for Active; 'I' for Inactive)
    1  A    between atoms: C_1  and  C_3
    2  A    between atoms: C_1  and  C_20
    3  A    between atoms: C_3  and  C_13
    4  A    between atoms: C_4  and  S_22
    5  A    between atoms: C_6  and  C_17
    6  A    between atoms: C_10  and  C_21
    7  A    between atoms: C_11  and  C_17
    8  A    between atoms: S_22  and  C_25
    9  A    between atoms: C_25  and  N_27
                            x       y       z     vdW  Elec       q    Type
                         _______ _______ _______ _____ _____    ______ ____

>  <TORSDO>
F 9

$$$$
