=
 OpenBabel11042417593D

 36 39  0  0  1  0  0  0  0  0999 V2000
  191.7060  176.8690  143.4610 C   0  0  2  0  0  3  0  0  0  0  0  0
  191.1540  178.2790  143.5260 C   0  0  0  0  0  1  0  0  0  0  0  0
  190.6330  175.9340  143.4160 O   0  0  0  0  0  0  0  0  0  0  0  0
  188.9100  174.3990  140.5140 C   0  0  0  0  0  3  0  0  0  0  0  0
  190.3670  175.1460  142.2910 C   0  0  0  0  0  0  0  0  0  0  0  0
  191.3110  174.2670  141.8480 N   0  0  0  0  0  0  0  0  0  0  0  0
  191.1050  173.4590  140.7760 C   0  0  0  0  0  3  0  0  0  0  0  0
  189.1220  175.2400  141.6190 C   0  0  0  0  0  0  0  0  0  0  0  0
  189.6160  172.4760  138.7060 Cl  0  0  0  0  0  0  0  0  0  0  0  0
  189.8960  173.5100  140.0910 C   0  0  0  0  0  0  0  0  0  0  0  0
  187.0850  178.4190  142.1710 C   0  0  0  0  0  3  0  0  0  0  0  0
  185.8470  176.5400  143.0480 C   0  0  0  0  0  3  0  0  0  0  0  0
  186.8800  175.6820  142.6630 C   0  0  0  0  0  3  0  0  0  0  0  0
  185.9430  177.9150  142.8070 C   0  0  0  0  0  0  0  0  0  0  0  0
  188.1150  177.5590  141.7860 C   0  0  0  0  0  3  0  0  0  0  0  0
  188.0330  176.1770  142.0280 C   0  0  0  0  0  0  0  0  0  0  0  0
  184.8850  178.7940  143.2130 N   0  0  0  0  0  0  0  0  0  0  0  0
  185.1310  179.8100  143.8970 O   0  0  0  0  0  0  0  0  0  0  0  0
  183.5830  178.5170  142.8650 O   0  0  0  0  0  0  0  0  0  0  0  0
  192.5530  176.6090  144.6920 C   0  0  0  0  0  2  0  0  0  0  0  0
  192.3000  175.2100  145.2510 C   0  0  1  0  0  3  0  0  0  0  0  0
  193.5730  174.4930  145.7070 C   0  0  0  0  0  2  0  0  0  0  0  0
  194.6920  175.4540  146.0830 C   0  0  0  0  0  1  0  0  0  0  0  0
  191.1740  175.1610  146.2890 C   0  0  0  0  0  2  0  0  0  0  0  0
  190.8860  176.5070  146.9500 C   0  0  1  0  0  3  0  0  0  0  0  0
  189.4250  176.8140  146.8720 C   0  0  0  0  0  0  0  0  0  0  0  0
  188.8800  177.9160  147.3770 O   0  0  0  0  0  0  0  0  0  0  0  0
  185.4790  177.7930  146.7920 N   0  0  0  0  0  0  0  0  0  0  0  0
  185.9710  176.6470  146.2430 C   0  0  0  0  0  3  0  0  0  0  0  0
  188.4750  175.9690  146.2570 C   0  0  0  0  0  3  0  0  0  0  0  0
  187.6110  177.8060  147.1170 C   0  0  0  0  0  0  0  0  0  0  0  0
  186.4760  178.5370  147.3460 C   0  0  0  0  0  3  0  0  0  0  0  0
  184.0760  178.1600  146.8100 C   0  0  0  0  0  1  0  0  0  0  0  0
  187.3250  176.6940  146.4670 C   0  0  0  0  0  0  0  0  0  0  0  0
  191.4440  175.1490  148.6680 O   0  0  0  0  0  1  0  0  0  0  0  0
  191.3060  176.4570  148.3410 N   0  0  0  0  0  2  0  0  0  0  0  0
  1  2  1  1  0  0  0
  1 20  1  0  0  0  0
  3  1  1  0  0  0  0
  4  8  2  0  0  0  0
  5  3  1  0  0  0  0
  6  5  2  0  0  0  0
  7  6  1  0  0  0  0
  8 16  1  0  0  0  0
  8  5  1  0  0  0  0
  9 10  1  0  0  0  0
 10  4  1  0  0  0  0
 10  7  2  0  0  0  0
 11 14  1  0  0  0  0
 13 12  1  0  0  0  0
 14 12  2  0  0  0  0
 14 17  1  0  0  0  0
 15 16  1  0  0  0  0
 15 11  2  0  0  0  0
 16 13  2  0  0  0  0
 17 18  2  0  0  0  0
 19 17  2  0  0  0  0
 21 20  1  1  0  0  0
 21 22  1  0  0  0  0
 21 24  1  0  0  0  0
 22 23  1  0  0  0  0
 25 24  1  1  0  0  0
 25 36  1  0  0  0  0
 26 25  1  0  0  0  0
 26 27  1  0  0  0  0
 28 33  1  0  0  0  0
 28 32  1  0  0  0  0
 29 34  2  0  0  0  0
 29 28  1  0  0  0  0
 30 34  1  0  0  0  0
 30 26  2  0  0  0  0
 31 32  2  0  0  0  0
 31 27  1  0  0  0  0
 34 31  1  0  0  0  0
 36 35  1  0  0  0  0
M  END
>  <MODEL>
1

>  <REMARK>
 VINA RESULT:      -7.3      0.000      0.000
  Name = 
  11 active torsions:
  status: ('A' for Active; 'I' for Inactive)
    1  A    between atoms: N_1  and  C_20
    2  A    between atoms: C_2  and  C_10
    3  A    between atoms: C_10  and  C_14
    4  A    between atoms: C_10  and  N_18
    5  A    between atoms: C_11  and  O_28
    6  A    between atoms: C_12  and  C_27
    7  A    between atoms: C_14  and  C_27
    8  A    between atoms: C_22  and  O_28
    9  A    between atoms: C_22  and  C_35
   10  A    between atoms: C_26  and  C_36
   11  A    between atoms: C_27  and  C_35
                            x       y       z     vdW  Elec       q    Type
                         _______ _______ _______ _____ _____    ______ ____

>  <TORSDO>
F 11

$$$$
=
 OpenBabel11042417593D

 36 39  0  0  1  0  0  0  0  0999 V2000
  190.1590  177.4090  142.8640 C   0  0  2  0  0  3  0  0  0  0  0  0
  189.0330  178.1520  142.1720 C   0  0  0  0  0  1  0  0  0  0  0  0
  189.7740  176.0580  143.0940 O   0  0  0  0  0  0  0  0  0  0  0  0
  190.8570  173.4180  140.7270 C   0  0  0  0  0  3  0  0  0  0  0  0
  189.7630  175.0950  142.0800 C   0  0  0  0  0  0  0  0  0  0  0  0
  188.6200  174.8840  141.3670 N   0  0  0  0  0  0  0  0  0  0  0  0
  188.5510  173.9790  140.3560 C   0  0  0  0  0  3  0  0  0  0  0  0
  190.9310  174.3490  141.7760 C   0  0  0  0  0  0  0  0  0  0  0  0
  189.5990  172.0610  138.7170 Cl  0  0  0  0  0  0  0  0  0  0  0  0
  189.6730  173.2310  140.0160 C   0  0  0  0  0  0  0  0  0  0  0  0
  193.8040  173.8110  144.2280 C   0  0  0  0  0  3  0  0  0  0  0  0
  194.3370  175.6890  142.8060 C   0  0  0  0  0  3  0  0  0  0  0  0
  193.1190  175.5270  142.1400 C   0  0  0  0  0  3  0  0  0  0  0  0
  194.6870  174.8340  143.8570 C   0  0  0  0  0  0  0  0  0  0  0  0
  192.5890  173.6510  143.5600 C   0  0  0  0  0  3  0  0  0  0  0  0
  192.2230  174.5080  142.5070 C   0  0  0  0  0  0  0  0  0  0  0  0
  195.9330  175.0090  144.5440 N   0  0  0  0  0  0  0  0  0  0  0  0
  196.8890  175.5890  143.9890 O   0  0  0  0  0  0  0  0  0  0  0  0
  196.0930  174.5230  145.8220 O   0  0  0  0  0  0  0  0  0  0  0  0
  190.4580  178.0840  144.1890 C   0  0  0  0  0  2  0  0  0  0  0  0
  190.6020  177.0560  145.3110 C   0  0  1  0  0  3  0  0  0  0  0  0
  192.0560  176.7090  145.6390 C   0  0  0  0  0  2  0  0  0  0  0  0
  192.1960  175.8740  146.9040 C   0  0  0  0  0  1  0  0  0  0  0  0
  189.7640  177.3840  146.5510 C   0  0  0  0  0  2  0  0  0  0  0  0
  188.5480  176.4790  146.7300 C   0  0  1  0  0  3  0  0  0  0  0  0
  187.4550  176.9010  145.8020 C   0  0  0  0  0  0  0  0  0  0  0  0
  187.2430  176.3380  144.6160 O   0  0  0  0  0  0  0  0  0  0  0  0
  184.5670  177.9420  143.1330 N   0  0  0  0  0  0  0  0  0  0  0  0
  184.7210  178.5580  144.3400 C   0  0  0  0  0  3  0  0  0  0  0  0
  186.5380  177.9380  146.0840 C   0  0  0  0  0  3  0  0  0  0  0  0
  186.2260  176.9820  144.1220 C   0  0  0  0  0  0  0  0  0  0  0  0
  185.4910  176.9560  142.9680 C   0  0  0  0  0  3  0  0  0  0  0  0
  183.5700  178.3070  142.1460 C   0  0  0  0  0  1  0  0  0  0  0  0
  185.7800  177.9190  144.9370 C   0  0  0  0  0  0  0  0  0  0  0  0
  188.9360  174.4440  147.6330 O   0  0  0  0  0  1  0  0  0  0  0  0
  188.9290  175.1040  146.4500 N   0  0  0  0  0  2  0  0  0  0  0  0
  1  2  1  1  0  0  0
  1  3  1  0  0  0  0
  1 20  1  0  0  0  0
  4  8  2  0  0  0  0
  5  3  1  0  0  0  0
  6  5  2  0  0  0  0
  7  6  1  0  0  0  0
  8  5  1  0  0  0  0
  8 16  1  0  0  0  0
  9 10  1  0  0  0  0
 10  7  2  0  0  0  0
 10  4  1  0  0  0  0
 12 14  2  0  0  0  0
 13 16  2  0  0  0  0
 13 12  1  0  0  0  0
 14 11  1  0  0  0  0
 14 17  1  0  0  0  0
 15 11  2  0  0  0  0
 16 15  1  0  0  0  0
 17 19  2  0  0  0  0
 18 17  2  0  0  0  0
 21 20  1  6  0  0  0
 21 22  1  0  0  0  0
 21 24  1  0  0  0  0
 22 23  1  0  0  0  0
 25 24  1  6  0  0  0
 26 30  2  0  0  0  0
 26 25  1  0  0  0  0
 27 26  1  0  0  0  0
 28 29  1  0  0  0  0
 29 34  2  0  0  0  0
 31 27  1  0  0  0  0
 31 34  1  0  0  0  0
 32 28  1  0  0  0  0
 32 31  2  0  0  0  0
 33 28  1  0  0  0  0
 34 30  1  0  0  0  0
 36 25  1  0  0  0  0
 36 35  1  0  0  0  0
M  END
>  <MODEL>
2

>  <REMARK>
 VINA RESULT:      -7.2      2.369      5.293
  Name = 
  11 active torsions:
  status: ('A' for Active; 'I' for Inactive)
    1  A    between atoms: N_1  and  C_20
    2  A    between atoms: C_2  and  C_10
    3  A    between atoms: C_10  and  C_14
    4  A    between atoms: C_10  and  N_18
    5  A    between atoms: C_11  and  O_28
    6  A    between atoms: C_12  and  C_27
    7  A    between atoms: C_14  and  C_27
    8  A    between atoms: C_22  and  O_28
    9  A    between atoms: C_22  and  C_35
   10  A    between atoms: C_26  and  C_36
   11  A    between atoms: C_27  and  C_35
                            x       y       z     vdW  Elec       q    Type
                         _______ _______ _______ _____ _____    ______ ____

>  <TORSDO>
F 11

$$$$
=
 OpenBabel11042417593D

 36 39  0  0  1  0  0  0  0  0999 V2000
  189.6210  173.4510  144.4000 C   0  0  2  0  0  3  0  0  0  0  0  0
  190.3080  172.1030  144.4900 C   0  0  0  0  0  1  0  0  0  0  0  0
  190.1810  174.2070  143.3330 O   0  0  0  0  0  0  0  0  0  0  0  0
  188.4350  174.5120  140.0770 C   0  0  0  0  0  3  0  0  0  0  0  0
  189.8140  174.0140  141.9970 C   0  0  0  0  0  0  0  0  0  0  0  0
  190.4570  173.0680  141.2540 N   0  0  0  0  0  0  0  0  0  0  0  0
  190.1320  172.8160  139.9600 C   0  0  0  0  0  3  0  0  0  0  0  0
  188.7710  174.7780  141.4140 C   0  0  0  0  0  0  0  0  0  0  0  0
  188.6810  173.2240  137.6800 Cl  0  0  0  0  0  0  0  0  0  0  0  0
  189.1100  173.5350  139.3490 C   0  0  0  0  0  0  0  0  0  0  0  0
  187.8050  178.1210  142.9800 C   0  0  0  0  0  3  0  0  0  0  0  0
  186.0330  176.5300  143.3880 C   0  0  0  0  0  3  0  0  0  0  0  0
  186.7590  175.5510  142.7030 C   0  0  0  0  0  3  0  0  0  0  0  0
  186.5520  177.8220  143.5340 C   0  0  0  0  0  0  0  0  0  0  0  0
  188.5260  177.1410  142.2950 C   0  0  0  0  0  3  0  0  0  0  0  0
  188.0180  175.8390  142.1480 C   0  0  0  0  0  0  0  0  0  0  0  0
  185.8110  178.8210  144.2450 N   0  0  0  0  0  0  0  0  0  0  0  0
  185.6850  179.9720  143.7770 O   0  0  0  0  0  0  0  0  0  0  0  0
  185.2430  178.5260  145.4630 O   0  0  0  0  0  0  0  0  0  0  0  0
  189.8150  174.1950  145.7060 C   0  0  0  0  0  2  0  0  0  0  0  0
  189.4170  175.6640  145.5690 C   0  0  1  0  0  3  0  0  0  0  0  0
  188.1680  176.0370  146.3700 C   0  0  0  0  0  2  0  0  0  0  0  0
  188.1940  177.4720  146.8760 C   0  0  0  0  0  1  0  0  0  0  0  0
  190.5840  176.6350  145.7810 C   0  0  0  0  0  2  0  0  0  0  0  0
  191.8660  175.9620  146.2610 C   0  0  1  0  0  3  0  0  0  0  0  0
  192.9230  176.0630  145.2080 C   0  0  0  0  0  0  0  0  0  0  0  0
  192.6710  175.9680  143.9070 O   0  0  0  0  0  0  0  0  0  0  0  0
  195.6650  176.2690  142.2120 N   0  0  0  0  0  0  0  0  0  0  0  0
  195.9940  176.3850  143.5300 C   0  0  0  0  0  3  0  0  0  0  0  0
  194.2930  176.2670  145.4850 C   0  0  0  0  0  3  0  0  0  0  0  0
  193.8320  176.0960  143.3350 C   0  0  0  0  0  0  0  0  0  0  0  0
  194.3240  176.0870  142.0580 C   0  0  0  0  0  3  0  0  0  0  0  0
  196.6190  176.3070  141.1200 C   0  0  0  0  0  1  0  0  0  0  0  0
  194.8060  176.2730  144.2080 C   0  0  0  0  0  0  0  0  0  0  0  0
  191.2680  176.6420  148.3320 O   0  0  0  0  0  1  0  0  0  0  0  0
  192.3210  176.6120  147.4800 N   0  0  0  0  0  2  0  0  0  0  0  0
  1  2  1  1  0  0  0
  1 20  1  0  0  0  0
  3  1  1  0  0  0  0
  4  8  2  0  0  0  0
  5  3  1  0  0  0  0
  6  5  2  0  0  0  0
  7  6  1  0  0  0  0
  8  5  1  0  0  0  0
  8 16  1  0  0  0  0
  9 10  1  0  0  0  0
 10  7  2  0  0  0  0
 10  4  1  0  0  0  0
 11 14  1  0  0  0  0
 12 14  2  0  0  0  0
 13 12  1  0  0  0  0
 14 17  1  0  0  0  0
 15 11  2  0  0  0  0
 16 15  1  0  0  0  0
 16 13  2  0  0  0  0
 17 19  2  0  0  0  0
 18 17  2  0  0  0  0
 21 20  1  1  0  0  0
 21 24  1  0  0  0  0
 21 22  1  0  0  0  0
 22 23  1  0  0  0  0
 25 24  1  6  0  0  0
 25 36  1  0  0  0  0
 26 30  2  0  0  0  0
 26 25  1  0  0  0  0
 27 26  1  0  0  0  0
 28 29  1  0  0  0  0
 29 34  2  0  0  0  0
 31 27  1  0  0  0  0
 31 34  1  0  0  0  0
 32 28  1  0  0  0  0
 32 31  2  0  0  0  0
 33 28  1  0  0  0  0
 34 30  1  0  0  0  0
 36 35  1  0  0  0  0
M  END
>  <MODEL>
3

>  <REMARK>
 VINA RESULT:      -7.2      1.972      5.048
  Name = 
  11 active torsions:
  status: ('A' for Active; 'I' for Inactive)
    1  A    between atoms: N_1  and  C_20
    2  A    between atoms: C_2  and  C_10
    3  A    between atoms: C_10  and  C_14
    4  A    between atoms: C_10  and  N_18
    5  A    between atoms: C_11  and  O_28
    6  A    between atoms: C_12  and  C_27
    7  A    between atoms: C_14  and  C_27
    8  A    between atoms: C_22  and  O_28
    9  A    between atoms: C_22  and  C_35
   10  A    between atoms: C_26  and  C_36
   11  A    between atoms: C_27  and  C_35
                            x       y       z     vdW  Elec       q    Type
                         _______ _______ _______ _____ _____    ______ ____

>  <TORSDO>
F 11

$$$$
=
 OpenBabel11042417593D

 36 39  0  0  1  0  0  0  0  0999 V2000
  193.8080  176.0820  146.4080 C   0  0  2  0  0  3  0  0  0  0  0  0
  194.5780  177.2660  145.8580 C   0  0  0  0  0  1  0  0  0  0  0  0
  193.3490  175.2660  145.3350 O   0  0  0  0  0  0  0  0  0  0  0  0
  193.7010  171.7910  144.0920 C   0  0  0  0  0  3  0  0  0  0  0  0
  193.8550  173.9850  145.0930 C   0  0  0  0  0  0  0  0  0  0  0  0
  195.0330  173.6080  145.6690 N   0  0  0  0  0  0  0  0  0  0  0  0
  195.5650  172.3710  145.4920 C   0  0  0  0  0  3  0  0  0  0  0  0
  193.1500  173.0700  144.2700 C   0  0  0  0  0  0  0  0  0  0  0  0
  195.5790  169.8410  144.4600 Cl  0  0  0  0  0  0  0  0  0  0  0  0
  194.9040  171.4380  144.7000 C   0  0  0  0  0  0  0  0  0  0  0  0
  189.4220  173.4390  143.5450 C   0  0  0  0  0  3  0  0  0  0  0  0
  190.6690  174.3380  141.6820 C   0  0  0  0  0  3  0  0  0  0  0  0
  191.8640  174.0160  142.3300 C   0  0  0  0  0  3  0  0  0  0  0  0
  189.4380  174.0490  142.2840 C   0  0  0  0  0  0  0  0  0  0  0  0
  190.6180  173.1190  144.1910 C   0  0  0  0  0  3  0  0  0  0  0  0
  191.8590  173.3980  143.5930 C   0  0  0  0  0  0  0  0  0  0  0  0
  188.2140  174.3720  141.6130 N   0  0  0  0  0  0  0  0  0  0  0  0
  187.1140  174.0440  142.1060 O   0  0  0  0  0  0  0  0  0  0  0  0
  188.2380  175.0330  140.4060 O   0  0  0  0  0  0  0  0  0  0  0  0
  192.6210  176.5880  147.2040 C   0  0  0  0  0  2  0  0  0  0  0  0
  191.3110  176.0170  146.6630 C   0  0  1  0  0  3  0  0  0  0  0  0
  190.5500  175.1630  147.6800 C   0  0  0  0  0  2  0  0  0  0  0  0
  189.2110  174.6660  147.1550 C   0  0  0  0  0  1  0  0  0  0  0  0
  190.4290  177.0610  145.9710 C   0  0  0  0  0  2  0  0  0  0  0  0
  190.4360  176.9610  144.4480 C   0  0  1  0  0  3  0  0  0  0  0  0
  189.0540  177.1660  143.9150 C   0  0  0  0  0  0  0  0  0  0  0  0
  188.7950  177.8030  142.7770 O   0  0  0  0  0  0  0  0  0  0  0  0
  185.3700  177.8520  142.3350 N   0  0  0  0  0  0  0  0  0  0  0  0
  185.5630  177.1800  143.5060 C   0  0  0  0  0  3  0  0  0  0  0  0
  187.8850  176.7070  144.5610 C   0  0  0  0  0  3  0  0  0  0  0  0
  187.4980  177.7770  142.6730 C   0  0  0  0  0  0  0  0  0  0  0  0
  186.5570  178.2380  141.7920 C   0  0  0  0  0  3  0  0  0  0  0  0
  184.0710  178.1410  141.7590 C   0  0  0  0  0  1  0  0  0  0  0  0
  186.9240  177.1510  143.6820 C   0  0  0  0  0  0  0  0  0  0  0  0
  192.1900  177.3410  143.0730 O   0  0  0  0  0  1  0  0  0  0  0  0
  191.3280  177.9730  143.9060 N   0  0  0  0  0  2  0  0  0  0  0  0
  1  2  1  6  0  0  0
  1 20  1  0  0  0  0
  3  1  1  0  0  0  0
  4  8  2  0  0  0  0
  4 10  1  0  0  0  0
  5  3  1  0  0  0  0
  5  6  2  0  0  0  0
  7  6  1  0  0  0  0
  8  5  1  0  0  0  0
  9 10  1  0  0  0  0
 10  7  2  0  0  0  0
 11 15  1  0  0  0  0
 12 14  1  0  0  0  0
 12 13  2  0  0  0  0
 13 16  1  0  0  0  0
 14 11  2  0  0  0  0
 16 15  2  0  0  0  0
 16  8  1  0  0  0  0
 17 18  2  0  0  0  0
 17 14  1  0  0  0  0
 19 17  2  0  0  0  0
 21 24  1  1  0  0  0
 21 20  1  0  0  0  0
 21 22  1  0  0  0  0
 23 22  1  0  0  0  0
 25 24  1  1  0  0  0
 26 25  1  0  0  0  0
 26 30  2  0  0  0  0
 27 26  1  0  0  0  0
 28 29  1  0  0  0  0
 29 34  2  0  0  0  0
 31 27  1  0  0  0  0
 31 34  1  0  0  0  0
 32 28  1  0  0  0  0
 32 31  2  0  0  0  0
 33 28  1  0  0  0  0
 34 30  1  0  0  0  0
 35 36  1  0  0  0  0
 36 25  1  0  0  0  0
M  END
>  <MODEL>
4

>  <REMARK>
 VINA RESULT:      -7.1      2.914      4.978
  Name = 
  11 active torsions:
  status: ('A' for Active; 'I' for Inactive)
    1  A    between atoms: N_1  and  C_20
    2  A    between atoms: C_2  and  C_10
    3  A    between atoms: C_10  and  C_14
    4  A    between atoms: C_10  and  N_18
    5  A    between atoms: C_11  and  O_28
    6  A    between atoms: C_12  and  C_27
    7  A    between atoms: C_14  and  C_27
    8  A    between atoms: C_22  and  O_28
    9  A    between atoms: C_22  and  C_35
   10  A    between atoms: C_26  and  C_36
   11  A    between atoms: C_27  and  C_35
                            x       y       z     vdW  Elec       q    Type
                         _______ _______ _______ _____ _____    ______ ____

>  <TORSDO>
F 11

$$$$
=
 OpenBabel11042417593D

 36 39  0  0  1  0  0  0  0  0999 V2000
  189.4790  173.7880  144.5140 C   0  0  2  0  0  3  0  0  0  0  0  0
  190.2590  172.4940  144.6430 C   0  0  0  0  0  1  0  0  0  0  0  0
  190.0080  174.5660  143.4460 O   0  0  0  0  0  0  0  0  0  0  0  0
  188.4400  174.6170  140.0870 C   0  0  0  0  0  3  0  0  0  0  0  0
  189.7310  174.2900  142.1030 C   0  0  0  0  0  0  0  0  0  0  0  0
  190.4690  173.3510  141.4450 N   0  0  0  0  0  0  0  0  0  0  0  0
  190.2350  173.0220  140.1480 C   0  0  0  0  0  3  0  0  0  0  0  0
  188.6820  174.9630  141.4260 C   0  0  0  0  0  0  0  0  0  0  0  0
  188.8990  173.2370  137.7740 Cl  0  0  0  0  0  0  0  0  0  0  0  0
  189.2110  173.6490  139.4460 C   0  0  0  0  0  0  0  0  0  0  0  0
  187.3200  178.3410  142.5640 C   0  0  0  0  0  3  0  0  0  0  0  0
  185.8570  176.6000  143.3760 C   0  0  0  0  0  3  0  0  0  0  0  0
  186.6740  175.6370  142.7770 C   0  0  0  0  0  3  0  0  0  0  0  0
  186.1760  177.9590  143.2760 C   0  0  0  0  0  0  0  0  0  0  0  0
  188.1340  177.3770  141.9650 C   0  0  0  0  0  3  0  0  0  0  0  0
  187.8280  176.0090  142.0650 C   0  0  0  0  0  0  0  0  0  0  0  0
  185.3410  178.9430  143.9000 N   0  0  0  0  0  0  0  0  0  0  0  0
  185.6710  180.1470  143.9000 O   0  0  0  0  0  0  0  0  0  0  0  0
  184.1720  178.5670  144.5220 O   0  0  0  0  0  0  0  0  0  0  0  0
  189.5900  174.5650  145.8110 C   0  0  0  0  0  2  0  0  0  0  0  0
  189.9270  176.0320  145.5480 C   0  0  1  0  0  3  0  0  0  0  0  0
  188.7330  176.9750  145.7170 C   0  0  0  0  0  2  0  0  0  0  0  0
  187.6320  176.3880  146.5890 C   0  0  0  0  0  1  0  0  0  0  0  0
  191.1830  176.5120  146.2830 C   0  0  0  0  0  2  0  0  0  0  0  0
  192.3570  176.8220  145.3580 C   0  0  1  0  0  3  0  0  0  0  0  0
  193.3820  175.7370  145.4500 C   0  0  0  0  0  0  0  0  0  0  0  0
  193.1070  174.4510  145.2560 O   0  0  0  0  0  0  0  0  0  0  0  0
  196.0230  172.6540  145.7000 N   0  0  0  0  0  0  0  0  0  0  0  0
  196.3770  173.9550  145.9030 C   0  0  0  0  0  3  0  0  0  0  0  0
  194.7430  175.9630  145.7530 C   0  0  0  0  0  3  0  0  0  0  0  0
  194.2420  173.8400  145.4310 C   0  0  0  0  0  0  0  0  0  0  0  0
  194.6980  172.5500  145.4060 C   0  0  0  0  0  3  0  0  0  0  0  0
  196.9290  171.5280  145.8120 C   0  0  0  0  0  1  0  0  0  0  0  0
  195.2230  174.6740  145.7200 C   0  0  0  0  0  0  0  0  0  0  0  0
  191.6320  178.2410  143.7550 O   0  0  0  0  0  1  0  0  0  0  0  0
  191.8740  176.9290  143.9910 N   0  0  0  0  0  2  0  0  0  0  0  0
  1  2  1  1  0  0  0
  1 20  1  0  0  0  0
  3  1  1  0  0  0  0
  4  8  2  0  0  0  0
  5  3  1  0  0  0  0
  6  5  2  0  0  0  0
  7  6  1  0  0  0  0
  8 16  1  0  0  0  0
  8  5  1  0  0  0  0
  9 10  1  0  0  0  0
 10  4  1  0  0  0  0
 10  7  2  0  0  0  0
 11 14  1  0  0  0  0
 13 12  1  0  0  0  0
 14 12  2  0  0  0  0
 14 17  1  0  0  0  0
 15 16  1  0  0  0  0
 15 11  2  0  0  0  0
 16 13  2  0  0  0  0
 17 18  2  0  0  0  0
 17 19  2  0  0  0  0
 21 22  1  1  0  0  0
 21 20  1  0  0  0  0
 21 24  1  0  0  0  0
 22 23  1  0  0  0  0
 25 26  1  0  0  0  0
 25 24  1  1  0  0  0
 26 30  2  0  0  0  0
 27 31  1  0  0  0  0
 27 26  1  0  0  0  0
 28 33  1  0  0  0  0
 28 29  1  0  0  0  0
 31 34  1  0  0  0  0
 32 31  2  0  0  0  0
 32 28  1  0  0  0  0
 34 30  1  0  0  0  0
 34 29  2  0  0  0  0
 35 36  1  0  0  0  0
 36 25  1  0  0  0  0
M  END
>  <MODEL>
5

>  <REMARK>
 VINA RESULT:      -7.0      2.003      5.326
  Name = 
  11 active torsions:
  status: ('A' for Active; 'I' for Inactive)
    1  A    between atoms: N_1  and  C_20
    2  A    between atoms: C_2  and  C_10
    3  A    between atoms: C_10  and  C_14
    4  A    between atoms: C_10  and  N_18
    5  A    between atoms: C_11  and  O_28
    6  A    between atoms: C_12  and  C_27
    7  A    between atoms: C_14  and  C_27
    8  A    between atoms: C_22  and  O_28
    9  A    between atoms: C_22  and  C_35
   10  A    between atoms: C_26  and  C_36
   11  A    between atoms: C_27  and  C_35
                            x       y       z     vdW  Elec       q    Type
                         _______ _______ _______ _____ _____    ______ ____

>  <TORSDO>
F 11

$$$$
=
 OpenBabel11042417593D

 36 39  0  0  1  0  0  0  0  0999 V2000
  190.4070  176.5500  144.2680 C   0  0  2  0  0  3  0  0  0  0  0  0
  190.2730  177.9410  144.8560 C   0  0  0  0  0  1  0  0  0  0  0  0
  190.1650  176.5950  142.8660 O   0  0  0  0  0  0  0  0  0  0  0  0
  188.6850  173.9260  140.7610 C   0  0  0  0  0  3  0  0  0  0  0  0
  190.0190  175.4410  142.0890 C   0  0  0  0  0  0  0  0  0  0  0  0
  191.0880  174.6150  141.9060 N   0  0  0  0  0  0  0  0  0  0  0  0
  191.0050  173.4680  141.1820 C   0  0  0  0  0  3  0  0  0  0  0  0
  188.7680  175.1140  141.5050 C   0  0  0  0  0  0  0  0  0  0  0  0
  189.6750  171.6290  139.6610 Cl  0  0  0  0  0  0  0  0  0  0  0  0
  189.7970  173.1020  140.5990 C   0  0  0  0  0  0  0  0  0  0  0  0
  185.9570  177.5840  140.7580 C   0  0  0  0  0  3  0  0  0  0  0  0
  185.6460  176.7020  142.9850 C   0  0  0  0  0  3  0  0  0  0  0  0
  186.7960  175.9230  142.8350 C   0  0  0  0  0  3  0  0  0  0  0  0
  185.2200  177.5400  141.9490 C   0  0  0  0  0  0  0  0  0  0  0  0
  187.1050  176.8020  140.6100 C   0  0  0  0  0  3  0  0  0  0  0  0
  187.5470  175.9620  141.6460 C   0  0  0  0  0  0  0  0  0  0  0  0
  184.0450  178.3460  142.1100 N   0  0  0  0  0  0  0  0  0  0  0  0
  183.3420  178.6480  141.1230 O   0  0  0  0  0  0  0  0  0  0  0  0
  183.6890  178.8110  143.3560 O   0  0  0  0  0  0  0  0  0  0  0  0
  189.3970  175.6330  144.9280 C   0  0  0  0  0  2  0  0  0  0  0  0
  189.2590  175.9450  146.4180 C   0  0  1  0  0  3  0  0  0  0  0  0
  187.8070  176.0340  146.8930 C   0  0  0  0  0  2  0  0  0  0  0  0
  187.0760  177.2490  146.3410 C   0  0  0  0  0  1  0  0  0  0  0  0
  190.1340  175.0580  147.3110 C   0  0  0  0  0  2  0  0  0  0  0  0
  191.3770  175.7610  147.8490 C   0  0  1  0  0  3  0  0  0  0  0  0
  192.5130  175.6000  146.8900 C   0  0  0  0  0  0  0  0  0  0  0  0
  192.7660  174.4680  146.2390 O   0  0  0  0  0  0  0  0  0  0  0  0
  195.5710  174.9640  144.2850 N   0  0  0  0  0  0  0  0  0  0  0  0
  195.3630  176.1580  144.9110 C   0  0  0  0  0  3  0  0  0  0  0  0
  193.4310  176.6260  146.5770 C   0  0  0  0  0  3  0  0  0  0  0  0
  193.8210  174.7280  145.5240 C   0  0  0  0  0  0  0  0  0  0  0  0
  194.6260  174.0520  144.6470 C   0  0  0  0  0  3  0  0  0  0  0  0
  196.6670  174.6930  143.3750 C   0  0  0  0  0  1  0  0  0  0  0  0
  194.2450  175.9680  145.6840 C   0  0  0  0  0  0  0  0  0  0  0  0
  191.5640  177.5230  149.2530 O   0  0  0  0  0  1  0  0  0  0  0  0
  191.0850  177.1730  148.0340 N   0  0  0  0  0  2  0  0  0  0  0  0
  1  2  1  1  0  0  0
  1 20  1  0  0  0  0
  3  1  1  0  0  0  0
  4  8  2  0  0  0  0
  5  3  1  0  0  0  0
  6  5  2  0  0  0  0
  7  6  1  0  0  0  0
  8 16  1  0  0  0  0
  8  5  1  0  0  0  0
  9 10  1  0  0  0  0
 10  4  1  0  0  0  0
 10  7  2  0  0  0  0
 11 14  1  0  0  0  0
 13 12  1  0  0  0  0
 14 17  1  0  0  0  0
 14 12  2  0  0  0  0
 15 11  2  0  0  0  0
 15 16  1  0  0  0  0
 16 13  2  0  0  0  0
 17 19  2  0  0  0  0
 18 17  2  0  0  0  0
 21 20  1  6  0  0  0
 21 22  1  0  0  0  0
 21 24  1  0  0  0  0
 23 22  1  0  0  0  0
 25 24  1  6  0  0  0
 25 36  1  0  0  0  0
 26 25  1  0  0  0  0
 27 26  1  0  0  0  0
 28 32  1  0  0  0  0
 28 29  1  0  0  0  0
 29 34  2  0  0  0  0
 30 26  2  0  0  0  0
 31 34  1  0  0  0  0
 31 27  1  0  0  0  0
 32 31  2  0  0  0  0
 33 28  1  0  0  0  0
 34 30  1  0  0  0  0
 36 35  1  0  0  0  0
M  END
>  <MODEL>
6

>  <REMARK>
 VINA RESULT:      -6.9      1.624      4.744
  Name = 
  11 active torsions:
  status: ('A' for Active; 'I' for Inactive)
    1  A    between atoms: N_1  and  C_20
    2  A    between atoms: C_2  and  C_10
    3  A    between atoms: C_10  and  C_14
    4  A    between atoms: C_10  and  N_18
    5  A    between atoms: C_11  and  O_28
    6  A    between atoms: C_12  and  C_27
    7  A    between atoms: C_14  and  C_27
    8  A    between atoms: C_22  and  O_28
    9  A    between atoms: C_22  and  C_35
   10  A    between atoms: C_26  and  C_36
   11  A    between atoms: C_27  and  C_35
                            x       y       z     vdW  Elec       q    Type
                         _______ _______ _______ _____ _____    ______ ____

>  <TORSDO>
F 11

$$$$
=
 OpenBabel11042417593D

 36 39  0  0  1  0  0  0  0  0999 V2000
  190.3240  172.9250  142.6820 C   0  0  2  0  0  3  0  0  0  0  0  0
  190.4460  171.5550  142.0450 C   0  0  0  0  0  1  0  0  0  0  0  0
  190.6240  172.8390  144.0710 O   0  0  0  0  0  0  0  0  0  0  0  0
  193.0810  174.8930  145.9390 C   0  0  0  0  0  3  0  0  0  0  0  0
  191.8230  173.3120  144.6130 C   0  0  0  0  0  0  0  0  0  0  0  0
  192.9920  172.6750  144.3160 N   0  0  0  0  0  0  0  0  0  0  0  0
  194.1920  173.0990  144.7920 C   0  0  0  0  0  3  0  0  0  0  0  0
  191.8390  174.4550  145.4530 C   0  0  0  0  0  0  0  0  0  0  0  0
  195.7950  174.7770  146.2350 Cl  0  0  0  0  0  0  0  0  0  0  0  0
  194.2560  174.2200  145.6120 C   0  0  0  0  0  0  0  0  0  0  0  0
  189.2090  177.2050  145.7420 C   0  0  0  0  0  3  0  0  0  0  0  0
  188.4850  175.2980  147.0340 C   0  0  0  0  0  3  0  0  0  0  0  0
  189.6460  174.6120  146.6690 C   0  0  0  0  0  3  0  0  0  0  0  0
  188.2590  176.6000  146.5760 C   0  0  0  0  0  0  0  0  0  0  0  0
  190.3670  176.5170  145.3770 C   0  0  0  0  0  3  0  0  0  0  0  0
  190.6090  175.2110  145.8370 C   0  0  0  0  0  0  0  0  0  0  0  0
  187.0710  177.3050  146.9610 N   0  0  0  0  0  0  0  0  0  0  0  0
  187.1330  178.2690  147.7520 O   0  0  0  0  0  0  0  0  0  0  0  0
  185.8450  176.9130  146.4740 O   0  0  0  0  0  0  0  0  0  0  0  0
  188.9060  173.4320  142.5010 C   0  0  0  0  0  2  0  0  0  0  0  0
  188.8840  174.7340  141.7000 C   0  0  1  0  0  3  0  0  0  0  0  0
  188.2400  174.5920  140.3190 C   0  0  0  0  0  2  0  0  0  0  0  0
  189.0980  173.8010  139.3420 C   0  0  0  0  0  1  0  0  0  0  0  0
  188.3520  175.9310  142.4950 C   0  0  0  0  0  2  0  0  0  0  0  0
  188.1430  177.1860  141.6520 C   0  0  1  0  0  3  0  0  0  0  0  0
  186.6890  177.5340  141.6030 C   0  0  0  0  0  0  0  0  0  0  0  0
  185.9490  177.7410  142.6880 O   0  0  0  0  0  0  0  0  0  0  0  0
  182.7260  178.4420  141.6660 N   0  0  0  0  0  0  0  0  0  0  0  0
  183.4270  178.2520  140.5120 C   0  0  0  0  0  3  0  0  0  0  0  0
  185.9530  177.6760  140.4060 C   0  0  0  0  0  3  0  0  0  0  0  0
  184.7600  178.0040  142.2310 C   0  0  0  0  0  0  0  0  0  0  0  0
  183.5290  178.2930  142.7550 C   0  0  0  0  0  3  0  0  0  0  0  0
  181.3070  178.7370  141.7270 C   0  0  0  0  0  1  0  0  0  0  0  0
  184.7110  177.9800  140.9130 C   0  0  0  0  0  0  0  0  0  0  0  0
  190.1710  177.8600  142.3880 O   0  0  0  0  0  1  0  0  0  0  0  0
  188.8930  178.2860  142.2360 N   0  0  0  0  0  2  0  0  0  0  0  0
  1  2  1  1  0  0  0
  1  3  1  0  0  0  0
  3  5  1  0  0  0  0
  5  8  1  0  0  0  0
  6  5  2  0  0  0  0
  6  7  1  0  0  0  0
  7 10  2  0  0  0  0
  8 16  1  0  0  0  0
  8  4  2  0  0  0  0
 10  4  1  0  0  0  0
 10  9  1  0  0  0  0
 11 14  1  0  0  0  0
 13 12  1  0  0  0  0
 14 17  1  0  0  0  0
 14 12  2  0  0  0  0
 15 11  2  0  0  0  0
 15 16  1  0  0  0  0
 16 13  2  0  0  0  0
 17 18  2  0  0  0  0
 19 17  2  0  0  0  0
 20  1  1  0  0  0  0
 21 22  1  6  0  0  0
 21 24  1  0  0  0  0
 21 20  1  0  0  0  0
 23 22  1  0  0  0  0
 25 36  1  0  0  0  0
 25 24  1  1  0  0  0
 26 25  1  0  0  0  0
 26 27  1  0  0  0  0
 28 33  1  0  0  0  0
 28 32  1  0  0  0  0
 29 34  2  0  0  0  0
 29 28  1  0  0  0  0
 30 34  1  0  0  0  0
 30 26  2  0  0  0  0
 31 27  1  0  0  0  0
 31 32  2  0  0  0  0
 34 31  1  0  0  0  0
 36 35  1  0  0  0  0
M  END
>  <MODEL>
7

>  <REMARK>
 VINA RESULT:      -6.8      2.728      5.778
  Name = 
  11 active torsions:
  status: ('A' for Active; 'I' for Inactive)
    1  A    between atoms: N_1  and  C_20
    2  A    between atoms: C_2  and  C_10
    3  A    between atoms: C_10  and  C_14
    4  A    between atoms: C_10  and  N_18
    5  A    between atoms: C_11  and  O_28
    6  A    between atoms: C_12  and  C_27
    7  A    between atoms: C_14  and  C_27
    8  A    between atoms: C_22  and  O_28
    9  A    between atoms: C_22  and  C_35
   10  A    between atoms: C_26  and  C_36
   11  A    between atoms: C_27  and  C_35
                            x       y       z     vdW  Elec       q    Type
                         _______ _______ _______ _____ _____    ______ ____

>  <TORSDO>
F 11

$$$$
=
 OpenBabel11042417593D

 36 39  0  0  1  0  0  0  0  0999 V2000
  191.6900  174.3910  142.6590 C   0  0  2  0  0  3  0  0  0  0  0  0
  191.2340  173.1890  143.4630 C   0  0  0  0  0  1  0  0  0  0  0  0
  192.8890  174.9170  143.2170 O   0  0  0  0  0  0  0  0  0  0  0  0
  195.1310  173.3520  145.7220 C   0  0  0  0  0  3  0  0  0  0  0  0
  193.8650  174.1070  143.8070 C   0  0  0  0  0  0  0  0  0  0  0  0
  194.5920  173.2560  143.0270 N   0  0  0  0  0  0  0  0  0  0  0  0
  195.5680  172.4600  143.5350 C   0  0  0  0  0  3  0  0  0  0  0  0
  194.1180  174.1730  145.2010 C   0  0  0  0  0  0  0  0  0  0  0  0
  197.1110  171.4770  145.5650 Cl  0  0  0  0  0  0  0  0  0  0  0  0
  195.8570  172.4980  144.8950 C   0  0  0  0  0  0  0  0  0  0  0  0
  191.4980  175.5050  147.6340 C   0  0  0  0  0  3  0  0  0  0  0  0
  193.1690  177.2120  147.2800 C   0  0  0  0  0  3  0  0  0  0  0  0
  193.8510  176.3600  146.4070 C   0  0  0  0  0  3  0  0  0  0  0  0
  191.9860  176.7920  147.8980 C   0  0  0  0  0  0  0  0  0  0  0  0
  192.1820  174.6550  146.7630 C   0  0  0  0  0  3  0  0  0  0  0  0
  193.3670  175.0690  146.1310 C   0  0  0  0  0  0  0  0  0  0  0  0
  191.2830  177.6720  148.7860 N   0  0  0  0  0  0  0  0  0  0  0  0
  191.6840  177.8470  149.9550 O   0  0  0  0  0  0  0  0  0  0  0  0
  190.1460  178.3200  148.3610 O   0  0  0  0  0  0  0  0  0  0  0  0
  190.6070  175.4510  142.6930 C   0  0  0  0  0  2  0  0  0  0  0  0
  190.3060  175.8860  144.1260 C   0  0  1  0  0  3  0  0  0  0  0  0
  190.7920  177.3000  144.4520 C   0  0  0  0  0  2  0  0  0  0  0  0
  191.0160  178.1510  143.2100 C   0  0  0  0  0  1  0  0  0  0  0  0
  188.8550  175.6330  144.5490 C   0  0  0  0  0  2  0  0  0  0  0  0
  188.1110  176.8930  144.9830 C   0  0  1  0  0  3  0  0  0  0  0  0
  187.0620  177.2410  143.9770 C   0  0  0  0  0  0  0  0  0  0  0  0
  185.8050  177.5330  144.3000 O   0  0  0  0  0  0  0  0  0  0  0  0
  184.0700  178.1660  141.3820 N   0  0  0  0  0  0  0  0  0  0  0  0
  185.3420  177.8860  140.9800 C   0  0  0  0  0  3  0  0  0  0  0  0
  187.2930  177.2950  142.5850 C   0  0  0  0  0  3  0  0  0  0  0  0
  185.2170  177.7650  143.1630 C   0  0  0  0  0  0  0  0  0  0  0  0
  183.9600  178.0980  142.7370 C   0  0  0  0  0  3  0  0  0  0  0  0
  182.9720  178.4690  140.4840 C   0  0  0  0  0  1  0  0  0  0  0  0
  186.0380  177.6410  142.1380 C   0  0  0  0  0  0  0  0  0  0  0  0
  188.1730  175.6470  146.8690 O   0  0  0  0  0  1  0  0  0  0  0  0
  187.4940  176.6620  146.2790 N   0  0  0  0  0  2  0  0  0  0  0  0
  1 20  1  0  0  0  0
  1  3  1  0  0  0  0
  1  2  1  1  0  0  0
  3  5  1  0  0  0  0
  5  8  1  0  0  0  0
  6  7  1  0  0  0  0
  6  5  2  0  0  0  0
  7 10  2  0  0  0  0
  8  4  2  0  0  0  0
  8 16  1  0  0  0  0
 10  9  1  0  0  0  0
 10  4  1  0  0  0  0
 11 14  1  0  0  0  0
 12 14  2  0  0  0  0
 13 12  1  0  0  0  0
 14 17  1  0  0  0  0
 15 11  2  0  0  0  0
 16 13  2  0  0  0  0
 16 15  1  0  0  0  0
 17 18  2  0  0  0  0
 19 17  2  0  0  0  0
 21 20  1  6  0  0  0
 21 22  1  0  0  0  0
 21 24  1  0  0  0  0
 23 22  1  0  0  0  0
 25 24  1  6  0  0  0
 25 36  1  0  0  0  0
 26 27  1  0  0  0  0
 26 25  1  0  0  0  0
 28 32  1  0  0  0  0
 29 28  1  0  0  0  0
 29 34  2  0  0  0  0
 30 26  2  0  0  0  0
 31 27  1  0  0  0  0
 32 31  2  0  0  0  0
 33 28  1  0  0  0  0
 34 30  1  0  0  0  0
 34 31  1  0  0  0  0
 36 35  1  0  0  0  0
M  END
>  <MODEL>
8

>  <REMARK>
 VINA RESULT:      -6.6      2.689      5.976
  Name = 
  11 active torsions:
  status: ('A' for Active; 'I' for Inactive)
    1  A    between atoms: N_1  and  C_20
    2  A    between atoms: C_2  and  C_10
    3  A    between atoms: C_10  and  C_14
    4  A    between atoms: C_10  and  N_18
    5  A    between atoms: C_11  and  O_28
    6  A    between atoms: C_12  and  C_27
    7  A    between atoms: C_14  and  C_27
    8  A    between atoms: C_22  and  O_28
    9  A    between atoms: C_22  and  C_35
   10  A    between atoms: C_26  and  C_36
   11  A    between atoms: C_27  and  C_35
                            x       y       z     vdW  Elec       q    Type
                         _______ _______ _______ _____ _____    ______ ____

>  <TORSDO>
F 11

$$$$
=
 OpenBabel11042417593D

 36 39  0  0  1  0  0  0  0  0999 V2000
  194.3000  176.0150  142.0700 C   0  0  2  0  0  3  0  0  0  0  0  0
  194.9890  175.6500  140.7700 C   0  0  0  0  0  1  0  0  0  0  0  0
  195.2340  175.9590  143.1430 O   0  0  0  0  0  0  0  0  0  0  0  0
  195.7060  173.1090  145.4670 C   0  0  0  0  0  3  0  0  0  0  0  0
  195.6760  174.7530  143.6960 C   0  0  0  0  0  0  0  0  0  0  0  0
  196.5890  173.9990  143.0190 N   0  0  0  0  0  0  0  0  0  0  0  0
  197.0740  172.8300  143.5120 C   0  0  0  0  0  3  0  0  0  0  0  0
  195.1990  174.3160  144.9580 C   0  0  0  0  0  0  0  0  0  0  0  0
  197.2570  170.8610  145.3980 Cl  0  0  0  0  0  0  0  0  0  0  0  0
  196.6420  172.3660  144.7500 C   0  0  0  0  0  0  0  0  0  0  0  0
  193.4640  177.0940  146.9160 C   0  0  0  0  0  3  0  0  0  0  0  0
  192.0280  175.1520  146.8830 C   0  0  0  0  0  3  0  0  0  0  0  0
  192.9840  174.4610  146.1350 C   0  0  0  0  0  3  0  0  0  0  0  0
  192.2620  176.4730  147.2820 C   0  0  0  0  0  0  0  0  0  0  0  0
  194.4160  176.4010  146.1660 C   0  0  0  0  0  3  0  0  0  0  0  0
  194.1960  175.0720  145.7660 C   0  0  0  0  0  0  0  0  0  0  0  0
  191.2840  177.1760  148.0590 N   0  0  0  0  0  0  0  0  0  0  0  0
  190.1460  177.4000  147.5950 O   0  0  0  0  0  0  0  0  0  0  0  0
  191.5960  177.6280  149.3210 O   0  0  0  0  0  0  0  0  0  0  0  0
  193.1740  175.0330  142.3280 C   0  0  0  0  0  2  0  0  0  0  0  0
  191.9820  175.7220  142.9920 C   0  0  1  0  0  3  0  0  0  0  0  0
  191.9530  177.2370  142.7770 C   0  0  0  0  0  2  0  0  0  0  0  0
  191.3530  177.9920  143.9540 C   0  0  0  0  0  1  0  0  0  0  0  0
  190.6410  175.0430  142.6940 C   0  0  0  0  0  2  0  0  0  0  0  0
  189.9470  174.4790  143.9320 C   0  0  1  0  0  3  0  0  0  0  0  0
  188.8690  175.4110  144.3840 C   0  0  0  0  0  0  0  0  0  0  0  0
  188.4790  175.5210  145.6500 O   0  0  0  0  0  0  0  0  0  0  0  0
  185.9340  177.8520  145.7880 N   0  0  0  0  0  0  0  0  0  0  0  0
  186.2900  177.7970  144.4730 C   0  0  0  0  0  3  0  0  0  0  0  0
  188.1540  176.2670  143.5170 C   0  0  0  0  0  3  0  0  0  0  0  0
  187.5320  176.4120  145.6280 C   0  0  0  0  0  0  0  0  0  0  0  0
  186.6890  176.9990  146.5330 C   0  0  0  0  0  3  0  0  0  0  0  0
  184.8730  178.6860  146.3190 C   0  0  0  0  0  1  0  0  0  0  0  0
  187.3070  176.8770  144.4140 C   0  0  0  0  0  0  0  0  0  0  0  0
  189.6770  172.3480  144.6350 O   0  0  0  0  0  1  0  0  0  0  0  0
  189.3750  173.1820  143.6100 N   0  0  0  0  0  2  0  0  0  0  0  0
  1  2  1  6  0  0  0
  1 20  1  0  0  0  0
  1  3  1  0  0  0  0
  3  5  1  0  0  0  0
  5  8  1  0  0  0  0
  6  7  1  0  0  0  0
  6  5  2  0  0  0  0
  7 10  2  0  0  0  0
  8  4  2  0  0  0  0
  8 16  1  0  0  0  0
 10  9  1  0  0  0  0
 10  4  1  0  0  0  0
 11 14  1  0  0  0  0
 12 14  2  0  0  0  0
 13 12  1  0  0  0  0
 14 17  1  0  0  0  0
 15 11  2  0  0  0  0
 16 13  2  0  0  0  0
 16 15  1  0  0  0  0
 17 19  2  0  0  0  0
 18 17  2  0  0  0  0
 21 20  1  6  0  0  0
 22 21  1  0  0  0  0
 22 23  1  0  0  0  0
 24 21  1  0  0  0  0
 25 24  1  6  0  0  0
 25 26  1  0  0  0  0
 26 27  1  0  0  0  0
 28 33  1  0  0  0  0
 28 32  1  0  0  0  0
 29 28  1  0  0  0  0
 30 26  2  0  0  0  0
 30 34  1  0  0  0  0
 31 27  1  0  0  0  0
 31 32  2  0  0  0  0
 34 29  2  0  0  0  0
 34 31  1  0  0  0  0
 36 25  1  0  0  0  0
 36 35  1  0  0  0  0
M  END
>  <MODEL>
9

>  <REMARK>
 VINA RESULT:      -6.6      2.967      5.804
  Name = 
  11 active torsions:
  status: ('A' for Active; 'I' for Inactive)
    1  A    between atoms: N_1  and  C_20
    2  A    between atoms: C_2  and  C_10
    3  A    between atoms: C_10  and  C_14
    4  A    between atoms: C_10  and  N_18
    5  A    between atoms: C_11  and  O_28
    6  A    between atoms: C_12  and  C_27
    7  A    between atoms: C_14  and  C_27
    8  A    between atoms: C_22  and  O_28
    9  A    between atoms: C_22  and  C_35
   10  A    between atoms: C_26  and  C_36
   11  A    between atoms: C_27  and  C_35
                            x       y       z     vdW  Elec       q    Type
                         _______ _______ _______ _____ _____    ______ ____

>  <TORSDO>
F 11

$$$$
