=
 OpenBabel11042415553D

 50 54  0  0  1  0  0  0  0  0999 V2000
  188.0030  176.0040  141.8810 N   0  0  0  0  0  0  0  0  0  0  0  0
  186.0460  177.2790  141.9510 C   0  0  0  0  0  0  0  0  0  0  0  0
  187.0330  176.5920  142.6940 N   0  0  0  0  0  0  0  0  0  0  0  0
  184.9650  177.8620  142.5040 C   0  0  1  0  0  3  0  0  0  0  0  0
  187.8050  176.1780  140.4470 C   0  0  0  0  0  2  0  0  0  0  0  0
  186.3420  177.2540  140.1850 S   0  0  0  0  0  0  0  0  0  0  0  0
  191.0690  173.1460  142.9410 C   0  0  1  0  0  3  0  0  0  0  0  0
  189.7030  173.1460  143.5870 C   0  0  0  0  0  0  0  0  0  0  0  0
  191.4660  174.5470  142.4330 C   0  0  1  0  0  3  0  0  0  0  0  0
  189.2490  172.1130  144.0530 O   0  0  0  0  0  0  0  0  0  0  0  0
  189.0910  175.2460  142.4270 C   0  0  0  0  0  0  0  0  0  0  0  0
  188.8860  174.4060  143.6590 C   0  0  0  0  0  2  0  0  0  0  0  0
  192.5630  174.4530  141.3890 C   0  0  0  0  0  1  0  0  0  0  0  0
  190.3010  175.2960  141.8540 C   0  0  0  0  0  3  0  0  0  0  0  0
  192.1050  172.6470  143.9400 C   0  0  0  0  0  2  0  0  0  0  0  0
  192.1400  173.4860  145.0560 O   0  0  0  0  0  0  0  0  0  0  0  0
  195.6610  173.2590  143.8630 S   0  0  0  0  0  0  0  0  0  0  0  0
  193.4820  173.5130  145.4420 C   0  0  2  0  0  3  0  0  0  0  0  0
  194.0690  174.8830  145.1370 C   0  0  1  0  0  3  0  0  0  0  0  0
  194.2520  172.4580  144.6710 C   0  0  2  0  0  3  0  0  0  0  0  0
  194.9420  175.3460  146.2900 C   0  0  0  0  0  1  0  0  0  0  0  0
  194.8460  174.8270  143.9070 N   0  0  0  0  0  2  0  0  0  0  0  0
  194.7520  171.3910  145.6270 C   0  0  0  0  0  1  0  0  0  0  0  0
  184.0290  178.5130  141.6310 N   0  0  0  0  0  0  0  0  0  0  0  0
  182.8140  178.1030  141.4540 C   0  0  0  0  0  3  0  0  0  0  0  0
  181.8980  178.8350  140.5330 C   0  0  0  0  0  2  0  0  0  0  0  0
  179.7090  179.1350  139.8910 N   0  0  0  0  0  2  0  0  0  0  0  0
  177.9490  177.6980  140.9190 C   0  0  0  0  0  2  0  0  0  0  0  0
  180.5610  178.2640  140.5970 N   0  0  0  0  0  0  0  0  0  0  0  0
  178.4300  178.4510  139.6670 C   0  0  0  0  0  2  0  0  0  0  0  0
  180.1650  178.2790  142.0090 C   0  0  0  0  0  2  0  0  0  0  0  0
  178.6380  178.2190  142.1790 C   0  0  2  0  0  3  0  0  0  0  0  0
  178.2690  177.3930  143.3670 C   0  0  0  0  0  0  0  0  0  0  0  0
  178.0640  176.1560  143.2490 O   0  0  0  0  0  0  0  0  0  0  0  0
  178.1460  177.9970  144.6110 O   0  0  0  0  0  1  0  0  0  0  0  0
  184.3700  178.9270  144.6950 C   0  0  0  0  0  3  0  0  0  0  0  0
  184.6940  177.8600  143.9680 C   0  0  0  0  0  3  0  0  0  0  0  0
  184.1230  178.7980  146.1580 C   0  0  0  0  0  2  0  0  0  0  0  0
  184.8810  177.6730  146.6950 N   0  0  0  0  0  2  0  0  0  0  0  0
  185.9960  178.1640  147.5050 C   0  0  2  0  0  3  0  0  0  0  0  0
  185.9040  179.5470  147.6830 O   0  0  0  0  0  1  0  0  0  0  0  0
  187.2210  177.8360  146.9150 O   0  0  0  0  0  0  0  0  0  0  0  0
  187.2410  176.4400  146.8870 C   0  0  0  0  0  2  0  0  0  0  0  0
  188.5120  175.9970  146.5170 O   0  0  0  0  0  0  0  0  0  0  0  0
  189.3710  177.0500  146.8510 C   0  0  2  0  0  3  0  0  0  0  0  0
  190.6490  176.9480  145.9950 C   0  0  0  0  0  0  0  0  0  0  0  0
  190.8090  175.1130  147.7680 C   0  0  0  0  0  1  0  0  0  0  0  0
  190.5780  176.5880  147.4720 C   0  0  2  0  0  0  0  0  0  0  0  0
  191.2340  177.5160  148.2800 O   0  0  0  0  0  1  0  0  0  0  0  0
  191.2510  177.0580  144.9400 O   0  0  0  0  0  0  0  0  0  0  0  0
  1 11  1  0  0  0  0
  1  3  1  0  0  0  0
  2  4  1  0  0  0  0
  2  3  2  0  0  0  0
  4 37  1  6  0  0  0
  5  1  1  0  0  0  0
  6  5  1  0  0  0  0
  6  2  1  0  0  0  0
  7  8  1  0  0  0  0
  7 15  1  1  0  0  0
  8 12  1  0  0  0  0
  8 10  2  0  0  0  0
  9 13  1  6  0  0  0
  9  7  1  0  0  0  0
 11 12  1  0  0  0  0
 14 11  2  0  0  0  0
 14  9  1  0  0  0  0
 15 16  1  0  0  0  0
 17 22  1  0  0  0  0
 17 20  1  0  0  0  0
 18 16  1  6  0  0  0
 19 18  1  0  0  0  0
 19 21  1  1  0  0  0
 20 18  1  0  0  0  0
 20 23  1  1  0  0  0
 22 19  1  0  0  0  0
 24  4  1  0  0  0  0
 25 24  2  0  0  0  0
 26 29  1  0  0  0  0
 26 25  1  0  0  0  0
 27 29  1  0  0  0  0
 28 32  1  0  0  0  0
 29 31  1  0  0  0  0
 30 27  1  0  0  0  0
 30 28  1  0  0  0  0
 31 32  1  0  0  0  0
 32 33  1  1  0  0  0
 33 35  1  0  0  0  0
 34 33  2  0  0  0  0
 36 38  1  0  0  0  0
 37 36  2  0  0  0  0
 38 39  1  0  0  0  0
 39 40  1  0  0  0  0
 40 41  1  6  0  0  0
 42 40  1  0  0  0  0
 43 42  1  0  0  0  0
 44 43  1  0  0  0  0
 45 44  1  6  0  0  0
 45 48  1  0  0  0  0
 46 45  1  0  0  0  0
 46 48  1  0  0  0  0
 48 47  1  1  0  0  0
 48 49  1  0  0  0  0
 50 46  2  0  0  0  0
M  END
>  <MODEL>
1

>  <REMARK>
 VINA RESULT:      -7.5      0.000      0.000
  Name = 
  16 active torsions:
  status: ('A' for Active; 'I' for Inactive)
    1  A    between atoms: C_1  and  C_11
    2  A    between atoms: N_2  and  C_25
    3  A    between atoms: N_4  and  C_5
    4  A    between atoms: N_4  and  C_18
    5  A    between atoms: C_5  and  O_29
    6  A    between atoms: C_6  and  O_39
    7  A    between atoms: C_7  and  C_18
    8  A    between atoms: N_8  and  C_40
    9  A    between atoms: C_11  and  O_48
   10  A    between atoms: C_13  and  C_45
   11  A    between atoms: C_16  and  O_29
   12  A    between atoms: C_16  and  O_39
   13  A    between atoms: C_19  and  C_25
   14  A    between atoms: C_22  and  O_48
   15  A    between atoms: C_23  and  N_32
   16  A    between atoms: C_23  and  C_43
                            x       y       z     vdW  Elec       q    Type
                         _______ _______ _______ _____ _____    ______ ____

>  <TORSDO>
F 16

$$$$
=
 OpenBabel11042415553D

 50 54  0  0  1  0  0  0  0  0999 V2000
  188.0850  175.8800  141.8600 N   0  0  0  0  0  0  0  0  0  0  0  0
  186.1740  177.2230  141.9550 C   0  0  0  0  0  0  0  0  0  0  0  0
  187.1730  176.5390  142.6860 N   0  0  0  0  0  0  0  0  0  0  0  0
  185.1400  177.8680  142.5270 C   0  0  1  0  0  3  0  0  0  0  0  0
  187.8250  175.9900  140.4300 C   0  0  0  0  0  2  0  0  0  0  0  0
  186.3860  177.1010  140.1810 S   0  0  0  0  0  0  0  0  0  0  0  0
  191.4370  173.2740  142.6770 C   0  0  1  0  0  3  0  0  0  0  0  0
  190.0030  172.8200  142.8220 C   0  0  0  0  0  0  0  0  0  0  0  0
  191.5820  174.7970  142.8720 C   0  0  1  0  0  3  0  0  0  0  0  0
  189.7240  171.6360  142.7070 O   0  0  0  0  0  0  0  0  0  0  0  0
  189.1730  175.1130  142.3930 C   0  0  0  0  0  0  0  0  0  0  0  0
  188.9070  173.8100  143.0990 C   0  0  0  0  0  2  0  0  0  0  0  0
  192.8750  175.3010  142.2620 C   0  0  0  0  0  1  0  0  0  0  0  0
  190.4300  175.5610  142.2840 C   0  0  0  0  0  3  0  0  0  0  0  0
  192.3080  172.5390  143.6870 C   0  0  0  0  0  2  0  0  0  0  0  0
  193.4210  171.9860  143.0500 O   0  0  0  0  0  0  0  0  0  0  0  0
  194.5360  168.7400  141.6010 S   0  0  0  0  0  0  0  0  0  0  0  0
  193.1290  170.6250  142.9360 C   0  0  2  0  0  3  0  0  0  0  0  0
  193.9980  169.8380  143.9040 C   0  0  1  0  0  3  0  0  0  0  0  0
  193.4170  170.1620  141.5200 C   0  0  2  0  0  3  0  0  0  0  0  0
  193.1760  168.7590  144.5860 C   0  0  0  0  0  1  0  0  0  0  0  0
  195.1200  169.2410  143.1920 N   0  0  0  0  0  2  0  0  0  0  0  0
  192.1220  169.7540  140.8420 C   0  0  0  0  0  1  0  0  0  0  0  0
  184.1850  178.5070  141.6660 N   0  0  0  0  0  0  0  0  0  0  0  0
  182.9680  178.0920  141.5180 C   0  0  0  0  0  3  0  0  0  0  0  0
  182.0310  178.8120  140.6080 C   0  0  0  0  0  2  0  0  0  0  0  0
  179.8400  179.1080  139.9710 N   0  0  0  0  0  2  0  0  0  0  0  0
  178.0330  178.1960  141.4280 C   0  0  0  0  0  2  0  0  0  0  0  0
  180.6600  178.4070  140.8760 N   0  0  0  0  0  0  0  0  0  0  0  0
  178.5020  178.5050  139.9960 C   0  0  0  0  0  2  0  0  0  0  0  0
  180.3430  178.8680  142.2320 C   0  0  0  0  0  2  0  0  0  0  0  0
  178.8270  178.9970  142.4570 C   0  0  2  0  0  3  0  0  0  0  0  0
  178.4610  178.5900  143.8460 C   0  0  0  0  0  0  0  0  0  0  0  0
  178.0550  177.4210  144.0850 O   0  0  0  0  0  0  0  0  0  0  0  0
  178.5640  179.5090  144.8810 O   0  0  0  0  0  1  0  0  0  0  0  0
  184.1580  178.8230  144.6270 C   0  0  0  0  0  3  0  0  0  0  0  0
  184.9380  177.9470  144.0000 C   0  0  0  0  0  3  0  0  0  0  0  0
  184.0380  178.8020  146.1110 C   0  0  0  0  0  2  0  0  0  0  0  0
  184.8110  177.6930  146.6590 N   0  0  0  0  0  2  0  0  0  0  0  0
  185.7460  178.1870  147.6690 C   0  0  2  0  0  3  0  0  0  0  0  0
  185.8220  179.5820  147.6310 O   0  0  0  0  0  1  0  0  0  0  0  0
  187.0170  177.6320  147.4840 O   0  0  0  0  0  0  0  0  0  0  0  0
  186.8260  176.5970  146.5670 C   0  0  0  0  0  2  0  0  0  0  0  0
  188.0630  176.1020  146.1540 O   0  0  0  0  0  0  0  0  0  0  0  0
  189.0040  176.9720  146.7150 C   0  0  2  0  0  3  0  0  0  0  0  0
  190.0430  177.3500  145.6400 C   0  0  0  0  0  0  0  0  0  0  0  0
  190.5640  174.9500  146.3480 C   0  0  0  0  0  1  0  0  0  0  0  0
  190.3110  176.3850  146.7860 C   0  0  2  0  0  0  0  0  0  0  0  0
  191.1610  176.9230  147.7510 O   0  0  0  0  0  1  0  0  0  0  0  0
  190.3840  177.9520  144.6350 O   0  0  0  0  0  0  0  0  0  0  0  0
  1 11  1  0  0  0  0
  1  3  1  0  0  0  0
  2  4  1  0  0  0  0
  2  3  2  0  0  0  0
  4 37  1  6  0  0  0
  5  1  1  0  0  0  0
  6  5  1  0  0  0  0
  6  2  1  0  0  0  0
  7  8  1  0  0  0  0
  7  9  1  0  0  0  0
  7 15  1  1  0  0  0
  8 12  1  0  0  0  0
  9 13  1  6  0  0  0
 10  8  2  0  0  0  0
 11 12  1  0  0  0  0
 14 11  2  0  0  0  0
 14  9  1  0  0  0  0
 16 15  1  0  0  0  0
 17 22  1  0  0  0  0
 18 16  1  6  0  0  0
 18 19  1  0  0  0  0
 19 21  1  6  0  0  0
 20 23  1  1  0  0  0
 20 17  1  0  0  0  0
 20 18  1  0  0  0  0
 22 19  1  0  0  0  0
 24  4  1  0  0  0  0
 25 24  2  0  0  0  0
 26 29  1  0  0  0  0
 26 25  1  0  0  0  0
 27 30  1  0  0  0  0
 27 29  1  0  0  0  0
 28 32  1  0  0  0  0
 29 31  1  0  0  0  0
 30 28  1  0  0  0  0
 31 32  1  0  0  0  0
 32 33  1  1  0  0  0
 33 34  2  0  0  0  0
 33 35  1  0  0  0  0
 36 38  1  0  0  0  0
 37 36  2  0  0  0  0
 38 39  1  0  0  0  0
 39 40  1  0  0  0  0
 40 41  1  6  0  0  0
 42 40  1  0  0  0  0
 43 42  1  0  0  0  0
 44 43  1  0  0  0  0
 45 44  1  6  0  0  0
 45 48  1  0  0  0  0
 46 45  1  0  0  0  0
 46 48  1  0  0  0  0
 48 47  1  6  0  0  0
 48 49  1  0  0  0  0
 50 46  2  0  0  0  0
M  END
>  <MODEL>
2

>  <REMARK>
 VINA RESULT:      -6.8      1.674      2.135
  Name = 
  16 active torsions:
  status: ('A' for Active; 'I' for Inactive)
    1  A    between atoms: C_1  and  C_11
    2  A    between atoms: N_2  and  C_25
    3  A    between atoms: N_4  and  C_5
    4  A    between atoms: N_4  and  C_18
    5  A    between atoms: C_5  and  O_29
    6  A    between atoms: C_6  and  O_39
    7  A    between atoms: C_7  and  C_18
    8  A    between atoms: N_8  and  C_40
    9  A    between atoms: C_11  and  O_48
   10  A    between atoms: C_13  and  C_45
   11  A    between atoms: C_16  and  O_29
   12  A    between atoms: C_16  and  O_39
   13  A    between atoms: C_19  and  C_25
   14  A    between atoms: C_22  and  O_48
   15  A    between atoms: C_23  and  N_32
   16  A    between atoms: C_23  and  C_43
                            x       y       z     vdW  Elec       q    Type
                         _______ _______ _______ _____ _____    ______ ____

>  <TORSDO>
F 16

$$$$
=
 OpenBabel11042415553D

 50 54  0  0  1  0  0  0  0  0999 V2000
  191.1660  173.8760  141.9800 N   0  0  0  0  0  0  0  0  0  0  0  0
  191.5390  172.9310  139.8760 C   0  0  0  0  0  0  0  0  0  0  0  0
  190.7730  173.8390  140.6420 N   0  0  0  0  0  0  0  0  0  0  0  0
  191.3010  172.6610  138.5780 C   0  0  1  0  0  3  0  0  0  0  0  0
  192.2500  172.9680  142.3380 C   0  0  0  0  0  2  0  0  0  0  0  0
  192.8320  172.1250  140.8160 S   0  0  0  0  0  0  0  0  0  0  0  0
  189.9220  176.3480  145.3020 C   0  0  1  0  0  3  0  0  0  0  0  0
  189.6810  174.8560  145.2670 C   0  0  0  0  0  0  0  0  0  0  0  0
  190.0100  176.9510  143.8860 C   0  0  1  0  0  3  0  0  0  0  0  0
  189.5740  174.2310  146.3110 O   0  0  0  0  0  0  0  0  0  0  0  0
  190.5140  174.7190  142.9400 C   0  0  0  0  0  0  0  0  0  0  0  0
  189.5780  174.1240  143.9590 C   0  0  0  0  0  2  0  0  0  0  0  0
  190.7170  178.2930  143.9120 C   0  0  0  0  0  1  0  0  0  0  0  0
  190.7170  176.0420  142.9210 C   0  0  0  0  0  3  0  0  0  0  0  0
  188.8030  177.0250  146.0830 C   0  0  0  0  0  2  0  0  0  0  0  0
  187.7140  177.2720  145.2450 O   0  0  0  0  0  0  0  0  0  0  0  0
  184.3010  178.1440  146.4570 S   0  0  0  0  0  0  0  0  0  0  0  0
  186.9500  178.2260  145.9210 C   0  0  2  0  0  3  0  0  0  0  0  0
  186.7210  177.7690  147.3530 C   0  0  1  0  0  3  0  0  0  0  0  0
  185.6090  178.3850  145.2290 C   0  0  2  0  0  3  0  0  0  0  0  0
  186.8900  178.9370  148.3090 C   0  0  0  0  0  1  0  0  0  0  0  0
  185.3870  177.2000  147.4860 N   0  0  0  0  0  2  0  0  0  0  0  0
  185.5020  179.7780  144.6360 C   0  0  0  0  0  1  0  0  0  0  0  0
  192.1450  171.7040  137.9220 N   0  0  0  0  0  0  0  0  0  0  0  0
  193.1440  172.0320  137.1660 C   0  0  0  0  0  3  0  0  0  0  0  0
  193.9800  170.9790  136.5220 C   0  0  0  0  0  2  0  0  0  0  0  0
  196.2570  170.6870  136.3670 N   0  0  0  0  0  2  0  0  0  0  0  0
  197.6600  172.5930  135.5810 C   0  0  0  0  0  2  0  0  0  0  0  0
  195.2120  171.5600  136.0100 N   0  0  0  0  0  0  0  0  0  0  0  0
  197.4570  171.0690  135.6130 C   0  0  0  0  0  2  0  0  0  0  0  0
  195.4080  172.8260  136.7230 C   0  0  0  0  0  2  0  0  0  0  0  0
  196.8760  173.2820  136.6970 C   0  0  2  0  0  3  0  0  0  0  0  0
  196.9690  174.7670  136.5740 C   0  0  0  0  0  0  0  0  0  0  0  0
  196.5150  175.3550  135.5570 O   0  0  0  0  0  0  0  0  0  0  0  0
  197.5650  175.5030  137.5880 O   0  0  0  0  0  1  0  0  0  0  0  0
  190.3710  174.0450  136.7050 C   0  0  0  0  0  3  0  0  0  0  0  0
  190.2070  173.3020  137.7970 C   0  0  0  0  0  3  0  0  0  0  0  0
  189.1950  174.6350  136.0090 C   0  0  0  0  0  2  0  0  0  0  0  0
  188.1240  174.8910  136.9670 N   0  0  0  0  0  2  0  0  0  0  0  0
  187.0830  175.7070  136.3440 C   0  0  2  0  0  3  0  0  0  0  0  0
  187.6360  176.8440  135.7480 O   0  0  0  0  0  1  0  0  0  0  0  0
  186.1150  176.0800  137.2830 O   0  0  0  0  0  0  0  0  0  0  0  0
  186.7950  176.8910  138.1940 C   0  0  0  0  0  2  0  0  0  0  0  0
  186.1330  176.8730  139.4220 O   0  0  0  0  0  0  0  0  0  0  0  0
  187.1060  177.2340  140.3610 C   0  0  2  0  0  3  0  0  0  0  0  0
  186.8540  176.4610  141.6700 C   0  0  0  0  0  0  0  0  0  0  0  0
  185.0660  178.2830  141.5420 C   0  0  0  0  0  1  0  0  0  0  0  0
  186.5470  177.9390  141.4780 C   0  0  2  0  0  0  0  0  0  0  0  0
  187.4300  178.7640  142.1730 O   0  0  0  0  0  1  0  0  0  0  0  0
  186.8740  175.4420  142.3410 O   0  0  0  0  0  0  0  0  0  0  0  0
  1  5  1  0  0  0  0
  1 11  1  0  0  0  0
  2  3  2  0  0  0  0
  2  6  1  0  0  0  0
  3  1  1  0  0  0  0
  4 37  1  1  0  0  0
  4  2  1  0  0  0  0
  6  5  1  0  0  0  0
  7 15  1  1  0  0  0
  8  7  1  0  0  0  0
  8 10  2  0  0  0  0
  9 13  1  1  0  0  0
  9  7  1  0  0  0  0
 11 12  1  0  0  0  0
 12  8  1  0  0  0  0
 14 11  2  0  0  0  0
 14  9  1  0  0  0  0
 16 15  1  0  0  0  0
 17 22  1  0  0  0  0
 18 16  1  6  0  0  0
 18 19  1  0  0  0  0
 19 22  1  0  0  0  0
 19 21  1  1  0  0  0
 20 23  1  1  0  0  0
 20 18  1  0  0  0  0
 20 17  1  0  0  0  0
 24  4  1  0  0  0  0
 25 24  2  0  0  0  0
 26 25  1  0  0  0  0
 28 30  1  0  0  0  0
 28 32  1  0  0  0  0
 29 27  1  0  0  0  0
 29 26  1  0  0  0  0
 29 31  1  0  0  0  0
 30 27  1  0  0  0  0
 32 33  1  6  0  0  0
 32 31  1  0  0  0  0
 33 35  1  0  0  0  0
 34 33  2  0  0  0  0
 36 37  2  0  0  0  0
 38 36  1  0  0  0  0
 38 39  1  0  0  0  0
 40 41  1  1  0  0  0
 40 39  1  0  0  0  0
 40 42  1  0  0  0  0
 42 43  1  0  0  0  0
 43 44  1  0  0  0  0
 45 44  1  6  0  0  0
 45 48  1  0  0  0  0
 45 46  1  0  0  0  0
 46 50  2  0  0  0  0
 48 47  1  6  0  0  0
 48 46  1  0  0  0  0
 48 49  1  0  0  0  0
M  END
>  <MODEL>
3

>  <REMARK>
 VINA RESULT:      -6.0      5.000     11.306
  Name = 
  16 active torsions:
  status: ('A' for Active; 'I' for Inactive)
    1  A    between atoms: C_1  and  C_11
    2  A    between atoms: N_2  and  C_25
    3  A    between atoms: N_4  and  C_5
    4  A    between atoms: N_4  and  C_18
    5  A    between atoms: C_5  and  O_29
    6  A    between atoms: C_6  and  O_39
    7  A    between atoms: C_7  and  C_18
    8  A    between atoms: N_8  and  C_40
    9  A    between atoms: C_11  and  O_48
   10  A    between atoms: C_13  and  C_45
   11  A    between atoms: C_16  and  O_29
   12  A    between atoms: C_16  and  O_39
   13  A    between atoms: C_19  and  C_25
   14  A    between atoms: C_22  and  O_48
   15  A    between atoms: C_23  and  N_32
   16  A    between atoms: C_23  and  C_43
                            x       y       z     vdW  Elec       q    Type
                         _______ _______ _______ _____ _____    ______ ____

>  <TORSDO>
F 16

$$$$
=
 OpenBabel11042415553D

 50 54  0  0  1  0  0  0  0  0999 V2000
  193.9400  175.2100  144.0040 N   0  0  0  0  0  0  0  0  0  0  0  0
  191.9350  176.1580  144.7410 C   0  0  0  0  0  0  0  0  0  0  0  0
  192.7030  175.7370  143.6300 N   0  0  0  0  0  0  0  0  0  0  0  0
  190.7400  176.7690  144.6340 C   0  0  1  0  0  3  0  0  0  0  0  0
  194.2180  175.2200  145.4350 C   0  0  0  0  0  2  0  0  0  0  0  0
  192.7340  175.8480  146.3130 S   0  0  0  0  0  0  0  0  0  0  0  0
  197.3590  174.1750  141.5670 C   0  0  1  0  0  3  0  0  0  0  0  0
  196.5440  175.4250  141.3300 C   0  0  0  0  0  0  0  0  0  0  0  0
  196.5260  173.0620  142.2360 C   0  0  1  0  0  3  0  0  0  0  0  0
  197.0580  176.3960  140.7960 O   0  0  0  0  0  0  0  0  0  0  0  0
  194.8850  174.7360  143.0350 C   0  0  0  0  0  0  0  0  0  0  0  0
  195.1040  175.4970  141.7540 C   0  0  0  0  0  2  0  0  0  0  0  0
  197.4260  172.0370  142.8980 C   0  0  0  0  0  1  0  0  0  0  0  0
  195.5640  173.6030  143.2550 C   0  0  0  0  0  3  0  0  0  0  0  0
  197.9190  173.6740  140.2420 C   0  0  0  0  0  2  0  0  0  0  0  0
  196.9900  172.8450  139.6110 O   0  0  0  0  0  0  0  0  0  0  0  0
  195.3460  173.1330  136.2800 S   0  0  0  0  0  0  0  0  0  0  0  0
  197.2020  173.0420  138.2440 C   0  0  2  0  0  3  0  0  0  0  0  0
  196.8890  174.4870  137.8870 C   0  0  1  0  0  3  0  0  0  0  0  0
  196.2890  172.1250  137.4520 C   0  0  2  0  0  3  0  0  0  0  0  0
  197.9410  175.0300  136.9360 C   0  0  0  0  0  1  0  0  0  0  0  0
  195.5680  174.5740  137.2800 N   0  0  0  0  0  2  0  0  0  0  0  0
  197.1210  171.1070  136.6940 C   0  0  0  0  0  1  0  0  0  0  0  0
  190.0730  177.1600  145.8440 N   0  0  0  0  0  0  0  0  0  0  0  0
  188.7870  177.1430  145.9870 C   0  0  0  0  0  3  0  0  0  0  0  0
  188.1650  177.5600  147.2770 C   0  0  0  0  0  2  0  0  0  0  0  0
  185.9130  177.2220  147.6090 N   0  0  0  0  0  2  0  0  0  0  0  0
  184.2910  178.6580  146.3740 C   0  0  0  0  0  2  0  0  0  0  0  0
  186.8420  178.1160  147.0410 N   0  0  0  0  0  0  0  0  0  0  0  0
  184.6070  177.8880  147.6670 C   0  0  0  0  0  2  0  0  0  0  0  0
  186.6420  178.1220  145.5880 C   0  0  0  0  0  2  0  0  0  0  0  0
  185.1520  178.1670  145.2110 C   0  0  2  0  0  3  0  0  0  0  0  0
  184.9370  179.0100  143.9980 C   0  0  0  0  0  0  0  0  0  0  0  0
  185.5050  180.1290  143.8860 O   0  0  0  0  0  1  0  0  0  0  0  0
  184.0990  178.5580  142.9880 O   0  0  0  0  0  0  0  0  0  0  0  0
  189.6660  178.2560  142.9250 C   0  0  0  0  0  3  0  0  0  0  0  0
  190.0830  177.0600  143.3300 C   0  0  0  0  0  3  0  0  0  0  0  0
  189.0200  178.4200  141.5930 C   0  0  0  0  0  2  0  0  0  0  0  0
  187.5920  178.1390  141.6930 N   0  0  0  0  0  2  0  0  0  0  0  0
  187.2460  177.0050  140.8370 C   0  0  2  0  0  3  0  0  0  0  0  0
  186.0330  177.2340  140.1810 O   0  0  0  0  0  1  0  0  0  0  0  0
  187.1750  175.8230  141.5810 O   0  0  0  0  0  0  0  0  0  0  0  0
  188.1810  175.0090  141.0570 C   0  0  0  0  0  2  0  0  0  0  0  0
  188.5060  174.0130  141.9790 O   0  0  0  0  0  0  0  0  0  0  0  0
  189.8710  173.7760  141.7850 C   0  0  2  0  0  3  0  0  0  0  0  0
  190.0480  172.4300  141.0520 C   0  0  0  0  0  0  0  0  0  0  0  0
  189.4140  171.8710  143.4650 C   0  0  0  0  0  1  0  0  0  0  0  0
  190.3350  172.6430  142.5320 C   0  0  2  0  0  0  0  0  0  0  0  0
  191.7000  172.6290  142.8190 O   0  0  0  0  0  1  0  0  0  0  0  0
  189.9900  171.7310  140.0550 O   0  0  0  0  0  0  0  0  0  0  0  0
  1  5  1  0  0  0  0
  2  6  1  0  0  0  0
  3  1  1  0  0  0  0
  3  2  2  0  0  0  0
  4 37  1  6  0  0  0
  4  2  1  0  0  0  0
  4 24  1  0  0  0  0
  5  6  1  0  0  0  0
  7 15  1  6  0  0  0
  7  9  1  0  0  0  0
  8  7  1  0  0  0  0
  8 12  1  0  0  0  0
  9 13  1  1  0  0  0
  9 14  1  0  0  0  0
 10  8  2  0  0  0  0
 11 14  2  0  0  0  0
 11  1  1  0  0  0  0
 12 11  1  0  0  0  0
 16 15  1  0  0  0  0
 17 22  1  0  0  0  0
 17 20  1  0  0  0  0
 18 16  1  1  0  0  0
 19 21  1  6  0  0  0
 19 18  1  0  0  0  0
 20 23  1  6  0  0  0
 20 18  1  0  0  0  0
 22 19  1  0  0  0  0
 24 25  2  0  0  0  0
 25 26  1  0  0  0  0
 27 30  1  0  0  0  0
 28 30  1  0  0  0  0
 29 26  1  0  0  0  0
 29 27  1  0  0  0  0
 31 29  1  0  0  0  0
 32 33  1  6  0  0  0
 32 31  1  0  0  0  0
 32 28  1  0  0  0  0
 34 33  1  0  0  0  0
 35 33  2  0  0  0  0
 36 37  2  0  0  0  0
 38 39  1  0  0  0  0
 38 36  1  0  0  0  0
 40 41  1  1  0  0  0
 40 42  1  0  0  0  0
 40 39  1  0  0  0  0
 43 42  1  0  0  0  0
 43 44  1  0  0  0  0
 45 44  1  1  0  0  0
 45 48  1  0  0  0  0
 46 45  1  0  0  0  0
 46 48  1  0  0  0  0
 48 49  1  0  0  0  0
 48 47  1  1  0  0  0
 50 46  2  0  0  0  0
M  END
>  <MODEL>
4

>  <REMARK>
 VINA RESULT:      -5.9      4.073      7.287
  Name = 
  16 active torsions:
  status: ('A' for Active; 'I' for Inactive)
    1  A    between atoms: C_1  and  C_11
    2  A    between atoms: N_2  and  C_25
    3  A    between atoms: N_4  and  C_5
    4  A    between atoms: N_4  and  C_18
    5  A    between atoms: C_5  and  O_29
    6  A    between atoms: C_6  and  O_39
    7  A    between atoms: C_7  and  C_18
    8  A    between atoms: N_8  and  C_40
    9  A    between atoms: C_11  and  O_48
   10  A    between atoms: C_13  and  C_45
   11  A    between atoms: C_16  and  O_29
   12  A    between atoms: C_16  and  O_39
   13  A    between atoms: C_19  and  C_25
   14  A    between atoms: C_22  and  O_48
   15  A    between atoms: C_23  and  N_32
   16  A    between atoms: C_23  and  C_43
                            x       y       z     vdW  Elec       q    Type
                         _______ _______ _______ _____ _____    ______ ____

>  <TORSDO>
F 16

$$$$
=
 OpenBabel11042415553D

 50 54  0  0  1  0  0  0  0  0999 V2000
  189.0600  174.8690  141.7360 N   0  0  0  0  0  0  0  0  0  0  0  0
  187.6260  176.4540  142.6820 C   0  0  0  0  0  0  0  0  0  0  0  0
  188.7030  175.5620  142.8930 N   0  0  0  0  0  0  0  0  0  0  0  0
  187.0520  177.1770  143.6610 C   0  0  1  0  0  3  0  0  0  0  0  0
  188.2530  175.1630  140.5570 C   0  0  0  0  0  2  0  0  0  0  0  0
  187.0580  176.4880  140.9840 S   0  0  0  0  0  0  0  0  0  0  0  0
  192.6450  172.5020  142.2210 C   0  0  1  0  0  3  0  0  0  0  0  0
  192.4810  173.5040  141.1020 C   0  0  0  0  0  0  0  0  0  0  0  0
  191.2890  171.9500  142.7040 C   0  0  1  0  0  3  0  0  0  0  0  0
  193.4660  174.0250  140.6010 O   0  0  0  0  0  0  0  0  0  0  0  0
  190.1190  173.9020  141.7280 C   0  0  0  0  0  0  0  0  0  0  0  0
  191.1160  173.8790  140.6000 C   0  0  0  0  0  2  0  0  0  0  0  0
  191.4110  171.3530  144.0930 C   0  0  0  0  0  1  0  0  0  0  0  0
  190.2160  173.0010  142.7140 C   0  0  0  0  0  3  0  0  0  0  0  0
  193.5310  171.3550  141.7510 C   0  0  0  0  0  2  0  0  0  0  0  0
  194.8440  171.5530  142.1840 O   0  0  0  0  0  0  0  0  0  0  0  0
  197.1600  169.8040  144.5190 S   0  0  0  0  0  0  0  0  0  0  0  0
  194.9370  170.8430  143.3830 C   0  0  2  0  0  3  0  0  0  0  0  0
  195.4440  171.7670  144.4800 C   0  0  1  0  0  3  0  0  0  0  0  0
  195.9090  169.6900  143.2150 C   0  0  2  0  0  3  0  0  0  0  0  0
  194.6640  171.5330  145.7620 C   0  0  0  0  0  1  0  0  0  0  0  0
  196.8640  171.5370  144.7050 N   0  0  0  0  0  2  0  0  0  0  0  0
  195.1640  168.3730  143.3360 C   0  0  0  0  0  1  0  0  0  0  0  0
  185.9530  178.0320  143.3120 N   0  0  0  0  0  0  0  0  0  0  0  0
  184.8130  178.0170  143.9240 C   0  0  0  0  0  3  0  0  0  0  0  0
  183.7180  178.9400  143.5070 C   0  0  0  0  0  2  0  0  0  0  0  0
  183.6490  178.6680  141.2230 N   0  0  0  0  0  2  0  0  0  0  0  0
  181.5610  177.7870  140.1830 C   0  0  0  0  0  2  0  0  0  0  0  0
  182.9600  178.3560  142.4110 N   0  0  0  0  0  0  0  0  0  0  0  0
  183.0970  177.8460  140.1400 C   0  0  0  0  0  2  0  0  0  0  0  0
  181.6650  179.0450  142.3830 C   0  0  0  0  0  2  0  0  0  0  0  0
  180.9840  178.9350  141.0090 C   0  0  2  0  0  3  0  0  0  0  0  0
  179.5060  178.7920  141.1600 C   0  0  0  0  0  0  0  0  0  0  0  0
  178.7530  179.7990  141.0830 O   0  0  0  0  0  0  0  0  0  0  0  0
  178.9580  177.5380  141.3930 O   0  0  0  0  0  1  0  0  0  0  0  0
  188.6810  177.5330  145.5330 C   0  0  0  0  0  3  0  0  0  0  0  0
  187.4970  177.1310  145.0810 C   0  0  0  0  0  3  0  0  0  0  0  0
  189.0110  177.4360  146.9820 C   0  0  0  0  0  2  0  0  0  0  0  0
  190.2640  176.7100  147.1610 N   0  0  0  0  0  2  0  0  0  0  0  0
  190.2340  175.4650  146.3940 C   0  0  2  0  0  3  0  0  0  0  0  0
  189.5320  174.4750  147.0880 O   0  0  0  0  0  1  0  0  0  0  0  0
  191.5300  175.0240  146.1080 O   0  0  0  0  0  0  0  0  0  0  0  0
  191.6830  175.2300  144.7360 C   0  0  0  0  0  2  0  0  0  0  0  0
  192.7440  176.1090  144.5090 O   0  0  0  0  0  0  0  0  0  0  0  0
  193.6000  175.9280  145.6010 C   0  0  2  0  0  3  0  0  0  0  0  0
  194.6660  177.0420  145.5940 C   0  0  0  0  0  0  0  0  0  0  0  0
  195.2980  175.4140  143.7280 C   0  0  0  0  0  1  0  0  0  0  0  0
  194.9350  175.5990  145.1940 C   0  0  2  0  0  0  0  0  0  0  0  0
  195.7020  174.9170  146.1370 O   0  0  0  0  0  1  0  0  0  0  0  0
  195.0190  178.1970  145.7660 O   0  0  0  0  0  0  0  0  0  0  0  0
  1  3  1  0  0  0  0
  2  3  2  0  0  0  0
  2  4  1  0  0  0  0
  4 37  1  1  0  0  0
  5  6  1  0  0  0  0
  5  1  1  0  0  0  0
  6  2  1  0  0  0  0
  7 15  1  6  0  0  0
  7  9  1  0  0  0  0
  8  7  1  0  0  0  0
  9 14  1  0  0  0  0
  9 13  1  1  0  0  0
 10  8  2  0  0  0  0
 11  1  1  0  0  0  0
 11 14  2  0  0  0  0
 12  8  1  0  0  0  0
 12 11  1  0  0  0  0
 15 16  1  0  0  0  0
 17 22  1  0  0  0  0
 18 16  1  6  0  0  0
 18 19  1  0  0  0  0
 19 22  1  0  0  0  0
 19 21  1  1  0  0  0
 20 23  1  1  0  0  0
 20 18  1  0  0  0  0
 20 17  1  0  0  0  0
 24  4  1  0  0  0  0
 24 25  2  0  0  0  0
 26 25  1  0  0  0  0
 27 29  1  0  0  0  0
 28 32  1  0  0  0  0
 29 26  1  0  0  0  0
 30 28  1  0  0  0  0
 30 27  1  0  0  0  0
 31 29  1  0  0  0  0
 32 33  1  1  0  0  0
 32 31  1  0  0  0  0
 33 35  1  0  0  0  0
 34 33  2  0  0  0  0
 36 38  1  0  0  0  0
 37 36  2  0  0  0  0
 38 39  1  0  0  0  0
 40 41  1  1  0  0  0
 40 39  1  0  0  0  0
 42 40  1  0  0  0  0
 43 42  1  0  0  0  0
 44 43  1  0  0  0  0
 45 44  1  6  0  0  0
 46 45  1  0  0  0  0
 46 50  2  0  0  0  0
 48 47  1  6  0  0  0
 48 46  1  0  0  0  0
 48 45  1  0  0  0  0
 48 49  1  0  0  0  0
M  END
>  <MODEL>
5

>  <REMARK>
 VINA RESULT:      -5.9      2.348      3.895
  Name = 
  16 active torsions:
  status: ('A' for Active; 'I' for Inactive)
    1  A    between atoms: C_1  and  C_11
    2  A    between atoms: N_2  and  C_25
    3  A    between atoms: N_4  and  C_5
    4  A    between atoms: N_4  and  C_18
    5  A    between atoms: C_5  and  O_29
    6  A    between atoms: C_6  and  O_39
    7  A    between atoms: C_7  and  C_18
    8  A    between atoms: N_8  and  C_40
    9  A    between atoms: C_11  and  O_48
   10  A    between atoms: C_13  and  C_45
   11  A    between atoms: C_16  and  O_29
   12  A    between atoms: C_16  and  O_39
   13  A    between atoms: C_19  and  C_25
   14  A    between atoms: C_22  and  O_48
   15  A    between atoms: C_23  and  N_32
   16  A    between atoms: C_23  and  C_43
                            x       y       z     vdW  Elec       q    Type
                         _______ _______ _______ _____ _____    ______ ____

>  <TORSDO>
F 16

$$$$
=
 OpenBabel11042415553D

 50 54  0  0  1  0  0  0  0  0999 V2000
  189.4400  173.5130  141.0950 N   0  0  0  0  0  0  0  0  0  0  0  0
  190.2360  171.4600  140.3100 C   0  0  0  0  0  0  0  0  0  0  0  0
  190.0260  172.2920  141.4340 N   0  0  0  0  0  0  0  0  0  0  0  0
  190.8560  170.2670  140.3690 C   0  0  1  0  0  3  0  0  0  0  0  0
  189.1890  173.7120  139.6730 C   0  0  0  0  0  2  0  0  0  0  0  0
  189.6450  172.1760  138.7790 S   0  0  0  0  0  0  0  0  0  0  0  0
  189.3730  176.7640  143.9450 C   0  0  1  0  0  3  0  0  0  0  0  0
  189.7330  175.3490  144.3370 C   0  0  0  0  0  0  0  0  0  0  0  0
  188.4470  176.8020  142.7130 C   0  0  1  0  0  3  0  0  0  0  0  0
  190.4520  175.1490  145.3040 O   0  0  0  0  0  0  0  0  0  0  0  0
  189.1520  174.5140  142.0800 C   0  0  0  0  0  0  0  0  0  0  0  0
  189.2230  174.1780  143.5460 C   0  0  0  0  0  2  0  0  0  0  0  0
  188.4880  178.1640  142.0470 C   0  0  0  0  0  1  0  0  0  0  0  0
  188.7970  175.7490  141.7010 C   0  0  0  0  0  3  0  0  0  0  0  0
  188.7000  177.4620  145.1200 C   0  0  0  0  0  2  0  0  0  0  0  0
  187.3580  177.0830  145.1980 O   0  0  0  0  0  0  0  0  0  0  0  0
  184.0160  178.6490  145.7030 S   0  0  0  0  0  0  0  0  0  0  0  0
  186.6860  178.2270  145.6330 C   0  0  2  0  0  3  0  0  0  0  0  0
  186.1580  178.0010  147.0410 C   0  0  1  0  0  3  0  0  0  0  0  0
  185.5210  178.5140  144.7050 C   0  0  2  0  0  3  0  0  0  0  0  0
  186.3890  179.2370  147.8910 C   0  0  0  0  0  1  0  0  0  0  0  0
  184.7380  177.6800  146.9930 N   0  0  0  0  0  2  0  0  0  0  0  0
  185.7640  179.8180  143.9680 C   0  0  0  0  0  1  0  0  0  0  0  0
  191.0200  169.5310  139.1480 N   0  0  0  0  0  0  0  0  0  0  0  0
  192.0770  169.6060  138.4050 C   0  0  0  0  0  3  0  0  0  0  0  0
  192.1770  168.8060  137.1500 C   0  0  0  0  0  2  0  0  0  0  0  0
  194.2000  168.6520  136.0660 N   0  0  0  0  0  2  0  0  0  0  0  0
  195.0640  170.6500  134.8490 C   0  0  0  0  0  2  0  0  0  0  0  0
  193.0600  169.4670  136.2020 N   0  0  0  0  0  0  0  0  0  0  0  0
  194.9640  169.1160  134.9020 C   0  0  0  0  0  2  0  0  0  0  0  0
  193.4720  170.7310  136.8220 C   0  0  0  0  0  2  0  0  0  0  0  0
  194.7770  171.2720  136.2140 C   0  0  2  0  0  3  0  0  0  0  0  0
  194.7410  172.7620  136.1230 C   0  0  0  0  0  0  0  0  0  0  0  0
  195.8060  173.4320  136.1670 O   0  0  0  0  0  1  0  0  0  0  0  0
  193.5220  173.4120  135.9950 O   0  0  0  0  0  0  0  0  0  0  0  0
  192.6640  169.5830  141.9670 C   0  0  0  0  0  3  0  0  0  0  0  0
  191.3800  169.6790  141.6330 C   0  0  0  0  0  3  0  0  0  0  0  0
  193.0640  168.9720  143.2650 C   0  0  0  0  0  2  0  0  0  0  0  0
  192.8410  169.9180  144.3520 N   0  0  0  0  0  2  0  0  0  0  0  0
  193.8250  170.9980  144.2840 C   0  0  2  0  0  3  0  0  0  0  0  0
  195.1230  170.4900  144.3760 O   0  0  0  0  0  1  0  0  0  0  0  0
  193.6040  171.9370  145.2980 O   0  0  0  0  0  0  0  0  0  0  0  0
  193.2840  173.1190  144.6260 C   0  0  0  0  0  2  0  0  0  0  0  0
  194.3250  174.0370  144.7720 O   0  0  0  0  0  0  0  0  0  0  0  0
  193.8740  175.1960  144.1300 C   0  0  2  0  0  3  0  0  0  0  0  0
  195.0130  176.2350  144.1110 C   0  0  0  0  0  0  0  0  0  0  0  0
  194.1170  176.1770  146.5040 C   0  0  0  0  0  1  0  0  0  0  0  0
  193.7970  176.3160  145.0230 C   0  0  2  0  0  0  0  0  0  0  0  0
  192.9130  177.3260  144.6470 O   0  0  0  0  0  1  0  0  0  0  0  0
  196.0770  176.6600  143.6930 O   0  0  0  0  0  0  0  0  0  0  0  0
  1  3  1  0  0  0  0
  1 11  1  0  0  0  0
  2  4  1  0  0  0  0
  2  3  2  0  0  0  0
  4 37  1  6  0  0  0
  5  1  1  0  0  0  0
  6  5  1  0  0  0  0
  6  2  1  0  0  0  0
  7  8  1  0  0  0  0
  7 15  1  1  0  0  0
  8 10  2  0  0  0  0
  9 13  1  6  0  0  0
  9  7  1  0  0  0  0
 11 12  1  0  0  0  0
 12  8  1  0  0  0  0
 14 11  2  0  0  0  0
 14  9  1  0  0  0  0
 15 16  1  0  0  0  0
 17 22  1  0  0  0  0
 18 16  1  6  0  0  0
 18 19  1  0  0  0  0
 19 21  1  1  0  0  0
 20 23  1  1  0  0  0
 20 18  1  0  0  0  0
 20 17  1  0  0  0  0
 22 19  1  0  0  0  0
 24  4  1  0  0  0  0
 25 24  2  0  0  0  0
 26 25  1  0  0  0  0
 27 29  1  0  0  0  0
 28 30  1  0  0  0  0
 28 32  1  0  0  0  0
 29 31  1  0  0  0  0
 29 26  1  0  0  0  0
 30 27  1  0  0  0  0
 32 33  1  6  0  0  0
 32 31  1  0  0  0  0
 33 34  1  0  0  0  0
 35 33  2  0  0  0  0
 36 38  1  0  0  0  0
 37 36  2  0  0  0  0
 38 39  1  0  0  0  0
 40 39  1  0  0  0  0
 40 41  1  1  0  0  0
 40 42  1  0  0  0  0
 43 44  1  0  0  0  0
 43 42  1  0  0  0  0
 45 44  1  1  0  0  0
 45 48  1  0  0  0  0
 46 45  1  0  0  0  0
 46 48  1  0  0  0  0
 48 47  1  1  0  0  0
 49 48  1  0  0  0  0
 50 46  2  0  0  0  0
M  END
>  <MODEL>
6

>  <REMARK>
 VINA RESULT:      -5.9      4.641     10.862
  Name = 
  16 active torsions:
  status: ('A' for Active; 'I' for Inactive)
    1  A    between atoms: C_1  and  C_11
    2  A    between atoms: N_2  and  C_25
    3  A    between atoms: N_4  and  C_5
    4  A    between atoms: N_4  and  C_18
    5  A    between atoms: C_5  and  O_29
    6  A    between atoms: C_6  and  O_39
    7  A    between atoms: C_7  and  C_18
    8  A    between atoms: N_8  and  C_40
    9  A    between atoms: C_11  and  O_48
   10  A    between atoms: C_13  and  C_45
   11  A    between atoms: C_16  and  O_29
   12  A    between atoms: C_16  and  O_39
   13  A    between atoms: C_19  and  C_25
   14  A    between atoms: C_22  and  O_48
   15  A    between atoms: C_23  and  N_32
   16  A    between atoms: C_23  and  C_43
                            x       y       z     vdW  Elec       q    Type
                         _______ _______ _______ _____ _____    ______ ____

>  <TORSDO>
F 16

$$$$
=
 OpenBabel11042415553D

 50 54  0  0  1  0  0  0  0  0999 V2000
  190.8360  173.6730  141.9770 N   0  0  0  0  0  0  0  0  0  0  0  0
  191.9410  171.6850  141.4410 C   0  0  0  0  0  0  0  0  0  0  0  0
  191.5220  172.5620  142.4690 N   0  0  0  0  0  0  0  0  0  0  0  0
  192.6870  170.5850  141.6570 C   0  0  1  0  0  3  0  0  0  0  0  0
  190.7090  173.7380  140.5260 C   0  0  0  0  0  2  0  0  0  0  0  0
  191.4300  172.2110  139.8080 S   0  0  0  0  0  0  0  0  0  0  0  0
  190.0200  176.6100  145.0440 C   0  0  1  0  0  3  0  0  0  0  0  0
  189.5250  175.1850  145.1340 C   0  0  0  0  0  0  0  0  0  0  0  0
  190.2180  177.0600  143.5820 C   0  0  1  0  0  3  0  0  0  0  0  0
  189.3060  174.6840  146.2260 O   0  0  0  0  0  0  0  0  0  0  0  0
  190.3340  174.6990  142.8450 C   0  0  0  0  0  0  0  0  0  0  0  0
  189.3040  174.3670  143.8930 C   0  0  0  0  0  2  0  0  0  0  0  0
  191.1450  178.2570  143.5050 C   0  0  0  0  0  1  0  0  0  0  0  0
  190.7620  175.9610  142.7150 C   0  0  0  0  0  3  0  0  0  0  0  0
  189.0310  177.5370  145.7390 C   0  0  0  0  0  2  0  0  0  0  0  0
  187.7280  177.2430  145.3310 O   0  0  0  0  0  0  0  0  0  0  0  0
  184.2540  178.3060  146.1520 S   0  0  0  0  0  0  0  0  0  0  0  0
  186.9430  178.2630  145.8730 C   0  0  2  0  0  3  0  0  0  0  0  0
  186.5600  177.9020  147.3000 C   0  0  1  0  0  3  0  0  0  0  0  0
  185.6820  178.4250  145.0450 C   0  0  2  0  0  3  0  0  0  0  0  0
  186.6850  179.1190  148.1990 C   0  0  0  0  0  1  0  0  0  0  0  0
  185.1970  177.3890  147.3340 N   0  0  0  0  0  2  0  0  0  0  0  0
  185.6890  179.7830  144.3670 C   0  0  0  0  0  1  0  0  0  0  0  0
  193.0590  169.7900  140.5210 N   0  0  0  0  0  0  0  0  0  0  0  0
  194.2320  169.8280  139.9760 C   0  0  0  0  0  3  0  0  0  0  0  0
  194.5470  168.9680  138.7990 C   0  0  0  0  0  2  0  0  0  0  0  0
  196.8330  169.1030  138.5750 N   0  0  0  0  0  2  0  0  0  0  0  0
  197.7890  170.8360  137.0580 C   0  0  0  0  0  2  0  0  0  0  0  0
  195.6230  169.5590  138.0180 N   0  0  0  0  0  0  0  0  0  0  0  0
  197.9190  169.4190  137.6410 C   0  0  0  0  0  2  0  0  0  0  0  0
  195.5420  171.0090  138.2210 C   0  0  0  0  0  2  0  0  0  0  0  0
  196.8770  171.7090  137.9180 C   0  0  2  0  0  3  0  0  0  0  0  0
  196.6470  173.0350  137.2730 C   0  0  0  0  0  0  0  0  0  0  0  0
  195.4800  173.4120  136.9820 O   0  0  0  0  0  0  0  0  0  0  0  0
  197.7280  173.8560  136.9860 O   0  0  0  0  0  1  0  0  0  0  0  0
  194.3060  170.4790  143.5680 C   0  0  0  0  0  3  0  0  0  0  0  0
  193.1430  170.1570  143.0080 C   0  0  0  0  0  3  0  0  0  0  0  0
  194.6510  169.9880  144.9310 C   0  0  0  0  0  2  0  0  0  0  0  0
  195.0660  171.1040  145.7730 N   0  0  0  0  0  2  0  0  0  0  0  0
  196.4650  171.4360  145.5060 C   0  0  2  0  0  3  0  0  0  0  0  0
  197.2830  170.3180  145.6900 O   0  0  0  0  0  1  0  0  0  0  0  0
  196.8930  172.4840  146.3280 O   0  0  0  0  0  0  0  0  0  0  0  0
  196.8690  173.6140  145.5080 C   0  0  0  0  0  2  0  0  0  0  0  0
  195.9250  174.5220  145.9880 O   0  0  0  0  0  0  0  0  0  0  0  0
  195.6930  175.3980  144.9220 C   0  0  2  0  0  3  0  0  0  0  0  0
  194.7770  176.5420  145.4010 C   0  0  0  0  0  0  0  0  0  0  0  0
  193.2940  174.4750  145.1510 C   0  0  0  0  0  1  0  0  0  0  0  0
  194.3200  175.3970  144.5080 C   0  0  2  0  0  0  0  0  0  0  0  0
  194.0860  175.8030  143.1950 O   0  0  0  0  0  1  0  0  0  0  0  0
  194.5730  177.5700  146.0260 O   0  0  0  0  0  0  0  0  0  0  0  0
  1  3  1  0  0  0  0
  1 11  1  0  0  0  0
  2  4  1  0  0  0  0
  2  3  2  0  0  0  0
  4 37  1  6  0  0  0
  5  1  1  0  0  0  0
  6  5  1  0  0  0  0
  6  2  1  0  0  0  0
  7  8  1  0  0  0  0
  7 15  1  6  0  0  0
  8 10  2  0  0  0  0
  9 13  1  1  0  0  0
  9  7  1  0  0  0  0
 11 12  1  0  0  0  0
 12  8  1  0  0  0  0
 14 11  2  0  0  0  0
 14  9  1  0  0  0  0
 16 15  1  0  0  0  0
 17 22  1  0  0  0  0
 18 16  1  6  0  0  0
 18 19  1  0  0  0  0
 19 22  1  0  0  0  0
 19 21  1  1  0  0  0
 20 23  1  1  0  0  0
 20 18  1  0  0  0  0
 20 17  1  0  0  0  0
 24  4  1  0  0  0  0
 25 24  2  0  0  0  0
 26 25  1  0  0  0  0
 28 30  1  0  0  0  0
 28 32  1  0  0  0  0
 29 31  1  0  0  0  0
 29 27  1  0  0  0  0
 29 26  1  0  0  0  0
 30 27  1  0  0  0  0
 32 33  1  6  0  0  0
 32 31  1  0  0  0  0
 34 33  2  0  0  0  0
 35 33  1  0  0  0  0
 36 38  1  0  0  0  0
 37 36  2  0  0  0  0
 38 39  1  0  0  0  0
 40 41  1  1  0  0  0
 40 39  1  0  0  0  0
 40 42  1  0  0  0  0
 43 44  1  0  0  0  0
 43 42  1  0  0  0  0
 45 46  1  0  0  0  0
 45 44  1  1  0  0  0
 46 50  2  0  0  0  0
 48 45  1  0  0  0  0
 48 47  1  1  0  0  0
 48 46  1  0  0  0  0
 49 48  1  0  0  0  0
M  END
>  <MODEL>
7

>  <REMARK>
 VINA RESULT:      -5.8      4.547     11.653
  Name = 
  16 active torsions:
  status: ('A' for Active; 'I' for Inactive)
    1  A    between atoms: C_1  and  C_11
    2  A    between atoms: N_2  and  C_25
    3  A    between atoms: N_4  and  C_5
    4  A    between atoms: N_4  and  C_18
    5  A    between atoms: C_5  and  O_29
    6  A    between atoms: C_6  and  O_39
    7  A    between atoms: C_7  and  C_18
    8  A    between atoms: N_8  and  C_40
    9  A    between atoms: C_11  and  O_48
   10  A    between atoms: C_13  and  C_45
   11  A    between atoms: C_16  and  O_29
   12  A    between atoms: C_16  and  O_39
   13  A    between atoms: C_19  and  C_25
   14  A    between atoms: C_22  and  O_48
   15  A    between atoms: C_23  and  N_32
   16  A    between atoms: C_23  and  C_43
                            x       y       z     vdW  Elec       q    Type
                         _______ _______ _______ _____ _____    ______ ____

>  <TORSDO>
F 16

$$$$
=
 OpenBabel11042415553D

 50 54  0  0  1  0  0  0  0  0999 V2000
  190.7570  174.2460  141.4160 N   0  0  0  0  0  0  0  0  0  0  0  0
  192.5540  173.4670  140.1410 C   0  0  0  0  0  0  0  0  0  0  0  0
  192.1400  174.0760  141.3480 N   0  0  0  0  0  0  0  0  0  0  0  0
  193.8430  173.2670  139.8090 C   0  0  1  0  0  3  0  0  0  0  0  0
  190.0140  173.8020  140.2420 C   0  0  0  0  0  2  0  0  0  0  0  0
  191.1920  173.0320  139.0630 S   0  0  0  0  0  0  0  0  0  0  0  0
  189.6190  176.0740  145.1650 C   0  0  1  0  0  3  0  0  0  0  0  0
  189.5730  174.5800  144.9450 C   0  0  0  0  0  0  0  0  0  0  0  0
  189.4520  176.8560  143.8470 C   0  0  1  0  0  3  0  0  0  0  0  0
  189.6790  173.8200  145.8960 O   0  0  0  0  0  0  0  0  0  0  0  0
  190.1230  174.8580  142.5480 C   0  0  0  0  0  0  0  0  0  0  0  0
  189.4060  174.0100  143.5650 C   0  0  0  0  0  2  0  0  0  0  0  0
  189.9740  178.2730  143.9880 C   0  0  0  0  0  1  0  0  0  0  0  0
  190.1470  176.1890  142.6950 C   0  0  0  0  0  3  0  0  0  0  0  0
  188.5260  176.4780  146.1470 C   0  0  0  0  0  2  0  0  0  0  0  0
  187.2900  176.5160  145.5000 O   0  0  0  0  0  0  0  0  0  0  0  0
  184.2340  178.6460  145.5130 S   0  0  0  0  0  0  0  0  0  0  0  0
  186.7880  177.7940  145.7590 C   0  0  2  0  0  3  0  0  0  0  0  0
  186.1080  177.8040  147.1190 C   0  0  1  0  0  3  0  0  0  0  0  0
  185.7740  178.1650  144.6920 C   0  0  2  0  0  3  0  0  0  0  0  0
  186.4710  179.0700  147.8750 C   0  0  0  0  0  1  0  0  0  0  0  0
  184.6640  177.7140  146.9530 N   0  0  0  0  0  2  0  0  0  0  0  0
  186.3000  179.3280  143.8720 C   0  0  0  0  0  1  0  0  0  0  0  0
  194.1250  172.6520  138.5430 N   0  0  0  0  0  0  0  0  0  0  0  0
  194.3290  171.3820  138.3960 C   0  0  0  0  0  3  0  0  0  0  0  0
  194.6120  170.8140  137.0460 C   0  0  0  0  0  2  0  0  0  0  0  0
  193.7450  169.6060  135.2900 N   0  0  0  0  0  2  0  0  0  0  0  0
  191.2980  169.7420  134.8330 C   0  0  0  0  0  2  0  0  0  0  0  0
  193.3790  170.3520  136.4270 N   0  0  0  0  0  0  0  0  0  0  0  0
  192.5650  168.8720  134.8200 C   0  0  0  0  0  2  0  0  0  0  0  0
  192.6610  171.5490  135.9770 C   0  0  0  0  0  2  0  0  0  0  0  0
  191.6460  171.2290  134.8670 C   0  0  2  0  0  3  0  0  0  0  0  0
  190.4150  172.0610  135.0190 C   0  0  0  0  0  0  0  0  0  0  0  0
  189.3090  171.5240  135.2960 O   0  0  0  0  0  1  0  0  0  0  0  0
  190.4900  173.4360  134.8460 O   0  0  0  0  0  0  0  0  0  0  0  0
  195.6440  174.8080  140.6290 C   0  0  0  0  0  3  0  0  0  0  0  0
  194.9840  173.6540  140.6850 C   0  0  0  0  0  3  0  0  0  0  0  0
  196.7720  175.0790  141.5630 C   0  0  0  0  0  2  0  0  0  0  0  0
  197.0960  173.8740  142.3180 N   0  0  0  0  0  2  0  0  0  0  0  0
  196.8030  174.0800  143.7360 C   0  0  2  0  0  3  0  0  0  0  0  0
  197.6330  173.2850  144.5320 O   0  0  0  0  0  1  0  0  0  0  0  0
  195.4600  173.7990  144.0130 O   0  0  0  0  0  0  0  0  0  0  0  0
  195.3710  173.8180  145.4060 C   0  0  0  0  0  2  0  0  0  0  0  0
  194.1590  174.3920  145.7900 O   0  0  0  0  0  0  0  0  0  0  0  0
  194.5090  175.6170  146.3690 C   0  0  2  0  0  3  0  0  0  0  0  0
  193.2240  176.3700  146.7690 C   0  0  0  0  0  0  0  0  0  0  0  0
  193.4070  176.5380  144.2250 C   0  0  0  0  0  1  0  0  0  0  0  0
  194.0890  176.7330  145.5710 C   0  0  2  0  0  0  0  0  0  0  0  0
  194.8030  177.9150  145.7650 O   0  0  0  0  0  1  0  0  0  0  0  0
  192.2530  176.5370  147.4880 O   0  0  0  0  0  0  0  0  0  0  0  0
  1 11  1  0  0  0  0
  2  3  2  0  0  0  0
  3  1  1  0  0  0  0
  4  2  1  0  0  0  0
  4 37  1  6  0  0  0
  5  1  1  0  0  0  0
  6  2  1  0  0  0  0
  6  5  1  0  0  0  0
  7 15  1  1  0  0  0
  8  7  1  0  0  0  0
  8 10  2  0  0  0  0
  9 13  1  1  0  0  0
  9  7  1  0  0  0  0
 11 14  2  0  0  0  0
 11 12  1  0  0  0  0
 12  8  1  0  0  0  0
 14  9  1  0  0  0  0
 16 15  1  0  0  0  0
 17 22  1  0  0  0  0
 18 16  1  6  0  0  0
 18 19  1  0  0  0  0
 19 21  1  6  0  0  0
 20 23  1  1  0  0  0
 20 17  1  0  0  0  0
 20 18  1  0  0  0  0
 22 19  1  0  0  0  0
 24  4  1  0  0  0  0
 25 24  2  0  0  0  0
 26 25  1  0  0  0  0
 27 29  1  0  0  0  0
 28 32  1  0  0  0  0
 29 26  1  0  0  0  0
 30 28  1  0  0  0  0
 30 27  1  0  0  0  0
 31 29  1  0  0  0  0
 32 33  1  1  0  0  0
 32 31  1  0  0  0  0
 33 34  1  0  0  0  0
 35 33  2  0  0  0  0
 36 37  2  0  0  0  0
 36 38  1  0  0  0  0
 38 39  1  0  0  0  0
 39 40  1  0  0  0  0
 40 42  1  0  0  0  0
 40 41  1  1  0  0  0
 42 43  1  0  0  0  0
 43 44  1  0  0  0  0
 45 44  1  6  0  0  0
 45 46  1  0  0  0  0
 46 50  2  0  0  0  0
 48 47  1  6  0  0  0
 48 49  1  0  0  0  0
 48 45  1  0  0  0  0
 48 46  1  0  0  0  0
M  END
>  <MODEL>
8

>  <REMARK>
 VINA RESULT:      -5.8      4.496     10.407
  Name = 
  16 active torsions:
  status: ('A' for Active; 'I' for Inactive)
    1  A    between atoms: C_1  and  C_11
    2  A    between atoms: N_2  and  C_25
    3  A    between atoms: N_4  and  C_5
    4  A    between atoms: N_4  and  C_18
    5  A    between atoms: C_5  and  O_29
    6  A    between atoms: C_6  and  O_39
    7  A    between atoms: C_7  and  C_18
    8  A    between atoms: N_8  and  C_40
    9  A    between atoms: C_11  and  O_48
   10  A    between atoms: C_13  and  C_45
   11  A    between atoms: C_16  and  O_29
   12  A    between atoms: C_16  and  O_39
   13  A    between atoms: C_19  and  C_25
   14  A    between atoms: C_22  and  O_48
   15  A    between atoms: C_23  and  N_32
   16  A    between atoms: C_23  and  C_43
                            x       y       z     vdW  Elec       q    Type
                         _______ _______ _______ _____ _____    ______ ____

>  <TORSDO>
F 16

$$$$
=
 OpenBabel11042415553D

 50 54  0  0  1  0  0  0  0  0999 V2000
  190.7620  173.7690  141.8160 N   0  0  0  0  0  0  0  0  0  0  0  0
  192.2280  172.2710  140.7840 C   0  0  0  0  0  0  0  0  0  0  0  0
  191.9950  173.1200  141.8910 N   0  0  0  0  0  0  0  0  0  0  0  0
  193.3780  171.5960  140.5900 C   0  0  1  0  0  3  0  0  0  0  0  0
  189.9750  173.4830  140.6230 C   0  0  0  0  0  2  0  0  0  0  0  0
  190.8620  172.2210  139.6280 S   0  0  0  0  0  0  0  0  0  0  0  0
  190.1530  176.2990  145.2690 C   0  0  1  0  0  3  0  0  0  0  0  0
  189.5960  174.8970  145.1840 C   0  0  0  0  0  0  0  0  0  0  0  0
  190.3380  176.9320  143.8750 C   0  0  1  0  0  3  0  0  0  0  0  0
  189.3810  174.2630  146.2050 O   0  0  0  0  0  0  0  0  0  0  0  0
  190.3270  174.6890  142.8280 C   0  0  0  0  0  0  0  0  0  0  0  0
  189.3090  174.2630  143.8520 C   0  0  0  0  0  2  0  0  0  0  0  0
  191.3160  178.0890  143.9310 C   0  0  0  0  0  1  0  0  0  0  0  0
  190.8100  175.9380  142.8540 C   0  0  0  0  0  3  0  0  0  0  0  0
  189.2250  177.1650  146.1110 C   0  0  0  0  0  2  0  0  0  0  0  0
  188.5000  178.0310  145.2890 O   0  0  0  0  0  0  0  0  0  0  0  0
  184.8510  178.7760  145.3700 S   0  0  0  0  0  0  0  0  0  0  0  0
  187.2190  177.4780  145.2260 C   0  0  2  0  0  3  0  0  0  0  0  0
  186.6480  177.6810  143.8310 C   0  0  1  0  0  3  0  0  0  0  0  0
  186.3200  178.1680  146.2360 C   0  0  2  0  0  3  0  0  0  0  0  0
  185.9430  176.4180  143.3670 C   0  0  0  0  0  1  0  0  0  0  0  0
  185.7220  178.8040  143.8310 N   0  0  0  0  0  2  0  0  0  0  0  0
  185.9050  177.1780  147.3090 C   0  0  0  0  0  1  0  0  0  0  0  0
  193.4900  170.7820  139.4130 N   0  0  0  0  0  0  0  0  0  0  0  0
  194.1130  171.1560  138.3420 C   0  0  0  0  0  3  0  0  0  0  0  0
  194.1920  170.2520  137.1590 C   0  0  0  0  0  2  0  0  0  0  0  0
  193.1440  169.6210  135.2100 N   0  0  0  0  0  2  0  0  0  0  0  0
  190.8260  170.4330  134.7780 C   0  0  0  0  0  2  0  0  0  0  0  0
  192.9150  170.2230  136.4630 N   0  0  0  0  0  0  0  0  0  0  0  0
  191.8450  169.2930  134.6110 C   0  0  0  0  0  2  0  0  0  0  0  0
  192.5290  171.6200  136.2360 C   0  0  0  0  0  2  0  0  0  0  0  0
  191.5200  171.7580  135.0840 C   0  0  2  0  0  3  0  0  0  0  0  0
  190.5200  172.8270  135.3800 C   0  0  0  0  0  0  0  0  0  0  0  0
  189.3770  172.5310  135.8190 O   0  0  0  0  0  1  0  0  0  0  0  0
  190.8530  174.1570  135.1630 O   0  0  0  0  0  0  0  0  0  0  0  0
  194.7960  170.7710  142.4850 C   0  0  0  0  0  3  0  0  0  0  0  0
  194.5310  171.6570  141.5290 C   0  0  0  0  0  3  0  0  0  0  0  0
  195.9850  170.9410  143.3660 C   0  0  0  0  0  2  0  0  0  0  0  0
  196.7160  172.1470  142.9900 N   0  0  0  0  0  2  0  0  0  0  0  0
  197.6340  172.5290  144.0630 C   0  0  2  0  0  3  0  0  0  0  0  0
  197.6050  171.5870  145.0950 O   0  0  0  0  0  1  0  0  0  0  0  0
  197.3170  173.7970  144.5600 O   0  0  0  0  0  0  0  0  0  0  0  0
  196.8200  173.5640  145.8440 C   0  0  0  0  0  2  0  0  0  0  0  0
  195.8800  174.5430  146.1670 O   0  0  0  0  0  0  0  0  0  0  0  0
  195.7100  175.2810  144.9910 C   0  0  2  0  0  3  0  0  0  0  0  0
  194.7860  176.4820  145.2790 C   0  0  0  0  0  0  0  0  0  0  0  0
  193.2920  174.4090  145.2150 C   0  0  0  0  0  1  0  0  0  0  0  0
  194.3580  175.2380  144.5140 C   0  0  2  0  0  0  0  0  0  0  0  0
  194.1920  175.4790  143.1510 O   0  0  0  0  0  1  0  0  0  0  0  0
  194.5660  177.5800  145.7610 O   0  0  0  0  0  0  0  0  0  0  0  0
  1  3  1  0  0  0  0
  1 11  1  0  0  0  0
  2  3  2  0  0  0  0
  4  2  1  0  0  0  0
  4 37  1  6  0  0  0
  5  1  1  0  0  0  0
  6  5  1  0  0  0  0
  6  2  1  0  0  0  0
  7 15  1  1  0  0  0
  8  7  1  0  0  0  0
  8 10  2  0  0  0  0
  9 13  1  1  0  0  0
  9  7  1  0  0  0  0
 11 14  2  0  0  0  0
 11 12  1  0  0  0  0
 12  8  1  0  0  0  0
 14  9  1  0  0  0  0
 16 15  1  0  0  0  0
 17 20  1  0  0  0  0
 18 16  1  6  0  0  0
 18 20  1  0  0  0  0
 19 21  1  1  0  0  0
 19 18  1  0  0  0  0
 20 23  1  1  0  0  0
 22 19  1  0  0  0  0
 22 17  1  0  0  0  0
 24  4  1  0  0  0  0
 25 24  2  0  0  0  0
 26 25  1  0  0  0  0
 27 29  1  0  0  0  0
 28 32  1  0  0  0  0
 29 26  1  0  0  0  0
 30 28  1  0  0  0  0
 30 27  1  0  0  0  0
 31 29  1  0  0  0  0
 32 33  1  1  0  0  0
 32 31  1  0  0  0  0
 33 34  1  0  0  0  0
 35 33  2  0  0  0  0
 36 38  1  0  0  0  0
 37 36  2  0  0  0  0
 39 38  1  0  0  0  0
 39 40  1  0  0  0  0
 40 42  1  0  0  0  0
 40 41  1  1  0  0  0
 42 43  1  0  0  0  0
 43 44  1  0  0  0  0
 45 46  1  0  0  0  0
 45 44  1  1  0  0  0
 46 50  2  0  0  0  0
 48 45  1  0  0  0  0
 48 47  1  1  0  0  0
 48 46  1  0  0  0  0
 49 48  1  0  0  0  0
M  END
>  <MODEL>
9

>  <REMARK>
 VINA RESULT:      -5.7      4.542     10.452
  Name = 
  16 active torsions:
  status: ('A' for Active; 'I' for Inactive)
    1  A    between atoms: C_1  and  C_11
    2  A    between atoms: N_2  and  C_25
    3  A    between atoms: N_4  and  C_5
    4  A    between atoms: N_4  and  C_18
    5  A    between atoms: C_5  and  O_29
    6  A    between atoms: C_6  and  O_39
    7  A    between atoms: C_7  and  C_18
    8  A    between atoms: N_8  and  C_40
    9  A    between atoms: C_11  and  O_48
   10  A    between atoms: C_13  and  C_45
   11  A    between atoms: C_16  and  O_29
   12  A    between atoms: C_16  and  O_39
   13  A    between atoms: C_19  and  C_25
   14  A    between atoms: C_22  and  O_48
   15  A    between atoms: C_23  and  N_32
   16  A    between atoms: C_23  and  C_43
                            x       y       z     vdW  Elec       q    Type
                         _______ _______ _______ _____ _____    ______ ____

>  <TORSDO>
F 16

$$$$
