=
 OpenBabel11042416143D

 33 37  0  0  1  0  0  0  0  0999 V2000
  189.2190  177.5030  143.7200 C   0  0  0  0  0  2  0  0  0  0  0  0
  190.2400  174.9950  147.6760 N   0  0  0  0  0  0  0  0  0  0  0  0
  192.8080  176.6680  144.4660 C   0  0  0  0  0  3  0  0  0  0  0  0
  188.6090  175.9440  146.1760 C   0  0  1  0  0  3  0  0  0  0  0  0
  191.6820  177.3430  144.2450 C   0  0  0  0  0  3  0  0  0  0  0  0
  189.9950  176.1120  145.6120 C   0  0  0  0  0  0  0  0  0  0  0  0
  190.9200  175.4590  146.5310 C   0  0  0  0  0  0  0  0  0  0  0  0
  188.8060  175.1630  147.4870 C   0  0  0  0  0  3  0  0  0  0  0  0
  190.3070  176.8870  144.5460 C   0  0  0  0  0  0  0  0  0  0  0  0
  192.1780  175.0970  146.2880 C   0  0  0  0  0  3  0  0  0  0  0  0
  192.8430  175.2610  144.9610 C   0  0  2  0  0  3  0  0  0  0  0  0
  186.1800  178.6240  146.7390 O   0  0  0  0  0  1  0  0  0  0  0  0
  188.0320  177.2430  146.4930 N   0  0  0  0  0  2  0  0  0  0  0  0
  186.6270  177.4870  146.4380 C   0  0  0  0  0  0  0  0  0  0  0  0
  185.7500  176.4830  146.0480 O   0  0  0  0  0  0  0  0  0  0  0  0
  194.8130  175.7900  145.8220 C   0  0  0  0  0  1  0  0  0  0  0  0
  194.1680  174.8270  145.0450 O   0  0  0  0  0  0  0  0  0  0  0  0
  188.8810  176.6180  142.5350 C   0  0  1  0  0  3  0  0  0  0  0  0
  188.1690  175.5070  142.9460 C   0  0  1  0  0  3  0  0  0  0  0  0
  187.4020  176.6270  142.3240 N   0  0  0  0  0  0  0  0  0  0  0  0
  188.0350  174.9680  139.6900 O   0  0  0  0  0  1  0  0  0  0  0  0
  188.3040  174.3050  141.9900 C   0  0  1  0  0  3  0  0  0  0  0  0
  188.9930  174.5940  140.6310 C   0  0  1  0  0  3  0  0  0  0  0  0
  189.7690  173.3860  140.1150 C   0  0  0  0  0  2  0  0  0  0  0  0
  188.9040  173.1060  142.7350 C   0  0  0  0  0  2  0  0  0  0  0  0
  190.8510  172.9530  141.1120 C   0  0  0  0  0  2  0  0  0  0  0  0
  190.4230  173.0760  142.5820 C   0  0  0  0  0  2  0  0  0  0  0  0
  183.9810  178.0730  142.3280 C   0  0  0  0  0  3  0  0  0  0  0  0
  186.1960  177.2400  141.8820 C   0  0  0  0  0  0  0  0  0  0  0  0
  184.8610  178.2080  140.1260 C   0  0  0  0  0  3  0  0  0  0  0  0
  185.1560  177.4720  142.7840 C   0  0  0  0  0  3  0  0  0  0  0  0
  186.0520  177.6090  140.5430 C   0  0  0  0  0  3  0  0  0  0  0  0
  183.8580  178.4260  141.0200 N   0  0  0  0  0  0  0  0  0  0  0  0
  1  9  1  0  0  0  0
  3 11  1  0  0  0  0
  4 13  1  1  0  0  0
  4  8  1  0  0  0  0
  5  3  2  0  0  0  0
  5  9  1  0  0  0  0
  6  4  1  0  0  0  0
  6  7  1  0  0  0  0
  7  2  1  0  0  0  0
  8  2  2  0  0  0  0
  9  6  2  0  0  0  0
 10  7  2  0  0  0  0
 11 17  1  1  0  0  0
 11 10  1  0  0  0  0
 14 13  1  0  0  0  0
 14 12  1  0  0  0  0
 15 14  2  0  0  0  0
 17 16  1  0  0  0  0
 18 19  1  0  0  0  0
 18  1  1  1  0  0  0
 19 20  1  6  0  0  0
 20 18  1  0  0  0  0
 22 25  1  1  0  0  0
 22 19  1  0  0  0  0
 23 21  1  6  0  0  0
 23 22  1  0  0  0  0
 24 23  1  0  0  0  0
 24 26  1  0  0  0  0
 26 27  1  0  0  0  0
 27 25  1  0  0  0  0
 28 31  1  0  0  0  0
 29 20  1  0  0  0  0
 29 31  2  0  0  0  0
 30 32  2  0  0  0  0
 30 33  1  0  0  0  0
 32 29  1  0  0  0  0
 33 28  2  0  0  0  0
M  END
>  <MODEL>
1

>  <REMARK>
 VINA RESULT:      -7.7      0.000      0.000
  Name = 
  6 active torsions:
  status: ('A' for Active; 'I' for Inactive)
    1  A    between atoms: C_4  and  N_13
    2  A    between atoms: C_5  and  N_32
    3  A    between atoms: C_7  and  C_16
    4  A    between atoms: C_7  and  C_24
    5  A    between atoms: C_14  and  C_30
    6  A    between atoms: O_20  and  C_33
                            x       y       z     vdW  Elec       q    Type
                         _______ _______ _______ _____ _____    ______ ____

>  <TORSDO>
F 6

$$$$
=
 OpenBabel11042416143D

 33 37  0  0  1  0  0  0  0  0999 V2000
  188.8680  176.8230  143.9410 C   0  0  0  0  0  2  0  0  0  0  0  0
  185.3460  177.7650  147.0540 N   0  0  0  0  0  0  0  0  0  0  0  0
  185.3510  177.1710  142.6560 C   0  0  0  0  0  3  0  0  0  0  0  0
  187.6940  177.4720  146.5930 C   0  0  1  0  0  3  0  0  0  0  0  0
  186.5460  176.6700  142.9650 C   0  0  0  0  0  3  0  0  0  0  0  0
  186.9040  177.4390  145.3120 C   0  0  0  0  0  0  0  0  0  0  0  0
  185.5090  177.6900  145.6550 C   0  0  0  0  0  0  0  0  0  0  0  0
  186.6530  177.7450  147.6940 C   0  0  0  0  0  3  0  0  0  0  0  0
  187.3980  177.0620  144.1090 C   0  0  0  0  0  0  0  0  0  0  0  0
  184.5260  178.0500  144.8310 C   0  0  0  0  0  3  0  0  0  0  0  0
  184.7270  178.3180  143.3760 C   0  0  2  0  0  3  0  0  0  0  0  0
  190.1540  174.8880  147.4120 O   0  0  0  0  0  1  0  0  0  0  0  0
  188.3040  176.1740  146.8440 N   0  0  0  0  0  2  0  0  0  0  0  0
  189.6820  176.0330  147.1880 C   0  0  0  0  0  0  0  0  0  0  0  0
  190.5070  177.1470  147.2720 O   0  0  0  0  0  0  0  0  0  0  0  0
  183.6180  178.1980  141.4640 C   0  0  0  0  0  1  0  0  0  0  0  0
  183.5000  178.6300  142.7850 O   0  0  0  0  0  0  0  0  0  0  0  0
  189.1300  175.3980  143.4900 C   0  0  1  0  0  3  0  0  0  0  0  0
  189.8440  175.3880  142.3060 C   0  0  1  0  0  3  0  0  0  0  0  0
  190.5960  175.1220  143.5680 N   0  0  0  0  0  0  0  0  0  0  0  0
  191.4710  173.7280  139.9590 O   0  0  0  0  0  1  0  0  0  0  0  0
  189.6410  174.1020  141.4790 C   0  0  1  0  0  3  0  0  0  0  0  0
  190.9230  173.2900  141.1630 C   0  0  1  0  0  3  0  0  0  0  0  0
  190.6460  171.7920  141.0820 C   0  0  0  0  0  2  0  0  0  0  0  0
  188.5180  173.2550  142.0930 C   0  0  0  0  0  2  0  0  0  0  0  0
  190.0620  171.2620  142.3970 C   0  0  0  0  0  2  0  0  0  0  0  0
  189.0850  172.2330  143.0760 C   0  0  0  0  0  2  0  0  0  0  0  0
  193.2770  173.2650  145.3450 C   0  0  0  0  0  3  0  0  0  0  0  0
  191.7870  174.8380  144.2940 C   0  0  0  0  0  0  0  0  0  0  0  0
  193.8010  175.5810  145.3860 C   0  0  0  0  0  3  0  0  0  0  0  0
  192.1040  173.5210  144.6310 C   0  0  0  0  0  3  0  0  0  0  0  0
  192.6380  175.8780  144.6730 C   0  0  0  0  0  3  0  0  0  0  0  0
  194.0950  174.2910  145.7050 N   0  0  0  0  0  0  0  0  0  0  0  0
  1  9  1  0  0  0  0
  2  8  2  0  0  0  0
  3  5  2  0  0  0  0
  3 11  1  0  0  0  0
  4 13  1  1  0  0  0
  4  8  1  0  0  0  0
  5  9  1  0  0  0  0
  6  7  1  0  0  0  0
  6  4  1  0  0  0  0
  7  2  1  0  0  0  0
  9  6  2  0  0  0  0
 10  7  2  0  0  0  0
 11 17  1  6  0  0  0
 11 10  1  0  0  0  0
 13 14  1  0  0  0  0
 14 15  2  0  0  0  0
 14 12  1  0  0  0  0
 16 17  1  0  0  0  0
 18 20  1  0  0  0  0
 18  1  1  1  0  0  0
 19 18  1  0  0  0  0
 19 20  1  1  0  0  0
 20 29  1  0  0  0  0
 22 25  1  1  0  0  0
 22 19  1  0  0  0  0
 23 21  1  6  0  0  0
 23 22  1  0  0  0  0
 24 23  1  0  0  0  0
 24 26  1  0  0  0  0
 25 27  1  0  0  0  0
 26 27  1  0  0  0  0
 28 33  1  0  0  0  0
 29 31  1  0  0  0  0
 29 32  2  0  0  0  0
 30 33  2  0  0  0  0
 31 28  2  0  0  0  0
 32 30  1  0  0  0  0
M  END
>  <MODEL>
2

>  <REMARK>
 VINA RESULT:      -7.6      2.342      6.260
  Name = 
  6 active torsions:
  status: ('A' for Active; 'I' for Inactive)
    1  A    between atoms: C_4  and  N_13
    2  A    between atoms: C_5  and  N_32
    3  A    between atoms: C_7  and  C_16
    4  A    between atoms: C_7  and  C_24
    5  A    between atoms: C_14  and  C_30
    6  A    between atoms: O_20  and  C_33
                            x       y       z     vdW  Elec       q    Type
                         _______ _______ _______ _____ _____    ______ ____

>  <TORSDO>
F 6

$$$$
=
 OpenBabel11042416143D

 33 37  0  0  1  0  0  0  0  0999 V2000
  189.4040  177.3280  144.0740 C   0  0  0  0  0  2  0  0  0  0  0  0
  185.2390  177.2270  146.4450 N   0  0  0  0  0  0  0  0  0  0  0  0
  186.1960  177.3390  142.1130 C   0  0  0  0  0  3  0  0  0  0  0  0
  187.6450  177.3680  146.4690 C   0  0  1  0  0  3  0  0  0  0  0  0
  187.3790  176.9830  142.6080 C   0  0  0  0  0  3  0  0  0  0  0  0
  187.1350  177.4180  145.0540 C   0  0  0  0  0  0  0  0  0  0  0  0
  185.6780  177.3980  145.1150 C   0  0  0  0  0  0  0  0  0  0  0  0
  186.3800  177.3040  147.3440 C   0  0  0  0  0  3  0  0  0  0  0  0
  187.9110  177.3140  143.9480 C   0  0  0  0  0  0  0  0  0  0  0  0
  184.8240  177.7310  144.1490 C   0  0  0  0  0  3  0  0  0  0  0  0
  185.2490  178.2520  142.8160 C   0  0  2  0  0  3  0  0  0  0  0  0
  190.3240  175.0880  147.4800 O   0  0  0  0  0  0  0  0  0  0  0  0
  188.4190  176.1530  146.6840 N   0  0  0  0  0  2  0  0  0  0  0  0
  189.7060  176.1690  147.3020 C   0  0  0  0  0  0  0  0  0  0  0  0
  190.2830  177.3670  147.7020 O   0  0  0  0  0  1  0  0  0  0  0  0
  184.5730  178.2930  140.7080 C   0  0  0  0  0  1  0  0  0  0  0  0
  184.1220  178.4650  142.0170 O   0  0  0  0  0  0  0  0  0  0  0  0
  189.9750  175.9450  143.8210 C   0  0  1  0  0  3  0  0  0  0  0  0
  190.4950  175.8610  142.5430 C   0  0  1  0  0  3  0  0  0  0  0  0
  191.4580  176.0490  143.6680 N   0  0  0  0  0  0  0  0  0  0  0  0
  192.0470  173.0320  143.2480 O   0  0  0  0  0  1  0  0  0  0  0  0
  190.5340  174.4210  141.9910 C   0  0  1  0  0  3  0  0  0  0  0  0
  190.6930  173.2960  143.0460 C   0  0  1  0  0  3  0  0  0  0  0  0
  189.9820  172.0140  142.6260 C   0  0  0  0  0  2  0  0  0  0  0  0
  189.3580  174.1950  141.0310 C   0  0  0  0  0  2  0  0  0  0  0  0
  188.4820  172.2540  142.4140 C   0  0  0  0  0  2  0  0  0  0  0  0
  188.1570  173.6110  141.7720 C   0  0  0  0  0  2  0  0  0  0  0  0
  194.2440  176.7200  146.0310 C   0  0  0  0  0  3  0  0  0  0  0  0
  192.7700  176.2140  144.1950 C   0  0  0  0  0  0  0  0  0  0  0  0
  195.1610  176.1990  143.9020 C   0  0  0  0  0  3  0  0  0  0  0  0
  192.9480  176.5610  145.5350 C   0  0  0  0  0  3  0  0  0  0  0  0
  193.8810  176.0310  143.3690 C   0  0  0  0  0  3  0  0  0  0  0  0
  195.3150  176.5370  145.2120 N   0  0  0  0  0  0  0  0  0  0  0  0
  2  8  2  0  0  0  0
  3  5  2  0  0  0  0
  3 11  1  0  0  0  0
  4 13  1  6  0  0  0
  4  8  1  0  0  0  0
  5  9  1  0  0  0  0
  6  7  1  0  0  0  0
  6  4  1  0  0  0  0
  7  2  1  0  0  0  0
  9  1  1  0  0  0  0
  9  6  2  0  0  0  0
 10  7  2  0  0  0  0
 11 17  1  6  0  0  0
 11 10  1  0  0  0  0
 13 14  1  0  0  0  0
 14 12  2  0  0  0  0
 14 15  1  0  0  0  0
 16 17  1  0  0  0  0
 18  1  1  6  0  0  0
 19 20  1  1  0  0  0
 19 18  1  0  0  0  0
 20 18  1  0  0  0  0
 20 29  1  0  0  0  0
 22 25  1  1  0  0  0
 22 19  1  0  0  0  0
 22 23  1  0  0  0  0
 23 21  1  6  0  0  0
 24 23  1  0  0  0  0
 25 27  1  0  0  0  0
 26 24  1  0  0  0  0
 27 26  1  0  0  0  0
 29 31  2  0  0  0  0
 30 33  1  0  0  0  0
 31 28  1  0  0  0  0
 32 30  2  0  0  0  0
 32 29  1  0  0  0  0
 33 28  2  0  0  0  0
M  END
>  <MODEL>
3

>  <REMARK>
 VINA RESULT:      -7.6      2.354      6.327
  Name = 
  6 active torsions:
  status: ('A' for Active; 'I' for Inactive)
    1  A    between atoms: C_4  and  N_13
    2  A    between atoms: C_5  and  N_32
    3  A    between atoms: C_7  and  C_16
    4  A    between atoms: C_7  and  C_24
    5  A    between atoms: C_14  and  C_30
    6  A    between atoms: O_20  and  C_33
                            x       y       z     vdW  Elec       q    Type
                         _______ _______ _______ _____ _____    ______ ____

>  <TORSDO>
F 6

$$$$
=
 OpenBabel11042416143D

 33 37  0  0  1  0  0  0  0  0999 V2000
  189.0870  176.9810  143.9430 C   0  0  0  0  0  2  0  0  0  0  0  0
  185.2410  177.6260  146.7310 N   0  0  0  0  0  0  0  0  0  0  0  0
  185.6890  177.1450  142.3420 C   0  0  0  0  0  3  0  0  0  0  0  0
  187.6350  177.4900  146.4860 C   0  0  1  0  0  3  0  0  0  0  0  0
  186.8790  176.7110  142.7500 C   0  0  0  0  0  3  0  0  0  0  0  0
  186.9700  177.4400  145.1360 C   0  0  0  0  0  0  0  0  0  0  0  0
  185.5360  177.5960  145.3520 C   0  0  0  0  0  0  0  0  0  0  0  0
  186.4820  177.6690  147.4900 C   0  0  0  0  0  3  0  0  0  0  0  0
  187.5960  177.1260  143.9770 C   0  0  0  0  0  0  0  0  0  0  0  0
  184.6130  177.9160  144.4470 C   0  0  0  0  0  3  0  0  0  0  0  0
  184.9290  178.2330  143.0220 C   0  0  2  0  0  3  0  0  0  0  0  0
  190.1490  175.0430  147.5310 O   0  0  0  0  0  1  0  0  0  0  0  0
  188.3010  176.2250  146.7670 N   0  0  0  0  0  2  0  0  0  0  0  0
  189.6270  176.1620  147.2890 C   0  0  0  0  0  0  0  0  0  0  0  0
  190.3490  177.3240  147.5280 O   0  0  0  0  0  0  0  0  0  0  0  0
  184.0690  178.2890  140.9830 C   0  0  0  0  0  1  0  0  0  0  0  0
  183.7450  178.4840  142.3260 O   0  0  0  0  0  0  0  0  0  0  0  0
  189.4800  175.5250  143.7810 C   0  0  1  0  0  3  0  0  0  0  0  0
  190.1920  175.3410  142.6110 C   0  0  1  0  0  3  0  0  0  0  0  0
  190.9650  175.4040  143.8870 N   0  0  0  0  0  0  0  0  0  0  0  0
  187.8260  173.2140  141.7220 O   0  0  0  0  0  1  0  0  0  0  0  0
  190.1090  173.9020  142.0630 C   0  0  1  0  0  3  0  0  0  0  0  0
  188.9720  173.6290  141.0450 C   0  0  1  0  0  3  0  0  0  0  0  0
  189.3660  172.5740  140.0160 C   0  0  0  0  0  2  0  0  0  0  0  0
  191.4890  173.4470  141.5710 C   0  0  0  0  0  2  0  0  0  0  0  0
  190.6110  173.0010  139.2300 C   0  0  0  0  0  2  0  0  0  0  0  0
  191.6580  173.7370  140.0810 C   0  0  0  0  0  2  0  0  0  0  0  0
  193.9250  174.1640  145.7570 C   0  0  0  0  0  3  0  0  0  0  0  0
  192.1770  175.3820  144.6330 C   0  0  0  0  0  0  0  0  0  0  0  0
  193.9950  176.5380  145.7100 C   0  0  0  0  0  3  0  0  0  0  0  0
  192.7370  174.1640  145.0230 C   0  0  0  0  0  3  0  0  0  0  0  0
  192.8070  176.5800  144.9770 C   0  0  0  0  0  3  0  0  0  0  0  0
  194.5250  175.3410  146.0820 N   0  0  0  0  0  0  0  0  0  0  0  0
  1  9  1  0  0  0  0
  2  8  2  0  0  0  0
  3  5  2  0  0  0  0
  3 11  1  0  0  0  0
  4 13  1  1  0  0  0
  4  8  1  0  0  0  0
  5  9  1  0  0  0  0
  6  7  1  0  0  0  0
  6  4  1  0  0  0  0
  7  2  1  0  0  0  0
  9  6  2  0  0  0  0
 10  7  2  0  0  0  0
 11 17  1  6  0  0  0
 11 10  1  0  0  0  0
 13 14  1  0  0  0  0
 14 15  2  0  0  0  0
 14 12  1  0  0  0  0
 16 17  1  0  0  0  0
 18 20  1  0  0  0  0
 18  1  1  6  0  0  0
 19 18  1  0  0  0  0
 19 20  1  1  0  0  0
 20 29  1  0  0  0  0
 22 25  1  6  0  0  0
 22 19  1  0  0  0  0
 23 21  1  1  0  0  0
 23 22  1  0  0  0  0
 24 23  1  0  0  0  0
 26 24  1  0  0  0  0
 26 27  1  0  0  0  0
 27 25  1  0  0  0  0
 28 33  1  0  0  0  0
 29 32  2  0  0  0  0
 29 31  1  0  0  0  0
 30 33  2  0  0  0  0
 31 28  2  0  0  0  0
 32 30  1  0  0  0  0
M  END
>  <MODEL>
4

>  <REMARK>
 VINA RESULT:      -7.5      2.274      6.283
  Name = 
  6 active torsions:
  status: ('A' for Active; 'I' for Inactive)
    1  A    between atoms: C_4  and  N_13
    2  A    between atoms: C_5  and  N_32
    3  A    between atoms: C_7  and  C_16
    4  A    between atoms: C_7  and  C_24
    5  A    between atoms: C_14  and  C_30
    6  A    between atoms: O_20  and  C_33
                            x       y       z     vdW  Elec       q    Type
                         _______ _______ _______ _____ _____    ______ ____

>  <TORSDO>
F 6

$$$$
=
 OpenBabel11042416143D

 33 37  0  0  1  0  0  0  0  0999 V2000
  187.5300  175.5230  143.4190 C   0  0  0  0  0  2  0  0  0  0  0  0
  184.4850  179.1710  144.0450 N   0  0  0  0  0  0  0  0  0  0  0  0
  187.5670  177.3800  146.6880 C   0  0  0  0  0  3  0  0  0  0  0  0
  185.2910  177.3400  142.7020 C   0  0  1  0  0  3  0  0  0  0  0  0
  187.9340  176.8680  145.5150 C   0  0  0  0  0  3  0  0  0  0  0  0
  185.9760  177.3430  144.0410 C   0  0  0  0  0  0  0  0  0  0  0  0
  185.3960  178.4280  144.8250 C   0  0  0  0  0  0  0  0  0  0  0  0
  184.2880  178.5060  142.7660 C   0  0  0  0  0  2  0  0  0  0  0  0
  187.0530  176.5860  144.3610 C   0  0  0  0  0  0  0  0  0  0  0  0
  185.4720  178.6040  146.1420 C   0  0  0  0  0  2  0  0  0  0  0  0
  186.1480  177.6440  147.0650 C   0  0  2  0  0  3  0  0  0  0  0  0
  186.7380  177.9570  139.3960 O   0  0  0  0  0  0  0  0  0  0  0  0
  186.2520  177.6140  141.6420 N   0  0  0  0  0  2  0  0  0  0  0  0
  185.8700  177.7000  140.2700 C   0  0  0  0  0  0  0  0  0  0  0  0
  184.5490  177.4980  139.8890 O   0  0  0  0  0  1  0  0  0  0  0  0
  186.9580  179.2310  148.3790 C   0  0  0  0  0  1  0  0  0  0  0  0
  186.0940  178.1350  148.3720 O   0  0  0  0  0  0  0  0  0  0  0  0
  189.0310  175.6180  143.2210 C   0  0  1  0  0  3  0  0  0  0  0  0
  189.6520  174.4600  143.6490 C   0  0  1  0  0  3  0  0  0  0  0  0
  189.4510  174.6320  142.1800 N   0  0  0  0  0  0  0  0  0  0  0  0
  192.2400  176.2090  142.5740 O   0  0  0  0  0  1  0  0  0  0  0  0
  191.1260  174.6680  144.0530 C   0  0  1  0  0  3  0  0  0  0  0  0
  191.6880  176.0990  143.8500 C   0  0  1  0  0  3  0  0  0  0  0  0
  192.7430  176.4520  144.8930 C   0  0  0  0  0  2  0  0  0  0  0  0
  191.3680  174.1130  145.4630 C   0  0  0  0  0  2  0  0  0  0  0  0
  192.1710  176.3670  146.3140 C   0  0  0  0  0  2  0  0  0  0  0  0
  191.1870  175.2050  146.5150 C   0  0  0  0  0  2  0  0  0  0  0  0
  190.8330  173.2050  139.0420 C   0  0  0  0  0  3  0  0  0  0  0  0
  189.5590  174.1960  140.8290 C   0  0  0  0  0  0  0  0  0  0  0  0
  188.6010  173.9090  138.6380 C   0  0  0  0  0  3  0  0  0  0  0  0
  190.7470  173.6240  140.3720 C   0  0  0  0  0  3  0  0  0  0  0  0
  188.4760  174.3420  139.9600 C   0  0  0  0  0  3  0  0  0  0  0  0
  189.7680  173.3540  138.2090 N   0  0  0  0  0  0  0  0  0  0  0  0
  1  9  1  0  0  0  0
  2  7  2  0  0  0  0
  3 11  1  0  0  0  0
  4 13  1  6  0  0  0
  4  8  1  0  0  0  0
  4  6  1  0  0  0  0
  5  3  2  0  0  0  0
  6  9  2  0  0  0  0
  6  7  1  0  0  0  0
  7 10  1  0  0  0  0
  8  2  1  0  0  0  0
  9  5  1  0  0  0  0
 10 11  1  0  0  0  0
 11 17  1  1  0  0  0
 12 14  2  0  0  0  0
 14 13  1  0  0  0  0
 15 14  1  0  0  0  0
 17 16  1  0  0  0  0
 18  1  1  1  0  0  0
 18 19  1  0  0  0  0
 19 20  1  6  0  0  0
 19 22  1  0  0  0  0
 20 18  1  0  0  0  0
 22 25  1  1  0  0  0
 23 21  1  6  0  0  0
 23 22  1  0  0  0  0
 23 24  1  0  0  0  0
 24 26  1  0  0  0  0
 25 27  1  0  0  0  0
 26 27  1  0  0  0  0
 28 31  1  0  0  0  0
 29 20  1  0  0  0  0
 30 32  2  0  0  0  0
 31 29  2  0  0  0  0
 32 29  1  0  0  0  0
 33 30  1  0  0  0  0
 33 28  2  0  0  0  0
M  END
>  <MODEL>
5

>  <REMARK>
 VINA RESULT:      -7.3      2.109      5.971
  Name = 
  6 active torsions:
  status: ('A' for Active; 'I' for Inactive)
    1  A    between atoms: C_4  and  N_13
    2  A    between atoms: C_5  and  N_32
    3  A    between atoms: C_7  and  C_16
    4  A    between atoms: C_7  and  C_24
    5  A    between atoms: C_14  and  C_30
    6  A    between atoms: O_20  and  C_33
                            x       y       z     vdW  Elec       q    Type
                         _______ _______ _______ _____ _____    ______ ____

>  <TORSDO>
F 6

$$$$
=
 OpenBabel11042416143D

 33 37  0  0  1  0  0  0  0  0999 V2000
  191.0580  177.7160  144.2900 C   0  0  0  0  0  2  0  0  0  0  0  0
  186.6280  176.9410  145.9500 N   0  0  0  0  0  0  0  0  0  0  0  0
  188.1850  177.7070  141.8650 C   0  0  0  0  0  3  0  0  0  0  0  0
  188.9770  177.2860  146.3670 C   0  0  1  0  0  3  0  0  0  0  0  0
  189.3150  177.3920  142.4940 C   0  0  0  0  0  3  0  0  0  0  0  0
  188.6750  177.4780  144.9050 C   0  0  0  0  0  0  0  0  0  0  0  0
  187.2350  177.3230  144.7350 C   0  0  0  0  0  0  0  0  0  0  0  0
  187.6130  176.9970  147.0200 C   0  0  0  0  0  3  0  0  0  0  0  0
  189.6090  177.5880  143.9310 C   0  0  0  0  0  0  0  0  0  0  0  0
  186.4990  177.7050  143.6930 C   0  0  0  0  0  3  0  0  0  0  0  0
  187.0540  178.4330  142.5120 C   0  0  2  0  0  3  0  0  0  0  0  0
  191.5680  175.0580  147.6790 O   0  0  0  0  0  0  0  0  0  0  0  0
  189.8360  176.1250  146.5580 N   0  0  0  0  0  2  0  0  0  0  0  0
  190.8660  176.0930  147.5450 C   0  0  0  0  0  0  0  0  0  0  0  0
  191.1040  177.1970  148.3550 O   0  0  0  0  0  1  0  0  0  0  0  0
  184.8650  178.2750  142.2300 C   0  0  0  0  0  1  0  0  0  0  0  0
  186.0400  178.6500  141.5780 O   0  0  0  0  0  0  0  0  0  0  0  0
  191.9130  176.8560  143.3770 C   0  0  1  0  0  3  0  0  0  0  0  0
  192.8710  176.1770  144.1070 C   0  0  1  0  0  3  0  0  0  0  0  0
  191.6580  175.4160  143.6820 N   0  0  0  0  0  0  0  0  0  0  0  0
  196.0380  177.0910  143.9010 O   0  0  0  0  0  1  0  0  0  0  0  0
  194.1110  175.7880  143.2770 C   0  0  1  0  0  3  0  0  0  0  0  0
  195.4670  175.8260  144.0280 C   0  0  1  0  0  3  0  0  0  0  0  0
  196.4400  174.7730  143.5050 C   0  0  0  0  0  2  0  0  0  0  0  0
  193.8570  174.4650  142.5430 C   0  0  0  0  0  2  0  0  0  0  0  0
  195.8600  173.3600  143.6470 C   0  0  0  0  0  2  0  0  0  0  0  0
  194.3510  173.2810  143.3710 C   0  0  0  0  0  2  0  0  0  0  0  0
  189.9740  172.2510  144.6540 C   0  0  0  0  0  3  0  0  0  0  0  0
  190.8630  174.2370  143.6210 C   0  0  0  0  0  0  0  0  0  0  0  0
  189.4140  172.7500  142.4000 C   0  0  0  0  0  3  0  0  0  0  0  0
  190.7580  173.4050  144.7360 C   0  0  0  0  0  3  0  0  0  0  0  0
  190.1880  173.9110  142.4420 C   0  0  0  0  0  3  0  0  0  0  0  0
  189.3230  171.9500  143.4970 N   0  0  0  0  0  0  0  0  0  0  0  0
  2  8  2  0  0  0  0
  3  5  2  0  0  0  0
  3 11  1  0  0  0  0
  4 13  1  6  0  0  0
  4  8  1  0  0  0  0
  5  9  1  0  0  0  0
  6  4  1  0  0  0  0
  7  6  1  0  0  0  0
  7  2  1  0  0  0  0
  9  1  1  0  0  0  0
  9  6  2  0  0  0  0
 10  7  2  0  0  0  0
 11 17  1  6  0  0  0
 11 10  1  0  0  0  0
 13 14  1  0  0  0  0
 14 12  2  0  0  0  0
 14 15  1  0  0  0  0
 17 16  1  0  0  0  0
 18 20  1  0  0  0  0
 18 19  1  0  0  0  0
 18  1  1  1  0  0  0
 19 20  1  6  0  0  0
 22 25  1  1  0  0  0
 22 23  1  0  0  0  0
 22 19  1  0  0  0  0
 23 21  1  6  0  0  0
 24 26  1  0  0  0  0
 24 23  1  0  0  0  0
 25 27  1  0  0  0  0
 27 26  1  0  0  0  0
 28 31  1  0  0  0  0
 29 20  1  0  0  0  0
 29 31  2  0  0  0  0
 30 32  2  0  0  0  0
 30 33  1  0  0  0  0
 32 29  1  0  0  0  0
 33 28  2  0  0  0  0
M  END
>  <MODEL>
6

>  <REMARK>
 VINA RESULT:      -7.1      2.464      6.025
  Name = 
  6 active torsions:
  status: ('A' for Active; 'I' for Inactive)
    1  A    between atoms: C_4  and  N_13
    2  A    between atoms: C_5  and  N_32
    3  A    between atoms: C_7  and  C_16
    4  A    between atoms: C_7  and  C_24
    5  A    between atoms: C_14  and  C_30
    6  A    between atoms: O_20  and  C_33
                            x       y       z     vdW  Elec       q    Type
                         _______ _______ _______ _____ _____    ______ ____

>  <TORSDO>
F 6

$$$$
=
 OpenBabel11042416143D

 33 37  0  0  1  0  0  0  0  0999 V2000
  188.0750  175.2240  143.4510 C   0  0  0  0  0  2  0  0  0  0  0  0
  192.7540  174.3410  142.9000 N   0  0  0  0  0  0  0  0  0  0  0  0
  190.2850  175.1700  146.4930 C   0  0  0  0  0  3  0  0  0  0  0  0
  190.5820  174.7330  141.9330 C   0  0  1  0  0  3  0  0  0  0  0  0
  189.3300  174.8750  145.6120 C   0  0  0  0  0  3  0  0  0  0  0  0
  190.5300  174.9290  143.4240 C   0  0  0  0  0  0  0  0  0  0  0  0
  191.8840  174.7450  143.9340 C   0  0  0  0  0  0  0  0  0  0  0  0
  192.0550  174.4100  141.6260 C   0  0  0  0  0  2  0  0  0  0  0  0
  189.3930  175.0680  144.1460 C   0  0  0  0  0  0  0  0  0  0  0  0
  192.3580  175.1180  145.1210 C   0  0  0  0  0  2  0  0  0  0  0  0
  191.5530  175.8660  146.1330 C   0  0  2  0  0  3  0  0  0  0  0  0
  188.0660  172.6670  140.2590 O   0  0  0  0  0  1  0  0  0  0  0  0
  189.7660  173.5900  141.5440 N   0  0  0  0  0  2  0  0  0  0  0  0
  188.7290  173.6910  140.5710 C   0  0  0  0  0  0  0  0  0  0  0  0
  188.4400  174.9080  139.9670 O   0  0  0  0  0  0  0  0  0  0  0  0
  193.5860  176.4210  146.8130 C   0  0  0  0  0  1  0  0  0  0  0  0
  192.3200  176.0680  147.2830 O   0  0  0  0  0  0  0  0  0  0  0  0
  187.1840  176.1930  144.2060 C   0  0  1  0  0  3  0  0  0  0  0  0
  187.7300  177.4630  144.1950 C   0  0  1  0  0  3  0  0  0  0  0  0
  186.6130  177.1830  143.2440 N   0  0  0  0  0  0  0  0  0  0  0  0
  185.7910  180.0980  144.6540 O   0  0  0  0  0  1  0  0  0  0  0  0
  187.2670  178.3380  145.3780 C   0  0  1  0  0  3  0  0  0  0  0  0
  185.8110  178.8640  145.3030 C   0  0  1  0  0  3  0  0  0  0  0  0
  185.1820  179.0060  146.6850 C   0  0  0  0  0  2  0  0  0  0  0  0
  187.5970  177.6440  146.7050 C   0  0  0  0  0  2  0  0  0  0  0  0
  185.1630  177.6650  147.4280 C   0  0  0  0  0  2  0  0  0  0  0  0
  186.4150  176.8070  147.1890 C   0  0  0  0  0  2  0  0  0  0  0  0
  185.2280  177.9350  139.8800 C   0  0  0  0  0  3  0  0  0  0  0  0
  185.7100  177.5580  142.2100 C   0  0  0  0  0  0  0  0  0  0  0  0
  183.5290  178.2940  141.5010 C   0  0  0  0  0  3  0  0  0  0  0  0
  186.1300  177.5600  140.8790 C   0  0  0  0  0  3  0  0  0  0  0  0
  184.4010  177.9270  142.5280 C   0  0  0  0  0  3  0  0  0  0  0  0
  183.9560  178.2900  140.2080 N   0  0  0  0  0  0  0  0  0  0  0  0
  1  9  1  0  0  0  0
  2  7  2  0  0  0  0
  4 13  1  1  0  0  0
  4  6  1  0  0  0  0
  5  3  2  0  0  0  0
  6  7  1  0  0  0  0
  6  9  2  0  0  0  0
  7 10  1  0  0  0  0
  8  4  1  0  0  0  0
  8  2  1  0  0  0  0
  9  5  1  0  0  0  0
 10 11  1  0  0  0  0
 11  3  1  0  0  0  0
 11 17  1  1  0  0  0
 12 14  1  0  0  0  0
 14 13  1  0  0  0  0
 15 14  2  0  0  0  0
 16 17  1  0  0  0  0
 18  1  1  6  0  0  0
 19 20  1  6  0  0  0
 19 18  1  0  0  0  0
 19 22  1  0  0  0  0
 20 18  1  0  0  0  0
 22 25  1  1  0  0  0
 23 21  1  1  0  0  0
 23 22  1  0  0  0  0
 23 24  1  0  0  0  0
 24 26  1  0  0  0  0
 25 27  1  0  0  0  0
 27 26  1  0  0  0  0
 28 33  2  0  0  0  0
 28 31  1  0  0  0  0
 29 32  1  0  0  0  0
 29 20  1  0  0  0  0
 30 32  2  0  0  0  0
 31 29  2  0  0  0  0
 33 30  1  0  0  0  0
M  END
>  <MODEL>
7

>  <REMARK>
 VINA RESULT:      -7.1      1.962      5.048
  Name = 
  6 active torsions:
  status: ('A' for Active; 'I' for Inactive)
    1  A    between atoms: C_4  and  N_13
    2  A    between atoms: C_5  and  N_32
    3  A    between atoms: C_7  and  C_16
    4  A    between atoms: C_7  and  C_24
    5  A    between atoms: C_14  and  C_30
    6  A    between atoms: O_20  and  C_33
                            x       y       z     vdW  Elec       q    Type
                         _______ _______ _______ _____ _____    ______ ____

>  <TORSDO>
F 6

$$$$
=
 OpenBabel11042416143D

 33 37  0  0  1  0  0  0  0  0999 V2000
  188.4060  175.2200  143.7230 C   0  0  0  0  0  2  0  0  0  0  0  0
  193.0720  174.7480  142.7310 N   0  0  0  0  0  0  0  0  0  0  0  0
  190.9050  175.6270  146.5030 C   0  0  0  0  0  3  0  0  0  0  0  0
  190.7850  174.8500  141.9790 C   0  0  1  0  0  3  0  0  0  0  0  0
  189.9020  175.1720  145.7540 C   0  0  0  0  0  3  0  0  0  0  0  0
  190.8630  175.1610  143.4500 C   0  0  0  0  0  0  0  0  0  0  0  0
  192.2730  175.1500  143.8220 C   0  0  0  0  0  0  0  0  0  0  0  0
  192.2450  174.6460  141.5380 C   0  0  0  0  0  2  0  0  0  0  0  0
  189.7960  175.2480  144.2800 C   0  0  0  0  0  0  0  0  0  0  0  0
  192.8230  175.6630  144.9210 C   0  0  0  0  0  2  0  0  0  0  0  0
  192.0510  176.4110  145.9580 C   0  0  2  0  0  3  0  0  0  0  0  0
  188.4030  172.3990  140.6700 O   0  0  0  0  0  1  0  0  0  0  0  0
  190.0580  173.6060  141.7640 N   0  0  0  0  0  2  0  0  0  0  0  0
  188.9850  173.5020  140.8290 C   0  0  0  0  0  0  0  0  0  0  0  0
  188.5750  174.6090  140.0970 O   0  0  0  0  0  0  0  0  0  0  0  0
  194.1900  176.5250  146.5200 C   0  0  0  0  0  1  0  0  0  0  0  0
  192.9050  176.7790  147.0010 O   0  0  0  0  0  0  0  0  0  0  0  0
  187.9250  176.6260  143.4140 C   0  0  1  0  0  3  0  0  0  0  0  0
  186.6000  176.6090  143.0200 C   0  0  1  0  0  3  0  0  0  0  0  0
  186.8970  177.0230  144.4230 N   0  0  0  0  0  0  0  0  0  0  0  0
  187.0650  177.5870  139.8990 O   0  0  0  0  0  1  0  0  0  0  0  0
  186.2080  177.8130  142.1390 C   0  0  1  0  0  3  0  0  0  0  0  0
  185.8970  177.4930  140.6540 C   0  0  1  0  0  3  0  0  0  0  0  0
  184.8400  178.4290  140.0770 C   0  0  0  0  0  2  0  0  0  0  0  0
  185.1110  178.6340  142.8280 C   0  0  0  0  0  2  0  0  0  0  0  0
  183.5270  178.3410  140.8650 C   0  0  0  0  0  2  0  0  0  0  0  0
  183.7260  178.1750  142.3790 C   0  0  0  0  0  2  0  0  0  0  0  0
  186.2080  177.0160  148.0730 C   0  0  0  0  0  3  0  0  0  0  0  0
  186.5090  177.4520  145.7230 C   0  0  0  0  0  0  0  0  0  0  0  0
  185.6580  179.1550  147.1990 C   0  0  0  0  0  3  0  0  0  0  0  0
  186.5970  176.5750  146.8060 C   0  0  0  0  0  3  0  0  0  0  0  0
  186.0370  178.7520  145.9170 C   0  0  0  0  0  3  0  0  0  0  0  0
  185.7510  178.2860  148.2430 N   0  0  0  0  0  0  0  0  0  0  0  0
  1  9  1  0  0  0  0
  2  7  2  0  0  0  0
  4 13  1  1  0  0  0
  4  6  1  0  0  0  0
  5  3  2  0  0  0  0
  6  7  1  0  0  0  0
  6  9  2  0  0  0  0
  7 10  1  0  0  0  0
  8  4  1  0  0  0  0
  8  2  1  0  0  0  0
  9  5  1  0  0  0  0
 10 11  1  0  0  0  0
 11  3  1  0  0  0  0
 11 17  1  1  0  0  0
 12 14  1  0  0  0  0
 14 13  1  0  0  0  0
 15 14  2  0  0  0  0
 16 17  1  0  0  0  0
 18  1  1  1  0  0  0
 18 20  1  0  0  0  0
 19 18  1  0  0  0  0
 19 20  1  1  0  0  0
 20 29  1  0  0  0  0
 22 25  1  1  0  0  0
 22 19  1  0  0  0  0
 23 21  1  6  0  0  0
 23 22  1  0  0  0  0
 24 23  1  0  0  0  0
 24 26  1  0  0  0  0
 26 27  1  0  0  0  0
 27 25  1  0  0  0  0
 28 33  1  0  0  0  0
 29 32  2  0  0  0  0
 29 31  1  0  0  0  0
 30 33  2  0  0  0  0
 31 28  2  0  0  0  0
 32 30  1  0  0  0  0
M  END
>  <MODEL>
8

>  <REMARK>
 VINA RESULT:      -7.0      2.468      5.208
  Name = 
  6 active torsions:
  status: ('A' for Active; 'I' for Inactive)
    1  A    between atoms: C_4  and  N_13
    2  A    between atoms: C_5  and  N_32
    3  A    between atoms: C_7  and  C_16
    4  A    between atoms: C_7  and  C_24
    5  A    between atoms: C_14  and  C_30
    6  A    between atoms: O_20  and  C_33
                            x       y       z     vdW  Elec       q    Type
                         _______ _______ _______ _____ _____    ______ ____

>  <TORSDO>
F 6

$$$$
=
 OpenBabel11042416143D

 33 37  0  0  1  0  0  0  0  0999 V2000
  189.7930  173.6230  144.1530 C   0  0  0  0  0  2  0  0  0  0  0  0
  193.8210  174.9230  146.4030 N   0  0  0  0  0  0  0  0  0  0  0  0
  189.5420  175.7420  147.2490 C   0  0  0  0  0  3  0  0  0  0  0  0
  192.7310  173.8560  144.5370 C   0  0  1  0  0  3  0  0  0  0  0  0
  189.4250  174.7310  146.3900 C   0  0  0  0  0  3  0  0  0  0  0  0
  191.7140  174.5360  145.4140 C   0  0  0  0  0  0  0  0  0  0  0  0
  192.4430  175.2160  146.4790 C   0  0  0  0  0  0  0  0  0  0  0  0
  194.0910  174.1800  145.1810 C   0  0  0  0  0  2  0  0  0  0  0  0
  190.3730  174.3760  145.3110 C   0  0  0  0  0  0  0  0  0  0  0  0
  191.9900  176.1760  147.2830 C   0  0  0  0  0  2  0  0  0  0  0  0
  190.6230  176.7670  147.1750 C   0  0  2  0  0  3  0  0  0  0  0  0
  192.5970  170.3460  143.5070 O   0  0  0  0  0  1  0  0  0  0  0  0
  192.5370  172.4120  144.5660 N   0  0  0  0  0  2  0  0  0  0  0  0
  192.7620  171.5900  143.4220 C   0  0  0  0  0  0  0  0  0  0  0  0
  193.1570  172.1520  142.2140 O   0  0  0  0  0  0  0  0  0  0  0  0
  191.5490  177.5640  149.0200 C   0  0  0  0  0  1  0  0  0  0  0  0
  190.4410  177.7130  148.1850 O   0  0  0  0  0  0  0  0  0  0  0  0
  188.9890  174.5500  143.2600 C   0  0  1  0  0  3  0  0  0  0  0  0
  189.7860  175.5750  142.7830 C   0  0  1  0  0  3  0  0  0  0  0  0
  189.4940  174.4390  141.8590 N   0  0  0  0  0  0  0  0  0  0  0  0
  187.4350  176.4050  140.6150 O   0  0  0  0  0  1  0  0  0  0  0  0
  188.9920  176.8400  142.4020 C   0  0  1  0  0  3  0  0  0  0  0  0
  187.5140  176.6150  141.9910 C   0  0  1  0  0  3  0  0  0  0  0  0
  186.6270  177.7950  142.3780 C   0  0  0  0  0  2  0  0  0  0  0  0
  189.1670  177.9160  143.4810 C   0  0  0  0  0  2  0  0  0  0  0  0
  186.6640  178.0470  143.8900 C   0  0  0  0  0  2  0  0  0  0  0  0
  188.0500  177.8320  144.5190 C   0  0  0  0  0  2  0  0  0  0  0  0
  190.9510  172.9820  138.7680 C   0  0  0  0  0  3  0  0  0  0  0  0
  189.6130  173.7610  140.6120 C   0  0  0  0  0  0  0  0  0  0  0  0
  188.6150  172.5490  138.7850 C   0  0  0  0  0  3  0  0  0  0  0  0
  190.8580  173.6480  139.9920 C   0  0  0  0  0  3  0  0  0  0  0  0
  188.4810  173.2090  140.0090 C   0  0  0  0  0  3  0  0  0  0  0  0
  189.8370  172.4490  138.1950 N   0  0  0  0  0  0  0  0  0  0  0  0
  1  9  1  0  0  0  0
  2  7  2  0  0  0  0
  4 13  1  1  0  0  0
  4  8  1  0  0  0  0
  4  6  1  0  0  0  0
  5  3  2  0  0  0  0
  6  7  1  0  0  0  0
  7 10  1  0  0  0  0
  8  2  1  0  0  0  0
  9  6  2  0  0  0  0
  9  5  1  0  0  0  0
 11  3  1  0  0  0  0
 11 10  1  0  0  0  0
 11 17  1  1  0  0  0
 14 12  1  0  0  0  0
 14 13  1  0  0  0  0
 15 14  2  0  0  0  0
 17 16  1  0  0  0  0
 18  1  1  1  0  0  0
 19 20  1  6  0  0  0
 19 18  1  0  0  0  0
 20 18  1  0  0  0  0
 22 19  1  0  0  0  0
 22 25  1  1  0  0  0
 23 21  1  6  0  0  0
 23 24  1  0  0  0  0
 23 22  1  0  0  0  0
 24 26  1  0  0  0  0
 25 27  1  0  0  0  0
 26 27  1  0  0  0  0
 28 31  1  0  0  0  0
 29 20  1  0  0  0  0
 30 32  2  0  0  0  0
 31 29  2  0  0  0  0
 32 29  1  0  0  0  0
 33 28  2  0  0  0  0
 33 30  1  0  0  0  0
M  END
>  <MODEL>
9

>  <REMARK>
 VINA RESULT:      -6.9      2.720      5.624
  Name = 
  6 active torsions:
  status: ('A' for Active; 'I' for Inactive)
    1  A    between atoms: C_4  and  N_13
    2  A    between atoms: C_5  and  N_32
    3  A    between atoms: C_7  and  C_16
    4  A    between atoms: C_7  and  C_24
    5  A    between atoms: C_14  and  C_30
    6  A    between atoms: O_20  and  C_33
                            x       y       z     vdW  Elec       q    Type
                         _______ _______ _______ _____ _____    ______ ____

>  <TORSDO>
F 6

$$$$
