=
 OpenBabel11042418103D

 40 45  0  0  1  0  0  0  0  0999 V2000
  190.8180  174.8900  145.1360 N   0  0  0  0  0  0  0  0  0  0  0  0
  192.9970  173.7830  145.3150 C   0  0  0  0  0  0  0  0  0  0  0  0
  189.3740  175.3550  143.2660 N   0  0  1  0  0  0  0  0  0  0  0  0
  187.5050  176.9390  143.7460 C   0  0  1  0  0  3  0  0  0  0  0  0
  194.4040  170.8520  143.4040 C   0  0  0  0  0  1  0  0  0  0  0  0
  189.7520  175.7520  144.5980 C   0  0  2  0  0  0  0  0  0  0  0  0
  193.4800  171.9210  143.8650 C   0  0  0  0  0  0  0  0  0  0  0  0
  188.9310  173.9540  143.1730 C   0  0  2  0  0  3  0  0  0  0  0  0
  188.5130  176.4540  142.7820 C   0  0  1  0  0  3  0  0  0  0  0  0
  192.2570  172.0560  143.2850 N   0  0  0  0  0  0  0  0  0  0  0  0
  190.0950  173.0710  142.9740 N   0  0  0  0  0  2  0  0  0  0  0  0
  193.8700  172.7800  144.8910 C   0  0  0  0  0  3  0  0  0  0  0  0
  189.6920  177.2350  144.7170 C   0  0  0  0  0  2  0  0  0  0  0  0
  191.3690  173.0140  143.6680 C   0  0  0  0  0  0  0  0  0  0  0  0
  188.7950  177.6570  143.6210 N   0  0  2  0  0  0  0  0  0  0  0  0
  189.4310  175.0320  145.7140 C   0  0  0  0  0  2  0  0  0  0  0  0
  191.7390  173.9050  144.7060 C   0  0  0  0  0  0  0  0  0  0  0  0
  186.2220  177.8500  142.9040 S   0  0  0  0  0  0  0  0  0  0  0  0
  186.7010  179.2210  142.5100 O   0  0  0  0  0  0  0  0  0  0  0  0
  185.8150  177.0950  141.6710 O   0  0  0  0  0  0  0  0  0  0  0  0
  184.8170  177.9980  143.9890 C   0  0  2  0  0  3  0  0  0  0  0  0
  183.6980  178.3320  143.2480 F   0  0  0  0  0  0  0  0  0  0  0  0
  185.0850  179.0680  145.0350 C   0  0  0  0  0  2  0  0  0  0  0  0
  185.9200  178.9210  147.3560 C   0  0  0  0  0  0  0  0  0  0  0  0
  186.0870  180.0850  147.8060 O   0  0  0  0  0  0  0  0  0  0  0  0
  184.8220  178.5430  146.4390 C   0  0  2  0  0  3  0  0  0  0  0  0
  186.2530  176.6410  147.0880 C   0  0  0  0  0  2  0  0  0  0  0  0
  184.9260  177.0190  146.4180 C   0  0  0  0  0  2  0  0  0  0  0  0
  186.7440  177.8420  147.7340 N   0  0  0  0  0  2  0  0  0  0  0  0
  188.5610  173.2550  140.7680 C   0  0  0  0  0  1  0  0  0  0  0  0
  187.9050  173.7170  142.0600 C   0  0  0  0  0  2  0  0  0  0  0  0
  193.4180  174.6950  146.4200 C   0  0  0  0  0  2  0  0  0  0  0  0
  194.6910  175.4250  146.0440 C   0  0  0  0  0  2  0  0  0  0  0  0
  194.3640  176.5670  145.2080 N   0  0  0  0  0  2  0  0  0  0  0  0
  195.1010  176.4120  143.9640 C   0  0  2  0  0  3  0  0  0  0  0  0
  193.0290  176.4910  142.7900 O   0  0  0  0  0  1  0  0  0  0  0  0
  194.5560  174.9850  141.9790 O   0  0  0  0  0  0  0  0  0  0  0  0
  194.1700  175.9680  142.8830 C   0  0  0  0  0  0  0  0  0  0  0  0
  196.2270  175.4040  144.1550 C   0  0  0  0  0  2  0  0  0  0  0  0
  197.4120  175.8400  143.4360 N   0  0  0  0  0  1  0  0  0  0  0  0
  1 16  1  0  0  0  0
  2 32  1  0  0  0  0
  3  6  1  0  0  0  0
  5  7  1  0  0  0  0
  6 13  1  0  0  0  0
  6  1  1  0  0  0  0
  6 16  1  0  0  0  0
  7 12  2  0  0  0  0
  8  3  1  0  0  0  0
  9  3  1  0  0  0  0
  9 15  1  0  0  0  0
  9  4  1  0  0  0  0
 10 14  2  0  0  0  0
 10  7  1  0  0  0  0
 11  8  1  0  0  0  0
 11 14  1  0  0  0  0
 12  2  1  0  0  0  0
 14 17  1  0  0  0  0
 15  4  1  0  0  0  0
 15 13  1  0  0  0  0
 17  1  1  0  0  0  0
 17  2  2  0  0  0  0
 18  4  1  0  0  0  0
 18 21  1  0  0  0  0
 19 18  2  0  0  0  0
 20 18  2  0  0  0  0
 21 23  1  0  0  0  0
 22 21  1  0  0  0  0
 23 26  1  0  0  0  0
 24 29  1  0  0  0  0
 24 25  2  0  0  0  0
 26 24  1  0  0  0  0
 27 29  1  0  0  0  0
 28 26  1  0  0  0  0
 28 27  1  0  0  0  0
 30 31  1  0  0  0  0
 31  8  1  0  0  0  0
 33 32  1  0  0  0  0
 34 33  1  0  0  0  0
 35 39  1  0  0  0  0
 35 34  1  0  0  0  0
 36 38  1  0  0  0  0
 37 38  2  0  0  0  0
 38 35  1  0  0  0  0
 40 39  1  0  0  0  0
M  END
>  <MODEL>
1

>  <REMARK>
 VINA RESULT:      -7.2      0.000      0.000
  Name = 
  11 active torsions:
  status: ('A' for Active; 'I' for Inactive)
    1  A    between atoms: C_1  and  S_7
    2  A    between atoms: C_1  and  C_14
    3  A    between atoms: C_3  and  C_26
    4  A    between atoms: N_4  and  C_25
    5  A    between atoms: N_4  and  CA_30
    6  A    between atoms: C_6  and  S_7
    7  A    between atoms: C_14  and  C_23
    8  A    between atoms: C_17  and  C_34
    9  A    between atoms: C_18  and  CA_30
   10  A    between atoms: C_25  and  C_26
   11  A    between atoms: CA_30  and  C_31
                            x       y       z     vdW  Elec       q    Type
                         _______ _______ _______ _____ _____    ______ ____

>  <TORSDO>
F 11

$$$$
=
 OpenBabel11042418103D

 40 45  0  0  1  0  0  0  0  0999 V2000
  191.5360  173.7190  144.6390 N   0  0  0  0  0  0  0  0  0  0  0  0
  193.3520  172.0970  144.9270 C   0  0  0  0  0  0  0  0  0  0  0  0
  190.1440  174.2900  142.7600 N   0  0  1  0  0  0  0  0  0  0  0  0
  188.7990  176.3750  143.0410 C   0  0  1  0  0  3  0  0  0  0  0  0
  193.7980  168.6540  143.4530 C   0  0  0  0  0  1  0  0  0  0  0  0
  190.7040  174.7530  144.0040 C   0  0  2  0  0  0  0  0  0  0  0  0
  193.2230  169.9880  143.7680 C   0  0  0  0  0  0  0  0  0  0  0  0
  189.3400  173.0650  142.8970 C   0  0  2  0  0  3  0  0  0  0  0  0
  189.5740  175.5030  142.1370 C   0  0  1  0  0  3  0  0  0  0  0  0
  192.0440  170.3680  143.2080 N   0  0  0  0  0  0  0  0  0  0  0  0
  190.2120  171.8790  142.8030 N   0  0  0  0  0  2  0  0  0  0  0  0
  193.8960  170.8450  144.6390 C   0  0  0  0  0  3  0  0  0  0  0  0
  191.0470  176.1980  143.8950 C   0  0  0  0  0  2  0  0  0  0  0  0
  191.4700  171.5760  143.4630 C   0  0  0  0  0  0  0  0  0  0  0  0
  190.2220  176.6890  142.7720 N   0  0  2  0  0  0  0  0  0  0  0  0
  190.2800  174.3130  145.2270 C   0  0  0  0  0  2  0  0  0  0  0  0
  192.1330  172.4700  144.3410 C   0  0  0  0  0  0  0  0  0  0  0  0
  187.7500  177.4730  142.1050 S   0  0  0  0  0  0  0  0  0  0  0  0
  188.5360  178.6290  141.5470 O   0  0  0  0  0  0  0  0  0  0  0  0
  187.1270  176.7070  140.9720 O   0  0  0  0  0  0  0  0  0  0  0  0
  186.4630  178.0870  143.1730 C   0  0  2  0  0  3  0  0  0  0  0  0
  186.1910  179.4050  142.8540 F   0  0  0  0  0  0  0  0  0  0  0  0
  186.9070  177.9850  144.6230 C   0  0  0  0  0  2  0  0  0  0  0  0
  184.8660  178.2620  145.9880 C   0  0  0  0  0  0  0  0  0  0  0  0
  183.9680  178.7900  145.2810 O   0  0  0  0  0  0  0  0  0  0  0  0
  185.8540  177.2890  145.4730 C   0  0  2  0  0  3  0  0  0  0  0  0
  186.0710  177.7140  147.8940 C   0  0  0  0  0  2  0  0  0  0  0  0
  186.5150  176.7860  146.7550 C   0  0  0  0  0  2  0  0  0  0  0  0
  184.9800  178.5120  147.3700 N   0  0  0  0  0  2  0  0  0  0  0  0
  188.7390  172.5880  140.4840 C   0  0  0  0  0  1  0  0  0  0  0  0
  188.2150  172.9620  141.8610 C   0  0  0  0  0  2  0  0  0  0  0  0
  194.0730  173.0050  145.8670 C   0  0  0  0  0  2  0  0  0  0  0  0
  195.3970  173.4350  145.2700 C   0  0  0  0  0  2  0  0  0  0  0  0
  195.6990  174.7930  145.6890 N   0  0  0  0  0  2  0  0  0  0  0  0
  194.6700  175.6520  145.1260 C   0  0  2  0  0  3  0  0  0  0  0  0
  194.4050  176.0550  142.7920 O   0  0  0  0  0  0  0  0  0  0  0  0
  196.3560  176.8420  143.7060 O   0  0  0  0  0  1  0  0  0  0  0  0
  195.1320  176.1900  143.8110 C   0  0  0  0  0  0  0  0  0  0  0  0
  194.3590  176.7860  146.0950 C   0  0  0  0  0  2  0  0  0  0  0  0
  193.1490  176.4850  146.8410 N   0  0  0  0  0  1  0  0  0  0  0  0
  1 16  1  0  0  0  0
  2 32  1  0  0  0  0
  3  8  1  0  0  0  0
  3  6  1  0  0  0  0
  5  7  1  0  0  0  0
  6  1  1  0  0  0  0
  6 16  1  0  0  0  0
  7 12  2  0  0  0  0
  9  3  1  0  0  0  0
  9 15  1  0  0  0  0
  9  4  1  0  0  0  0
 10 14  2  0  0  0  0
 10  7  1  0  0  0  0
 11  8  1  0  0  0  0
 11 14  1  0  0  0  0
 12  2  1  0  0  0  0
 13  6  1  0  0  0  0
 14 17  1  0  0  0  0
 15  4  1  0  0  0  0
 15 13  1  0  0  0  0
 17  1  1  0  0  0  0
 17  2  2  0  0  0  0
 18  4  1  0  0  0  0
 18 21  1  0  0  0  0
 19 18  2  0  0  0  0
 20 18  2  0  0  0  0
 21 23  1  0  0  0  0
 22 21  1  0  0  0  0
 23 26  1  0  0  0  0
 24 29  1  0  0  0  0
 25 24  2  0  0  0  0
 26 24  1  0  0  0  0
 26 28  1  0  0  0  0
 28 27  1  0  0  0  0
 29 27  1  0  0  0  0
 30 31  1  0  0  0  0
 31  8  1  0  0  0  0
 33 34  1  0  0  0  0
 33 32  1  0  0  0  0
 35 34  1  0  0  0  0
 35 39  1  0  0  0  0
 36 38  2  0  0  0  0
 37 38  1  0  0  0  0
 38 35  1  0  0  0  0
 39 40  1  0  0  0  0
M  END
>  <MODEL>
2

>  <REMARK>
 VINA RESULT:      -7.1      1.627      2.058
  Name = 
  11 active torsions:
  status: ('A' for Active; 'I' for Inactive)
    1  A    between atoms: C_1  and  S_7
    2  A    between atoms: C_1  and  C_14
    3  A    between atoms: C_3  and  C_26
    4  A    between atoms: N_4  and  C_25
    5  A    between atoms: N_4  and  CA_30
    6  A    between atoms: C_6  and  S_7
    7  A    between atoms: C_14  and  C_23
    8  A    between atoms: C_17  and  C_34
    9  A    between atoms: C_18  and  CA_30
   10  A    between atoms: C_25  and  C_26
   11  A    between atoms: CA_30  and  C_31
                            x       y       z     vdW  Elec       q    Type
                         _______ _______ _______ _____ _____    ______ ____

>  <TORSDO>
F 11

$$$$
=
 OpenBabel11042418103D

 40 45  0  0  1  0  0  0  0  0999 V2000
  191.7050  176.7100  144.1350 N   0  0  0  0  0  0  0  0  0  0  0  0
  193.7740  175.5740  143.4720 C   0  0  0  0  0  0  0  0  0  0  0  0
  190.2150  176.4230  146.0050 N   0  0  1  0  0  0  0  0  0  0  0  0
  188.0340  177.6210  145.8060 C   0  0  1  0  0  3  0  0  0  0  0  0
  196.5690  174.1770  145.5840 C   0  0  0  0  0  1  0  0  0  0  0  0
  190.3360  176.8880  144.6460 C   0  0  2  0  0  0  0  0  0  0  0  0
  195.2950  174.8310  145.1870 C   0  0  0  0  0  0  0  0  0  0  0  0
  191.1480  177.0790  146.9360 C   0  0  2  0  0  3  0  0  0  0  0  0
  188.7610  176.4220  146.2670 C   0  0  1  0  0  3  0  0  0  0  0  0
  194.4470  175.3000  146.1420 N   0  0  0  0  0  0  0  0  0  0  0  0
  192.4400  176.3660  146.9370 N   0  0  0  0  0  2  0  0  0  0  0  0
  194.9740  174.9620  143.8360 C   0  0  0  0  0  3  0  0  0  0  0  0
  189.0850  176.5880  143.8980 C   0  0  0  0  0  2  0  0  0  0  0  0
  193.2690  175.9100  145.8370 C   0  0  0  0  0  0  0  0  0  0  0  0
  188.0600  176.4130  144.9480 N   0  0  2  0  0  0  0  0  0  0  0  0
  190.9980  178.0330  144.3020 C   0  0  0  0  0  2  0  0  0  0  0  0
  192.9140  176.0540  144.4720 C   0  0  0  0  0  0  0  0  0  0  0  0
  186.4530  177.7480  146.6240 S   0  0  0  0  0  0  0  0  0  0  0  0
  185.8410  176.3900  146.8340 O   0  0  0  0  0  0  0  0  0  0  0  0
  186.6450  178.4150  147.9570 O   0  0  0  0  0  0  0  0  0  0  0  0
  185.3670  178.7440  145.6230 C   0  0  2  0  0  3  0  0  0  0  0  0
  184.2320  179.0560  146.3490 F   0  0  0  0  0  0  0  0  0  0  0  0
  184.9840  177.9810  144.3650 C   0  0  0  0  0  2  0  0  0  0  0  0
  184.3020  178.2880  142.0100 C   0  0  0  0  0  0  0  0  0  0  0  0
  183.0460  178.2840  141.9430 O   0  0  0  0  0  0  0  0  0  0  0  0
  185.0660  178.8720  143.1350 C   0  0  2  0  0  3  0  0  0  0  0  0
  186.5020  177.9810  141.3380 C   0  0  0  0  0  2  0  0  0  0  0  0
  186.4980  178.8440  142.6060 C   0  0  0  0  0  2  0  0  0  0  0  0
  185.1120  177.7750  140.9770 N   0  0  0  0  0  2  0  0  0  0  0  0
  191.5630  177.9100  149.2910 C   0  0  0  0  0  1  0  0  0  0  0  0
  190.6080  177.1720  148.3670 C   0  0  0  0  0  2  0  0  0  0  0  0
  193.4400  175.7180  142.0240 C   0  0  0  0  0  2  0  0  0  0  0  0
  192.9980  174.3870  141.4520 C   0  0  0  0  0  2  0  0  0  0  0  0
  191.5560  174.2620  141.5770 N   0  0  0  0  0  2  0  0  0  0  0  0
  191.2940  173.0210  142.2880 C   0  0  2  0  0  3  0  0  0  0  0  0
  189.8660  171.1850  141.7710 O   0  0  0  0  0  1  0  0  0  0  0  0
  191.0760  172.0090  140.0060 O   0  0  0  0  0  0  0  0  0  0  0  0
  190.7050  172.0210  141.3470 C   0  0  0  0  0  0  0  0  0  0  0  0
  190.3510  173.2850  143.4550 C   0  0  0  0  0  2  0  0  0  0  0  0
  191.0500  173.0890  144.7140 N   0  0  0  0  0  1  0  0  0  0  0  0
  1 16  1  0  0  0  0
  1 17  1  0  0  0  0
  1  6  1  0  0  0  0
  2 12  1  0  0  0  0
  2 17  2  0  0  0  0
  3  9  1  0  0  0  0
  3  8  1  0  0  0  0
  4  9  1  0  0  0  0
  4 18  1  0  0  0  0
  6  3  1  0  0  0  0
  7  5  1  0  0  0  0
  7 10  1  0  0  0  0
  8 11  1  0  0  0  0
  8 31  1  0  0  0  0
 12  7  2  0  0  0  0
 13  6  1  0  0  0  0
 13 15  1  0  0  0  0
 14 10  2  0  0  0  0
 14 11  1  0  0  0  0
 15  4  1  0  0  0  0
 15  9  1  0  0  0  0
 16  6  1  0  0  0  0
 17 14  1  0  0  0  0
 18 19  2  0  0  0  0
 18 20  2  0  0  0  0
 21 22  1  0  0  0  0
 21 18  1  0  0  0  0
 23 21  1  0  0  0  0
 24 26  1  0  0  0  0
 25 24  2  0  0  0  0
 26 23  1  0  0  0  0
 27 28  1  0  0  0  0
 28 26  1  0  0  0  0
 29 27  1  0  0  0  0
 29 24  1  0  0  0  0
 31 30  1  0  0  0  0
 32  2  1  0  0  0  0
 33 34  1  0  0  0  0
 33 32  1  0  0  0  0
 34 35  1  0  0  0  0
 35 39  1  0  0  0  0
 37 38  2  0  0  0  0
 38 36  1  0  0  0  0
 38 35  1  0  0  0  0
 39 40  1  0  0  0  0
M  END
>  <MODEL>
3

>  <REMARK>
 VINA RESULT:      -7.0      2.585      4.862
  Name = 
  11 active torsions:
  status: ('A' for Active; 'I' for Inactive)
    1  A    between atoms: C_1  and  S_7
    2  A    between atoms: C_1  and  C_14
    3  A    between atoms: C_3  and  C_26
    4  A    between atoms: N_4  and  C_25
    5  A    between atoms: N_4  and  CA_30
    6  A    between atoms: C_6  and  S_7
    7  A    between atoms: C_14  and  C_23
    8  A    between atoms: C_17  and  C_34
    9  A    between atoms: C_18  and  CA_30
   10  A    between atoms: C_25  and  C_26
   11  A    between atoms: CA_30  and  C_31
                            x       y       z     vdW  Elec       q    Type
                         _______ _______ _______ _____ _____    ______ ____

>  <TORSDO>
F 11

$$$$
=
 OpenBabel11042418103D

 40 45  0  0  1  0  0  0  0  0999 V2000
  191.9270  175.5880  145.4770 N   0  0  0  0  0  0  0  0  0  0  0  0
  194.2440  175.6330  144.6790 C   0  0  0  0  0  0  0  0  0  0  0  0
  189.9310  176.7220  144.7520 N   0  0  1  0  0  0  0  0  0  0  0  0
  187.9980  176.5610  146.3230 C   0  0  1  0  0  3  0  0  0  0  0  0
  195.6070  175.9510  141.1770 C   0  0  0  0  0  1  0  0  0  0  0  0
  190.5930  176.0820  145.8590 C   0  0  2  0  0  0  0  0  0  0  0  0
  194.6570  175.8620  142.3160 C   0  0  0  0  0  0  0  0  0  0  0  0
  189.7860  175.8530  143.5710 C   0  0  2  0  0  3  0  0  0  0  0  0
  188.7530  177.3800  145.3550 C   0  0  1  0  0  3  0  0  0  0  0  0
  193.3180  175.9280  142.0890 N   0  0  0  0  0  0  0  0  0  0  0  0
  190.9980  175.9370  142.7350 N   0  0  0  0  0  2  0  0  0  0  0  0
  195.1430  175.7120  143.6140 C   0  0  0  0  0  3  0  0  0  0  0  0
  190.2600  176.7920  147.1240 C   0  0  0  0  0  2  0  0  0  0  0  0
  192.4020  175.8490  143.0930 C   0  0  0  0  0  0  0  0  0  0  0  0
  189.0110  177.5210  146.8190 N   0  0  2  0  0  0  0  0  0  0  0  0
  190.7760  174.7300  145.9430 C   0  0  0  0  0  2  0  0  0  0  0  0
  192.8660  175.6990  144.4240 C   0  0  0  0  0  0  0  0  0  0  0  0
  186.3610  177.2300  146.5670 S   0  0  0  0  0  0  0  0  0  0  0  0
  185.3130  176.1580  146.4350 O   0  0  0  0  0  0  0  0  0  0  0  0
  186.2800  177.8340  147.9400 O   0  0  0  0  0  0  0  0  0  0  0  0
  186.0740  178.5000  145.3510 C   0  0  2  0  0  3  0  0  0  0  0  0
  185.7860  179.6910  145.9920 F   0  0  0  0  0  0  0  0  0  0  0  0
  184.9130  178.1000  144.4550 C   0  0  0  0  0  2  0  0  0  0  0  0
  183.9960  178.3720  142.1760 C   0  0  0  0  0  0  0  0  0  0  0  0
  182.7410  178.3070  142.2290 O   0  0  0  0  0  0  0  0  0  0  0  0
  184.8350  178.9940  143.2260 C   0  0  2  0  0  3  0  0  0  0  0  0
  186.1340  178.1710  141.2960 C   0  0  0  0  0  2  0  0  0  0  0  0
  186.2100  179.0340  142.5620 C   0  0  0  0  0  2  0  0  0  0  0  0
  184.7290  177.8990  141.0690 N   0  0  0  0  0  2  0  0  0  0  0  0
  188.2600  175.1060  141.6940 C   0  0  0  0  0  1  0  0  0  0  0  0
  188.5500  176.1840  142.7270 C   0  0  0  0  0  2  0  0  0  0  0  0
  194.7710  175.4630  146.0650 C   0  0  0  0  0  2  0  0  0  0  0  0
  195.9280  174.4840  146.0710 C   0  0  0  0  0  2  0  0  0  0  0  0
  195.4450  173.1630  145.7090 N   0  0  0  0  0  2  0  0  0  0  0  0
  196.6110  172.3520  145.3970 C   0  0  2  0  0  3  0  0  0  0  0  0
  197.9410  173.1320  143.5800 O   0  0  0  0  0  1  0  0  0  0  0  0
  196.1220  171.8660  142.9880 O   0  0  0  0  0  0  0  0  0  0  0  0
  196.9300  172.4750  143.9430 C   0  0  0  0  0  0  0  0  0  0  0  0
  196.3430  170.9000  145.7700 C   0  0  0  0  0  2  0  0  0  0  0  0
  194.9160  170.6850  145.9420 N   0  0  0  0  0  1  0  0  0  0  0  0
  1  6  1  0  0  0  0
  1 16  1  0  0  0  0
  2 32  1  0  0  0  0
  3  9  1  0  0  0  0
  3  6  1  0  0  0  0
  4 18  1  0  0  0  0
  4 15  1  0  0  0  0
  5  7  1  0  0  0  0
  6 16  1  0  0  0  0
  6 13  1  0  0  0  0
  7 12  2  0  0  0  0
  8  3  1  0  0  0  0
  9  4  1  0  0  0  0
  9 15  1  0  0  0  0
 10  7  1  0  0  0  0
 10 14  2  0  0  0  0
 11 14  1  0  0  0  0
 11  8  1  0  0  0  0
 12  2  1  0  0  0  0
 14 17  1  0  0  0  0
 15 13  1  0  0  0  0
 17  2  2  0  0  0  0
 17  1  1  0  0  0  0
 18 20  2  0  0  0  0
 19 18  2  0  0  0  0
 21 22  1  0  0  0  0
 21 18  1  0  0  0  0
 23 21  1  0  0  0  0
 24 25  2  0  0  0  0
 24 26  1  0  0  0  0
 26 23  1  0  0  0  0
 27 28  1  0  0  0  0
 28 26  1  0  0  0  0
 29 27  1  0  0  0  0
 29 24  1  0  0  0  0
 30 31  1  0  0  0  0
 31  8  1  0  0  0  0
 32 33  1  0  0  0  0
 34 33  1  0  0  0  0
 35 34  1  0  0  0  0
 35 39  1  0  0  0  0
 36 38  1  0  0  0  0
 37 38  2  0  0  0  0
 38 35  1  0  0  0  0
 39 40  1  0  0  0  0
M  END
>  <MODEL>
4

>  <REMARK>
 VINA RESULT:      -6.9      2.522      3.966
  Name = 
  11 active torsions:
  status: ('A' for Active; 'I' for Inactive)
    1  A    between atoms: C_1  and  S_7
    2  A    between atoms: C_1  and  C_14
    3  A    between atoms: C_3  and  C_26
    4  A    between atoms: N_4  and  C_25
    5  A    between atoms: N_4  and  CA_30
    6  A    between atoms: C_6  and  S_7
    7  A    between atoms: C_14  and  C_23
    8  A    between atoms: C_17  and  C_34
    9  A    between atoms: C_18  and  CA_30
   10  A    between atoms: C_25  and  C_26
   11  A    between atoms: CA_30  and  C_31
                            x       y       z     vdW  Elec       q    Type
                         _______ _______ _______ _____ _____    ______ ____

>  <TORSDO>
F 11

$$$$
=
 OpenBabel11042418103D

 40 45  0  0  1  0  0  0  0  0999 V2000
  192.5690  175.0110  145.1750 N   0  0  0  0  0  0  0  0  0  0  0  0
  194.8310  174.1740  145.6110 C   0  0  0  0  0  0  0  0  0  0  0  0
  190.8590  174.3500  143.6140 N   0  0  1  0  0  0  0  0  0  0  0  0
  188.9550  175.9500  143.3980 C   0  0  1  0  0  3  0  0  0  0  0  0
  196.1920  170.6590  145.4910 C   0  0  0  0  0  1  0  0  0  0  0  0
  191.3790  175.4280  144.4150 C   0  0  2  0  0  0  0  0  0  0  0  0
  195.2580  171.8110  145.4060 C   0  0  0  0  0  0  0  0  0  0  0  0
  190.5160  173.1500  144.3940 C   0  0  2  0  0  3  0  0  0  0  0  0
  189.8600  174.9920  142.7340 C   0  0  1  0  0  3  0  0  0  0  0  0
  193.9630  171.6090  145.0440 N   0  0  0  0  0  0  0  0  0  0  0  0
  191.7080  172.2950  144.5500 N   0  0  0  0  0  2  0  0  0  0  0  0
  195.7140  173.0970  145.6970 C   0  0  0  0  0  3  0  0  0  0  0  0
  191.2220  176.7170  143.6870 C   0  0  0  0  0  2  0  0  0  0  0  0
  193.0630  172.6260  144.9520 C   0  0  0  0  0  0  0  0  0  0  0  0
  190.1590  176.4540  142.6960 N   0  0  2  0  0  0  0  0  0  0  0  0
  191.2640  175.4730  145.7760 C   0  0  0  0  0  2  0  0  0  0  0  0
  193.4980  173.9450  145.2390 C   0  0  0  0  0  0  0  0  0  0  0  0
  187.5060  176.2390  142.3970 S   0  0  0  0  0  0  0  0  0  0  0  0
  187.8850  176.5900  140.9840 O   0  0  0  0  0  0  0  0  0  0  0  0
  186.6620  174.9960  142.3880 O   0  0  0  0  0  0  0  0  0  0  0  0
  186.5700  177.5750  143.1130 C   0  0  2  0  0  3  0  0  0  0  0  0
  187.4000  178.6640  143.3070 F   0  0  0  0  0  0  0  0  0  0  0  0
  185.9780  177.1320  144.4410 C   0  0  0  0  0  2  0  0  0  0  0  0
  186.8200  176.9960  146.7600 C   0  0  0  0  0  0  0  0  0  0  0  0
  187.7320  176.1310  146.8150 O   0  0  0  0  0  0  0  0  0  0  0  0
  186.6020  177.8920  145.6020 C   0  0  2  0  0  3  0  0  0  0  0  0
  185.0540  178.3200  147.4750 C   0  0  0  0  0  2  0  0  0  0  0  0
  185.5750  178.8830  146.1470 C   0  0  0  0  0  2  0  0  0  0  0  0
  185.9410  177.2320  147.8360 N   0  0  0  0  0  2  0  0  0  0  0  0
  189.8550  171.4320  142.6550 C   0  0  0  0  0  1  0  0  0  0  0  0
  189.3730  172.3360  143.7780 C   0  0  0  0  0  2  0  0  0  0  0  0
  195.3230  175.5460  145.9320 C   0  0  0  0  0  2  0  0  0  0  0  0
  195.2410  176.4350  144.7080 C   0  0  0  0  0  2  0  0  0  0  0  0
  195.8680  175.7640  143.5820 N   0  0  0  0  0  2  0  0  0  0  0  0
  195.0810  176.0840  142.4020 C   0  0  2  0  0  3  0  0  0  0  0  0
  194.9670  173.7260  142.0760 O   0  0  0  0  0  1  0  0  0  0  0  0
  193.2080  174.9180  141.2130 O   0  0  0  0  0  0  0  0  0  0  0  0
  194.4210  174.8450  141.8900 C   0  0  0  0  0  0  0  0  0  0  0  0
  195.9780  176.6970  141.3350 C   0  0  0  0  0  2  0  0  0  0  0  0
  197.2780  176.0470  141.3430 N   0  0  0  0  0  1  0  0  0  0  0  0
  1 17  1  0  0  0  0
  1 16  1  0  0  0  0
  2 12  1  0  0  0  0
  2 32  1  0  0  0  0
  3  8  1  0  0  0  0
  3  6  1  0  0  0  0
  6  1  1  0  0  0  0
  6 16  1  0  0  0  0
  7  5  1  0  0  0  0
  7 12  2  0  0  0  0
  8 11  1  0  0  0  0
  9  4  1  0  0  0  0
  9  3  1  0  0  0  0
 10  7  1  0  0  0  0
 11 14  1  0  0  0  0
 13  6  1  0  0  0  0
 14 10  2  0  0  0  0
 14 17  1  0  0  0  0
 15  9  1  0  0  0  0
 15  4  1  0  0  0  0
 15 13  1  0  0  0  0
 17  2  2  0  0  0  0
 18 21  1  0  0  0  0
 18  4  1  0  0  0  0
 19 18  2  0  0  0  0
 20 18  2  0  0  0  0
 21 22  1  0  0  0  0
 21 23  1  0  0  0  0
 23 26  1  0  0  0  0
 24 25  2  0  0  0  0
 24 29  1  0  0  0  0
 26 28  1  0  0  0  0
 26 24  1  0  0  0  0
 27 29  1  0  0  0  0
 28 27  1  0  0  0  0
 30 31  1  0  0  0  0
 31  8  1  0  0  0  0
 33 32  1  0  0  0  0
 34 33  1  0  0  0  0
 35 34  1  0  0  0  0
 37 38  2  0  0  0  0
 38 36  1  0  0  0  0
 38 35  1  0  0  0  0
 39 40  1  0  0  0  0
 39 35  1  0  0  0  0
M  END
>  <MODEL>
5

>  <REMARK>
 VINA RESULT:      -6.7      1.860      2.328
  Name = 
  11 active torsions:
  status: ('A' for Active; 'I' for Inactive)
    1  A    between atoms: C_1  and  S_7
    2  A    between atoms: C_1  and  C_14
    3  A    between atoms: C_3  and  C_26
    4  A    between atoms: N_4  and  C_25
    5  A    between atoms: N_4  and  CA_30
    6  A    between atoms: C_6  and  S_7
    7  A    between atoms: C_14  and  C_23
    8  A    between atoms: C_17  and  C_34
    9  A    between atoms: C_18  and  CA_30
   10  A    between atoms: C_25  and  C_26
   11  A    between atoms: CA_30  and  C_31
                            x       y       z     vdW  Elec       q    Type
                         _______ _______ _______ _____ _____    ______ ____

>  <TORSDO>
F 11

$$$$
=
 OpenBabel11042418103D

 40 45  0  0  1  0  0  0  0  0999 V2000
  193.9300  174.1600  145.4840 N   0  0  0  0  0  0  0  0  0  0  0  0
  195.8580  172.6590  145.6780 C   0  0  0  0  0  0  0  0  0  0  0  0
  192.0500  174.2140  143.9800 N   0  0  1  0  0  0  0  0  0  0  0  0
  190.6970  176.3090  144.0600 C   0  0  1  0  0  3  0  0  0  0  0  0
  196.1180  168.9420  145.1010 C   0  0  0  0  0  1  0  0  0  0  0  0
  192.8910  174.9920  144.8530 C   0  0  2  0  0  0  0  0  0  0  0  0
  195.5620  170.3160  145.1990 C   0  0  0  0  0  0  0  0  0  0  0  0
  191.3940  173.0790  144.6510 C   0  0  2  0  0  3  0  0  0  0  0  0
  191.2560  175.2170  143.2400 C   0  0  1  0  0  3  0  0  0  0  0  0
  194.2540  170.5420  144.9060 N   0  0  0  0  0  0  0  0  0  0  0  0
  192.2860  171.9040  144.6380 N   0  0  0  0  0  2  0  0  0  0  0  0
  196.3860  171.3710  145.5930 C   0  0  0  0  0  3  0  0  0  0  0  0
  193.0970  176.3480  144.2770 C   0  0  0  0  0  2  0  0  0  0  0  0
  193.6910  171.7790  144.9810 C   0  0  0  0  0  0  0  0  0  0  0  0
  191.9710  176.5240  143.3360 N   0  0  2  0  0  0  0  0  0  0  0  0
  192.8400  174.9050  146.2160 C   0  0  0  0  0  2  0  0  0  0  0  0
  194.5050  172.8710  145.3740 C   0  0  0  0  0  0  0  0  0  0  0  0
  189.3650  177.1230  143.1940 S   0  0  0  0  0  0  0  0  0  0  0  0
  189.8740  178.2870  142.3880 O   0  0  0  0  0  0  0  0  0  0  0  0
  188.7060  176.1350  142.2720 O   0  0  0  0  0  0  0  0  0  0  0  0
  188.1710  177.6970  144.3850 C   0  0  2  0  0  3  0  0  0  0  0  0
  188.7930  177.8750  145.6070 F   0  0  0  0  0  0  0  0  0  0  0  0
  187.0480  176.6810  144.5170 C   0  0  0  0  0  2  0  0  0  0  0  0
  185.8240  178.7390  143.9070 C   0  0  0  0  0  0  0  0  0  0  0  0
  186.0970  179.0410  142.7160 O   0  0  0  0  0  0  0  0  0  0  0  0
  185.6860  177.3480  144.3940 C   0  0  2  0  0  3  0  0  0  0  0  0
  185.2320  179.0420  146.1300 C   0  0  0  0  0  2  0  0  0  0  0  0
  185.1120  177.5490  145.7950 C   0  0  0  0  0  2  0  0  0  0  0  0
  185.5660  179.7150  144.8910 N   0  0  0  0  0  2  0  0  0  0  0  0
  190.1820  171.6600  142.9410 C   0  0  0  0  0  1  0  0  0  0  0  0
  190.0430  172.7100  144.0320 C   0  0  0  0  0  2  0  0  0  0  0  0
  196.7430  173.7820  146.1090 C   0  0  0  0  0  2  0  0  0  0  0  0
  197.6870  174.1660  144.9870 C   0  0  0  0  0  2  0  0  0  0  0  0
  197.0070  175.0620  144.0690 N   0  0  0  0  0  2  0  0  0  0  0  0
  197.4100  174.6840  142.7240 C   0  0  2  0  0  3  0  0  0  0  0  0
  196.4390  176.7910  142.1830 O   0  0  0  0  0  1  0  0  0  0  0  0
  197.4590  175.7080  140.4390 O   0  0  0  0  0  0  0  0  0  0  0  0
  197.0740  175.7850  141.7720 C   0  0  0  0  0  0  0  0  0  0  0  0
  196.7120  173.3910  142.3220 C   0  0  0  0  0  2  0  0  0  0  0  0
  195.3070  173.6470  142.0510 N   0  0  0  0  0  1  0  0  0  0  0  0
  1 16  1  0  0  0  0
  2 32  1  0  0  0  0
  3  8  1  0  0  0  0
  3  6  1  0  0  0  0
  5  7  1  0  0  0  0
  6  1  1  0  0  0  0
  6 16  1  0  0  0  0
  7 12  2  0  0  0  0
  9 15  1  0  0  0  0
  9  3  1  0  0  0  0
  9  4  1  0  0  0  0
 10 14  2  0  0  0  0
 10  7  1  0  0  0  0
 11  8  1  0  0  0  0
 11 14  1  0  0  0  0
 12  2  1  0  0  0  0
 13  6  1  0  0  0  0
 14 17  1  0  0  0  0
 15  4  1  0  0  0  0
 15 13  1  0  0  0  0
 17  1  1  0  0  0  0
 17  2  2  0  0  0  0
 18  4  1  0  0  0  0
 18 21  1  0  0  0  0
 19 18  2  0  0  0  0
 20 18  2  0  0  0  0
 21 23  1  0  0  0  0
 21 22  1  0  0  0  0
 24 26  1  0  0  0  0
 24 29  1  0  0  0  0
 25 24  2  0  0  0  0
 26 23  1  0  0  0  0
 26 28  1  0  0  0  0
 28 27  1  0  0  0  0
 29 27  1  0  0  0  0
 30 31  1  0  0  0  0
 31  8  1  0  0  0  0
 33 32  1  0  0  0  0
 34 33  1  0  0  0  0
 35 34  1  0  0  0  0
 37 38  2  0  0  0  0
 38 36  1  0  0  0  0
 38 35  1  0  0  0  0
 39 35  1  0  0  0  0
 40 39  1  0  0  0  0
M  END
>  <MODEL>
6

>  <REMARK>
 VINA RESULT:      -6.7      2.327      3.290
  Name = 
  11 active torsions:
  status: ('A' for Active; 'I' for Inactive)
    1  A    between atoms: C_1  and  S_7
    2  A    between atoms: C_1  and  C_14
    3  A    between atoms: C_3  and  C_26
    4  A    between atoms: N_4  and  C_25
    5  A    between atoms: N_4  and  CA_30
    6  A    between atoms: C_6  and  S_7
    7  A    between atoms: C_14  and  C_23
    8  A    between atoms: C_17  and  C_34
    9  A    between atoms: C_18  and  CA_30
   10  A    between atoms: C_25  and  C_26
   11  A    between atoms: CA_30  and  C_31
                            x       y       z     vdW  Elec       q    Type
                         _______ _______ _______ _____ _____    ______ ____

>  <TORSDO>
F 11

$$$$
=
 OpenBabel11042418103D

 40 45  0  0  1  0  0  0  0  0999 V2000
  192.2660  176.6710  143.6900 N   0  0  0  0  0  0  0  0  0  0  0  0
  194.4350  175.7100  143.0730 C   0  0  0  0  0  0  0  0  0  0  0  0
  190.6480  176.0930  145.3770 N   0  0  1  0  0  0  0  0  0  0  0  0
  188.4330  177.2190  145.1400 C   0  0  1  0  0  3  0  0  0  0  0  0
  197.1200  174.1730  145.2290 C   0  0  0  0  0  1  0  0  0  0  0  0
  190.8540  176.7290  144.1010 C   0  0  2  0  0  0  0  0  0  0  0  0
  195.8510  174.8200  144.8080 C   0  0  0  0  0  0  0  0  0  0  0  0
  191.4700  176.6640  146.4570 C   0  0  2  0  0  3  0  0  0  0  0  0
  189.1800  176.0010  145.5130 C   0  0  1  0  0  3  0  0  0  0  0  0
  194.9070  175.1320  145.7370 N   0  0  0  0  0  0  0  0  0  0  0  0
  192.7920  176.0080  146.4820 N   0  0  0  0  0  2  0  0  0  0  0  0
  195.6310  175.1060  143.4610 C   0  0  0  0  0  3  0  0  0  0  0  0
  189.6820  176.4750  143.2180 C   0  0  0  0  0  2  0  0  0  0  0  0
  193.7280  175.7270  145.4090 C   0  0  0  0  0  0  0  0  0  0  0  0
  188.5870  176.1290  144.1480 N   0  0  2  0  0  0  0  0  0  0  0  0
  191.4830  177.9330  143.9560 C   0  0  0  0  0  2  0  0  0  0  0  0
  193.4760  176.0270  144.0460 C   0  0  0  0  0  0  0  0  0  0  0  0
  186.7870  177.1790  145.8300 S   0  0  0  0  0  0  0  0  0  0  0  0
  185.9340  176.1510  145.1380 O   0  0  0  0  0  0  0  0  0  0  0  0
  186.8780  176.8420  147.2920 O   0  0  0  0  0  0  0  0  0  0  0  0
  186.0480  178.7890  145.6470 C   0  0  2  0  0  3  0  0  0  0  0  0
  185.8390  179.3430  146.8960 F   0  0  0  0  0  0  0  0  0  0  0  0
  184.7270  178.6670  144.9060 C   0  0  0  0  0  2  0  0  0  0  0  0
  184.2120  178.4040  142.5040 C   0  0  0  0  0  0  0  0  0  0  0  0
  182.9730  178.2320  142.3660 O   0  0  0  0  0  0  0  0  0  0  0  0
  184.8130  179.2940  143.5220 C   0  0  2  0  0  3  0  0  0  0  0  0
  186.4800  178.2380  142.0390 C   0  0  0  0  0  2  0  0  0  0  0  0
  186.2790  179.3340  143.0940 C   0  0  0  0  0  2  0  0  0  0  0  0
  185.1550  177.7950  141.6510 N   0  0  0  0  0  2  0  0  0  0  0  0
  191.5070  177.4300  148.8700 C   0  0  0  0  0  1  0  0  0  0  0  0
  190.8140  176.5560  147.8380 C   0  0  0  0  0  2  0  0  0  0  0  0
  194.2110  176.0220  141.6300 C   0  0  0  0  0  2  0  0  0  0  0  0
  195.5310  176.0490  140.8870 C   0  0  0  0  0  2  0  0  0  0  0  0
  195.3600  175.4500  139.5750 N   0  0  0  0  0  2  0  0  0  0  0  0
  194.4100  174.3590  139.7240 C   0  0  2  0  0  3  0  0  0  0  0  0
  196.1400  172.7730  139.3150 O   0  0  0  0  0  0  0  0  0  0  0  0
  194.7380  172.2640  141.0570 O   0  0  0  0  0  1  0  0  0  0  0  0
  195.1450  173.0920  140.0160 C   0  0  0  0  0  0  0  0  0  0  0  0
  193.5810  174.2220  138.4530 C   0  0  0  0  0  2  0  0  0  0  0  0
  193.7530  175.3980  137.6170 N   0  0  0  0  0  1  0  0  0  0  0  0
  1 16  1  0  0  0  0
  1 17  1  0  0  0  0
  1  6  1  0  0  0  0
  2 12  1  0  0  0  0
  2 17  2  0  0  0  0
  3  9  1  0  0  0  0
  3  8  1  0  0  0  0
  4  9  1  0  0  0  0
  4 18  1  0  0  0  0
  6  3  1  0  0  0  0
  7  5  1  0  0  0  0
  7 10  1  0  0  0  0
  8 11  1  0  0  0  0
  8 31  1  0  0  0  0
 12  7  2  0  0  0  0
 13  6  1  0  0  0  0
 13 15  1  0  0  0  0
 14 10  2  0  0  0  0
 14 11  1  0  0  0  0
 15  4  1  0  0  0  0
 15  9  1  0  0  0  0
 16  6  1  0  0  0  0
 17 14  1  0  0  0  0
 18 20  2  0  0  0  0
 19 18  2  0  0  0  0
 21 18  1  0  0  0  0
 21 22  1  0  0  0  0
 23 21  1  0  0  0  0
 24 26  1  0  0  0  0
 25 24  2  0  0  0  0
 26 23  1  0  0  0  0
 27 28  1  0  0  0  0
 28 26  1  0  0  0  0
 29 27  1  0  0  0  0
 29 24  1  0  0  0  0
 31 30  1  0  0  0  0
 32  2  1  0  0  0  0
 33 32  1  0  0  0  0
 34 35  1  0  0  0  0
 34 33  1  0  0  0  0
 35 38  1  0  0  0  0
 36 38  2  0  0  0  0
 38 37  1  0  0  0  0
 39 35  1  0  0  0  0
 40 39  1  0  0  0  0
M  END
>  <MODEL>
7

>  <REMARK>
 VINA RESULT:      -6.5      2.797      4.621
  Name = 
  11 active torsions:
  status: ('A' for Active; 'I' for Inactive)
    1  A    between atoms: C_1  and  S_7
    2  A    between atoms: C_1  and  C_14
    3  A    between atoms: C_3  and  C_26
    4  A    between atoms: N_4  and  C_25
    5  A    between atoms: N_4  and  CA_30
    6  A    between atoms: C_6  and  S_7
    7  A    between atoms: C_14  and  C_23
    8  A    between atoms: C_17  and  C_34
    9  A    between atoms: C_18  and  CA_30
   10  A    between atoms: C_25  and  C_26
   11  A    between atoms: CA_30  and  C_31
                            x       y       z     vdW  Elec       q    Type
                         _______ _______ _______ _____ _____    ______ ____

>  <TORSDO>
F 11

$$$$
=
 OpenBabel11042418103D

 40 45  0  0  1  0  0  0  0  0999 V2000
  189.8830  172.1900  142.0180 N   0  0  0  0  0  0  0  0  0  0  0  0
  190.4510  170.8430  140.0500 C   0  0  0  0  0  0  0  0  0  0  0  0
  189.7200  174.5650  142.3760 N   0  0  1  0  0  0  0  0  0  0  0  0
  189.5460  175.2600  144.7680 C   0  0  1  0  0  3  0  0  0  0  0  0
  189.6820  171.4180  136.4020 C   0  0  0  0  0  1  0  0  0  0  0  0
  189.9430  173.2850  142.9990 C   0  0  2  0  0  0  0  0  0  0  0  0
  189.7510  171.6080  137.8740 C   0  0  0  0  0  0  0  0  0  0  0  0
  188.4380  174.6540  141.6570 C   0  0  2  0  0  3  0  0  0  0  0  0
  190.0720  175.5510  143.4190 C   0  0  1  0  0  3  0  0  0  0  0  0
  189.1920  172.7100  138.4420 N   0  0  0  0  0  0  0  0  0  0  0  0
  188.5990  174.1500  140.2800 N   0  0  0  0  0  2  0  0  0  0  0  0
  190.3880  170.6550  138.6690 C   0  0  0  0  0  3  0  0  0  0  0  0
  190.9510  173.4230  144.0860 C   0  0  0  0  0  2  0  0  0  0  0  0
  189.2220  172.9350  139.7840 C   0  0  0  0  0  0  0  0  0  0  0  0
  190.9320  174.8610  144.4260 N   0  0  2  0  0  0  0  0  0  0  0  0
  188.9530  172.3640  143.1930 C   0  0  0  0  0  2  0  0  0  0  0  0
  189.8660  171.9860  140.6170 C   0  0  0  0  0  0  0  0  0  0  0  0
  189.5720  176.7290  145.7800 S   0  0  0  0  0  0  0  0  0  0  0  0
  190.6780  176.6670  146.7970 O   0  0  0  0  0  0  0  0  0  0  0  0
  189.7790  177.9270  144.8970 O   0  0  0  0  0  0  0  0  0  0  0  0
  188.0040  176.8810  146.6120 C   0  0  2  0  0  3  0  0  0  0  0  0
  187.7160  175.6980  147.2680 F   0  0  0  0  0  0  0  0  0  0  0  0
  186.9130  177.1900  145.6000 C   0  0  0  0  0  2  0  0  0  0  0  0
  185.0590  178.5280  146.5370 C   0  0  0  0  0  0  0  0  0  0  0  0
  184.9590  178.2840  147.7680 O   0  0  0  0  0  0  0  0  0  0  0  0
  186.3470  178.5870  145.8110 C   0  0  2  0  0  3  0  0  0  0  0  0
  184.3990  179.1100  144.3900 C   0  0  0  0  0  2  0  0  0  0  0  0
  185.9310  179.1560  144.4560 C   0  0  0  0  0  2  0  0  0  0  0  0
  183.9390  178.8260  145.7350 N   0  0  0  0  0  2  0  0  0  0  0  0
  186.5360  176.1680  142.3620 C   0  0  0  0  0  1  0  0  0  0  0  0
  187.8610  176.0730  141.6240 C   0  0  0  0  0  2  0  0  0  0  0  0
  191.1260  169.8150  140.8950 C   0  0  0  0  0  2  0  0  0  0  0  0
  192.6310  169.9750  140.8150 C   0  0  0  0  0  2  0  0  0  0  0  0
  193.0730  170.9080  141.8360 N   0  0  0  0  0  2  0  0  0  0  0  0
  193.9920  171.8370  141.1990 C   0  0  2  0  0  3  0  0  0  0  0  0
  194.0550  173.8380  142.4900 O   0  0  0  0  0  1  0  0  0  0  0  0
  192.6530  173.8880  140.6750 O   0  0  0  0  0  0  0  0  0  0  0  0
  193.5710  173.2390  141.4940 C   0  0  0  0  0  0  0  0  0  0  0  0
  194.0190  171.5860  139.6960 C   0  0  0  0  0  2  0  0  0  0  0  0
  195.3360  171.8920  139.1640 N   0  0  0  0  0  1  0  0  0  0  0  0
  1  6  1  0  0  0  0
  1 16  1  0  0  0  0
  2 17  2  0  0  0  0
  2 32  1  0  0  0  0
  3  6  1  0  0  0  0
  3  9  1  0  0  0  0
  4 18  1  0  0  0  0
  5  7  1  0  0  0  0
  6 16  1  0  0  0  0
  6 13  1  0  0  0  0
  7 10  1  0  0  0  0
  7 12  2  0  0  0  0
  8  3  1  0  0  0  0
  9 15  1  0  0  0  0
  9  4  1  0  0  0  0
 10 14  2  0  0  0  0
 11  8  1  0  0  0  0
 12  2  1  0  0  0  0
 13 15  1  0  0  0  0
 14 11  1  0  0  0  0
 14 17  1  0  0  0  0
 15  4  1  0  0  0  0
 17  1  1  0  0  0  0
 18 21  1  0  0  0  0
 18 19  2  0  0  0  0
 20 18  2  0  0  0  0
 21 22  1  0  0  0  0
 23 26  1  0  0  0  0
 23 21  1  0  0  0  0
 24 25  2  0  0  0  0
 26 24  1  0  0  0  0
 27 28  1  0  0  0  0
 27 29  1  0  0  0  0
 28 26  1  0  0  0  0
 29 24  1  0  0  0  0
 31  8  1  0  0  0  0
 31 30  1  0  0  0  0
 33 32  1  0  0  0  0
 33 34  1  0  0  0  0
 35 38  1  0  0  0  0
 35 34  1  0  0  0  0
 37 38  2  0  0  0  0
 38 36  1  0  0  0  0
 39 35  1  0  0  0  0
 40 39  1  0  0  0  0
M  END
>  <MODEL>
8

>  <REMARK>
 VINA RESULT:      -6.5      2.920      4.777
  Name = 
  11 active torsions:
  status: ('A' for Active; 'I' for Inactive)
    1  A    between atoms: C_1  and  S_7
    2  A    between atoms: C_1  and  C_14
    3  A    between atoms: C_3  and  C_26
    4  A    between atoms: N_4  and  C_25
    5  A    between atoms: N_4  and  CA_30
    6  A    between atoms: C_6  and  S_7
    7  A    between atoms: C_14  and  C_23
    8  A    between atoms: C_17  and  C_34
    9  A    between atoms: C_18  and  CA_30
   10  A    between atoms: C_25  and  C_26
   11  A    between atoms: CA_30  and  C_31
                            x       y       z     vdW  Elec       q    Type
                         _______ _______ _______ _____ _____    ______ ____

>  <TORSDO>
F 11

$$$$
=
 OpenBabel11042418103D

 40 45  0  0  1  0  0  0  0  0999 V2000
  188.8240  175.8300  144.2860 N   0  0  0  0  0  0  0  0  0  0  0  0
  186.7780  176.9570  145.0310 C   0  0  0  0  0  0  0  0  0  0  0  0
  191.1560  176.4080  144.4520 N   0  0  1  0  0  0  0  0  0  0  0  0
  192.6870  175.0150  143.0560 C   0  0  1  0  0  3  0  0  0  0  0  0
  186.1240  179.0300  148.1120 C   0  0  0  0  0  1  0  0  0  0  0  0
  190.1700  175.6580  143.7160 C   0  0  2  0  0  0  0  0  0  0  0  0
  186.8180  178.1970  147.0960 C   0  0  0  0  0  0  0  0  0  0  0  0
  191.2090  176.0630  145.8820 C   0  0  2  0  0  3  0  0  0  0  0  0
  192.3710  176.3450  143.6130 C   0  0  1  0  0  3  0  0  0  0  0  0
  188.1330  177.8880  147.2560 N   0  0  0  0  0  0  0  0  0  0  0  0
  190.2210  176.8650  146.6290 N   0  0  0  0  0  2  0  0  0  0  0  0
  186.1180  177.7350  145.9820 C   0  0  0  0  0  3  0  0  0  0  0  0
  190.5060  175.6720  142.2660 C   0  0  0  0  0  2  0  0  0  0  0  0
  188.8180  177.1270  146.3600 C   0  0  0  0  0  0  0  0  0  0  0  0
  191.9480  175.9940  142.2250 N   0  0  2  0  0  0  0  0  0  0  0  0
  189.5770  174.5250  144.1970 C   0  0  0  0  0  2  0  0  0  0  0  0
  188.1340  176.6460  145.2150 C   0  0  0  0  0  0  0  0  0  0  0  0
  194.3930  174.9450  142.5350 S   0  0  0  0  0  0  0  0  0  0  0  0
  194.5590  174.0320  141.3500 O   0  0  0  0  0  0  0  0  0  0  0  0
  194.8470  176.3270  142.1610 O   0  0  0  0  0  0  0  0  0  0  0  0
  195.3830  174.3510  143.8910 C   0  0  2  0  0  3  0  0  0  0  0  0
  196.6900  174.7720  143.7240 F   0  0  0  0  0  0  0  0  0  0  0  0
  195.3300  172.8330  143.9400 C   0  0  0  0  0  2  0  0  0  0  0  0
  196.4570  172.1660  146.0350 C   0  0  0  0  0  0  0  0  0  0  0  0
  197.1640  173.1230  146.4430 O   0  0  0  0  0  0  0  0  0  0  0  0
  195.1480  172.3340  145.3660 C   0  0  2  0  0  3  0  0  0  0  0  0
  195.7800  169.9720  145.6970 C   0  0  0  0  0  2  0  0  0  0  0  0
  194.6190  170.9020  145.3190 C   0  0  0  0  0  2  0  0  0  0  0  0
  196.8280  170.8200  146.2300 N   0  0  0  0  0  2  0  0  0  0  0  0
  193.2820  174.9260  146.7860 C   0  0  0  0  0  1  0  0  0  0  0  0
  192.5990  176.2530  146.4980 C   0  0  0  0  0  2  0  0  0  0  0  0
  186.0210  176.4580  143.8450 C   0  0  0  0  0  2  0  0  0  0  0  0
  184.9730  177.4700  143.4280 C   0  0  0  0  0  2  0  0  0  0  0  0
  185.5260  178.3470  142.4110 N   0  0  0  0  0  2  0  0  0  0  0  0
  185.3300  177.6910  141.1280 C   0  0  2  0  0  3  0  0  0  0  0  0
  187.7110  177.7690  141.0730 O   0  0  0  0  0  1  0  0  0  0  0  0
  186.7090  177.1190  139.1160 O   0  0  0  0  0  0  0  0  0  0  0  0
  186.6480  177.5310  140.4430 C   0  0  0  0  0  0  0  0  0  0  0  0
  184.3730  178.5090  140.2720 C   0  0  0  0  0  2  0  0  0  0  0  0
  182.9990  178.2410  140.6650 N   0  0  0  0  0  1  0  0  0  0  0  0
  1 17  1  0  0  0  0
  2 17  2  0  0  0  0
  2 12  1  0  0  0  0
  3  8  1  0  0  0  0
  4  9  1  0  0  0  0
  6 16  1  0  0  0  0
  6  1  1  0  0  0  0
  6  3  1  0  0  0  0
  7 10  1  0  0  0  0
  7  5  1  0  0  0  0
  8 31  1  0  0  0  0
  8 11  1  0  0  0  0
  9  3  1  0  0  0  0
 12  7  2  0  0  0  0
 13  6  1  0  0  0  0
 14 11  1  0  0  0  0
 14 10  2  0  0  0  0
 15 13  1  0  0  0  0
 15  4  1  0  0  0  0
 15  9  1  0  0  0  0
 16  1  1  0  0  0  0
 17 14  1  0  0  0  0
 18  4  1  0  0  0  0
 18 21  1  0  0  0  0
 19 18  2  0  0  0  0
 20 18  2  0  0  0  0
 21 23  1  0  0  0  0
 22 21  1  0  0  0  0
 23 26  1  0  0  0  0
 24 29  1  0  0  0  0
 24 25  2  0  0  0  0
 26 24  1  0  0  0  0
 27 29  1  0  0  0  0
 28 26  1  0  0  0  0
 28 27  1  0  0  0  0
 31 30  1  0  0  0  0
 32  2  1  0  0  0  0
 33 32  1  0  0  0  0
 34 33  1  0  0  0  0
 35 34  1  0  0  0  0
 37 38  2  0  0  0  0
 38 36  1  0  0  0  0
 38 35  1  0  0  0  0
 39 40  1  0  0  0  0
 39 35  1  0  0  0  0
M  END
>  <MODEL>
9

>  <REMARK>
 VINA RESULT:      -6.5      3.560      9.038
  Name = 
  11 active torsions:
  status: ('A' for Active; 'I' for Inactive)
    1  A    between atoms: C_1  and  S_7
    2  A    between atoms: C_1  and  C_14
    3  A    between atoms: C_3  and  C_26
    4  A    between atoms: N_4  and  C_25
    5  A    between atoms: N_4  and  CA_30
    6  A    between atoms: C_6  and  S_7
    7  A    between atoms: C_14  and  C_23
    8  A    between atoms: C_17  and  C_34
    9  A    between atoms: C_18  and  CA_30
   10  A    between atoms: C_25  and  C_26
   11  A    between atoms: CA_30  and  C_31
                            x       y       z     vdW  Elec       q    Type
                         _______ _______ _______ _____ _____    ______ ____

>  <TORSDO>
F 11

$$$$
