=
 OpenBabel11042414583D

 39 42  0  0  1  0  0  0  0  0999 V2000
  189.3840  174.9440  145.9380 C   0  0  1  0  0  3  0  0  0  0  0  0
  188.1970  176.6890  144.9730 C   0  0  1  0  0  3  0  0  0  0  0  0
  188.8810  175.0450  143.4470 C   0  0  1  0  0  3  0  0  0  0  0  0
  187.3240  176.7440  143.9700 C   0  0  1  0  0  3  0  0  0  0  0  0
  187.8730  176.8080  146.4170 C   0  0  0  0  0  2  0  0  0  0  0  0
  188.8190  175.8060  147.0700 C   0  0  0  0  0  2  0  0  0  0  0  0
  189.3290  175.8030  144.6900 C   0  0  2  0  0  3  0  0  0  0  0  0
  187.7810  175.9090  142.8250 C   0  0  0  0  0  2  0  0  0  0  0  0
  183.9920  178.0760  142.6020 C   0  0  0  0  0  0  0  0  0  0  0  0
  185.9430  177.3330  144.0280 C   0  0  1  0  0  3  0  0  0  0  0  0
  185.9650  178.7730  144.5230 C   0  0  0  0  0  2  0  0  0  0  0  0
  185.2450  177.2410  142.6720 C   0  0  0  0  0  2  0  0  0  0  0  0
  183.7370  179.0000  143.4870 N   0  0  0  0  0  0  0  0  0  0  0  0
  183.1490  177.9240  141.4580 N   0  0  0  0  0  2  0  0  0  0  0  0
  184.5240  179.2300  144.7000 C   0  0  0  0  0  2  0  0  0  0  0  0
  181.9740  178.6720  141.2840 C   0  0  0  0  0  0  0  0  0  0  0  0
  180.9660  179.3150  141.1340 C   0  0  0  0  0  3  0  0  0  0  0  0
  190.7440  174.4970  146.2250 N   0  0  0  0  0  2  0  0  0  0  0  0
  191.8040  176.5690  145.9640 O   0  0  0  0  0  0  0  0  0  0  0  0
  191.9040  175.3360  146.1940 C   0  0  0  0  0  0  0  0  0  0  0  0
  193.2500  174.7310  146.3790 C   0  0  0  0  0  2  0  0  0  0  0  0
  193.5370  173.8480  145.2630 N   0  0  0  0  0  2  0  0  0  0  0  0
  194.9170  174.0810  144.8620 C   0  0  2  0  0  3  0  0  0  0  0  0
  196.7720  173.6940  146.0100 C   0  0  0  0  0  1  0  0  0  0  0  0
  195.6620  174.5370  145.9560 O   0  0  0  0  0  0  0  0  0  0  0  0
  194.9630  175.0930  143.7580 C   0  0  0  0  0  0  0  0  0  0  0  0
  194.6240  174.7710  142.6310 O   0  0  0  0  0  0  0  0  0  0  0  0
  196.7320  176.6890  143.3830 N   0  0  0  0  0  1  0  0  0  0  0  0
  195.4440  176.4830  144.0210 C   0  0  0  0  0  2  0  0  0  0  0  0
  190.0170  174.8290  142.4930 C   0  0  1  0  0  3  0  0  0  0  0  0
  189.7770  174.1640  141.3700 C   0  0  0  0  0  3  0  0  0  0  0  0
  190.8110  173.9420  140.4120 N   0  0  0  0  0  0  0  0  0  0  0  0
  191.5000  173.3600  138.2760 O   0  0  0  0  0  0  0  0  0  0  0  0
  190.5590  173.4010  139.1150 C   0  0  0  0  0  0  0  0  0  0  0  0
  188.4240  174.0120  137.9870 C   0  0  0  0  0  2  0  0  0  0  0  0
  189.1870  172.9280  138.7280 C   0  0  0  0  0  3  0  0  0  0  0  0
  189.0760  172.8900  137.2140 C   0  0  0  0  0  2  0  0  0  0  0  0
  191.6360  176.5890  142.5610 O   0  0  0  0  0  1  0  0  0  0  0  0
  191.3070  175.3060  142.7550 O   0  0  0  0  0  0  0  0  0  0  0  0
  1 18  1  1  0  0  0
  1  6  1  0  0  0  0
  2  5  1  1  0  0  0
  3 30  1  6  0  0  0
  3  7  1  0  0  0  0
  4  8  1  1  0  0  0
  4 10  1  0  0  0  0
  4  2  1  0  0  0  0
  5  6  1  0  0  0  0
  7  2  1  0  0  0  0
  7  1  1  0  0  0  0
  8  3  1  0  0  0  0
  9 12  1  0  0  0  0
  9 13  2  0  0  0  0
 10 11  1  0  0  0  0
 11 15  1  0  0  0  0
 12 10  1  0  0  0  0
 13 15  1  0  0  0  0
 14  9  1  0  0  0  0
 16 14  1  0  0  0  0
 17 16  3  0  0  0  0
 19 20  2  0  0  0  0
 20 18  1  0  0  0  0
 20 21  1  0  0  0  0
 22 21  1  0  0  0  0
 23 22  1  0  0  0  0
 23 25  1  0  0  0  0
 25 24  1  0  0  0  0
 26 29  1  0  0  0  0
 26 23  1  0  0  0  0
 27 26  2  0  0  0  0
 28 29  1  0  0  0  0
 30 39  1  0  0  0  0
 31 30  1  0  0  0  0
 32 31  2  0  0  0  0
 33 34  2  0  0  0  0
 34 32  1  0  0  0  0
 35 36  1  0  0  0  0
 36 34  1  0  0  0  0
 37 35  1  0  0  0  0
 37 36  1  0  0  0  0
 38 39  1  0  0  0  0
M  END
>  <MODEL>
1

>  <REMARK>
 VINA RESULT:      -6.6      0.000      0.000
  Name = 
  13 active torsions:
  status: ('A' for Active; 'I' for Inactive)
    1  A    between atoms: N_3  and  C_37
    2  A    between atoms: C_4  and  N_22
    3  A    between atoms: C_6  and  C_12
    4  A    between atoms: C_6  and  C_31
    5  A    between atoms: C_7  and  N_20
    6  A    between atoms: C_7  and  C_39
    7  A    between atoms: C_10  and  C_15
    8  A    between atoms: C_11  and  C_23
    9  A    between atoms: C_12  and  N_20
   10  A    between atoms: C_12  and  O_24
   11  A    between atoms: C_17  and  C_18
   12  A    between atoms: C_17  and  O_33
   13  A    between atoms: C_27  and  N_32
                            x       y       z     vdW  Elec       q    Type
                         _______ _______ _______ _____ _____    ______ ____

>  <TORSDO>
F 13

$$$$
=
 OpenBabel11042414583D

 39 42  0  0  1  0  0  0  0  0999 V2000
  189.2460  174.9930  146.0350 C   0  0  1  0  0  3  0  0  0  0  0  0
  188.0650  176.7210  145.0340 C   0  0  1  0  0  3  0  0  0  0  0  0
  188.8740  175.1220  143.5210 C   0  0  1  0  0  3  0  0  0  0  0  0
  187.2450  176.7700  143.9860 C   0  0  1  0  0  3  0  0  0  0  0  0
  187.6610  176.8070  146.4600 C   0  0  0  0  0  2  0  0  0  0  0  0
  188.5980  175.8200  147.1470 C   0  0  0  0  0  2  0  0  0  0  0  0
  189.2340  175.8710  144.7980 C   0  0  2  0  0  3  0  0  0  0  0  0
  187.7860  175.9670  142.8550 C   0  0  0  0  0  2  0  0  0  0  0  0
  183.9640  178.0550  142.4620 C   0  0  0  0  0  0  0  0  0  0  0  0
  185.8470  177.3210  143.9790 C   0  0  1  0  0  3  0  0  0  0  0  0
  185.8000  178.7460  144.5150 C   0  0  0  0  0  2  0  0  0  0  0  0
  185.2320  177.2510  142.5810 C   0  0  0  0  0  2  0  0  0  0  0  0
  183.6310  178.9450  143.3560 N   0  0  0  0  0  0  0  0  0  0  0  0
  183.1930  177.9160  141.2660 N   0  0  0  0  0  2  0  0  0  0  0  0
  184.3400  179.1590  144.6200 C   0  0  0  0  0  2  0  0  0  0  0  0
  182.0100  178.6380  141.0440 C   0  0  0  0  0  0  0  0  0  0  0  0
  180.9940  179.2560  140.8520 C   0  0  0  0  0  3  0  0  0  0  0  0
  190.6000  174.5780  146.3870 N   0  0  0  0  0  2  0  0  0  0  0  0
  191.6280  176.6710  146.1570 O   0  0  0  0  0  0  0  0  0  0  0  0
  191.7430  175.4410  146.4020 C   0  0  0  0  0  0  0  0  0  0  0  0
  193.0920  174.8670  146.6530 C   0  0  0  0  0  2  0  0  0  0  0  0
  193.8090  174.7580  145.3960 N   0  0  0  0  0  2  0  0  0  0  0  0
  195.1760  175.2030  145.6310 C   0  0  2  0  0  3  0  0  0  0  0  0
  194.8000  175.8390  143.5430 C   0  0  0  0  0  1  0  0  0  0  0  0
  195.5340  176.1670  144.6820 O   0  0  0  0  0  0  0  0  0  0  0  0
  196.1120  174.0360  145.5500 C   0  0  0  0  0  0  0  0  0  0  0  0
  197.3150  174.2320  145.4840 O   0  0  0  0  0  0  0  0  0  0  0  0
  196.6260  171.7100  145.9230 N   0  0  0  0  0  1  0  0  0  0  0  0
  195.5840  172.6380  145.5240 C   0  0  0  0  0  2  0  0  0  0  0  0
  190.0650  174.9530  142.6270 C   0  0  0  0  0  0  0  0  0  0  0  0
  189.9350  174.1980  141.5430 C   0  0  0  0  0  3  0  0  0  0  0  0
  191.0240  174.0130  140.6410 N   0  0  0  0  0  2  0  0  0  0  0  0
  192.6750  172.6790  139.7080 O   0  0  0  0  0  0  0  0  0  0  0  0
  191.8180  172.8260  140.6210 C   0  0  0  0  0  0  0  0  0  0  0  0
  190.7410  170.6280  141.0820 C   0  0  0  0  0  2  0  0  0  0  0  0
  191.6120  171.7410  141.6390 C   0  0  0  0  0  3  0  0  0  0  0  0
  192.2410  170.4540  141.1360 C   0  0  0  0  0  2  0  0  0  0  0  0
  191.5270  176.8460  142.5970 O   0  0  0  0  0  1  0  0  0  0  0  0
  191.2940  175.5640  142.9040 O   0  0  0  0  0  0  0  0  0  0  0  0
  1 18  1  1  0  0  0
  1  6  1  0  0  0  0
  2  5  1  1  0  0  0
  3 30  1  6  0  0  0
  3  7  1  0  0  0  0
  4  8  1  1  0  0  0
  4  2  1  0  0  0  0
  5  6  1  0  0  0  0
  7  2  1  0  0  0  0
  7  1  1  0  0  0  0
  8  3  1  0  0  0  0
  9 12  1  0  0  0  0
  9 13  2  0  0  0  0
 10  4  1  0  0  0  0
 10 11  1  0  0  0  0
 11 15  1  0  0  0  0
 12 10  1  0  0  0  0
 13 15  1  0  0  0  0
 14  9  1  0  0  0  0
 16 14  1  0  0  0  0
 17 16  3  0  0  0  0
 18 20  1  0  0  0  0
 19 20  2  0  0  0  0
 20 21  1  0  0  0  0
 22 23  1  0  0  0  0
 22 21  1  0  0  0  0
 24 25  1  0  0  0  0
 25 23  1  0  0  0  0
 26 23  1  0  0  0  0
 27 26  2  0  0  0  0
 29 26  1  0  0  0  0
 29 28  1  0  0  0  0
 30 39  1  0  0  0  0
 31 30  2  0  0  0  0
 32 31  1  0  0  0  0
 33 34  2  0  0  0  0
 34 32  1  0  0  0  0
 34 36  1  0  0  0  0
 35 37  1  0  0  0  0
 35 36  1  0  0  0  0
 37 36  1  0  0  0  0
 38 39  1  0  0  0  0
M  END
>  <MODEL>
2

>  <REMARK>
 VINA RESULT:      -6.4      1.477      2.113
  Name = 
  13 active torsions:
  status: ('A' for Active; 'I' for Inactive)
    1  A    between atoms: N_3  and  C_37
    2  A    between atoms: C_4  and  N_22
    3  A    between atoms: C_6  and  C_12
    4  A    between atoms: C_6  and  C_31
    5  A    between atoms: C_7  and  N_20
    6  A    between atoms: C_7  and  C_39
    7  A    between atoms: C_10  and  C_15
    8  A    between atoms: C_11  and  C_23
    9  A    between atoms: C_12  and  N_20
   10  A    between atoms: C_12  and  O_24
   11  A    between atoms: C_17  and  C_18
   12  A    between atoms: C_17  and  O_33
   13  A    between atoms: C_27  and  N_32
                            x       y       z     vdW  Elec       q    Type
                         _______ _______ _______ _____ _____    ______ ____

>  <TORSDO>
F 13

$$$$
=
 OpenBabel11042414583D

 39 42  0  0  1  0  0  0  0  0999 V2000
  191.7300  173.2070  143.8390 C   0  0  1  0  0  3  0  0  0  0  0  0
  190.5130  174.4000  145.4150 C   0  0  1  0  0  3  0  0  0  0  0  0
  192.1250  175.6790  144.2910 C   0  0  1  0  0  3  0  0  0  0  0  0
  190.0690  175.6540  145.4550 C   0  0  1  0  0  3  0  0  0  0  0  0
  189.6840  173.1910  145.1810 C   0  0  0  0  0  2  0  0  0  0  0  0
  190.5850  172.3120  144.3190 C   0  0  0  0  0  2  0  0  0  0  0  0
  191.8740  174.2990  144.8820 C   0  0  2  0  0  3  0  0  0  0  0  0
  191.1160  176.6010  144.9800 C   0  0  0  0  0  2  0  0  0  0  0  0
  186.6820  177.2590  144.6210 C   0  0  0  0  0  0  0  0  0  0  0  0
  188.6490  176.0860  145.6900 C   0  0  1  0  0  3  0  0  0  0  0  0
  188.5580  177.1730  146.7520 C   0  0  0  0  0  2  0  0  0  0  0  0
  187.9880  176.5450  144.3900 C   0  0  0  0  0  2  0  0  0  0  0  0
  186.3420  177.6990  145.8020 N   0  0  0  0  0  0  0  0  0  0  0  0
  185.8760  177.5660  143.4810 N   0  0  0  0  0  2  0  0  0  0  0  0
  187.0850  177.4300  147.0350 C   0  0  0  0  0  2  0  0  0  0  0  0
  184.6550  178.2510  143.5840 C   0  0  0  0  0  0  0  0  0  0  0  0
  183.6060  178.8370  143.6720 C   0  0  0  0  0  3  0  0  0  0  0  0
  192.9700  172.4560  143.6720 N   0  0  0  0  0  2  0  0  0  0  0  0
  192.9200  172.3070  141.3340 O   0  0  0  0  0  0  0  0  0  0  0  0
  193.4940  172.0110  142.4140 C   0  0  0  0  0  0  0  0  0  0  0  0
  194.7000  171.1420  142.3900 C   0  0  0  0  0  2  0  0  0  0  0  0
  195.8070  171.8380  143.0200 N   0  0  0  0  0  2  0  0  0  0  0  0
  196.3650  170.9520  144.0310 C   0  0  2  0  0  3  0  0  0  0  0  0
  196.9230  168.8120  144.1630 C   0  0  0  0  0  1  0  0  0  0  0  0
  195.8550  169.6580  143.8660 O   0  0  0  0  0  0  0  0  0  0  0  0
  196.0290  171.4610  145.3990 C   0  0  0  0  0  0  0  0  0  0  0  0
  195.0170  171.0680  145.9560 O   0  0  0  0  0  0  0  0  0  0  0  0
  196.3340  173.7900  145.9430 N   0  0  0  0  0  1  0  0  0  0  0  0
  196.9080  172.4630  146.0740 C   0  0  0  0  0  2  0  0  0  0  0  0
  193.5350  176.1320  144.5270 C   0  0  2  0  0  3  0  0  0  0  0  0
  194.4110  175.9990  143.5380 C   0  0  0  0  0  3  0  0  0  0  0  0
  195.7630  176.4280  143.6920 N   0  0  0  0  0  0  0  0  0  0  0  0
  197.9410  176.5720  142.9120 O   0  0  0  0  0  0  0  0  0  0  0  0
  196.8020  176.0460  142.7900 C   0  0  0  0  0  0  0  0  0  0  0  0
  196.3640  175.7850  140.3510 C   0  0  0  0  0  2  0  0  0  0  0  0
  196.5410  175.0690  141.6790 C   0  0  0  0  0  3  0  0  0  0  0  0
  197.6830  175.1260  140.6810 C   0  0  0  0  0  2  0  0  0  0  0  0
  193.8690  175.9930  146.8910 O   0  0  0  0  0  1  0  0  0  0  0  0
  193.9430  176.6830  145.7460 O   0  0  0  0  0  0  0  0  0  0  0  0
  1 18  1  1  0  0  0
  1  6  1  0  0  0  0
  1  7  1  0  0  0  0
  2  5  1  6  0  0  0
  2  4  1  0  0  0  0
  3 30  1  1  0  0  0
  3  7  1  0  0  0  0
  3  8  1  0  0  0  0
  4  8  1  6  0  0  0
  4 10  1  0  0  0  0
  6  5  1  0  0  0  0
  7  2  1  0  0  0  0
  9 13  2  0  0  0  0
 10 11  1  0  0  0  0
 11 15  1  0  0  0  0
 12  9  1  0  0  0  0
 12 10  1  0  0  0  0
 13 15  1  0  0  0  0
 14 16  1  0  0  0  0
 14  9  1  0  0  0  0
 16 17  3  0  0  0  0
 19 20  2  0  0  0  0
 20 18  1  0  0  0  0
 21 20  1  0  0  0  0
 21 22  1  0  0  0  0
 22 23  1  0  0  0  0
 23 26  1  0  0  0  0
 25 23  1  0  0  0  0
 25 24  1  0  0  0  0
 26 27  2  0  0  0  0
 26 29  1  0  0  0  0
 28 29  1  0  0  0  0
 30 39  1  0  0  0  0
 31 32  2  0  0  0  0
 31 30  1  0  0  0  0
 34 33  2  0  0  0  0
 34 32  1  0  0  0  0
 35 37  1  0  0  0  0
 35 36  1  0  0  0  0
 36 34  1  0  0  0  0
 37 36  1  0  0  0  0
 39 38  1  0  0  0  0
M  END
>  <MODEL>
3

>  <REMARK>
 VINA RESULT:      -6.2      2.984      5.062
  Name = 
  13 active torsions:
  status: ('A' for Active; 'I' for Inactive)
    1  A    between atoms: N_3  and  C_37
    2  A    between atoms: C_4  and  N_22
    3  A    between atoms: C_6  and  C_12
    4  A    between atoms: C_6  and  C_31
    5  A    between atoms: C_7  and  N_20
    6  A    between atoms: C_7  and  C_39
    7  A    between atoms: C_10  and  C_15
    8  A    between atoms: C_11  and  C_23
    9  A    between atoms: C_12  and  N_20
   10  A    between atoms: C_12  and  O_24
   11  A    between atoms: C_17  and  C_18
   12  A    between atoms: C_17  and  O_33
   13  A    between atoms: C_27  and  N_32
                            x       y       z     vdW  Elec       q    Type
                         _______ _______ _______ _____ _____    ______ ____

>  <TORSDO>
F 13

$$$$
=
 OpenBabel11042414583D

 39 42  0  0  1  0  0  0  0  0999 V2000
  190.2310  176.0760  145.1100 C   0  0  1  0  0  3  0  0  0  0  0  0
  189.4780  176.5530  142.9680 C   0  0  1  0  0  3  0  0  0  0  0  0
  189.0940  174.3390  143.6400 C   0  0  1  0  0  3  0  0  0  0  0  0
  188.4240  176.1430  142.2670 C   0  0  1  0  0  3  0  0  0  0  0  0
  189.6460  177.8950  143.5820 C   0  0  0  0  0  2  0  0  0  0  0  0
  190.3440  177.5880  144.9030 C   0  0  0  0  0  2  0  0  0  0  0  0
  190.1100  175.4710  143.7250 C   0  0  2  0  0  3  0  0  0  0  0  0
  188.2210  174.6760  142.4280 C   0  0  0  0  0  2  0  0  0  0  0  0
  184.9570  177.6580  141.6150 C   0  0  0  0  0  0  0  0  0  0  0  0
  187.4030  177.0230  141.6020 C   0  0  1  0  0  3  0  0  0  0  0  0
  187.1580  176.6100  140.1570 C   0  0  0  0  0  2  0  0  0  0  0  0
  186.0920  177.0390  142.3880 C   0  0  0  0  0  2  0  0  0  0  0  0
  185.0320  177.8520  140.3260 N   0  0  0  0  0  0  0  0  0  0  0  0
  183.7320  177.9070  142.3070 N   0  0  0  0  0  2  0  0  0  0  0  0
  186.2400  177.6440  139.5240 C   0  0  0  0  0  2  0  0  0  0  0  0
  182.6060  178.4570  141.6740 C   0  0  0  0  0  0  0  0  0  0  0  0
  181.6390  178.9290  141.1310 C   0  0  0  0  0  3  0  0  0  0  0  0
  191.3810  175.5420  145.8330 N   0  0  0  0  0  2  0  0  0  0  0  0
  193.0470  176.3880  144.4200 O   0  0  0  0  0  0  0  0  0  0  0  0
  192.7470  175.7010  145.4310 C   0  0  0  0  0  0  0  0  0  0  0  0
  193.8190  174.9970  146.1840 C   0  0  0  0  0  2  0  0  0  0  0  0
  195.1140  175.4810  145.7410 N   0  0  0  0  0  2  0  0  0  0  0  0
  195.8020  174.3700  145.0990 C   0  0  2  0  0  3  0  0  0  0  0  0
  196.9430  172.6800  145.9660 C   0  0  0  0  0  1  0  0  0  0  0  0
  196.9740  174.0640  145.8010 O   0  0  0  0  0  0  0  0  0  0  0  0
  196.1340  174.7250  143.6830 C   0  0  0  0  0  0  0  0  0  0  0  0
  195.4390  174.3000  142.7750 O   0  0  0  0  0  0  0  0  0  0  0  0
  196.9010  176.9400  143.1160 N   0  0  0  0  0  1  0  0  0  0  0  0
  197.3240  175.5750  143.3720 C   0  0  0  0  0  2  0  0  0  0  0  0
  189.7630  173.0070  143.4830 C   0  0  0  0  0  0  0  0  0  0  0  0
  189.6980  172.4070  142.3010 C   0  0  0  0  0  3  0  0  0  0  0  0
  190.3310  171.1480  142.0800 N   0  0  0  0  0  2  0  0  0  0  0  0
  191.9670  169.8540  141.0680 O   0  0  0  0  0  0  0  0  0  0  0  0
  191.3640  170.9600  141.1120 C   0  0  0  0  0  0  0  0  0  0  0  0
  192.9360  172.8580  140.7520 C   0  0  0  0  0  2  0  0  0  0  0  0
  191.7660  172.0730  140.1860 C   0  0  0  0  0  3  0  0  0  0  0  0
  193.1750  171.8210  139.6800 C   0  0  0  0  0  2  0  0  0  0  0  0
  191.7810  172.4010  144.6150 O   0  0  0  0  0  1  0  0  0  0  0  0
  190.4450  172.3900  144.5380 O   0  0  0  0  0  0  0  0  0  0  0  0
  1 18  1  6  0  0  0
  2  5  1  1  0  0  0
  2  7  1  0  0  0  0
  3 30  1  6  0  0  0
  3  7  1  0  0  0  0
  4  8  1  1  0  0  0
  4  2  1  0  0  0  0
  5  6  1  0  0  0  0
  6  1  1  0  0  0  0
  7  1  1  0  0  0  0
  8  3  1  0  0  0  0
  9 14  1  0  0  0  0
  9 12  1  0  0  0  0
 10  4  1  0  0  0  0
 10 12  1  0  0  0  0
 11 10  1  0  0  0  0
 13  9  2  0  0  0  0
 15 11  1  0  0  0  0
 15 13  1  0  0  0  0
 16 14  1  0  0  0  0
 17 16  3  0  0  0  0
 19 20  2  0  0  0  0
 20 18  1  0  0  0  0
 20 21  1  0  0  0  0
 22 21  1  0  0  0  0
 23 22  1  0  0  0  0
 23 25  1  0  0  0  0
 25 24  1  0  0  0  0
 26 23  1  0  0  0  0
 27 26  2  0  0  0  0
 28 29  1  0  0  0  0
 29 26  1  0  0  0  0
 30 39  1  0  0  0  0
 31 30  2  0  0  0  0
 32 31  1  0  0  0  0
 33 34  2  0  0  0  0
 34 32  1  0  0  0  0
 36 35  1  0  0  0  0
 36 34  1  0  0  0  0
 37 36  1  0  0  0  0
 37 35  1  0  0  0  0
 39 38  1  0  0  0  0
M  END
>  <MODEL>
4

>  <REMARK>
 VINA RESULT:      -6.0      2.109      2.748
  Name = 
  13 active torsions:
  status: ('A' for Active; 'I' for Inactive)
    1  A    between atoms: N_3  and  C_37
    2  A    between atoms: C_4  and  N_22
    3  A    between atoms: C_6  and  C_12
    4  A    between atoms: C_6  and  C_31
    5  A    between atoms: C_7  and  N_20
    6  A    between atoms: C_7  and  C_39
    7  A    between atoms: C_10  and  C_15
    8  A    between atoms: C_11  and  C_23
    9  A    between atoms: C_12  and  N_20
   10  A    between atoms: C_12  and  O_24
   11  A    between atoms: C_17  and  C_18
   12  A    between atoms: C_17  and  O_33
   13  A    between atoms: C_27  and  N_32
                            x       y       z     vdW  Elec       q    Type
                         _______ _______ _______ _____ _____    ______ ____

>  <TORSDO>
F 13

$$$$
=
 OpenBabel11042414583D

 39 42  0  0  1  0  0  0  0  0999 V2000
  193.0540  175.5670  144.3000 C   0  0  1  0  0  3  0  0  0  0  0  0
  191.4800  176.7640  143.0880 C   0  0  1  0  0  3  0  0  0  0  0  0
  191.3500  174.4430  142.7830 C   0  0  1  0  0  3  0  0  0  0  0  0
  190.2160  176.5160  142.7510 C   0  0  1  0  0  3  0  0  0  0  0  0
  191.9320  177.7330  144.1180 C   0  0  0  0  0  2  0  0  0  0  0  0
  193.1140  177.0220  144.7690 C   0  0  0  0  0  2  0  0  0  0  0  0
  192.3400  175.5860  142.9630 C   0  0  2  0  0  3  0  0  0  0  0  0
  190.0560  175.1050  142.3020 C   0  0  0  0  0  2  0  0  0  0  0  0
  186.9830  177.6910  144.4580 C   0  0  0  0  0  0  0  0  0  0  0  0
  189.0360  177.4100  143.0120 C   0  0  1  0  0  3  0  0  0  0  0  0
  188.0580  177.4070  141.8450 C   0  0  0  0  0  2  0  0  0  0  0  0
  188.3280  177.0270  144.3100 C   0  0  0  0  0  2  0  0  0  0  0  0
  186.3850  178.2590  143.4460 N   0  0  0  0  0  0  0  0  0  0  0  0
  186.3090  177.5650  145.7120 N   0  0  0  0  0  2  0  0  0  0  0  0
  186.9890  178.4530  142.1260 C   0  0  0  0  0  2  0  0  0  0  0  0
  185.0420  178.1230  145.9460 C   0  0  0  0  0  0  0  0  0  0  0  0
  183.9550  178.6030  146.1480 C   0  0  0  0  0  3  0  0  0  0  0  0
  194.3860  174.9780  144.1920 N   0  0  0  0  0  2  0  0  0  0  0  0
  194.9870  175.1710  146.4480 O   0  0  0  0  0  0  0  0  0  0  0  0
  195.3080  174.8350  145.2780 C   0  0  0  0  0  0  0  0  0  0  0  0
  196.6840  174.3370  145.0100 C   0  0  0  0  0  2  0  0  0  0  0  0
  197.0290  173.3270  145.9940 N   0  0  0  0  0  2  0  0  0  0  0  0
  197.1780  172.0610  145.2890 C   0  0  2  0  0  3  0  0  0  0  0  0
  197.9370  171.3510  143.3330 C   0  0  0  0  0  1  0  0  0  0  0  0
  197.0560  172.2650  143.9100 O   0  0  0  0  0  0  0  0  0  0  0  0
  196.1340  171.0930  145.7550 C   0  0  0  0  0  0  0  0  0  0  0  0
  194.9680  171.2650  145.4390 O   0  0  0  0  0  0  0  0  0  0  0  0
  197.7120  169.3050  146.1140 N   0  0  0  0  0  1  0  0  0  0  0  0
  196.5070  169.9340  146.6220 C   0  0  0  0  0  2  0  0  0  0  0  0
  191.8490  173.4300  141.7970 C   0  0  0  0  0  0  0  0  0  0  0  0
  191.1650  172.3010  141.6550 C   0  0  0  0  0  3  0  0  0  0  0  0
  191.5760  171.3060  140.7200 N   0  0  0  0  0  2  0  0  0  0  0  0
  191.4480  170.3200  138.6250 O   0  0  0  0  0  0  0  0  0  0  0  0
  190.9440  171.1280  139.4520 C   0  0  0  0  0  0  0  0  0  0  0  0
  190.1000  173.1620  138.2880 C   0  0  0  0  0  2  0  0  0  0  0  0
  189.7240  171.9210  139.0790 C   0  0  0  0  0  3  0  0  0  0  0  0
  189.5800  171.9400  137.5680 C   0  0  0  0  0  2  0  0  0  0  0  0
  192.9620  174.2880  139.8610 O   0  0  0  0  0  1  0  0  0  0  0  0
  193.0030  173.6430  141.0340 O   0  0  0  0  0  0  0  0  0  0  0  0
  1 18  1  6  0  0  0
  1  6  1  0  0  0  0
  2  5  1  1  0  0  0
  3 30  1  6  0  0  0
  3  7  1  0  0  0  0
  4  8  1  1  0  0  0
  4 10  1  0  0  0  0
  4  2  1  0  0  0  0
  5  6  1  0  0  0  0
  7  2  1  0  0  0  0
  7  1  1  0  0  0  0
  8  3  1  0  0  0  0
  9 14  1  0  0  0  0
 10 12  1  0  0  0  0
 11 15  1  0  0  0  0
 11 10  1  0  0  0  0
 12  9  1  0  0  0  0
 13  9  2  0  0  0  0
 14 16  1  0  0  0  0
 15 13  1  0  0  0  0
 16 17  3  0  0  0  0
 18 20  1  0  0  0  0
 20 19  2  0  0  0  0
 21 20  1  0  0  0  0
 21 22  1  0  0  0  0
 23 26  1  0  0  0  0
 23 22  1  0  0  0  0
 24 25  1  0  0  0  0
 25 23  1  0  0  0  0
 26 29  1  0  0  0  0
 27 26  2  0  0  0  0
 28 29  1  0  0  0  0
 31 30  2  0  0  0  0
 32 31  1  0  0  0  0
 33 34  2  0  0  0  0
 34 32  1  0  0  0  0
 35 36  1  0  0  0  0
 36 34  1  0  0  0  0
 37 35  1  0  0  0  0
 37 36  1  0  0  0  0
 38 39  1  0  0  0  0
 39 30  1  0  0  0  0
M  END
>  <MODEL>
5

>  <REMARK>
 VINA RESULT:      -5.9      2.522      3.923
  Name = 
  13 active torsions:
  status: ('A' for Active; 'I' for Inactive)
    1  A    between atoms: N_3  and  C_37
    2  A    between atoms: C_4  and  N_22
    3  A    between atoms: C_6  and  C_12
    4  A    between atoms: C_6  and  C_31
    5  A    between atoms: C_7  and  N_20
    6  A    between atoms: C_7  and  C_39
    7  A    between atoms: C_10  and  C_15
    8  A    between atoms: C_11  and  C_23
    9  A    between atoms: C_12  and  N_20
   10  A    between atoms: C_12  and  O_24
   11  A    between atoms: C_17  and  C_18
   12  A    between atoms: C_17  and  O_33
   13  A    between atoms: C_27  and  N_32
                            x       y       z     vdW  Elec       q    Type
                         _______ _______ _______ _____ _____    ______ ____

>  <TORSDO>
F 13

$$$$
=
 OpenBabel11042414583D

 39 42  0  0  1  0  0  0  0  0999 V2000
  191.7730  177.1590  144.4820 C   0  0  1  0  0  3  0  0  0  0  0  0
  189.6660  176.5750  143.7040 C   0  0  1  0  0  3  0  0  0  0  0  0
  190.6970  174.9130  144.9990 C   0  0  1  0  0  3  0  0  0  0  0  0
  188.6730  175.8610  144.2300 C   0  0  1  0  0  3  0  0  0  0  0  0
  189.6920  178.0520  143.5550 C   0  0  0  0  0  2  0  0  0  0  0  0
  191.1440  178.4070  143.8570 C   0  0  0  0  0  2  0  0  0  0  0  0
  190.9820  175.9800  143.9500 C   0  0  2  0  0  3  0  0  0  0  0  0
  189.1970  174.6310  144.8860 C   0  0  0  0  0  2  0  0  0  0  0  0
  185.3090  177.3890  143.1850 C   0  0  0  0  0  0  0  0  0  0  0  0
  187.2480  176.3100  144.3940 C   0  0  1  0  0  3  0  0  0  0  0  0
  187.1340  177.4820  145.3600 C   0  0  0  0  0  2  0  0  0  0  0  0
  186.6200  176.6590  143.0460 C   0  0  0  0  0  2  0  0  0  0  0  0
  184.9420  177.9260  144.3170 N   0  0  0  0  0  0  0  0  0  0  0  0
  184.5310  177.6000  142.0050 N   0  0  0  0  0  2  0  0  0  0  0  0
  185.6550  177.7600  145.5850 C   0  0  0  0  0  2  0  0  0  0  0  0
  183.3090  178.2900  142.0210 C   0  0  0  0  0  0  0  0  0  0  0  0
  182.2610  178.8830  142.0370 C   0  0  0  0  0  3  0  0  0  0  0  0
  193.1920  177.0470  144.1560 N   0  0  0  0  0  2  0  0  0  0  0  0
  194.0080  177.0620  146.3520 O   0  0  0  0  0  0  0  0  0  0  0  0
  194.2540  177.0340  145.1180 C   0  0  0  0  0  0  0  0  0  0  0  0
  195.6650  177.0460  144.6500 C   0  0  0  0  0  2  0  0  0  0  0  0
  195.7940  176.1830  143.4910 N   0  0  0  0  0  2  0  0  0  0  0  0
  195.9340  174.8170  143.9740 C   0  0  2  0  0  3  0  0  0  0  0  0
  196.8600  173.7690  145.6920 C   0  0  0  0  0  1  0  0  0  0  0  0
  197.1390  174.6780  144.6720 O   0  0  0  0  0  0  0  0  0  0  0  0
  195.9010  173.8620  142.8200 C   0  0  0  0  0  0  0  0  0  0  0  0
  196.9040  173.6960  142.1460 O   0  0  0  0  0  0  0  0  0  0  0  0
  193.6780  174.0520  141.9050 N   0  0  0  0  0  1  0  0  0  0  0  0
  194.6430  173.1310  142.4750 C   0  0  0  0  0  2  0  0  0  0  0  0
  191.5090  173.6760  144.7620 C   0  0  0  0  0  0  0  0  0  0  0  0
  190.9850  172.7140  144.0120 C   0  0  0  0  0  3  0  0  0  0  0  0
  191.7140  171.5200  143.7320 N   0  0  0  0  0  2  0  0  0  0  0  0
  192.2810  169.7830  142.3060 O   0  0  0  0  0  0  0  0  0  0  0  0
  191.5080  170.7480  142.5490 C   0  0  0  0  0  0  0  0  0  0  0  0
  190.9330  172.0290  140.4910 C   0  0  0  0  0  2  0  0  0  0  0  0
  190.4180  171.1000  141.5770 C   0  0  0  0  0  3  0  0  0  0  0  0
  190.7730  170.5550  140.2050 C   0  0  0  0  0  2  0  0  0  0  0  0
  193.1580  174.1280  146.4350 O   0  0  0  0  0  1  0  0  0  0  0  0
  192.7890  173.5120  145.3050 O   0  0  0  0  0  0  0  0  0  0  0  0
  1 18  1  6  0  0  0
  2  5  1  1  0  0  0
  2  7  1  0  0  0  0
  2  4  1  0  0  0  0
  3 30  1  6  0  0  0
  4 10  1  0  0  0  0
  4  8  1  1  0  0  0
  5  6  1  0  0  0  0
  6  1  1  0  0  0  0
  7  1  1  0  0  0  0
  7  3  1  0  0  0  0
  8  3  1  0  0  0  0
  9 13  2  0  0  0  0
 10 11  1  0  0  0  0
 11 15  1  0  0  0  0
 12  9  1  0  0  0  0
 12 10  1  0  0  0  0
 13 15  1  0  0  0  0
 14 16  1  0  0  0  0
 14  9  1  0  0  0  0
 16 17  3  0  0  0  0
 18 20  1  0  0  0  0
 20 19  2  0  0  0  0
 21 20  1  0  0  0  0
 22 23  1  0  0  0  0
 22 21  1  0  0  0  0
 23 25  1  0  0  0  0
 25 24  1  0  0  0  0
 26 23  1  0  0  0  0
 27 26  2  0  0  0  0
 28 29  1  0  0  0  0
 29 26  1  0  0  0  0
 30 39  1  0  0  0  0
 31 30  2  0  0  0  0
 32 31  1  0  0  0  0
 33 34  2  0  0  0  0
 34 32  1  0  0  0  0
 35 36  1  0  0  0  0
 36 34  1  0  0  0  0
 37 35  1  0  0  0  0
 37 36  1  0  0  0  0
 39 38  1  0  0  0  0
M  END
>  <MODEL>
6

>  <REMARK>
 VINA RESULT:      -5.8      2.347      3.101
  Name = 
  13 active torsions:
  status: ('A' for Active; 'I' for Inactive)
    1  A    between atoms: N_3  and  C_37
    2  A    between atoms: C_4  and  N_22
    3  A    between atoms: C_6  and  C_12
    4  A    between atoms: C_6  and  C_31
    5  A    between atoms: C_7  and  N_20
    6  A    between atoms: C_7  and  C_39
    7  A    between atoms: C_10  and  C_15
    8  A    between atoms: C_11  and  C_23
    9  A    between atoms: C_12  and  N_20
   10  A    between atoms: C_12  and  O_24
   11  A    between atoms: C_17  and  C_18
   12  A    between atoms: C_17  and  O_33
   13  A    between atoms: C_27  and  N_32
                            x       y       z     vdW  Elec       q    Type
                         _______ _______ _______ _____ _____    ______ ____

>  <TORSDO>
F 13

$$$$
=
 OpenBabel11042414583D

 39 42  0  0  1  0  0  0  0  0999 V2000
  192.2560  175.0060  141.9760 C   0  0  1  0  0  3  0  0  0  0  0  0
  190.8260  174.7380  143.7840 C   0  0  1  0  0  3  0  0  0  0  0  0
  192.5870  176.2350  144.1790 C   0  0  1  0  0  3  0  0  0  0  0  0
  190.3840  175.5750  144.7200 C   0  0  1  0  0  3  0  0  0  0  0  0
  190.0360  174.2180  142.6390 C   0  0  0  0  0  2  0  0  0  0  0  0
  191.0510  174.1920  141.5000 C   0  0  0  0  0  2  0  0  0  0  0  0
  192.2490  174.9190  143.4900 C   0  0  2  0  0  3  0  0  0  0  0  0
  191.4910  176.4310  145.2290 C   0  0  0  0  0  2  0  0  0  0  0  0
  187.0010  177.3880  144.6140 C   0  0  0  0  0  0  0  0  0  0  0  0
  188.9450  175.8390  145.0670 C   0  0  1  0  0  3  0  0  0  0  0  0
  188.7850  176.2680  146.5190 C   0  0  0  0  0  2  0  0  0  0  0  0
  188.3310  176.8760  144.1270 C   0  0  0  0  0  2  0  0  0  0  0  0
  186.6010  177.1950  145.8410 N   0  0  0  0  0  0  0  0  0  0  0  0
  186.2380  178.2150  143.7320 N   0  0  0  0  0  2  0  0  0  0  0  0
  187.2960  176.3560  146.8200 C   0  0  0  0  0  2  0  0  0  0  0  0
  184.9990  178.7640  144.0970 C   0  0  0  0  0  0  0  0  0  0  0  0
  183.9340  179.2340  144.4090 C   0  0  0  0  0  3  0  0  0  0  0  0
  193.5050  174.5040  141.4130 N   0  0  0  0  0  2  0  0  0  0  0  0
  194.6230  176.5580  141.2750 O   0  0  0  0  0  0  0  0  0  0  0  0
  194.6290  175.3180  141.0580 C   0  0  0  0  0  0  0  0  0  0  0  0
  195.7940  174.6990  140.3730 C   0  0  0  0  0  2  0  0  0  0  0  0
  195.9000  175.2350  139.0270 N   0  0  0  0  0  2  0  0  0  0  0  0
  195.5190  174.1760  138.1030 C   0  0  2  0  0  3  0  0  0  0  0  0
  197.0710  172.8880  137.1860 C   0  0  0  0  0  1  0  0  0  0  0  0
  196.4300  174.1180  137.0410 O   0  0  0  0  0  0  0  0  0  0  0  0
  194.1400  174.4320  137.5760 C   0  0  0  0  0  0  0  0  0  0  0  0
  193.7200  175.5750  137.5160 O   0  0  0  0  0  0  0  0  0  0  0  0
  191.8790  173.7160  137.1400 N   0  0  0  0  0  1  0  0  0  0  0  0
  193.2680  173.2960  137.1480 C   0  0  0  0  0  2  0  0  0  0  0  0
  193.9490  176.1950  144.8060 C   0  0  0  0  0  0  0  0  0  0  0  0
  194.6130  175.0460  144.7910 C   0  0  0  0  0  3  0  0  0  0  0  0
  195.9210  174.9470  145.3530 N   0  0  0  0  0  2  0  0  0  0  0  0
  197.7040  173.6770  146.1170 O   0  0  0  0  0  0  0  0  0  0  0  0
  196.4960  173.7030  145.7560 C   0  0  0  0  0  0  0  0  0  0  0  0
  196.1290  171.5570  144.5460 C   0  0  0  0  0  2  0  0  0  0  0  0
  195.6980  172.4320  145.7110 C   0  0  0  0  0  3  0  0  0  0  0  0
  196.6220  171.2500  145.9410 C   0  0  0  0  0  2  0  0  0  0  0  0
  194.4560  177.5420  146.7160 O   0  0  0  0  0  1  0  0  0  0  0  0
  194.5270  177.3240  145.3970 O   0  0  0  0  0  0  0  0  0  0  0  0
  1 18  1  6  0  0  0
  1  7  1  0  0  0  0
  2  5  1  6  0  0  0
  2  4  1  0  0  0  0
  3 30  1  1  0  0  0
  3  8  1  0  0  0  0
  4 10  1  0  0  0  0
  4  8  1  6  0  0  0
  6  1  1  0  0  0  0
  6  5  1  0  0  0  0
  7  2  1  0  0  0  0
  7  3  1  0  0  0  0
  9 13  2  0  0  0  0
 10 11  1  0  0  0  0
 11 15  1  0  0  0  0
 12  9  1  0  0  0  0
 12 10  1  0  0  0  0
 13 15  1  0  0  0  0
 14 16  1  0  0  0  0
 14  9  1  0  0  0  0
 16 17  3  0  0  0  0
 20 19  2  0  0  0  0
 20 18  1  0  0  0  0
 21 20  1  0  0  0  0
 22 21  1  0  0  0  0
 23 22  1  0  0  0  0
 25 24  1  0  0  0  0
 25 23  1  0  0  0  0
 26 23  1  0  0  0  0
 27 26  2  0  0  0  0
 28 29  1  0  0  0  0
 29 26  1  0  0  0  0
 30 39  1  0  0  0  0
 31 30  2  0  0  0  0
 31 32  1  0  0  0  0
 32 34  1  0  0  0  0
 34 33  2  0  0  0  0
 35 36  1  0  0  0  0
 35 37  1  0  0  0  0
 36 34  1  0  0  0  0
 36 37  1  0  0  0  0
 39 38  1  0  0  0  0
M  END
>  <MODEL>
7

>  <REMARK>
 VINA RESULT:      -5.8      2.799      6.333
  Name = 
  13 active torsions:
  status: ('A' for Active; 'I' for Inactive)
    1  A    between atoms: N_3  and  C_37
    2  A    between atoms: C_4  and  N_22
    3  A    between atoms: C_6  and  C_12
    4  A    between atoms: C_6  and  C_31
    5  A    between atoms: C_7  and  N_20
    6  A    between atoms: C_7  and  C_39
    7  A    between atoms: C_10  and  C_15
    8  A    between atoms: C_11  and  C_23
    9  A    between atoms: C_12  and  N_20
   10  A    between atoms: C_12  and  O_24
   11  A    between atoms: C_17  and  C_18
   12  A    between atoms: C_17  and  O_33
   13  A    between atoms: C_27  and  N_32
                            x       y       z     vdW  Elec       q    Type
                         _______ _______ _______ _____ _____    ______ ____

>  <TORSDO>
F 13

$$$$
=
 OpenBabel11042414583D

 39 42  0  0  1  0  0  0  0  0999 V2000
  190.5740  173.5690  140.6600 C   0  0  1  0  0  3  0  0  0  0  0  0
  190.3010  173.4930  142.9630 C   0  0  1  0  0  3  0  0  0  0  0  0
  191.9660  174.9840  142.2500 C   0  0  1  0  0  3  0  0  0  0  0  0
  190.3860  174.4190  143.9150 C   0  0  1  0  0  3  0  0  0  0  0  0
  189.0480  172.8880  142.4470 C   0  0  0  0  0  2  0  0  0  0  0  0
  189.3220  172.7380  140.9540 C   0  0  0  0  0  2  0  0  0  0  0  0
  191.3580  173.6180  141.9560 C   0  0  2  0  0  3  0  0  0  0  0  0
  191.5700  175.2950  143.6960 C   0  0  0  0  0  2  0  0  0  0  0  0
  187.7330  176.5440  145.7010 C   0  0  0  0  0  0  0  0  0  0  0  0
  189.3310  174.7420  144.9350 C   0  0  1  0  0  3  0  0  0  0  0  0
  189.9150  174.8410  146.3380 C   0  0  0  0  0  2  0  0  0  0  0  0
  188.5830  176.0240  144.5710 C   0  0  0  0  0  2  0  0  0  0  0  0
  187.8850  176.1160  146.9250 N   0  0  0  0  0  0  0  0  0  0  0  0
  186.8390  177.6240  145.4240 N   0  0  0  0  0  2  0  0  0  0  0  0
  188.7600  175.0090  147.3150 C   0  0  0  0  0  2  0  0  0  0  0  0
  186.0220  178.1980  146.4110 C   0  0  0  0  0  0  0  0  0  0  0  0
  185.3220  178.6900  147.2590 C   0  0  0  0  0  3  0  0  0  0  0  0
  191.3620  172.9930  139.5750 N   0  0  0  0  0  2  0  0  0  0  0  0
  190.0820  173.8220  137.7970 O   0  0  0  0  0  0  0  0  0  0  0  0
  191.0560  173.1240  138.1810 C   0  0  0  0  0  0  0  0  0  0  0  0
  191.8670  172.3810  137.1800 C   0  0  0  0  0  2  0  0  0  0  0  0
  191.0190  171.4250  136.4910 N   0  0  0  0  0  2  0  0  0  0  0  0
  191.4510  170.0910  136.8830 C   0  0  2  0  0  3  0  0  0  0  0  0
  192.7810  168.7460  135.7310 C   0  0  0  0  0  1  0  0  0  0  0  0
  191.4820  169.2510  135.7640 O   0  0  0  0  0  0  0  0  0  0  0  0
  190.5160  169.5350  137.9120 C   0  0  0  0  0  0  0  0  0  0  0  0
  189.3270  169.8040  137.8550 O   0  0  0  0  0  0  0  0  0  0  0  0
  191.3140  169.4880  140.1870 N   0  0  0  0  0  1  0  0  0  0  0  0
  191.0300  168.6730  139.0200 C   0  0  0  0  0  2  0  0  0  0  0  0
  193.4550  174.9740  142.0770 C   0  0  0  0  0  0  0  0  0  0  0  0
  194.2060  175.4300  143.0720 C   0  0  0  0  0  3  0  0  0  0  0  0
  195.6290  175.4290  142.9780 N   0  0  0  0  0  2  0  0  0  0  0  0
  197.7140  174.8940  143.8390 O   0  0  0  0  0  0  0  0  0  0  0  0
  196.4740  174.9930  144.0430 C   0  0  0  0  0  0  0  0  0  0  0  0
  195.6710  173.1130  145.4660 C   0  0  0  0  0  2  0  0  0  0  0  0
  195.9000  174.6120  145.3780 C   0  0  0  0  0  3  0  0  0  0  0  0
  196.8890  173.7270  146.1160 C   0  0  0  0  0  2  0  0  0  0  0  0
  194.2120  175.2810  139.8290 O   0  0  0  0  0  1  0  0  0  0  0  0
  194.0630  174.5020  140.9080 O   0  0  0  0  0  0  0  0  0  0  0  0
  1 18  1  6  0  0  0
  1  6  1  0  0  0  0
  1  7  1  0  0  0  0
  2  5  1  6  0  0  0
  2  4  1  0  0  0  0
  3 30  1  1  0  0  0
  3  8  1  0  0  0  0
  4  8  1  6  0  0  0
  4 10  1  0  0  0  0
  6  5  1  0  0  0  0
  7  3  1  0  0  0  0
  7  2  1  0  0  0  0
  9 13  2  0  0  0  0
 10 11  1  0  0  0  0
 11 15  1  0  0  0  0
 12 10  1  0  0  0  0
 12  9  1  0  0  0  0
 13 15  1  0  0  0  0
 14  9  1  0  0  0  0
 14 16  1  0  0  0  0
 16 17  3  0  0  0  0
 19 20  2  0  0  0  0
 20 18  1  0  0  0  0
 21 20  1  0  0  0  0
 22 23  1  0  0  0  0
 22 21  1  0  0  0  0
 23 26  1  0  0  0  0
 24 25  1  0  0  0  0
 25 23  1  0  0  0  0
 26 29  1  0  0  0  0
 27 26  2  0  0  0  0
 29 28  1  0  0  0  0
 30 31  2  0  0  0  0
 32 31  1  0  0  0  0
 32 34  1  0  0  0  0
 33 34  2  0  0  0  0
 34 36  1  0  0  0  0
 35 37  1  0  0  0  0
 36 35  1  0  0  0  0
 36 37  1  0  0  0  0
 38 39  1  0  0  0  0
 39 30  1  0  0  0  0
M  END
>  <MODEL>
8

>  <REMARK>
 VINA RESULT:      -5.8      2.981      7.481
  Name = 
  13 active torsions:
  status: ('A' for Active; 'I' for Inactive)
    1  A    between atoms: N_3  and  C_37
    2  A    between atoms: C_4  and  N_22
    3  A    between atoms: C_6  and  C_12
    4  A    between atoms: C_6  and  C_31
    5  A    between atoms: C_7  and  N_20
    6  A    between atoms: C_7  and  C_39
    7  A    between atoms: C_10  and  C_15
    8  A    between atoms: C_11  and  C_23
    9  A    between atoms: C_12  and  N_20
   10  A    between atoms: C_12  and  O_24
   11  A    between atoms: C_17  and  C_18
   12  A    between atoms: C_17  and  O_33
   13  A    between atoms: C_27  and  N_32
                            x       y       z     vdW  Elec       q    Type
                         _______ _______ _______ _____ _____    ______ ____

>  <TORSDO>
F 13

$$$$
=
 OpenBabel11042414583D

 39 42  0  0  1  0  0  0  0  0999 V2000
  192.8520  175.1900  144.9310 C   0  0  1  0  0  3  0  0  0  0  0  0
  191.5330  176.5910  143.6360 C   0  0  1  0  0  3  0  0  0  0  0  0
  191.4260  174.3340  143.0070 C   0  0  1  0  0  3  0  0  0  0  0  0
  190.3440  176.4350  143.0560 C   0  0  1  0  0  3  0  0  0  0  0  0
  191.8100  177.4020  144.8480 C   0  0  0  0  0  2  0  0  0  0  0  0
  192.8490  176.5700  145.5930 C   0  0  0  0  0  2  0  0  0  0  0  0
  192.3850  175.4080  143.5050 C   0  0  2  0  0  3  0  0  0  0  0  0
  190.2470  175.1010  142.4020 C   0  0  0  0  0  2  0  0  0  0  0  0
  187.0520  177.6800  144.5910 C   0  0  0  0  0  0  0  0  0  0  0  0
  189.1500  177.3320  143.2260 C   0  0  1  0  0  3  0  0  0  0  0  0
  188.2070  177.2460  142.0330 C   0  0  0  0  0  2  0  0  0  0  0  0
  188.4060  177.0220  144.5240 C   0  0  0  0  0  2  0  0  0  0  0  0
  186.4800  178.1780  143.5290 N   0  0  0  0  0  0  0  0  0  0  0  0
  186.3420  177.6260  145.8310 N   0  0  0  0  0  2  0  0  0  0  0  0
  187.1210  178.2950  142.2180 C   0  0  0  0  0  2  0  0  0  0  0  0
  185.0640  178.1840  145.9920 C   0  0  0  0  0  0  0  0  0  0  0  0
  183.9680  178.6650  146.1290 C   0  0  0  0  0  3  0  0  0  0  0  0
  194.1740  174.5720  144.9770 N   0  0  0  0  0  2  0  0  0  0  0  0
  193.4630  172.3660  145.3190 O   0  0  0  0  0  0  0  0  0  0  0  0
  194.4180  173.1780  145.2010 C   0  0  0  0  0  0  0  0  0  0  0  0
  195.8150  172.6940  145.3540 C   0  0  0  0  0  2  0  0  0  0  0  0
  195.8670  171.2740  145.0570 N   0  0  0  0  0  2  0  0  0  0  0  0
  196.9030  170.6880  145.8970 C   0  0  2  0  0  3  0  0  0  0  0  0
  197.2970  169.6420  143.9840 C   0  0  0  0  0  1  0  0  0  0  0  0
  197.9370  170.1840  145.0980 O   0  0  0  0  0  0  0  0  0  0  0  0
  196.3210  169.5880  146.7300 C   0  0  0  0  0  0  0  0  0  0  0  0
  197.0410  168.9640  147.4930 O   0  0  0  0  0  0  0  0  0  0  0  0
  194.4800  168.4020  147.7400 N   0  0  0  0  0  1  0  0  0  0  0  0
  194.8740  169.2320  146.6160 C   0  0  0  0  0  2  0  0  0  0  0  0
  192.0770  173.4390  141.9960 C   0  0  1  0  0  3  0  0  0  0  0  0
  193.1090  173.9140  141.3100 C   0  0  0  0  0  3  0  0  0  0  0  0
  193.7850  173.1060  140.3470 N   0  0  0  0  0  0  0  0  0  0  0  0
  195.4560  172.8130  138.7660 O   0  0  0  0  0  0  0  0  0  0  0  0
  194.8120  173.6150  139.4950 C   0  0  0  0  0  0  0  0  0  0  0  0
  196.3140  175.3650  140.4380 C   0  0  0  0  0  2  0  0  0  0  0  0
  195.1600  175.0770  139.4930 C   0  0  0  0  0  3  0  0  0  0  0  0
  196.5670  175.2570  138.9520 C   0  0  0  0  0  2  0  0  0  0  0  0
  190.5340  171.8860  141.0330 O   0  0  0  0  0  1  0  0  0  0  0  0
  191.6290  172.1340  141.7620 O   0  0  0  0  0  0  0  0  0  0  0  0
  1 18  1  6  0  0  0
  1  6  1  0  0  0  0
  2  5  1  1  0  0  0
  3 30  1  6  0  0  0
  3  7  1  0  0  0  0
  4  8  1  1  0  0  0
  4 10  1  0  0  0  0
  4  2  1  0  0  0  0
  5  6  1  0  0  0  0
  7  2  1  0  0  0  0
  7  1  1  0  0  0  0
  8  3  1  0  0  0  0
  9 14  1  0  0  0  0
 10 12  1  0  0  0  0
 11 15  1  0  0  0  0
 11 10  1  0  0  0  0
 12  9  1  0  0  0  0
 13  9  2  0  0  0  0
 14 16  1  0  0  0  0
 15 13  1  0  0  0  0
 16 17  3  0  0  0  0
 18 20  1  0  0  0  0
 20 19  2  0  0  0  0
 20 21  1  0  0  0  0
 22 21  1  0  0  0  0
 22 23  1  0  0  0  0
 23 26  1  0  0  0  0
 24 25  1  0  0  0  0
 25 23  1  0  0  0  0
 26 27  2  0  0  0  0
 29 26  1  0  0  0  0
 29 28  1  0  0  0  0
 31 30  1  0  0  0  0
 32 31  2  0  0  0  0
 33 34  2  0  0  0  0
 34 32  1  0  0  0  0
 36 34  1  0  0  0  0
 36 35  1  0  0  0  0
 37 36  1  0  0  0  0
 37 35  1  0  0  0  0
 38 39  1  0  0  0  0
 39 30  1  0  0  0  0
M  END
>  <MODEL>
9

>  <REMARK>
 VINA RESULT:      -5.8      3.227      4.884
  Name = 
  13 active torsions:
  status: ('A' for Active; 'I' for Inactive)
    1  A    between atoms: N_3  and  C_37
    2  A    between atoms: C_4  and  N_22
    3  A    between atoms: C_6  and  C_12
    4  A    between atoms: C_6  and  C_31
    5  A    between atoms: C_7  and  N_20
    6  A    between atoms: C_7  and  C_39
    7  A    between atoms: C_10  and  C_15
    8  A    between atoms: C_11  and  C_23
    9  A    between atoms: C_12  and  N_20
   10  A    between atoms: C_12  and  O_24
   11  A    between atoms: C_17  and  C_18
   12  A    between atoms: C_17  and  O_33
   13  A    between atoms: C_27  and  N_32
                            x       y       z     vdW  Elec       q    Type
                         _______ _______ _______ _____ _____    ______ ____

>  <TORSDO>
F 13

$$$$
