=
 OpenBabel11042416333D

 62 65  0  0  1  0  0  0  0  0999 V2000
  190.3630  172.6700  139.9700 C   0  0  0  0  0  0  0  0  0  0  0  0
  191.0580  173.7040  140.1750 O   0  0  0  0  0  0  0  0  0  0  0  0
  190.9590  171.5370  139.3300 N   0  0  0  0  0  2  0  0  0  0  0  0
  194.2430  171.3830  135.6350 N   0  0  0  0  0  2  0  0  0  0  0  0
  193.8340  170.1780  137.6500 N   0  0  0  0  0  0  0  0  0  0  0  0
  192.9760  170.1830  138.8140 C   0  0  0  0  0  2  0  0  0  0  0  0
  193.5000  171.1170  136.8310 C   0  0  0  0  0  0  0  0  0  0  0  0
  192.3190  171.5480  138.7760 C   0  0  1  0  0  3  0  0  0  0  0  0
  192.4030  171.9980  137.3050 C   0  0  2  0  0  3  0  0  0  0  0  0
  189.5800  172.0380  134.6680 C   0  0  0  0  0  1  0  0  0  0  0  0
  190.7850  172.4610  135.4330 C   0  0  0  0  0  0  0  0  0  0  0  0
  191.4530  173.4650  135.0510 O   0  0  0  0  0  0  0  0  0  0  0  0
  191.1840  171.6910  136.5720 N   0  0  0  0  0  2  0  0  0  0  0  0
  195.6060  170.8830  135.4890 C   0  0  0  0  0  2  0  0  0  0  0  0
  196.6590  171.9200  135.8910 C   0  0  1  0  0  3  0  0  0  0  0  0
  197.7970  171.2200  136.4490 N   0  0  0  0  0  0  0  0  0  0  0  0
  197.8440  170.7610  137.6550 C   0  0  0  0  0  3  0  0  0  0  0  0
  196.7030  170.8630  138.6330 C   0  0  0  0  0  2  0  0  0  0  0  0
  194.3640  175.7420  141.6170 C   0  0  0  0  0  3  0  0  0  0  0  0
  196.6190  176.1500  140.6900 C   0  0  0  0  0  2  0  0  0  0  0  0
  196.7880  172.0800  139.4330 N   0  0  0  0  0  0  0  0  0  0  0  0
  195.5540  172.5370  140.1030 C   0  0  0  0  0  2  0  0  0  0  0  0
  197.9410  174.1610  139.8930 C   0  0  0  0  0  3  0  0  0  0  0  0
  195.4910  176.4750  141.6230 C   0  0  0  0  0  3  0  0  0  0  0  0
  196.7480  174.6350  140.6690 C   0  0  2  0  0  3  0  0  0  0  0  0
  195.4690  174.0570  140.0490 C   0  0  2  0  0  3  0  0  0  0  0  0
  194.1630  174.6010  140.6440 C   0  0  0  0  0  2  0  0  0  0  0  0
  197.9380  172.9420  139.3340 C   0  0  0  0  0  3  0  0  0  0  0  0
  197.0950  172.7020  134.7320 N   0  0  0  0  0  2  0  0  0  0  0  0
  196.6130  174.0690  134.9480 C   0  0  0  0  0  2  0  0  0  0  0  0
  196.3010  174.2630  136.4140 C   0  0  0  0  0  2  0  0  0  0  0  0
  195.0030  175.0580  136.5780 C   0  0  0  0  0  1  0  0  0  0  0  0
  188.9530  172.6120  140.5190 C   0  0  2  0  0  3  0  0  0  0  0  0
  188.2970  173.7600  138.3950 C   0  0  0  0  0  1  0  0  0  0  0  0
  187.8900  172.7130  139.4330 C   0  0  0  0  0  2  0  0  0  0  0  0
  188.7260  173.7260  141.5250 C   0  0  0  0  0  2  0  0  0  0  0  0
  189.6540  173.0010  143.7580 C   0  0  0  0  0  0  0  0  0  0  0  0
  188.5630  173.1710  142.8570 N   0  0  0  0  0  2  0  0  0  0  0  0
  189.4930  172.2890  144.7860 O   0  0  0  0  0  0  0  0  0  0  0  0
  192.2890  172.7420  143.3400 S   0  0  0  0  0  0  0  0  0  0  0  0
  190.9460  173.6570  143.5210 C   0  0  0  0  0  0  0  0  0  0  0  0
  191.0850  175.1230  143.5430 C   0  0  0  0  0  3  0  0  0  0  0  0
  191.2890  175.7950  144.6510 C   0  0  0  0  0  0  0  0  0  0  0  0
  191.4580  176.4320  145.7710 C   0  0  0  0  0  0  0  0  0  0  0  0
  190.4500  177.2560  146.2830 O   0  0  0  0  0  0  0  0  0  0  0  0
  189.3900  176.7200  146.9590 O   0  0  0  0  0  0  0  0  0  0  0  0
  186.0500  178.2410  146.9300 C   0  0  0  0  0  0  0  0  0  0  0  0
  187.3720  177.8520  147.3140 N   0  0  0  0  0  0  0  0  0  0  0  0
  185.4810  179.2030  147.5290 O   0  0  0  0  0  0  0  0  0  0  0  0
  185.3420  177.5460  145.8020 C   0  0  0  0  0  2  0  0  0  0  0  0
  187.5610  176.5240  145.3190 C   0  0  0  0  0  3  0  0  0  0  0  0
  188.0910  177.0510  146.5780 C   0  0  0  0  0  0  0  0  0  0  0  0
  186.3160  176.7800  144.9160 C   0  0  0  0  0  0  0  0  0  0  0  0
  185.9200  176.2890  143.6690 O   0  0  0  0  0  0  0  0  0  0  0  0
  184.4000  177.8790  142.7960 C   0  0  0  0  0  1  0  0  0  0  0  0
  185.6750  177.1000  142.5260 C   0  0  1  0  0  3  0  0  0  0  0  0
  186.8500  178.0790  142.3490 C   0  0  0  0  0  3  0  0  0  0  0  0
  187.3860  177.9600  141.0560 O   0  0  0  0  0  1  0  0  0  0  0  0
  186.4000  179.3850  142.5670 O   0  0  0  0  0  1  0  0  0  0  0  0
  192.7260  176.2650  146.5560 C   0  0  0  0  0  2  0  0  0  0  0  0
  193.3880  175.1120  146.1150 O   0  0  0  0  0  0  0  0  0  0  0  0
  194.6800  175.3720  146.2910 O   0  0  0  0  0  1  0  0  0  0  0  0
  1  2  2  0  0  0  0
  1 33  1  0  0  0  0
  3  1  1  0  0  0  0
  4  7  1  0  0  0  0
  5  6  1  0  0  0  0
  7  9  1  0  0  0  0
  7  5  2  0  0  0  0
  8  6  1  0  0  0  0
  8  3  1  6  0  0  0
  9 13  1  6  0  0  0
  9  8  1  0  0  0  0
 10 11  1  0  0  0  0
 11 13  1  0  0  0  0
 12 11  2  0  0  0  0
 14  4  1  0  0  0  0
 15 14  1  6  0  0  0
 15 16  1  0  0  0  0
 16 17  2  0  0  0  0
 17 18  1  0  0  0  0
 18 21  1  0  0  0  0
 19 24  2  0  0  0  0
 20 24  1  0  0  0  0
 21 22  1  0  0  0  0
 25 23  1  6  0  0  0
 25 20  1  0  0  0  0
 26 22  1  1  0  0  0
 26 27  1  0  0  0  0
 26 25  1  0  0  0  0
 27 19  1  0  0  0  0
 28 21  1  0  0  0  0
 28 23  2  0  0  0  0
 29 30  1  0  0  0  0
 29 15  1  0  0  0  0
 30 31  1  0  0  0  0
 31 32  1  0  0  0  0
 33 35  1  6  0  0  0
 33 36  1  0  0  0  0
 34 35  1  0  0  0  0
 36 38  1  0  0  0  0
 37 39  2  0  0  0  0
 38 37  1  0  0  0  0
 40 41  2  0  0  0  0
 41 42  1  0  0  0  0
 41 37  1  0  0  0  0
 42 43  2  0  0  0  0
 43 44  2  0  0  0  0
 44 45  1  0  0  0  0
 44 60  1  0  0  0  0
 45 46  1  0  0  0  0
 47 48  1  0  0  0  0
 47 49  2  0  0  0  0
 50 47  1  0  0  0  0
 51 52  1  0  0  0  0
 52 46  1  0  0  0  0
 52 48  2  0  0  0  0
 53 51  2  0  0  0  0
 53 50  1  0  0  0  0
 54 53  1  0  0  0  0
 56 55  1  1  0  0  0
 56 54  1  0  0  0  0
 57 56  1  0  0  0  0
 57 59  1  0  0  0  0
 58 57  1  0  0  0  0
 61 62  1  0  0  0  0
 61 60  1  0  0  0  0
M  END
>  <MODEL>
1

>  <REMARK>
 VINA RESULT:      -5.5      0.000      0.000
  Name = 
  24 active torsions:
  status: ('A' for Active; 'I' for Inactive)
    1  A    between atoms: C_1  and  C_9
    2  A    between atoms: C_1  and  N_35
    3  A    between atoms: C_1  and  N_61
    4  A    between atoms: C_4  and  O_34
    5  A    between atoms: C_4  and  C_58
    6  A    between atoms: N_5  and  C_9
    7  A    between atoms: C_6  and  C_10
    8  A    between atoms: C_6  and  C_27
    9  A    between atoms: C_6  and  C_59
   10  A    between atoms: C_8  and  C_24
   11  A    between atoms: C_10  and  N_45
   12  A    between atoms: C_14  and  C_39
   13  A    between atoms: O_15  and  O_46
   14  A    between atoms: O_15  and  C_58
   15  A    between atoms: C_18  and  C_52
   16  A    between atoms: O_21  and  C_52
   17  A    between atoms: O_21  and  C_56
   18  A    between atoms: C_24  and  N_35
   19  A    between atoms: C_25  and  N_40
   20  A    between atoms: N_26  and  C_33
   21  A    between atoms: C_30  and  C_39
   22  A    between atoms: C_33  and  C_62
   23  A    between atoms: N_41  and  C_48
   24  A    between atoms: O_46  and  C_55
                            x       y       z     vdW  Elec       q    Type
                         _______ _______ _______ _____ _____    ______ ____

>  <TORSDO>
F 24

$$$$
=
 OpenBabel11042416333D

 62 65  0  0  1  0  0  0  0  0999 V2000
  192.5040  175.0480  143.7460 C   0  0  0  0  0  0  0  0  0  0  0  0
  191.4520  175.0600  143.0470 O   0  0  0  0  0  0  0  0  0  0  0  0
  193.4840  174.0280  143.5250 N   0  0  0  0  0  2  0  0  0  0  0  0
  194.7890  169.7730  141.3680 N   0  0  0  0  0  2  0  0  0  0  0  0
  194.1660  171.9620  140.6610 N   0  0  0  0  0  0  0  0  0  0  0  0
  193.7010  173.2280  141.1840 C   0  0  0  0  0  2  0  0  0  0  0  0
  194.3960  171.1280  141.6190 C   0  0  0  0  0  0  0  0  0  0  0  0
  193.2810  172.9030  142.6040 C   0  0  1  0  0  3  0  0  0  0  0  0
  194.0610  171.6280  142.9750 C   0  0  2  0  0  3  0  0  0  0  0  0
  196.7370  171.8880  145.7510 C   0  0  0  0  0  1  0  0  0  0  0  0
  195.4240  171.6420  145.0930 C   0  0  0  0  0  0  0  0  0  0  0  0
  194.4660  171.1550  145.7590 O   0  0  0  0  0  0  0  0  0  0  0  0
  195.2890  171.9320  143.6970 N   0  0  0  0  0  2  0  0  0  0  0  0
  194.5660  169.1730  140.0570 C   0  0  0  0  0  2  0  0  0  0  0  0
  195.7440  169.3920  139.1030 C   0  0  1  0  0  3  0  0  0  0  0  0
  196.9230  169.6790  139.8940 N   0  0  0  0  0  0  0  0  0  0  0  0
  197.6730  170.7150  139.7240 C   0  0  0  0  0  3  0  0  0  0  0  0
  197.4010  171.7850  138.7000 C   0  0  0  0  0  2  0  0  0  0  0  0
  197.6430  175.7720  143.4140 C   0  0  0  0  0  3  0  0  0  0  0  0
  196.3120  176.5970  141.5020 C   0  0  0  0  0  2  0  0  0  0  0  0
  197.4070  173.1170  139.2980 N   0  0  0  0  0  0  0  0  0  0  0  0
  197.9080  173.2340  140.6810 C   0  0  0  0  0  2  0  0  0  0  0  0
  196.5070  175.3660  139.3140 C   0  0  0  0  0  3  0  0  0  0  0  0
  197.0870  176.8110  142.7670 C   0  0  0  0  0  3  0  0  0  0  0  0
  197.0810  175.5710  140.6840 C   0  0  2  0  0  3  0  0  0  0  0  0
  197.0670  174.2430  141.4530 C   0  0  2  0  0  3  0  0  0  0  0  0
  197.4710  174.3500  142.9290 C   0  0  0  0  0  2  0  0  0  0  0  0
  196.6910  174.2010  138.6760 C   0  0  0  0  0  3  0  0  0  0  0  0
  195.9890  168.2000  138.2880 N   0  0  0  0  0  2  0  0  0  0  0  0
  194.9330  168.1660  137.2730 C   0  0  0  0  0  2  0  0  0  0  0  0
  195.0840  169.3570  136.3540 C   0  0  0  0  0  2  0  0  0  0  0  0
  193.7130  169.9540  136.0310 C   0  0  0  0  0  1  0  0  0  0  0  0
  192.7570  176.1850  144.7140 C   0  0  2  0  0  3  0  0  0  0  0  0
  194.7960  176.6110  146.0980 C   0  0  0  0  0  1  0  0  0  0  0  0
  194.2000  176.6720  144.6920 C   0  0  0  0  0  2  0  0  0  0  0  0
  192.4070  175.7670  146.1310 C   0  0  0  0  0  2  0  0  0  0  0  0
  189.9290  175.2990  146.2320 C   0  0  0  0  0  0  0  0  0  0  0  0
  191.2780  174.8540  146.1190 N   0  0  0  0  0  2  0  0  0  0  0  0
  189.0250  174.4530  146.4700 O   0  0  0  0  0  0  0  0  0  0  0  0
  189.5180  177.6950  147.3610 S   0  0  0  0  0  0  0  0  0  0  0  0
  189.5760  176.7120  146.0550 C   0  0  0  0  0  0  0  0  0  0  0  0
  189.1720  177.2510  144.7450 C   0  0  0  0  0  3  0  0  0  0  0  0
  187.9640  177.0890  144.2590 C   0  0  0  0  0  0  0  0  0  0  0  0
  186.7690  176.8840  143.7940 C   0  0  0  0  0  0  0  0  0  0  0  0
  186.5660  176.0490  142.6900 O   0  0  0  0  0  0  0  0  0  0  0  0
  187.5190  175.9380  141.7170 O   0  0  0  0  0  0  0  0  0  0  0  0
  188.8900  172.6070  142.4180 C   0  0  0  0  0  0  0  0  0  0  0  0
  188.1790  173.8430  142.5260 N   0  0  0  0  0  0  0  0  0  0  0  0
  188.6040  171.6490  143.1980 O   0  0  0  0  0  0  0  0  0  0  0  0
  189.9450  172.4170  141.3670 C   0  0  0  0  0  2  0  0  0  0  0  0
  189.0730  174.5430  140.4080 C   0  0  0  0  0  3  0  0  0  0  0  0
  188.2540  174.7600  141.6020 C   0  0  0  0  0  0  0  0  0  0  0  0
  189.8210  173.4500  140.2540 C   0  0  0  0  0  0  0  0  0  0  0  0
  190.5190  173.3010  139.0520 O   0  0  0  0  0  0  0  0  0  0  0  0
  188.4390  172.9610  137.9760 C   0  0  0  0  0  1  0  0  0  0  0  0
  189.9440  172.8160  137.8440 C   0  0  1  0  0  3  0  0  0  0  0  0
  190.4450  173.6810  136.6720 C   0  0  0  0  0  3  0  0  0  0  0  0
  189.3980  174.4790  136.1810 O   0  0  0  0  0  1  0  0  0  0  0  0
  191.5020  174.4850  137.1100 O   0  0  0  0  0  1  0  0  0  0  0  0
  185.5770  177.5100  144.4570 C   0  0  0  0  0  2  0  0  0  0  0  0
  185.9230  178.7930  144.9020 O   0  0  0  0  0  0  0  0  0  0  0  0
  184.7920  179.4890  144.8500 O   0  0  0  0  0  1  0  0  0  0  0  0
  1 33  1  0  0  0  0
  2  1  2  0  0  0  0
  3  1  1  0  0  0  0
  4  7  1  0  0  0  0
  5  6  1  0  0  0  0
  5  7  2  0  0  0  0
  6  8  1  0  0  0  0
  7  9  1  0  0  0  0
  8  9  1  0  0  0  0
  8  3  1  1  0  0  0
  9 13  1  1  0  0  0
 11 10  1  0  0  0  0
 11 12  2  0  0  0  0
 13 11  1  0  0  0  0
 14  4  1  0  0  0  0
 15 16  1  0  0  0  0
 15 14  1  1  0  0  0
 17 16  2  0  0  0  0
 18 21  1  0  0  0  0
 18 17  1  0  0  0  0
 20 24  1  0  0  0  0
 21 22  1  0  0  0  0
 24 19  2  0  0  0  0
 25 23  1  6  0  0  0
 25 26  1  0  0  0  0
 25 20  1  0  0  0  0
 26 22  1  6  0  0  0
 26 27  1  0  0  0  0
 27 19  1  0  0  0  0
 28 21  1  0  0  0  0
 28 23  2  0  0  0  0
 29 15  1  0  0  0  0
 30 29  1  0  0  0  0
 31 30  1  0  0  0  0
 32 31  1  0  0  0  0
 33 35  1  1  0  0  0
 33 36  1  0  0  0  0
 35 34  1  0  0  0  0
 37 39  2  0  0  0  0
 38 36  1  0  0  0  0
 38 37  1  0  0  0  0
 41 37  1  0  0  0  0
 41 40  2  0  0  0  0
 42 41  1  0  0  0  0
 43 42  2  0  0  0  0
 44 43  2  0  0  0  0
 44 60  1  0  0  0  0
 45 44  1  0  0  0  0
 46 45  1  0  0  0  0
 47 48  1  0  0  0  0
 47 49  2  0  0  0  0
 50 47  1  0  0  0  0
 51 52  1  0  0  0  0
 52 46  1  0  0  0  0
 52 48  2  0  0  0  0
 53 51  2  0  0  0  0
 53 50  1  0  0  0  0
 54 53  1  0  0  0  0
 56 55  1  1  0  0  0
 56 54  1  0  0  0  0
 57 59  1  0  0  0  0
 57 56  1  0  0  0  0
 58 57  1  0  0  0  0
 60 61  1  0  0  0  0
 62 61  1  0  0  0  0
M  END
>  <MODEL>
2

>  <REMARK>
 VINA RESULT:      -5.4      2.568      6.213
  Name = 
  24 active torsions:
  status: ('A' for Active; 'I' for Inactive)
    1  A    between atoms: C_1  and  C_9
    2  A    between atoms: C_1  and  N_35
    3  A    between atoms: C_1  and  N_61
    4  A    between atoms: C_4  and  O_34
    5  A    between atoms: C_4  and  C_58
    6  A    between atoms: N_5  and  C_9
    7  A    between atoms: C_6  and  C_10
    8  A    between atoms: C_6  and  C_27
    9  A    between atoms: C_6  and  C_59
   10  A    between atoms: C_8  and  C_24
   11  A    between atoms: C_10  and  N_45
   12  A    between atoms: C_14  and  C_39
   13  A    between atoms: O_15  and  O_46
   14  A    between atoms: O_15  and  C_58
   15  A    between atoms: C_18  and  C_52
   16  A    between atoms: O_21  and  C_52
   17  A    between atoms: O_21  and  C_56
   18  A    between atoms: C_24  and  N_35
   19  A    between atoms: C_25  and  N_40
   20  A    between atoms: N_26  and  C_33
   21  A    between atoms: C_30  and  C_39
   22  A    between atoms: C_33  and  C_62
   23  A    between atoms: N_41  and  C_48
   24  A    between atoms: O_46  and  C_55
                            x       y       z     vdW  Elec       q    Type
                         _______ _______ _______ _____ _____    ______ ____

>  <TORSDO>
F 24

$$$$
=
 OpenBabel11042416333D

 62 65  0  0  1  0  0  0  0  0999 V2000
  187.7600  176.6200  144.0190 C   0  0  0  0  0  0  0  0  0  0  0  0
  188.8850  177.1540  143.8100 O   0  0  0  0  0  0  0  0  0  0  0  0
  187.4120  175.4180  143.3250 N   0  0  0  0  0  2  0  0  0  0  0  0
  188.6210  174.4780  138.6220 N   0  0  0  0  0  2  0  0  0  0  0  0
  188.1790  173.2100  140.5900 N   0  0  0  0  0  0  0  0  0  0  0  0
  187.9010  173.3740  142.0000 C   0  0  0  0  0  2  0  0  0  0  0  0
  188.2690  174.3570  140.0060 C   0  0  0  0  0  0  0  0  0  0  0  0
  188.2490  174.8240  142.2740 C   0  0  1  0  0  3  0  0  0  0  0  0
  188.1490  175.5290  140.9080 C   0  0  2  0  0  3  0  0  0  0  0  0
  185.3650  178.1710  140.4600 C   0  0  0  0  0  1  0  0  0  0  0  0
  186.7000  177.5820  140.7610 C   0  0  0  0  0  0  0  0  0  0  0  0
  187.6790  178.3400  141.0200 O   0  0  0  0  0  0  0  0  0  0  0  0
  186.8520  176.1590  140.7140 N   0  0  0  0  0  2  0  0  0  0  0  0
  189.2660  173.3700  137.9260 C   0  0  0  0  0  2  0  0  0  0  0  0
  190.2520  173.8430  136.8530 C   0  0  1  0  0  3  0  0  0  0  0  0
  191.3670  172.9200  136.8210 N   0  0  0  0  0  0  0  0  0  0  0  0
  192.3360  172.9250  137.6740 C   0  0  0  0  0  3  0  0  0  0  0  0
  192.4160  173.8740  138.8410 C   0  0  0  0  0  2  0  0  0  0  0  0
  196.9280  176.2070  142.3600 C   0  0  0  0  0  3  0  0  0  0  0  0
  197.7640  174.9340  140.4140 C   0  0  0  0  0  2  0  0  0  0  0  0
  193.7500  173.8860  139.4340 N   0  0  0  0  0  0  0  0  0  0  0  0
  193.9610  174.7560  140.6070 C   0  0  0  0  0  2  0  0  0  0  0  0
  196.1250  173.4930  139.1580 C   0  0  0  0  0  3  0  0  0  0  0  0
  197.9410  175.5510  141.7680 C   0  0  0  0  0  3  0  0  0  0  0  0
  196.3870  174.2890  140.4020 C   0  0  2  0  0  3  0  0  0  0  0  0
  195.3390  175.4020  140.5320 C   0  0  2  0  0  3  0  0  0  0  0  0
  195.5940  176.3960  141.6720 C   0  0  0  0  0  2  0  0  0  0  0  0
  194.8670  173.3050  138.7340 C   0  0  0  0  0  3  0  0  0  0  0  0
  189.6170  173.8770  135.5350 N   0  0  0  0  0  2  0  0  0  0  0  0
  189.7220  175.2590  135.0580 C   0  0  0  0  0  2  0  0  0  0  0  0
  188.4450  176.0000  135.3900 C   0  0  0  0  0  2  0  0  0  0  0  0
  188.4870  177.4130  134.8030 C   0  0  0  0  0  1  0  0  0  0  0  0
  186.8600  177.1980  145.0910 C   0  0  2  0  0  3  0  0  0  0  0  0
  184.9780  178.5820  144.1970 C   0  0  0  0  0  1  0  0  0  0  0  0
  186.3940  178.6130  144.7730 C   0  0  0  0  0  2  0  0  0  0  0  0
  187.5700  177.2110  146.4330 C   0  0  0  0  0  2  0  0  0  0  0  0
  189.0770  175.3500  147.2310 C   0  0  0  0  0  0  0  0  0  0  0  0
  187.7860  175.8520  146.8970 N   0  0  0  0  0  2  0  0  0  0  0  0
  189.2300  174.1070  147.3790 O   0  0  0  0  0  0  0  0  0  0  0  0
  189.9910  177.8680  147.3160 S   0  0  0  0  0  0  0  0  0  0  0  0
  190.2170  176.2530  147.4250 C   0  0  0  0  0  0  0  0  0  0  0  0
  191.5860  175.7410  147.6160 C   0  0  0  0  0  3  0  0  0  0  0  0
  192.2700  175.1810  146.6470 C   0  0  0  0  0  0  0  0  0  0  0  0
  192.9070  174.6030  145.6730 C   0  0  0  0  0  0  0  0  0  0  0  0
  193.1770  173.2310  145.7110 O   0  0  0  0  0  0  0  0  0  0  0  0
  193.9950  172.6570  144.7790 O   0  0  0  0  0  0  0  0  0  0  0  0
  191.6050  170.7520  142.7490 C   0  0  0  0  0  0  0  0  0  0  0  0
  192.1760  171.6430  143.7090 N   0  0  0  0  0  0  0  0  0  0  0  0
  190.3750  170.8520  142.4550 O   0  0  0  0  0  0  0  0  0  0  0  0
  192.4510  169.7230  142.0570 C   0  0  0  0  0  2  0  0  0  0  0  0
  194.3790  170.9570  143.0370 C   0  0  0  0  0  3  0  0  0  0  0  0
  193.4670  171.7510  143.8610 C   0  0  0  0  0  0  0  0  0  0  0  0
  193.9350  170.0530  142.1630 C   0  0  0  0  0  0  0  0  0  0  0  0
  194.8780  169.3890  141.3730 O   0  0  0  0  0  0  0  0  0  0  0  0
  196.9940  169.9040  140.4460 C   0  0  0  0  0  1  0  0  0  0  0  0
  195.4930  169.9460  140.2170 C   0  0  1  0  0  3  0  0  0  0  0  0
  195.1330  169.0800  138.9960 C   0  0  0  0  0  3  0  0  0  0  0  0
  193.9040  169.4950  138.4570 O   0  0  0  0  0  1  0  0  0  0  0  0
  196.1440  169.1910  138.0370 O   0  0  0  0  0  1  0  0  0  0  0  0
  193.3330  175.3920  144.4690 C   0  0  0  0  0  2  0  0  0  0  0  0
  192.2010  175.9640  143.8740 O   0  0  0  0  0  0  0  0  0  0  0  0
  191.5660  174.9460  143.3000 O   0  0  0  0  0  1  0  0  0  0  0  0
  1 33  1  0  0  0  0
  2  1  2  0  0  0  0
  3  1  1  0  0  0  0
  4  7  1  0  0  0  0
  5  6  1  0  0  0  0
  6  8  1  0  0  0  0
  7  5  2  0  0  0  0
  7  9  1  0  0  0  0
  8  3  1  1  0  0  0
  9 13  1  1  0  0  0
  9  8  1  0  0  0  0
 10 11  1  0  0  0  0
 11 12  2  0  0  0  0
 13 11  1  0  0  0  0
 14  4  1  0  0  0  0
 15 14  1  1  0  0  0
 16 15  1  0  0  0  0
 16 17  2  0  0  0  0
 17 18  1  0  0  0  0
 18 21  1  0  0  0  0
 20 24  1  0  0  0  0
 21 22  1  0  0  0  0
 24 19  2  0  0  0  0
 25 23  1  6  0  0  0
 25 20  1  0  0  0  0
 25 26  1  0  0  0  0
 26 22  1  1  0  0  0
 26 27  1  0  0  0  0
 27 19  1  0  0  0  0
 28 23  2  0  0  0  0
 28 21  1  0  0  0  0
 29 15  1  0  0  0  0
 30 31  1  0  0  0  0
 30 29  1  0  0  0  0
 32 31  1  0  0  0  0
 33 35  1  6  0  0  0
 33 36  1  0  0  0  0
 34 35  1  0  0  0  0
 36 38  1  0  0  0  0
 37 39  2  0  0  0  0
 37 41  1  0  0  0  0
 38 37  1  0  0  0  0
 40 41  2  0  0  0  0
 41 42  1  0  0  0  0
 43 42  2  0  0  0  0
 44 45  1  0  0  0  0
 44 43  2  0  0  0  0
 46 45  1  0  0  0  0
 47 48  1  0  0  0  0
 48 52  2  0  0  0  0
 49 47  2  0  0  0  0
 50 53  1  0  0  0  0
 50 47  1  0  0  0  0
 51 52  1  0  0  0  0
 52 46  1  0  0  0  0
 53 51  2  0  0  0  0
 54 53  1  0  0  0  0
 56 55  1  1  0  0  0
 56 54  1  0  0  0  0
 57 56  1  0  0  0  0
 58 57  1  0  0  0  0
 59 57  1  0  0  0  0
 60 44  1  0  0  0  0
 61 60  1  0  0  0  0
 62 61  1  0  0  0  0
M  END
>  <MODEL>
3

>  <REMARK>
 VINA RESULT:      -5.1      2.819      7.329
  Name = 
  24 active torsions:
  status: ('A' for Active; 'I' for Inactive)
    1  A    between atoms: C_1  and  C_9
    2  A    between atoms: C_1  and  N_35
    3  A    between atoms: C_1  and  N_61
    4  A    between atoms: C_4  and  O_34
    5  A    between atoms: C_4  and  C_58
    6  A    between atoms: N_5  and  C_9
    7  A    between atoms: C_6  and  C_10
    8  A    between atoms: C_6  and  C_27
    9  A    between atoms: C_6  and  C_59
   10  A    between atoms: C_8  and  C_24
   11  A    between atoms: C_10  and  N_45
   12  A    between atoms: C_14  and  C_39
   13  A    between atoms: O_15  and  O_46
   14  A    between atoms: O_15  and  C_58
   15  A    between atoms: C_18  and  C_52
   16  A    between atoms: O_21  and  C_52
   17  A    between atoms: O_21  and  C_56
   18  A    between atoms: C_24  and  N_35
   19  A    between atoms: C_25  and  N_40
   20  A    between atoms: N_26  and  C_33
   21  A    between atoms: C_30  and  C_39
   22  A    between atoms: C_33  and  C_62
   23  A    between atoms: N_41  and  C_48
   24  A    between atoms: O_46  and  C_55
                            x       y       z     vdW  Elec       q    Type
                         _______ _______ _______ _____ _____    ______ ____

>  <TORSDO>
F 24

$$$$
=
 OpenBabel11042416333D

 62 65  0  0  1  0  0  0  0  0999 V2000
  189.5500  177.5140  143.9910 C   0  0  0  0  0  0  0  0  0  0  0  0
  190.2740  178.2710  144.6970 O   0  0  0  0  0  0  0  0  0  0  0  0
  190.1030  176.3020  143.4680 N   0  0  0  0  0  2  0  0  0  0  0  0
  194.0800  174.8120  146.0030 N   0  0  0  0  0  2  0  0  0  0  0  0
  193.4930  176.6590  144.6160 N   0  0  0  0  0  0  0  0  0  0  0  0
  192.4170  177.1460  143.7810 C   0  0  0  0  0  2  0  0  0  0  0  0
  193.1620  175.5500  145.1860 C   0  0  0  0  0  0  0  0  0  0  0  0
  191.5200  175.9390  143.6010 C   0  0  1  0  0  3  0  0  0  0  0  0
  191.8320  175.0200  144.7970 C   0  0  2  0  0  3  0  0  0  0  0  0
  189.0190  174.4540  147.3860 C   0  0  0  0  0  1  0  0  0  0  0  0
  189.8870  174.2420  146.1940 C   0  0  0  0  0  0  0  0  0  0  0  0
  189.7480  173.2000  145.4900 O   0  0  0  0  0  0  0  0  0  0  0  0
  190.8930  175.2150  145.8920 N   0  0  0  0  0  2  0  0  0  0  0  0
  195.5150  175.0620  145.9090 C   0  0  0  0  0  2  0  0  0  0  0  0
  196.1620  174.3330  144.7280 C   0  0  1  0  0  3  0  0  0  0  0  0
  196.9420  175.2920  143.9730 N   0  0  0  0  0  0  0  0  0  0  0  0
  197.0440  175.2880  142.6870 C   0  0  0  0  0  3  0  0  0  0  0  0
  196.3340  174.3030  141.7950 C   0  0  0  0  0  2  0  0  0  0  0  0
  193.7150  175.7650  136.3930 C   0  0  0  0  0  3  0  0  0  0  0  0
  195.9790  174.8030  136.1540 C   0  0  0  0  0  2  0  0  0  0  0  0
  196.3470  174.7340  140.4000 N   0  0  0  0  0  0  0  0  0  0  0  0
  195.0760  175.2270  139.8330 C   0  0  0  0  0  2  0  0  0  0  0  0
  197.4030  174.6180  138.2220 C   0  0  0  0  0  3  0  0  0  0  0  0
  194.8110  175.5870  135.6350 C   0  0  0  0  0  3  0  0  0  0  0  0
  196.1680  175.2080  137.6080 C   0  0  2  0  0  3  0  0  0  0  0  0
  194.9320  174.7500  138.3940 C   0  0  2  0  0  3  0  0  0  0  0  0
  193.5890  175.1450  137.7670 C   0  0  0  0  0  2  0  0  0  0  0  0
  197.4650  174.4210  139.5470 C   0  0  0  0  0  3  0  0  0  0  0  0
  197.0410  173.2570  145.1930 N   0  0  0  0  0  2  0  0  0  0  0  0
  196.1660  172.1860  145.6770 C   0  0  0  0  0  2  0  0  0  0  0  0
  196.9500  170.8950  145.7500 C   0  0  0  0  0  2  0  0  0  0  0  0
  197.0760  170.2730  144.3570 C   0  0  0  0  0  1  0  0  0  0  0  0
  188.0830  177.8470  143.8220 C   0  0  2  0  0  3  0  0  0  0  0  0
  187.5200  177.0980  146.1410 C   0  0  0  0  0  1  0  0  0  0  0  0
  187.4110  178.2400  145.1310 C   0  0  0  0  0  2  0  0  0  0  0  0
  187.3340  176.6690  143.2260 C   0  0  0  0  0  2  0  0  0  0  0  0
  185.0360  177.4750  142.5610 C   0  0  0  0  0  0  0  0  0  0  0  0
  185.9090  176.8080  143.4680 N   0  0  0  0  0  2  0  0  0  0  0  0
  183.8750  177.7820  142.9440 O   0  0  0  0  0  0  0  0  0  0  0  0
  184.3800  178.4420  140.1490 S   0  0  0  0  0  0  0  0  0  0  0  0
  185.4570  177.7860  141.1900 C   0  0  0  0  0  0  0  0  0  0  0  0
  186.7970  177.4320  140.6920 C   0  0  0  0  0  3  0  0  0  0  0  0
  186.9790  176.7140  139.6090 C   0  0  0  0  0  0  0  0  0  0  0  0
  187.1220  175.9750  138.5500 C   0  0  0  0  0  0  0  0  0  0  0  0
  187.6190  174.6710  138.6510 O   0  0  0  0  0  0  0  0  0  0  0  0
  188.5000  174.3380  139.6410 O   0  0  0  0  0  0  0  0  0  0  0  0
  189.6660  171.0550  138.4880 C   0  0  0  0  0  0  0  0  0  0  0  0
  188.9500  172.2870  138.6060 N   0  0  0  0  0  0  0  0  0  0  0  0
  189.5910  170.3870  137.4120 O   0  0  0  0  0  0  0  0  0  0  0  0
  190.5350  170.5610  139.6080 C   0  0  0  0  0  2  0  0  0  0  0  0
  190.2110  172.8310  140.5780 C   0  0  0  0  0  3  0  0  0  0  0  0
  189.1870  173.1270  139.5740 C   0  0  0  0  0  0  0  0  0  0  0  0
  190.8810  171.6790  140.5850 C   0  0  0  0  0  0  0  0  0  0  0  0
  191.8860  171.5120  141.5420 O   0  0  0  0  0  0  0  0  0  0  0  0
  192.1940  169.4160  142.5960 C   0  0  0  0  0  1  0  0  0  0  0  0
  191.7090  170.8430  142.7850 C   0  0  1  0  0  3  0  0  0  0  0  0
  192.5690  171.5420  143.8540 C   0  0  0  0  0  3  0  0  0  0  0  0
  193.2740  170.5860  144.6050 O   0  0  0  0  0  1  0  0  0  0  0  0
  193.4600  172.4190  143.2290 O   0  0  0  0  0  1  0  0  0  0  0  0
  186.7200  176.4940  137.2000 C   0  0  0  0  0  2  0  0  0  0  0  0
  187.7520  176.2390  136.2870 O   0  0  0  0  0  0  0  0  0  0  0  0
  187.7080  177.2550  135.4300 O   0  0  0  0  0  1  0  0  0  0  0  0
  1  2  2  0  0  0  0
  3  1  1  0  0  0  0
  5  7  2  0  0  0  0
  6  5  1  0  0  0  0
  7  4  1  0  0  0  0
  8  3  1  1  0  0  0
  8  6  1  0  0  0  0
  8  9  1  0  0  0  0
  9  7  1  0  0  0  0
  9 13  1  1  0  0  0
 11 10  1  0  0  0  0
 12 11  2  0  0  0  0
 13 11  1  0  0  0  0
 14  4  1  0  0  0  0
 15 29  1  0  0  0  0
 15 14  1  1  0  0  0
 16 15  1  0  0  0  0
 17 16  2  0  0  0  0
 18 17  1  0  0  0  0
 19 27  1  0  0  0  0
 21 18  1  0  0  0  0
 22 21  1  0  0  0  0
 23 28  2  0  0  0  0
 24 20  1  0  0  0  0
 24 19  2  0  0  0  0
 25 20  1  6  0  0  0
 25 23  1  0  0  0  0
 25 26  1  0  0  0  0
 26 27  1  6  0  0  0
 26 22  1  0  0  0  0
 28 21  1  0  0  0  0
 29 30  1  0  0  0  0
 30 31  1  0  0  0  0
 32 31  1  0  0  0  0
 33 36  1  1  0  0  0
 33  1  1  0  0  0  0
 33 35  1  0  0  0  0
 35 34  1  0  0  0  0
 36 38  1  0  0  0  0
 37 39  2  0  0  0  0
 37 38  1  0  0  0  0
 40 41  2  0  0  0  0
 41 37  1  0  0  0  0
 42 41  1  0  0  0  0
 43 42  2  0  0  0  0
 44 45  1  0  0  0  0
 44 43  2  0  0  0  0
 45 46  1  0  0  0  0
 47 48  1  0  0  0  0
 47 50  1  0  0  0  0
 48 52  2  0  0  0  0
 49 47  2  0  0  0  0
 50 53  1  0  0  0  0
 51 53  2  0  0  0  0
 52 46  1  0  0  0  0
 52 51  1  0  0  0  0
 53 54  1  0  0  0  0
 54 56  1  0  0  0  0
 56 55  1  6  0  0  0
 56 57  1  0  0  0  0
 57 58  1  0  0  0  0
 59 57  1  0  0  0  0
 60 44  1  0  0  0  0
 61 60  1  0  0  0  0
 62 61  1  0  0  0  0
M  END
>  <MODEL>
4

>  <REMARK>
 VINA RESULT:      -5.0      3.404      8.482
  Name = 
  24 active torsions:
  status: ('A' for Active; 'I' for Inactive)
    1  A    between atoms: C_1  and  C_9
    2  A    between atoms: C_1  and  N_35
    3  A    between atoms: C_1  and  N_61
    4  A    between atoms: C_4  and  O_34
    5  A    between atoms: C_4  and  C_58
    6  A    between atoms: N_5  and  C_9
    7  A    between atoms: C_6  and  C_10
    8  A    between atoms: C_6  and  C_27
    9  A    between atoms: C_6  and  C_59
   10  A    between atoms: C_8  and  C_24
   11  A    between atoms: C_10  and  N_45
   12  A    between atoms: C_14  and  C_39
   13  A    between atoms: O_15  and  O_46
   14  A    between atoms: O_15  and  C_58
   15  A    between atoms: C_18  and  C_52
   16  A    between atoms: O_21  and  C_52
   17  A    between atoms: O_21  and  C_56
   18  A    between atoms: C_24  and  N_35
   19  A    between atoms: C_25  and  N_40
   20  A    between atoms: N_26  and  C_33
   21  A    between atoms: C_30  and  C_39
   22  A    between atoms: C_33  and  C_62
   23  A    between atoms: N_41  and  C_48
   24  A    between atoms: O_46  and  C_55
                            x       y       z     vdW  Elec       q    Type
                         _______ _______ _______ _____ _____    ______ ____

>  <TORSDO>
F 24

$$$$
=
 OpenBabel11042416333D

 62 65  0  0  1  0  0  0  0  0999 V2000
  195.2620  172.6620  141.6870 C   0  0  0  0  0  0  0  0  0  0  0  0
  194.2070  172.9400  141.0500 O   0  0  0  0  0  0  0  0  0  0  0  0
  195.2750  172.7840  143.1130 N   0  0  0  0  0  2  0  0  0  0  0  0
  193.1110  176.2130  145.9450 N   0  0  0  0  0  2  0  0  0  0  0  0
  193.5420  173.8730  146.0710 N   0  0  0  0  0  0  0  0  0  0  0  0
  194.0810  172.7810  145.2900 C   0  0  0  0  0  2  0  0  0  0  0  0
  193.6450  174.9880  145.4290 C   0  0  0  0  0  0  0  0  0  0  0  0
  194.1550  173.3400  143.8840 C   0  0  1  0  0  3  0  0  0  0  0  0
  194.2000  174.8700  144.0580 C   0  0  2  0  0  3  0  0  0  0  0  0
  197.4650  176.6250  142.9680 C   0  0  0  0  0  1  0  0  0  0  0  0
  196.0970  176.0410  142.8890 C   0  0  0  0  0  0  0  0  0  0  0  0
  195.4200  176.1630  141.8270 O   0  0  0  0  0  0  0  0  0  0  0  0
  195.5630  175.3800  144.0410 N   0  0  0  0  0  2  0  0  0  0  0  0
  192.1040  176.1910  147.0010 C   0  0  0  0  0  2  0  0  0  0  0  0
  190.6750  176.1830  146.4500 C   0  0  1  0  0  3  0  0  0  0  0  0
  190.3630  174.8360  146.0180 N   0  0  0  0  0  0  0  0  0  0  0  0
  190.0250  174.5240  144.8120 C   0  0  0  0  0  3  0  0  0  0  0  0
  189.9460  175.5170  143.6820 C   0  0  0  0  0  2  0  0  0  0  0  0
  185.5230  178.1250  140.2450 C   0  0  0  0  0  3  0  0  0  0  0  0
  184.8630  177.7980  142.6040 C   0  0  0  0  0  2  0  0  0  0  0  0
  188.5630  175.8020  143.3130 N   0  0  0  0  0  0  0  0  0  0  0  0
  188.3210  176.3280  141.9550 C   0  0  0  0  0  2  0  0  0  0  0  0
  186.3050  176.3090  144.0330 C   0  0  0  0  0  3  0  0  0  0  0  0
  184.5420  178.0340  141.1580 C   0  0  0  0  0  3  0  0  0  0  0  0
  185.9790  176.7650  142.6420 C   0  0  2  0  0  3  0  0  0  0  0  0
  187.2250  177.3860  141.9970 C   0  0  2  0  0  3  0  0  0  0  0  0
  186.9830  178.0470  140.6350 C   0  0  0  0  0  2  0  0  0  0  0  0
  187.5300  175.8430  144.3170 C   0  0  0  0  0  3  0  0  0  0  0  0
  189.7150  176.5940  147.4760 N   0  0  0  0  0  2  0  0  0  0  0  0
  189.0740  177.8150  146.9810 C   0  0  0  0  0  2  0  0  0  0  0  0
  187.5730  177.6750  147.0980 C   0  0  0  0  0  2  0  0  0  0  0  0
  187.0100  178.7630  148.0150 C   0  0  0  0  0  1  0  0  0  0  0  0
  196.4450  172.0900  140.9350 C   0  0  2  0  0  3  0  0  0  0  0  0
  197.9410  171.8660  142.9270 C   0  0  0  0  0  1  0  0  0  0  0  0
  197.7830  172.4920  141.5410 C   0  0  0  0  0  2  0  0  0  0  0  0
  196.4170  172.5310  139.4830 C   0  0  0  0  0  2  0  0  0  0  0  0
  196.3300  170.7740  137.6730 C   0  0  0  0  0  0  0  0  0  0  0  0
  197.0500  171.5290  138.6440 N   0  0  0  0  0  2  0  0  0  0  0  0
  196.8730  169.7560  137.1640 O   0  0  0  0  0  0  0  0  0  0  0  0
  193.6890  170.7080  138.1220 S   0  0  0  0  0  0  0  0  0  0  0  0
  194.9860  171.1740  137.2420 C   0  0  0  0  0  0  0  0  0  0  0  0
  194.7610  171.8990  135.9800 C   0  0  0  0  0  3  0  0  0  0  0  0
  194.0250  172.9840  135.9120 C   0  0  0  0  0  0  0  0  0  0  0  0
  193.2640  174.0360  135.8760 C   0  0  0  0  0  0  0  0  0  0  0  0
  192.0290  174.0020  135.2210 O   0  0  0  0  0  0  0  0  0  0  0  0
  191.0770  173.0890  135.5800 O   0  0  0  0  0  0  0  0  0  0  0  0
  188.2470  174.6690  137.3010 C   0  0  0  0  0  0  0  0  0  0  0  0
  189.2450  174.3380  136.3330 N   0  0  0  0  0  0  0  0  0  0  0  0
  187.2530  175.3790  136.9600 O   0  0  0  0  0  0  0  0  0  0  0  0
  188.3420  174.1560  138.7090 C   0  0  0  0  0  2  0  0  0  0  0  0
  190.1450  172.6830  137.8250 C   0  0  0  0  0  3  0  0  0  0  0  0
  190.1400  173.4170  136.5590 C   0  0  0  0  0  0  0  0  0  0  0  0
  189.2940  172.9700  138.8110 C   0  0  0  0  0  0  0  0  0  0  0  0
  189.3300  172.1720  139.9580 O   0  0  0  0  0  0  0  0  0  0  0  0
  188.2200  172.5580  142.0120 C   0  0  0  0  0  1  0  0  0  0  0  0
  189.5430  172.6670  141.2750 C   0  0  1  0  0  3  0  0  0  0  0  0
  190.5970  171.7870  141.9720 C   0  0  0  0  0  3  0  0  0  0  0  0
  190.0360  171.1680  143.1030 O   0  0  0  0  0  1  0  0  0  0  0  0
  191.0610  170.8210  141.0740 O   0  0  0  0  0  1  0  0  0  0  0  0
  193.6820  175.3010  136.5680 C   0  0  0  0  0  2  0  0  0  0  0  0
  194.7430  175.0160  137.4380 O   0  0  0  0  0  0  0  0  0  0  0  0
  195.7870  175.6600  136.9250 O   0  0  0  0  0  1  0  0  0  0  0  0
  1  3  1  0  0  0  0
  2  1  2  0  0  0  0
  4 14  1  0  0  0  0
  6  5  1  0  0  0  0
  7  4  1  0  0  0  0
  7  5  2  0  0  0  0
  8  3  1  1  0  0  0
  8  9  1  0  0  0  0
  8  6  1  0  0  0  0
  9 13  1  1  0  0  0
  9  7  1  0  0  0  0
 11 10  1  0  0  0  0
 11 13  1  0  0  0  0
 12 11  2  0  0  0  0
 15 14  1  1  0  0  0
 15 29  1  0  0  0  0
 16 15  1  0  0  0  0
 17 16  2  0  0  0  0
 18 17  1  0  0  0  0
 19 27  1  0  0  0  0
 19 24  2  0  0  0  0
 21 18  1  0  0  0  0
 21 28  1  0  0  0  0
 22 26  1  0  0  0  0
 22 21  1  0  0  0  0
 23 28  2  0  0  0  0
 24 20  1  0  0  0  0
 25 20  1  1  0  0  0
 25 23  1  0  0  0  0
 26 27  1  6  0  0  0
 26 25  1  0  0  0  0
 30 31  1  0  0  0  0
 30 29  1  0  0  0  0
 31 32  1  0  0  0  0
 33 36  1  6  0  0  0
 33 35  1  0  0  0  0
 33  1  1  0  0  0  0
 35 34  1  0  0  0  0
 37 38  1  0  0  0  0
 38 36  1  0  0  0  0
 39 37  2  0  0  0  0
 41 37  1  0  0  0  0
 41 40  2  0  0  0  0
 42 41  1  0  0  0  0
 43 42  2  0  0  0  0
 44 43  2  0  0  0  0
 44 60  1  0  0  0  0
 45 46  1  0  0  0  0
 45 44  1  0  0  0  0
 46 52  1  0  0  0  0
 47 50  1  0  0  0  0
 48 52  2  0  0  0  0
 48 47  1  0  0  0  0
 49 47  2  0  0  0  0
 50 53  1  0  0  0  0
 51 53  2  0  0  0  0
 52 51  1  0  0  0  0
 53 54  1  0  0  0  0
 54 56  1  0  0  0  0
 56 57  1  0  0  0  0
 56 55  1  1  0  0  0
 57 58  1  0  0  0  0
 59 57  1  0  0  0  0
 60 61  1  0  0  0  0
 62 61  1  0  0  0  0
M  END
>  <MODEL>
5

>  <REMARK>
 VINA RESULT:      -5.0      3.173      9.987
  Name = 
  24 active torsions:
  status: ('A' for Active; 'I' for Inactive)
    1  A    between atoms: C_1  and  C_9
    2  A    between atoms: C_1  and  N_35
    3  A    between atoms: C_1  and  N_61
    4  A    between atoms: C_4  and  O_34
    5  A    between atoms: C_4  and  C_58
    6  A    between atoms: N_5  and  C_9
    7  A    between atoms: C_6  and  C_10
    8  A    between atoms: C_6  and  C_27
    9  A    between atoms: C_6  and  C_59
   10  A    between atoms: C_8  and  C_24
   11  A    between atoms: C_10  and  N_45
   12  A    between atoms: C_14  and  C_39
   13  A    between atoms: O_15  and  O_46
   14  A    between atoms: O_15  and  C_58
   15  A    between atoms: C_18  and  C_52
   16  A    between atoms: O_21  and  C_52
   17  A    between atoms: O_21  and  C_56
   18  A    between atoms: C_24  and  N_35
   19  A    between atoms: C_25  and  N_40
   20  A    between atoms: N_26  and  C_33
   21  A    between atoms: C_30  and  C_39
   22  A    between atoms: C_33  and  C_62
   23  A    between atoms: N_41  and  C_48
   24  A    between atoms: O_46  and  C_55
                            x       y       z     vdW  Elec       q    Type
                         _______ _______ _______ _____ _____    ______ ____

>  <TORSDO>
F 24

$$$$
=
 OpenBabel11042416333D

 62 65  0  0  1  0  0  0  0  0999 V2000
  190.0270  171.5610  140.9920 C   0  0  0  0  0  0  0  0  0  0  0  0
  189.3840  171.7790  142.0570 O   0  0  0  0  0  0  0  0  0  0  0  0
  189.6800  172.2780  139.8030 N   0  0  0  0  0  2  0  0  0  0  0  0
  187.0690  175.9550  137.7720 N   0  0  0  0  0  2  0  0  0  0  0  0
  187.9490  175.4290  139.9230 N   0  0  0  0  0  0  0  0  0  0  0  0
  188.6420  174.3760  140.6330 C   0  0  0  0  0  2  0  0  0  0  0  0
  187.7970  175.1190  138.6800 C   0  0  0  0  0  0  0  0  0  0  0  0
  188.5230  173.1780  139.7130 C   0  0  1  0  0  3  0  0  0  0  0  0
  188.2820  173.7660  138.3100 C   0  0  2  0  0  3  0  0  0  0  0  0
  191.0570  173.2190  135.6770 C   0  0  0  0  0  1  0  0  0  0  0  0
  189.8230  172.9870  136.4780 C   0  0  0  0  0  0  0  0  0  0  0  0
  189.0510  172.0280  136.1830 O   0  0  0  0  0  0  0  0  0  0  0  0
  189.5180  173.8850  137.5500 N   0  0  0  0  0  2  0  0  0  0  0  0
  186.1500  176.9680  138.2800 C   0  0  0  0  0  2  0  0  0  0  0  0
  184.7390  176.4190  138.5110 C   0  0  1  0  0  3  0  0  0  0  0  0
  183.9450  177.4560  139.1380 N   0  0  0  0  0  0  0  0  0  0  0  0
  184.2460  178.0190  140.2590 C   0  0  0  0  0  3  0  0  0  0  0  0
  185.4870  177.6960  141.0500 C   0  0  0  0  0  2  0  0  0  0  0  0
  186.8010  177.4590  147.0820 C   0  0  0  0  0  3  0  0  0  0  0  0
  184.4930  178.2100  146.6120 C   0  0  0  0  0  2  0  0  0  0  0  0
  185.3650  178.1220  142.4400 N   0  0  0  0  0  0  0  0  0  0  0  0
  186.4360  177.7090  143.3700 C   0  0  0  0  0  2  0  0  0  0  0  0
  183.9260  178.8570  144.2460 C   0  0  0  0  0  3  0  0  0  0  0  0
  185.6890  178.0830  147.5080 C   0  0  0  0  0  3  0  0  0  0  0  0
  185.0190  178.5450  145.2250 C   0  0  2  0  0  3  0  0  0  0  0  0
  185.8350  177.3470  144.7220 C   0  0  2  0  0  3  0  0  0  0  0  0
  186.8780  176.8180  145.7150 C   0  0  0  0  0  2  0  0  0  0  0  0
  184.1240  178.6620  142.9340 C   0  0  0  0  0  3  0  0  0  0  0  0
  184.1130  176.0320  137.2450 N   0  0  0  0  0  2  0  0  0  0  0  0
  182.6980  175.7880  137.5390 C   0  0  0  0  0  2  0  0  0  0  0  0
  182.0790  175.0090  136.4000 C   0  0  0  0  0  2  0  0  0  0  0  0
  180.8360  175.7340  135.8780 C   0  0  0  0  0  1  0  0  0  0  0  0
  191.2270  170.6390  141.0330 C   0  0  2  0  0  3  0  0  0  0  0  0
  192.1520  168.3930  141.6310 C   0  0  0  0  0  1  0  0  0  0  0  0
  190.9190  169.2950  141.6820 C   0  0  0  0  0  2  0  0  0  0  0  0
  192.3740  171.2890  141.7850 C   0  0  0  0  0  2  0  0  0  0  0  0
  194.4120  172.3000  140.6910 C   0  0  0  0  0  0  0  0  0  0  0  0
  193.0120  172.2940  140.9520 N   0  0  0  0  0  2  0  0  0  0  0  0
  194.9350  173.3280  140.1800 O   0  0  0  0  0  0  0  0  0  0  0  0
  195.1760  169.8270  139.9940 S   0  0  0  0  0  0  0  0  0  0  0  0
  195.2450  171.1280  140.9830 C   0  0  0  0  0  0  0  0  0  0  0  0
  196.0700  171.0480  142.2000 C   0  0  0  0  0  3  0  0  0  0  0  0
  195.6150  170.5570  143.3290 C   0  0  0  0  0  0  0  0  0  0  0  0
  195.1220  170.0930  144.4380 C   0  0  0  0  0  0  0  0  0  0  0  0
  194.9010  170.9390  145.5290 O   0  0  0  0  0  0  0  0  0  0  0  0
  193.9120  171.8820  145.4890 O   0  0  0  0  0  0  0  0  0  0  0  0
  195.7850  174.9630  144.8080 C   0  0  0  0  0  0  0  0  0  0  0  0
  195.4240  173.5880  144.9570 N   0  0  0  0  0  0  0  0  0  0  0  0
  196.8290  175.2700  144.1570 O   0  0  0  0  0  0  0  0  0  0  0  0
  194.9210  176.0500  145.3800 C   0  0  0  0  0  2  0  0  0  0  0  0
  193.2460  174.2420  145.7340 C   0  0  0  0  0  3  0  0  0  0  0  0
  194.2470  173.2310  145.3900 C   0  0  0  0  0  0  0  0  0  0  0  0
  193.5170  175.5470  145.6880 C   0  0  0  0  0  0  0  0  0  0  0  0
  192.4780  176.4390  145.9700 O   0  0  0  0  0  0  0  0  0  0  0  0
  190.3980  176.4250  147.0990 C   0  0  0  0  0  1  0  0  0  0  0  0
  191.0980  176.1530  145.7790 C   0  0  1  0  0  3  0  0  0  0  0  0
  190.5400  177.0950  144.6960 C   0  0  0  0  0  3  0  0  0  0  0  0
  191.5800  177.8590  144.1400 O   0  0  0  0  0  1  0  0  0  0  0  0
  189.9130  176.3360  143.7030 O   0  0  0  0  0  1  0  0  0  0  0  0
  194.7470  168.6450  144.5560 C   0  0  0  0  0  2  0  0  0  0  0  0
  193.8610  168.4890  145.6310 O   0  0  0  0  0  0  0  0  0  0  0  0
  192.6590  168.3890  145.0710 O   0  0  0  0  0  1  0  0  0  0  0  0
  1 33  1  0  0  0  0
  1  2  2  0  0  0  0
  3  1  1  0  0  0  0
  4 14  1  0  0  0  0
  4  7  1  0  0  0  0
  5  6  1  0  0  0  0
  7  5  2  0  0  0  0
  8  3  1  6  0  0  0
  8  6  1  0  0  0  0
  9 13  1  6  0  0  0
  9  7  1  0  0  0  0
  9  8  1  0  0  0  0
 10 11  1  0  0  0  0
 11 13  1  0  0  0  0
 12 11  2  0  0  0  0
 15 14  1  6  0  0  0
 15 16  1  0  0  0  0
 16 17  2  0  0  0  0
 17 18  1  0  0  0  0
 18 21  1  0  0  0  0
 19 24  2  0  0  0  0
 20 24  1  0  0  0  0
 21 28  1  0  0  0  0
 21 22  1  0  0  0  0
 25 23  1  6  0  0  0
 25 20  1  0  0  0  0
 26 22  1  6  0  0  0
 26 25  1  0  0  0  0
 26 27  1  0  0  0  0
 27 19  1  0  0  0  0
 28 23  2  0  0  0  0
 29 30  1  0  0  0  0
 29 15  1  0  0  0  0
 31 30  1  0  0  0  0
 32 31  1  0  0  0  0
 33 35  1  1  0  0  0
 33 36  1  0  0  0  0
 34 35  1  0  0  0  0
 37 38  1  0  0  0  0
 37 41  1  0  0  0  0
 38 36  1  0  0  0  0
 39 37  2  0  0  0  0
 40 41  2  0  0  0  0
 41 42  1  0  0  0  0
 42 43  2  0  0  0  0
 43 44  2  0  0  0  0
 44 60  1  0  0  0  0
 44 45  1  0  0  0  0
 46 45  1  0  0  0  0
 47 48  1  0  0  0  0
 47 50  1  0  0  0  0
 48 52  2  0  0  0  0
 49 47  2  0  0  0  0
 50 53  1  0  0  0  0
 52 46  1  0  0  0  0
 52 51  1  0  0  0  0
 53 51  2  0  0  0  0
 53 54  1  0  0  0  0
 56 54  1  0  0  0  0
 56 55  1  1  0  0  0
 57 56  1  0  0  0  0
 58 57  1  0  0  0  0
 59 57  1  0  0  0  0
 60 61  1  0  0  0  0
 62 61  1  0  0  0  0
M  END
>  <MODEL>
6

>  <REMARK>
 VINA RESULT:      -4.5      3.587      9.105
  Name = 
  24 active torsions:
  status: ('A' for Active; 'I' for Inactive)
    1  A    between atoms: C_1  and  C_9
    2  A    between atoms: C_1  and  N_35
    3  A    between atoms: C_1  and  N_61
    4  A    between atoms: C_4  and  O_34
    5  A    between atoms: C_4  and  C_58
    6  A    between atoms: N_5  and  C_9
    7  A    between atoms: C_6  and  C_10
    8  A    between atoms: C_6  and  C_27
    9  A    between atoms: C_6  and  C_59
   10  A    between atoms: C_8  and  C_24
   11  A    between atoms: C_10  and  N_45
   12  A    between atoms: C_14  and  C_39
   13  A    between atoms: O_15  and  O_46
   14  A    between atoms: O_15  and  C_58
   15  A    between atoms: C_18  and  C_52
   16  A    between atoms: O_21  and  C_52
   17  A    between atoms: O_21  and  C_56
   18  A    between atoms: C_24  and  N_35
   19  A    between atoms: C_25  and  N_40
   20  A    between atoms: N_26  and  C_33
   21  A    between atoms: C_30  and  C_39
   22  A    between atoms: C_33  and  C_62
   23  A    between atoms: N_41  and  C_48
   24  A    between atoms: O_46  and  C_55
                            x       y       z     vdW  Elec       q    Type
                         _______ _______ _______ _____ _____    ______ ____

>  <TORSDO>
F 24

$$$$
=
 OpenBabel11042416333D

 62 65  0  0  1  0  0  0  0  0999 V2000
  190.6410  173.2630  142.0370 C   0  0  0  0  0  0  0  0  0  0  0  0
  190.0560  172.8880  143.0920 O   0  0  0  0  0  0  0  0  0  0  0  0
  190.2600  174.4970  141.4220 N   0  0  0  0  0  2  0  0  0  0  0  0
  186.0620  177.0270  140.7590 N   0  0  0  0  0  2  0  0  0  0  0  0
  188.2210  177.4500  141.6740 N   0  0  0  0  0  0  0  0  0  0  0  0
  189.4670  176.7820  141.9840 C   0  0  0  0  0  2  0  0  0  0  0  0
  187.3990  176.6390  141.0970 C   0  0  0  0  0  0  0  0  0  0  0  0
  189.1260  175.3090  141.8810 C   0  0  1  0  0  3  0  0  0  0  0  0
  187.8860  175.2430  140.9690 C   0  0  2  0  0  3  0  0  0  0  0  0
  188.5200  173.4550  137.6030 C   0  0  0  0  0  1  0  0  0  0  0  0
  188.2390  173.6490  139.0520 C   0  0  0  0  0  0  0  0  0  0  0  0
  187.9710  172.6510  139.7810 O   0  0  0  0  0  0  0  0  0  0  0  0
  188.2430  174.9800  139.5830 N   0  0  0  0  0  2  0  0  0  0  0  0
  185.4510  178.1910  141.3910 C   0  0  0  0  0  2  0  0  0  0  0  0
  184.1550  177.8460  142.1320 C   0  0  1  0  0  3  0  0  0  0  0  0
  183.9830  178.7960  143.2120 N   0  0  0  0  0  0  0  0  0  0  0  0
  184.9490  179.2530  143.9350 C   0  0  0  0  0  3  0  0  0  0  0  0
  186.3950  178.8830  143.7270 C   0  0  0  0  0  2  0  0  0  0  0  0
  190.6970  175.6800  146.7940 C   0  0  0  0  0  3  0  0  0  0  0  0
  188.4030  175.2730  147.6160 C   0  0  0  0  0  2  0  0  0  0  0  0
  186.9560  178.2250  144.9020 N   0  0  0  0  0  0  0  0  0  0  0  0
  188.4040  177.9370  144.8890 C   0  0  0  0  0  2  0  0  0  0  0  0
  186.5850  176.8400  146.8560 C   0  0  0  0  0  3  0  0  0  0  0  0
  189.8930  175.2410  147.7780 C   0  0  0  0  0  3  0  0  0  0  0  0
  188.0620  176.5950  146.9450 C   0  0  2  0  0  3  0  0  0  0  0  0
  188.6680  176.5830  145.5360 C   0  0  2  0  0  3  0  0  0  0  0  0
  190.1450  176.1710  145.4740 C   0  0  0  0  0  2  0  0  0  0  0  0
  186.0930  177.6290  145.8900 C   0  0  0  0  0  3  0  0  0  0  0  0
  183.0010  177.9220  141.2350 N   0  0  0  0  0  2  0  0  0  0  0  0
  181.9630  178.6660  141.9540 C   0  0  0  0  0  2  0  0  0  0  0  0
  181.0810  179.3840  140.9570 C   0  0  0  0  0  2  0  0  0  0  0  0
  179.6090  179.2320  141.3480 C   0  0  0  0  0  1  0  0  0  0  0  0
  191.8150  172.4560  141.5220 C   0  0  2  0  0  3  0  0  0  0  0  0
  190.5230  170.6260  140.4080 C   0  0  0  0  0  1  0  0  0  0  0  0
  191.5400  170.9580  141.5010 C   0  0  0  0  0  2  0  0  0  0  0  0
  193.0490  172.7110  142.3680 C   0  0  0  0  0  2  0  0  0  0  0  0
  194.0640  171.8740  144.5220 C   0  0  0  0  0  0  0  0  0  0  0  0
  193.0850  171.7900  143.4900 N   0  0  0  0  0  2  0  0  0  0  0  0
  194.1970  170.9070  145.3190 O   0  0  0  0  0  0  0  0  0  0  0  0
  194.2950  174.3680  145.4760 S   0  0  0  0  0  0  0  0  0  0  0  0
  194.8980  173.0710  144.6840 C   0  0  0  0  0  0  0  0  0  0  0  0
  196.2300  173.1760  144.0650 C   0  0  0  0  0  3  0  0  0  0  0  0
  196.4430  173.8600  142.9640 C   0  0  0  0  0  0  0  0  0  0  0  0
  196.6130  174.5180  141.8580 C   0  0  0  0  0  0  0  0  0  0  0  0
  196.9220  173.8490  140.6690 O   0  0  0  0  0  0  0  0  0  0  0  0
  196.7780  174.4730  139.4620 O   0  0  0  0  0  0  0  0  0  0  0  0
  196.0790  173.2950  136.0570 C   0  0  0  0  0  0  0  0  0  0  0  0
  196.6110  174.0150  137.1720 N   0  0  0  0  0  0  0  0  0  0  0  0
  196.6570  173.3670  134.9310 O   0  0  0  0  0  0  0  0  0  0  0  0
  194.8640  172.4260  136.2130 C   0  0  0  0  0  2  0  0  0  0  0  0
  195.2000  172.7580  138.6580 C   0  0  0  0  0  3  0  0  0  0  0  0
  196.2130  173.7820  138.3910 C   0  0  0  0  0  0  0  0  0  0  0  0
  194.6020  172.0850  137.6740 C   0  0  0  0  0  0  0  0  0  0  0  0
  193.6960  171.0810  138.0280 O   0  0  0  0  0  0  0  0  0  0  0  0
  193.2690  168.8230  138.5930 C   0  0  0  0  0  1  0  0  0  0  0  0
  193.7010  169.7660  137.4840 C   0  0  1  0  0  3  0  0  0  0  0  0
  192.6870  169.7010  136.3280 C   0  0  0  0  0  3  0  0  0  0  0  0
  193.3270  169.2820  135.1490 O   0  0  0  0  0  1  0  0  0  0  0  0
  191.6610  168.8130  136.6620 O   0  0  0  0  0  1  0  0  0  0  0  0
  196.4420  176.0090  141.8260 C   0  0  0  0  0  2  0  0  0  0  0  0
  195.0960  176.3200  142.0590 O   0  0  0  0  0  0  0  0  0  0  0  0
  194.6950  176.9460  140.9560 O   0  0  0  0  0  1  0  0  0  0  0  0
  1  2  2  0  0  0  0
  3  1  1  0  0  0  0
  4  7  1  0  0  0  0
  4 14  1  0  0  0  0
  5  6  1  0  0  0  0
  7  5  2  0  0  0  0
  8  3  1  6  0  0  0
  8  6  1  0  0  0  0
  9 13  1  6  0  0  0
  9  7  1  0  0  0  0
  9  8  1  0  0  0  0
 10 11  1  0  0  0  0
 11 13  1  0  0  0  0
 11 12  2  0  0  0  0
 15 14  1  6  0  0  0
 15 16  1  0  0  0  0
 16 17  2  0  0  0  0
 18 17  1  0  0  0  0
 18 21  1  0  0  0  0
 19 24  2  0  0  0  0
 20 24  1  0  0  0  0
 21 28  1  0  0  0  0
 22 21  1  0  0  0  0
 25 23  1  6  0  0  0
 25 20  1  0  0  0  0
 26 22  1  1  0  0  0
 26 25  1  0  0  0  0
 27 26  1  0  0  0  0
 27 19  1  0  0  0  0
 28 23  2  0  0  0  0
 29 30  1  0  0  0  0
 29 15  1  0  0  0  0
 31 32  1  0  0  0  0
 31 30  1  0  0  0  0
 33 35  1  1  0  0  0
 33  1  1  0  0  0  0
 33 36  1  0  0  0  0
 34 35  1  0  0  0  0
 36 38  1  0  0  0  0
 37 41  1  0  0  0  0
 37 39  2  0  0  0  0
 38 37  1  0  0  0  0
 41 40  2  0  0  0  0
 42 41  1  0  0  0  0
 43 42  2  0  0  0  0
 44 43  2  0  0  0  0
 45 44  1  0  0  0  0
 46 45  1  0  0  0  0
 47 50  1  0  0  0  0
 47 48  1  0  0  0  0
 48 52  2  0  0  0  0
 49 47  2  0  0  0  0
 50 53  1  0  0  0  0
 52 51  1  0  0  0  0
 52 46  1  0  0  0  0
 53 54  1  0  0  0  0
 53 51  2  0  0  0  0
 56 54  1  0  0  0  0
 56 55  1  1  0  0  0
 57 59  1  0  0  0  0
 57 56  1  0  0  0  0
 58 57  1  0  0  0  0
 60 44  1  0  0  0  0
 60 61  1  0  0  0  0
 62 61  1  0  0  0  0
M  END
>  <MODEL>
7

>  <REMARK>
 VINA RESULT:      -4.5      3.202     10.511
  Name = 
  24 active torsions:
  status: ('A' for Active; 'I' for Inactive)
    1  A    between atoms: C_1  and  C_9
    2  A    between atoms: C_1  and  N_35
    3  A    between atoms: C_1  and  N_61
    4  A    between atoms: C_4  and  O_34
    5  A    between atoms: C_4  and  C_58
    6  A    between atoms: N_5  and  C_9
    7  A    between atoms: C_6  and  C_10
    8  A    between atoms: C_6  and  C_27
    9  A    between atoms: C_6  and  C_59
   10  A    between atoms: C_8  and  C_24
   11  A    between atoms: C_10  and  N_45
   12  A    between atoms: C_14  and  C_39
   13  A    between atoms: O_15  and  O_46
   14  A    between atoms: O_15  and  C_58
   15  A    between atoms: C_18  and  C_52
   16  A    between atoms: O_21  and  C_52
   17  A    between atoms: O_21  and  C_56
   18  A    between atoms: C_24  and  N_35
   19  A    between atoms: C_25  and  N_40
   20  A    between atoms: N_26  and  C_33
   21  A    between atoms: C_30  and  C_39
   22  A    between atoms: C_33  and  C_62
   23  A    between atoms: N_41  and  C_48
   24  A    between atoms: O_46  and  C_55
                            x       y       z     vdW  Elec       q    Type
                         _______ _______ _______ _____ _____    ______ ____

>  <TORSDO>
F 24

$$$$
=
 OpenBabel11042416333D

 62 65  0  0  1  0  0  0  0  0999 V2000
  191.6710  174.1790  145.9320 C   0  0  0  0  0  0  0  0  0  0  0  0
  190.7990  173.5820  145.2400 O   0  0  0  0  0  0  0  0  0  0  0  0
  193.0290  173.7290  145.8900 N   0  0  0  0  0  2  0  0  0  0  0  0
  195.3830  171.3160  142.2710 N   0  0  0  0  0  2  0  0  0  0  0  0
  193.1670  171.4120  143.1430 N   0  0  0  0  0  0  0  0  0  0  0  0
  192.4010  172.0050  144.2170 C   0  0  0  0  0  2  0  0  0  0  0  0
  194.3920  171.8170  143.1770 C   0  0  0  0  0  0  0  0  0  0  0  0
  193.4560  172.5200  145.1750 C   0  0  1  0  0  3  0  0  0  0  0  0
  194.7260  172.7000  144.3220 C   0  0  2  0  0  3  0  0  0  0  0  0
  196.1970  175.9400  142.8150 C   0  0  0  0  0  1  0  0  0  0  0  0
  196.1320  174.5610  143.3730 C   0  0  0  0  0  0  0  0  0  0  0  0
  197.1700  173.8390  143.3900 O   0  0  0  0  0  0  0  0  0  0  0  0
  194.8740  174.0690  143.8500 N   0  0  0  0  0  2  0  0  0  0  0  0
  195.1570  170.0680  141.5490 C   0  0  0  0  0  2  0  0  0  0  0  0
  196.4630  169.3560  141.1850 C   0  0  1  0  0  3  0  0  0  0  0  0
  197.5460  170.3130  141.2820 N   0  0  0  0  0  0  0  0  0  0  0  0
  197.9410  171.0600  140.3070 C   0  0  0  0  0  3  0  0  0  0  0  0
  197.3020  171.0600  138.9430 C   0  0  0  0  0  2  0  0  0  0  0  0
  194.3650  175.1570  135.3700 C   0  0  0  0  0  3  0  0  0  0  0  0
  196.4680  176.0280  136.3320 C   0  0  0  0  0  2  0  0  0  0  0  0
  196.9070  172.4040  138.5330 N   0  0  0  0  0  0  0  0  0  0  0  0
  195.7370  172.5230  137.6400 C   0  0  0  0  0  2  0  0  0  0  0  0
  197.5390  174.7190  138.1970 C   0  0  0  0  0  3  0  0  0  0  0  0
  195.1250  176.2180  135.6920 C   0  0  0  0  0  3  0  0  0  0  0  0
  196.3100  174.9180  137.3600 C   0  0  2  0  0  3  0  0  0  0  0  0
  195.9800  173.6200  136.6120 C   0  0  2  0  0  3  0  0  0  0  0  0
  194.8440  173.7390  135.5880 C   0  0  0  0  0  2  0  0  0  0  0  0
  197.7870  173.5240  138.7520 C   0  0  0  0  0  3  0  0  0  0  0  0
  196.7240  168.2390  142.0960 N   0  0  0  0  0  2  0  0  0  0  0  0
  195.6340  168.2380  143.0750 C   0  0  0  0  0  2  0  0  0  0  0  0
  196.2140  168.1660  144.4690 C   0  0  0  0  0  2  0  0  0  0  0  0
  197.6850  168.5880  144.4530 C   0  0  0  0  0  1  0  0  0  0  0  0
  191.2790  175.4290  146.6900 C   0  0  2  0  0  3  0  0  0  0  0  0
  189.0860  174.6050  147.5690 C   0  0  0  0  0  1  0  0  0  0  0  0
  189.7740  175.6640  146.7060 C   0  0  0  0  0  2  0  0  0  0  0  0
  191.9540  176.6500  146.0910 C   0  0  0  0  0  2  0  0  0  0  0  0
  191.9420  176.5990  143.5670 C   0  0  0  0  0  0  0  0  0  0  0  0
  192.5620  176.3100  144.8170 N   0  0  0  0  0  2  0  0  0  0  0  0
  192.3930  176.0580  142.5210 O   0  0  0  0  0  0  0  0  0  0  0  0
  191.0870  179.1390  143.5380 S   0  0  0  0  0  0  0  0  0  0  0  0
  190.8100  177.5290  143.4770 C   0  0  0  0  0  0  0  0  0  0  0  0
  189.4170  177.0510  143.4340 C   0  0  0  0  0  3  0  0  0  0  0  0
  188.9740  176.2570  142.4880 C   0  0  0  0  0  0  0  0  0  0  0  0
  188.5600  175.4960  141.5200 C   0  0  0  0  0  0  0  0  0  0  0  0
  187.6500  175.9770  140.5740 O   0  0  0  0  0  0  0  0  0  0  0  0
  187.2130  177.2720  140.6240 O   0  0  0  0  0  0  0  0  0  0  0  0
  183.6470  178.0560  140.9930 C   0  0  0  0  0  0  0  0  0  0  0  0
  184.9390  177.7950  140.4380 N   0  0  0  0  0  0  0  0  0  0  0  0
  182.6260  178.0310  140.2420 O   0  0  0  0  0  0  0  0  0  0  0  0
  183.4820  178.3220  142.4620 C   0  0  0  0  0  2  0  0  0  0  0  0
  185.8420  177.5510  142.6520 C   0  0  0  0  0  3  0  0  0  0  0  0
  185.9750  177.5610  141.1940 C   0  0  0  0  0  0  0  0  0  0  0  0
  184.6920  177.8490  143.2570 C   0  0  0  0  0  0  0  0  0  0  0  0
  184.6420  177.7490  144.6510 O   0  0  0  0  0  0  0  0  0  0  0  0
  184.2620  178.9770  146.6380 C   0  0  0  0  0  1  0  0  0  0  0  0
  185.2680  178.6630  145.5450 C   0  0  1  0  0  3  0  0  0  0  0  0
  186.5060  177.9870  146.1610 C   0  0  0  0  0  3  0  0  0  0  0  0
  186.6500  178.3780  147.5040 O   0  0  0  0  0  1  0  0  0  0  0  0
  186.3670  176.5990  146.0740 O   0  0  0  0  0  1  0  0  0  0  0  0
  189.0810  174.0960  141.3770 C   0  0  0  0  0  2  0  0  0  0  0  0
  190.3870  174.1440  140.8710 O   0  0  0  0  0  0  0  0  0  0  0  0
  190.5710  172.9620  140.2890 O   0  0  0  0  0  1  0  0  0  0  0  0
  1 33  1  0  0  0  0
  2  1  2  0  0  0  0
  3  1  1  0  0  0  0
  4  7  1  0  0  0  0
  5  7  2  0  0  0  0
  5  6  1  0  0  0  0
  6  8  1  0  0  0  0
  7  9  1  0  0  0  0
  8  3  1  6  0  0  0
  9 13  1  6  0  0  0
  9  8  1  0  0  0  0
 10 11  1  0  0  0  0
 11 12  2  0  0  0  0
 11 13  1  0  0  0  0
 14  4  1  0  0  0  0
 15 16  1  0  0  0  0
 15 14  1  1  0  0  0
 15 29  1  0  0  0  0
 17 16  2  0  0  0  0
 18 17  1  0  0  0  0
 19 27  1  0  0  0  0
 19 24  2  0  0  0  0
 21 28  1  0  0  0  0
 21 18  1  0  0  0  0
 22 21  1  0  0  0  0
 23 28  2  0  0  0  0
 24 20  1  0  0  0  0
 25 20  1  6  0  0  0
 25 23  1  0  0  0  0
 26 27  1  1  0  0  0
 26 25  1  0  0  0  0
 26 22  1  0  0  0  0
 29 30  1  0  0  0  0
 30 31  1  0  0  0  0
 32 31  1  0  0  0  0
 33 36  1  6  0  0  0
 33 35  1  0  0  0  0
 35 34  1  0  0  0  0
 37 38  1  0  0  0  0
 38 36  1  0  0  0  0
 39 37  2  0  0  0  0
 41 40  2  0  0  0  0
 41 37  1  0  0  0  0
 42 41  1  0  0  0  0
 43 42  2  0  0  0  0
 44 43  2  0  0  0  0
 45 46  1  0  0  0  0
 45 44  1  0  0  0  0
 46 52  1  0  0  0  0
 47 50  1  0  0  0  0
 48 47  1  0  0  0  0
 48 52  2  0  0  0  0
 49 47  2  0  0  0  0
 50 53  1  0  0  0  0
 51 53  2  0  0  0  0
 52 51  1  0  0  0  0
 53 54  1  0  0  0  0
 54 56  1  0  0  0  0
 56 57  1  0  0  0  0
 56 55  1  1  0  0  0
 57 58  1  0  0  0  0
 59 57  1  0  0  0  0
 60 44  1  0  0  0  0
 61 60  1  0  0  0  0
 62 61  1  0  0  0  0
M  END
>  <MODEL>
8

>  <REMARK>
 VINA RESULT:      -4.4      3.003      6.211
  Name = 
  24 active torsions:
  status: ('A' for Active; 'I' for Inactive)
    1  A    between atoms: C_1  and  C_9
    2  A    between atoms: C_1  and  N_35
    3  A    between atoms: C_1  and  N_61
    4  A    between atoms: C_4  and  O_34
    5  A    between atoms: C_4  and  C_58
    6  A    between atoms: N_5  and  C_9
    7  A    between atoms: C_6  and  C_10
    8  A    between atoms: C_6  and  C_27
    9  A    between atoms: C_6  and  C_59
   10  A    between atoms: C_8  and  C_24
   11  A    between atoms: C_10  and  N_45
   12  A    between atoms: C_14  and  C_39
   13  A    between atoms: O_15  and  O_46
   14  A    between atoms: O_15  and  C_58
   15  A    between atoms: C_18  and  C_52
   16  A    between atoms: O_21  and  C_52
   17  A    between atoms: O_21  and  C_56
   18  A    between atoms: C_24  and  N_35
   19  A    between atoms: C_25  and  N_40
   20  A    between atoms: N_26  and  C_33
   21  A    between atoms: C_30  and  C_39
   22  A    between atoms: C_33  and  C_62
   23  A    between atoms: N_41  and  C_48
   24  A    between atoms: O_46  and  C_55
                            x       y       z     vdW  Elec       q    Type
                         _______ _______ _______ _____ _____    ______ ____

>  <TORSDO>
F 24

$$$$
=
 OpenBabel11042416333D

 62 65  0  0  1  0  0  0  0  0999 V2000
  191.1140  173.1350  142.1040 C   0  0  0  0  0  0  0  0  0  0  0  0
  190.4150  172.5800  142.9970 O   0  0  0  0  0  0  0  0  0  0  0  0
  190.8760  174.5080  141.7770 N   0  0  0  0  0  2  0  0  0  0  0  0
  186.4970  176.7960  141.5480 N   0  0  0  0  0  2  0  0  0  0  0  0
  188.7300  177.3710  142.1500 N   0  0  0  0  0  0  0  0  0  0  0  0
  190.0390  176.7810  142.3260 C   0  0  0  0  0  2  0  0  0  0  0  0
  187.8860  176.4910  141.7260 C   0  0  0  0  0  0  0  0  0  0  0  0
  189.7680  175.2900  142.3410 C   0  0  1  0  0  3  0  0  0  0  0  0
  188.4270  175.1150  141.6040 C   0  0  2  0  0  3  0  0  0  0  0  0
  188.4660  173.2390  138.2250 C   0  0  0  0  0  1  0  0  0  0  0  0
  188.3440  173.4810  139.6900 C   0  0  0  0  0  0  0  0  0  0  0  0
  187.9740  172.5430  140.4540 O   0  0  0  0  0  0  0  0  0  0  0  0
  188.6170  174.7920  140.1970 N   0  0  0  0  0  2  0  0  0  0  0  0
  185.9100  177.9630  142.1960 C   0  0  0  0  0  2  0  0  0  0  0  0
  184.3840  177.8730  142.2990 C   0  0  1  0  0  3  0  0  0  0  0  0
  183.9800  178.4420  143.5680 N   0  0  0  0  0  0  0  0  0  0  0  0
  184.8050  178.8680  144.4650 C   0  0  0  0  0  3  0  0  0  0  0  0
  186.3020  178.8610  144.2950 C   0  0  0  0  0  2  0  0  0  0  0  0
  191.1300  176.0370  146.9190 C   0  0  0  0  0  3  0  0  0  0  0  0
  188.9800  174.8950  147.3430 C   0  0  0  0  0  2  0  0  0  0  0  0
  186.9560  178.0550  145.3210 N   0  0  0  0  0  0  0  0  0  0  0  0
  188.4290  178.1290  145.4000 C   0  0  0  0  0  2  0  0  0  0  0  0
  186.8590  176.1410  146.8030 C   0  0  0  0  0  3  0  0  0  0  0  0
  190.4190  175.1700  147.6600 C   0  0  0  0  0  3  0  0  0  0  0  0
  188.3440  176.2320  146.9950 C   0  0  2  0  0  3  0  0  0  0  0  0
  188.9990  176.7500  145.7080 C   0  0  2  0  0  3  0  0  0  0  0  0
  190.5330  176.7280  145.7130 C   0  0  0  0  0  2  0  0  0  0  0  0
  186.2280  177.0270  146.0180 C   0  0  0  0  0  3  0  0  0  0  0  0
  183.7400  178.6130  141.2130 N   0  0  0  0  0  2  0  0  0  0  0  0
  182.4660  177.9380  140.9490 C   0  0  0  0  0  2  0  0  0  0  0  0
  181.3340  178.7720  141.5050 C   0  0  0  0  0  2  0  0  0  0  0  0
  180.0850  177.9090  141.6960 C   0  0  0  0  0  1  0  0  0  0  0  0
  192.2670  172.3690  141.4900 C   0  0  2  0  0  3  0  0  0  0  0  0
  193.2990  173.0630  143.6610 C   0  0  0  0  0  1  0  0  0  0  0  0
  193.3890  172.0930  142.4820 C   0  0  0  0  0  2  0  0  0  0  0  0
  192.8410  173.1260  140.3060 C   0  0  0  0  0  2  0  0  0  0  0  0
  194.7870  174.7170  140.0790 C   0  0  0  0  0  0  0  0  0  0  0  0
  193.6290  174.2540  140.7690 N   0  0  0  0  0  2  0  0  0  0  0  0
  195.5630  175.5240  140.6600 O   0  0  0  0  0  0  0  0  0  0  0  0
  194.2590  174.9760  137.4640 S   0  0  0  0  0  0  0  0  0  0  0  0
  195.0750  174.2910  138.7050 C   0  0  0  0  0  0  0  0  0  0  0  0
  196.0080  173.1890  138.4150 C   0  0  0  0  0  3  0  0  0  0  0  0
  195.6360  171.9300  138.4260 C   0  0  0  0  0  0  0  0  0  0  0  0
  195.2420  170.6940  138.4760 C   0  0  0  0  0  0  0  0  0  0  0  0
  195.6990  169.8390  139.4830 O   0  0  0  0  0  0  0  0  0  0  0  0
  195.0300  168.6820  139.7710 O   0  0  0  0  0  0  0  0  0  0  0  0
  192.1320  168.4470  142.0100 C   0  0  0  0  0  0  0  0  0  0  0  0
  192.9540  168.5670  140.8460 N   0  0  0  0  0  0  0  0  0  0  0  0
  190.9020  168.1660  141.8830 O   0  0  0  0  0  0  0  0  0  0  0  0
  192.7170  168.6130  143.3840 C   0  0  0  0  0  2  0  0  0  0  0  0
  194.9200  168.5130  142.2280 C   0  0  0  0  0  3  0  0  0  0  0  0
  194.2550  168.6030  140.9270 C   0  0  0  0  0  0  0  0  0  0  0  0
  194.2330  168.4660  143.3690 C   0  0  0  0  0  0  0  0  0  0  0  0
  194.9520  168.3150  144.5580 O   0  0  0  0  0  0  0  0  0  0  0  0
  194.5510  168.7710  146.8460 C   0  0  0  0  0  1  0  0  0  0  0  0
  195.0990  169.3300  145.5440 C   0  0  1  0  0  3  0  0  0  0  0  0
  196.5950  169.6510  145.7100 C   0  0  0  0  0  3  0  0  0  0  0  0
  197.1980  169.8040  144.4500 O   0  0  0  0  0  1  0  0  0  0  0  0
  196.7360  170.8230  146.4590 O   0  0  0  0  0  1  0  0  0  0  0  0
  194.2560  170.1680  137.4730 C   0  0  0  0  0  2  0  0  0  0  0  0
  192.9590  170.4910  137.8950 O   0  0  0  0  0  0  0  0  0  0  0  0
  192.5010  171.3350  136.9760 O   0  0  0  0  0  1  0  0  0  0  0  0
  1  2  2  0  0  0  0
  3  1  1  0  0  0  0
  4  7  1  0  0  0  0
  4 14  1  0  0  0  0
  5  6  1  0  0  0  0
  6  8  1  0  0  0  0
  7  5  2  0  0  0  0
  8  3  1  6  0  0  0
  9 13  1  6  0  0  0
  9  7  1  0  0  0  0
  9  8  1  0  0  0  0
 10 11  1  0  0  0  0
 11 13  1  0  0  0  0
 11 12  2  0  0  0  0
 15 14  1  6  0  0  0
 15 16  1  0  0  0  0
 16 17  2  0  0  0  0
 18 17  1  0  0  0  0
 18 21  1  0  0  0  0
 19 24  2  0  0  0  0
 20 24  1  0  0  0  0
 21 22  1  0  0  0  0
 21 28  1  0  0  0  0
 25 23  1  6  0  0  0
 25 20  1  0  0  0  0
 26 22  1  1  0  0  0
 26 27  1  0  0  0  0
 26 25  1  0  0  0  0
 27 19  1  0  0  0  0
 28 23  2  0  0  0  0
 29 15  1  0  0  0  0
 30 29  1  0  0  0  0
 30 31  1  0  0  0  0
 31 32  1  0  0  0  0
 33 36  1  6  0  0  0
 33  1  1  0  0  0  0
 33 35  1  0  0  0  0
 35 34  1  0  0  0  0
 36 38  1  0  0  0  0
 37 39  2  0  0  0  0
 37 38  1  0  0  0  0
 40 41  2  0  0  0  0
 41 37  1  0  0  0  0
 42 43  2  0  0  0  0
 42 41  1  0  0  0  0
 43 44  2  0  0  0  0
 44 45  1  0  0  0  0
 45 46  1  0  0  0  0
 46 52  1  0  0  0  0
 47 50  1  0  0  0  0
 48 52  2  0  0  0  0
 48 47  1  0  0  0  0
 49 47  2  0  0  0  0
 51 53  2  0  0  0  0
 52 51  1  0  0  0  0
 53 50  1  0  0  0  0
 53 54  1  0  0  0  0
 54 56  1  0  0  0  0
 56 57  1  0  0  0  0
 56 55  1  1  0  0  0
 57 59  1  0  0  0  0
 58 57  1  0  0  0  0
 60 61  1  0  0  0  0
 60 44  1  0  0  0  0
 62 61  1  0  0  0  0
M  END
>  <MODEL>
9

>  <REMARK>
 VINA RESULT:      -4.4      3.682     10.762
  Name = 
  24 active torsions:
  status: ('A' for Active; 'I' for Inactive)
    1  A    between atoms: C_1  and  C_9
    2  A    between atoms: C_1  and  N_35
    3  A    between atoms: C_1  and  N_61
    4  A    between atoms: C_4  and  O_34
    5  A    between atoms: C_4  and  C_58
    6  A    between atoms: N_5  and  C_9
    7  A    between atoms: C_6  and  C_10
    8  A    between atoms: C_6  and  C_27
    9  A    between atoms: C_6  and  C_59
   10  A    between atoms: C_8  and  C_24
   11  A    between atoms: C_10  and  N_45
   12  A    between atoms: C_14  and  C_39
   13  A    between atoms: O_15  and  O_46
   14  A    between atoms: O_15  and  C_58
   15  A    between atoms: C_18  and  C_52
   16  A    between atoms: O_21  and  C_52
   17  A    between atoms: O_21  and  C_56
   18  A    between atoms: C_24  and  N_35
   19  A    between atoms: C_25  and  N_40
   20  A    between atoms: N_26  and  C_33
   21  A    between atoms: C_30  and  C_39
   22  A    between atoms: C_33  and  C_62
   23  A    between atoms: N_41  and  C_48
   24  A    between atoms: O_46  and  C_55
                            x       y       z     vdW  Elec       q    Type
                         _______ _______ _______ _____ _____    ______ ____

>  <TORSDO>
F 24

$$$$
