=
 OpenBabel11042415333D

 47 51  0  0  1  0  0  0  0  0999 V2000
  191.2920  176.3130  145.3550 C   0  0  2  0  0  3  0  0  0  0  0  0
  188.9750  176.6680  146.0260 C   0  0  0  0  0  0  0  0  0  0  0  0
  187.7320  176.2660  146.0000 C   0  0  0  0  0  3  0  0  0  0  0  0
  190.2160  177.0730  146.0570 C   0  0  0  0  0  3  0  0  0  0  0  0
  185.7070  179.2080  144.8100 C   0  0  0  0  0  3  0  0  0  0  0  0
  184.3420  177.9280  146.3410 C   0  0  0  0  0  3  0  0  0  0  0  0
  184.5000  179.0230  145.4880 C   0  0  0  0  0  3  0  0  0  0  0  0
  186.7560  178.2990  144.9840 C   0  0  0  0  0  3  0  0  0  0  0  0
  186.6030  177.1990  145.8360 C   0  0  0  0  0  0  0  0  0  0  0  0
  185.3890  177.0170  146.5160 C   0  0  0  0  0  3  0  0  0  0  0  0
  192.5980  176.6320  145.9250 N   0  0  0  0  0  0  0  0  0  0  0  0
  192.6820  175.9710  147.1410 O   0  0  0  0  0  0  0  0  0  0  0  0
  193.3160  175.3900  146.0900 C   0  0  2  0  0  3  0  0  0  0  0  0
  194.7460  175.6510  146.1720 N   0  0  0  0  0  2  0  0  0  0  0  0
  195.4250  174.8470  145.1610 C   0  0  2  0  0  3  0  0  0  0  0  0
  196.2520  176.6670  143.7180 N   0  0  0  0  0  1  0  0  0  0  0  0
  195.3760  175.5070  143.7790 C   0  0  1  0  0  3  0  0  0  0  0  0
  195.7310  174.5930  142.7900 O   0  0  0  0  0  1  0  0  0  0  0  0
  194.8030  173.4630  145.1180 C   0  0  0  0  0  2  0  0  0  0  0  0
  195.6730  172.5020  145.7810 N   0  0  0  0  0  2  0  0  0  0  0  0
  196.4060  171.5140  145.0490 C   0  0  0  0  0  0  0  0  0  0  0  0
  196.3170  171.4620  143.7880 O   0  0  0  0  0  0  0  0  0  0  0  0
  197.2420  170.5940  145.7600 N   0  0  0  0  0  0  0  0  0  0  0  0
  196.9650  168.5560  147.5550 C   0  0  0  0  0  2  0  0  0  0  0  0
  196.7730  169.7070  146.5770 C   0  0  0  0  0  0  0  0  0  0  0  0
  195.6340  169.0030  147.3020 C   0  0  0  0  0  2  0  0  0  0  0  0
  191.2530  176.6050  143.8780 C   0  0  0  0  0  0  0  0  0  0  0  0
  191.3430  177.8780  143.5040 C   0  0  0  0  0  2  0  0  0  0  0  0
  191.1660  175.5250  142.8630 C   0  0  0  0  0  0  0  0  0  0  0  0
  192.1620  175.2850  142.1240 O   0  0  0  0  0  0  0  0  0  0  0  0
  187.3210  175.9080  139.7450 N   0  0  0  0  0  0  0  0  0  0  0  0
  188.1200  174.7920  139.7620 C   0  0  0  0  0  0  0  0  0  0  0  0
  188.0830  176.6680  141.9450 C   0  0  0  0  0  3  0  0  0  0  0  0
  187.2890  176.8230  140.7810 C   0  0  0  0  0  3  0  0  0  0  0  0
  188.9060  174.6200  140.8780 C   0  0  0  0  0  0  0  0  0  0  0  0
  188.8810  175.5420  141.9460 C   0  0  0  0  0  0  0  0  0  0  0  0
  189.9250  173.7950  141.5870 C   0  0  0  0  0  2  0  0  0  0  0  0
  189.8870  174.7360  142.6950 C   0  0  1  0  0  3  0  0  0  0  0  0
  188.0570  172.5040  139.1750 O   0  0  0  0  0  1  0  0  0  0  0  0
  188.0950  173.7970  138.6520 C   0  0  2  0  0  3  0  0  0  0  0  0
  189.2900  173.9590  137.8280 N   0  0  0  0  0  2  0  0  0  0  0  0
  190.0590  172.7130  137.7460 C   0  0  2  0  0  3  0  0  0  0  0  0
  191.4420  172.8760  138.3120 C   0  0  0  0  0  3  0  0  0  0  0  0
  192.9250  174.8330  137.6490 O   0  0  0  0  0  0  0  0  0  0  0  0
  192.2080  173.8790  137.9760 C   0  0  0  0  0  0  0  0  0  0  0  0
  190.0660  172.1500  136.3260 C   0  0  0  0  0  2  0  0  0  0  0  0
  190.6150  170.4150  136.3560 S   0  0  0  0  0  1  0  0  0  0  0  0
  1 11  1  0  0  0  0
  1  4  1  1  0  0  0
  2  4  2  0  0  0  0
  3  2  2  0  0  0  0
  5  8  2  0  0  0  0
  5  7  1  0  0  0  0
  6 10  1  0  0  0  0
  7  6  2  0  0  0  0
  8  9  1  0  0  0  0
  9  3  1  0  0  0  0
  9 10  2  0  0  0  0
 11 13  1  0  0  0  0
 11 12  1  0  0  0  0
 13 14  1  1  0  0  0
 13 12  1  0  0  0  0
 15 19  1  6  0  0  0
 15 14  1  0  0  0  0
 16 17  1  0  0  0  0
 17 18  1  6  0  0  0
 17 15  1  0  0  0  0
 19 20  1  0  0  0  0
 21 23  1  0  0  0  0
 21 20  1  0  0  0  0
 22 21  2  0  0  0  0
 23 25  2  0  0  0  0
 25 26  1  0  0  0  0
 25 24  1  0  0  0  0
 26 24  1  0  0  0  0
 27  1  1  0  0  0  0
 28 27  2  0  0  0  0
 29 27  1  0  0  0  0
 30 29  2  0  0  0  0
 31 32  2  0  0  0  0
 31 34  1  0  0  0  0
 32 35  1  0  0  0  0
 33 36  1  0  0  0  0
 34 33  2  0  0  0  0
 35 37  1  0  0  0  0
 35 36  2  0  0  0  0
 36 38  1  0  0  0  0
 37 38  1  0  0  0  0
 38 29  1  6  0  0  0
 40 39  1  1  0  0  0
 40 32  1  0  0  0  0
 41 40  1  0  0  0  0
 42 46  1  6  0  0  0
 42 41  1  0  0  0  0
 42 43  1  0  0  0  0
 44 45  2  0  0  0  0
 45 43  2  0  0  0  0
 46 47  1  0  0  0  0
M  END
>  <MODEL>
1

>  <REMARK>
 VINA RESULT:      -7.1      0.000      0.000
  Name = 
  17 active torsions:
  status: ('A' for Active; 'I' for Inactive)
    1  A    between atoms: C_1  and  C_17
    2  A    between atoms: C_1  and  C_23
    3  A    between atoms: C_1  and  N_25
    4  A    between atoms: C_5  and  C_46
    5  A    between atoms: C_7  and  C_19
    6  A    between atoms: N_8  and  C_37
    7  A    between atoms: C_9  and  C_34
    8  A    between atoms: N_11  and  C_34
    9  A    between atoms: N_11  and  C_46
   10  A    between atoms: N_12  and  C_18
   11  A    between atoms: C_13  and  C_35
   12  A    between atoms: C_18  and  C_19
   13  A    between atoms: C_19  and  N_38
   14  A    between atoms: C_23  and  C_28
   15  A    between atoms: C_28  and  C_40
   16  A    between atoms: C_29  and  C_46
   17  A    between atoms: N_38  and  C_47
                            x       y       z     vdW  Elec       q    Type
                         _______ _______ _______ _____ _____    ______ ____

>  <TORSDO>
F 17

$$$$
=
 OpenBabel11042415333D

 47 51  0  0  1  0  0  0  0  0999 V2000
  188.6220  174.4330  141.8960 C   0  0  2  0  0  3  0  0  0  0  0  0
  187.4220  176.2390  143.0090 C   0  0  0  0  0  0  0  0  0  0  0  0
  187.4650  177.3370  143.7170 C   0  0  0  0  0  3  0  0  0  0  0  0
  187.3730  175.1450  142.2990 C   0  0  0  0  0  3  0  0  0  0  0  0
  184.7330  178.9620  145.7350 C   0  0  0  0  0  3  0  0  0  0  0  0
  185.6010  177.1020  147.0110 C   0  0  0  0  0  3  0  0  0  0  0  0
  184.7160  178.1750  146.8880 C   0  0  0  0  0  3  0  0  0  0  0  0
  185.6350  178.6780  144.7030 C   0  0  0  0  0  3  0  0  0  0  0  0
  186.5240  177.6030  144.8200 C   0  0  0  0  0  0  0  0  0  0  0  0
  186.5030  176.8140  145.9810 C   0  0  0  0  0  3  0  0  0  0  0  0
  188.4210  173.7250  140.6340 N   0  0  0  0  0  0  0  0  0  0  0  0
  188.2820  174.6880  139.6470 O   0  0  0  0  0  0  0  0  0  0  0  0
  189.5000  174.0980  139.7500 C   0  0  2  0  0  3  0  0  0  0  0  0
  189.6530  173.0970  138.7050 N   0  0  0  0  0  2  0  0  0  0  0  0
  191.0210  173.1550  138.2000 C   0  0  2  0  0  3  0  0  0  0  0  0
  189.7480  174.0090  136.2680 N   0  0  0  0  0  1  0  0  0  0  0  0
  191.0790  173.7110  136.7730 C   0  0  1  0  0  3  0  0  0  0  0  0
  191.8690  174.8570  136.7300 O   0  0  0  0  0  1  0  0  0  0  0  0
  191.6400  171.7710  138.2630 C   0  0  0  0  0  2  0  0  0  0  0  0
  191.7290  171.3250  139.6470 N   0  0  0  0  0  2  0  0  0  0  0  0
  191.0630  170.1430  140.1050 C   0  0  0  0  0  0  0  0  0  0  0  0
  190.3780  169.4480  139.3000 O   0  0  0  0  0  0  0  0  0  0  0  0
  191.1860  169.7600  141.4800 N   0  0  0  0  0  0  0  0  0  0  0  0
  192.2740  170.7440  143.7810 C   0  0  0  0  0  2  0  0  0  0  0  0
  191.7920  170.4880  142.3600 C   0  0  0  0  0  0  0  0  0  0  0  0
  192.5660  171.7270  142.7900 C   0  0  0  0  0  2  0  0  0  0  0  0
  189.0550  173.4910  142.9880 C   0  0  0  0  0  0  0  0  0  0  0  0
  188.6870  172.2180  142.8810 C   0  0  0  0  0  2  0  0  0  0  0  0
  189.9010  173.9380  144.1240 C   0  0  0  0  0  0  0  0  0  0  0  0
  190.0340  173.1890  145.1330 O   0  0  0  0  0  0  0  0  0  0  0  0
  192.4100  176.5750  147.5000 N   0  0  0  0  0  0  0  0  0  0  0  0
  193.0080  176.1390  146.3450 C   0  0  0  0  0  0  0  0  0  0  0  0
  190.1460  176.2460  146.6280 C   0  0  0  0  0  3  0  0  0  0  0  0
  191.0390  176.6330  147.6590 C   0  0  0  0  0  3  0  0  0  0  0  0
  192.1660  175.7510  145.3290 C   0  0  0  0  0  0  0  0  0  0  0  0
  190.7630  175.8090  145.4730 C   0  0  0  0  0  0  0  0  0  0  0  0
  192.0210  175.2150  143.9460 C   0  0  0  0  0  2  0  0  0  0  0  0
  190.5760  175.2900  144.0880 C   0  0  1  0  0  3  0  0  0  0  0  0
  194.8930  177.2620  145.4650 O   0  0  0  0  0  1  0  0  0  0  0  0
  194.4910  176.1370  146.1850 C   0  0  2  0  0  3  0  0  0  0  0  0
  194.9000  174.9260  145.4750 N   0  0  0  0  0  2  0  0  0  0  0  0
  195.9580  175.2080  144.4990 C   0  0  2  0  0  3  0  0  0  0  0  0
  195.4860  174.9850  143.0890 C   0  0  0  0  0  3  0  0  0  0  0  0
  195.8590  172.7680  141.9010 O   0  0  0  0  0  0  0  0  0  0  0  0
  195.6750  173.8490  142.4740 C   0  0  0  0  0  0  0  0  0  0  0  0
  197.2380  174.4390  144.8210 C   0  0  0  0  0  2  0  0  0  0  0  0
  196.8880  173.1590  146.0660 S   0  0  0  0  0  1  0  0  0  0  0  0
  1  4  1  1  0  0  0
  1 27  1  0  0  0  0
  2  3  2  0  0  0  0
  3  9  1  0  0  0  0
  4  2  2  0  0  0  0
  5  7  1  0  0  0  0
  7  6  2  0  0  0  0
  8  9  1  0  0  0  0
  8  5  2  0  0  0  0
  9 10  2  0  0  0  0
 10  6  1  0  0  0  0
 11  1  1  0  0  0  0
 12 13  1  0  0  0  0
 12 11  1  0  0  0  0
 13 14  1  6  0  0  0
 13 11  1  0  0  0  0
 15 19  1  6  0  0  0
 15 14  1  0  0  0  0
 17 16  1  1  0  0  0
 17 15  1  0  0  0  0
 18 17  1  0  0  0  0
 19 20  1  0  0  0  0
 20 21  1  0  0  0  0
 21 23  1  0  0  0  0
 22 21  2  0  0  0  0
 23 25  2  0  0  0  0
 25 26  1  0  0  0  0
 25 24  1  0  0  0  0
 26 24  1  0  0  0  0
 27 29  1  0  0  0  0
 28 27  2  0  0  0  0
 29 30  2  0  0  0  0
 31 34  1  0  0  0  0
 32 31  2  0  0  0  0
 33 34  2  0  0  0  0
 35 36  2  0  0  0  0
 35 32  1  0  0  0  0
 36 33  1  0  0  0  0
 37 38  1  0  0  0  0
 37 35  1  0  0  0  0
 38 29  1  1  0  0  0
 38 36  1  0  0  0  0
 40 39  1  6  0  0  0
 40 32  1  0  0  0  0
 41 40  1  0  0  0  0
 42 43  1  6  0  0  0
 42 46  1  0  0  0  0
 42 41  1  0  0  0  0
 44 45  2  0  0  0  0
 45 43  2  0  0  0  0
 46 47  1  0  0  0  0
M  END
>  <MODEL>
2

>  <REMARK>
 VINA RESULT:      -6.7      2.886      6.855
  Name = 
  17 active torsions:
  status: ('A' for Active; 'I' for Inactive)
    1  A    between atoms: C_1  and  C_17
    2  A    between atoms: C_1  and  C_23
    3  A    between atoms: C_1  and  N_25
    4  A    between atoms: C_5  and  C_46
    5  A    between atoms: C_7  and  C_19
    6  A    between atoms: N_8  and  C_37
    7  A    between atoms: C_9  and  C_34
    8  A    between atoms: N_11  and  C_34
    9  A    between atoms: N_11  and  C_46
   10  A    between atoms: N_12  and  C_18
   11  A    between atoms: C_13  and  C_35
   12  A    between atoms: C_18  and  C_19
   13  A    between atoms: C_19  and  N_38
   14  A    between atoms: C_23  and  C_28
   15  A    between atoms: C_28  and  C_40
   16  A    between atoms: C_29  and  C_46
   17  A    between atoms: N_38  and  C_47
                            x       y       z     vdW  Elec       q    Type
                         _______ _______ _______ _____ _____    ______ ____

>  <TORSDO>
F 17

$$$$
=
 OpenBabel11042415333D

 47 51  0  0  1  0  0  0  0  0999 V2000
  188.7250  174.2400  141.9820 C   0  0  2  0  0  3  0  0  0  0  0  0
  187.2740  176.0000  142.8420 C   0  0  0  0  0  0  0  0  0  0  0  0
  187.1570  177.1830  143.3850 C   0  0  0  0  0  3  0  0  0  0  0  0
  187.3850  174.8190  142.2960 C   0  0  0  0  0  3  0  0  0  0  0  0
  184.3230  178.8080  145.2580 C   0  0  0  0  0  3  0  0  0  0  0  0
  185.2230  177.0420  146.6430 C   0  0  0  0  0  3  0  0  0  0  0  0
  184.3060  178.0760  146.4480 C   0  0  0  0  0  3  0  0  0  0  0  0
  185.2600  178.5050  144.2620 C   0  0  0  0  0  3  0  0  0  0  0  0
  186.1810  177.4680  144.4520 C   0  0  0  0  0  0  0  0  0  0  0  0
  186.1590  176.7370  145.6500 C   0  0  0  0  0  3  0  0  0  0  0  0
  188.6630  173.4450  140.7580 N   0  0  0  0  0  0  0  0  0  0  0  0
  188.2260  174.2890  139.7480 O   0  0  0  0  0  0  0  0  0  0  0  0
  189.5610  174.0480  139.8010 C   0  0  2  0  0  3  0  0  0  0  0  0
  189.9270  173.0760  138.7830 N   0  0  0  0  0  2  0  0  0  0  0  0
  191.0330  173.6160  137.9980 C   0  0  2  0  0  3  0  0  0  0  0  0
  191.7310  172.2900  136.0400 N   0  0  0  0  0  1  0  0  0  0  0  0
  190.8510  173.3530  136.4990 C   0  0  1  0  0  3  0  0  0  0  0  0
  189.5260  173.0240  136.2200 O   0  0  0  0  0  1  0  0  0  0  0  0
  192.3380  173.0220  138.4930 C   0  0  0  0  0  2  0  0  0  0  0  0
  193.1020  174.0280  139.2200 N   0  0  0  0  0  2  0  0  0  0  0  0
  193.1460  174.0570  140.6500 C   0  0  0  0  0  0  0  0  0  0  0  0
  192.5180  173.1890  141.3230 O   0  0  0  0  0  0  0  0  0  0  0  0
  193.9120  175.0750  141.3060 N   0  0  0  0  0  0  0  0  0  0  0  0
  196.2930  176.3660  140.9740 C   0  0  0  0  0  2  0  0  0  0  0  0
  195.0600  175.4800  140.8690 C   0  0  0  0  0  0  0  0  0  0  0  0
  196.2170  175.4550  139.8800 C   0  0  0  0  0  2  0  0  0  0  0  0
  189.2190  173.4180  143.1430 C   0  0  0  0  0  0  0  0  0  0  0  0
  189.1630  172.0940  143.0240 C   0  0  0  0  0  2  0  0  0  0  0  0
  189.7940  174.0410  144.3620 C   0  0  0  0  0  0  0  0  0  0  0  0
  189.7360  173.4240  145.4620 O   0  0  0  0  0  0  0  0  0  0  0  0
  192.5030  176.7030  147.5590 N   0  0  0  0  0  0  0  0  0  0  0  0
  193.0110  176.3080  146.3470 C   0  0  0  0  0  0  0  0  0  0  0  0
  190.1830  176.3120  146.8800 C   0  0  0  0  0  3  0  0  0  0  0  0
  191.1500  176.7120  147.8380 C   0  0  0  0  0  3  0  0  0  0  0  0
  192.0950  175.9090  145.4010 C   0  0  0  0  0  0  0  0  0  0  0  0
  190.7100  175.9170  145.6680 C   0  0  0  0  0  0  0  0  0  0  0  0
  191.8480  175.3930  144.0250 C   0  0  0  0  0  2  0  0  0  0  0  0
  190.4190  175.4160  144.2940 C   0  0  1  0  0  3  0  0  0  0  0  0
  194.6890  176.8920  144.7880 O   0  0  0  0  0  1  0  0  0  0  0  0
  194.4730  176.3590  146.0590 C   0  0  2  0  0  3  0  0  0  0  0  0
  195.0280  175.0080  146.1260 N   0  0  0  0  0  2  0  0  0  0  0  0
  195.5590  174.5820  144.8270 C   0  0  2  0  0  3  0  0  0  0  0  0
  194.8640  173.3490  144.3200 C   0  0  0  0  0  3  0  0  0  0  0  0
  194.2290  171.4460  145.8830 O   0  0  0  0  0  0  0  0  0  0  0  0
  194.5350  172.3690  145.1180 C   0  0  0  0  0  0  0  0  0  0  0  0
  197.0790  174.4270  144.8660 C   0  0  0  0  0  2  0  0  0  0  0  0
  197.6600  173.6800  143.3100 S   0  0  0  0  0  1  0  0  0  0  0  0
  1  4  1  1  0  0  0
  1 27  1  0  0  0  0
  2  3  2  0  0  0  0
  3  9  1  0  0  0  0
  4  2  2  0  0  0  0
  5  7  1  0  0  0  0
  7  6  2  0  0  0  0
  8  9  1  0  0  0  0
  8  5  2  0  0  0  0
  9 10  2  0  0  0  0
 10  6  1  0  0  0  0
 11  1  1  0  0  0  0
 12 13  1  0  0  0  0
 12 11  1  0  0  0  0
 13 14  1  6  0  0  0
 13 11  1  0  0  0  0
 15 19  1  1  0  0  0
 15 14  1  0  0  0  0
 17 16  1  1  0  0  0
 17 15  1  0  0  0  0
 18 17  1  0  0  0  0
 19 20  1  0  0  0  0
 20 21  1  0  0  0  0
 21 23  1  0  0  0  0
 21 22  2  0  0  0  0
 25 24  1  0  0  0  0
 25 23  2  0  0  0  0
 26 25  1  0  0  0  0
 26 24  1  0  0  0  0
 27 29  1  0  0  0  0
 28 27  2  0  0  0  0
 29 30  2  0  0  0  0
 31 34  1  0  0  0  0
 32 31  2  0  0  0  0
 33 34  2  0  0  0  0
 35 36  2  0  0  0  0
 35 32  1  0  0  0  0
 36 33  1  0  0  0  0
 37 38  1  0  0  0  0
 37 35  1  0  0  0  0
 38 29  1  1  0  0  0
 38 36  1  0  0  0  0
 40 39  1  6  0  0  0
 40 41  1  0  0  0  0
 40 32  1  0  0  0  0
 42 43  1  1  0  0  0
 42 46  1  0  0  0  0
 42 41  1  0  0  0  0
 43 45  2  0  0  0  0
 45 44  2  0  0  0  0
 47 46  1  0  0  0  0
M  END
>  <MODEL>
3

>  <REMARK>
 VINA RESULT:      -6.6      2.653      7.106
  Name = 
  17 active torsions:
  status: ('A' for Active; 'I' for Inactive)
    1  A    between atoms: C_1  and  C_17
    2  A    between atoms: C_1  and  C_23
    3  A    between atoms: C_1  and  N_25
    4  A    between atoms: C_5  and  C_46
    5  A    between atoms: C_7  and  C_19
    6  A    between atoms: N_8  and  C_37
    7  A    between atoms: C_9  and  C_34
    8  A    between atoms: N_11  and  C_34
    9  A    between atoms: N_11  and  C_46
   10  A    between atoms: N_12  and  C_18
   11  A    between atoms: C_13  and  C_35
   12  A    between atoms: C_18  and  C_19
   13  A    between atoms: C_19  and  N_38
   14  A    between atoms: C_23  and  C_28
   15  A    between atoms: C_28  and  C_40
   16  A    between atoms: C_29  and  C_46
   17  A    between atoms: N_38  and  C_47
                            x       y       z     vdW  Elec       q    Type
                         _______ _______ _______ _____ _____    ______ ____

>  <TORSDO>
F 17

$$$$
=
 OpenBabel11042415333D

 47 51  0  0  1  0  0  0  0  0999 V2000
  190.6940  175.7880  145.6970 C   0  0  2  0  0  3  0  0  0  0  0  0
  193.1260  175.9560  145.6690 C   0  0  0  0  0  0  0  0  0  0  0  0
  194.2100  176.3500  145.0540 C   0  0  0  0  0  3  0  0  0  0  0  0
  192.0460  175.5630  146.2890 C   0  0  0  0  0  3  0  0  0  0  0  0
  196.8480  173.8530  146.0430 C   0  0  0  0  0  3  0  0  0  0  0  0
  197.4940  174.8290  143.9270 C   0  0  0  0  0  3  0  0  0  0  0  0
  197.7490  173.9460  144.9790 C   0  0  0  0  0  3  0  0  0  0  0  0
  195.6930  174.6430  146.0560 C   0  0  0  0  0  3  0  0  0  0  0  0
  195.4320  175.5290  145.0040 C   0  0  0  0  0  0  0  0  0  0  0  0
  196.3400  175.6190  143.9370 C   0  0  0  0  0  3  0  0  0  0  0  0
  189.7260  176.1080  146.7430 N   0  0  0  0  0  0  0  0  0  0  0  0
  189.8730  177.4560  147.0330 O   0  0  0  0  0  0  0  0  0  0  0  0
  188.8390  177.1210  146.2200 C   0  0  2  0  0  3  0  0  0  0  0  0
  187.5960  177.1290  146.9770 N   0  0  0  0  0  2  0  0  0  0  0  0
  186.5930  177.8700  146.2180 C   0  0  2  0  0  3  0  0  0  0  0  0
  184.5460  178.5460  147.4140 N   0  0  0  0  0  1  0  0  0  0  0  0
  185.9050  178.9380  147.0740 C   0  0  1  0  0  3  0  0  0  0  0  0
  186.6340  179.1740  148.2370 O   0  0  0  0  0  1  0  0  0  0  0  0
  185.5760  176.9010  145.6460 C   0  0  0  0  0  2  0  0  0  0  0  0
  185.6170  176.9320  144.1900 N   0  0  0  0  0  2  0  0  0  0  0  0
  184.8040  177.8310  143.4300 C   0  0  0  0  0  0  0  0  0  0  0  0
  184.0250  178.6350  144.0180 O   0  0  0  0  0  0  0  0  0  0  0  0
  184.8870  177.8090  141.9990 N   0  0  0  0  0  0  0  0  0  0  0  0
  186.8020  177.5470  140.0730 C   0  0  0  0  0  2  0  0  0  0  0  0
  186.0040  177.6590  141.3640 C   0  0  0  0  0  0  0  0  0  0  0  0
  187.5120  177.4620  141.3070 C   0  0  0  0  0  2  0  0  0  0  0  0
  190.2660  174.5800  144.9070 C   0  0  0  0  0  0  0  0  0  0  0  0
  189.7430  173.5600  145.5830 C   0  0  0  0  0  2  0  0  0  0  0  0
  190.3730  174.5280  143.4270 C   0  0  0  0  0  0  0  0  0  0  0  0
  189.3400  174.2980  142.7380 O   0  0  0  0  0  0  0  0  0  0  0  0
  193.9590  171.3900  142.0340 N   0  0  0  0  0  0  0  0  0  0  0  0
  193.2780  172.1500  141.1170 C   0  0  0  0  0  0  0  0  0  0  0  0
  193.2630  172.7810  143.9250 C   0  0  0  0  0  3  0  0  0  0  0  0
  193.9640  171.6720  143.3860 C   0  0  0  0  0  3  0  0  0  0  0  0
  192.5840  173.2300  141.6130 C   0  0  0  0  0  0  0  0  0  0  0  0
  192.5830  173.5350  142.9910 C   0  0  0  0  0  0  0  0  0  0  0  0
  191.6990  174.3960  141.3330 C   0  0  0  0  0  2  0  0  0  0  0  0
  191.7110  174.7200  142.7500 C   0  0  1  0  0  3  0  0  0  0  0  0
  194.0410  170.6670  139.4420 O   0  0  0  0  0  1  0  0  0  0  0  0
  193.3340  171.8500  139.6570 C   0  0  2  0  0  3  0  0  0  0  0  0
  193.9950  172.9520  138.9610 N   0  0  0  0  0  2  0  0  0  0  0  0
  195.4540  172.7950  138.9710 C   0  0  2  0  0  3  0  0  0  0  0  0
  196.1310  173.9410  139.6680 C   0  0  0  0  0  3  0  0  0  0  0  0
  194.8050  175.9110  140.5780 O   0  0  0  0  0  0  0  0  0  0  0  0
  195.4550  174.9550  140.1380 C   0  0  0  0  0  0  0  0  0  0  0  0
  196.0020  172.5540  137.5650 C   0  0  0  0  0  2  0  0  0  0  0  0
  197.5050  171.5310  137.6600 S   0  0  0  0  0  1  0  0  0  0  0  0
  1  4  1  1  0  0  0
  1 11  1  0  0  0  0
  2  4  2  0  0  0  0
  3  2  2  0  0  0  0
  5  8  1  0  0  0  0
  6 10  2  0  0  0  0
  6  7  1  0  0  0  0
  7  5  2  0  0  0  0
  9  3  1  0  0  0  0
  9  8  2  0  0  0  0
 10  9  1  0  0  0  0
 11 12  1  0  0  0  0
 13 11  1  0  0  0  0
 13 14  1  1  0  0  0
 13 12  1  0  0  0  0
 15 19  1  1  0  0  0
 15 14  1  0  0  0  0
 15 17  1  0  0  0  0
 17 16  1  1  0  0  0
 17 18  1  0  0  0  0
 20 19  1  0  0  0  0
 21 22  2  0  0  0  0
 21 20  1  0  0  0  0
 23 21  1  0  0  0  0
 24 26  1  0  0  0  0
 24 25  1  0  0  0  0
 25 23  2  0  0  0  0
 26 25  1  0  0  0  0
 27 28  2  0  0  0  0
 27  1  1  0  0  0  0
 29 27  1  0  0  0  0
 30 29  2  0  0  0  0
 31 34  1  0  0  0  0
 32 35  1  0  0  0  0
 32 31  2  0  0  0  0
 34 33  2  0  0  0  0
 35 36  2  0  0  0  0
 36 33  1  0  0  0  0
 37 35  1  0  0  0  0
 37 38  1  0  0  0  0
 38 36  1  0  0  0  0
 38 29  1  1  0  0  0
 40 39  1  1  0  0  0
 40 32  1  0  0  0  0
 41 42  1  0  0  0  0
 41 40  1  0  0  0  0
 42 46  1  6  0  0  0
 42 43  1  0  0  0  0
 43 45  2  0  0  0  0
 45 44  2  0  0  0  0
 46 47  1  0  0  0  0
M  END
>  <MODEL>
4

>  <REMARK>
 VINA RESULT:      -6.6      3.491      8.656
  Name = 
  17 active torsions:
  status: ('A' for Active; 'I' for Inactive)
    1  A    between atoms: C_1  and  C_17
    2  A    between atoms: C_1  and  C_23
    3  A    between atoms: C_1  and  N_25
    4  A    between atoms: C_5  and  C_46
    5  A    between atoms: C_7  and  C_19
    6  A    between atoms: N_8  and  C_37
    7  A    between atoms: C_9  and  C_34
    8  A    between atoms: N_11  and  C_34
    9  A    between atoms: N_11  and  C_46
   10  A    between atoms: N_12  and  C_18
   11  A    between atoms: C_13  and  C_35
   12  A    between atoms: C_18  and  C_19
   13  A    between atoms: C_19  and  N_38
   14  A    between atoms: C_23  and  C_28
   15  A    between atoms: C_28  and  C_40
   16  A    between atoms: C_29  and  C_46
   17  A    between atoms: N_38  and  C_47
                            x       y       z     vdW  Elec       q    Type
                         _______ _______ _______ _____ _____    ______ ____

>  <TORSDO>
F 17

$$$$
=
 OpenBabel11042415333D

 47 51  0  0  1  0  0  0  0  0999 V2000
  191.5040  176.2660  145.5560 C   0  0  2  0  0  3  0  0  0  0  0  0
  189.2520  176.4280  146.4770 C   0  0  0  0  0  0  0  0  0  0  0  0
  188.0140  176.0100  146.4770 C   0  0  0  0  0  3  0  0  0  0  0  0
  190.4880  176.8480  146.4840 C   0  0  0  0  0  3  0  0  0  0  0  0
  185.9180  178.9400  147.5690 C   0  0  0  0  0  3  0  0  0  0  0  0
  184.5990  177.6000  146.0490 C   0  0  0  0  0  3  0  0  0  0  0  0
  184.7230  178.7160  146.8800 C   0  0  0  0  0  3  0  0  0  0  0  0
  186.9880  178.0500  147.4280 C   0  0  0  0  0  3  0  0  0  0  0  0
  186.8700  176.9310  146.5950 C   0  0  0  0  0  0  0  0  0  0  0  0
  185.6680  176.7090  145.9050 C   0  0  0  0  0  3  0  0  0  0  0  0
  192.8470  176.7000  145.9320 N   0  0  0  0  0  0  0  0  0  0  0  0
  193.2120  175.9650  147.0500 O   0  0  0  0  0  0  0  0  0  0  0  0
  193.7130  175.5470  145.8600 C   0  0  2  0  0  3  0  0  0  0  0  0
  195.0980  175.9750  145.7310 N   0  0  0  0  0  2  0  0  0  0  0  0
  195.8630  174.8980  145.1100 C   0  0  2  0  0  3  0  0  0  0  0  0
  195.6190  174.4900  142.6900 N   0  0  0  0  0  1  0  0  0  0  0  0
  196.3250  175.2680  143.6970 C   0  0  1  0  0  3  0  0  0  0  0  0
  196.1350  176.6270  143.4630 O   0  0  0  0  0  1  0  0  0  0  0  0
  195.0250  173.6340  145.0880 C   0  0  0  0  0  2  0  0  0  0  0  0
  195.6870  172.5800  145.8470 N   0  0  0  0  0  2  0  0  0  0  0  0
  196.2560  171.4330  145.2080 C   0  0  0  0  0  0  0  0  0  0  0  0
  196.2020  171.3130  143.9500 O   0  0  0  0  0  0  0  0  0  0  0  0
  196.8900  170.4290  146.0100 N   0  0  0  0  0  0  0  0  0  0  0  0
  196.1650  168.3840  147.6650 C   0  0  0  0  0  2  0  0  0  0  0  0
  196.2260  169.5680  146.7100 C   0  0  0  0  0  0  0  0  0  0  0  0
  194.9330  168.9480  147.2210 C   0  0  0  0  0  2  0  0  0  0  0  0
  191.1850  176.6450  144.1350 C   0  0  0  0  0  0  0  0  0  0  0  0
  191.2510  177.9350  143.8150 C   0  0  0  0  0  2  0  0  0  0  0  0
  190.8530  175.6300  143.1030 C   0  0  0  0  0  0  0  0  0  0  0  0
  189.7110  175.6420  142.5630 O   0  0  0  0  0  0  0  0  0  0  0  0
  190.4500  171.1530  140.9950 N   0  0  0  0  0  0  0  0  0  0  0  0
  191.1440  172.1690  140.3880 C   0  0  0  0  0  0  0  0  0  0  0  0
  190.4920  172.2360  143.1910 C   0  0  0  0  0  3  0  0  0  0  0  0
  190.1250  171.1640  142.3380 C   0  0  0  0  0  3  0  0  0  0  0  0
  191.5080  173.2250  141.1910 C   0  0  0  0  0  0  0  0  0  0  0  0
  191.1880  173.2500  142.5660 C   0  0  0  0  0  0  0  0  0  0  0  0
  192.1780  174.5520  141.3030 C   0  0  0  0  0  2  0  0  0  0  0  0
  191.8630  174.5710  142.7220 C   0  0  1  0  0  3  0  0  0  0  0  0
  192.9150  172.0880  138.8250 O   0  0  0  0  0  1  0  0  0  0  0  0
  191.5250  172.1040  138.9480 C   0  0  2  0  0  3  0  0  0  0  0  0
  190.9820  173.2670  138.2500 N   0  0  0  0  0  2  0  0  0  0  0  0
  189.8890  172.8880  137.3480 C   0  0  2  0  0  3  0  0  0  0  0  0
  188.5450  173.0920  137.9890 C   0  0  0  0  0  3  0  0  0  0  0  0
  188.1780  174.8750  139.7650 O   0  0  0  0  0  0  0  0  0  0  0  0
  188.3500  174.0060  138.9010 C   0  0  0  0  0  0  0  0  0  0  0  0
  190.0740  171.4720  136.8050 C   0  0  0  0  0  2  0  0  0  0  0  0
  190.9720  171.5340  135.2230 S   0  0  0  0  0  1  0  0  0  0  0  0
  1 11  1  0  0  0  0
  1  4  1  1  0  0  0
  2  3  2  0  0  0  0
  2  4  2  0  0  0  0
  3  9  1  0  0  0  0
  6  7  1  0  0  0  0
  7  5  2  0  0  0  0
  8  5  1  0  0  0  0
  9  8  2  0  0  0  0
 10  6  2  0  0  0  0
 10  9  1  0  0  0  0
 11 12  1  0  0  0  0
 13 14  1  1  0  0  0
 13 11  1  0  0  0  0
 13 12  1  0  0  0  0
 15 19  1  6  0  0  0
 15 14  1  0  0  0  0
 17 16  1  6  0  0  0
 17 15  1  0  0  0  0
 18 17  1  0  0  0  0
 19 20  1  0  0  0  0
 21 20  1  0  0  0  0
 21 23  1  0  0  0  0
 22 21  2  0  0  0  0
 23 25  2  0  0  0  0
 25 26  1  0  0  0  0
 25 24  1  0  0  0  0
 26 24  1  0  0  0  0
 27  1  1  0  0  0  0
 28 27  2  0  0  0  0
 29 27  1  0  0  0  0
 30 29  2  0  0  0  0
 31 34  1  0  0  0  0
 32 31  2  0  0  0  0
 32 35  1  0  0  0  0
 34 33  2  0  0  0  0
 35 37  1  0  0  0  0
 35 36  2  0  0  0  0
 36 38  1  0  0  0  0
 36 33  1  0  0  0  0
 37 38  1  0  0  0  0
 38 29  1  6  0  0  0
 40 39  1  1  0  0  0
 40 32  1  0  0  0  0
 41 40  1  0  0  0  0
 42 46  1  1  0  0  0
 42 43  1  0  0  0  0
 42 41  1  0  0  0  0
 43 45  2  0  0  0  0
 45 44  2  0  0  0  0
 47 46  1  0  0  0  0
M  END
>  <MODEL>
5

>  <REMARK>
 VINA RESULT:      -6.5      1.631      2.469
  Name = 
  17 active torsions:
  status: ('A' for Active; 'I' for Inactive)
    1  A    between atoms: C_1  and  C_17
    2  A    between atoms: C_1  and  C_23
    3  A    between atoms: C_1  and  N_25
    4  A    between atoms: C_5  and  C_46
    5  A    between atoms: C_7  and  C_19
    6  A    between atoms: N_8  and  C_37
    7  A    between atoms: C_9  and  C_34
    8  A    between atoms: N_11  and  C_34
    9  A    between atoms: N_11  and  C_46
   10  A    between atoms: N_12  and  C_18
   11  A    between atoms: C_13  and  C_35
   12  A    between atoms: C_18  and  C_19
   13  A    between atoms: C_19  and  N_38
   14  A    between atoms: C_23  and  C_28
   15  A    between atoms: C_28  and  C_40
   16  A    between atoms: C_29  and  C_46
   17  A    between atoms: N_38  and  C_47
                            x       y       z     vdW  Elec       q    Type
                         _______ _______ _______ _____ _____    ______ ____

>  <TORSDO>
F 17

$$$$
=
 OpenBabel11042415333D

 47 51  0  0  1  0  0  0  0  0999 V2000
  191.2970  176.4140  145.3670 C   0  0  2  0  0  3  0  0  0  0  0  0
  188.9890  176.8070  146.0420 C   0  0  0  0  0  0  0  0  0  0  0  0
  187.7450  176.4050  146.0520 C   0  0  0  0  0  3  0  0  0  0  0  0
  190.2290  177.2120  146.0390 C   0  0  0  0  0  3  0  0  0  0  0  0
  184.3910  178.0570  146.4960 C   0  0  0  0  0  3  0  0  0  0  0  0
  185.5450  179.1750  144.6890 C   0  0  0  0  0  3  0  0  0  0  0  0
  184.4210  179.0440  145.5070 C   0  0  0  0  0  3  0  0  0  0  0  0
  185.4850  177.2010  146.6660 C   0  0  0  0  0  3  0  0  0  0  0  0
  186.6150  177.3290  145.8490 C   0  0  0  0  0  0  0  0  0  0  0  0
  186.6400  178.3210  144.8570 C   0  0  0  0  0  3  0  0  0  0  0  0
  192.6130  176.7880  145.8790 N   0  0  0  0  0  0  0  0  0  0  0  0
  192.7250  176.2400  147.1480 O   0  0  0  0  0  0  0  0  0  0  0  0
  193.3410  175.5680  146.1420 C   0  0  2  0  0  3  0  0  0  0  0  0
  194.7700  175.8410  146.1710 N   0  0  0  0  0  2  0  0  0  0  0  0
  195.4110  175.0780  145.1050 C   0  0  2  0  0  3  0  0  0  0  0  0
  196.4560  176.7760  143.6540 N   0  0  0  0  0  1  0  0  0  0  0  0
  195.3650  175.8190  143.7650 C   0  0  1  0  0  3  0  0  0  0  0  0
  195.4180  174.9160  142.7070 O   0  0  0  0  0  1  0  0  0  0  0  0
  194.7470  173.7180  144.9900 C   0  0  0  0  0  2  0  0  0  0  0  0
  195.5320  172.7160  145.6980 N   0  0  0  0  0  2  0  0  0  0  0  0
  196.4370  171.8420  145.0140 C   0  0  0  0  0  0  0  0  0  0  0  0
  196.5800  171.9310  143.7610 O   0  0  0  0  0  0  0  0  0  0  0  0
  197.1770  170.8730  145.7670 N   0  0  0  0  0  0  0  0  0  0  0  0
  196.6770  168.7560  147.4140 C   0  0  0  0  0  2  0  0  0  0  0  0
  196.6090  169.9560  146.4800 C   0  0  0  0  0  0  0  0  0  0  0  0
  195.3890  169.2370  147.0370 C   0  0  0  0  0  2  0  0  0  0  0  0
  191.2200  176.5970  143.8740 C   0  0  0  0  0  0  0  0  0  0  0  0
  191.1030  177.8400  143.4150 C   0  0  0  0  0  2  0  0  0  0  0  0
  191.3150  175.4520  142.9330 C   0  0  0  0  0  0  0  0  0  0  0  0
  192.1760  175.4760  142.0100 O   0  0  0  0  0  0  0  0  0  0  0  0
  189.1780  172.4320  139.6230 N   0  0  0  0  0  0  0  0  0  0  0  0
  190.0530  171.9540  140.5660 C   0  0  0  0  0  0  0  0  0  0  0  0
  188.7920  174.5290  140.8270 C   0  0  0  0  0  3  0  0  0  0  0  0
  188.5630  173.6650  139.7260 C   0  0  0  0  0  3  0  0  0  0  0  0
  190.2980  172.7750  141.6430 C   0  0  0  0  0  0  0  0  0  0  0  0
  189.6740  174.0350  141.7660 C   0  0  0  0  0  0  0  0  0  0  0  0
  191.0260  172.9870  142.9260 C   0  0  0  0  0  2  0  0  0  0  0  0
  190.3710  174.2780  143.0620 C   0  0  1  0  0  3  0  0  0  0  0  0
  190.4650  169.8880  141.6360 O   0  0  0  0  0  1  0  0  0  0  0  0
  190.6610  170.5980  140.4520 C   0  0  2  0  0  3  0  0  0  0  0  0
  192.0930  170.7290  140.1880 N   0  0  0  0  0  2  0  0  0  0  0  0
  192.3670  170.8310  138.7510 C   0  0  2  0  0  3  0  0  0  0  0  0
  192.6720  169.4880  138.1480 C   0  0  0  0  0  3  0  0  0  0  0  0
  193.9070  169.2780  135.9340 O   0  0  0  0  0  0  0  0  0  0  0  0
  193.3060  169.3740  137.0120 C   0  0  0  0  0  0  0  0  0  0  0  0
  193.4490  171.8680  138.4580 C   0  0  0  0  0  2  0  0  0  0  0  0
  193.7760  172.8530  139.9530 S   0  0  0  0  0  1  0  0  0  0  0  0
  1 11  1  0  0  0  0
  1  4  1  1  0  0  0
  2  3  2  0  0  0  0
  4  2  2  0  0  0  0
  5  8  1  0  0  0  0
  6 10  2  0  0  0  0
  6  7  1  0  0  0  0
  7  5  2  0  0  0  0
  9  3  1  0  0  0  0
  9  8  2  0  0  0  0
 10  9  1  0  0  0  0
 11 13  1  0  0  0  0
 11 12  1  0  0  0  0
 13 14  1  1  0  0  0
 13 12  1  0  0  0  0
 15 19  1  6  0  0  0
 15 14  1  0  0  0  0
 16 17  1  0  0  0  0
 17 18  1  6  0  0  0
 17 15  1  0  0  0  0
 19 20  1  0  0  0  0
 21 20  1  0  0  0  0
 21 23  1  0  0  0  0
 22 21  2  0  0  0  0
 23 25  2  0  0  0  0
 25 26  1  0  0  0  0
 25 24  1  0  0  0  0
 26 24  1  0  0  0  0
 27  1  1  0  0  0  0
 28 27  2  0  0  0  0
 29 27  1  0  0  0  0
 30 29  2  0  0  0  0
 31 34  2  0  0  0  0
 31 32  1  0  0  0  0
 32 35  2  0  0  0  0
 33 36  2  0  0  0  0
 34 33  1  0  0  0  0
 35 36  1  0  0  0  0
 35 37  1  0  0  0  0
 36 38  1  0  0  0  0
 37 38  1  0  0  0  0
 38 29  1  6  0  0  0
 40 32  1  0  0  0  0
 40 39  1  1  0  0  0
 41 40  1  0  0  0  0
 42 43  1  1  0  0  0
 42 41  1  0  0  0  0
 44 45  2  0  0  0  0
 45 43  2  0  0  0  0
 46 42  1  0  0  0  0
 46 47  1  0  0  0  0
M  END
>  <MODEL>
6

>  <REMARK>
 VINA RESULT:      -6.4      1.937      2.410
  Name = 
  17 active torsions:
  status: ('A' for Active; 'I' for Inactive)
    1  A    between atoms: C_1  and  C_17
    2  A    between atoms: C_1  and  C_23
    3  A    between atoms: C_1  and  N_25
    4  A    between atoms: C_5  and  C_46
    5  A    between atoms: C_7  and  C_19
    6  A    between atoms: N_8  and  C_37
    7  A    between atoms: C_9  and  C_34
    8  A    between atoms: N_11  and  C_34
    9  A    between atoms: N_11  and  C_46
   10  A    between atoms: N_12  and  C_18
   11  A    between atoms: C_13  and  C_35
   12  A    between atoms: C_18  and  C_19
   13  A    between atoms: C_19  and  N_38
   14  A    between atoms: C_23  and  C_28
   15  A    between atoms: C_28  and  C_40
   16  A    between atoms: C_29  and  C_46
   17  A    between atoms: N_38  and  C_47
                            x       y       z     vdW  Elec       q    Type
                         _______ _______ _______ _____ _____    ______ ____

>  <TORSDO>
F 17

$$$$
=
 OpenBabel11042415333D

 47 51  0  0  1  0  0  0  0  0999 V2000
  190.9690  175.9730  145.0100 C   0  0  2  0  0  3  0  0  0  0  0  0
  188.9850  177.1050  145.8600 C   0  0  0  0  0  0  0  0  0  0  0  0
  187.8610  177.0390  146.5230 C   0  0  0  0  0  3  0  0  0  0  0  0
  190.1080  177.1780  145.1990 C   0  0  0  0  0  3  0  0  0  0  0  0
  184.3240  178.3310  146.5000 C   0  0  0  0  0  3  0  0  0  0  0  0
  185.4120  179.0850  144.4760 C   0  0  0  0  0  3  0  0  0  0  0  0
  184.2790  179.0310  145.2910 C   0  0  0  0  0  3  0  0  0  0  0  0
  185.5020  177.6850  146.8930 C   0  0  0  0  0  3  0  0  0  0  0  0
  186.6410  177.7370  146.0800 C   0  0  0  0  0  0  0  0  0  0  0  0
  186.5900  178.4410  144.8670 C   0  0  0  0  0  3  0  0  0  0  0  0
  192.0360  176.2520  144.0520 N   0  0  0  0  0  0  0  0  0  0  0  0
  192.9010  177.1500  144.6590 O   0  0  0  0  0  0  0  0  0  0  0  0
  193.2830  175.8470  144.6570 C   0  0  2  0  0  3  0  0  0  0  0  0
  194.2860  175.6290  143.6260 N   0  0  0  0  0  2  0  0  0  0  0  0
  195.1660  174.5450  144.0540 C   0  0  2  0  0  3  0  0  0  0  0  0
  196.8190  176.2940  143.5150 N   0  0  0  0  0  1  0  0  0  0  0  0
  196.6420  174.8830  143.8200 C   0  0  1  0  0  3  0  0  0  0  0  0
  197.4020  174.5400  144.9350 O   0  0  0  0  0  1  0  0  0  0  0  0
  194.7840  173.2700  143.3260 C   0  0  0  0  0  2  0  0  0  0  0  0
  194.2750  172.2860  144.2730 N   0  0  0  0  0  2  0  0  0  0  0  0
  195.0910  171.2170  144.7640 C   0  0  0  0  0  0  0  0  0  0  0  0
  196.2930  171.1090  144.3840 O   0  0  0  0  0  0  0  0  0  0  0  0
  194.5310  170.2790  145.6900 N   0  0  0  0  0  0  0  0  0  0  0  0
  195.3960  168.5700  147.6340 C   0  0  0  0  0  2  0  0  0  0  0  0
  195.2520  169.5960  146.5190 C   0  0  0  0  0  0  0  0  0  0  0  0
  196.5810  169.1880  147.1390 C   0  0  0  0  0  2  0  0  0  0  0  0
  190.1320  174.8020  144.5700 C   0  0  0  0  0  0  0  0  0  0  0  0
  189.6920  173.9740  145.5140 C   0  0  0  0  0  2  0  0  0  0  0  0
  189.7610  174.5880  143.1470 C   0  0  0  0  0  0  0  0  0  0  0  0
  188.9300  175.3640  142.5980 O   0  0  0  0  0  0  0  0  0  0  0  0
  189.2320  173.0210  138.4660 N   0  0  0  0  0  0  0  0  0  0  0  0
  190.4460  173.4450  138.9460 C   0  0  0  0  0  0  0  0  0  0  0  0
  188.2900  172.7110  140.7050 C   0  0  0  0  0  3  0  0  0  0  0  0
  188.1830  172.6660  139.2920 C   0  0  0  0  0  3  0  0  0  0  0  0
  190.5760  173.5040  140.3140 C   0  0  0  0  0  0  0  0  0  0  0  0
  189.5160  173.1400  141.1710 C   0  0  0  0  0  0  0  0  0  0  0  0
  191.4390  173.8250  141.4860 C   0  0  0  0  0  2  0  0  0  0  0  0
  190.3530  173.4340  142.3690 C   0  0  1  0  0  3  0  0  0  0  0  0
  191.1100  173.8890  136.7210 O   0  0  0  0  0  1  0  0  0  0  0  0
  191.5770  173.7710  138.0300 C   0  0  2  0  0  3  0  0  0  0  0  0
  192.5800  172.7110  138.1010 N   0  0  0  0  0  2  0  0  0  0  0  0
  193.9310  173.2600  138.2590 C   0  0  2  0  0  3  0  0  0  0  0  0
  194.6990  172.5450  139.3360 C   0  0  0  0  0  3  0  0  0  0  0  0
  193.5770  170.8470  140.8610 O   0  0  0  0  0  0  0  0  0  0  0  0
  194.1290  171.6720  140.1220 C   0  0  0  0  0  0  0  0  0  0  0  0
  193.9010  174.7730  138.4640 C   0  0  0  0  0  2  0  0  0  0  0  0
  194.8610  175.2120  139.9470 S   0  0  0  0  0  1  0  0  0  0  0  0
  1  4  1  6  0  0  0
  2  3  2  0  0  0  0
  4  2  2  0  0  0  0
  5  8  1  0  0  0  0
  6 10  2  0  0  0  0
  6  7  1  0  0  0  0
  7  5  2  0  0  0  0
  9  3  1  0  0  0  0
  9  8  2  0  0  0  0
 10  9  1  0  0  0  0
 11 13  1  0  0  0  0
 11 12  1  0  0  0  0
 11  1  1  0  0  0  0
 13 14  1  6  0  0  0
 13 12  1  0  0  0  0
 14 15  1  0  0  0  0
 15 19  1  6  0  0  0
 17 16  1  1  0  0  0
 17 15  1  0  0  0  0
 17 18  1  0  0  0  0
 19 20  1  0  0  0  0
 20 21  1  0  0  0  0
 21 23  1  0  0  0  0
 22 21  2  0  0  0  0
 23 25  2  0  0  0  0
 25 26  1  0  0  0  0
 25 24  1  0  0  0  0
 26 24  1  0  0  0  0
 27  1  1  0  0  0  0
 27 28  2  0  0  0  0
 29 27  1  0  0  0  0
 30 29  2  0  0  0  0
 31 32  2  0  0  0  0
 31 34  1  0  0  0  0
 32 35  1  0  0  0  0
 33 36  1  0  0  0  0
 34 33  2  0  0  0  0
 35 36  2  0  0  0  0
 35 37  1  0  0  0  0
 36 38  1  0  0  0  0
 37 38  1  0  0  0  0
 38 29  1  1  0  0  0
 40 39  1  6  0  0  0
 40 41  1  0  0  0  0
 40 32  1  0  0  0  0
 41 42  1  0  0  0  0
 42 46  1  1  0  0  0
 42 43  1  0  0  0  0
 43 45  2  0  0  0  0
 45 44  2  0  0  0  0
 46 47  1  0  0  0  0
M  END
>  <MODEL>
7

>  <REMARK>
 VINA RESULT:      -6.4      2.133      2.863
  Name = 
  17 active torsions:
  status: ('A' for Active; 'I' for Inactive)
    1  A    between atoms: C_1  and  C_17
    2  A    between atoms: C_1  and  C_23
    3  A    between atoms: C_1  and  N_25
    4  A    between atoms: C_5  and  C_46
    5  A    between atoms: C_7  and  C_19
    6  A    between atoms: N_8  and  C_37
    7  A    between atoms: C_9  and  C_34
    8  A    between atoms: N_11  and  C_34
    9  A    between atoms: N_11  and  C_46
   10  A    between atoms: N_12  and  C_18
   11  A    between atoms: C_13  and  C_35
   12  A    between atoms: C_18  and  C_19
   13  A    between atoms: C_19  and  N_38
   14  A    between atoms: C_23  and  C_28
   15  A    between atoms: C_28  and  C_40
   16  A    between atoms: C_29  and  C_46
   17  A    between atoms: N_38  and  C_47
                            x       y       z     vdW  Elec       q    Type
                         _______ _______ _______ _____ _____    ______ ____

>  <TORSDO>
F 17

$$$$
=
 OpenBabel11042415333D

 47 51  0  0  1  0  0  0  0  0999 V2000
  189.9640  175.8150  142.9370 C   0  0  2  0  0  3  0  0  0  0  0  0
  190.0370  173.5270  142.0990 C   0  0  0  0  0  0  0  0  0  0  0  0
  189.9520  172.2460  142.3430 C   0  0  0  0  0  3  0  0  0  0  0  0
  190.1200  174.8050  141.8480 C   0  0  0  0  0  3  0  0  0  0  0  0
  192.6520  169.6480  141.9820 C   0  0  0  0  0  3  0  0  0  0  0  0
  191.7120  170.0620  139.7930 C   0  0  0  0  0  3  0  0  0  0  0  0
  192.6220  169.3870  140.6100 C   0  0  0  0  0  3  0  0  0  0  0  0
  191.7730  170.5840  142.5380 C   0  0  0  0  0  3  0  0  0  0  0  0
  190.8580  171.2620  141.7240 C   0  0  0  0  0  0  0  0  0  0  0  0
  190.8320  170.9970  140.3460 C   0  0  0  0  0  3  0  0  0  0  0  0
  189.1510  176.9380  142.4790 N   0  0  0  0  0  0  0  0  0  0  0  0
  188.2430  176.4340  141.5610 O   0  0  0  0  0  0  0  0  0  0  0  0
  187.7770  176.6480  142.8180 C   0  0  2  0  0  3  0  0  0  0  0  0
  187.0040  177.8800  142.8530 N   0  0  0  0  0  2  0  0  0  0  0  0
  185.5850  177.5420  142.8020 C   0  0  2  0  0  3  0  0  0  0  0  0
  185.3550  177.9140  140.3760 N   0  0  0  0  0  1  0  0  0  0  0  0
  184.8580  178.3000  141.6870 C   0  0  1  0  0  3  0  0  0  0  0  0
  183.4860  178.0730  141.7590 O   0  0  0  0  0  1  0  0  0  0  0  0
  184.9510  177.8300  144.1500 C   0  0  0  0  0  2  0  0  0  0  0  0
  185.5640  177.0010  145.1800 N   0  0  0  0  0  2  0  0  0  0  0  0
  186.2040  177.5710  146.3270 C   0  0  0  0  0  0  0  0  0  0  0  0
  186.2420  178.8270  146.4750 O   0  0  0  0  0  0  0  0  0  0  0  0
  186.7930  176.7030  147.3020 N   0  0  0  0  0  0  0  0  0  0  0  0
  188.8510  174.9170  147.4640 C   0  0  0  0  0  2  0  0  0  0  0  0
  187.8120  175.9490  147.0460 C   0  0  0  0  0  0  0  0  0  0  0  0
  188.8920  175.4010  146.1230 C   0  0  0  0  0  2  0  0  0  0  0  0
  191.3160  176.2770  143.4130 C   0  0  0  0  0  0  0  0  0  0  0  0
  191.8820  177.2880  142.7600 C   0  0  0  0  0  2  0  0  0  0  0  0
  191.9860  175.6710  144.5920 C   0  0  0  0  0  0  0  0  0  0  0  0
  192.3480  176.4110  145.5490 O   0  0  0  0  0  0  0  0  0  0  0  0
  195.8830  172.8900  143.2780 N   0  0  0  0  0  0  0  0  0  0  0  0
  195.4500  172.9450  144.5790 C   0  0  0  0  0  0  0  0  0  0  0  0
  193.7860  173.7870  142.3860 C   0  0  0  0  0  3  0  0  0  0  0  0
  195.1030  173.2900  142.2100 C   0  0  0  0  0  3  0  0  0  0  0  0
  194.1780  173.4290  144.7790 C   0  0  0  0  0  0  0  0  0  0  0  0
  193.3660  173.8370  143.7000 C   0  0  0  0  0  0  0  0  0  0  0  0
  193.1000  173.7790  145.7480 C   0  0  0  0  0  2  0  0  0  0  0  0
  192.2580  174.1840  144.6350 C   0  0  1  0  0  3  0  0  0  0  0  0
  197.0400  173.5120  146.2330 O   0  0  0  0  0  1  0  0  0  0  0  0
  196.2960  172.4570  145.7060 C   0  0  2  0  0  3  0  0  0  0  0  0
  197.1980  171.4150  145.2180 N   0  0  0  0  0  2  0  0  0  0  0  0
  196.5990  170.0820  145.3500 C   0  0  2  0  0  3  0  0  0  0  0  0
  196.5470  169.6360  146.7840 C   0  0  0  0  0  3  0  0  0  0  0  0
  194.5150  168.4310  147.7250 O   0  0  0  0  0  0  0  0  0  0  0  0
  195.5060  169.0170  147.2730 C   0  0  0  0  0  0  0  0  0  0  0  0
  197.2880  169.0660  144.4410 C   0  0  0  0  0  2  0  0  0  0  0  0
  196.9630  169.4810  142.6980 S   0  0  0  0  0  1  0  0  0  0  0  0
  1  4  1  6  0  0  0
  1 27  1  0  0  0  0
  2  3  2  0  0  0  0
  4  2  2  0  0  0  0
  5  8  1  0  0  0  0
  6 10  2  0  0  0  0
  6  7  1  0  0  0  0
  7  5  2  0  0  0  0
  9  3  1  0  0  0  0
  9  8  2  0  0  0  0
 10  9  1  0  0  0  0
 11 13  1  0  0  0  0
 11  1  1  0  0  0  0
 12 11  1  0  0  0  0
 12 13  1  0  0  0  0
 13 14  1  6  0  0  0
 15 14  1  0  0  0  0
 15 19  1  1  0  0  0
 17 16  1  6  0  0  0
 17 18  1  0  0  0  0
 17 15  1  0  0  0  0
 19 20  1  0  0  0  0
 20 21  1  0  0  0  0
 21 22  2  0  0  0  0
 21 23  1  0  0  0  0
 25 23  2  0  0  0  0
 25 24  1  0  0  0  0
 26 25  1  0  0  0  0
 26 24  1  0  0  0  0
 27 29  1  0  0  0  0
 28 27  2  0  0  0  0
 29 30  2  0  0  0  0
 31 32  1  0  0  0  0
 32 35  2  0  0  0  0
 32 40  1  0  0  0  0
 33 36  2  0  0  0  0
 34 33  1  0  0  0  0
 34 31  2  0  0  0  0
 35 37  1  0  0  0  0
 36 38  1  0  0  0  0
 36 35  1  0  0  0  0
 38 29  1  1  0  0  0
 38 37  1  0  0  0  0
 40 39  1  6  0  0  0
 41 42  1  0  0  0  0
 41 40  1  0  0  0  0
 42 46  1  6  0  0  0
 42 43  1  0  0  0  0
 43 45  2  0  0  0  0
 45 44  2  0  0  0  0
 47 46  1  0  0  0  0
M  END
>  <MODEL>
8

>  <REMARK>
 VINA RESULT:      -6.3      3.312      9.290
  Name = 
  17 active torsions:
  status: ('A' for Active; 'I' for Inactive)
    1  A    between atoms: C_1  and  C_17
    2  A    between atoms: C_1  and  C_23
    3  A    between atoms: C_1  and  N_25
    4  A    between atoms: C_5  and  C_46
    5  A    between atoms: C_7  and  C_19
    6  A    between atoms: N_8  and  C_37
    7  A    between atoms: C_9  and  C_34
    8  A    between atoms: N_11  and  C_34
    9  A    between atoms: N_11  and  C_46
   10  A    between atoms: N_12  and  C_18
   11  A    between atoms: C_13  and  C_35
   12  A    between atoms: C_18  and  C_19
   13  A    between atoms: C_19  and  N_38
   14  A    between atoms: C_23  and  C_28
   15  A    between atoms: C_28  and  C_40
   16  A    between atoms: C_29  and  C_46
   17  A    between atoms: N_38  and  C_47
                            x       y       z     vdW  Elec       q    Type
                         _______ _______ _______ _____ _____    ______ ____

>  <TORSDO>
F 17

$$$$
=
 OpenBabel11042415333D

 47 51  0  0  1  0  0  0  0  0999 V2000
  188.9600  175.2430  141.9520 C   0  0  2  0  0  3  0  0  0  0  0  0
  186.9030  176.2390  142.8000 C   0  0  0  0  0  0  0  0  0  0  0  0
  186.1450  177.2960  142.9260 C   0  0  0  0  0  3  0  0  0  0  0  0
  187.6550  175.1800  142.6750 C   0  0  0  0  0  3  0  0  0  0  0  0
  183.8740  179.0390  145.3710 C   0  0  0  0  0  3  0  0  0  0  0  0
  184.9470  177.2030  146.5220 C   0  0  0  0  0  3  0  0  0  0  0  0
  184.0690  178.2890  146.5340 C   0  0  0  0  0  3  0  0  0  0  0  0
  184.5570  178.7030  144.1970 C   0  0  0  0  0  3  0  0  0  0  0  0
  185.4370  177.6150  144.1780 C   0  0  0  0  0  0  0  0  0  0  0  0
  185.6300  176.8650  145.3490 C   0  0  0  0  0  3  0  0  0  0  0  0
  189.4340  173.8990  141.6330 N   0  0  0  0  0  0  0  0  0  0  0  0
  188.5910  173.3930  140.6550 O   0  0  0  0  0  0  0  0  0  0  0  0
  189.7860  173.8810  140.2330 C   0  0  2  0  0  3  0  0  0  0  0  0
  190.7000  172.7820  139.9650 N   0  0  0  0  0  2  0  0  0  0  0  0
  191.1170  172.8520  138.5680 C   0  0  2  0  0  3  0  0  0  0  0  0
  189.5250  170.9730  138.4480 N   0  0  0  0  0  1  0  0  0  0  0  0
  190.6130  171.6510  137.7610 C   0  0  1  0  0  3  0  0  0  0  0  0
  190.1960  172.0560  136.4960 O   0  0  0  0  0  1  0  0  0  0  0  0
  192.6300  172.9490  138.4990 C   0  0  0  0  0  2  0  0  0  0  0  0
  193.0730  174.2390  139.0120 N   0  0  0  0  0  2  0  0  0  0  0  0
  194.2530  174.3700  139.8120 C   0  0  0  0  0  0  0  0  0  0  0  0
  194.9500  173.3510  140.0870 O   0  0  0  0  0  0  0  0  0  0  0  0
  194.6330  175.6660  140.2900 N   0  0  0  0  0  0  0  0  0  0  0  0
  196.3570  176.7410  142.1120 C   0  0  0  0  0  2  0  0  0  0  0  0
  195.5280  175.8400  141.2080 C   0  0  0  0  0  0  0  0  0  0  0  0
  196.5560  175.3330  142.2090 C   0  0  0  0  0  2  0  0  0  0  0  0
  189.9710  175.9990  142.7730 C   0  0  0  0  0  0  0  0  0  0  0  0
  189.9180  177.3280  142.7390 C   0  0  0  0  0  2  0  0  0  0  0  0
  190.9660  175.3060  143.6310 C   0  0  0  0  0  0  0  0  0  0  0  0
  190.5980  174.8110  144.7330 O   0  0  0  0  0  0  0  0  0  0  0  0
  195.2520  175.2390  146.1350 N   0  0  0  0  0  0  0  0  0  0  0  0
  194.8590  174.1760  145.3620 C   0  0  0  0  0  0  0  0  0  0  0  0
  193.6880  176.7880  145.0630 C   0  0  0  0  0  3  0  0  0  0  0  0
  194.7030  176.5010  146.0100 C   0  0  0  0  0  3  0  0  0  0  0  0
  193.8710  174.4250  144.4370 C   0  0  0  0  0  0  0  0  0  0  0  0
  193.3030  175.7090  144.2940 C   0  0  0  0  0  0  0  0  0  0  0  0
  192.9870  173.8920  143.3620 C   0  0  0  0  0  2  0  0  0  0  0  0
  192.4130  175.2180  143.2020 C   0  0  1  0  0  3  0  0  0  0  0  0
  196.1730  172.5230  144.3000 O   0  0  0  0  0  1  0  0  0  0  0  0
  195.5070  172.8380  145.4840 C   0  0  2  0  0  3  0  0  0  0  0  0
  194.4870  171.8280  145.7590 N   0  0  0  0  0  2  0  0  0  0  0  0
  194.9360  170.4900  145.3590 C   0  0  2  0  0  3  0  0  0  0  0  0
  193.8180  169.6870  144.7560 C   0  0  0  0  0  3  0  0  0  0  0  0
  191.7960  170.8110  143.6990 O   0  0  0  0  0  0  0  0  0  0  0  0
  192.7770  170.2590  144.2120 C   0  0  0  0  0  0  0  0  0  0  0  0
  195.6280  169.7640  146.5110 C   0  0  0  0  0  2  0  0  0  0  0  0
  197.2310  169.1090  145.9490 S   0  0  0  0  0  1  0  0  0  0  0  0
  1  4  1  1  0  0  0
  1 27  1  0  0  0  0
  2  3  2  0  0  0  0
  3  9  1  0  0  0  0
  4  2  2  0  0  0  0
  5  7  1  0  0  0  0
  6  7  2  0  0  0  0
  8  5  2  0  0  0  0
  9  8  1  0  0  0  0
  9 10  2  0  0  0  0
 10  6  1  0  0  0  0
 11  1  1  0  0  0  0
 12 11  1  0  0  0  0
 13 14  1  1  0  0  0
 13 12  1  0  0  0  0
 13 11  1  0  0  0  0
 15 19  1  1  0  0  0
 15 14  1  0  0  0  0
 17 18  1  6  0  0  0
 17 16  1  0  0  0  0
 17 15  1  0  0  0  0
 19 20  1  0  0  0  0
 20 21  1  0  0  0  0
 21 22  2  0  0  0  0
 21 23  1  0  0  0  0
 23 25  2  0  0  0  0
 24 26  1  0  0  0  0
 25 24  1  0  0  0  0
 25 26  1  0  0  0  0
 27 29  1  0  0  0  0
 28 27  2  0  0  0  0
 29 30  2  0  0  0  0
 32 40  1  0  0  0  0
 32 31  2  0  0  0  0
 33 34  2  0  0  0  0
 34 31  1  0  0  0  0
 35 32  1  0  0  0  0
 36 35  2  0  0  0  0
 36 33  1  0  0  0  0
 37 35  1  0  0  0  0
 38 37  1  0  0  0  0
 38 29  1  1  0  0  0
 38 36  1  0  0  0  0
 40 39  1  6  0  0  0
 40 41  1  0  0  0  0
 42 43  1  1  0  0  0
 42 41  1  0  0  0  0
 42 46  1  0  0  0  0
 44 45  2  0  0  0  0
 45 43  2  0  0  0  0
 47 46  1  0  0  0  0
M  END
>  <MODEL>
9

>  <REMARK>
 VINA RESULT:      -6.3      2.760      6.995
  Name = 
  17 active torsions:
  status: ('A' for Active; 'I' for Inactive)
    1  A    between atoms: C_1  and  C_17
    2  A    between atoms: C_1  and  C_23
    3  A    between atoms: C_1  and  N_25
    4  A    between atoms: C_5  and  C_46
    5  A    between atoms: C_7  and  C_19
    6  A    between atoms: N_8  and  C_37
    7  A    between atoms: C_9  and  C_34
    8  A    between atoms: N_11  and  C_34
    9  A    between atoms: N_11  and  C_46
   10  A    between atoms: N_12  and  C_18
   11  A    between atoms: C_13  and  C_35
   12  A    between atoms: C_18  and  C_19
   13  A    between atoms: C_19  and  N_38
   14  A    between atoms: C_23  and  C_28
   15  A    between atoms: C_28  and  C_40
   16  A    between atoms: C_29  and  C_46
   17  A    between atoms: N_38  and  C_47
                            x       y       z     vdW  Elec       q    Type
                         _______ _______ _______ _____ _____    ______ ____

>  <TORSDO>
F 17

$$$$
