=
 OpenBabel11042413513D

 25 27  0  0  0  0  0  0  0  0999 V2000
  187.0330  177.6950  142.9600 C   0  0  0  0  0  0  0  0  0  0  0  0
  187.7660  176.6440  143.2460 C   0  0  0  0  0  0  0  0  0  0  0  0
  186.3080  178.7410  142.6830 C   0  0  0  0  0  3  0  0  0  0  0  0
  188.5820  176.2930  146.9250 C   0  0  0  0  0  3  0  0  0  0  0  0
  192.1440  176.5130  146.1290 C   0  0  0  0  0  0  0  0  0  0  0  0
  188.3350  176.5050  144.6150 C   0  0  0  0  0  0  0  0  0  0  0  0
  191.0040  176.3930  146.9390 C   0  0  0  0  0  3  0  0  0  0  0  0
  190.7450  176.6440  144.1370 C   0  0  0  0  0  2  0  0  0  0  0  0
  193.4940  176.5080  146.7490 C   0  0  0  0  0  1  0  0  0  0  0  0
  189.7520  176.4020  146.3240 C   0  0  0  0  0  0  0  0  0  0  0  0
  187.5190  176.3510  145.8680 C   0  0  0  0  0  3  0  0  0  0  0  0
  192.0150  176.6380  144.7340 C   0  0  0  0  0  3  0  0  0  0  0  0
  189.6200  176.5290  144.9610 C   0  0  0  0  0  0  0  0  0  0  0  0
  188.5490  172.6460  139.2620 N   0  0  0  0  0  1  0  0  0  0  0  0
  187.9580  175.5870  142.2170 C   0  0  0  0  0  0  0  0  0  0  0  0
  188.2420  174.2650  142.5860 C   0  0  0  0  0  3  0  0  0  0  0  0
  188.4380  173.2830  141.6130 C   0  0  0  0  0  3  0  0  0  0  0  0
  188.3530  173.6330  140.2660 C   0  0  0  0  0  0  0  0  0  0  0  0
  187.8910  175.8890  140.8450 C   0  0  0  0  0  3  0  0  0  0  0  0
  188.0850  174.9190  139.9130 N   0  0  0  0  0  0  0  0  0  0  0  0
  185.2880  179.2140  143.6590 C   0  0  0  0  0  2  0  0  0  0  0  0
  185.1880  179.0670  146.1820 C   0  0  0  0  0  0  0  0  0  0  0  0
  183.9930  178.6700  146.1480 O   0  0  0  0  0  0  0  0  0  0  0  0
  185.8270  179.2190  147.4040 O   0  0  0  0  0  1  0  0  0  0  0  0
  185.8890  179.3680  144.9740 N   0  0  0  0  0  2  0  0  0  0  0  0
  1  2  2  0  0  0  0
  2  6  1  0  0  0  0
  3  1  2  0  0  0  0
  3 21  1  0  0  0  0
  5  9  1  0  0  0  0
  5  7  1  0  0  0  0
  6 13  2  0  0  0  0
  6 11  1  0  0  0  0
  8 12  1  0  0  0  0
  8 13  1  0  0  0  0
 10  4  1  0  0  0  0
 10  7  2  0  0  0  0
 11  4  2  0  0  0  0
 12  5  2  0  0  0  0
 13 10  1  0  0  0  0
 14 18  1  0  0  0  0
 15 16  1  0  0  0  0
 15  2  1  0  0  0  0
 17 16  2  0  0  0  0
 18 17  1  0  0  0  0
 19 15  2  0  0  0  0
 20 18  2  0  0  0  0
 20 19  1  0  0  0  0
 21 25  1  0  0  0  0
 22 24  1  0  0  0  0
 23 22  2  0  0  0  0
 25 22  1  0  0  0  0
M  END
>  <MODEL>
1

>  <REMARK>
 VINA RESULT:      -7.3      0.000      0.000
  Name = 
  4 active torsions:
  status: ('A' for Active; 'I' for Inactive)
    1  A    between atoms: C_3  and  N_19
    2  A    between atoms: C_3  and  C_24
    3  A    between atoms: C_7  and  C_12
    4  A    between atoms: C_9  and  C_12
                            x       y       z     vdW  Elec       q    Type
                         _______ _______ _______ _____ _____    ______ ____

>  <TORSDO>
F 4

$$$$
=
 OpenBabel11042413513D

 25 27  0  0  0  0  0  0  0  0999 V2000
  187.8560  176.3310  141.5220 C   0  0  0  0  0  0  0  0  0  0  0  0
  188.5840  175.7470  142.4460 C   0  0  0  0  0  0  0  0  0  0  0  0
  187.1340  176.9180  140.6110 C   0  0  0  0  0  3  0  0  0  0  0  0
  189.8920  177.5840  145.4850 C   0  0  0  0  0  3  0  0  0  0  0  0
  186.5620  177.4140  146.9880 C   0  0  0  0  0  0  0  0  0  0  0  0
  188.8510  176.4640  143.7230 C   0  0  0  0  0  0  0  0  0  0  0  0
  187.9260  177.7310  146.8970 C   0  0  0  0  0  3  0  0  0  0  0  0
  186.6300  176.3820  144.7810 C   0  0  0  0  0  2  0  0  0  0  0  0
  185.7950  177.7910  148.2040 C   0  0  0  0  0  1  0  0  0  0  0  0
  188.6150  177.3620  145.7420 C   0  0  0  0  0  0  0  0  0  0  0  0
  190.1890  177.0160  144.1290 C   0  0  0  0  0  3  0  0  0  0  0  0
  185.9170  176.7430  145.9330 C   0  0  0  0  0  3  0  0  0  0  0  0
  187.9910  176.7000  144.7110 C   0  0  0  0  0  0  0  0  0  0  0  0
  190.5030  170.4610  141.5240 N   0  0  0  0  0  1  0  0  0  0  0  0
  189.0720  174.3600  142.2200 C   0  0  0  0  0  0  0  0  0  0  0  0
  189.3840  173.5210  143.2990 C   0  0  0  0  0  3  0  0  0  0  0  0
  189.8580  172.2270  143.0780 C   0  0  0  0  0  3  0  0  0  0  0  0
  190.0220  171.7770  141.7680 C   0  0  0  0  0  0  0  0  0  0  0  0
  189.2630  173.8600  140.9200 C   0  0  0  0  0  3  0  0  0  0  0  0
  189.7250  172.5970  140.7240 N   0  0  0  0  0  0  0  0  0  0  0  0
  185.8940  177.6430  141.0020 C   0  0  0  0  0  2  0  0  0  0  0  0
  185.2680  178.9860  143.0520 C   0  0  0  0  0  0  0  0  0  0  0  0
  184.1250  178.4590  143.0940 O   0  0  0  0  0  0  0  0  0  0  0  0
  185.6270  179.9250  144.0090 O   0  0  0  0  0  1  0  0  0  0  0  0
  186.1970  178.6320  142.0260 N   0  0  0  0  0  2  0  0  0  0  0  0
  1  2  2  0  0  0  0
  2  6  1  0  0  0  0
  3 21  1  0  0  0  0
  3  1  2  0  0  0  0
  4 10  1  0  0  0  0
  5  9  1  0  0  0  0
  6 11  1  0  0  0  0
  6 13  2  0  0  0  0
  7  5  1  0  0  0  0
  8 12  1  0  0  0  0
 10  7  2  0  0  0  0
 11  4  2  0  0  0  0
 12  5  2  0  0  0  0
 13  8  1  0  0  0  0
 13 10  1  0  0  0  0
 14 18  1  0  0  0  0
 15  2  1  0  0  0  0
 15 16  1  0  0  0  0
 17 16  2  0  0  0  0
 18 17  1  0  0  0  0
 19 15  2  0  0  0  0
 20 19  1  0  0  0  0
 20 18  2  0  0  0  0
 21 25  1  0  0  0  0
 22 23  2  0  0  0  0
 22 24  1  0  0  0  0
 25 22  1  0  0  0  0
M  END
>  <MODEL>
2

>  <REMARK>
 VINA RESULT:      -7.3      1.994      3.454
  Name = 
  4 active torsions:
  status: ('A' for Active; 'I' for Inactive)
    1  A    between atoms: C_3  and  N_19
    2  A    between atoms: C_3  and  C_24
    3  A    between atoms: C_7  and  C_12
    4  A    between atoms: C_9  and  C_12
                            x       y       z     vdW  Elec       q    Type
                         _______ _______ _______ _____ _____    ______ ____

>  <TORSDO>
F 4

$$$$
=
 OpenBabel11042413513D

 25 27  0  0  0  0  0  0  0  0999 V2000
  187.9040  176.9520  145.8650 C   0  0  0  0  0  0  0  0  0  0  0  0
  188.8530  176.7530  144.9790 C   0  0  0  0  0  0  0  0  0  0  0  0
  186.9570  177.1490  146.7370 C   0  0  0  0  0  3  0  0  0  0  0  0
  187.7920  177.3190  141.3900 C   0  0  0  0  0  3  0  0  0  0  0  0
  188.4250  173.7880  140.6750 C   0  0  0  0  0  0  0  0  0  0  0  0
  188.5030  176.7260  143.5320 C   0  0  0  0  0  0  0  0  0  0  0  0
  188.0420  175.1130  140.4140 C   0  0  0  0  0  3  0  0  0  0  0  0
  188.9160  174.3610  142.9930 C   0  0  0  0  0  3  0  0  0  0  0  0
  188.3700  172.7760  139.5880 C   0  0  0  0  0  1  0  0  0  0  0  0
  188.1050  176.0370  141.4570 C   0  0  0  0  0  0  0  0  0  0  0  0
  188.0170  177.9140  142.7490 C   0  0  0  0  0  2  0  0  0  0  0  0
  188.8610  173.4140  141.9590 C   0  0  0  0  0  3  0  0  0  0  0  0
  188.5240  175.6750  142.7160 C   0  0  0  0  0  0  0  0  0  0  0  0
  194.2680  176.3180  146.7000 N   0  0  0  0  0  1  0  0  0  0  0  0
  190.2620  176.6210  145.4370 C   0  0  0  0  0  0  0  0  0  0  0  0
  190.5620  176.1470  146.7220 C   0  0  0  0  0  3  0  0  0  0  0  0
  191.8870  176.0430  147.1480 C   0  0  0  0  0  3  0  0  0  0  0  0
  192.9120  176.4200  146.2820 C   0  0  0  0  0  0  0  0  0  0  0  0
  191.3330  176.9940  144.6060 C   0  0  0  0  0  3  0  0  0  0  0  0
  192.6170  176.8850  145.0390 N   0  0  0  0  0  0  0  0  0  0  0  0
  185.9300  178.1970  146.4900 C   0  0  0  0  0  2  0  0  0  0  0  0
  184.7950  178.6920  144.2840 C   0  0  0  0  0  0  0  0  0  0  0  0
  185.2590  179.8640  144.2670 O   0  0  0  0  0  1  0  0  0  0  0  0
  183.9940  178.2550  143.2390 O   0  0  0  0  0  0  0  0  0  0  0  0
  185.0820  177.8110  145.3720 N   0  0  0  0  0  2  0  0  0  0  0  0
  1  3  2  0  0  0  0
  2 15  1  0  0  0  0
  2  1  2  0  0  0  0
  4 10  2  0  0  0  0
  4 11  1  0  0  0  0
  5 12  1  0  0  0  0
  6  2  1  0  0  0  0
  7  5  2  0  0  0  0
  7 10  1  0  0  0  0
  9  5  1  0  0  0  0
 10 13  1  0  0  0  0
 11  6  1  0  0  0  0
 12  8  2  0  0  0  0
 13  8  1  0  0  0  0
 13  6  2  0  0  0  0
 15 16  1  0  0  0  0
 16 17  2  0  0  0  0
 18 14  1  0  0  0  0
 18 17  1  0  0  0  0
 19 20  1  0  0  0  0
 19 15  2  0  0  0  0
 20 18  2  0  0  0  0
 21  3  1  0  0  0  0
 22 25  1  0  0  0  0
 23 22  1  0  0  0  0
 24 22  2  0  0  0  0
 25 21  1  0  0  0  0
M  END
>  <MODEL>
3

>  <REMARK>
 VINA RESULT:      -7.2      2.591      5.396
  Name = 
  4 active torsions:
  status: ('A' for Active; 'I' for Inactive)
    1  A    between atoms: C_3  and  N_19
    2  A    between atoms: C_3  and  C_24
    3  A    between atoms: C_7  and  C_12
    4  A    between atoms: C_9  and  C_12
                            x       y       z     vdW  Elec       q    Type
                         _______ _______ _______ _____ _____    ______ ____

>  <TORSDO>
F 4

$$$$
=
 OpenBabel11042413513D

 25 27  0  0  0  0  0  0  0  0999 V2000
  188.6070  174.8220  143.1520 C   0  0  0  0  0  0  0  0  0  0  0  0
  188.4110  175.6120  144.1820 C   0  0  0  0  0  0  0  0  0  0  0  0
  188.8080  174.0340  142.1350 C   0  0  0  0  0  3  0  0  0  0  0  0
  190.2310  175.1780  147.4720 C   0  0  0  0  0  3  0  0  0  0  0  0
  193.2230  176.6620  145.9830 C   0  0  0  0  0  0  0  0  0  0  0  0
  189.3350  175.5320  145.3470 C   0  0  0  0  0  0  0  0  0  0  0  0
  192.4260  176.0830  146.9830 C   0  0  0  0  0  3  0  0  0  0  0  0
  191.3770  176.5210  144.3970 C   0  0  0  0  0  3  0  0  0  0  0  0
  194.6250  177.0470  146.2870 C   0  0  0  0  0  1  0  0  0  0  0  0
  191.1130  175.7350  146.6630 C   0  0  0  0  0  0  0  0  0  0  0  0
  188.9610  174.9840  146.6960 C   0  0  0  0  0  2  0  0  0  0  0  0
  192.7010  176.8790  144.6950 C   0  0  0  0  0  3  0  0  0  0  0  0
  190.5960  175.9500  145.4080 C   0  0  0  0  0  0  0  0  0  0  0  0
  184.1400  179.3800  144.0020 N   0  0  0  0  0  1  0  0  0  0  0  0
  187.3100  176.6110  144.1350 C   0  0  0  0  0  0  0  0  0  0  0  0
  187.3440  177.7610  144.9360 C   0  0  0  0  0  3  0  0  0  0  0  0
  186.2990  178.6850  144.8980 C   0  0  0  0  0  3  0  0  0  0  0  0
  185.2140  178.4490  144.0540 C   0  0  0  0  0  0  0  0  0  0  0  0
  186.1890  176.4190  143.3070 C   0  0  0  0  0  3  0  0  0  0  0  0
  185.1810  177.3300  143.2830 N   0  0  0  0  0  0  0  0  0  0  0  0
  190.1890  173.8300  141.6180 C   0  0  0  0  0  2  0  0  0  0  0  0
  191.0490  171.8360  142.9140 C   0  0  0  0  0  0  0  0  0  0  0  0
  190.3130  171.0480  142.2620 O   0  0  0  0  0  0  0  0  0  0  0  0
  191.8850  171.3350  143.9020 O   0  0  0  0  0  1  0  0  0  0  0  0
  191.0270  173.2400  142.6510 N   0  0  0  0  0  2  0  0  0  0  0  0
  1  2  2  0  0  0  0
  2  6  1  0  0  0  0
  3  1  2  0  0  0  0
  5  9  1  0  0  0  0
  5  7  2  0  0  0  0
  6 13  2  0  0  0  0
  6 11  1  0  0  0  0
  8 12  2  0  0  0  0
  8 13  1  0  0  0  0
 10  7  1  0  0  0  0
 10  4  2  0  0  0  0
 11  4  1  0  0  0  0
 12  5  1  0  0  0  0
 13 10  1  0  0  0  0
 14 18  1  0  0  0  0
 15  2  1  0  0  0  0
 15 16  1  0  0  0  0
 17 16  2  0  0  0  0
 18 17  1  0  0  0  0
 19 15  2  0  0  0  0
 20 19  1  0  0  0  0
 20 18  2  0  0  0  0
 21  3  1  0  0  0  0
 21 25  1  0  0  0  0
 22 24  1  0  0  0  0
 23 22  2  0  0  0  0
 25 22  1  0  0  0  0
M  END
>  <MODEL>
4

>  <REMARK>
 VINA RESULT:      -7.0      3.469      5.474
  Name = 
  4 active torsions:
  status: ('A' for Active; 'I' for Inactive)
    1  A    between atoms: C_3  and  N_19
    2  A    between atoms: C_3  and  C_24
    3  A    between atoms: C_7  and  C_12
    4  A    between atoms: C_9  and  C_12
                            x       y       z     vdW  Elec       q    Type
                         _______ _______ _______ _____ _____    ______ ____

>  <TORSDO>
F 4

$$$$
=
 OpenBabel11042413513D

 25 27  0  0  0  0  0  0  0  0999 V2000
  187.4010  176.5370  143.9670 C   0  0  0  0  0  0  0  0  0  0  0  0
  188.4090  175.6960  143.9790 C   0  0  0  0  0  0  0  0  0  0  0  0
  186.4040  177.3750  143.9640 C   0  0  0  0  0  3  0  0  0  0  0  0
  190.0330  175.2500  147.3690 C   0  0  0  0  0  3  0  0  0  0  0  0
  193.1540  176.5990  146.0210 C   0  0  0  0  0  0  0  0  0  0  0  0
  189.2650  175.6020  145.1930 C   0  0  0  0  0  0  0  0  0  0  0  0
  192.2830  176.0670  146.9850 C   0  0  0  0  0  3  0  0  0  0  0  0
  191.3910  176.4990  144.3400 C   0  0  0  0  0  2  0  0  0  0  0  0
  194.5510  176.9370  146.3950 C   0  0  0  0  0  1  0  0  0  0  0  0
  190.9780  175.7610  146.6000 C   0  0  0  0  0  0  0  0  0  0  0  0
  188.7990  175.0910  146.5280 C   0  0  0  0  0  3  0  0  0  0  0  0
  192.7090  176.8130  144.7030 C   0  0  0  0  0  3  0  0  0  0  0  0
  190.5370  175.9740  145.3160 C   0  0  0  0  0  0  0  0  0  0  0  0
  189.2400  172.2500  139.5170 N   0  0  0  0  0  1  0  0  0  0  0  0
  188.6340  174.8120  142.8040 C   0  0  0  0  0  0  0  0  0  0  0  0
  188.3630  175.2580  141.5030 C   0  0  0  0  0  3  0  0  0  0  0  0
  188.5610  174.4160  140.4080 C   0  0  0  0  0  3  0  0  0  0  0  0
  189.0300  173.1210  140.6210 C   0  0  0  0  0  0  0  0  0  0  0  0
  189.0980  173.4940  142.9640 C   0  0  0  0  0  3  0  0  0  0  0  0
  189.2860  172.6890  141.8850 N   0  0  0  0  0  0  0  0  0  0  0  0
  185.5240  177.4840  145.1600 C   0  0  0  0  0  2  0  0  0  0  0  0
  186.3780  178.0530  147.4710 C   0  0  0  0  0  0  0  0  0  0  0  0
  186.1130  176.8960  147.8940 O   0  0  0  0  0  0  0  0  0  0  0  0
  186.9430  178.9860  148.3300 O   0  0  0  0  0  1  0  0  0  0  0  0
  186.0980  178.4160  146.1180 N   0  0  0  0  0  2  0  0  0  0  0  0
  1  2  2  0  0  0  0
  2  6  1  0  0  0  0
  3  1  2  0  0  0  0
  3 21  1  0  0  0  0
  5  9  1  0  0  0  0
  5  7  1  0  0  0  0
  6 13  2  0  0  0  0
  6 11  1  0  0  0  0
  8 12  1  0  0  0  0
  8 13  1  0  0  0  0
 10  7  2  0  0  0  0
 10  4  1  0  0  0  0
 11  4  2  0  0  0  0
 12  5  2  0  0  0  0
 13 10  1  0  0  0  0
 14 18  1  0  0  0  0
 15 19  1  0  0  0  0
 15  2  1  0  0  0  0
 16 15  2  0  0  0  0
 17 18  2  0  0  0  0
 17 16  1  0  0  0  0
 18 20  1  0  0  0  0
 20 19  2  0  0  0  0
 21 25  1  0  0  0  0
 22 23  2  0  0  0  0
 22 24  1  0  0  0  0
 25 22  1  0  0  0  0
M  END
>  <MODEL>
5

>  <REMARK>
 VINA RESULT:      -7.0      1.486      1.786
  Name = 
  4 active torsions:
  status: ('A' for Active; 'I' for Inactive)
    1  A    between atoms: C_3  and  N_19
    2  A    between atoms: C_3  and  C_24
    3  A    between atoms: C_7  and  C_12
    4  A    between atoms: C_9  and  C_12
                            x       y       z     vdW  Elec       q    Type
                         _______ _______ _______ _____ _____    ______ ____

>  <TORSDO>
F 4

$$$$
=
 OpenBabel11042413513D

 25 27  0  0  0  0  0  0  0  0999 V2000
  190.7800  176.4710  145.1840 C   0  0  0  0  0  0  0  0  0  0  0  0
  189.6050  175.9090  145.0240 C   0  0  0  0  0  0  0  0  0  0  0  0
  191.9500  177.0220  145.3390 C   0  0  0  0  0  3  0  0  0  0  0  0
  189.6300  172.2620  144.0090 C   0  0  0  0  0  3  0  0  0  0  0  0
  188.5730  173.2190  140.6410 C   0  0  0  0  0  0  0  0  0  0  0  0
  189.5220  174.5610  144.3960 C   0  0  0  0  0  0  0  0  0  0  0  0
  188.9570  172.3590  141.6820 C   0  0  0  0  0  3  0  0  0  0  0  0
  188.8080  175.1460  142.1160 C   0  0  0  0  0  3  0  0  0  0  0  0
  188.2430  172.6600  139.3050 C   0  0  0  0  0  1  0  0  0  0  0  0
  189.2610  172.9170  142.9240 C   0  0  0  0  0  0  0  0  0  0  0  0
  189.8460  173.2710  145.0990 C   0  0  0  0  0  2  0  0  0  0  0  0
  188.4980  174.6070  140.8580 C   0  0  0  0  0  3  0  0  0  0  0  0
  189.1950  174.2740  143.1390 C   0  0  0  0  0  0  0  0  0  0  0  0
  184.9190  178.5680  146.8780 N   0  0  0  0  0  1  0  0  0  0  0  0
  188.3890  176.6030  145.5270 C   0  0  0  0  0  0  0  0  0  0  0  0
  187.7790  176.2110  146.7260 C   0  0  0  0  0  3  0  0  0  0  0  0
  186.6290  176.8570  147.1820 C   0  0  0  0  0  3  0  0  0  0  0  0
  186.0890  177.8970  146.4280 C   0  0  0  0  0  0  0  0  0  0  0  0
  187.8000  177.6530  144.8010 C   0  0  0  0  0  3  0  0  0  0  0  0
  186.6800  178.2710  145.2620 N   0  0  0  0  0  0  0  0  0  0  0  0
  193.0910  176.2080  145.8400 C   0  0  0  0  0  2  0  0  0  0  0  0
  195.0190  176.2320  144.2040 C   0  0  0  0  0  0  0  0  0  0  0  0
  194.5480  175.2460  143.5780 O   0  0  0  0  0  0  0  0  0  0  0  0
  196.2060  176.8130  143.7790 O   0  0  0  0  0  1  0  0  0  0  0  0
  194.3470  176.7550  145.3510 N   0  0  0  0  0  2  0  0  0  0  0  0
  1  3  2  0  0  0  0
  2  1  2  0  0  0  0
  2 15  1  0  0  0  0
  3 21  1  0  0  0  0
  4 11  1  0  0  0  0
  5 12  1  0  0  0  0
  5  7  2  0  0  0  0
  6  2  1  0  0  0  0
  6 11  1  0  0  0  0
  7 10  1  0  0  0  0
  8 13  1  0  0  0  0
  9  5  1  0  0  0  0
 10 13  1  0  0  0  0
 10  4  2  0  0  0  0
 12  8  2  0  0  0  0
 13  6  2  0  0  0  0
 15 16  1  0  0  0  0
 16 17  2  0  0  0  0
 18 14  1  0  0  0  0
 18 17  1  0  0  0  0
 19 20  1  0  0  0  0
 19 15  2  0  0  0  0
 20 18  2  0  0  0  0
 22 25  1  0  0  0  0
 23 22  2  0  0  0  0
 24 22  1  0  0  0  0
 25 21  1  0  0  0  0
M  END
>  <MODEL>
6

>  <REMARK>
 VINA RESULT:      -6.8      3.978      6.975
  Name = 
  4 active torsions:
  status: ('A' for Active; 'I' for Inactive)
    1  A    between atoms: C_3  and  N_19
    2  A    between atoms: C_3  and  C_24
    3  A    between atoms: C_7  and  C_12
    4  A    between atoms: C_9  and  C_12
                            x       y       z     vdW  Elec       q    Type
                         _______ _______ _______ _____ _____    ______ ____

>  <TORSDO>
F 4

$$$$
=
 OpenBabel11042413513D

 25 27  0  0  0  0  0  0  0  0999 V2000
  190.1890  175.5740  143.4190 C   0  0  0  0  0  0  0  0  0  0  0  0
  190.5420  175.4960  144.6810 C   0  0  0  0  0  0  0  0  0  0  0  0
  189.8310  175.6540  142.1690 C   0  0  0  0  0  3  0  0  0  0  0  0
  188.1700  175.1820  147.6130 C   0  0  0  0  0  3  0  0  0  0  0  0
  186.2420  178.0090  146.3220 C   0  0  0  0  0  0  0  0  0  0  0  0
  189.4960  175.5860  145.7360 C   0  0  0  0  0  0  0  0  0  0  0  0
  186.5780  176.9620  147.1940 C   0  0  0  0  0  3  0  0  0  0  0  0
  188.1640  177.4850  144.9160 C   0  0  0  0  0  3  0  0  0  0  0  0
  185.0470  178.8470  146.5980 C   0  0  0  0  0  1  0  0  0  0  0  0
  187.7060  176.1950  146.9030 C   0  0  0  0  0  0  0  0  0  0  0  0
  189.3980  174.6670  146.9220 C   0  0  0  0  0  2  0  0  0  0  0  0
  187.0330  178.2700  145.1880 C   0  0  0  0  0  3  0  0  0  0  0  0
  188.4780  176.4420  145.7930 C   0  0  0  0  0  0  0  0  0  0  0  0
  196.0240  174.5610  145.9240 N   0  0  0  0  0  1  0  0  0  0  0  0
  191.9690  175.2560  145.0250 C   0  0  0  0  0  0  0  0  0  0  0  0
  192.6590  176.1210  145.8860 C   0  0  0  0  0  3  0  0  0  0  0  0
  194.0020  175.8980  146.1910 C   0  0  0  0  0  3  0  0  0  0  0  0
  194.6560  174.8050  145.6240 C   0  0  0  0  0  0  0  0  0  0  0  0
  192.6770  174.1730  144.4740 C   0  0  0  0  0  3  0  0  0  0  0  0
  193.9860  173.9720  144.7830 N   0  0  0  0  0  0  0  0  0  0  0  0
  188.6300  174.9130  141.6950 C   0  0  0  0  0  2  0  0  0  0  0  0
  186.7930  176.6490  141.6030 C   0  0  0  0  0  0  0  0  0  0  0  0
  187.2850  177.1670  140.5650 O   0  0  0  0  0  0  0  0  0  0  0  0
  185.6320  177.1760  142.1510 O   0  0  0  0  0  1  0  0  0  0  0  0
  187.4230  175.5270  142.2250 N   0  0  0  0  0  2  0  0  0  0  0  0
  1  2  2  0  0  0  0
  2 15  1  0  0  0  0
  2  6  1  0  0  0  0
  3  1  2  0  0  0  0
  5  9  1  0  0  0  0
  5  7  2  0  0  0  0
  6 13  2  0  0  0  0
  6 11  1  0  0  0  0
  8 12  2  0  0  0  0
  8 13  1  0  0  0  0
 10  7  1  0  0  0  0
 10  4  2  0  0  0  0
 11  4  1  0  0  0  0
 12  5  1  0  0  0  0
 13 10  1  0  0  0  0
 15 16  1  0  0  0  0
 16 17  2  0  0  0  0
 18 14  1  0  0  0  0
 18 17  1  0  0  0  0
 19 20  1  0  0  0  0
 19 15  2  0  0  0  0
 20 18  2  0  0  0  0
 21  3  1  0  0  0  0
 21 25  1  0  0  0  0
 22 24  1  0  0  0  0
 22 25  1  0  0  0  0
 23 22  2  0  0  0  0
M  END
>  <MODEL>
7

>  <REMARK>
 VINA RESULT:      -6.8      3.318      5.619
  Name = 
  4 active torsions:
  status: ('A' for Active; 'I' for Inactive)
    1  A    between atoms: C_3  and  N_19
    2  A    between atoms: C_3  and  C_24
    3  A    between atoms: C_7  and  C_12
    4  A    between atoms: C_9  and  C_12
                            x       y       z     vdW  Elec       q    Type
                         _______ _______ _______ _____ _____    ______ ____

>  <TORSDO>
F 4

$$$$
=
 OpenBabel11042413513D

 25 27  0  0  1  0  0  0  0  0999 V2000
  188.5560  174.8360  143.0640 C   0  0  0  0  0  0  0  0  0  0  0  0
  188.6890  175.9390  143.7630 C   0  0  0  0  0  0  0  0  0  0  0  0
  188.4330  173.7410  142.3700 C   0  0  0  0  0  3  0  0  0  0  0  0
  191.8030  178.0770  143.5250 C   0  0  0  0  0  3  0  0  0  0  0  0
  193.6110  175.6220  145.5450 C   0  0  0  0  0  0  0  0  0  0  0  0
  190.0200  176.6040  143.8290 C   0  0  0  0  0  0  0  0  0  0  0  0
  193.4220  176.7910  144.7920 C   0  0  0  0  0  3  0  0  0  0  0  0
  191.2840  174.9880  145.1870 C   0  0  0  0  0  3  0  0  0  0  0  0
  194.9420  175.3320  146.1380 C   0  0  0  0  0  1  0  0  0  0  0  0
  192.1590  177.0320  144.2490 C   0  0  1  0  0  3  0  0  0  0  0  0
  190.3560  177.9100  143.1660 C   0  0  0  0  0  3  0  0  0  0  0  0
  192.5450  174.7250  145.7430 C   0  0  0  0  0  3  0  0  0  0  0  0
  191.1170  176.1550  144.4340 C   0  0  0  0  0  0  0  0  0  0  0  0
  184.0660  178.1800  146.2300 N   0  0  0  0  0  1  0  0  0  0  0  0
  187.4940  176.5340  144.4200 C   0  0  0  0  0  0  0  0  0  0  0  0
  187.4000  176.6060  145.8170 C   0  0  0  0  0  3  0  0  0  0  0  0
  186.2680  177.1500  146.4250 C   0  0  0  0  0  3  0  0  0  0  0  0
  185.2260  177.6210  145.6270 C   0  0  0  0  0  0  0  0  0  0  0  0
  186.4120  177.0160  143.6620 C   0  0  0  0  0  3  0  0  0  0  0  0
  185.3190  177.5440  144.2720 N   0  0  0  0  0  0  0  0  0  0  0  0
  189.0670  173.6410  141.0260 C   0  0  0  0  0  2  0  0  0  0  0  0
  188.1920  174.1660  138.7130 C   0  0  0  0  0  0  0  0  0  0  0  0
  188.6400  173.0800  138.2570 O   0  0  0  0  0  1  0  0  0  0  0  0
  187.5120  175.0350  137.8710 O   0  0  0  0  0  0  0  0  0  0  0  0
  188.3810  174.5130  140.0850 N   0  0  0  0  0  2  0  0  0  0  0  0
  1  2  2  0  0  0  0
  2  6  1  0  0  0  0
  2 15  1  0  0  0  0
  3  1  2  0  0  0  0
  5 12  1  0  0  0  0
  5  9  1  0  0  0  0
  6 13  2  0  0  0  0
  7  5  2  0  0  0  0
  8 12  2  0  0  0  0
 10  4  1  1  0  0  0
 10 13  1  0  0  0  0
 10  7  1  0  0  0  0
 11  4  2  0  0  0  0
 11  6  1  0  0  0  0
 13  8  1  0  0  0  0
 15 16  1  0  0  0  0
 16 17  2  0  0  0  0
 18 14  1  0  0  0  0
 18 17  1  0  0  0  0
 19 20  1  0  0  0  0
 19 15  2  0  0  0  0
 20 18  2  0  0  0  0
 21  3  1  0  0  0  0
 22 25  1  0  0  0  0
 23 22  1  0  0  0  0
 24 22  2  0  0  0  0
 25 21  1  0  0  0  0
M  END
>  <MODEL>
8

>  <REMARK>
 VINA RESULT:      -6.8      3.234      5.704
  Name = 
  4 active torsions:
  status: ('A' for Active; 'I' for Inactive)
    1  A    between atoms: C_3  and  N_19
    2  A    between atoms: C_3  and  C_24
    3  A    between atoms: C_7  and  C_12
    4  A    between atoms: C_9  and  C_12
                            x       y       z     vdW  Elec       q    Type
                         _______ _______ _______ _____ _____    ______ ____

>  <TORSDO>
F 4

$$$$
=
 OpenBabel11042413513D

 25 27  0  0  1  0  0  0  0  0999 V2000
  186.8220  176.6930  142.5000 C   0  0  0  0  0  0  0  0  0  0  0  0
  188.0280  176.1790  142.4150 C   0  0  0  0  0  0  0  0  0  0  0  0
  185.6300  177.2090  142.5890 C   0  0  0  0  0  3  0  0  0  0  0  0
  190.9010  178.0120  144.0620 C   0  0  0  0  0  3  0  0  0  0  0  0
  190.7260  175.6950  146.8860 C   0  0  0  0  0  0  0  0  0  0  0  0
  189.1180  176.7370  143.2630 C   0  0  0  0  0  0  0  0  0  0  0  0
  191.2050  176.7700  146.1220 C   0  0  0  0  0  3  0  0  0  0  0  0
  189.0430  175.2090  145.1900 C   0  0  0  0  0  3  0  0  0  0  0  0
  191.3590  175.3760  148.1920 C   0  0  0  0  0  1  0  0  0  0  0  0
  190.5870  177.0410  144.9010 C   0  0  1  0  0  3  0  0  0  0  0  0
  189.9700  177.9180  142.8890 C   0  0  0  0  0  3  0  0  0  0  0  0
  189.6490  174.9180  146.4220 C   0  0  0  0  0  3  0  0  0  0  0  0
  189.5380  176.2810  144.4400 C   0  0  0  0  0  0  0  0  0  0  0  0
  188.9650  171.7580  138.9450 N   0  0  0  0  0  1  0  0  0  0  0  0
  188.2620  175.0120  141.5230 C   0  0  0  0  0  0  0  0  0  0  0  0
  188.6680  173.7760  142.0430 C   0  0  0  0  0  3  0  0  0  0  0  0
  188.9020  172.6910  141.1970 C   0  0  0  0  0  3  0  0  0  0  0  0
  188.7320  172.8520  139.8220 C   0  0  0  0  0  0  0  0  0  0  0  0
  188.1130  175.1230  140.1290 C   0  0  0  0  0  3  0  0  0  0  0  0
  188.3450  174.0550  139.3200 N   0  0  0  0  0  0  0  0  0  0  0  0
  185.0590  177.5280  143.9260 C   0  0  0  0  0  2  0  0  0  0  0  0
  185.9330  177.3430  146.2920 C   0  0  0  0  0  0  0  0  0  0  0  0
  185.4170  178.4470  146.6080 O   0  0  0  0  0  0  0  0  0  0  0  0
  186.6410  176.6180  147.2410 O   0  0  0  0  0  1  0  0  0  0  0  0
  185.8020  176.8310  144.9650 N   0  0  0  0  0  2  0  0  0  0  0  0
  1  3  2  0  0  0  0
  2  1  2  0  0  0  0
  2  6  1  0  0  0  0
  3 21  1  0  0  0  0
  5  9  1  0  0  0  0
  6 13  2  0  0  0  0
  7  5  2  0  0  0  0
  8 12  2  0  0  0  0
 10  4  1  1  0  0  0
 10  7  1  0  0  0  0
 11  6  1  0  0  0  0
 11  4  2  0  0  0  0
 12  5  1  0  0  0  0
 13 10  1  0  0  0  0
 13  8  1  0  0  0  0
 14 18  1  0  0  0  0
 15 16  1  0  0  0  0
 15  2  1  0  0  0  0
 17 16  2  0  0  0  0
 18 17  1  0  0  0  0
 19 15  2  0  0  0  0
 20 18  2  0  0  0  0
 20 19  1  0  0  0  0
 21 25  1  0  0  0  0
 22 23  2  0  0  0  0
 22 24  1  0  0  0  0
 25 22  1  0  0  0  0
M  END
>  <MODEL>
9

>  <REMARK>
 VINA RESULT:      -6.7      1.405      2.037
  Name = 
  4 active torsions:
  status: ('A' for Active; 'I' for Inactive)
    1  A    between atoms: C_3  and  N_19
    2  A    between atoms: C_3  and  C_24
    3  A    between atoms: C_7  and  C_12
    4  A    between atoms: C_9  and  C_12
                            x       y       z     vdW  Elec       q    Type
                         _______ _______ _______ _____ _____    ______ ____

>  <TORSDO>
F 4

$$$$
