=
 OpenBabel11042417073D

 44 51  0  0  1  0  0  0  0  0999 V2000
  193.0340  173.6660  139.5820 C   0  0  0  0  0  0  0  0  0  0  0  0
  186.7350  177.9510  145.4630 C   0  0  0  0  0  0  0  0  0  0  0  0
  188.3760  176.2220  145.0480 C   0  0  0  0  0  3  0  0  0  0  0  0
  193.2730  173.7590  140.9320 C   0  0  0  0  0  3  0  0  0  0  0  0
  187.2760  176.9620  144.6090 C   0  0  0  0  0  0  0  0  0  0  0  0
  190.0870  174.2790  146.3800 N   0  0  0  0  0  2  0  0  0  0  0  0
  190.9470  175.1890  145.5770 C   0  0  2  0  0  0  0  0  0  0  0  0
  192.5610  174.5340  143.8740 C   0  0  1  0  0  3  0  0  0  0  0  0
  187.2970  178.1350  146.7360 C   0  0  0  0  0  3  0  0  0  0  0  0
  187.9550  175.1100  140.3110 N   0  0  0  0  0  2  0  0  0  0  0  0
  188.8740  174.1880  139.7610 C   0  0  0  0  0  0  0  0  0  0  0  0
  191.8810  173.6370  142.9320 N   0  0  0  0  0  2  0  0  0  0  0  0
  188.4000  177.3850  147.1560 C   0  0  0  0  0  3  0  0  0  0  0  0
  192.0750  173.6970  141.5410 N   0  0  0  0  0  0  0  0  0  0  0  0
  189.6480  173.3460  140.7310 C   0  0  2  0  0  3  0  0  0  0  0  0
  189.0260  174.0850  138.5170 O   0  0  0  0  0  0  0  0  0  0  0  0
  194.0830  173.6720  138.5270 C   0  0  0  0  0  1  0  0  0  0  0  0
  188.9580  176.4260  146.3070 C   0  0  0  0  0  0  0  0  0  0  0  0
  192.2630  175.3770  146.0850 O   0  0  0  0  0  0  0  0  0  0  0  0
  190.1770  175.6670  146.7510 C   0  0  1  0  0  3  0  0  0  0  0  0
  187.8640  174.9400  141.7070 C   0  0  0  0  0  0  0  0  0  0  0  0
  186.7230  176.6990  143.2610 C   0  0  0  0  0  3  0  0  0  0  0  0
  187.2700  175.8260  142.4580 C   0  0  0  0  0  0  0  0  0  0  0  0
  191.7190  173.5280  139.3400 N   0  0  0  0  0  0  0  0  0  0  0  0
  188.9730  173.7190  142.4030 S   0  0  0  0  0  0  0  0  0  0  0  0
  192.0910  174.2620  145.2970 C   0  0  1  0  0  3  0  0  0  0  0  0
  191.1430  173.5610  140.5630 C   0  0  0  0  0  0  0  0  0  0  0  0
  185.7030  179.8830  144.0350 C   0  0  0  0  0  1  0  0  0  0  0  0
  185.5480  178.7830  145.0700 C   0  0  0  0  0  0  0  0  0  0  0  0
  184.2260  178.0660  145.0470 C   0  0  0  0  0  2  0  0  0  0  0  0
  184.5350  179.0610  146.1430 C   0  0  0  0  0  2  0  0  0  0  0  0
  194.0850  174.5550  143.7080 C   0  0  2  0  0  3  0  0  0  0  0  0
  194.5370  172.1750  144.3410 C   0  0  0  0  0  2  0  0  0  0  0  0
  195.2740  171.2340  145.2910 C   0  0  0  0  0  2  0  0  0  0  0  0
  196.7490  171.5080  145.2480 C   0  0  0  0  0  0  0  0  0  0  0  0
  197.5820  170.5410  145.4740 N   0  0  0  0  0  2  0  0  0  0  0  0
  197.0940  173.3340  146.7290 O   0  0  0  0  0  1  0  0  0  0  0  0
  197.2170  172.9260  145.3980 C   0  0  2  0  0  3  0  0  0  0  0  0
  196.4180  173.8560  144.4950 C   0  0  0  0  0  2  0  0  0  0  0  0
  194.9000  173.6390  144.6240 C   0  0  1  0  0  3  0  0  0  0  0  0
  194.6190  175.9510  143.4770 C   0  0  0  0  0  0  0  0  0  0  0  0
  194.7240  176.7540  144.4410 O   0  0  0  0  0  0  0  0  0  0  0  0
  196.2790  176.4090  141.7150 C   0  0  0  0  0  1  0  0  0  0  0  0
  194.9460  176.3940  142.1940 O   0  0  0  0  0  0  0  0  0  0  0  0
  1  4  2  0  0  0  0
  2  9  1  0  0  0  0
  3 18  2  0  0  0  0
  4 14  1  0  0  0  0
  5  3  1  0  0  0  0
  5  2  2  0  0  0  0
  6 20  1  0  0  0  0
  7 19  1  1  0  0  0
  7  6  1  0  0  0  0
  7 20  1  0  0  0  0
  8 32  1  1  0  0  0
  8 26  1  0  0  0  0
  9 13  2  0  0  0  0
 10 21  1  0  0  0  0
 11 10  1  0  0  0  0
 12  8  1  0  0  0  0
 14 12  1  0  0  0  0
 15 11  1  6  0  0  0
 15 25  1  0  0  0  0
 16 11  2  0  0  0  0
 17  1  1  0  0  0  0
 18 13  1  0  0  0  0
 20 18  1  6  0  0  0
 21 25  1  0  0  0  0
 21 23  2  0  0  0  0
 22  5  1  0  0  0  0
 23 22  2  0  0  0  0
 24  1  1  0  0  0  0
 24 27  2  0  0  0  0
 26  7  1  0  0  0  0
 26 19  1  1  0  0  0
 27 15  1  0  0  0  0
 27 14  1  0  0  0  0
 28 29  1  0  0  0  0
 29  2  1  0  0  0  0
 29 31  1  0  0  0  0
 30 29  1  0  0  0  0
 30 31  1  0  0  0  0
 32 41  1  1  0  0  0
 33 40  1  0  0  0  0
 33 34  1  0  0  0  0
 35 34  1  0  0  0  0
 35 38  1  0  0  0  0
 35 36  2  0  0  0  0
 38 37  1  1  0  0  0
 39 40  1  0  0  0  0
 39 38  1  0  0  0  0
 40 32  1  6  0  0  0
 41 42  2  0  0  0  0
 43 44  1  0  0  0  0
 44 41  1  0  0  0  0
M  END
>  <MODEL>
1

>  <REMARK>
 VINA RESULT:      -9.0      0.000      0.000
  Name = 
  5 active torsions:
  status: ('A' for Active; 'I' for Inactive)
    1  A    between atoms: C_1  and  C_38
    2  A    between atoms: C_1  and  O_43
    3  A    between atoms: C_5  and  C_12
    4  A    between atoms: C_13  and  C_38
    5  A    between atoms: C_38  and  C_42
                            x       y       z     vdW  Elec       q    Type
                         _______ _______ _______ _____ _____    ______ ____

>  <TORSDO>
F 5

$$$$
=
 OpenBabel11042417073D

 44 51  0  0  1  0  0  0  0  0999 V2000
  194.4570  172.7040  143.5810 C   0  0  0  0  0  0  0  0  0  0  0  0
  186.2630  177.2800  145.7120 C   0  0  0  0  0  0  0  0  0  0  0  0
  187.9510  176.6430  144.0990 C   0  0  0  0  0  3  0  0  0  0  0  0
  193.4240  172.7680  142.6770 C   0  0  0  0  0  3  0  0  0  0  0  0
  187.6260  177.1090  145.3760 C   0  0  0  0  0  0  0  0  0  0  0  0
  188.4770  176.4520  141.2420 N   0  0  0  0  0  2  0  0  0  0  0  0
  188.6390  175.1000  141.8400 C   0  0  2  0  0  0  0  0  0  0  0  0
  190.6020  173.6670  141.6800 C   0  0  1  0  0  3  0  0  0  0  0  0
  185.2820  177.0100  144.7440 C   0  0  0  0  0  3  0  0  0  0  0  0
  192.1480  176.4500  146.5890 N   0  0  0  0  0  2  0  0  0  0  0  0
  193.3030  175.9990  145.9110 C   0  0  0  0  0  0  0  0  0  0  0  0
  191.7720  174.4600  142.0790 N   0  0  0  0  0  2  0  0  0  0  0  0
  185.6290  176.5410  143.4730 C   0  0  0  0  0  3  0  0  0  0  0  0
  192.8090  173.9480  142.8770 N   0  0  0  0  0  0  0  0  0  0  0  0
  193.2410  175.9780  144.4120 C   0  0  2  0  0  3  0  0  0  0  0  0
  194.3280  175.6350  146.5430 O   0  0  0  0  0  0  0  0  0  0  0  0
  195.4180  171.5750  143.7000 C   0  0  0  0  0  1  0  0  0  0  0  0
  186.9720  176.3430  143.1430 C   0  0  0  0  0  0  0  0  0  0  0  0
  188.3540  174.0160  140.9640 O   0  0  0  0  0  0  0  0  0  0  0  0
  187.3260  175.7860  141.7920 C   0  0  1  0  0  3  0  0  0  0  0  0
  191.1950  176.9300  145.6690 C   0  0  0  0  0  0  0  0  0  0  0  0
  188.7140  177.3940  146.3370 C   0  0  0  0  0  3  0  0  0  0  0  0
  189.9660  177.1730  146.0350 C   0  0  0  0  0  0  0  0  0  0  0  0
  194.5110  173.8250  144.3220 N   0  0  0  0  0  0  0  0  0  0  0  0
  191.6370  176.7490  143.9440 S   0  0  0  0  0  0  0  0  0  0  0  0
  189.6310  174.5220  140.8770 C   0  0  1  0  0  3  0  0  0  0  0  0
  193.4770  174.5750  143.8790 C   0  0  0  0  0  0  0  0  0  0  0  0
  186.1140  176.9640  148.3020 C   0  0  0  0  0  1  0  0  0  0  0  0
  185.8290  177.7860  147.0570 C   0  0  0  0  0  0  0  0  0  0  0  0
  185.8930  179.2760  147.2480 C   0  0  0  0  0  2  0  0  0  0  0  0
  184.5570  178.5820  147.1010 C   0  0  0  0  0  2  0  0  0  0  0  0
  190.9650  172.3340  141.0140 C   0  0  2  0  0  3  0  0  0  0  0  0
  192.2810  171.7380  138.9690 C   0  0  0  0  0  2  0  0  0  0  0  0
  192.3260  171.7510  137.4430 C   0  0  0  0  0  2  0  0  0  0  0  0
  191.1270  171.0410  136.8850 C   0  0  0  0  0  0  0  0  0  0  0  0
  191.2220  170.4350  135.7430 N   0  0  0  0  0  2  0  0  0  0  0  0
  189.3840  172.6560  136.8830 O   0  0  0  0  0  1  0  0  0  0  0  0
  189.7690  171.4180  137.4020 C   0  0  2  0  0  3  0  0  0  0  0  0
  189.7680  171.4690  138.9240 C   0  0  0  0  0  2  0  0  0  0  0  0
  190.9440  172.2890  139.4840 C   0  0  1  0  0  3  0  0  0  0  0  0
  190.3790  171.1480  141.7470 C   0  0  0  0  0  0  0  0  0  0  0  0
  189.4750  171.3200  142.6060 O   0  0  0  0  0  0  0  0  0  0  0  0
  192.0420  169.3770  142.1650 C   0  0  0  0  0  1  0  0  0  0  0  0
  190.8680  169.8570  141.5340 O   0  0  0  0  0  0  0  0  0  0  0  0
  1 17  1  0  0  0  0
  1 24  1  0  0  0  0
  2 29  1  0  0  0  0
  3  5  2  0  0  0  0
  4 14  1  0  0  0  0
  4  1  2  0  0  0  0
  5  2  1  0  0  0  0
  5 22  1  0  0  0  0
  6  7  1  0  0  0  0
  7 19  1  6  0  0  0
  8 32  1  6  0  0  0
  8 12  1  0  0  0  0
  9  2  2  0  0  0  0
 11 16  2  0  0  0  0
 11 10  1  0  0  0  0
 12 14  1  0  0  0  0
 13  9  1  0  0  0  0
 14 27  1  0  0  0  0
 15 27  1  1  0  0  0
 15 11  1  0  0  0  0
 18 13  2  0  0  0  0
 18  3  1  0  0  0  0
 20  6  1  6  0  0  0
 20  7  1  0  0  0  0
 20 18  1  0  0  0  0
 21 23  2  0  0  0  0
 21 10  1  0  0  0  0
 23 22  2  0  0  0  0
 25 15  1  0  0  0  0
 25 21  1  0  0  0  0
 26 19  1  6  0  0  0
 26  8  1  0  0  0  0
 26  7  1  0  0  0  0
 27 24  2  0  0  0  0
 29 31  1  0  0  0  0
 29 30  1  0  0  0  0
 29 28  1  0  0  0  0
 31 30  1  0  0  0  0
 32 41  1  1  0  0  0
 33 40  1  0  0  0  0
 34 33  1  0  0  0  0
 35 38  1  0  0  0  0
 35 34  1  0  0  0  0
 36 35  2  0  0  0  0
 38 37  1  6  0  0  0
 38 39  1  0  0  0  0
 39 40  1  0  0  0  0
 40 32  1  1  0  0  0
 41 42  2  0  0  0  0
 44 41  1  0  0  0  0
 44 43  1  0  0  0  0
M  END
>  <MODEL>
2

>  <REMARK>
 VINA RESULT:      -8.5      2.421      6.209
  Name = 
  5 active torsions:
  status: ('A' for Active; 'I' for Inactive)
    1  A    between atoms: C_1  and  C_38
    2  A    between atoms: C_1  and  O_43
    3  A    between atoms: C_5  and  C_12
    4  A    between atoms: C_13  and  C_38
    5  A    between atoms: C_38  and  C_42
                            x       y       z     vdW  Elec       q    Type
                         _______ _______ _______ _____ _____    ______ ____

>  <TORSDO>
F 5

$$$$
=
 OpenBabel11042417073D

 44 51  0  0  1  0  0  0  0  0999 V2000
  193.4850  176.0390  146.1490 C   0  0  0  0  0  0  0  0  0  0  0  0
  191.0040  171.3360  138.1270 C   0  0  0  0  0  0  0  0  0  0  0  0
  190.4840  172.0700  140.3740 C   0  0  0  0  0  3  0  0  0  0  0  0
  192.1840  176.0290  145.7060 C   0  0  0  0  0  3  0  0  0  0  0  0
  191.4020  171.5290  139.4700 C   0  0  0  0  0  0  0  0  0  0  0  0
  188.2850  172.4320  142.2480 N   0  0  0  0  0  2  0  0  0  0  0  0
  188.9530  173.7460  142.0480 C   0  0  2  0  0  0  0  0  0  0  0  0
  189.8670  175.1880  143.7850 C   0  0  1  0  0  3  0  0  0  0  0  0
  189.6910  171.6630  137.7510 C   0  0  0  0  0  3  0  0  0  0  0  0
  194.7430  172.1180  142.7650 N   0  0  0  0  0  2  0  0  0  0  0  0
  194.7560  172.6110  144.0890 C   0  0  0  0  0  0  0  0  0  0  0  0
  190.7550  174.3740  144.6240 N   0  0  0  0  0  2  0  0  0  0  0  0
  188.7890  172.2080  138.6700 C   0  0  0  0  0  3  0  0  0  0  0  0
  191.9900  174.8380  145.1100 N   0  0  0  0  0  0  0  0  0  0  0  0
  193.4300  172.7200  144.7820 C   0  0  2  0  0  3  0  0  0  0  0  0
  195.8330  172.9370  144.6520 O   0  0  0  0  0  0  0  0  0  0  0  0
  194.1260  177.1600  146.8880 C   0  0  0  0  0  1  0  0  0  0  0  0
  189.1830  172.4260  139.9930 C   0  0  0  0  0  0  0  0  0  0  0  0
  188.1080  174.8800  142.2050 O   0  0  0  0  0  0  0  0  0  0  0  0
  188.2200  173.0630  140.9550 C   0  0  1  0  0  3  0  0  0  0  0  0
  193.4470  171.6930  142.4110 C   0  0  0  0  0  0  0  0  0  0  0  0
  192.7630  171.1880  139.9440 C   0  0  0  0  0  3  0  0  0  0  0  0
  193.1370  171.4280  141.1720 C   0  0  0  0  0  0  0  0  0  0  0  0
  194.0950  174.8770  145.8610 N   0  0  0  0  0  0  0  0  0  0  0  0
  192.1840  171.9770  143.6480 S   0  0  0  0  0  0  0  0  0  0  0  0
  188.6440  174.3810  143.3700 C   0  0  1  0  0  3  0  0  0  0  0  0
  193.1580  174.1530  145.2080 C   0  0  0  0  0  0  0  0  0  0  0  0
  193.1310  171.5430  136.6220 C   0  0  0  0  0  1  0  0  0  0  0  0
  191.9250  170.7510  137.0970 C   0  0  0  0  0  0  0  0  0  0  0  0
  192.1290  169.2620  137.1710 C   0  0  0  0  0  2  0  0  0  0  0  0
  191.3010  169.8640  136.0590 C   0  0  0  0  0  2  0  0  0  0  0  0
  189.5410  176.5590  144.3900 C   0  0  2  0  0  3  0  0  0  0  0  0
  188.3160  176.6020  146.5740 C   0  0  0  0  0  2  0  0  0  0  0  0
  186.9560  176.6820  147.2630 C   0  0  0  0  0  2  0  0  0  0  0  0
  186.2280  177.9190  146.8240 C   0  0  0  0  0  0  0  0  0  0  0  0
  185.3950  178.4890  147.6380 N   0  0  0  0  0  2  0  0  0  0  0  0
  185.1910  177.3410  144.7650 O   0  0  0  0  0  1  0  0  0  0  0  0
  186.1220  178.2010  145.3530 C   0  0  2  0  0  3  0  0  0  0  0  0
  187.4760  178.0440  144.6750 C   0  0  0  0  0  2  0  0  0  0  0  0
  188.1700  176.7220  145.0510 C   0  0  1  0  0  3  0  0  0  0  0  0
  190.0300  177.6990  143.5260 C   0  0  0  0  0  0  0  0  0  0  0  0
  190.6490  178.6660  144.0450 O   0  0  0  0  0  0  0  0  0  0  0  0
  188.5610  178.2910  141.6380 C   0  0  0  0  0  1  0  0  0  0  0  0
  189.7560  177.7340  142.1560 O   0  0  0  0  0  0  0  0  0  0  0  0
  1 17  1  0  0  0  0
  2  5  1  0  0  0  0
  4  1  2  0  0  0  0
  5 22  1  0  0  0  0
  5  3  2  0  0  0  0
  7 19  1  1  0  0  0
  7  6  1  0  0  0  0
  7 26  1  0  0  0  0
  8 32  1  1  0  0  0
  8 12  1  0  0  0  0
  9  2  2  0  0  0  0
  9 13  1  0  0  0  0
 10 11  1  0  0  0  0
 11 16  2  0  0  0  0
 11 15  1  0  0  0  0
 12 14  1  0  0  0  0
 13 18  2  0  0  0  0
 14 27  1  0  0  0  0
 14  4  1  0  0  0  0
 15 25  1  6  0  0  0
 15 27  1  0  0  0  0
 18  3  1  0  0  0  0
 20 18  1  6  0  0  0
 20  7  1  0  0  0  0
 20  6  1  0  0  0  0
 21 10  1  0  0  0  0
 21 25  1  0  0  0  0
 22 23  2  0  0  0  0
 23 21  2  0  0  0  0
 24  1  1  0  0  0  0
 26 19  1  6  0  0  0
 26  8  1  0  0  0  0
 27 24  2  0  0  0  0
 28 29  1  0  0  0  0
 29 30  1  0  0  0  0
 29  2  1  0  0  0  0
 31 29  1  0  0  0  0
 31 30  1  0  0  0  0
 32 41  1  6  0  0  0
 33 34  1  0  0  0  0
 35 34  1  0  0  0  0
 35 36  2  0  0  0  0
 38 37  1  6  0  0  0
 38 35  1  0  0  0  0
 39 40  1  0  0  0  0
 39 38  1  0  0  0  0
 40 32  1  6  0  0  0
 40 33  1  0  0  0  0
 41 42  2  0  0  0  0
 43 44  1  0  0  0  0
 44 41  1  0  0  0  0
M  END
>  <MODEL>
3

>  <REMARK>
 VINA RESULT:      -8.2      3.073      8.637
  Name = 
  5 active torsions:
  status: ('A' for Active; 'I' for Inactive)
    1  A    between atoms: C_1  and  C_38
    2  A    between atoms: C_1  and  O_43
    3  A    between atoms: C_5  and  C_12
    4  A    between atoms: C_13  and  C_38
    5  A    between atoms: C_38  and  C_42
                            x       y       z     vdW  Elec       q    Type
                         _______ _______ _______ _____ _____    ______ ____

>  <TORSDO>
F 5

$$$$
=
 OpenBabel11042417073D

 44 51  0  0  1  0  0  0  0  0999 V2000
  191.8150  175.4890  146.3800 C   0  0  0  0  0  0  0  0  0  0  0  0
  191.5910  172.1410  137.3600 C   0  0  0  0  0  0  0  0  0  0  0  0
  190.4540  172.6680  139.4300 C   0  0  0  0  0  3  0  0  0  0  0  0
  190.7260  175.7060  145.5690 C   0  0  0  0  0  3  0  0  0  0  0  0
  191.5580  172.1180  138.7740 C   0  0  0  0  0  0  0  0  0  0  0  0
  187.8160  173.1000  140.5850 N   0  0  0  0  0  2  0  0  0  0  0  0
  188.6290  174.3260  140.8010 C   0  0  2  0  0  0  0  0  0  0  0  0
  189.0720  175.4170  142.9340 C   0  0  1  0  0  3  0  0  0  0  0  0
  190.5010  172.6830  136.6600 C   0  0  0  0  0  3  0  0  0  0  0  0
  193.7180  171.8600  142.9720 N   0  0  0  0  0  2  0  0  0  0  0  0
  193.3550  172.1870  144.2980 C   0  0  0  0  0  0  0  0  0  0  0  0
  189.5700  174.3970  143.8660 N   0  0  0  0  0  2  0  0  0  0  0  0
  189.4070  173.2320  137.3370 C   0  0  0  0  0  3  0  0  0  0  0  0
  190.6230  174.6310  144.7670 N   0  0  0  0  0  0  0  0  0  0  0  0
  191.8930  172.3920  144.5660 C   0  0  2  0  0  3  0  0  0  0  0  0
  194.2230  172.2970  145.2020 O   0  0  0  0  0  0  0  0  0  0  0  0
  192.2870  176.4190  147.4410 C   0  0  0  0  0  1  0  0  0  0  0  0
  189.3790  173.2380  138.7340 C   0  0  0  0  0  0  0  0  0  0  0  0
  187.8860  175.5370  140.8680 O   0  0  0  0  0  0  0  0  0  0  0  0
  188.2230  173.8810  139.4470 C   0  0  1  0  0  3  0  0  0  0  0  0
  192.5680  171.6580  142.1830 C   0  0  0  0  0  0  0  0  0  0  0  0
  192.6600  171.5430  139.5770 C   0  0  0  0  0  3  0  0  0  0  0  0
  192.6460  171.5850  140.8830 C   0  0  0  0  0  0  0  0  0  0  0  0
  192.3760  174.2970  146.1140 N   0  0  0  0  0  0  0  0  0  0  0  0
  191.0100  171.9620  143.0090 S   0  0  0  0  0  0  0  0  0  0  0  0
  187.9760  174.8370  142.0500 C   0  0  1  0  0  3  0  0  0  0  0  0
  191.6320  173.7880  145.1060 C   0  0  0  0  0  0  0  0  0  0  0  0
  194.0770  172.2720  136.5630 C   0  0  0  0  0  1  0  0  0  0  0  0
  192.7340  171.5620  136.5790 C   0  0  0  0  0  0  0  0  0  0  0  0
  192.8060  170.0600  136.5390 C   0  0  0  0  0  2  0  0  0  0  0  0
  192.3860  170.8360  135.3110 C   0  0  0  0  0  2  0  0  0  0  0  0
  188.6980  176.7390  143.6150 C   0  0  2  0  0  3  0  0  0  0  0  0
  187.0570  176.6820  145.5060 C   0  0  0  0  0  2  0  0  0  0  0  0
  185.5900  176.7910  145.9150 C   0  0  0  0  0  2  0  0  0  0  0  0
  185.0220  178.1010  145.4540 C   0  0  0  0  0  0  0  0  0  0  0  0
  184.0670  178.6550  146.1350 N   0  0  0  0  0  2  0  0  0  0  0  0
  184.4020  177.7560  143.1860 O   0  0  0  0  0  1  0  0  0  0  0  0
  185.2300  178.5060  144.0240 C   0  0  2  0  0  3  0  0  0  0  0  0
  186.6860  178.3210  143.6180 C   0  0  0  0  0  2  0  0  0  0  0  0
  187.2290  176.9330  144.0020 C   0  0  1  0  0  3  0  0  0  0  0  0
  189.4120  177.9230  143.0050 C   0  0  0  0  0  0  0  0  0  0  0  0
  189.1380  178.2910  141.8320 O   0  0  0  0  0  0  0  0  0  0  0  0
  191.7960  178.2860  143.5130 C   0  0  0  0  0  1  0  0  0  0  0  0
  190.4250  178.5890  143.6990 O   0  0  0  0  0  0  0  0  0  0  0  0
  1 17  1  0  0  0  0
  2  5  1  0  0  0  0
  4  1  2  0  0  0  0
  5  3  2  0  0  0  0
  5 22  1  0  0  0  0
  7  6  1  6  0  0  0
  7 19  1  0  0  0  0
  7 26  1  0  0  0  0
  8 32  1  1  0  0  0
  8 12  1  0  0  0  0
  9 13  1  0  0  0  0
  9  2  2  0  0  0  0
 10 11  1  0  0  0  0
 11 15  1  0  0  0  0
 11 16  2  0  0  0  0
 12 14  1  0  0  0  0
 13 18  2  0  0  0  0
 14 27  1  0  0  0  0
 14  4  1  0  0  0  0
 15 25  1  6  0  0  0
 15 27  1  0  0  0  0
 18  3  1  0  0  0  0
 20 18  1  6  0  0  0
 20  6  1  0  0  0  0
 20  7  1  0  0  0  0
 21 10  1  0  0  0  0
 21 25  1  0  0  0  0
 22 23  2  0  0  0  0
 23 21  2  0  0  0  0
 24  1  1  0  0  0  0
 26 19  1  6  0  0  0
 26  8  1  0  0  0  0
 27 24  2  0  0  0  0
 28 29  1  0  0  0  0
 29  2  1  0  0  0  0
 30 29  1  0  0  0  0
 31 30  1  0  0  0  0
 31 29  1  0  0  0  0
 32 41  1  6  0  0  0
 33 34  1  0  0  0  0
 35 34  1  0  0  0  0
 35 36  2  0  0  0  0
 38 37  1  6  0  0  0
 38 35  1  0  0  0  0
 39 40  1  0  0  0  0
 39 38  1  0  0  0  0
 40 32  1  1  0  0  0
 40 33  1  0  0  0  0
 41 44  1  0  0  0  0
 42 41  2  0  0  0  0
 43 44  1  0  0  0  0
M  END
>  <MODEL>
4

>  <REMARK>
 VINA RESULT:      -8.2      2.932      9.008
  Name = 
  5 active torsions:
  status: ('A' for Active; 'I' for Inactive)
    1  A    between atoms: C_1  and  C_38
    2  A    between atoms: C_1  and  O_43
    3  A    between atoms: C_5  and  C_12
    4  A    between atoms: C_13  and  C_38
    5  A    between atoms: C_38  and  C_42
                            x       y       z     vdW  Elec       q    Type
                         _______ _______ _______ _____ _____    ______ ____

>  <TORSDO>
F 5

$$$$
=
 OpenBabel11042417073D

 44 51  0  0  1  0  0  0  0  0999 V2000
  195.3720  172.7340  143.2560 C   0  0  0  0  0  0  0  0  0  0  0  0
  186.9350  177.0900  144.8260 C   0  0  0  0  0  0  0  0  0  0  0  0
  188.5730  176.1810  143.2940 C   0  0  0  0  0  3  0  0  0  0  0  0
  194.2840  172.4840  142.4550 C   0  0  0  0  0  3  0  0  0  0  0  0
  188.2850  176.9380  144.4330 C   0  0  0  0  0  0  0  0  0  0  0  0
  188.9380  175.2910  140.5460 N   0  0  0  0  0  2  0  0  0  0  0  0
  189.2610  174.1580  141.4530 C   0  0  2  0  0  0  0  0  0  0  0  0
  191.3350  172.8810  141.5000 C   0  0  1  0  0  3  0  0  0  0  0  0
  185.9260  176.5050  144.0440 C   0  0  0  0  0  3  0  0  0  0  0  0
  192.9140  176.9540  145.3930 N   0  0  0  0  0  2  0  0  0  0  0  0
  194.0620  176.4280  144.7580 C   0  0  0  0  0  0  0  0  0  0  0  0
  192.4480  173.8350  141.5850 N   0  0  0  0  0  2  0  0  0  0  0  0
  186.2360  175.7480  142.9100 C   0  0  0  0  0  3  0  0  0  0  0  0
  193.5760  173.6260  142.3980 N   0  0  0  0  0  0  0  0  0  0  0  0
  193.9110  176.0130  143.3250 C   0  0  2  0  0  3  0  0  0  0  0  0
  195.1540  176.3180  145.3750 O   0  0  0  0  0  0  0  0  0  0  0  0
  196.4390  171.7500  143.5780 C   0  0  0  0  0  1  0  0  0  0  0  0
  187.5690  175.5700  142.5300 C   0  0  0  0  0  0  0  0  0  0  0  0
  189.0250  172.8650  140.9080 O   0  0  0  0  0  0  0  0  0  0  0  0
  187.8890  174.7080  141.3410 C   0  0  1  0  0  3  0  0  0  0  0  0
  191.8660  177.1060  144.4640 C   0  0  0  0  0  0  0  0  0  0  0  0
  189.3990  177.5440  145.1960 C   0  0  0  0  0  3  0  0  0  0  0  0
  190.6450  177.3440  144.8570 C   0  0  0  0  0  0  0  0  0  0  0  0
  195.3670  174.0100  143.6800 N   0  0  0  0  0  0  0  0  0  0  0  0
  192.2160  176.5150  142.8110 S   0  0  0  0  0  0  0  0  0  0  0  0
  190.2420  173.4240  140.5900 C   0  0  1  0  0  3  0  0  0  0  0  0
  194.2420  174.5400  143.1490 C   0  0  0  0  0  0  0  0  0  0  0  0
  185.9780  179.2950  145.8520 C   0  0  0  0  0  1  0  0  0  0  0  0
  186.5400  177.8950  146.0300 C   0  0  0  0  0  0  0  0  0  0  0  0
  185.9600  177.1160  147.1780 C   0  0  0  0  0  2  0  0  0  0  0  0
  187.3540  177.6930  147.2750 C   0  0  0  0  0  2  0  0  0  0  0  0
  191.7790  171.4510  141.1680 C   0  0  2  0  0  3  0  0  0  0  0  0
  190.4410  170.2870  139.3990 C   0  0  0  0  0  2  0  0  0  0  0  0
  190.4100  169.7880  137.9570 C   0  0  0  0  0  2  0  0  0  0  0  0
  190.6820  170.9220  137.0120 C   0  0  0  0  0  0  0  0  0  0  0  0
  190.1610  170.9000  135.8260 N   0  0  0  0  0  2  0  0  0  0  0  0
  193.0490  171.1210  136.9310 O   0  0  0  0  0  1  0  0  0  0  0  0
  191.8750  171.7970  137.2710 C   0  0  2  0  0  3  0  0  0  0  0  0
  191.9240  172.2220  138.7320 C   0  0  0  0  0  2  0  0  0  0  0  0
  191.7490  171.0350  139.6950 C   0  0  1  0  0  3  0  0  0  0  0  0
  191.2770  170.4450  142.1790 C   0  0  0  0  0  0  0  0  0  0  0  0
  190.3040  170.7310  142.9250 O   0  0  0  0  0  0  0  0  0  0  0  0
  192.6930  168.9130  143.4920 C   0  0  0  0  0  1  0  0  0  0  0  0
  191.9140  169.2130  142.3460 O   0  0  0  0  0  0  0  0  0  0  0  0
  1 17  1  0  0  0  0
  1 24  1  0  0  0  0
  2 29  1  0  0  0  0
  3  5  2  0  0  0  0
  4  1  2  0  0  0  0
  5  2  1  0  0  0  0
  5 22  1  0  0  0  0
  7  6  1  6  0  0  0
  8 32  1  6  0  0  0
  8 12  1  0  0  0  0
  9  2  2  0  0  0  0
 11 16  2  0  0  0  0
 11 10  1  0  0  0  0
 12 14  1  0  0  0  0
 13  9  1  0  0  0  0
 14  4  1  0  0  0  0
 14 27  1  0  0  0  0
 15 25  1  1  0  0  0
 15 11  1  0  0  0  0
 18 13  2  0  0  0  0
 18  3  1  0  0  0  0
 19  7  1  0  0  0  0
 20  6  1  6  0  0  0
 20  7  1  0  0  0  0
 20 18  1  0  0  0  0
 21 23  2  0  0  0  0
 21 10  1  0  0  0  0
 23 22  2  0  0  0  0
 25 21  1  0  0  0  0
 26 19  1  1  0  0  0
 26  7  1  0  0  0  0
 26  8  1  0  0  0  0
 27 15  1  0  0  0  0
 27 24  2  0  0  0  0
 28 29  1  0  0  0  0
 29 30  1  0  0  0  0
 29 31  1  0  0  0  0
 30 31  1  0  0  0  0
 32 41  1  1  0  0  0
 33 40  1  0  0  0  0
 34 33  1  0  0  0  0
 35 38  1  0  0  0  0
 35 34  1  0  0  0  0
 36 35  2  0  0  0  0
 38 37  1  1  0  0  0
 38 39  1  0  0  0  0
 39 40  1  0  0  0  0
 40 32  1  1  0  0  0
 41 44  1  0  0  0  0
 41 42  2  0  0  0  0
 44 43  1  0  0  0  0
M  END
>  <MODEL>
5

>  <REMARK>
 VINA RESULT:      -6.7      2.758      6.079
  Name = 
  5 active torsions:
  status: ('A' for Active; 'I' for Inactive)
    1  A    between atoms: C_1  and  C_38
    2  A    between atoms: C_1  and  O_43
    3  A    between atoms: C_5  and  C_12
    4  A    between atoms: C_13  and  C_38
    5  A    between atoms: C_38  and  C_42
                            x       y       z     vdW  Elec       q    Type
                         _______ _______ _______ _____ _____    ______ ____

>  <TORSDO>
F 5

$$$$
=
 OpenBabel11042417073D

 44 51  0  0  1  0  0  0  0  0999 V2000
  193.1230  171.9640  138.5550 C   0  0  0  0  0  0  0  0  0  0  0  0
  187.3740  177.4850  143.9480 C   0  0  0  0  0  0  0  0  0  0  0  0
  189.1000  175.7980  143.7730 C   0  0  0  0  0  3  0  0  0  0  0  0
  193.5500  172.4700  139.7590 C   0  0  0  0  0  3  0  0  0  0  0  0
  187.8780  176.3140  143.3350 C   0  0  0  0  0  0  0  0  0  0  0  0
  191.1780  174.4360  145.2910 N   0  0  0  0  0  2  0  0  0  0  0  0
  191.8120  175.1070  144.1250 C   0  0  2  0  0  0  0  0  0  0  0  0
  193.2110  174.0550  142.4300 C   0  0  1  0  0  3  0  0  0  0  0  0
  188.0980  178.0710  144.9990 C   0  0  0  0  0  3  0  0  0  0  0  0
  188.0910  173.2940  139.7030 N   0  0  0  0  0  2  0  0  0  0  0  0
  189.0050  172.2980  139.2920 C   0  0  0  0  0  0  0  0  0  0  0  0
  192.4920  172.8820  141.9180 N   0  0  0  0  0  2  0  0  0  0  0  0
  189.3220  177.5410  145.4190 C   0  0  0  0  0  3  0  0  0  0  0  0
  192.4690  172.5320  140.5570 N   0  0  0  0  0  0  0  0  0  0  0  0
  189.9960  171.8280  140.3140 C   0  0  2  0  0  3  0  0  0  0  0  0
  188.9790  171.8340  138.1220 O   0  0  0  0  0  0  0  0  0  0  0  0
  193.9970  171.7060  137.3790 C   0  0  0  0  0  1  0  0  0  0  0  0
  189.8400  176.4010  144.8000 C   0  0  0  0  0  0  0  0  0  0  0  0
  193.1630  175.5070  144.3220 O   0  0  0  0  0  0  0  0  0  0  0  0
  191.1820  175.8750  145.2250 C   0  0  1  0  0  3  0  0  0  0  0  0
  188.2270  173.5470  141.0820 C   0  0  0  0  0  0  0  0  0  0  0  0
  187.1590  175.6300  142.2370 C   0  0  0  0  0  3  0  0  0  0  0  0
  187.6660  174.5850  141.6380 C   0  0  0  0  0  0  0  0  0  0  0  0
  191.8070  171.6910  138.5940 N   0  0  0  0  0  0  0  0  0  0  0  0
  189.5450  172.6510  141.8980 S   0  0  0  0  0  0  0  0  0  0  0  0
  192.9890  174.1990  143.9300 C   0  0  1  0  0  3  0  0  0  0  0  0
  191.4200  172.0600  139.8360 C   0  0  0  0  0  0  0  0  0  0  0  0
  185.7940  178.4120  142.0830 C   0  0  0  0  0  1  0  0  0  0  0  0
  186.0640  178.0970  143.5440 C   0  0  0  0  0  0  0  0  0  0  0  0
  184.8630  177.6550  144.3340 C   0  0  0  0  0  2  0  0  0  0  0  0
  185.4310  179.0430  144.5230 C   0  0  0  0  0  2  0  0  0  0  0  0
  194.6840  174.1040  142.0050 C   0  0  2  0  0  3  0  0  0  0  0  0
  196.2740  174.9200  143.7590 C   0  0  0  0  0  2  0  0  0  0  0  0
  197.3730  174.5410  144.7480 C   0  0  0  0  0  2  0  0  0  0  0  0
  196.8800  173.4750  145.6840 C   0  0  0  0  0  0  0  0  0  0  0  0
  197.3570  173.4160  146.8870 N   0  0  0  0  0  2  0  0  0  0  0  0
  197.1740  171.4270  144.5150 O   0  0  0  0  0  1  0  0  0  0  0  0
  196.2180  172.2620  145.0980 C   0  0  2  0  0  3  0  0  0  0  0  0
  195.1770  172.6630  144.0610 C   0  0  0  0  0  2  0  0  0  0  0  0
  195.7250  173.6780  143.0430 C   0  0  1  0  0  3  0  0  0  0  0  0
  195.0000  175.3260  141.1710 C   0  0  0  0  0  0  0  0  0  0  0  0
  194.4130  176.4160  141.3990 O   0  0  0  0  0  0  0  0  0  0  0  0
  197.2480  175.6650  140.2200 C   0  0  0  0  0  1  0  0  0  0  0  0
  195.8970  175.2550  140.1030 O   0  0  0  0  0  0  0  0  0  0  0  0
  1 24  1  0  0  0  0
  1  4  2  0  0  0  0
  2  9  1  0  0  0  0
  3 18  2  0  0  0  0
  4 14  1  0  0  0  0
  5  3  1  0  0  0  0
  5  2  2  0  0  0  0
  7 19  1  1  0  0  0
  7 20  1  0  0  0  0
  7  6  1  0  0  0  0
  8 32  1  1  0  0  0
  8 26  1  0  0  0  0
  9 13  2  0  0  0  0
 10 21  1  0  0  0  0
 11 10  1  0  0  0  0
 12  8  1  0  0  0  0
 14 12  1  0  0  0  0
 15 11  1  6  0  0  0
 15 25  1  0  0  0  0
 16 11  2  0  0  0  0
 17  1  1  0  0  0  0
 18 13  1  0  0  0  0
 20 18  1  6  0  0  0
 20  6  1  0  0  0  0
 21 23  2  0  0  0  0
 21 25  1  0  0  0  0
 22  5  1  0  0  0  0
 23 22  2  0  0  0  0
 24 27  2  0  0  0  0
 26  7  1  0  0  0  0
 26 19  1  1  0  0  0
 27 15  1  0  0  0  0
 27 14  1  0  0  0  0
 28 29  1  0  0  0  0
 29  2  1  0  0  0  0
 29 30  1  0  0  0  0
 29 31  1  0  0  0  0
 30 31  1  0  0  0  0
 32 41  1  1  0  0  0
 33 34  1  0  0  0  0
 34 35  1  0  0  0  0
 35 36  2  0  0  0  0
 38 37  1  6  0  0  0
 38 35  1  0  0  0  0
 39 38  1  0  0  0  0
 40 32  1  6  0  0  0
 40 33  1  0  0  0  0
 40 39  1  0  0  0  0
 41 42  2  0  0  0  0
 44 43  1  0  0  0  0
 44 41  1  0  0  0  0
M  END
>  <MODEL>
6

>  <REMARK>
 VINA RESULT:      -6.6      1.618      2.045
  Name = 
  5 active torsions:
  status: ('A' for Active; 'I' for Inactive)
    1  A    between atoms: C_1  and  C_38
    2  A    between atoms: C_1  and  O_43
    3  A    between atoms: C_5  and  C_12
    4  A    between atoms: C_13  and  C_38
    5  A    between atoms: C_38  and  C_42
                            x       y       z     vdW  Elec       q    Type
                         _______ _______ _______ _____ _____    ______ ____

>  <TORSDO>
F 5

$$$$
=
 OpenBabel11042417073D

 44 51  0  0  1  0  0  0  0  0999 V2000
  193.5570  171.3980  140.1210 C   0  0  0  0  0  0  0  0  0  0  0  0
  187.3900  177.5650  144.1910 C   0  0  0  0  0  0  0  0  0  0  0  0
  188.9510  175.7260  144.3840 C   0  0  0  0  0  3  0  0  0  0  0  0
  193.7810  171.8990  141.3810 C   0  0  0  0  0  3  0  0  0  0  0  0
  187.8940  176.3370  143.7040 C   0  0  0  0  0  0  0  0  0  0  0  0
  190.5470  174.2280  146.3030 N   0  0  0  0  0  2  0  0  0  0  0  0
  191.4620  174.8050  145.2810 C   0  0  2  0  0  0  0  0  0  0  0  0
  193.0660  173.5840  143.9140 C   0  0  1  0  0  3  0  0  0  0  0  0
  187.9410  178.1140  145.3590 C   0  0  0  0  0  3  0  0  0  0  0  0
  188.5440  173.2070  140.2190 N   0  0  0  0  0  2  0  0  0  0  0  0
  189.4240  172.1220  140.0100 C   0  0  0  0  0  0  0  0  0  0  0  0
  192.3560  172.4660  143.2790 N   0  0  0  0  0  2  0  0  0  0  0  0
  189.0020  177.4890  146.0230 C   0  0  0  0  0  3  0  0  0  0  0  0
  192.5730  172.0800  141.9440 N   0  0  0  0  0  0  0  0  0  0  0  0
  190.1440  171.5940  141.2160 C   0  0  2  0  0  3  0  0  0  0  0  0
  189.5890  171.6280  138.8650 O   0  0  0  0  0  0  0  0  0  0  0  0
  194.6190  171.0300  139.1480 C   0  0  0  0  0  1  0  0  0  0  0  0
  189.5240  176.2890  145.5320 C   0  0  0  0  0  0  0  0  0  0  0  0
  192.7770  175.0880  145.7420 O   0  0  0  0  0  0  0  0  0  0  0  0
  190.6990  175.6570  146.2240 C   0  0  1  0  0  3  0  0  0  0  0  0
  188.4250  173.4860  141.5950 C   0  0  0  0  0  0  0  0  0  0  0  0
  187.3480  175.6890  142.4910 C   0  0  0  0  0  3  0  0  0  0  0  0
  187.8640  174.5860  142.0160 C   0  0  0  0  0  0  0  0  0  0  0  0
  192.2400  171.2460  139.8970 N   0  0  0  0  0  0  0  0  0  0  0  0
  189.4640  172.4990  142.6680 S   0  0  0  0  0  0  0  0  0  0  0  0
  192.5630  173.7900  145.3360 C   0  0  1  0  0  3  0  0  0  0  0  0
  191.6490  171.6840  141.0320 C   0  0  0  0  0  0  0  0  0  0  0  0
  186.3380  178.6390  142.0520 C   0  0  0  0  0  1  0  0  0  0  0  0
  186.2500  178.2800  143.5260 C   0  0  0  0  0  0  0  0  0  0  0  0
  184.8750  177.9150  144.0120 C   0  0  0  0  0  2  0  0  0  0  0  0
  185.4800  179.2540  144.3700 C   0  0  0  0  0  2  0  0  0  0  0  0
  194.5910  173.4890  143.7920 C   0  0  2  0  0  3  0  0  0  0  0  0
  194.7640  175.2080  141.9810 C   0  0  0  0  0  2  0  0  0  0  0  0
  195.2930  175.5310  140.5850 C   0  0  0  0  0  2  0  0  0  0  0  0
  196.7790  175.3230  140.5370 C   0  0  0  0  0  0  0  0  0  0  0  0
  197.4950  176.0400  139.7280 N   0  0  0  0  0  2  0  0  0  0  0  0
  197.0780  172.9970  140.1530 O   0  0  0  0  0  1  0  0  0  0  0  0
  197.3370  174.0300  141.0570 C   0  0  2  0  0  3  0  0  0  0  0  0
  196.7390  173.6930  142.4160 C   0  0  0  0  0  2  0  0  0  0  0  0
  195.2050  173.8080  142.4270 C   0  0  1  0  0  3  0  0  0  0  0  0
  195.1540  172.3010  144.5400 C   0  0  0  0  0  0  0  0  0  0  0  0
  194.9890  171.1360  144.0920 O   0  0  0  0  0  0  0  0  0  0  0  0
  196.4800  173.6640  146.1080 C   0  0  0  0  0  1  0  0  0  0  0  0
  195.8090  172.4640  145.7630 O   0  0  0  0  0  0  0  0  0  0  0  0
  1  4  2  0  0  0  0
  2  9  1  0  0  0  0
  3 18  2  0  0  0  0
  4 14  1  0  0  0  0
  5  2  2  0  0  0  0
  5  3  1  0  0  0  0
  7 26  1  0  0  0  0
  7 19  1  1  0  0  0
  7 20  1  0  0  0  0
  7  6  1  0  0  0  0
  8 32  1  1  0  0  0
  8 26  1  0  0  0  0
  9 13  2  0  0  0  0
 10 21  1  0  0  0  0
 11 10  1  0  0  0  0
 12  8  1  0  0  0  0
 14 12  1  0  0  0  0
 15 11  1  6  0  0  0
 15 25  1  0  0  0  0
 16 11  2  0  0  0  0
 17  1  1  0  0  0  0
 18 13  1  0  0  0  0
 20 18  1  6  0  0  0
 20  6  1  0  0  0  0
 21 23  2  0  0  0  0
 21 25  1  0  0  0  0
 22  5  1  0  0  0  0
 23 22  2  0  0  0  0
 24  1  1  0  0  0  0
 24 27  2  0  0  0  0
 26 19  1  1  0  0  0
 27 15  1  0  0  0  0
 27 14  1  0  0  0  0
 28 29  1  0  0  0  0
 29 30  1  0  0  0  0
 29  2  1  0  0  0  0
 29 31  1  0  0  0  0
 30 31  1  0  0  0  0
 32 41  1  6  0  0  0
 33 40  1  0  0  0  0
 34 33  1  0  0  0  0
 35 34  1  0  0  0  0
 35 38  1  0  0  0  0
 36 35  2  0  0  0  0
 38 37  1  6  0  0  0
 38 39  1  0  0  0  0
 39 40  1  0  0  0  0
 40 32  1  1  0  0  0
 41 44  1  0  0  0  0
 42 41  2  0  0  0  0
 44 43  1  0  0  0  0
M  END
>  <MODEL>
7

>  <REMARK>
 VINA RESULT:      -6.5      2.006      3.084
  Name = 
  5 active torsions:
  status: ('A' for Active; 'I' for Inactive)
    1  A    between atoms: C_1  and  C_38
    2  A    between atoms: C_1  and  O_43
    3  A    between atoms: C_5  and  C_12
    4  A    between atoms: C_13  and  C_38
    5  A    between atoms: C_38  and  C_42
                            x       y       z     vdW  Elec       q    Type
                         _______ _______ _______ _____ _____    ______ ____

>  <TORSDO>
F 5

$$$$
