=
 OpenBabel11042417493D

 57 63  0  0  1  0  0  0  0  0999 V2000
  191.6870  176.4320  144.2840 C   0  0  0  0  0  2  0  0  0  0  0  0
  195.2170  170.7230  145.8280 C   0  0  0  0  0  0  0  0  0  0  0  0
  193.9480  176.9740  145.2270 C   0  0  0  0  0  2  0  0  0  0  0  0
  194.2710  171.7410  145.3040 C   0  0  1  0  0  3  0  0  0  0  0  0
  192.4810  174.4160  146.2040 C   0  0  0  0  0  2  0  0  0  0  0  0
  190.6920  175.6070  145.0720 C   0  0  0  0  0  0  0  0  0  0  0  0
  189.2930  175.7810  144.8380 N   0  0  0  0  0  2  0  0  0  0  0  0
  196.5640  172.5890  145.7720 C   0  0  1  0  0  3  0  0  0  0  0  0
  191.0780  174.6850  145.9030 N   0  0  0  0  0  0  0  0  0  0  0  0
  195.0000  169.4490  145.7240 N   0  0  0  0  0  0  0  0  0  0  0  0
  195.1790  172.9460  145.2810 C   0  0  0  0  0  0  0  0  0  0  0  0
  195.6600  175.2630  145.4730 O   0  0  0  0  0  0  0  0  0  0  0  0
  193.7480  171.2260  143.9490 C   0  0  1  0  0  3  0  0  0  0  0  0
  193.2430  169.8130  144.1220 C   0  0  0  0  0  3  0  0  0  0  0  0
  194.7560  174.2220  145.2020 C   0  0  0  0  0  0  0  0  0  0  0  0
  196.4240  171.2540  146.2400 O   0  0  0  0  0  0  0  0  0  0  0  0
  195.4210  176.6210  145.1040 C   0  0  0  0  0  2  0  0  0  0  0  0
  193.8730  168.9810  144.9630 C   0  0  0  0  0  3  0  0  0  0  0  0
  193.3090  174.5550  144.9330 C   0  0  2  0  0  3  0  0  0  0  0  0
  193.1520  175.9820  144.3890 C   0  0  1  0  0  3  0  0  0  0  0  0
  192.6120  172.0750  143.4140 C   0  0  0  0  0  1  0  0  0  0  0  0
  197.5630  172.5830  144.6150 C   0  0  0  0  0  2  0  0  0  0  0  0
  196.9040  172.7840  143.2600 C   0  0  0  0  0  2  0  0  0  0  0  0
  197.4130  174.0520  142.6030 C   0  0  0  0  0  2  0  0  0  0  0  0
  197.2690  173.9280  141.0970 C   0  0  0  0  0  2  0  0  0  0  0  0
  195.9870  174.6100  140.6510 C   0  0  0  0  0  2  0  0  0  0  0  0
  193.0150  173.3180  139.1620 C   0  0  1  0  0  3  0  0  0  0  0  0
  194.8870  172.4700  140.1000 C   0  0  0  0  0  2  0  0  0  0  0  0
  195.3130  173.8050  139.5530 C   0  0  1  0  0  3  0  0  0  0  0  0
  194.0180  174.4510  139.1680 C   0  0  1  0  0  3  0  0  0  0  0  0
  194.1480  175.1690  137.5040 S   0  0  0  0  0  1  0  0  0  0  0  0
  193.6500  172.1190  139.5330 O   0  0  0  0  0  0  0  0  0  0  0  0
  191.8870  173.6370  140.1290 C   0  0  0  0  0  2  0  0  0  0  0  0
  188.1830  173.4480  139.7320 C   0  0  0  0  0  2  0  0  0  0  0  0
  190.5640  173.5760  138.2250 C   0  0  0  0  0  2  0  0  0  0  0  0
  189.2050  173.2470  137.6160 C   0  0  0  0  0  2  0  0  0  0  0  0
  188.1650  173.9450  138.3600 N   0  0  0  0  0  2  0  0  0  0  0  0
  189.5300  173.7530  140.3890 C   0  0  2  0  0  3  0  0  0  0  0  0
  190.6220  173.1290  139.6180 N   0  0  0  0  0  0  0  0  0  0  0  0
  188.2170  172.6490  142.0560 O   0  0  0  0  0  1  0  0  0  0  0  0
  189.4770  173.1860  141.8030 C   0  0  0  0  0  2  0  0  0  0  0  0
  188.7870  176.8130  143.9550 C   0  0  0  0  0  2  0  0  0  0  0  0
  187.8490  176.1940  142.9340 C   0  0  0  0  0  2  0  0  0  0  0  0
  188.6450  178.2150  141.8140 N   0  0  0  0  0  1  0  0  0  0  0  0
  187.6430  177.1580  141.7770 C   0  0  2  0  0  3  0  0  0  0  0  0
  186.2270  177.7340  141.8020 C   0  0  2  0  0  3  0  0  0  0  0  0
  186.3660  177.2520  139.3310 N   0  0  0  0  0  1  0  0  0  0  0  0
  184.5540  178.3970  140.2170 O   0  0  0  0  0  0  0  0  0  0  0  0
  185.6530  177.8190  140.4230 C   0  0  0  0  0  0  0  0  0  0  0  0
  186.1940  178.9880  142.4350 O   0  0  0  0  0  0  0  0  0  0  0  0
  185.2520  178.8850  143.3550 O   0  0  0  0  0  0  0  0  0  0  0  0
  185.8920  179.1970  144.5600 C   0  0  0  0  0  2  0  0  0  0  0  0
  185.7320  179.1150  146.8920 C   0  0  0  0  0  2  0  0  0  0  0  0
  185.8860  177.9710  147.8600 C   0  0  0  0  0  2  0  0  0  0  0  0
  185.5200  177.1500  145.6460 C   0  0  0  0  0  2  0  0  0  0  0  0
  185.1790  178.5700  145.6620 N   0  0  0  0  0  0  0  0  0  0  0  0
  186.1560  176.7900  146.9740 C   0  0  0  0  0  2  0  0  0  0  0  0
  1  6  1  0  0  0  0
  2 16  1  0  0  0  0
  4 11  1  6  0  0  0
  4  2  1  0  0  0  0
  6  9  2  0  0  0  0
  7  6  1  0  0  0  0
  8 22  1  6  0  0  0
  8 16  1  0  0  0  0
  9  5  1  0  0  0  0
 10  2  2  0  0  0  0
 11  8  1  0  0  0  0
 13 21  1  1  0  0  0
 13 14  1  0  0  0  0
 13  4  1  0  0  0  0
 14 18  2  0  0  0  0
 15 11  2  0  0  0  0
 15 12  1  0  0  0  0
 17  3  1  0  0  0  0
 17 12  1  0  0  0  0
 18 10  1  0  0  0  0
 19 15  1  0  0  0  0
 19  5  1  1  0  0  0
 20  1  1  1  0  0  0
 20 19  1  0  0  0  0
 20  3  1  0  0  0  0
 23 22  1  0  0  0  0
 24 23  1  0  0  0  0
 25 24  1  0  0  0  0
 26 25  1  0  0  0  0
 27 30  1  0  0  0  0
 27 32  1  0  0  0  0
 27 33  1  1  0  0  0
 29 28  1  0  0  0  0
 29 26  1  1  0  0  0
 30 31  1  6  0  0  0
 30 29  1  0  0  0  0
 32 28  1  0  0  0  0
 34 38  1  0  0  0  0
 35 39  1  0  0  0  0
 36 35  1  0  0  0  0
 36 37  1  0  0  0  0
 37 34  1  0  0  0  0
 38 41  1  1  0  0  0
 39 33  1  0  0  0  0
 39 38  1  0  0  0  0
 41 40  1  0  0  0  0
 42  7  1  0  0  0  0
 43 42  1  0  0  0  0
 45 46  1  0  0  0  0
 45 44  1  1  0  0  0
 45 43  1  0  0  0  0
 46 49  1  6  0  0  0
 46 50  1  0  0  0  0
 47 49  1  0  0  0  0
 48 49  2  0  0  0  0
 50 51  1  0  0  0  0
 51 52  1  0  0  0  0
 52 56  1  0  0  0  0
 53 54  1  0  0  0  0
 55 56  1  0  0  0  0
 55 57  1  0  0  0  0
 56 53  1  0  0  0  0
 57 54  1  0  0  0  0
M  END
>  <MODEL>
1

>  <REMARK>
 VINA RESULT:      -7.2      0.000      0.000
  Name = 
  18 active torsions:
  status: ('A' for Active; 'I' for Inactive)
    1  A    between atoms: C_6  and  C_28
    2  A    between atoms: C_10  and  C_14
    3  A    between atoms: C_10  and  C_24
    4  A    between atoms: C_12  and  C_18
    5  A    between atoms: C_12  and  C_20
    6  A    between atoms: C_14  and  C_53
    7  A    between atoms: O_15  and  O_19
    8  A    between atoms: O_15  and  C_23
    9  A    between atoms: C_18  and  C_23
   10  A    between atoms: O_19  and  C_42
   11  A    between atoms: C_20  and  N_30
   12  A    between atoms: C_22  and  C_57
   13  A    between atoms: C_23  and  C_56
   14  A    between atoms: C_24  and  C_57
   15  A    between atoms: C_28  and  N_38
   16  A    between atoms: C_31  and  C_53
   17  A    between atoms: C_35  and  C_41
   18  A    between atoms: C_42  and  N_49
                            x       y       z     vdW  Elec       q    Type
                         _______ _______ _______ _____ _____    ______ ____

>  <TORSDO>
F 18

$$$$
=
 OpenBabel11042417493D

 57 63  0  0  1  0  0  0  0  0999 V2000
  189.3890  173.9930  141.6710 C   0  0  0  0  0  2  0  0  0  0  0  0
  192.0210  170.4600  136.3770 C   0  0  0  0  0  0  0  0  0  0  0  0
  189.7840  171.5900  142.2740 C   0  0  0  0  0  2  0  0  0  0  0  0
  191.5620  171.4920  137.3410 C   0  0  1  0  0  3  0  0  0  0  0  0
  189.0170  172.3040  139.3490 C   0  0  0  0  0  2  0  0  0  0  0  0
  188.4860  174.3680  140.5160 C   0  0  0  0  0  0  0  0  0  0  0  0
  187.8150  175.6300  140.5290 N   0  0  0  0  0  2  0  0  0  0  0  0
  192.2390  169.3300  138.3700 C   0  0  1  0  0  3  0  0  0  0  0  0
  188.3640  173.6050  139.4710 N   0  0  0  0  0  0  0  0  0  0  0  0
  192.3800  170.7480  135.1640 N   0  0  0  0  0  0  0  0  0  0  0  0
  191.7130  170.7240  138.6310 C   0  0  0  0  0  0  0  0  0  0  0  0
  191.1090  170.1290  140.8480 O   0  0  0  0  0  0  0  0  0  0  0  0
  192.4580  172.7310  137.1490 C   0  0  1  0  0  3  0  0  0  0  0  0
  192.4860  173.0950  135.6830 C   0  0  0  0  0  3  0  0  0  0  0  0
  191.1310  171.0610  139.7970 C   0  0  0  0  0  0  0  0  0  0  0  0
  192.2250  169.2220  136.9530 O   0  0  0  0  0  0  0  0  0  0  0  0
  190.8250  170.4850  142.2010 C   0  0  0  0  0  2  0  0  0  0  0  0
  192.4660  172.1250  134.7580 C   0  0  0  0  0  3  0  0  0  0  0  0
  190.4090  172.3750  139.9630 C   0  0  2  0  0  3  0  0  0  0  0  0
  190.2830  172.7650  141.4430 C   0  0  1  0  0  3  0  0  0  0  0  0
  191.9510  173.9300  137.9260 C   0  0  0  0  0  1  0  0  0  0  0  0
  193.6880  169.2010  138.8420 C   0  0  0  0  0  2  0  0  0  0  0  0
  194.5040  170.4610  138.6040 C   0  0  0  0  0  2  0  0  0  0  0  0
  195.3440  170.7890  139.8220 C   0  0  0  0  0  2  0  0  0  0  0  0
  194.4320  171.1840  140.9680 C   0  0  0  0  0  2  0  0  0  0  0  0
  194.1530  172.6760  140.9050 C   0  0  0  0  0  2  0  0  0  0  0  0
  193.6900  174.6810  143.8180 C   0  0  1  0  0  3  0  0  0  0  0  0
  194.8060  174.8570  141.8610 C   0  0  0  0  0  2  0  0  0  0  0  0
  194.7340  173.3770  142.1220 C   0  0  1  0  0  3  0  0  0  0  0  0
  193.7840  173.2730  143.2730 C   0  0  1  0  0  3  0  0  0  0  0  0
  194.4600  172.1640  144.5440 S   0  0  0  0  0  1  0  0  0  0  0  0
  194.4900  175.5440  143.0450 O   0  0  0  0  0  0  0  0  0  0  0  0
  192.2410  175.1400  143.7870 C   0  0  0  0  0  2  0  0  0  0  0  0
  190.1220  177.1390  146.1160 C   0  0  0  0  0  2  0  0  0  0  0  0
  192.0200  175.0530  146.0940 C   0  0  0  0  0  2  0  0  0  0  0  0
  191.5680  175.7590  147.3680 C   0  0  0  0  0  2  0  0  0  0  0  0
  190.1820  176.1820  147.2150 N   0  0  0  0  0  2  0  0  0  0  0  0
  190.5700  176.4790  144.8110 C   0  0  2  0  0  3  0  0  0  0  0  0
  191.9450  175.9640  144.9500 N   0  0  0  0  0  0  0  0  0  0  0  0
  191.5130  178.4820  143.9080 O   0  0  0  0  0  1  0  0  0  0  0  0
  190.5010  177.5440  143.7230 C   0  0  0  0  0  2  0  0  0  0  0  0
  187.8730  176.5160  141.6750 C   0  0  0  0  0  2  0  0  0  0  0  0
  186.5060  176.5890  142.3310 C   0  0  0  0  0  2  0  0  0  0  0  0
  186.5790  179.0240  142.5340 N   0  0  0  0  0  1  0  0  0  0  0  0
  185.8350  177.9050  141.9720 C   0  0  2  0  0  3  0  0  0  0  0  0
  184.3800  177.9120  142.4430 C   0  0  2  0  0  3  0  0  0  0  0  0
  182.0450  178.2260  141.5410 N   0  0  0  0  0  1  0  0  0  0  0  0
  183.8960  178.5190  140.1740 O   0  0  0  0  0  0  0  0  0  0  0  0
  183.4490  178.2410  141.3180 C   0  0  0  0  0  0  0  0  0  0  0  0
  184.1930  178.7960  143.5190 O   0  0  0  0  0  0  0  0  0  0  0  0
  184.2730  178.0420  144.6010 O   0  0  0  0  0  0  0  0  0  0  0  0
  184.0340  178.9170  145.6660 C   0  0  0  0  0  2  0  0  0  0  0  0
  185.6770  179.1070  147.3200 C   0  0  0  0  0  2  0  0  0  0  0  0
  186.7310  178.1400  147.7910 C   0  0  0  0  0  2  0  0  0  0  0  0
  185.0300  176.9930  146.5690 C   0  0  0  0  0  2  0  0  0  0  0  0
  184.5270  178.3230  146.8990 N   0  0  0  0  0  0  0  0  0  0  0  0
  186.4940  176.9190  146.9500 C   0  0  0  0  0  2  0  0  0  0  0  0
  2 16  1  0  0  0  0
  4  2  1  6  0  0  0
  4 11  1  0  0  0  0
  5  9  1  0  0  0  0
  6  7  1  0  0  0  0
  6  1  1  0  0  0  0
  7 42  1  0  0  0  0
  8 11  1  0  0  0  0
  8 22  1  6  0  0  0
  9  6  2  0  0  0  0
 10  2  2  0  0  0  0
 11 15  2  0  0  0  0
 12 17  1  0  0  0  0
 13  4  1  0  0  0  0
 13 21  1  1  0  0  0
 14 13  1  0  0  0  0
 15 19  1  0  0  0  0
 15 12  1  0  0  0  0
 16  8  1  0  0  0  0
 17  3  1  0  0  0  0
 18 10  1  0  0  0  0
 18 14  2  0  0  0  0
 19  5  1  1  0  0  0
 19 20  1  0  0  0  0
 20  1  1  6  0  0  0
 20  3  1  0  0  0  0
 23 22  1  0  0  0  0
 23 24  1  0  0  0  0
 24 25  1  0  0  0  0
 26 25  1  0  0  0  0
 27 33  1  6  0  0  0
 28 29  1  0  0  0  0
 28 32  1  0  0  0  0
 29 26  1  6  0  0  0
 29 30  1  0  0  0  0
 30 27  1  0  0  0  0
 30 31  1  1  0  0  0
 32 27  1  0  0  0  0
 33 39  1  0  0  0  0
 34 37  1  0  0  0  0
 35 36  1  0  0  0  0
 37 36  1  0  0  0  0
 38 41  1  6  0  0  0
 38 39  1  0  0  0  0
 38 34  1  0  0  0  0
 39 35  1  0  0  0  0
 41 40  1  0  0  0  0
 42 43  1  0  0  0  0
 45 43  1  0  0  0  0
 45 46  1  0  0  0  0
 45 44  1  1  0  0  0
 46 49  1  6  0  0  0
 46 50  1  0  0  0  0
 48 49  2  0  0  0  0
 49 47  1  0  0  0  0
 50 51  1  0  0  0  0
 51 52  1  0  0  0  0
 52 56  1  0  0  0  0
 53 54  1  0  0  0  0
 55 56  1  0  0  0  0
 55 57  1  0  0  0  0
 56 53  1  0  0  0  0
 57 54  1  0  0  0  0
M  END
>  <MODEL>
2

>  <REMARK>
 VINA RESULT:      -6.7      2.661      6.122
  Name = 
  18 active torsions:
  status: ('A' for Active; 'I' for Inactive)
    1  A    between atoms: C_6  and  C_28
    2  A    between atoms: C_10  and  C_14
    3  A    between atoms: C_10  and  C_24
    4  A    between atoms: C_12  and  C_18
    5  A    between atoms: C_12  and  C_20
    6  A    between atoms: C_14  and  C_53
    7  A    between atoms: O_15  and  O_19
    8  A    between atoms: O_15  and  C_23
    9  A    between atoms: C_18  and  C_23
   10  A    between atoms: O_19  and  C_42
   11  A    between atoms: C_20  and  N_30
   12  A    between atoms: C_22  and  C_57
   13  A    between atoms: C_23  and  C_56
   14  A    between atoms: C_24  and  C_57
   15  A    between atoms: C_28  and  N_38
   16  A    between atoms: C_31  and  C_53
   17  A    between atoms: C_35  and  C_41
   18  A    between atoms: C_42  and  N_49
                            x       y       z     vdW  Elec       q    Type
                         _______ _______ _______ _____ _____    ______ ____

>  <TORSDO>
F 18

$$$$
=
 OpenBabel11042417493D

 57 63  0  0  1  0  0  0  0  0999 V2000
  192.0490  176.3500  144.1130 C   0  0  0  0  0  2  0  0  0  0  0  0
  195.2950  170.5640  145.9620 C   0  0  0  0  0  0  0  0  0  0  0  0
  194.3890  176.8160  144.8910 C   0  0  0  0  0  2  0  0  0  0  0  0
  194.3870  171.5960  145.4010 C   0  0  1  0  0  3  0  0  0  0  0  0
  192.8210  174.4500  146.1560 C   0  0  0  0  0  2  0  0  0  0  0  0
  191.0500  175.6620  145.0180 C   0  0  0  0  0  0  0  0  0  0  0  0
  189.6530  175.9090  144.8400 N   0  0  0  0  0  2  0  0  0  0  0  0
  196.7510  172.3240  145.6790 C   0  0  1  0  0  3  0  0  0  0  0  0
  191.4230  174.7880  145.9050 N   0  0  0  0  0  0  0  0  0  0  0  0
  194.9930  169.3030  145.9790 N   0  0  0  0  0  0  0  0  0  0  0  0
  195.3660  172.7320  145.2290 C   0  0  0  0  0  0  0  0  0  0  0  0
  196.0010  175.0190  145.1970 O   0  0  0  0  0  0  0  0  0  0  0  0
  193.7580  171.0080  144.1230 C   0  0  1  0  0  3  0  0  0  0  0  0
  193.1760  169.6510  144.4410 C   0  0  0  0  0  3  0  0  0  0  0  0
  195.0200  174.0220  145.0620 C   0  0  0  0  0  0  0  0  0  0  0  0
  196.5540  171.0450  146.2660 O   0  0  0  0  0  0  0  0  0  0  0  0
  195.8270  176.3550  144.7250 C   0  0  0  0  0  2  0  0  0  0  0  0
  193.7990  168.8510  145.3180 C   0  0  0  0  0  3  0  0  0  0  0  0
  193.5840  174.4280  144.8390 C   0  0  2  0  0  3  0  0  0  0  0  0
  193.4860  175.8130  144.1820 C   0  0  1  0  0  3  0  0  0  0  0  0
  192.6500  171.8840  143.5750 C   0  0  0  0  0  1  0  0  0  0  0  0
  197.6820  172.1560  144.4770 C   0  0  0  0  0  2  0  0  0  0  0  0
  197.5500  170.7980  143.8080 C   0  0  0  0  0  2  0  0  0  0  0  0
  197.6800  170.9300  142.3040 C   0  0  0  0  0  2  0  0  0  0  0  0
  196.3000  170.8780  141.6760 C   0  0  0  0  0  2  0  0  0  0  0  0
  195.8110  172.2900  141.4040 C   0  0  0  0  0  2  0  0  0  0  0  0
  193.2550  172.2080  138.9180 C   0  0  1  0  0  3  0  0  0  0  0  0
  195.1570  171.0720  139.3590 C   0  0  0  0  0  2  0  0  0  0  0  0
  195.3870  172.4350  139.9520 C   0  0  1  0  0  3  0  0  0  0  0  0
  194.0380  173.0790  139.8750 C   0  0  1  0  0  3  0  0  0  0  0  0
  194.1850  174.7600  139.1990 S   0  0  0  0  0  1  0  0  0  0  0  0
  194.0550  171.1330  138.4890 O   0  0  0  0  0  0  0  0  0  0  0  0
  192.0070  171.6870  139.6150 C   0  0  0  0  0  2  0  0  0  0  0  0
  188.4720  172.6500  138.9140 C   0  0  0  0  0  2  0  0  0  0  0  0
  190.5900  173.1650  140.7050 C   0  0  0  0  0  2  0  0  0  0  0  0
  189.3230  174.0120  140.6410 C   0  0  0  0  0  2  0  0  0  0  0  0
  188.2020  173.1670  140.2500 N   0  0  0  0  0  2  0  0  0  0  0  0
  189.7390  171.7920  138.9230 C   0  0  2  0  0  3  0  0  0  0  0  0
  190.8870  172.5900  139.3910 N   0  0  0  0  0  0  0  0  0  0  0  0
  190.0420  172.3990  136.6300 O   0  0  0  0  0  1  0  0  0  0  0  0
  189.9640  171.3100  137.4950 C   0  0  0  0  0  2  0  0  0  0  0  0
  189.1640  176.8970  143.8980 C   0  0  0  0  0  2  0  0  0  0  0  0
  188.1090  176.2690  143.0060 C   0  0  0  0  0  2  0  0  0  0  0  0
  188.7370  178.3040  141.8070 N   0  0  0  0  0  1  0  0  0  0  0  0
  187.7650  177.2220  141.8720 C   0  0  2  0  0  3  0  0  0  0  0  0
  186.3430  177.7620  142.0360 C   0  0  2  0  0  3  0  0  0  0  0  0
  184.2950  178.2920  140.6650 N   0  0  0  0  0  1  0  0  0  0  0  0
  186.2640  177.6130  139.6440 O   0  0  0  0  0  0  0  0  0  0  0  0
  185.6550  177.8820  140.7130 C   0  0  0  0  0  0  0  0  0  0  0  0
  186.3370  178.9910  142.7160 O   0  0  0  0  0  0  0  0  0  0  0  0
  186.2320  178.6770  143.9950 O   0  0  0  0  0  0  0  0  0  0  0  0
  184.8550  178.5920  144.2310 C   0  0  0  0  0  2  0  0  0  0  0  0
  184.8270  178.8760  146.5520 C   0  0  0  0  0  2  0  0  0  0  0  0
  185.5990  178.1890  147.6480 C   0  0  0  0  0  2  0  0  0  0  0  0
  185.6740  176.9010  145.6370 C   0  0  0  0  0  2  0  0  0  0  0  0
  184.6220  177.9030  145.4910 N   0  0  0  0  0  0  0  0  0  0  0  0
  186.4390  177.1850  146.9140 C   0  0  0  0  0  2  0  0  0  0  0  0
  1  6  1  0  0  0  0
  2 10  2  0  0  0  0
  2 16  1  0  0  0  0
  4 11  1  6  0  0  0
  4  2  1  0  0  0  0
  6  9  2  0  0  0  0
  7  6  1  0  0  0  0
  8 22  1  6  0  0  0
  8 16  1  0  0  0  0
  9  5  1  0  0  0  0
 11  8  1  0  0  0  0
 13 21  1  1  0  0  0
 13 14  1  0  0  0  0
 13  4  1  0  0  0  0
 14 18  2  0  0  0  0
 15 12  1  0  0  0  0
 15 11  2  0  0  0  0
 17  3  1  0  0  0  0
 17 12  1  0  0  0  0
 18 10  1  0  0  0  0
 19 15  1  0  0  0  0
 19  5  1  1  0  0  0
 20  1  1  1  0  0  0
 20 19  1  0  0  0  0
 20  3  1  0  0  0  0
 23 22  1  0  0  0  0
 24 23  1  0  0  0  0
 25 24  1  0  0  0  0
 26 25  1  0  0  0  0
 27 33  1  1  0  0  0
 27 30  1  0  0  0  0
 28 29  1  0  0  0  0
 29 26  1  1  0  0  0
 30 31  1  6  0  0  0
 30 29  1  0  0  0  0
 32 27  1  0  0  0  0
 32 28  1  0  0  0  0
 34 38  1  0  0  0  0
 34 37  1  0  0  0  0
 36 35  1  0  0  0  0
 37 36  1  0  0  0  0
 38 41  1  6  0  0  0
 38 39  1  0  0  0  0
 39 33  1  0  0  0  0
 39 35  1  0  0  0  0
 40 41  1  0  0  0  0
 42  7  1  0  0  0  0
 43 42  1  0  0  0  0
 45 44  1  1  0  0  0
 45 46  1  0  0  0  0
 45 43  1  0  0  0  0
 46 49  1  6  0  0  0
 46 50  1  0  0  0  0
 47 49  1  0  0  0  0
 48 49  2  0  0  0  0
 50 51  1  0  0  0  0
 51 52  1  0  0  0  0
 52 56  1  0  0  0  0
 53 54  1  0  0  0  0
 55 57  1  0  0  0  0
 56 55  1  0  0  0  0
 56 53  1  0  0  0  0
 57 54  1  0  0  0  0
M  END
>  <MODEL>
3

>  <REMARK>
 VINA RESULT:      -6.7      1.335      1.633
  Name = 
  18 active torsions:
  status: ('A' for Active; 'I' for Inactive)
    1  A    between atoms: C_6  and  C_28
    2  A    between atoms: C_10  and  C_14
    3  A    between atoms: C_10  and  C_24
    4  A    between atoms: C_12  and  C_18
    5  A    between atoms: C_12  and  C_20
    6  A    between atoms: C_14  and  C_53
    7  A    between atoms: O_15  and  O_19
    8  A    between atoms: O_15  and  C_23
    9  A    between atoms: C_18  and  C_23
   10  A    between atoms: O_19  and  C_42
   11  A    between atoms: C_20  and  N_30
   12  A    between atoms: C_22  and  C_57
   13  A    between atoms: C_23  and  C_56
   14  A    between atoms: C_24  and  C_57
   15  A    between atoms: C_28  and  N_38
   16  A    between atoms: C_31  and  C_53
   17  A    between atoms: C_35  and  C_41
   18  A    between atoms: C_42  and  N_49
                            x       y       z     vdW  Elec       q    Type
                         _______ _______ _______ _____ _____    ______ ____

>  <TORSDO>
F 18

$$$$
=
 OpenBabel11042417493D

 57 63  0  0  1  0  0  0  0  0999 V2000
  192.0090  175.1010  142.6540 C   0  0  0  0  0  2  0  0  0  0  0  0
  195.3930  170.2020  146.1140 C   0  0  0  0  0  0  0  0  0  0  0  0
  194.1820  175.9560  143.5700 C   0  0  0  0  0  2  0  0  0  0  0  0
  194.4950  170.9930  145.2340 C   0  0  1  0  0  3  0  0  0  0  0  0
  192.6370  173.7690  145.1460 C   0  0  0  0  0  2  0  0  0  0  0  0
  190.9510  174.5240  143.5690 C   0  0  0  0  0  0  0  0  0  0  0  0
  189.5760  174.5850  143.1810 N   0  0  0  0  0  2  0  0  0  0  0  0
  196.7410  171.9990  145.6120 C   0  0  1  0  0  3  0  0  0  0  0  0
  191.2640  173.9010  144.6660 N   0  0  0  0  0  0  0  0  0  0  0  0
  195.1850  168.9490  146.3780 N   0  0  0  0  0  0  0  0  0  0  0  0
  195.4020  172.1590  144.9260 C   0  0  0  0  0  0  0  0  0  0  0  0
  195.8660  174.4390  144.4550 O   0  0  0  0  0  0  0  0  0  0  0  0
  194.0890  170.0850  144.0570 C   0  0  1  0  0  3  0  0  0  0  0  0
  193.5710  168.7760  144.6030 C   0  0  0  0  0  3  0  0  0  0  0  0
  194.9880  173.3420  144.4350 C   0  0  0  0  0  0  0  0  0  0  0  0
  196.5610  170.8610  146.4440 O   0  0  0  0  0  0  0  0  0  0  0  0
  195.6600  175.6190  143.6780 C   0  0  0  0  0  2  0  0  0  0  0  0
  194.1270  168.2480  145.7030 C   0  0  0  0  0  3  0  0  0  0  0  0
  193.5690  173.5440  143.9630 C   0  0  2  0  0  3  0  0  0  0  0  0
  193.4590  174.7400  143.0060 C   0  0  1  0  0  3  0  0  0  0  0  0
  193.0020  170.7070  143.2040 C   0  0  0  0  0  1  0  0  0  0  0  0
  197.8340  171.6740  144.5930 C   0  0  0  0  0  2  0  0  0  0  0  0
  197.3580  171.7840  143.1540 C   0  0  0  0  0  2  0  0  0  0  0  0
  197.2600  170.4110  142.5190 C   0  0  0  0  0  2  0  0  0  0  0  0
  196.5920  170.5350  141.1620 C   0  0  0  0  0  2  0  0  0  0  0  0
  195.8640  171.8650  141.0730 C   0  0  0  0  0  2  0  0  0  0  0  0
  195.0150  174.2190  138.5320 C   0  0  1  0  0  3  0  0  0  0  0  0
  195.3750  171.9920  138.6570 C   0  0  0  0  0  2  0  0  0  0  0  0
  196.2040  172.5700  139.7710 C   0  0  1  0  0  3  0  0  0  0  0  0
  195.7580  173.9970  139.8310 C   0  0  1  0  0  3  0  0  0  0  0  0
  197.2000  175.1000  139.9130 S   0  0  0  0  0  1  0  0  0  0  0  0
  194.9990  173.0280  137.7840 O   0  0  0  0  0  0  0  0  0  0  0  0
  193.5940  174.6690  138.8330 C   0  0  0  0  0  2  0  0  0  0  0  0
  190.3690  172.9300  138.1350 C   0  0  0  0  0  2  0  0  0  0  0  0
  192.1800  174.7680  136.9970 C   0  0  0  0  0  2  0  0  0  0  0  0
  191.0470  174.1150  136.2120 C   0  0  0  0  0  2  0  0  0  0  0  0
  189.9260  173.8660  137.1090 N   0  0  0  0  0  2  0  0  0  0  0  0
  191.5110  173.5380  138.9520 C   0  0  2  0  0  3  0  0  0  0  0  0
  192.6400  173.8800  138.0670 N   0  0  0  0  0  0  0  0  0  0  0  0
  191.6130  171.2190  139.5260 O   0  0  0  0  0  1  0  0  0  0  0  0
  191.9290  172.4970  139.9820 C   0  0  0  0  0  2  0  0  0  0  0  0
  189.1470  175.2950  141.9920 C   0  0  0  0  0  2  0  0  0  0  0  0
  187.6320  175.3910  141.9760 C   0  0  0  0  0  2  0  0  0  0  0  0
  188.3610  177.6790  141.5250 N   0  0  0  0  0  1  0  0  0  0  0  0
  187.2120  176.8470  141.8540 C   0  0  2  0  0  3  0  0  0  0  0  0
  186.5330  177.3200  143.1400 C   0  0  2  0  0  3  0  0  0  0  0  0
  184.9500  179.2090  143.6750 N   0  0  0  0  0  1  0  0  0  0  0  0
  184.5630  177.8110  141.8640 O   0  0  0  0  0  0  0  0  0  0  0  0
  185.3000  178.1120  142.8400 C   0  0  0  0  0  0  0  0  0  0  0  0
  187.4170  178.0580  143.9450 O   0  0  0  0  0  0  0  0  0  0  0  0
  187.5390  177.3550  145.0570 O   0  0  0  0  0  0  0  0  0  0  0  0
  188.8920  177.4570  145.3990 C   0  0  0  0  0  2  0  0  0  0  0  0
  190.4670  176.6000  146.9010 C   0  0  0  0  0  2  0  0  0  0  0  0
  190.4840  175.3270  147.7060 C   0  0  0  0  0  2  0  0  0  0  0  0
  188.2690  175.8100  146.9510 C   0  0  0  0  0  2  0  0  0  0  0  0
  189.0780  177.0120  146.7720 N   0  0  0  0  0  0  0  0  0  0  0  0
  189.1800  174.6690  147.3570 C   0  0  0  0  0  2  0  0  0  0  0  0
  1  6  1  0  0  0  0
  2 10  2  0  0  0  0
  2 16  1  0  0  0  0
  3 17  1  0  0  0  0
  4 11  1  6  0  0  0
  4  2  1  0  0  0  0
  6  9  2  0  0  0  0
  7  6  1  0  0  0  0
  8 22  1  6  0  0  0
  8 16  1  0  0  0  0
  9  5  1  0  0  0  0
 11  8  1  0  0  0  0
 13 21  1  1  0  0  0
 13 14  1  0  0  0  0
 13  4  1  0  0  0  0
 14 18  2  0  0  0  0
 15 12  1  0  0  0  0
 15 11  2  0  0  0  0
 17 12  1  0  0  0  0
 18 10  1  0  0  0  0
 19 15  1  0  0  0  0
 19  5  1  1  0  0  0
 20  1  1  1  0  0  0
 20  3  1  0  0  0  0
 20 19  1  0  0  0  0
 23 22  1  0  0  0  0
 24 23  1  0  0  0  0
 25 24  1  0  0  0  0
 26 25  1  0  0  0  0
 27 33  1  1  0  0  0
 27 30  1  0  0  0  0
 28 29  1  0  0  0  0
 29 30  1  0  0  0  0
 29 26  1  1  0  0  0
 30 31  1  6  0  0  0
 32 27  1  0  0  0  0
 32 28  1  0  0  0  0
 34 38  1  0  0  0  0
 35 39  1  0  0  0  0
 36 35  1  0  0  0  0
 36 37  1  0  0  0  0
 37 34  1  0  0  0  0
 38 41  1  1  0  0  0
 39 33  1  0  0  0  0
 39 38  1  0  0  0  0
 40 41  1  0  0  0  0
 42  7  1  0  0  0  0
 43 42  1  0  0  0  0
 45 44  1  1  0  0  0
 45 43  1  0  0  0  0
 45 46  1  0  0  0  0
 46 49  1  6  0  0  0
 46 50  1  0  0  0  0
 48 49  2  0  0  0  0
 49 47  1  0  0  0  0
 50 51  1  0  0  0  0
 51 52  1  0  0  0  0
 52 56  1  0  0  0  0
 53 54  1  0  0  0  0
 55 57  1  0  0  0  0
 56 53  1  0  0  0  0
 56 55  1  0  0  0  0
 57 54  1  0  0  0  0
M  END
>  <MODEL>
4

>  <REMARK>
 VINA RESULT:      -6.6      1.904      2.499
  Name = 
  18 active torsions:
  status: ('A' for Active; 'I' for Inactive)
    1  A    between atoms: C_6  and  C_28
    2  A    between atoms: C_10  and  C_14
    3  A    between atoms: C_10  and  C_24
    4  A    between atoms: C_12  and  C_18
    5  A    between atoms: C_12  and  C_20
    6  A    between atoms: C_14  and  C_53
    7  A    between atoms: O_15  and  O_19
    8  A    between atoms: O_15  and  C_23
    9  A    between atoms: C_18  and  C_23
   10  A    between atoms: O_19  and  C_42
   11  A    between atoms: C_20  and  N_30
   12  A    between atoms: C_22  and  C_57
   13  A    between atoms: C_23  and  C_56
   14  A    between atoms: C_24  and  C_57
   15  A    between atoms: C_28  and  N_38
   16  A    between atoms: C_31  and  C_53
   17  A    between atoms: C_35  and  C_41
   18  A    between atoms: C_42  and  N_49
                            x       y       z     vdW  Elec       q    Type
                         _______ _______ _______ _____ _____    ______ ____

>  <TORSDO>
F 18

$$$$
=
 OpenBabel11042417493D

 57 63  0  0  1  0  0  0  0  0999 V2000
  190.0280  174.3630  142.7910 C   0  0  0  0  0  2  0  0  0  0  0  0
  193.1290  169.4110  139.1460 C   0  0  0  0  0  0  0  0  0  0  0  0
  191.3160  172.8010  144.2720 C   0  0  0  0  0  2  0  0  0  0  0  0
  192.4440  170.6370  139.6290 C   0  0  1  0  0  3  0  0  0  0  0  0
  190.0200  171.6930  141.6740 C   0  0  0  0  0  2  0  0  0  0  0  0
  188.9260  173.8510  141.8890 C   0  0  0  0  0  0  0  0  0  0  0  0
  187.8560  174.7240  141.5190 N   0  0  0  0  0  2  0  0  0  0  0  0
  193.9570  169.5610  141.2870 C   0  0  1  0  0  3  0  0  0  0  0  0
  188.9660  172.6580  141.3750 N   0  0  0  0  0  0  0  0  0  0  0  0
  193.2220  169.1150  137.8860 N   0  0  0  0  0  0  0  0  0  0  0  0
  193.0030  170.7060  141.0290 C   0  0  0  0  0  0  0  0  0  0  0  0
  192.9030  171.2040  143.3480 O   0  0  0  0  0  0  0  0  0  0  0  0
  192.8140  171.7800  138.6650 C   0  0  1  0  0  3  0  0  0  0  0  0
  192.5450  171.3330  137.2480 C   0  0  0  0  0  3  0  0  0  0  0  0
  192.4740  171.4340  142.0300 C   0  0  0  0  0  0  0  0  0  0  0  0
  193.8220  168.7420  140.1340 O   0  0  0  0  0  0  0  0  0  0  0  0
  192.6660  172.1190  144.4180 C   0  0  0  0  0  2  0  0  0  0  0  0
  192.7680  170.0580  136.9000 C   0  0  0  0  0  3  0  0  0  0  0  0
  191.3560  172.4160  141.7820 C   0  0  2  0  0  3  0  0  0  0  0  0
  191.2680  173.4640  142.9010 C   0  0  1  0  0  3  0  0  0  0  0  0
  192.0050  173.0350  138.9290 C   0  0  0  0  0  1  0  0  0  0  0  0
  195.4000  170.0630  141.3480 C   0  0  0  0  0  2  0  0  0  0  0  0
  195.8860  170.3050  142.7680 C   0  0  0  0  0  2  0  0  0  0  0  0
  196.7950  171.5170  142.8190 C   0  0  0  0  0  2  0  0  0  0  0  0
  195.9550  172.7780  142.7340 C   0  0  0  0  0  2  0  0  0  0  0  0
  196.8560  173.9730  142.4770 C   0  0  0  0  0  2  0  0  0  0  0  0
  195.0730  175.8370  144.9400 C   0  0  1  0  0  3  0  0  0  0  0  0
  196.4910  176.2920  143.2420 C   0  0  0  0  0  2  0  0  0  0  0  0
  196.8630  174.9010  143.6800 C   0  0  1  0  0  3  0  0  0  0  0  0
  195.7600  174.5270  144.6210 C   0  0  1  0  0  3  0  0  0  0  0  0
  196.4510  173.8070  146.1390 S   0  0  0  0  0  1  0  0  0  0  0  0
  195.6930  176.8840  144.2350 O   0  0  0  0  0  0  0  0  0  0  0  0
  193.6040  175.7430  144.5570 C   0  0  0  0  0  2  0  0  0  0  0  0
  190.4760  177.0680  146.0970 C   0  0  0  0  0  2  0  0  0  0  0  0
  192.5810  175.2540  146.5810 C   0  0  0  0  0  2  0  0  0  0  0  0
  191.5840  175.6830  147.6520 C   0  0  0  0  0  2  0  0  0  0  0  0
  190.2970  175.9580  147.0260 N   0  0  0  0  0  2  0  0  0  0  0  0
  191.4730  176.6890  145.0000 C   0  0  2  0  0  3  0  0  0  0  0  0
  192.7700  176.3250  145.5990 N   0  0  0  0  0  0  0  0  0  0  0  0
  191.3720  177.5400  142.7680 O   0  0  0  0  0  1  0  0  0  0  0  0
  191.6210  177.9010  144.0900 C   0  0  0  0  0  2  0  0  0  0  0  0
  187.7240  176.0540  142.0810 C   0  0  0  0  0  2  0  0  0  0  0  0
  186.2810  176.2950  142.4840 C   0  0  0  0  0  2  0  0  0  0  0  0
  186.7360  178.6960  142.4880 N   0  0  0  0  0  1  0  0  0  0  0  0
  185.8340  177.6640  141.9950 C   0  0  2  0  0  3  0  0  0  0  0  0
  184.3900  177.9400  142.4160 C   0  0  2  0  0  3  0  0  0  0  0  0
  182.1290  178.3210  141.3670 N   0  0  0  0  0  1  0  0  0  0  0  0
  184.0710  178.5830  140.1270 O   0  0  0  0  0  0  0  0  0  0  0  0
  183.5440  178.3040  141.2360 C   0  0  0  0  0  0  0  0  0  0  0  0
  184.3260  178.9380  143.4030 O   0  0  0  0  0  0  0  0  0  0  0  0
  183.7650  178.3530  144.4460 O   0  0  0  0  0  0  0  0  0  0  0  0
  184.2640  179.0450  145.5560 C   0  0  0  0  0  2  0  0  0  0  0  0
  185.5420  177.1400  146.0110 C   0  0  0  0  0  2  0  0  0  0  0  0
  186.4060  176.7790  147.1910 C   0  0  0  0  0  2  0  0  0  0  0  0
  185.9860  179.1310  147.1480 C   0  0  0  0  0  2  0  0  0  0  0  0
  185.6120  178.5830  145.8470 N   0  0  0  0  0  0  0  0  0  0  0  0
  186.3070  177.9830  148.0830 C   0  0  0  0  0  2  0  0  0  0  0  0
  2 16  1  0  0  0  0
  3 17  1  0  0  0  0
  4  2  1  6  0  0  0
  4 11  1  0  0  0  0
  6  1  1  0  0  0  0
  7  6  1  0  0  0  0
  7 42  1  0  0  0  0
  8 22  1  6  0  0  0
  9  5  1  0  0  0  0
  9  6  2  0  0  0  0
 10  2  2  0  0  0  0
 11  8  1  0  0  0  0
 11 15  2  0  0  0  0
 12 17  1  0  0  0  0
 13 21  1  1  0  0  0
 13  4  1  0  0  0  0
 14 13  1  0  0  0  0
 15 12  1  0  0  0  0
 16  8  1  0  0  0  0
 18 14  2  0  0  0  0
 18 10  1  0  0  0  0
 19  5  1  1  0  0  0
 19 15  1  0  0  0  0
 19 20  1  0  0  0  0
 20  1  1  6  0  0  0
 20  3  1  0  0  0  0
 22 23  1  0  0  0  0
 23 24  1  0  0  0  0
 25 24  1  0  0  0  0
 26 25  1  0  0  0  0
 27 33  1  6  0  0  0
 28 29  1  0  0  0  0
 28 32  1  0  0  0  0
 29 26  1  6  0  0  0
 29 30  1  0  0  0  0
 30 27  1  0  0  0  0
 30 31  1  1  0  0  0
 32 27  1  0  0  0  0
 33 39  1  0  0  0  0
 34 37  1  0  0  0  0
 35 36  1  0  0  0  0
 37 36  1  0  0  0  0
 38 41  1  6  0  0  0
 38 39  1  0  0  0  0
 38 34  1  0  0  0  0
 39 35  1  0  0  0  0
 40 41  1  0  0  0  0
 42 43  1  0  0  0  0
 45 46  1  0  0  0  0
 45 43  1  0  0  0  0
 45 44  1  1  0  0  0
 46 49  1  6  0  0  0
 46 50  1  0  0  0  0
 48 49  2  0  0  0  0
 49 47  1  0  0  0  0
 50 51  1  0  0  0  0
 51 52  1  0  0  0  0
 52 56  1  0  0  0  0
 53 54  1  0  0  0  0
 54 57  1  0  0  0  0
 55 57  1  0  0  0  0
 56 53  1  0  0  0  0
 56 55  1  0  0  0  0
M  END
>  <MODEL>
5

>  <REMARK>
 VINA RESULT:      -6.6      2.554      5.231
  Name = 
  18 active torsions:
  status: ('A' for Active; 'I' for Inactive)
    1  A    between atoms: C_6  and  C_28
    2  A    between atoms: C_10  and  C_14
    3  A    between atoms: C_10  and  C_24
    4  A    between atoms: C_12  and  C_18
    5  A    between atoms: C_12  and  C_20
    6  A    between atoms: C_14  and  C_53
    7  A    between atoms: O_15  and  O_19
    8  A    between atoms: O_15  and  C_23
    9  A    between atoms: C_18  and  C_23
   10  A    between atoms: O_19  and  C_42
   11  A    between atoms: C_20  and  N_30
   12  A    between atoms: C_22  and  C_57
   13  A    between atoms: C_23  and  C_56
   14  A    between atoms: C_24  and  C_57
   15  A    between atoms: C_28  and  N_38
   16  A    between atoms: C_31  and  C_53
   17  A    between atoms: C_35  and  C_41
   18  A    between atoms: C_42  and  N_49
                            x       y       z     vdW  Elec       q    Type
                         _______ _______ _______ _____ _____    ______ ____

>  <TORSDO>
F 18

$$$$
=
 OpenBabel11042417493D

 57 63  0  0  1  0  0  0  0  0999 V2000
  191.7300  175.0800  142.7670 C   0  0  0  0  0  2  0  0  0  0  0  0
  195.4280  170.3140  146.0900 C   0  0  0  0  0  0  0  0  0  0  0  0
  193.8660  176.0370  143.6700 C   0  0  0  0  0  2  0  0  0  0  0  0
  194.4750  171.0700  145.2370 C   0  0  1  0  0  3  0  0  0  0  0  0
  192.4660  173.7400  145.2250 C   0  0  0  0  0  2  0  0  0  0  0  0
  190.7180  174.4300  143.6850 C   0  0  0  0  0  0  0  0  0  0  0  0
  189.3370  174.4220  143.3180 N   0  0  0  0  0  2  0  0  0  0  0  0
  196.6670  172.1910  145.6030 C   0  0  1  0  0  3  0  0  0  0  0  0
  191.0810  173.8060  144.7670 N   0  0  0  0  0  0  0  0  0  0  0  0
  195.2920  169.0470  146.3330 N   0  0  0  0  0  0  0  0  0  0  0  0
  195.3120  172.2890  144.9380 C   0  0  0  0  0  0  0  0  0  0  0  0
  195.6430  174.5990  144.5040 O   0  0  0  0  0  0  0  0  0  0  0  0
  194.1020  170.1620  144.0490 C   0  0  1  0  0  3  0  0  0  0  0  0
  193.6640  168.8170  144.5780 C   0  0  0  0  0  3  0  0  0  0  0  0
  194.8260  173.4570  144.4750 C   0  0  0  0  0  0  0  0  0  0  0  0
  196.5610  171.0310  146.4170 O   0  0  0  0  0  0  0  0  0  0  0  0
  195.3610  175.7800  143.7520 C   0  0  0  0  0  2  0  0  0  0  0  0
  194.2640  168.3010  145.6600 C   0  0  0  0  0  3  0  0  0  0  0  0
  193.3920  173.5880  144.0260 C   0  0  2  0  0  3  0  0  0  0  0  0
  193.2030  174.7930  143.0930 C   0  0  1  0  0  3  0  0  0  0  0  0
  192.9700  170.7390  143.2220 C   0  0  0  0  0  1  0  0  0  0  0  0
  197.7620  171.9450  144.5640 C   0  0  0  0  0  2  0  0  0  0  0  0
  197.2570  172.0450  143.1340 C   0  0  0  0  0  2  0  0  0  0  0  0
  197.3580  170.7020  142.4380 C   0  0  0  0  0  2  0  0  0  0  0  0
  196.5760  170.7510  141.1390 C   0  0  0  0  0  2  0  0  0  0  0  0
  195.6740  171.9740  141.1350 C   0  0  0  0  0  2  0  0  0  0  0  0
  194.4530  173.0200  137.9520 C   0  0  1  0  0  3  0  0  0  0  0  0
  196.2090  171.8300  138.7300 C   0  0  0  0  0  2  0  0  0  0  0  0
  195.8620  172.7680  139.8540 C   0  0  1  0  0  3  0  0  0  0  0  0
  194.5570  173.3600  139.4220 C   0  0  1  0  0  3  0  0  0  0  0  0
  194.5870  175.1640  139.6380 S   0  0  0  0  0  1  0  0  0  0  0  0
  195.5780  172.2740  137.5550 O   0  0  0  0  0  0  0  0  0  0  0  0
  193.1820  172.2220  137.7060 C   0  0  0  0  0  2  0  0  0  0  0  0
  190.7010  170.9870  140.2030 C   0  0  0  0  0  2  0  0  0  0  0  0
  192.9940  170.1730  138.7770 C   0  0  0  0  0  2  0  0  0  0  0  0
  192.4100  169.3820  139.9420 C   0  0  0  0  0  2  0  0  0  0  0  0
  190.9650  169.5720  139.9730 N   0  0  0  0  0  2  0  0  0  0  0  0
  191.2720  171.8280  139.0590 C   0  0  2  0  0  3  0  0  0  0  0  0
  192.7240  171.6030  138.9420 N   0  0  0  0  0  0  0  0  0  0  0  0
  189.9900  173.7760  138.5310 O   0  0  0  0  0  1  0  0  0  0  0  0
  190.9760  173.2860  139.3830 C   0  0  0  0  0  2  0  0  0  0  0  0
  188.8520  175.1280  142.1480 C   0  0  0  0  0  2  0  0  0  0  0  0
  187.3540  175.3380  142.2660 C   0  0  0  0  0  2  0  0  0  0  0  0
  188.1540  177.6000  141.7980 N   0  0  0  0  0  1  0  0  0  0  0  0
  186.9900  176.7250  141.7600 C   0  0  2  0  0  3  0  0  0  0  0  0
  185.8310  177.3070  142.5700 C   0  0  2  0  0  3  0  0  0  0  0  0
  183.5240  178.2420  142.1640 N   0  0  0  0  0  1  0  0  0  0  0  0
  185.1450  178.3180  140.5070 O   0  0  0  0  0  0  0  0  0  0  0  0
  184.8360  177.9850  141.6810 C   0  0  0  0  0  0  0  0  0  0  0  0
  186.2910  178.1850  143.5660 O   0  0  0  0  0  0  0  0  0  0  0  0
  185.8940  177.6500  144.7060 O   0  0  0  0  0  0  0  0  0  0  0  0
  186.9540  177.8700  145.5930 C   0  0  0  0  0  2  0  0  0  0  0  0
  187.9660  176.0790  146.7080 C   0  0  0  0  0  2  0  0  0  0  0  0
  189.4100  175.7930  147.0260 C   0  0  0  0  0  2  0  0  0  0  0  0
  189.2420  177.4380  145.3010 C   0  0  0  0  0  2  0  0  0  0  0  0
  187.9350  176.8060  145.4480 N   0  0  0  0  0  0  0  0  0  0  0  0
  190.1430  176.9550  146.4200 C   0  0  0  0  0  2  0  0  0  0  0  0
  1  6  1  0  0  0  0
  2 10  2  0  0  0  0
  2 16  1  0  0  0  0
  3 17  1  0  0  0  0
  4 11  1  6  0  0  0
  4  2  1  0  0  0  0
  6  9  2  0  0  0  0
  7  6  1  0  0  0  0
  8 22  1  6  0  0  0
  8 16  1  0  0  0  0
  9  5  1  0  0  0  0
 11  8  1  0  0  0  0
 13 21  1  1  0  0  0
 13 14  1  0  0  0  0
 13  4  1  0  0  0  0
 14 18  2  0  0  0  0
 15 12  1  0  0  0  0
 15 11  2  0  0  0  0
 17 12  1  0  0  0  0
 18 10  1  0  0  0  0
 19 15  1  0  0  0  0
 19  5  1  1  0  0  0
 20  1  1  1  0  0  0
 20  3  1  0  0  0  0
 20 19  1  0  0  0  0
 23 22  1  0  0  0  0
 24 23  1  0  0  0  0
 25 24  1  0  0  0  0
 26 25  1  0  0  0  0
 27 33  1  1  0  0  0
 27 30  1  0  0  0  0
 28 29  1  0  0  0  0
 29 26  1  1  0  0  0
 30 31  1  6  0  0  0
 30 29  1  0  0  0  0
 32 27  1  0  0  0  0
 32 28  1  0  0  0  0
 33 39  1  0  0  0  0
 35 39  1  0  0  0  0
 35 36  1  0  0  0  0
 36 37  1  0  0  0  0
 37 34  1  0  0  0  0
 38 41  1  1  0  0  0
 38 34  1  0  0  0  0
 39 38  1  0  0  0  0
 40 41  1  0  0  0  0
 42 43  1  0  0  0  0
 42  7  1  0  0  0  0
 45 44  1  1  0  0  0
 45 43  1  0  0  0  0
 45 46  1  0  0  0  0
 46 49  1  6  0  0  0
 46 50  1  0  0  0  0
 48 49  2  0  0  0  0
 49 47  1  0  0  0  0
 50 51  1  0  0  0  0
 51 52  1  0  0  0  0
 53 54  1  0  0  0  0
 55 56  1  0  0  0  0
 55 57  1  0  0  0  0
 56 52  1  0  0  0  0
 56 53  1  0  0  0  0
 57 54  1  0  0  0  0
M  END
>  <MODEL>
6

>  <REMARK>
 VINA RESULT:      -6.6      1.872      2.452
  Name = 
  18 active torsions:
  status: ('A' for Active; 'I' for Inactive)
    1  A    between atoms: C_6  and  C_28
    2  A    between atoms: C_10  and  C_14
    3  A    between atoms: C_10  and  C_24
    4  A    between atoms: C_12  and  C_18
    5  A    between atoms: C_12  and  C_20
    6  A    between atoms: C_14  and  C_53
    7  A    between atoms: O_15  and  O_19
    8  A    between atoms: O_15  and  C_23
    9  A    between atoms: C_18  and  C_23
   10  A    between atoms: O_19  and  C_42
   11  A    between atoms: C_20  and  N_30
   12  A    between atoms: C_22  and  C_57
   13  A    between atoms: C_23  and  C_56
   14  A    between atoms: C_24  and  C_57
   15  A    between atoms: C_28  and  N_38
   16  A    between atoms: C_31  and  C_53
   17  A    between atoms: C_35  and  C_41
   18  A    between atoms: C_42  and  N_49
                            x       y       z     vdW  Elec       q    Type
                         _______ _______ _______ _____ _____    ______ ____

>  <TORSDO>
F 18

$$$$
=
 OpenBabel11042417493D

 57 63  0  0  1  0  0  0  0  0999 V2000
  192.4390  176.4290  144.8790 C   0  0  0  0  0  2  0  0  0  0  0  0
  196.6010  170.9790  145.5150 C   0  0  0  0  0  0  0  0  0  0  0  0
  194.8140  177.0150  144.3240 C   0  0  0  0  0  2  0  0  0  0  0  0
  195.4590  171.9160  145.3670 C   0  0  1  0  0  3  0  0  0  0  0  0
  194.2600  174.8350  146.4680 C   0  0  0  0  0  2  0  0  0  0  0  0
  192.0720  175.8650  146.2350 C   0  0  0  0  0  0  0  0  0  0  0  0
  190.7560  176.0750  146.7510 N   0  0  0  0  0  2  0  0  0  0  0  0
  197.5890  172.6940  144.3410 C   0  0  1  0  0  3  0  0  0  0  0  0
  192.8990  175.1240  146.9110 N   0  0  0  0  0  0  0  0  0  0  0  0
  196.4420  169.7290  145.8260 N   0  0  0  0  0  0  0  0  0  0  0  0
  196.1360  173.0250  144.5990 C   0  0  0  0  0  0  0  0  0  0  0  0
  196.4980  175.2900  143.9900 O   0  0  0  0  0  0  0  0  0  0  0  0
  194.3270  171.1520  144.6520 C   0  0  1  0  0  3  0  0  0  0  0  0
  194.0830  169.8480  145.3730 C   0  0  0  0  0  3  0  0  0  0  0  0
  195.6570  174.2770  144.4790 C   0  0  0  0  0  0  0  0  0  0  0  0
  197.8040  171.5070  145.0920 O   0  0  0  0  0  0  0  0  0  0  0  0
  196.0130  176.5470  143.5170 C   0  0  0  0  0  2  0  0  0  0  0  0
  195.1150  169.1820  145.9080 C   0  0  0  0  0  3  0  0  0  0  0  0
  194.2720  174.6380  144.9580 C   0  0  2  0  0  3  0  0  0  0  0  0
  193.7580  175.9180  144.2830 C   0  0  1  0  0  3  0  0  0  0  0  0
  193.0300  171.9360  144.6340 C   0  0  0  0  0  1  0  0  0  0  0  0
  197.8150  172.3690  142.8630 C   0  0  0  0  0  2  0  0  0  0  0  0
  196.5270  172.3480  142.0560 C   0  0  0  0  0  2  0  0  0  0  0  0
  196.5490  173.4260  140.9910 C   0  0  0  0  0  2  0  0  0  0  0  0
  195.1390  173.6470  140.4740 C   0  0  0  0  0  2  0  0  0  0  0  0
  194.1760  172.7420  141.2220 C   0  0  0  0  0  2  0  0  0  0  0  0
  191.4970  170.7740  139.9300 C   0  0  1  0  0  3  0  0  0  0  0  0
  193.3640  170.4120  141.1490 C   0  0  0  0  0  2  0  0  0  0  0  0
  193.6870  171.6240  140.3180 C   0  0  1  0  0  3  0  0  0  0  0  0
  192.3670  171.9930  139.7160 C   0  0  1  0  0  3  0  0  0  0  0  0
  192.5570  172.3090  137.9370 S   0  0  0  0  0  1  0  0  0  0  0  0
  192.2240  169.7850  140.6180 O   0  0  0  0  0  0  0  0  0  0  0  0
  190.2630  171.1680  140.7270 C   0  0  0  0  0  2  0  0  0  0  0  0
  188.5740  174.4930  140.7870 C   0  0  0  0  0  2  0  0  0  0  0  0
  190.3980  172.9140  142.2490 C   0  0  0  0  0  2  0  0  0  0  0  0
  190.1630  174.3940  142.5270 C   0  0  0  0  0  2  0  0  0  0  0  0
  188.7800  174.7280  142.2120 N   0  0  0  0  0  2  0  0  0  0  0  0
  188.8010  173.0170  140.4540 C   0  0  2  0  0  3  0  0  0  0  0  0
  190.1680  172.6170  140.8330 N   0  0  0  0  0  0  0  0  0  0  0  0
  188.7810  174.0800  138.3120 O   0  0  0  0  0  1  0  0  0  0  0  0
  188.5900  172.8590  138.9530 C   0  0  0  0  0  2  0  0  0  0  0  0
  189.7930  176.9190  146.0730 C   0  0  0  0  0  2  0  0  0  0  0  0
  188.5740  176.0970  145.6930 C   0  0  0  0  0  2  0  0  0  0  0  0
  188.3090  177.6140  143.7950 N   0  0  0  0  0  1  0  0  0  0  0  0
  187.6090  176.9530  144.8890 C   0  0  2  0  0  3  0  0  0  0  0  0
  186.9080  177.9680  145.7930 C   0  0  2  0  0  3  0  0  0  0  0  0
  185.9320  177.6300  148.0940 N   0  0  0  0  0  1  0  0  0  0  0  0
  185.1380  176.4250  146.2780 O   0  0  0  0  0  0  0  0  0  0  0  0
  185.9390  177.2940  146.7120 C   0  0  0  0  0  0  0  0  0  0  0  0
  186.2710  178.9700  145.0420 O   0  0  0  0  0  0  0  0  0  0  0  0
  185.0110  178.5830  144.9530 O   0  0  0  0  0  0  0  0  0  0  0  0
  184.5660  179.0930  143.7280 C   0  0  0  0  0  2  0  0  0  0  0  0
  185.6060  178.2290  141.8190 C   0  0  0  0  0  2  0  0  0  0  0  0
  185.0790  177.9600  140.4340 C   0  0  0  0  0  2  0  0  0  0  0  0
  183.2770  178.1940  141.9850 C   0  0  0  0  0  2  0  0  0  0  0  0
  184.5080  178.0180  142.7490 N   0  0  0  0  0  0  0  0  0  0  0  0
  183.6340  178.3580  140.5210 C   0  0  0  0  0  2  0  0  0  0  0  0
  1  6  1  0  0  0  0
  2 10  2  0  0  0  0
  4 11  1  6  0  0  0
  4  2  1  0  0  0  0
  5  9  1  0  0  0  0
  6  7  1  0  0  0  0
  6  9  2  0  0  0  0
  8 22  1  6  0  0  0
  8 11  1  0  0  0  0
  8 16  1  0  0  0  0
 10 18  1  0  0  0  0
 12 15  1  0  0  0  0
 13 21  1  1  0  0  0
 13  4  1  0  0  0  0
 13 14  1  0  0  0  0
 14 18  2  0  0  0  0
 15 11  2  0  0  0  0
 15 19  1  0  0  0  0
 16  2  1  0  0  0  0
 17 12  1  0  0  0  0
 17  3  1  0  0  0  0
 19  5  1  1  0  0  0
 20  3  1  1  0  0  0
 20  1  1  0  0  0  0
 20 19  1  0  0  0  0
 23 22  1  0  0  0  0
 24 23  1  0  0  0  0
 25 24  1  0  0  0  0
 25 26  1  0  0  0  0
 27 32  1  0  0  0  0
 27 33  1  1  0  0  0
 29 28  1  0  0  0  0
 29 26  1  1  0  0  0
 30 31  1  6  0  0  0
 30 27  1  0  0  0  0
 30 29  1  0  0  0  0
 32 28  1  0  0  0  0
 33 39  1  0  0  0  0
 34 37  1  0  0  0  0
 35 36  1  0  0  0  0
 37 36  1  0  0  0  0
 38 41  1  6  0  0  0
 38 34  1  0  0  0  0
 38 39  1  0  0  0  0
 39 35  1  0  0  0  0
 40 41  1  0  0  0  0
 42  7  1  0  0  0  0
 43 42  1  0  0  0  0
 45 44  1  6  0  0  0
 45 43  1  0  0  0  0
 45 46  1  0  0  0  0
 46 50  1  6  0  0  0
 46 49  1  0  0  0  0
 48 49  2  0  0  0  0
 49 47  1  0  0  0  0
 51 50  1  0  0  0  0
 52 51  1  0  0  0  0
 53 56  1  0  0  0  0
 54 57  1  0  0  0  0
 54 53  1  0  0  0  0
 55 56  1  0  0  0  0
 56 52  1  0  0  0  0
 57 55  1  0  0  0  0
M  END
>  <MODEL>
7

>  <REMARK>
 VINA RESULT:      -6.4      1.870      3.238
  Name = 
  18 active torsions:
  status: ('A' for Active; 'I' for Inactive)
    1  A    between atoms: C_6  and  C_28
    2  A    between atoms: C_10  and  C_14
    3  A    between atoms: C_10  and  C_24
    4  A    between atoms: C_12  and  C_18
    5  A    between atoms: C_12  and  C_20
    6  A    between atoms: C_14  and  C_53
    7  A    between atoms: O_15  and  O_19
    8  A    between atoms: O_15  and  C_23
    9  A    between atoms: C_18  and  C_23
   10  A    between atoms: O_19  and  C_42
   11  A    between atoms: C_20  and  N_30
   12  A    between atoms: C_22  and  C_57
   13  A    between atoms: C_23  and  C_56
   14  A    between atoms: C_24  and  C_57
   15  A    between atoms: C_28  and  N_38
   16  A    between atoms: C_31  and  C_53
   17  A    between atoms: C_35  and  C_41
   18  A    between atoms: C_42  and  N_49
                            x       y       z     vdW  Elec       q    Type
                         _______ _______ _______ _____ _____    ______ ____

>  <TORSDO>
F 18

$$$$
=
 OpenBabel11042417493D

 57 63  0  0  1  0  0  0  0  0999 V2000
  189.7530  175.4480  142.5160 C   0  0  0  0  0  2  0  0  0  0  0  0
  190.3160  169.4510  139.1790 C   0  0  0  0  0  0  0  0  0  0  0  0
  190.3180  173.5730  144.0830 C   0  0  0  0  0  2  0  0  0  0  0  0
  190.2350  170.8760  139.5860 C   0  0  1  0  0  3  0  0  0  0  0  0
  188.5710  172.9760  141.5850 C   0  0  0  0  0  2  0  0  0  0  0  0
  188.5020  175.4030  141.6650 C   0  0  0  0  0  0  0  0  0  0  0  0
  187.8880  176.6250  141.2510 N   0  0  0  0  0  2  0  0  0  0  0  0
  191.2170  169.3550  141.2950 C   0  0  1  0  0  3  0  0  0  0  0  0
  188.0130  174.2780  141.2330 N   0  0  0  0  0  0  0  0  0  0  0  0
  190.2240  169.0720  137.9410 N   0  0  0  0  0  0  0  0  0  0  0  0
  190.8270  170.7800  140.9710 C   0  0  0  0  0  0  0  0  0  0  0  0
  191.0420  171.4040  143.2510 O   0  0  0  0  0  0  0  0  0  0  0  0
  191.0140  171.6980  138.5410 C   0  0  1  0  0  3  0  0  0  0  0  0
  190.5240  171.3280  137.1610 C   0  0  0  0  0  3  0  0  0  0  0  0
  190.6970  171.7200  141.9260 C   0  0  0  0  0  0  0  0  0  0  0  0
  190.7010  168.6070  140.2020 O   0  0  0  0  0  0  0  0  0  0  0  0
  191.2580  172.3920  144.2590 C   0  0  0  0  0  2  0  0  0  0  0  0
  190.1720  170.0620  136.8990 C   0  0  0  0  0  3  0  0  0  0  0  0
  190.0910  173.0680  141.6260 C   0  0  2  0  0  3  0  0  0  0  0  0
  190.4990  174.1150  142.6710 C   0  0  1  0  0  3  0  0  0  0  0  0
  190.8240  173.1900  138.7290 C   0  0  0  0  0  1  0  0  0  0  0  0
  192.7380  169.1980  141.3020 C   0  0  0  0  0  2  0  0  0  0  0  0
  193.4700  170.5030  141.0360 C   0  0  0  0  0  2  0  0  0  0  0  0
  194.3310  170.8820  142.2250 C   0  0  0  0  0  2  0  0  0  0  0  0
  194.5700  172.3800  142.2120 C   0  0  0  0  0  2  0  0  0  0  0  0
  193.8340  173.0020  141.0380 C   0  0  0  0  0  2  0  0  0  0  0  0
  196.4020  175.4510  140.6810 C   0  0  1  0  0  3  0  0  0  0  0  0
  194.2850  175.1690  139.9440 C   0  0  0  0  0  2  0  0  0  0  0  0
  194.8010  173.7710  140.1530 C   0  0  1  0  0  3  0  0  0  0  0  0
  196.0960  173.9820  140.8730 C   0  0  1  0  0  3  0  0  0  0  0  0
  197.4050  172.9750  140.1150 S   0  0  0  0  0  1  0  0  0  0  0  0
  195.3720  176.0590  139.9400 O   0  0  0  0  0  0  0  0  0  0  0  0
  196.5370  176.1210  142.0390 C   0  0  0  0  0  2  0  0  0  0  0  0
  195.9500  174.7100  145.4420 C   0  0  0  0  0  2  0  0  0  0  0  0
  194.6260  176.0660  143.3530 C   0  0  0  0  0  2  0  0  0  0  0  0
  193.8970  175.4320  144.5330 C   0  0  0  0  0  2  0  0  0  0  0  0
  194.7500  175.4940  145.7120 N   0  0  0  0  0  2  0  0  0  0  0  0
  196.7190  175.3050  144.2610 C   0  0  2  0  0  3  0  0  0  0  0  0
  195.8610  175.3350  143.0620 N   0  0  0  0  0  0  0  0  0  0  0  0
  197.5560  173.0840  143.9720 O   0  0  0  0  0  1  0  0  0  0  0  0
  197.9380  174.4220  144.0290 C   0  0  0  0  0  2  0  0  0  0  0  0
  188.3550  177.9140  141.7220 C   0  0  0  0  0  2  0  0  0  0  0  0
  187.7800  178.1900  143.0990 C   0  0  0  0  0  2  0  0  0  0  0  0
  185.5510  178.7020  142.2400 N   0  0  0  0  0  1  0  0  0  0  0  0
  186.3050  177.8230  143.1230 C   0  0  2  0  0  3  0  0  0  0  0  0
  185.7620  177.8700  144.5510 C   0  0  2  0  0  3  0  0  0  0  0  0
  183.6980  179.0240  145.4280 N   0  0  0  0  0  1  0  0  0  0  0  0
  185.3900  180.2350  144.4040 O   0  0  0  0  0  0  0  0  0  0  0  0
  184.9620  179.1130  144.7830 C   0  0  0  0  0  0  0  0  0  0  0  0
  186.7940  177.7570  145.4970 O   0  0  0  0  0  0  0  0  0  0  0  0
  186.7750  176.4920  145.8780 O   0  0  0  0  0  0  0  0  0  0  0  0
  188.0770  176.0310  145.6560 C   0  0  0  0  0  2  0  0  0  0  0  0
  190.0540  177.0090  146.4350 C   0  0  0  0  0  2  0  0  0  0  0  0
  191.2390  176.4190  147.1530 C   0  0  0  0  0  2  0  0  0  0  0  0
  189.3590  174.9530  147.3000 C   0  0  0  0  0  2  0  0  0  0  0  0
  188.8790  176.2560  146.8480 N   0  0  0  0  0  0  0  0  0  0  0  0
  190.8740  174.9720  147.3130 C   0  0  0  0  0  2  0  0  0  0  0  0
  2 16  1  0  0  0  0
  3 17  1  0  0  0  0
  4  2  1  6  0  0  0
  4 11  1  0  0  0  0
  6  1  1  0  0  0  0
  7  6  1  0  0  0  0
  7 42  1  0  0  0  0
  8 22  1  6  0  0  0
  9  5  1  0  0  0  0
  9  6  2  0  0  0  0
 10  2  2  0  0  0  0
 11  8  1  0  0  0  0
 11 15  2  0  0  0  0
 12 17  1  0  0  0  0
 13 21  1  1  0  0  0
 13  4  1  0  0  0  0
 14 13  1  0  0  0  0
 15 12  1  0  0  0  0
 16  8  1  0  0  0  0
 18 14  2  0  0  0  0
 18 10  1  0  0  0  0
 19  5  1  1  0  0  0
 19 15  1  0  0  0  0
 19 20  1  0  0  0  0
 20  1  1  1  0  0  0
 20  3  1  0  0  0  0
 23 22  1  0  0  0  0
 23 24  1  0  0  0  0
 25 24  1  0  0  0  0
 26 25  1  0  0  0  0
 27 30  1  0  0  0  0
 27 33  1  1  0  0  0
 28 29  1  0  0  0  0
 29 30  1  0  0  0  0
 29 26  1  1  0  0  0
 30 31  1  6  0  0  0
 32 28  1  0  0  0  0
 32 27  1  0  0  0  0
 33 39  1  0  0  0  0
 34 37  1  0  0  0  0
 35 36  1  0  0  0  0
 36 37  1  0  0  0  0
 38 41  1  6  0  0  0
 38 34  1  0  0  0  0
 39 35  1  0  0  0  0
 39 38  1  0  0  0  0
 40 41  1  0  0  0  0
 42 43  1  0  0  0  0
 43 45  1  0  0  0  0
 45 44  1  6  0  0  0
 45 46  1  0  0  0  0
 46 49  1  1  0  0  0
 46 50  1  0  0  0  0
 48 49  2  0  0  0  0
 49 47  1  0  0  0  0
 50 51  1  0  0  0  0
 52 51  1  0  0  0  0
 52 56  1  0  0  0  0
 53 56  1  0  0  0  0
 53 54  1  0  0  0  0
 54 57  1  0  0  0  0
 55 57  1  0  0  0  0
 56 55  1  0  0  0  0
M  END
>  <MODEL>
8

>  <REMARK>
 VINA RESULT:      -6.4      2.559      5.872
  Name = 
  18 active torsions:
  status: ('A' for Active; 'I' for Inactive)
    1  A    between atoms: C_6  and  C_28
    2  A    between atoms: C_10  and  C_14
    3  A    between atoms: C_10  and  C_24
    4  A    between atoms: C_12  and  C_18
    5  A    between atoms: C_12  and  C_20
    6  A    between atoms: C_14  and  C_53
    7  A    between atoms: O_15  and  O_19
    8  A    between atoms: O_15  and  C_23
    9  A    between atoms: C_18  and  C_23
   10  A    between atoms: O_19  and  C_42
   11  A    between atoms: C_20  and  N_30
   12  A    between atoms: C_22  and  C_57
   13  A    between atoms: C_23  and  C_56
   14  A    between atoms: C_24  and  C_57
   15  A    between atoms: C_28  and  N_38
   16  A    between atoms: C_31  and  C_53
   17  A    between atoms: C_35  and  C_41
   18  A    between atoms: C_42  and  N_49
                            x       y       z     vdW  Elec       q    Type
                         _______ _______ _______ _____ _____    ______ ____

>  <TORSDO>
F 18

$$$$
=
 OpenBabel11042417493D

 57 63  0  0  1  0  0  0  0  0999 V2000
  191.8630  176.3530  144.1580 C   0  0  0  0  0  2  0  0  0  0  0  0
  195.2060  170.5970  145.9260 C   0  0  0  0  0  0  0  0  0  0  0  0
  194.1650  176.8540  145.0210 C   0  0  0  0  0  2  0  0  0  0  0  0
  194.2870  171.6230  145.3690 C   0  0  1  0  0  3  0  0  0  0  0  0
  192.6240  174.4100  146.1640 C   0  0  0  0  0  2  0  0  0  0  0  0
  190.8560  175.6110  145.0100 C   0  0  0  0  0  0  0  0  0  0  0  0
  189.4590  175.8280  144.7970 N   0  0  0  0  0  2  0  0  0  0  0  0
  196.6220  172.4020  145.7420 C   0  0  1  0  0  3  0  0  0  0  0  0
  191.2250  174.7190  145.8800 N   0  0  0  0  0  0  0  0  0  0  0  0
  194.9370  169.3280  145.8940 N   0  0  0  0  0  0  0  0  0  0  0  0
  195.2400  172.7880  145.2630 C   0  0  0  0  0  0  0  0  0  0  0  0
  195.8150  175.0910  145.3220 O   0  0  0  0  0  0  0  0  0  0  0  0
  193.7130  171.0590  144.0550 C   0  0  1  0  0  3  0  0  0  0  0  0
  193.1580  169.6790  144.3130 C   0  0  0  0  0  3  0  0  0  0  0  0
  194.8650  174.0740  145.1250 C   0  0  0  0  0  0  0  0  0  0  0  0
  196.4410  171.1000  146.2840 O   0  0  0  0  0  0  0  0  0  0  0  0
  195.6200  176.4360  144.8860 C   0  0  0  0  0  2  0  0  0  0  0  0
  193.7750  168.8670  145.1840 C   0  0  0  0  0  3  0  0  0  0  0  0
  193.4260  174.4500  144.8710 C   0  0  2  0  0  3  0  0  0  0  0  0
  193.3110  175.8520  144.2550 C   0  0  1  0  0  3  0  0  0  0  0  0
  192.5980  171.9240  143.5010 C   0  0  0  0  0  1  0  0  0  0  0  0
  197.5920  172.2960  144.5650 C   0  0  0  0  0  2  0  0  0  0  0  0
  196.9000  172.3820  143.2150 C   0  0  0  0  0  2  0  0  0  0  0  0
  197.4340  173.5550  142.4160 C   0  0  0  0  0  2  0  0  0  0  0  0
  196.2700  174.3530  141.8600 C   0  0  0  0  0  2  0  0  0  0  0  0
  195.7550  173.6860  140.5960 C   0  0  0  0  0  2  0  0  0  0  0  0
  192.4870  173.1640  139.2680 C   0  0  1  0  0  3  0  0  0  0  0  0
  193.4190  174.4280  140.8910 C   0  0  0  0  0  2  0  0  0  0  0  0
  194.3190  173.2270  140.7870 C   0  0  1  0  0  3  0  0  0  0  0  0
  193.8340  172.5370  139.5500 C   0  0  1  0  0  3  0  0  0  0  0  0
  193.6350  170.7590  139.8630 S   0  0  0  0  0  1  0  0  0  0  0  0
  192.2100  174.1500  140.2320 O   0  0  0  0  0  0  0  0  0  0  0  0
  192.4950  173.7770  137.8770 C   0  0  0  0  0  2  0  0  0  0  0  0
  195.0860  173.4130  135.2180 C   0  0  0  0  0  2  0  0  0  0  0  0
  194.2830  175.1380  137.3000 C   0  0  0  0  0  2  0  0  0  0  0  0
  195.6210  175.2620  136.5800 C   0  0  0  0  0  2  0  0  0  0  0  0
  195.4650  174.8210  135.2000 N   0  0  0  0  0  2  0  0  0  0  0  0
  193.7460  173.2320  135.9350 C   0  0  2  0  0  3  0  0  0  0  0  0
  193.8380  173.7420  137.3150 N   0  0  0  0  0  0  0  0  0  0  0  0
  194.4650  171.0370  135.3160 O   0  0  0  0  0  1  0  0  0  0  0  0
  193.4330  171.7410  135.9310 C   0  0  0  0  0  2  0  0  0  0  0  0
  188.9730  176.8320  143.8720 C   0  0  0  0  0  2  0  0  0  0  0  0
  188.0890  176.1750  142.8270 C   0  0  0  0  0  2  0  0  0  0  0  0
  188.7230  178.2890  141.7770 N   0  0  0  0  0  1  0  0  0  0  0  0
  187.8080  177.1580  141.7020 C   0  0  2  0  0  3  0  0  0  0  0  0
  186.3510  177.6190  141.7410 C   0  0  2  0  0  3  0  0  0  0  0  0
  184.6290  178.5540  140.1530 N   0  0  0  0  0  1  0  0  0  0  0  0
  186.3350  177.1850  139.3820 O   0  0  0  0  0  0  0  0  0  0  0  0
  185.7930  177.7630  140.3600 C   0  0  0  0  0  0  0  0  0  0  0  0
  186.2100  178.8150  142.4640 O   0  0  0  0  0  0  0  0  0  0  0  0
  185.4690  178.4990  143.5110 O   0  0  0  0  0  0  0  0  0  0  0  0
  185.9490  179.3080  144.5470 C   0  0  0  0  0  2  0  0  0  0  0  0
  185.6290  177.2000  145.5090 C   0  0  0  0  0  2  0  0  0  0  0  0
  185.0870  176.7920  146.8540 C   0  0  0  0  0  2  0  0  0  0  0  0
  185.7320  179.0930  146.8740 C   0  0  0  0  0  2  0  0  0  0  0  0
  186.3080  178.4740  145.6840 N   0  0  0  0  0  0  0  0  0  0  0  0
  184.7930  178.1000  147.5300 C   0  0  0  0  0  2  0  0  0  0  0  0
  1  6  1  0  0  0  0
  2 16  1  0  0  0  0
  4 11  1  6  0  0  0
  4  2  1  0  0  0  0
  6  9  2  0  0  0  0
  7  6  1  0  0  0  0
  8 22  1  6  0  0  0
  8 16  1  0  0  0  0
  9  5  1  0  0  0  0
 10  2  2  0  0  0  0
 11  8  1  0  0  0  0
 13 21  1  1  0  0  0
 13 14  1  0  0  0  0
 13  4  1  0  0  0  0
 14 18  2  0  0  0  0
 15 11  2  0  0  0  0
 15 12  1  0  0  0  0
 17  3  1  0  0  0  0
 17 12  1  0  0  0  0
 18 10  1  0  0  0  0
 19 15  1  0  0  0  0
 19  5  1  1  0  0  0
 20  1  1  1  0  0  0
 20 19  1  0  0  0  0
 20  3  1  0  0  0  0
 23 22  1  0  0  0  0
 24 23  1  0  0  0  0
 25 24  1  0  0  0  0
 26 25  1  0  0  0  0
 27 33  1  6  0  0  0
 27 30  1  0  0  0  0
 27 32  1  0  0  0  0
 29 26  1  6  0  0  0
 29 28  1  0  0  0  0
 30 31  1  1  0  0  0
 30 29  1  0  0  0  0
 32 28  1  0  0  0  0
 34 38  1  0  0  0  0
 35 39  1  0  0  0  0
 36 35  1  0  0  0  0
 37 34  1  0  0  0  0
 37 36  1  0  0  0  0
 38 41  1  1  0  0  0
 38 39  1  0  0  0  0
 39 33  1  0  0  0  0
 40 41  1  0  0  0  0
 42  7  1  0  0  0  0
 43 42  1  0  0  0  0
 45 46  1  0  0  0  0
 45 44  1  1  0  0  0
 45 43  1  0  0  0  0
 46 49  1  6  0  0  0
 46 50  1  0  0  0  0
 47 49  1  0  0  0  0
 48 49  2  0  0  0  0
 50 51  1  0  0  0  0
 51 52  1  0  0  0  0
 52 56  1  0  0  0  0
 53 56  1  0  0  0  0
 53 54  1  0  0  0  0
 54 57  1  0  0  0  0
 55 57  1  0  0  0  0
 56 55  1  0  0  0  0
M  END
>  <MODEL>
9

>  <REMARK>
 VINA RESULT:      -6.3      1.858      2.884
  Name = 
  18 active torsions:
  status: ('A' for Active; 'I' for Inactive)
    1  A    between atoms: C_6  and  C_28
    2  A    between atoms: C_10  and  C_14
    3  A    between atoms: C_10  and  C_24
    4  A    between atoms: C_12  and  C_18
    5  A    between atoms: C_12  and  C_20
    6  A    between atoms: C_14  and  C_53
    7  A    between atoms: O_15  and  O_19
    8  A    between atoms: O_15  and  C_23
    9  A    between atoms: C_18  and  C_23
   10  A    between atoms: O_19  and  C_42
   11  A    between atoms: C_20  and  N_30
   12  A    between atoms: C_22  and  C_57
   13  A    between atoms: C_23  and  C_56
   14  A    between atoms: C_24  and  C_57
   15  A    between atoms: C_28  and  N_38
   16  A    between atoms: C_31  and  C_53
   17  A    between atoms: C_35  and  C_41
   18  A    between atoms: C_42  and  N_49
                            x       y       z     vdW  Elec       q    Type
                         _______ _______ _______ _____ _____    ______ ____

>  <TORSDO>
F 18

$$$$
