=
 OpenBabel11042418543D

 27 29  0  0  1  0  0  0  0  0999 V2000
  188.8280  175.9270  145.2400 C   0  0  2  0  0  3  0  0  0  0  0  0
  189.5960  174.4330  143.5390 O   0  0  0  0  0  0  0  0  0  0  0  0
  189.0130  175.5170  143.8130 C   0  0  0  0  0  0  0  0  0  0  0  0
  187.3680  177.2440  141.1350 C   0  0  0  0  0  0  0  0  0  0  0  0
  189.0920  177.4860  142.3430 O   0  0  0  0  0  0  0  0  0  0  0  0
  188.5120  176.3760  142.7340 C   0  0  0  0  0  0  0  0  0  0  0  0
  187.3710  176.1500  141.9850 C   0  0  0  0  0  3  0  0  0  0  0  0
  188.4270  178.0410  141.3750 N   0  0  0  0  0  0  0  0  0  0  0  0
  186.3570  177.5250  140.1110 C   0  0  0  0  0  0  0  0  0  0  0  0
  185.2370  178.2840  140.4280 O   0  0  0  0  0  1  0  0  0  0  0  0
  186.4970  177.0810  138.9400 O   0  0  0  0  0  0  0  0  0  0  0  0
  188.5480  177.4240  145.3200 C   0  0  0  0  0  2  0  0  0  0  0  0
  184.1130  179.2320  145.2590 N   0  0  0  0  0  0  0  0  0  0  0  0
  184.8270  178.2190  147.3200 N   0  0  0  0  0  0  0  0  0  0  0  0
  184.9970  178.5880  146.0310 C   0  0  0  0  0  0  0  0  0  0  0  0
  186.2010  178.3310  145.3330 C   0  0  2  0  0  3  0  0  0  0  0  0
  187.0400  177.3260  147.2920 N   0  0  0  0  0  0  0  0  0  0  0  0
  187.2380  177.6830  145.9880 C   0  0  0  0  0  0  0  0  0  0  0  0
  184.7530  179.3860  144.0690 C   0  0  0  0  0  3  0  0  0  0  0  0
  185.8610  177.5820  147.9480 C   0  0  0  0  0  3  0  0  0  0  0  0
  186.0480  178.8460  144.0680 C   0  0  0  0  0  3  0  0  0  0  0  0
  189.9700  175.6030  145.9810 O   0  0  0  0  0  0  0  0  0  0  0  0
  190.7630  176.7550  145.9490 C   0  0  0  0  0  2  0  0  0  0  0  0
  192.1650  176.3910  145.5970 C   0  0  0  0  0  0  0  0  0  0  0  0
  192.4850  176.2450  144.3860 O   0  0  0  0  0  0  0  0  0  0  0  0
  193.1330  176.2110  146.6340 N   0  0  0  0  0  2  0  0  0  0  0  0
  194.5090  175.8380  146.3490 C   0  0  0  0  0  1  0  0  0  0  0  0
  1 12  1  6  0  0  0
  1 22  1  0  0  0  0
  2  3  2  0  0  0  0
  3  1  1  0  0  0  0
  4  8  2  0  0  0  0
  4  7  1  0  0  0  0
  5  6  1  0  0  0  0
  6  3  1  0  0  0  0
  7  6  2  0  0  0  0
  8  5  1  0  0  0  0
  9 10  1  0  0  0  0
  9  4  1  0  0  0  0
 11  9  2  0  0  0  0
 12 18  1  0  0  0  0
 13 15  2  0  0  0  0
 14 20  2  0  0  0  0
 15 14  1  0  0  0  0
 16 21  1  1  0  0  0
 16 18  1  0  0  0  0
 16 15  1  0  0  0  0
 17 20  1  0  0  0  0
 18 17  2  0  0  0  0
 19 13  1  0  0  0  0
 21 19  2  0  0  0  0
 23 22  1  0  0  0  0
 24 23  1  0  0  0  0
 24 26  1  0  0  0  0
 25 24  2  0  0  0  0
 27 26  1  0  0  0  0
M  END
>  <MODEL>
1

>  <REMARK>
 VINA RESULT:      -6.6      0.000      0.000
  Name = 
  8 active torsions:
  status: ('A' for Active; 'I' for Inactive)
    1  A    between atoms: C_5  and  C_13
    2  A    between atoms: C_5  and  C_19
    3  A    between atoms: C_6  and  C_23
    4  A    between atoms: C_7  and  C_8
    5  A    between atoms: C_9  and  C_14
    6  A    between atoms: C_9  and  C_19
    7  A    between atoms: C_19  and  O_20
    8  A    between atoms: O_20  and  C_23
                            x       y       z     vdW  Elec       q    Type
                         _______ _______ _______ _____ _____    ______ ____

>  <TORSDO>
F 8

$$$$
=
 OpenBabel11042418543D

 27 29  0  0  1  0  0  0  0  0999 V2000
  188.4020  176.3030  146.1210 C   0  0  2  0  0  3  0  0  0  0  0  0
  188.8620  174.4830  147.6010 O   0  0  0  0  0  0  0  0  0  0  0  0
  189.3130  175.2980  146.7510 C   0  0  0  0  0  0  0  0  0  0  0  0
  192.8490  175.5990  146.2340 C   0  0  0  0  0  0  0  0  0  0  0  0
  191.2330  174.4700  145.4570 O   0  0  0  0  0  0  0  0  0  0  0  0
  190.7320  175.2600  146.3770 C   0  0  0  0  0  0  0  0  0  0  0  0
  191.7340  176.0340  146.9330 C   0  0  0  0  0  3  0  0  0  0  0  0
  192.5150  174.6480  145.3420 N   0  0  0  0  0  0  0  0  0  0  0  0
  194.2190  176.0870  146.4260 C   0  0  0  0  0  0  0  0  0  0  0  0
  195.2930  175.2170  146.2800 O   0  0  0  0  0  0  0  0  0  0  0  0
  194.4290  177.2930  146.7210 O   0  0  0  0  0  1  0  0  0  0  0  0
  189.1450  177.0700  145.0320 C   0  0  0  0  0  2  0  0  0  0  0  0
  188.1230  175.2620  140.7160 N   0  0  0  0  0  0  0  0  0  0  0  0
  186.9000  177.2270  141.3690 N   0  0  0  0  0  0  0  0  0  0  0  0
  187.8010  176.2390  141.5710 C   0  0  0  0  0  0  0  0  0  0  0  0
  188.5490  176.1440  142.7690 C   0  0  2  0  0  3  0  0  0  0  0  0
  187.4410  178.0790  143.5310 N   0  0  0  0  0  0  0  0  0  0  0  0
  188.3540  177.0900  143.7650 C   0  0  0  0  0  0  0  0  0  0  0  0
  189.0760  174.5430  141.3670 C   0  0  0  0  0  3  0  0  0  0  0  0
  186.7240  178.1490  142.3620 C   0  0  0  0  0  3  0  0  0  0  0  0
  189.3730  175.0530  142.6400 C   0  0  0  0  0  3  0  0  0  0  0  0
  187.9170  177.1840  147.0940 O   0  0  0  0  0  0  0  0  0  0  0  0
  186.5560  176.8830  147.2110 C   0  0  0  0  0  2  0  0  0  0  0  0
  185.7420  178.0320  146.7250 C   0  0  0  0  0  0  0  0  0  0  0  0
  185.8730  179.1620  147.2690 O   0  0  0  0  0  0  0  0  0  0  0  0
  184.8220  177.8430  145.6460 N   0  0  0  0  0  2  0  0  0  0  0  0
  183.9900  178.9240  145.1440 C   0  0  0  0  0  1  0  0  0  0  0  0
  1 12  1  6  0  0  0
  1  3  1  0  0  0  0
  1 22  1  0  0  0  0
  3  2  2  0  0  0  0
  4  9  1  0  0  0  0
  4  7  1  0  0  0  0
  5  6  1  0  0  0  0
  6  3  1  0  0  0  0
  6  7  2  0  0  0  0
  8  5  1  0  0  0  0
  8  4  2  0  0  0  0
  9 11  1  0  0  0  0
 10  9  2  0  0  0  0
 13 19  1  0  0  0  0
 13 15  2  0  0  0  0
 14 15  1  0  0  0  0
 14 20  2  0  0  0  0
 15 16  1  0  0  0  0
 16 21  1  6  0  0  0
 16 18  1  0  0  0  0
 17 18  2  0  0  0  0
 18 12  1  0  0  0  0
 19 21  2  0  0  0  0
 20 17  1  0  0  0  0
 22 23  1  0  0  0  0
 24 23  1  0  0  0  0
 24 25  2  0  0  0  0
 26 24  1  0  0  0  0
 27 26  1  0  0  0  0
M  END
>  <MODEL>
2

>  <REMARK>
 VINA RESULT:      -6.4      2.752      6.638
  Name = 
  8 active torsions:
  status: ('A' for Active; 'I' for Inactive)
    1  A    between atoms: C_5  and  C_13
    2  A    between atoms: C_5  and  C_19
    3  A    between atoms: C_6  and  C_23
    4  A    between atoms: C_7  and  C_8
    5  A    between atoms: C_9  and  C_14
    6  A    between atoms: C_9  and  C_19
    7  A    between atoms: C_19  and  O_20
    8  A    between atoms: O_20  and  C_23
                            x       y       z     vdW  Elec       q    Type
                         _______ _______ _______ _____ _____    ______ ____

>  <TORSDO>
F 8

$$$$
=
 OpenBabel11042418543D

 27 29  0  0  1  0  0  0  0  0999 V2000
  187.6360  176.4330  141.8310 C   0  0  2  0  0  3  0  0  0  0  0  0
  188.8690  178.4750  141.6800 O   0  0  0  0  0  0  0  0  0  0  0  0
  188.7560  177.3430  142.2240 C   0  0  0  0  0  0  0  0  0  0  0  0
  190.8240  176.6370  145.0670 C   0  0  0  0  0  0  0  0  0  0  0  0
  190.7000  176.0710  143.0290 O   0  0  0  0  0  0  0  0  0  0  0  0
  189.7210  176.9170  143.2440 C   0  0  0  0  0  0  0  0  0  0  0  0
  189.7380  177.3350  144.5630 C   0  0  0  0  0  3  0  0  0  0  0  0
  191.3910  175.8760  144.1120 N   0  0  0  0  0  0  0  0  0  0  0  0
  191.3070  176.6950  146.4510 C   0  0  0  0  0  0  0  0  0  0  0  0
  190.4410  177.0610  147.4740 O   0  0  0  0  0  1  0  0  0  0  0  0
  192.5050  176.4140  146.7190 O   0  0  0  0  0  0  0  0  0  0  0  0
  186.9290  175.9070  143.0760 C   0  0  0  0  0  2  0  0  0  0  0  0
  184.7960  178.2030  146.6990 N   0  0  0  0  0  0  0  0  0  0  0  0
  184.0050  178.7250  144.4880 N   0  0  0  0  0  0  0  0  0  0  0  0
  184.8110  178.0860  145.3660 C   0  0  0  0  0  0  0  0  0  0  0  0
  185.7960  177.1630  144.9400 C   0  0  2  0  0  3  0  0  0  0  0  0
  185.1090  177.5610  142.7210 N   0  0  0  0  0  0  0  0  0  0  0  0
  185.9400  176.9040  143.5840 C   0  0  0  0  0  0  0  0  0  0  0  0
  185.7710  177.3550  147.1240 C   0  0  0  0  0  3  0  0  0  0  0  0
  184.1630  178.4560  143.1570 C   0  0  0  0  0  3  0  0  0  0  0  0
  186.4150  176.6880  146.0700 C   0  0  0  0  0  3  0  0  0  0  0  0
  188.1290  175.3700  141.0650 O   0  0  0  0  0  0  0  0  0  0  0  0
  187.8980  174.2270  141.8370 C   0  0  0  0  0  2  0  0  0  0  0  0
  189.0610  173.3020  141.7270 C   0  0  0  0  0  0  0  0  0  0  0  0
  189.9550  173.5250  140.8670 O   0  0  0  0  0  0  0  0  0  0  0  0
  189.1520  172.1720  142.5990 N   0  0  0  0  0  2  0  0  0  0  0  0
  190.2550  171.2270  142.5240 C   0  0  0  0  0  1  0  0  0  0  0  0
  1  3  1  0  0  0  0
  1 12  1  1  0  0  0
  2  3  2  0  0  0  0
  3  6  1  0  0  0  0
  4  9  1  0  0  0  0
  5  6  1  0  0  0  0
  5  8  1  0  0  0  0
  6  7  2  0  0  0  0
  7  4  1  0  0  0  0
  8  4  2  0  0  0  0
  9 11  2  0  0  0  0
  9 10  1  0  0  0  0
 12 18  1  0  0  0  0
 13 19  1  0  0  0  0
 14 15  1  0  0  0  0
 15 13  2  0  0  0  0
 16 15  1  0  0  0  0
 16 21  1  1  0  0  0
 17 20  1  0  0  0  0
 17 18  2  0  0  0  0
 18 16  1  0  0  0  0
 20 14  2  0  0  0  0
 21 19  2  0  0  0  0
 22  1  1  0  0  0  0
 22 23  1  0  0  0  0
 24 23  1  0  0  0  0
 24 26  1  0  0  0  0
 25 24  2  0  0  0  0
 27 26  1  0  0  0  0
M  END
>  <MODEL>
3

>  <REMARK>
 VINA RESULT:      -6.4      2.295      5.015
  Name = 
  8 active torsions:
  status: ('A' for Active; 'I' for Inactive)
    1  A    between atoms: C_5  and  C_13
    2  A    between atoms: C_5  and  C_19
    3  A    between atoms: C_6  and  C_23
    4  A    between atoms: C_7  and  C_8
    5  A    between atoms: C_9  and  C_14
    6  A    between atoms: C_9  and  C_19
    7  A    between atoms: C_19  and  O_20
    8  A    between atoms: O_20  and  C_23
                            x       y       z     vdW  Elec       q    Type
                         _______ _______ _______ _____ _____    ______ ____

>  <TORSDO>
F 8

$$$$
=
 OpenBabel11042418543D

 27 29  0  0  1  0  0  0  0  0999 V2000
  189.1990  176.5910  143.2610 C   0  0  2  0  0  3  0  0  0  0  0  0
  188.1300  177.3710  141.2710 O   0  0  0  0  0  0  0  0  0  0  0  0
  188.1390  177.3540  142.5310 C   0  0  0  0  0  0  0  0  0  0  0  0
  185.7520  178.7780  144.7970 C   0  0  0  0  0  0  0  0  0  0  0  0
  186.4130  179.0830  142.8070 O   0  0  0  0  0  0  0  0  0  0  0  0
  187.1090  178.0790  143.2850 C   0  0  0  0  0  0  0  0  0  0  0  0
  186.7300  177.8190  144.5900 C   0  0  0  0  0  3  0  0  0  0  0  0
  185.5790  179.5330  143.6960 N   0  0  0  0  0  0  0  0  0  0  0  0
  184.9980  178.9710  146.0400 C   0  0  0  0  0  0  0  0  0  0  0  0
  185.6620  179.3270  147.2080 O   0  0  0  0  0  1  0  0  0  0  0  0
  183.7480  178.8170  146.0560 O   0  0  0  0  0  0  0  0  0  0  0  0
  190.3280  177.5300  143.6730 C   0  0  0  0  0  2  0  0  0  0  0  0
  193.8980  175.9310  146.4370 N   0  0  0  0  0  0  0  0  0  0  0  0
  191.8080  176.3740  147.5400 N   0  0  0  0  0  0  0  0  0  0  0  0
  192.6220  176.3340  146.4630 C   0  0  0  0  0  0  0  0  0  0  0  0
  192.1780  176.7210  145.1750 C   0  0  2  0  0  3  0  0  0  0  0  0
  190.0670  177.1780  146.1190 N   0  0  0  0  0  0  0  0  0  0  0  0
  190.8690  177.1530  145.0130 C   0  0  0  0  0  0  0  0  0  0  0  0
  194.2680  176.0610  145.1350 C   0  0  0  0  0  3  0  0  0  0  0  0
  190.5220  176.8020  147.3590 C   0  0  0  0  0  3  0  0  0  0  0  0
  193.2360  176.5440  144.3170 C   0  0  0  0  0  3  0  0  0  0  0  0
  189.6920  175.5620  142.4510 O   0  0  0  0  0  0  0  0  0  0  0  0
  189.1530  174.3880  142.9850 C   0  0  0  0  0  2  0  0  0  0  0  0
  190.0770  173.8330  144.0140 C   0  0  0  0  0  0  0  0  0  0  0  0
  189.6870  173.7270  145.2090 O   0  0  0  0  0  0  0  0  0  0  0  0
  191.3940  173.4240  143.6370 N   0  0  0  0  0  2  0  0  0  0  0  0
  192.3430  172.8940  144.6030 C   0  0  0  0  0  1  0  0  0  0  0  0
  1 12  1  6  0  0  0
  2  3  2  0  0  0  0
  3  1  1  0  0  0  0
  3  6  1  0  0  0  0
  4  9  1  0  0  0  0
  5  6  1  0  0  0  0
  5  8  1  0  0  0  0
  6  7  2  0  0  0  0
  7  4  1  0  0  0  0
  8  4  2  0  0  0  0
  9 11  2  0  0  0  0
  9 10  1  0  0  0  0
 12 18  1  0  0  0  0
 13 15  2  0  0  0  0
 15 14  1  0  0  0  0
 16 21  1  6  0  0  0
 16 15  1  0  0  0  0
 17 20  1  0  0  0  0
 18 16  1  0  0  0  0
 18 17  2  0  0  0  0
 19 13  1  0  0  0  0
 20 14  2  0  0  0  0
 21 19  2  0  0  0  0
 22 23  1  0  0  0  0
 22  1  1  0  0  0  0
 23 24  1  0  0  0  0
 24 25  2  0  0  0  0
 26 24  1  0  0  0  0
 26 27  1  0  0  0  0
M  END
>  <MODEL>
4

>  <REMARK>
 VINA RESULT:      -6.3      2.446      5.451
  Name = 
  8 active torsions:
  status: ('A' for Active; 'I' for Inactive)
    1  A    between atoms: C_5  and  C_13
    2  A    between atoms: C_5  and  C_19
    3  A    between atoms: C_6  and  C_23
    4  A    between atoms: C_7  and  C_8
    5  A    between atoms: C_9  and  C_14
    6  A    between atoms: C_9  and  C_19
    7  A    between atoms: C_19  and  O_20
    8  A    between atoms: O_20  and  C_23
                            x       y       z     vdW  Elec       q    Type
                         _______ _______ _______ _____ _____    ______ ____

>  <TORSDO>
F 8

$$$$
=
 OpenBabel11042418543D

 27 29  0  0  1  0  0  0  0  0999 V2000
  188.8800  176.6100  143.5930 C   0  0  2  0  0  3  0  0  0  0  0  0
  189.3180  174.4750  144.5730 O   0  0  0  0  0  0  0  0  0  0  0  0
  189.7800  175.5940  144.2210 C   0  0  0  0  0  0  0  0  0  0  0  0
  193.1560  176.2150  145.2560 C   0  0  0  0  0  0  0  0  0  0  0  0
  192.0210  176.2680  143.4680 O   0  0  0  0  0  0  0  0  0  0  0  0
  191.2010  175.9000  144.4230 C   0  0  0  0  0  0  0  0  0  0  0  0
  191.8750  175.8430  145.6300 C   0  0  0  0  0  3  0  0  0  0  0  0
  193.2170  176.4680  143.9350 N   0  0  0  0  0  0  0  0  0  0  0  0
  194.3100  176.3190  146.1560 C   0  0  0  0  0  0  0  0  0  0  0  0
  194.5530  177.5030  146.8400 O   0  0  0  0  0  1  0  0  0  0  0  0
  195.0850  175.3380  146.3130 O   0  0  0  0  0  0  0  0  0  0  0  0
  188.7150  177.8080  144.5230 C   0  0  0  0  0  2  0  0  0  0  0  0
  184.1820  178.9650  145.5480 N   0  0  0  0  0  0  0  0  0  0  0  0
  185.2500  177.4060  147.0360 N   0  0  0  0  0  0  0  0  0  0  0  0
  185.2120  178.2100  145.9500 C   0  0  0  0  0  0  0  0  0  0  0  0
  186.3260  178.3580  145.0900 C   0  0  2  0  0  3  0  0  0  0  0  0
  187.5040  176.8570  146.4730 N   0  0  0  0  0  0  0  0  0  0  0  0
  187.4920  177.6590  145.3670 C   0  0  0  0  0  0  0  0  0  0  0  0
  184.6380  179.5940  144.4320 C   0  0  0  0  0  3  0  0  0  0  0  0
  186.4090  176.7260  147.2910 C   0  0  0  0  0  3  0  0  0  0  0  0
  185.9600  179.2500  144.1110 C   0  0  0  0  0  3  0  0  0  0  0  0
  187.6340  176.0370  143.3110 O   0  0  0  0  0  0  0  0  0  0  0  0
  187.6270  175.8450  141.9260 C   0  0  0  0  0  2  0  0  0  0  0  0
  187.0030  177.0220  141.2590 C   0  0  0  0  0  0  0  0  0  0  0  0
  187.7260  177.8270  140.6100 O   0  0  0  0  0  0  0  0  0  0  0  0
  185.5910  177.2280  141.3580 N   0  0  0  0  0  2  0  0  0  0  0  0
  184.9330  178.3690  140.7430 C   0  0  0  0  0  1  0  0  0  0  0  0
  1  3  1  0  0  0  0
  1 12  1  1  0  0  0
  3  6  1  0  0  0  0
  3  2  2  0  0  0  0
  4  7  1  0  0  0  0
  4  9  1  0  0  0  0
  5  8  1  0  0  0  0
  5  6  1  0  0  0  0
  6  7  2  0  0  0  0
  8  4  2  0  0  0  0
  9 11  2  0  0  0  0
  9 10  1  0  0  0  0
 12 18  1  0  0  0  0
 13 15  2  0  0  0  0
 14 20  2  0  0  0  0
 15 14  1  0  0  0  0
 16 21  1  1  0  0  0
 16 18  1  0  0  0  0
 16 15  1  0  0  0  0
 17 20  1  0  0  0  0
 18 17  2  0  0  0  0
 19 13  1  0  0  0  0
 21 19  2  0  0  0  0
 22  1  1  0  0  0  0
 23 22  1  0  0  0  0
 24 26  1  0  0  0  0
 24 23  1  0  0  0  0
 25 24  2  0  0  0  0
 27 26  1  0  0  0  0
M  END
>  <MODEL>
5

>  <REMARK>
 VINA RESULT:      -6.2      1.570      5.613
  Name = 
  8 active torsions:
  status: ('A' for Active; 'I' for Inactive)
    1  A    between atoms: C_5  and  C_13
    2  A    between atoms: C_5  and  C_19
    3  A    between atoms: C_6  and  C_23
    4  A    between atoms: C_7  and  C_8
    5  A    between atoms: C_9  and  C_14
    6  A    between atoms: C_9  and  C_19
    7  A    between atoms: C_19  and  O_20
    8  A    between atoms: O_20  and  C_23
                            x       y       z     vdW  Elec       q    Type
                         _______ _______ _______ _____ _____    ______ ____

>  <TORSDO>
F 8

$$$$
=
 OpenBabel11042418543D

 27 29  0  0  1  0  0  0  0  0999 V2000
  188.7000  176.4750  144.8070 C   0  0  2  0  0  3  0  0  0  0  0  0
  189.5860  174.8340  143.3120 O   0  0  0  0  0  0  0  0  0  0  0  0
  189.7650  175.5310  144.3470 C   0  0  0  0  0  0  0  0  0  0  0  0
  193.0010  175.7010  145.8830 C   0  0  0  0  0  0  0  0  0  0  0  0
  191.2420  174.5300  146.0390 O   0  0  0  0  0  0  0  0  0  0  0  0
  191.0190  175.4200  145.1010 C   0  0  0  0  0  0  0  0  0  0  0  0
  192.1320  176.2260  144.9400 C   0  0  0  0  0  3  0  0  0  0  0  0
  192.4340  174.6690  146.5370 N   0  0  0  0  0  0  0  0  0  0  0  0
  194.3570  176.1880  146.1570 C   0  0  0  0  0  0  0  0  0  0  0  0
  194.5510  177.4880  146.6050 O   0  0  0  0  0  1  0  0  0  0  0  0
  195.3510  175.4320  145.9890 O   0  0  0  0  0  0  0  0  0  0  0  0
  188.7530  177.7610  143.9890 C   0  0  0  0  0  2  0  0  0  0  0  0
  185.6390  177.7170  140.3500 N   0  0  0  0  0  0  0  0  0  0  0  0
  184.9020  178.7860  142.3750 N   0  0  0  0  0  0  0  0  0  0  0  0
  185.7960  178.1090  141.6200 C   0  0  0  0  0  0  0  0  0  0  0  0
  187.0680  177.7400  142.1190 C   0  0  2  0  0  3  0  0  0  0  0  0
  186.4890  178.7700  144.1580 N   0  0  0  0  0  0  0  0  0  0  0  0
  187.4100  178.0820  143.4200 C   0  0  0  0  0  0  0  0  0  0  0  0
  186.8090  177.0980  140.0390 C   0  0  0  0  0  3  0  0  0  0  0  0
  185.2580  179.1140  143.6530 C   0  0  0  0  0  3  0  0  0  0  0  0
  187.7240  177.0900  141.1020 C   0  0  0  0  0  3  0  0  0  0  0  0
  188.8660  176.7560  146.1680 O   0  0  0  0  0  0  0  0  0  0  0  0
  187.8440  176.0510  146.8120 C   0  0  0  0  0  2  0  0  0  0  0  0
  186.6350  176.9140  146.9310 C   0  0  0  0  0  0  0  0  0  0  0  0
  185.5270  176.4970  146.4970 O   0  0  0  0  0  0  0  0  0  0  0  0
  186.7420  178.2050  147.5380 N   0  0  0  0  0  2  0  0  0  0  0  0
  185.5990  179.0950  147.6630 C   0  0  0  0  0  1  0  0  0  0  0  0
  1 12  1  6  0  0  0
  1 22  1  0  0  0  0
  2  3  2  0  0  0  0
  3  1  1  0  0  0  0
  3  6  1  0  0  0  0
  4  9  1  0  0  0  0
  4  8  2  0  0  0  0
  5  8  1  0  0  0  0
  6  5  1  0  0  0  0
  7  6  2  0  0  0  0
  7  4  1  0  0  0  0
  9 10  1  0  0  0  0
 11  9  2  0  0  0  0
 13 15  2  0  0  0  0
 14 20  2  0  0  0  0
 15 16  1  0  0  0  0
 15 14  1  0  0  0  0
 16 21  1  6  0  0  0
 16 18  1  0  0  0  0
 18 12  1  0  0  0  0
 18 17  2  0  0  0  0
 19 13  1  0  0  0  0
 19 21  2  0  0  0  0
 20 17  1  0  0  0  0
 22 23  1  0  0  0  0
 23 24  1  0  0  0  0
 24 26  1  0  0  0  0
 25 24  2  0  0  0  0
 26 27  1  0  0  0  0
M  END
>  <MODEL>
6

>  <REMARK>
 VINA RESULT:      -6.2      2.270      5.917
  Name = 
  8 active torsions:
  status: ('A' for Active; 'I' for Inactive)
    1  A    between atoms: C_5  and  C_13
    2  A    between atoms: C_5  and  C_19
    3  A    between atoms: C_6  and  C_23
    4  A    between atoms: C_7  and  C_8
    5  A    between atoms: C_9  and  C_14
    6  A    between atoms: C_9  and  C_19
    7  A    between atoms: C_19  and  O_20
    8  A    between atoms: O_20  and  C_23
                            x       y       z     vdW  Elec       q    Type
                         _______ _______ _______ _____ _____    ______ ____

>  <TORSDO>
F 8

$$$$
=
 OpenBabel11042418543D

 27 29  0  0  1  0  0  0  0  0999 V2000
  189.5700  176.9480  145.5330 C   0  0  2  0  0  3  0  0  0  0  0  0
  190.4390  177.1950  147.7470 O   0  0  0  0  0  0  0  0  0  0  0  0
  190.6040  176.7200  146.5910 C   0  0  0  0  0  0  0  0  0  0  0  0
  193.8040  175.3200  145.7770 C   0  0  0  0  0  0  0  0  0  0  0  0
  191.8590  174.6320  146.2620 O   0  0  0  0  0  0  0  0  0  0  0  0
  191.8090  175.9430  146.2800 C   0  0  0  0  0  0  0  0  0  0  0  0
  193.0510  176.4680  145.9690 C   0  0  0  0  0  3  0  0  0  0  0  0
  193.0540  174.2170  145.9610 N   0  0  0  0  0  0  0  0  0  0  0  0
  195.2280  175.2840  145.4280 C   0  0  0  0  0  0  0  0  0  0  0  0
  196.0670  174.3540  146.0280 O   0  0  0  0  0  1  0  0  0  0  0  0
  195.6960  176.0920  144.5820 O   0  0  0  0  0  0  0  0  0  0  0  0
  188.2880  176.2040  145.8880 C   0  0  0  0  0  2  0  0  0  0  0  0
  184.3550  178.5630  144.5060 N   0  0  0  0  0  0  0  0  0  0  0  0
  185.1670  179.0400  146.7200 N   0  0  0  0  0  0  0  0  0  0  0  0
  185.2010  178.3990  145.5300 C   0  0  0  0  0  0  0  0  0  0  0  0
  186.2030  177.4470  145.2240 C   0  0  2  0  0  3  0  0  0  0  0  0
  187.1210  177.8300  147.3600 N   0  0  0  0  0  0  0  0  0  0  0  0
  187.1790  177.1640  146.1690 C   0  0  0  0  0  0  0  0  0  0  0  0
  184.8170  177.7170  143.5470 C   0  0  0  0  0  3  0  0  0  0  0  0
  186.1370  178.7470  147.6370 C   0  0  0  0  0  3  0  0  0  0  0  0
  185.9600  177.0070  143.9460 C   0  0  0  0  0  3  0  0  0  0  0  0
  190.0550  176.5200  144.2920 O   0  0  0  0  0  0  0  0  0  0  0  0
  189.9680  177.6420  143.4610 C   0  0  0  0  0  2  0  0  0  0  0  0
  189.0510  177.3560  142.3220 C   0  0  0  0  0  0  0  0  0  0  0  0
  188.5750  178.3110  141.6510 O   0  0  0  0  0  0  0  0  0  0  0  0
  188.7210  176.0020  142.0010 N   0  0  0  0  0  2  0  0  0  0  0  0
  187.8170  175.6660  140.9130 C   0  0  0  0  0  1  0  0  0  0  0  0
  1 12  1  1  0  0  0
  1  3  1  0  0  0  0
  3  2  2  0  0  0  0
  4  8  2  0  0  0  0
  4  7  1  0  0  0  0
  5  6  1  0  0  0  0
  6  3  1  0  0  0  0
  7  6  2  0  0  0  0
  8  5  1  0  0  0  0
  9  4  1  0  0  0  0
  9 10  1  0  0  0  0
 11  9  2  0  0  0  0
 12 18  1  0  0  0  0
 13 15  2  0  0  0  0
 14 20  2  0  0  0  0
 15 14  1  0  0  0  0
 16 21  1  6  0  0  0
 16 15  1  0  0  0  0
 16 18  1  0  0  0  0
 17 20  1  0  0  0  0
 18 17  2  0  0  0  0
 19 21  2  0  0  0  0
 19 13  1  0  0  0  0
 22  1  1  0  0  0  0
 23 22  1  0  0  0  0
 24 23  1  0  0  0  0
 25 24  2  0  0  0  0
 26 24  1  0  0  0  0
 27 26  1  0  0  0  0
M  END
>  <MODEL>
7

>  <REMARK>
 VINA RESULT:      -6.2      1.768      5.606
  Name = 
  8 active torsions:
  status: ('A' for Active; 'I' for Inactive)
    1  A    between atoms: C_5  and  C_13
    2  A    between atoms: C_5  and  C_19
    3  A    between atoms: C_6  and  C_23
    4  A    between atoms: C_7  and  C_8
    5  A    between atoms: C_9  and  C_14
    6  A    between atoms: C_9  and  C_19
    7  A    between atoms: C_19  and  O_20
    8  A    between atoms: O_20  and  C_23
                            x       y       z     vdW  Elec       q    Type
                         _______ _______ _______ _____ _____    ______ ____

>  <TORSDO>
F 8

$$$$
=
 OpenBabel11042418543D

 27 29  0  0  1  0  0  0  0  0999 V2000
  188.6830  176.9630  142.6450 C   0  0  2  0  0  3  0  0  0  0  0  0
  187.1650  177.9220  141.0660 O   0  0  0  0  0  0  0  0  0  0  0  0
  187.4750  177.7660  142.2780 C   0  0  0  0  0  0  0  0  0  0  0  0
  185.6760  178.8420  145.1880 C   0  0  0  0  0  0  0  0  0  0  0  0
  185.8810  179.4180  143.1590 O   0  0  0  0  0  0  0  0  0  0  0  0
  186.6510  178.3690  143.3320 C   0  0  0  0  0  0  0  0  0  0  0  0
  186.5680  177.9330  144.6420 C   0  0  0  0  0  3  0  0  0  0  0  0
  185.2730  179.7340  144.2640 N   0  0  0  0  0  0  0  0  0  0  0  0
  185.2210  178.8560  146.5820 C   0  0  0  0  0  0  0  0  0  0  0  0
  186.0600  179.3350  147.5820 O   0  0  0  0  0  1  0  0  0  0  0  0
  184.0720  178.4380  146.8810 O   0  0  0  0  0  0  0  0  0  0  0  0
  189.8830  177.8830  142.8390 C   0  0  0  0  0  2  0  0  0  0  0  0
  191.6930  176.2620  146.9670 N   0  0  0  0  0  0  0  0  0  0  0  0
  193.0580  175.9630  145.0100 N   0  0  0  0  0  0  0  0  0  0  0  0
  191.9410  176.3650  145.6560 C   0  0  0  0  0  0  0  0  0  0  0  0
  190.8670  176.9880  144.9750 C   0  0  2  0  0  3  0  0  0  0  0  0
  192.1040  176.7790  142.9800 N   0  0  0  0  0  0  0  0  0  0  0  0
  190.9620  177.1920  143.6060 C   0  0  0  0  0  0  0  0  0  0  0  0
  190.4610  176.8180  147.1230 C   0  0  0  0  0  3  0  0  0  0  0  0
  193.1310  176.1730  143.6610 C   0  0  0  0  0  3  0  0  0  0  0  0
  189.9120  177.2820  145.9180 C   0  0  0  0  0  3  0  0  0  0  0  0
  188.9490  176.0180  141.6460 O   0  0  0  0  0  0  0  0  0  0  0  0
  188.4090  174.8200  142.1250 C   0  0  0  0  0  2  0  0  0  0  0  0
  189.4930  173.8130  142.3000 C   0  0  0  0  0  0  0  0  0  0  0  0
  189.3250  172.8480  143.0930 O   0  0  0  0  0  0  0  0  0  0  0  0
  190.7130  173.9500  141.5650 N   0  0  0  0  0  2  0  0  0  0  0  0
  191.8110  173.0080  141.7110 C   0  0  0  0  0  1  0  0  0  0  0  0
  1 12  1  6  0  0  0
  2  3  2  0  0  0  0
  3  1  1  0  0  0  0
  3  6  1  0  0  0  0
  4  9  1  0  0  0  0
  5  6  1  0  0  0  0
  5  8  1  0  0  0  0
  6  7  2  0  0  0  0
  7  4  1  0  0  0  0
  8  4  2  0  0  0  0
  9 11  2  0  0  0  0
  9 10  1  0  0  0  0
 12 18  1  0  0  0  0
 13 19  1  0  0  0  0
 14 15  1  0  0  0  0
 15 13  2  0  0  0  0
 16 15  1  0  0  0  0
 16 21  1  1  0  0  0
 17 18  2  0  0  0  0
 17 20  1  0  0  0  0
 18 16  1  0  0  0  0
 20 14  2  0  0  0  0
 21 19  2  0  0  0  0
 22 23  1  0  0  0  0
 22  1  1  0  0  0  0
 23 24  1  0  0  0  0
 24 25  2  0  0  0  0
 26 27  1  0  0  0  0
 26 24  1  0  0  0  0
M  END
>  <MODEL>
8

>  <REMARK>
 VINA RESULT:      -6.1      2.636      5.746
  Name = 
  8 active torsions:
  status: ('A' for Active; 'I' for Inactive)
    1  A    between atoms: C_5  and  C_13
    2  A    between atoms: C_5  and  C_19
    3  A    between atoms: C_6  and  C_23
    4  A    between atoms: C_7  and  C_8
    5  A    between atoms: C_9  and  C_14
    6  A    between atoms: C_9  and  C_19
    7  A    between atoms: C_19  and  O_20
    8  A    between atoms: O_20  and  C_23
                            x       y       z     vdW  Elec       q    Type
                         _______ _______ _______ _____ _____    ______ ____

>  <TORSDO>
F 8

$$$$
=
 OpenBabel11042418543D

 27 29  0  0  1  0  0  0  0  0999 V2000
  190.3010  175.8310  145.4650 C   0  0  2  0  0  3  0  0  0  0  0  0
  190.7120  175.2760  147.7540 O   0  0  0  0  0  0  0  0  0  0  0  0
  191.2030  175.5590  146.6280 C   0  0  0  0  0  0  0  0  0  0  0  0
  194.7070  175.2090  145.9520 C   0  0  0  0  0  0  0  0  0  0  0  0
  193.4090  176.6240  146.8480 O   0  0  0  0  0  0  0  0  0  0  0  0
  192.6590  175.6210  146.4540 C   0  0  0  0  0  0  0  0  0  0  0  0
  193.4430  174.6500  145.8570 C   0  0  0  0  0  3  0  0  0  0  0  0
  194.6570  176.4090  146.5600 N   0  0  0  0  0  0  0  0  0  0  0  0
  195.9470  174.5990  145.4600 C   0  0  0  0  0  0  0  0  0  0  0  0
  196.7540  173.8700  146.3250 O   0  0  0  0  0  1  0  0  0  0  0  0
  196.2860  174.7320  144.2540 O   0  0  0  0  0  0  0  0  0  0  0  0
  189.6680  177.2100  145.6070 C   0  0  0  0  0  2  0  0  0  0  0  0
  185.5550  177.9470  143.2660 N   0  0  0  0  0  0  0  0  0  0  0  0
  187.5740  178.2000  141.9850 N   0  0  0  0  0  0  0  0  0  0  0  0
  186.8850  177.9520  143.1210 C   0  0  0  0  0  0  0  0  0  0  0  0
  187.5370  177.6380  144.3370 C   0  0  2  0  0  3  0  0  0  0  0  0
  189.5940  177.8310  143.2020 N   0  0  0  0  0  0  0  0  0  0  0  0
  188.9240  177.5810  144.3660 C   0  0  0  0  0  0  0  0  0  0  0  0
  185.3570  177.6300  144.5730 C   0  0  0  0  0  3  0  0  0  0  0  0
  188.9390  178.1390  142.0350 C   0  0  0  0  0  3  0  0  0  0  0  0
  186.5560  177.4280  145.2750 C   0  0  0  0  0  3  0  0  0  0  0  0
  189.3110  174.8440  145.3890 O   0  0  0  0  0  0  0  0  0  0  0  0
  189.8900  173.8040  144.6550 C   0  0  0  0  0  2  0  0  0  0  0  0
  189.7790  174.0930  143.1980 C   0  0  0  0  0  0  0  0  0  0  0  0
  190.8160  174.0800  142.4800 O   0  0  0  0  0  0  0  0  0  0  0  0
  188.5000  174.3810  142.6270 N   0  0  0  0  0  2  0  0  0  0  0  0
  188.3370  174.6880  141.2150 C   0  0  0  0  0  1  0  0  0  0  0  0
  1 12  1  1  0  0  0
  1  3  1  0  0  0  0
  3  2  2  0  0  0  0
  4  8  2  0  0  0  0
  6  3  1  0  0  0  0
  6  5  1  0  0  0  0
  7  4  1  0  0  0  0
  7  6  2  0  0  0  0
  8  5  1  0  0  0  0
  9  4  1  0  0  0  0
  9 10  1  0  0  0  0
 11  9  2  0  0  0  0
 13 19  1  0  0  0  0
 14 20  2  0  0  0  0
 14 15  1  0  0  0  0
 15 13  2  0  0  0  0
 15 16  1  0  0  0  0
 16 18  1  0  0  0  0
 16 21  1  6  0  0  0
 17 18  2  0  0  0  0
 18 12  1  0  0  0  0
 19 21  2  0  0  0  0
 20 17  1  0  0  0  0
 22  1  1  0  0  0  0
 23 22  1  0  0  0  0
 24 23  1  0  0  0  0
 25 24  2  0  0  0  0
 26 24  1  0  0  0  0
 27 26  1  0  0  0  0
M  END
>  <MODEL>
9

>  <REMARK>
 VINA RESULT:      -6.1      2.825      6.219
  Name = 
  8 active torsions:
  status: ('A' for Active; 'I' for Inactive)
    1  A    between atoms: C_5  and  C_13
    2  A    between atoms: C_5  and  C_19
    3  A    between atoms: C_6  and  C_23
    4  A    between atoms: C_7  and  C_8
    5  A    between atoms: C_9  and  C_14
    6  A    between atoms: C_9  and  C_19
    7  A    between atoms: C_19  and  O_20
    8  A    between atoms: O_20  and  C_23
                            x       y       z     vdW  Elec       q    Type
                         _______ _______ _______ _____ _____    ______ ____

>  <TORSDO>
F 8

$$$$
