=
 OpenBabel11042416003D

 52 57  0  0  1  0  0  0  0  0999 V2000
  190.5940  173.1460  144.7180 O   0  0  0  0  0  0  0  0  0  0  0  0
  191.9040  172.9690  144.7280 C   0  0  0  0  0  0  0  0  0  0  0  0
  189.1000  174.7760  145.7210 C   0  0  0  0  0  3  0  0  0  0  0  0
  190.3430  174.2100  145.4450 C   0  0  0  0  0  0  0  0  0  0  0  0
  190.2750  176.4730  147.0410 C   0  0  0  0  0  3  0  0  0  0  0  0
  189.0700  175.9280  146.5300 C   0  0  0  0  0  0  0  0  0  0  0  0
  191.5060  174.7450  145.9410 C   0  0  0  0  0  0  0  0  0  0  0  0
  192.5300  173.9530  145.4810 C   0  0  0  0  0  0  0  0  0  0  0  0
  191.5140  175.8800  146.7480 C   0  0  0  0  0  3  0  0  0  0  0  0
  187.7520  176.5640  146.8490 C   0  0  1  0  0  3  0  0  0  0  0  0
  187.9790  177.7900  147.4830 O   0  0  0  0  0  1  0  0  0  0  0  0
  187.7480  177.2230  144.4240 C   0  0  0  0  0  2  0  0  0  0  0  0
  186.9690  177.3010  143.1790 N   0  0  0  0  0  0  0  0  0  0  0  0
  185.9900  178.3940  143.3700 C   0  0  2  0  0  3  0  0  0  0  0  0
  185.7860  177.7890  145.8140 C   0  0  1  0  0  3  0  0  0  0  0  0
  184.8750  177.3490  146.7730 O   0  0  0  0  0  1  0  0  0  0  0  0
  186.8840  176.7460  145.5910 C   0  0  2  0  0  3  0  0  0  0  0  0
  185.0350  178.0510  144.5170 C   0  0  0  0  0  2  0  0  0  0  0  0
  187.4780  177.1250  140.8690 O   0  0  0  0  0  1  0  0  0  0  0  0
  187.9250  177.6270  142.0940 C   0  0  2  0  0  3  0  0  0  0  0  0
  189.2910  177.0480  142.3480 C   0  0  0  0  0  0  0  0  0  0  0  0
  190.3830  177.9250  142.8550 C   0  0  0  0  0  1  0  0  0  0  0  0
  189.5090  175.8620  142.1560 O   0  0  0  0  0  0  0  0  0  0  0  0
  185.1180  178.6240  142.1380 C   0  0  0  0  0  2  0  0  0  0  0  0
  183.6710  178.2480  142.4250 C   0  0  0  0  0  2  0  0  0  0  0  0
  181.4030  178.3010  141.1910 C   0  0  0  0  0  1  0  0  0  0  0  0
  183.4450  177.9400  140.0980 O   0  0  0  0  0  0  0  0  0  0  0  0
  182.8830  178.1510  141.1590 C   0  0  0  0  0  0  0  0  0  0  0  0
  192.5630  171.9380  144.0600 O   0  0  0  0  0  0  0  0  0  0  0  0
  189.9740  170.6030  138.5280 C   0  0  0  0  0  1  0  0  0  0  0  0
  191.8510  170.9870  143.2800 C   0  0  2  0  0  3  0  0  0  0  0  0
  192.5470  172.6160  141.3590 C   0  0  0  0  0  2  0  0  0  0  0  0
  191.5650  173.4710  140.5710 C   0  0  0  0  0  2  0  0  0  0  0  0
  190.9730  172.6740  139.4420 C   0  0  0  0  0  0  0  0  0  0  0  0
  192.7260  170.4020  142.3420 O   0  0  0  0  0  0  0  0  0  0  0  0
  190.7370  170.7180  140.9780 C   0  0  0  0  0  2  0  0  0  0  0  0
  191.8250  171.3590  141.8440 C   0  0  1  0  0  0  0  0  0  0  0  0
  190.8230  173.4620  137.8730 Cl  0  0  0  0  0  0  0  0  0  0  0  0
  190.5880  171.3960  139.6340 C   0  0  0  0  0  0  0  0  0  0  0  0
  193.9830  174.0780  145.7820 C   0  0  0  0  0  2  0  0  0  0  0  0
  194.7540  174.3000  144.4930 C   0  0  0  0  0  2  0  0  0  0  0  0
  194.4800  175.6950  143.9310 C   0  0  2  0  0  3  0  0  0  0  0  0
  194.9820  175.2700  140.3830 C   0  0  0  0  0  0  0  0  0  0  0  0
  196.3140  174.9120  142.3100 C   0  0  1  0  0  3  0  0  0  0  0  0
  194.5140  175.1680  139.1420 C   0  0  0  0  0  2  0  0  0  0  0  0
  196.2370  174.6190  140.8210 C   0  0  0  0  0  2  0  0  0  0  0  0
  197.5790  175.4040  142.6280 O   0  0  0  0  0  1  0  0  0  0  0  0
  194.2980  176.0430  141.4450 C   0  0  0  0  0  2  0  0  0  0  0  0
  195.2470  175.9680  142.6290 C   0  0  1  0  0  3  0  0  0  0  0  0
  193.5910  177.5770  145.1170 F   0  0  0  0  0  0  0  0  0  0  0  0
  194.7130  176.7810  144.9830 C   0  0  0  0  0  3  0  0  0  0  0  0
  195.8110  177.5620  144.6670 F   0  0  0  0  0  0  0  0  0  0  0  0
  1  2  1  0  0  0  0
  1  4  1  0  0  0  0
  2  8  2  0  0  0  0
  3  6  1  0  0  0  0
  4  3  2  0  0  0  0
  4  7  1  0  0  0  0
  6 10  1  0  0  0  0
  6  5  2  0  0  0  0
  7  9  2  0  0  0  0
  8 40  1  0  0  0  0
  8  7  1  0  0  0  0
  9  5  1  0  0  0  0
 10 11  1  6  0  0  0
 12 17  1  0  0  0  0
 13 14  1  0  0  0  0
 13 12  1  0  0  0  0
 14 24  1  6  0  0  0
 14 18  1  0  0  0  0
 15 16  1  1  0  0  0
 17 15  1  0  0  0  0
 17 10  1  1  0  0  0
 18 15  1  0  0  0  0
 20 19  1  6  0  0  0
 20 21  1  0  0  0  0
 20 13  1  0  0  0  0
 21 22  1  0  0  0  0
 23 21  2  0  0  0  0
 24 25  1  0  0  0  0
 27 28  2  0  0  0  0
 28 26  1  0  0  0  0
 28 25  1  0  0  0  0
 29  2  1  0  0  0  0
 30 39  1  0  0  0  0
 31 29  1  1  0  0  0
 32 37  1  0  0  0  0
 33 32  1  0  0  0  0
 34 39  2  0  0  0  0
 34 33  1  0  0  0  0
 35 31  1  0  0  0  0
 37 36  1  6  0  0  0
 37 35  1  0  0  0  0
 37 31  1  0  0  0  0
 38 34  1  0  0  0  0
 39 36  1  0  0  0  0
 41 40  1  0  0  0  0
 42 41  1  1  0  0  0
 42 51  1  0  0  0  0
 43 46  1  0  0  0  0
 43 48  1  0  0  0  0
 44 47  1  6  0  0  0
 44 49  1  0  0  0  0
 45 43  2  0  0  0  0
 46 44  1  0  0  0  0
 48 49  1  0  0  0  0
 49 42  1  1  0  0  0
 51 50  1  0  0  0  0
 52 51  1  0  0  0  0
M  END
>  <MODEL>
1

>  <REMARK>
 VINA RESULT:      -7.9      0.000      0.000
  Name = 
  14 active torsions:
  status: ('A' for Active; 'I' for Inactive)
    1  A    between atoms: C_4  and  C_28
    2  A    between atoms: C_4  and  C_45
    3  A    between atoms: O_6  and  C_10
    4  A    between atoms: O_6  and  C_17
    5  A    between atoms: N_9  and  C_50
    6  A    between atoms: C_16  and  C_21
    7  A    between atoms: C_18  and  C_50
    8  A    between atoms: C_21  and  C_42
    9  A    between atoms: C_21  and  C_47
   10  A    between atoms: C_30  and  C_36
   11  A    between atoms: C_36  and  C_44
   12  A    between atoms: C_37  and  C_45
   13  A    between atoms: C_38  and  C_40
   14  A    between atoms: C_40  and  C_47
                            x       y       z     vdW  Elec       q    Type
                         _______ _______ _______ _____ _____    ______ ____

>  <TORSDO>
F 14

$$$$
=
 OpenBabel11042416003D

 52 57  0  0  1  0  0  0  0  0999 V2000
  190.9890  173.6920  145.1140 O   0  0  0  0  0  0  0  0  0  0  0  0
  192.3060  173.6940  145.2290 C   0  0  0  0  0  0  0  0  0  0  0  0
  189.2140  175.1200  145.9550 C   0  0  0  0  0  3  0  0  0  0  0  0
  190.5400  174.7240  145.7900 C   0  0  0  0  0  0  0  0  0  0  0  0
  190.0420  176.9820  147.3150 C   0  0  0  0  0  3  0  0  0  0  0  0
  188.9660  176.2700  146.7280 C   0  0  0  0  0  0  0  0  0  0  0  0
  191.5770  175.4200  146.3600 C   0  0  0  0  0  0  0  0  0  0  0  0
  192.7320  174.7670  146.0000 C   0  0  0  0  0  0  0  0  0  0  0  0
  191.3690  176.5580  147.1340 C   0  0  0  0  0  3  0  0  0  0  0  0
  187.5540  176.7260  146.9280 C   0  0  1  0  0  3  0  0  0  0  0  0
  187.5630  177.9790  147.5510 O   0  0  0  0  0  1  0  0  0  0  0  0
  187.6670  177.3220  144.4890 C   0  0  0  0  0  2  0  0  0  0  0  0
  186.9870  177.2770  143.1860 N   0  0  0  0  0  0  0  0  0  0  0  0
  185.8760  178.2520  143.2660 C   0  0  2  0  0  3  0  0  0  0  0  0
  185.5480  177.6860  145.7060 C   0  0  1  0  0  3  0  0  0  0  0  0
  184.6200  177.1660  146.6070 O   0  0  0  0  0  1  0  0  0  0  0  0
  186.7740  176.7750  145.6020 C   0  0  2  0  0  3  0  0  0  0  0  0
  184.8780  177.8270  144.3470 C   0  0  0  0  0  2  0  0  0  0  0  0
  187.6110  177.2340  140.8990 O   0  0  0  0  0  1  0  0  0  0  0  0
  187.9810  177.6870  142.1680 C   0  0  2  0  0  3  0  0  0  0  0  0
  189.3530  177.1390  142.4610 C   0  0  0  0  0  0  0  0  0  0  0  0
  190.4020  178.0340  143.0250 C   0  0  0  0  0  1  0  0  0  0  0  0
  189.6090  175.9640  142.2540 O   0  0  0  0  0  0  0  0  0  0  0  0
  185.0840  178.3480  141.9640 C   0  0  0  0  0  2  0  0  0  0  0  0
  183.5880  178.3910  142.2450 C   0  0  0  0  0  2  0  0  0  0  0  0
  181.3190  178.2530  141.0220 C   0  0  0  0  0  1  0  0  0  0  0  0
  183.3710  177.8640  139.9570 O   0  0  0  0  0  0  0  0  0  0  0  0
  182.8030  178.1520  140.9970 C   0  0  0  0  0  0  0  0  0  0  0  0
  193.1480  172.7520  144.6400 O   0  0  0  0  0  0  0  0  0  0  0  0
  191.2550  168.9240  140.0740 C   0  0  0  0  0  1  0  0  0  0  0  0
  192.6810  171.4550  144.2940 C   0  0  2  0  0  3  0  0  0  0  0  0
  193.2030  172.3310  141.8880 C   0  0  0  0  0  2  0  0  0  0  0  0
  192.1400  172.6070  140.8350 C   0  0  0  0  0  2  0  0  0  0  0  0
  191.7890  171.3410  140.1060 C   0  0  0  0  0  0  0  0  0  0  0  0
  193.7140  170.7420  143.6530 O   0  0  0  0  0  0  0  0  0  0  0  0
  191.8050  170.1140  142.2840 C   0  0  0  0  0  2  0  0  0  0  0  0
  192.6910  171.2380  142.8270 C   0  0  1  0  0  0  0  0  0  0  0  0
  191.6100  171.4230  138.3560 Cl  0  0  0  0  0  0  0  0  0  0  0  0
  191.6320  170.1840  140.7820 C   0  0  0  0  0  0  0  0  0  0  0  0
  194.1270  175.0930  146.4080 C   0  0  0  0  0  2  0  0  0  0  0  0
  194.7560  176.0180  145.3810 C   0  0  0  0  0  2  0  0  0  0  0  0
  195.8190  175.2800  144.5670 C   0  0  2  0  0  3  0  0  0  0  0  0
  196.1700  175.6490  140.9950 C   0  0  0  0  0  0  0  0  0  0  0  0
  194.4350  176.0760  142.5530 C   0  0  1  0  0  3  0  0  0  0  0  0
  196.9170  175.7160  139.8970 C   0  0  0  0  0  2  0  0  0  0  0  0
  194.8650  176.3380  141.1190 C   0  0  0  0  0  2  0  0  0  0  0  0
  193.1180  175.6200  142.5730 O   0  0  0  0  0  1  0  0  0  0  0  0
  196.5660  174.8810  142.1970 C   0  0  0  0  0  2  0  0  0  0  0  0
  195.3690  175.0010  143.1260 C   0  0  1  0  0  3  0  0  0  0  0  0
  197.6040  174.1640  145.7100 F   0  0  0  0  0  0  0  0  0  0  0  0
  196.2980  174.0160  145.2830 C   0  0  0  0  0  3  0  0  0  0  0  0
  196.1910  172.9030  144.4670 F   0  0  0  0  0  0  0  0  0  0  0  0
  1  2  1  0  0  0  0
  1  4  1  0  0  0  0
  2  8  2  0  0  0  0
  3  6  1  0  0  0  0
  4  3  2  0  0  0  0
  4  7  1  0  0  0  0
  6 10  1  0  0  0  0
  6  5  2  0  0  0  0
  7  9  2  0  0  0  0
  8  7  1  0  0  0  0
  8 40  1  0  0  0  0
  9  5  1  0  0  0  0
 10 11  1  6  0  0  0
 12 17  1  0  0  0  0
 13 14  1  0  0  0  0
 13 12  1  0  0  0  0
 14 24  1  6  0  0  0
 14 18  1  0  0  0  0
 15 16  1  1  0  0  0
 17 15  1  0  0  0  0
 17 10  1  1  0  0  0
 18 15  1  0  0  0  0
 20 19  1  6  0  0  0
 20 21  1  0  0  0  0
 20 13  1  0  0  0  0
 21 22  1  0  0  0  0
 23 21  2  0  0  0  0
 24 25  1  0  0  0  0
 27 28  2  0  0  0  0
 28 26  1  0  0  0  0
 28 25  1  0  0  0  0
 29  2  1  0  0  0  0
 30 39  1  0  0  0  0
 31 29  1  6  0  0  0
 33 32  1  0  0  0  0
 34 39  2  0  0  0  0
 34 33  1  0  0  0  0
 35 31  1  0  0  0  0
 36 37  1  0  0  0  0
 37 32  1  6  0  0  0
 37 35  1  0  0  0  0
 37 31  1  0  0  0  0
 38 34  1  0  0  0  0
 39 36  1  0  0  0  0
 41 40  1  0  0  0  0
 42 51  1  0  0  0  0
 42 41  1  1  0  0  0
 43 46  1  0  0  0  0
 43 48  1  0  0  0  0
 44 47  1  6  0  0  0
 44 49  1  0  0  0  0
 45 43  2  0  0  0  0
 46 44  1  0  0  0  0
 48 49  1  0  0  0  0
 49 42  1  1  0  0  0
 51 50  1  0  0  0  0
 52 51  1  0  0  0  0
M  END
>  <MODEL>
2

>  <REMARK>
 VINA RESULT:      -7.7      1.454      1.710
  Name = 
  14 active torsions:
  status: ('A' for Active; 'I' for Inactive)
    1  A    between atoms: C_4  and  C_28
    2  A    between atoms: C_4  and  C_45
    3  A    between atoms: O_6  and  C_10
    4  A    between atoms: O_6  and  C_17
    5  A    between atoms: N_9  and  C_50
    6  A    between atoms: C_16  and  C_21
    7  A    between atoms: C_18  and  C_50
    8  A    between atoms: C_21  and  C_42
    9  A    between atoms: C_21  and  C_47
   10  A    between atoms: C_30  and  C_36
   11  A    between atoms: C_36  and  C_44
   12  A    between atoms: C_37  and  C_45
   13  A    between atoms: C_38  and  C_40
   14  A    between atoms: C_40  and  C_47
                            x       y       z     vdW  Elec       q    Type
                         _______ _______ _______ _____ _____    ______ ____

>  <TORSDO>
F 14

$$$$
=
 OpenBabel11042416003D

 52 57  0  0  1  0  0  0  0  0999 V2000
  190.5460  172.0780  143.8100 O   0  0  0  0  0  0  0  0  0  0  0  0
  191.7570  171.6610  143.4820 C   0  0  0  0  0  0  0  0  0  0  0  0
  189.6910  173.7740  145.3220 C   0  0  0  0  0  3  0  0  0  0  0  0
  190.6930  173.0400  144.6910 C   0  0  0  0  0  0  0  0  0  0  0  0
  191.4620  174.9910  146.5000 C   0  0  0  0  0  3  0  0  0  0  0  0
  190.0870  174.7680  146.2380 C   0  0  0  0  0  0  0  0  0  0  0  0
  192.0230  173.2640  144.9470 C   0  0  0  0  0  0  0  0  0  0  0  0
  192.7280  172.3790  144.1660 C   0  0  0  0  0  0  0  0  0  0  0  0
  192.4500  174.2330  145.8500 C   0  0  0  0  0  3  0  0  0  0  0  0
  189.0390  175.5780  146.9370 C   0  0  1  0  0  3  0  0  0  0  0  0
  189.6580  176.6210  147.6340 O   0  0  0  0  0  1  0  0  0  0  0  0
  188.6710  176.7770  144.7600 C   0  0  0  0  0  2  0  0  0  0  0  0
  187.6920  177.2070  143.7500 N   0  0  0  0  0  0  0  0  0  0  0  0
  186.9150  178.3050  144.3670 C   0  0  2  0  0  3  0  0  0  0  0  0
  187.0900  177.1710  146.6170 C   0  0  1  0  0  3  0  0  0  0  0  0
  186.3240  176.6010  147.6320 O   0  0  0  0  0  1  0  0  0  0  0  0
  187.9840  176.1190  145.9550 C   0  0  2  0  0  3  0  0  0  0  0  0
  186.1530  177.7900  145.5910 C   0  0  0  0  0  2  0  0  0  0  0  0
  188.0170  177.0890  141.4040 O   0  0  0  0  0  1  0  0  0  0  0  0
  188.4640  177.6920  142.5820 C   0  0  2  0  0  3  0  0  0  0  0  0
  189.9350  177.3960  142.7110 C   0  0  0  0  0  0  0  0  0  0  0  0
  190.4440  176.0320  142.3950 C   0  0  0  0  0  1  0  0  0  0  0  0
  190.7160  178.2660  143.0600 O   0  0  0  0  0  0  0  0  0  0  0  0
  185.8680  178.8880  143.4210 C   0  0  0  0  0  2  0  0  0  0  0  0
  184.7660  177.8730  143.1480 C   0  0  0  0  0  2  0  0  0  0  0  0
  184.8920  178.2960  140.6040 C   0  0  0  0  0  1  0  0  0  0  0  0
  182.8760  178.2910  141.8010 O   0  0  0  0  0  0  0  0  0  0  0  0
  184.0870  178.1590  141.8470 C   0  0  0  0  0  0  0  0  0  0  0  0
  192.0170  170.6470  142.5620 O   0  0  0  0  0  0  0  0  0  0  0  0
  189.7480  170.7920  136.7380 C   0  0  0  0  0  1  0  0  0  0  0  0
  191.0150  170.1860  141.6650 C   0  0  2  0  0  3  0  0  0  0  0  0
  192.6480  171.2320  139.9130 C   0  0  0  0  0  2  0  0  0  0  0  0
  192.3260  172.4640  139.0800 C   0  0  0  0  0  2  0  0  0  0  0  0
  191.5450  172.0740  137.8570 C   0  0  0  0  0  0  0  0  0  0  0  0
  191.5750  169.2360  140.7870 O   0  0  0  0  0  0  0  0  0  0  0  0
  190.1850  170.5110  139.2540 C   0  0  0  0  0  2  0  0  0  0  0  0
  191.3420  170.5160  140.2560 C   0  0  1  0  0  0  0  0  0  0  0  0
  191.9890  172.8240  136.3260 Cl  0  0  0  0  0  0  0  0  0  0  0  0
  190.5490  171.1670  137.9410 C   0  0  0  0  0  0  0  0  0  0  0  0
  194.2040  172.1830  144.1180 C   0  0  0  0  0  2  0  0  0  0  0  0
  194.7510  172.7470  142.8190 C   0  0  0  0  0  2  0  0  0  0  0  0
  196.0610  173.4970  143.0630 C   0  0  2  0  0  3  0  0  0  0  0  0
  194.8070  176.4160  144.7740 C   0  0  0  0  0  0  0  0  0  0  0  0
  194.5240  175.5060  142.6040 C   0  0  1  0  0  3  0  0  0  0  0  0
  194.5760  177.1070  145.8870 C   0  0  0  0  0  2  0  0  0  0  0  0
  193.9630  176.5410  143.5640 C   0  0  0  0  0  2  0  0  0  0  0  0
  194.7340  176.0870  141.3550 O   0  0  0  0  0  1  0  0  0  0  0  0
  195.9280  175.4590  144.6340 C   0  0  0  0  0  2  0  0  0  0  0  0
  195.8590  175.0140  143.1830 C   0  0  1  0  0  3  0  0  0  0  0  0
  197.4290  174.2270  141.2380 F   0  0  0  0  0  0  0  0  0  0  0  0
  197.1200  173.1310  142.0220 C   0  0  0  0  0  3  0  0  0  0  0  0
  196.7020  172.0820  141.2230 F   0  0  0  0  0  0  0  0  0  0  0  0
  1  4  1  0  0  0  0
  2  1  1  0  0  0  0
  2  8  2  0  0  0  0
  3  6  1  0  0  0  0
  4  7  1  0  0  0  0
  4  3  2  0  0  0  0
  6  5  2  0  0  0  0
  6 10  1  0  0  0  0
  7  9  2  0  0  0  0
  8  7  1  0  0  0  0
  9  5  1  0  0  0  0
 10 11  1  6  0  0  0
 12 17  1  0  0  0  0
 13 14  1  0  0  0  0
 13 12  1  0  0  0  0
 14 24  1  6  0  0  0
 14 18  1  0  0  0  0
 15 16  1  1  0  0  0
 17 15  1  0  0  0  0
 17 10  1  1  0  0  0
 18 15  1  0  0  0  0
 20 19  1  6  0  0  0
 20 21  1  0  0  0  0
 20 13  1  0  0  0  0
 21 23  2  0  0  0  0
 22 21  1  0  0  0  0
 25 24  1  0  0  0  0
 26 28  1  0  0  0  0
 27 28  2  0  0  0  0
 28 25  1  0  0  0  0
 29  2  1  0  0  0  0
 30 39  1  0  0  0  0
 31 29  1  1  0  0  0
 32 37  1  0  0  0  0
 33 32  1  0  0  0  0
 34 39  2  0  0  0  0
 34 33  1  0  0  0  0
 35 31  1  0  0  0  0
 37 36  1  6  0  0  0
 37 35  1  0  0  0  0
 37 31  1  0  0  0  0
 38 34  1  0  0  0  0
 39 36  1  0  0  0  0
 40  8  1  0  0  0  0
 41 40  1  0  0  0  0
 42 41  1  6  0  0  0
 43 45  2  0  0  0  0
 44 47  1  6  0  0  0
 44 49  1  0  0  0  0
 44 46  1  0  0  0  0
 46 43  1  0  0  0  0
 48 43  1  0  0  0  0
 49 42  1  1  0  0  0
 49 48  1  0  0  0  0
 50 51  1  0  0  0  0
 51 42  1  0  0  0  0
 52 51  1  0  0  0  0
M  END
>  <MODEL>
3

>  <REMARK>
 VINA RESULT:      -7.5      1.838      2.673
  Name = 
  14 active torsions:
  status: ('A' for Active; 'I' for Inactive)
    1  A    between atoms: C_4  and  C_28
    2  A    between atoms: C_4  and  C_45
    3  A    between atoms: O_6  and  C_10
    4  A    between atoms: O_6  and  C_17
    5  A    between atoms: N_9  and  C_50
    6  A    between atoms: C_16  and  C_21
    7  A    between atoms: C_18  and  C_50
    8  A    between atoms: C_21  and  C_42
    9  A    between atoms: C_21  and  C_47
   10  A    between atoms: C_30  and  C_36
   11  A    between atoms: C_36  and  C_44
   12  A    between atoms: C_37  and  C_45
   13  A    between atoms: C_38  and  C_40
   14  A    between atoms: C_40  and  C_47
                            x       y       z     vdW  Elec       q    Type
                         _______ _______ _______ _____ _____    ______ ____

>  <TORSDO>
F 14

$$$$
=
 OpenBabel11042416003D

 52 57  0  0  1  0  0  0  0  0999 V2000
  190.3000  175.0150  143.3360 O   0  0  0  0  0  0  0  0  0  0  0  0
  190.6800  175.5030  144.5050 C   0  0  0  0  0  0  0  0  0  0  0  0
  190.8500  173.0130  142.0780 C   0  0  0  0  0  3  0  0  0  0  0  0
  190.9340  173.8780  143.1670 C   0  0  0  0  0  0  0  0  0  0  0  0
  192.4630  171.5700  143.2260 C   0  0  0  0  0  3  0  0  0  0  0  0
  191.6260  171.8390  142.1140 C   0  0  0  0  0  0  0  0  0  0  0  0
  191.7450  173.6100  144.2420 C   0  0  0  0  0  0  0  0  0  0  0  0
  191.5880  174.6540  145.1220 C   0  0  0  0  0  0  0  0  0  0  0  0
  192.5300  172.4620  144.3090 C   0  0  0  0  0  3  0  0  0  0  0  0
  191.5620  170.8850  140.9620 C   0  0  1  0  0  3  0  0  0  0  0  0
  190.2230  170.6840  140.6080 O   0  0  0  0  0  1  0  0  0  0  0  0
  191.4470  171.8850  138.6600 C   0  0  0  0  0  2  0  0  0  0  0  0
  192.2020  172.4700  137.5410 N   0  0  0  0  0  0  0  0  0  0  0  0
  192.9340  171.3510  136.9060 C   0  0  2  0  0  3  0  0  0  0  0  0
  193.2410  170.2630  139.1650 C   0  0  1  0  0  3  0  0  0  0  0  0
  194.2170  169.8530  140.0720 O   0  0  0  0  0  1  0  0  0  0  0  0
  192.3830  171.3820  139.7590 C   0  0  2  0  0  3  0  0  0  0  0  0
  193.9310  170.7430  137.8960 C   0  0  0  0  0  2  0  0  0  0  0  0
  190.9990  174.4050  136.8850 O   0  0  0  0  0  1  0  0  0  0  0  0
  191.2070  173.0510  136.6090 C   0  0  2  0  0  3  0  0  0  0  0  0
  189.8720  172.3610  136.7020 C   0  0  0  0  0  0  0  0  0  0  0  0
  189.6200  171.1300  135.9020 C   0  0  0  0  0  1  0  0  0  0  0  0
  188.9990  172.7940  137.4370 O   0  0  0  0  0  0  0  0  0  0  0  0
  193.7480  171.7950  135.6930 C   0  0  0  0  0  2  0  0  0  0  0  0
  195.1150  172.3100  136.1220 C   0  0  0  0  0  2  0  0  0  0  0  0
  196.2920  174.5370  136.6900 C   0  0  0  0  0  1  0  0  0  0  0  0
  194.3030  174.4210  135.4540 O   0  0  0  0  0  0  0  0  0  0  0  0
  195.1740  173.8010  136.0410 C   0  0  0  0  0  0  0  0  0  0  0  0
  190.2180  176.7030  145.0440 O   0  0  0  0  0  0  0  0  0  0  0  0
  184.4700  178.1520  147.0300 C   0  0  0  0  0  1  0  0  0  0  0  0
  189.3080  176.7220  146.1350 C   0  0  2  0  0  3  0  0  0  0  0  0
  187.6130  177.2230  144.2110 C   0  0  0  0  0  2  0  0  0  0  0  0
  186.8860  178.5490  144.0410 C   0  0  0  0  0  2  0  0  0  0  0  0
  185.6510  178.5770  144.8970 C   0  0  0  0  0  0  0  0  0  0  0  0
  188.3470  175.7060  145.9600 O   0  0  0  0  0  0  0  0  0  0  0  0
  186.9470  177.5270  146.7570 C   0  0  0  0  0  2  0  0  0  0  0  0
  187.9230  177.0190  145.6930 C   0  0  1  0  0  0  0  0  0  0  0  0
  184.1760  179.2290  144.1880 Cl  0  0  0  0  0  0  0  0  0  0  0  0
  185.6820  178.1030  146.1600 C   0  0  0  0  0  0  0  0  0  0  0  0
  192.2910  174.8640  146.4190 C   0  0  0  0  0  2  0  0  0  0  0  0
  193.7850  174.9830  146.1750 C   0  0  0  0  0  2  0  0  0  0  0  0
  194.1060  176.2540  145.3880 C   0  0  2  0  0  3  0  0  0  0  0  0
  194.4390  174.8850  142.0660 C   0  0  0  0  0  0  0  0  0  0  0  0
  195.5990  174.5960  144.1120 C   0  0  1  0  0  3  0  0  0  0  0  0
  193.9590  174.6450  140.8490 C   0  0  0  0  0  2  0  0  0  0  0  0
  195.4300  174.0040  142.7240 C   0  0  0  0  0  2  0  0  0  0  0  0
  196.9550  174.7400  144.4000 O   0  0  0  0  0  1  0  0  0  0  0  0
  194.0330  176.0530  142.8800 C   0  0  0  0  0  2  0  0  0  0  0  0
  194.9160  175.9700  144.1140 C   0  0  1  0  0  3  0  0  0  0  0  0
  193.9970  177.5530  147.3970 F   0  0  0  0  0  0  0  0  0  0  0  0
  194.7660  177.3120  146.2740 C   0  0  0  0  0  3  0  0  0  0  0  0
  194.9740  178.4920  145.5820 F   0  0  0  0  0  0  0  0  0  0  0  0
  1  2  1  0  0  0  0
  2 29  1  0  0  0  0
  2  8  2  0  0  0  0
  3  6  2  0  0  0  0
  3  4  1  0  0  0  0
  4  1  1  0  0  0  0
  4  7  2  0  0  0  0
  5  9  2  0  0  0  0
  6  5  1  0  0  0  0
  7  9  1  0  0  0  0
  7  8  1  0  0  0  0
  8 40  1  0  0  0  0
 10 11  1  6  0  0  0
 10  6  1  0  0  0  0
 12 17  1  0  0  0  0
 13 12  1  0  0  0  0
 14 24  1  6  0  0  0
 14 13  1  0  0  0  0
 14 18  1  0  0  0  0
 15 17  1  0  0  0  0
 15 16  1  1  0  0  0
 17 10  1  1  0  0  0
 18 15  1  0  0  0  0
 20 21  1  0  0  0  0
 20 19  1  1  0  0  0
 20 13  1  0  0  0  0
 21 23  2  0  0  0  0
 22 21  1  0  0  0  0
 24 25  1  0  0  0  0
 27 28  2  0  0  0  0
 28 25  1  0  0  0  0
 28 26  1  0  0  0  0
 31 29  1  6  0  0  0
 33 32  1  0  0  0  0
 33 34  1  0  0  0  0
 34 39  2  0  0  0  0
 35 31  1  0  0  0  0
 37 32  1  6  0  0  0
 37 35  1  0  0  0  0
 37 31  1  0  0  0  0
 37 36  1  0  0  0  0
 38 34  1  0  0  0  0
 39 36  1  0  0  0  0
 39 30  1  0  0  0  0
 41 40  1  0  0  0  0
 42 41  1  1  0  0  0
 42 51  1  0  0  0  0
 43 46  1  0  0  0  0
 43 48  1  0  0  0  0
 44 49  1  0  0  0  0
 44 47  1  6  0  0  0
 45 43  2  0  0  0  0
 46 44  1  0  0  0  0
 48 49  1  0  0  0  0
 49 42  1  1  0  0  0
 51 50  1  0  0  0  0
 52 51  1  0  0  0  0
M  END
>  <MODEL>
4

>  <REMARK>
 VINA RESULT:      -7.1      3.204      8.120
  Name = 
  14 active torsions:
  status: ('A' for Active; 'I' for Inactive)
    1  A    between atoms: C_4  and  C_28
    2  A    between atoms: C_4  and  C_45
    3  A    between atoms: O_6  and  C_10
    4  A    between atoms: O_6  and  C_17
    5  A    between atoms: N_9  and  C_50
    6  A    between atoms: C_16  and  C_21
    7  A    between atoms: C_18  and  C_50
    8  A    between atoms: C_21  and  C_42
    9  A    between atoms: C_21  and  C_47
   10  A    between atoms: C_30  and  C_36
   11  A    between atoms: C_36  and  C_44
   12  A    between atoms: C_37  and  C_45
   13  A    between atoms: C_38  and  C_40
   14  A    between atoms: C_40  and  C_47
                            x       y       z     vdW  Elec       q    Type
                         _______ _______ _______ _____ _____    ______ ____

>  <TORSDO>
F 14

$$$$
=
 OpenBabel11042416003D

 52 57  0  0  1  0  0  0  0  0999 V2000
  190.1920  173.9030  141.9830 O   0  0  0  0  0  0  0  0  0  0  0  0
  189.5680  174.1720  143.1170 C   0  0  0  0  0  0  0  0  0  0  0  0
  192.3560  172.9530  141.4260 C   0  0  0  0  0  3  0  0  0  0  0  0
  191.3570  173.3850  142.2960 C   0  0  0  0  0  0  0  0  0  0  0  0
  193.6780  172.3520  143.3990 C   0  0  0  0  0  3  0  0  0  0  0  0
  193.5320  172.4250  141.9900 C   0  0  0  0  0  0  0  0  0  0  0  0
  191.5040  173.3080  143.6590 C   0  0  0  0  0  0  0  0  0  0  0  0
  190.3480  173.8110  144.2070 C   0  0  0  0  0  0  0  0  0  0  0  0
  192.6550  172.7980  144.2520 C   0  0  0  0  0  3  0  0  0  0  0  0
  194.6280  171.9510  141.0870 C   0  0  1  0  0  3  0  0  0  0  0  0
  194.3960  170.6130  140.7510 O   0  0  0  0  0  1  0  0  0  0  0  0
  194.3100  172.0300  138.5960 C   0  0  0  0  0  2  0  0  0  0  0  0
  194.3090  172.8700  137.3890 N   0  0  0  0  0  0  0  0  0  0  0  0
  195.7250  173.2010  137.1140 C   0  0  2  0  0  3  0  0  0  0  0  0
  196.1940  173.2770  139.5950 C   0  0  1  0  0  3  0  0  0  0  0  0
  196.6140  174.1280  140.6160 O   0  0  0  0  0  1  0  0  0  0  0  0
  194.7500  172.8240  139.8250 C   0  0  2  0  0  3  0  0  0  0  0  0
  196.3100  174.0170  138.2700 C   0  0  0  0  0  2  0  0  0  0  0  0
  193.7280  172.7610  135.0920 O   0  0  0  0  0  1  0  0  0  0  0  0
  193.7330  172.0520  136.2960 C   0  0  2  0  0  3  0  0  0  0  0  0
  192.3130  171.6410  136.5840 C   0  0  0  0  0  0  0  0  0  0  0  0
  191.3200  172.6650  137.0110 C   0  0  0  0  0  1  0  0  0  0  0  0
  191.9650  170.4780  136.4560 O   0  0  0  0  0  0  0  0  0  0  0  0
  195.8970  174.0520  135.8570 C   0  0  0  0  0  2  0  0  0  0  0  0
  195.6830  175.5260  136.1720 C   0  0  0  0  0  2  0  0  0  0  0  0
  196.0650  177.7210  134.8670 C   0  0  0  0  0  1  0  0  0  0  0  0
  197.6510  175.9970  134.9610 O   0  0  0  0  0  0  0  0  0  0  0  0
  196.5500  176.3870  135.3110 C   0  0  0  0  0  0  0  0  0  0  0  0
  188.2930  174.7290  143.2000 O   0  0  0  0  0  0  0  0  0  0  0  0
  185.5440  180.2440  144.2550 C   0  0  0  0  0  1  0  0  0  0  0  0
  188.0220  176.0350  142.7090 C   0  0  2  0  0  3  0  0  0  0  0  0
  187.2710  176.3920  145.1860 C   0  0  0  0  0  2  0  0  0  0  0  0
  185.8310  176.6380  145.6110 C   0  0  0  0  0  2  0  0  0  0  0  0
  185.4930  178.0970  145.4850 C   0  0  0  0  0  0  0  0  0  0  0  0
  188.8160  176.9700  143.4040 O   0  0  0  0  0  0  0  0  0  0  0  0
  186.6990  178.1590  143.2960 C   0  0  0  0  0  2  0  0  0  0  0  0
  187.4590  176.9140  143.7620 C   0  0  1  0  0  0  0  0  0  0  0  0
  184.5780  178.8440  146.7910 Cl  0  0  0  0  0  0  0  0  0  0  0  0
  185.8960  178.8010  144.4070 C   0  0  0  0  0  0  0  0  0  0  0  0
  190.0320  173.9970  145.6510 C   0  0  0  0  0  2  0  0  0  0  0  0
  191.1520  174.7700  146.3230 C   0  0  0  0  0  2  0  0  0  0  0  0
  191.0700  176.2560  145.9720 C   0  0  2  0  0  3  0  0  0  0  0  0
  193.7250  176.2100  143.5290 C   0  0  0  0  0  0  0  0  0  0  0  0
  193.6310  176.0620  145.8930 C   0  0  1  0  0  3  0  0  0  0  0  0
  194.1570  176.0810  142.2780 C   0  0  0  0  0  2  0  0  0  0  0  0
  194.5550  175.8610  144.7030 C   0  0  0  0  0  2  0  0  0  0  0  0
  194.2740  176.8280  146.8640 O   0  0  0  0  0  1  0  0  0  0  0  0
  192.3760  176.7160  143.8710 C   0  0  0  0  0  2  0  0  0  0  0  0
  192.3820  176.7980  145.3880 C   0  0  1  0  0  3  0  0  0  0  0  0
  191.2190  176.7060  148.3200 F   0  0  0  0  0  0  0  0  0  0  0  0
  190.5740  177.0860  147.1580 C   0  0  0  0  0  3  0  0  0  0  0  0
  189.2050  176.9700  147.3180 F   0  0  0  0  0  0  0  0  0  0  0  0
  1  4  1  0  0  0  0
  1  2  1  0  0  0  0
  2 29  1  0  0  0  0
  2  8  2  0  0  0  0
  3  6  2  0  0  0  0
  3  4  1  0  0  0  0
  4  7  2  0  0  0  0
  5  9  2  0  0  0  0
  6  5  1  0  0  0  0
  7  8  1  0  0  0  0
  7  9  1  0  0  0  0
  8 40  1  0  0  0  0
 10 11  1  6  0  0  0
 10  6  1  0  0  0  0
 12 17  1  0  0  0  0
 13 12  1  0  0  0  0
 14 24  1  6  0  0  0
 14 13  1  0  0  0  0
 14 18  1  0  0  0  0
 15 17  1  0  0  0  0
 15 16  1  1  0  0  0
 17 10  1  1  0  0  0
 18 15  1  0  0  0  0
 20 19  1  6  0  0  0
 20 21  1  0  0  0  0
 20 13  1  0  0  0  0
 21 22  1  0  0  0  0
 23 21  2  0  0  0  0
 24 25  1  0  0  0  0
 26 28  1  0  0  0  0
 27 28  2  0  0  0  0
 28 25  1  0  0  0  0
 30 39  1  0  0  0  0
 31 29  1  1  0  0  0
 31 35  1  0  0  0  0
 31 37  1  0  0  0  0
 32 33  1  0  0  0  0
 34 33  1  0  0  0  0
 34 38  1  0  0  0  0
 35 37  1  0  0  0  0
 36 39  1  0  0  0  0
 37 36  1  6  0  0  0
 37 32  1  0  0  0  0
 39 34  2  0  0  0  0
 40 41  1  0  0  0  0
 42 41  1  1  0  0  0
 42 51  1  0  0  0  0
 43 48  1  0  0  0  0
 43 46  1  0  0  0  0
 44 47  1  1  0  0  0
 45 43  2  0  0  0  0
 46 44  1  0  0  0  0
 48 49  1  0  0  0  0
 49 44  1  0  0  0  0
 49 42  1  1  0  0  0
 51 52  1  0  0  0  0
 51 50  1  0  0  0  0
M  END
>  <MODEL>
5

>  <REMARK>
 VINA RESULT:      -7.0      3.657      8.821
  Name = 
  14 active torsions:
  status: ('A' for Active; 'I' for Inactive)
    1  A    between atoms: C_4  and  C_28
    2  A    between atoms: C_4  and  C_45
    3  A    between atoms: O_6  and  C_10
    4  A    between atoms: O_6  and  C_17
    5  A    between atoms: N_9  and  C_50
    6  A    between atoms: C_16  and  C_21
    7  A    between atoms: C_18  and  C_50
    8  A    between atoms: C_21  and  C_42
    9  A    between atoms: C_21  and  C_47
   10  A    between atoms: C_30  and  C_36
   11  A    between atoms: C_36  and  C_44
   12  A    between atoms: C_37  and  C_45
   13  A    between atoms: C_38  and  C_40
   14  A    between atoms: C_40  and  C_47
                            x       y       z     vdW  Elec       q    Type
                         _______ _______ _______ _____ _____    ______ ____

>  <TORSDO>
F 14

$$$$
=
 OpenBabel11042416003D

 52 57  0  0  1  0  0  0  0  0999 V2000
  191.3960  174.6810  143.4170 O   0  0  0  0  0  0  0  0  0  0  0  0
  190.8960  175.1880  144.5310 C   0  0  0  0  0  0  0  0  0  0  0  0
  190.4280  173.6470  141.4450 C   0  0  0  0  0  3  0  0  0  0  0  0
  190.3830  174.2580  142.6960 C   0  0  0  0  0  0  0  0  0  0  0  0
  187.9830  173.5170  141.5300 C   0  0  0  0  0  3  0  0  0  0  0  0
  189.2060  173.2760  140.8540 C   0  0  0  0  0  0  0  0  0  0  0  0
  189.1950  174.4910  143.3440 C   0  0  0  0  0  0  0  0  0  0  0  0
  189.5110  175.0990  144.5360 C   0  0  0  0  0  0  0  0  0  0  0  0
  187.9690  174.1320  142.7930 C   0  0  0  0  0  3  0  0  0  0  0  0
  189.2130  172.6170  139.5090 C   0  0  1  0  0  3  0  0  0  0  0  0
  188.1890  173.1620  138.7280 O   0  0  0  0  0  1  0  0  0  0  0  0
  190.4740  173.7640  137.6640 C   0  0  0  0  0  2  0  0  0  0  0  0
  191.7860  174.0050  137.0440 N   0  0  0  0  0  0  0  0  0  0  0  0
  192.1680  172.7400  136.3780 C   0  0  2  0  0  3  0  0  0  0  0  0
  191.0440  171.4250  138.2190 C   0  0  1  0  0  3  0  0  0  0  0  0
  191.2950  170.4980  139.2280 O   0  0  0  0  0  1  0  0  0  0  0  0
  190.5770  172.7580  138.8090 C   0  0  2  0  0  3  0  0  0  0  0  0
  192.3190  171.6220  137.4140 C   0  0  0  0  0  2  0  0  0  0  0  0
  191.2650  174.5740  134.8020 O   0  0  0  0  0  1  0  0  0  0  0  0
  191.6020  175.0920  136.0550 C   0  0  2  0  0  3  0  0  0  0  0  0
  192.8490  175.9190  135.8820 C   0  0  0  0  0  0  0  0  0  0  0  0
  193.2240  176.4130  134.5280 C   0  0  0  0  0  1  0  0  0  0  0  0
  193.5460  176.2000  136.8430 O   0  0  0  0  0  0  0  0  0  0  0  0
  193.5070  172.8390  135.6510 C   0  0  0  0  0  2  0  0  0  0  0  0
  194.6220  172.2320  136.4930 C   0  0  0  0  0  2  0  0  0  0  0  0
  196.1050  173.7290  137.9840 C   0  0  0  0  0  1  0  0  0  0  0  0
  196.4030  173.5380  135.6670 O   0  0  0  0  0  0  0  0  0  0  0  0
  195.7600  173.1890  136.6420 C   0  0  0  0  0  0  0  0  0  0  0  0
  191.6620  175.7470  145.5540 O   0  0  0  0  0  0  0  0  0  0  0  0
  197.6740  174.0330  145.5030 C   0  0  0  0  0  1  0  0  0  0  0  0
  192.6920  175.0080  146.1960 C   0  0  2  0  0  3  0  0  0  0  0  0
  194.1780  176.3920  144.5520 C   0  0  0  0  0  2  0  0  0  0  0  0
  194.9540  175.7870  143.3920 C   0  0  0  0  0  2  0  0  0  0  0  0
  196.2800  175.2640  143.8690 C   0  0  0  0  0  0  0  0  0  0  0  0
  193.5670  175.8980  146.8500 O   0  0  0  0  0  0  0  0  0  0  0  0
  195.1510  174.3220  145.8900 C   0  0  0  0  0  2  0  0  0  0  0  0
  194.0300  175.3370  145.6480 C   0  0  1  0  0  0  0  0  0  0  0  0
  197.6970  175.5890  142.8750 Cl  0  0  0  0  0  0  0  0  0  0  0  0
  196.3680  174.5820  145.0300 C   0  0  0  0  0  0  0  0  0  0  0  0
  188.5790  175.5070  145.6240 C   0  0  0  0  0  2  0  0  0  0  0  0
  187.8920  176.8070  145.2470 C   0  0  0  0  0  2  0  0  0  0  0  0
  186.3780  176.6910  145.4210 C   0  0  2  0  0  3  0  0  0  0  0  0
  186.1020  177.8040  142.0000 C   0  0  0  0  0  0  0  0  0  0  0  0
  185.8570  178.8430  144.1160 C   0  0  1  0  0  3  0  0  0  0  0  0
  186.3210  177.6400  140.6980 C   0  0  0  0  0  2  0  0  0  0  0  0
  185.9940  179.1380  142.6320 C   0  0  0  0  0  2  0  0  0  0  0  0
  184.7840  179.5610  144.6420 O   0  0  0  0  0  1  0  0  0  0  0  0
  185.9430  176.6730  142.9420 C   0  0  0  0  0  2  0  0  0  0  0  0
  185.6000  177.3370  144.2650 C   0  0  1  0  0  3  0  0  0  0  0  0
  186.4380  176.4180  147.8000 F   0  0  0  0  0  0  0  0  0  0  0  0
  185.9270  177.2100  146.7880 C   0  0  0  0  0  3  0  0  0  0  0  0
  184.5470  177.2610  146.8790 F   0  0  0  0  0  0  0  0  0  0  0  0
  1  2  1  0  0  0  0
  2  8  2  0  0  0  0
  2 29  1  0  0  0  0
  3  4  1  0  0  0  0
  4  7  2  0  0  0  0
  4  1  1  0  0  0  0
  5  9  2  0  0  0  0
  6  3  2  0  0  0  0
  6  5  1  0  0  0  0
  7  8  1  0  0  0  0
  8 40  1  0  0  0  0
  9  7  1  0  0  0  0
 10 11  1  6  0  0  0
 10  6  1  0  0  0  0
 12 17  1  0  0  0  0
 13 12  1  0  0  0  0
 14 24  1  1  0  0  0
 14 13  1  0  0  0  0
 14 18  1  0  0  0  0
 15 17  1  0  0  0  0
 15 16  1  1  0  0  0
 17 10  1  6  0  0  0
 18 15  1  0  0  0  0
 20 19  1  6  0  0  0
 20 13  1  0  0  0  0
 21 20  1  0  0  0  0
 21 23  2  0  0  0  0
 22 21  1  0  0  0  0
 24 25  1  0  0  0  0
 25 28  1  0  0  0  0
 27 28  2  0  0  0  0
 28 26  1  0  0  0  0
 31 29  1  6  0  0  0
 31 35  1  0  0  0  0
 33 34  1  0  0  0  0
 33 32  1  0  0  0  0
 34 39  2  0  0  0  0
 37 32  1  6  0  0  0
 37 36  1  0  0  0  0
 37 31  1  0  0  0  0
 37 35  1  0  0  0  0
 38 34  1  0  0  0  0
 39 30  1  0  0  0  0
 39 36  1  0  0  0  0
 41 40  1  0  0  0  0
 42 41  1  6  0  0  0
 42 51  1  0  0  0  0
 43 46  1  0  0  0  0
 43 48  1  0  0  0  0
 44 49  1  0  0  0  0
 44 47  1  6  0  0  0
 45 43  2  0  0  0  0
 46 44  1  0  0  0  0
 48 49  1  0  0  0  0
 49 42  1  1  0  0  0
 51 52  1  0  0  0  0
 51 50  1  0  0  0  0
M  END
>  <MODEL>
6

>  <REMARK>
 VINA RESULT:      -6.8      3.785      8.938
  Name = 
  14 active torsions:
  status: ('A' for Active; 'I' for Inactive)
    1  A    between atoms: C_4  and  C_28
    2  A    between atoms: C_4  and  C_45
    3  A    between atoms: O_6  and  C_10
    4  A    between atoms: O_6  and  C_17
    5  A    between atoms: N_9  and  C_50
    6  A    between atoms: C_16  and  C_21
    7  A    between atoms: C_18  and  C_50
    8  A    between atoms: C_21  and  C_42
    9  A    between atoms: C_21  and  C_47
   10  A    between atoms: C_30  and  C_36
   11  A    between atoms: C_36  and  C_44
   12  A    between atoms: C_37  and  C_45
   13  A    between atoms: C_38  and  C_40
   14  A    between atoms: C_40  and  C_47
                            x       y       z     vdW  Elec       q    Type
                         _______ _______ _______ _____ _____    ______ ____

>  <TORSDO>
F 14

$$$$
=
 OpenBabel11042416003D

 52 57  0  0  1  0  0  0  0  0999 V2000
  191.5890  174.4140  143.0940 O   0  0  0  0  0  0  0  0  0  0  0  0
  190.5850  175.2730  143.1430 C   0  0  0  0  0  0  0  0  0  0  0  0
  193.8070  174.3440  144.0770 C   0  0  0  0  0  3  0  0  0  0  0  0
  192.5550  174.9040  143.8350 C   0  0  0  0  0  0  0  0  0  0  0  0
  194.3000  176.2950  145.4760 C   0  0  0  0  0  3  0  0  0  0  0  0
  194.6900  175.0530  144.9140 C   0  0  0  0  0  0  0  0  0  0  0  0
  192.1820  176.1060  144.3850 C   0  0  0  0  0  0  0  0  0  0  0  0
  190.9030  176.3580  143.9480 C   0  0  0  0  0  0  0  0  0  0  0  0
  193.0310  176.8360  145.2120 C   0  0  0  0  0  3  0  0  0  0  0  0
  196.0460  174.4830  145.1980 C   0  0  1  0  0  3  0  0  0  0  0  0
  196.2890  174.5470  146.5740 O   0  0  0  0  0  1  0  0  0  0  0  0
  196.3990  172.0830  145.8500 C   0  0  0  0  0  2  0  0  0  0  0  0
  196.4220  170.6830  145.3990 N   0  0  0  0  0  0  0  0  0  0  0  0
  197.6450  170.5320  144.5790 C   0  0  2  0  0  3  0  0  0  0  0  0
  197.3740  172.8960  143.7300 C   0  0  1  0  0  3  0  0  0  0  0  0
  197.1740  173.6380  142.5680 O   0  0  0  0  0  1  0  0  0  0  0  0
  196.1810  173.0400  144.6790 C   0  0  2  0  0  3  0  0  0  0  0  0
  197.5690  171.4370  143.3460 C   0  0  0  0  0  2  0  0  0  0  0  0
  197.5500  168.9330  146.5340 O   0  0  0  0  0  1  0  0  0  0  0  0
  196.4900  169.8410  146.6160 C   0  0  2  0  0  3  0  0  0  0  0  0
  195.2290  169.0440  146.8260 C   0  0  0  0  0  0  0  0  0  0  0  0
  194.3080  168.8040  145.6800 C   0  0  0  0  0  1  0  0  0  0  0  0
  194.9610  168.5830  147.9230 O   0  0  0  0  0  0  0  0  0  0  0  0
  197.8320  169.1090  144.0590 C   0  0  0  0  0  2  0  0  0  0  0  0
  197.9400  169.1010  142.5400 C   0  0  0  0  0  2  0  0  0  0  0  0
  196.6610  168.2900  140.4490 C   0  0  0  0  0  1  0  0  0  0  0  0
  195.7760  168.1660  142.6170 O   0  0  0  0  0  0  0  0  0  0  0  0
  196.7240  168.4910  141.9220 C   0  0  0  0  0  0  0  0  0  0  0  0
  189.3690  175.1010  142.4830 O   0  0  0  0  0  0  0  0  0  0  0  0
  189.9480  171.2260  137.6110 C   0  0  0  0  0  1  0  0  0  0  0  0
  189.3080  174.9500  141.0710 C   0  0  2  0  0  3  0  0  0  0  0  0
  189.3770  172.4210  141.7260 C   0  0  0  0  0  2  0  0  0  0  0  0
  190.5440  171.4950  141.4190 C   0  0  0  0  0  2  0  0  0  0  0  0
  190.4210  170.9480  140.0250 C   0  0  0  0  0  0  0  0  0  0  0  0
  188.1330  174.2520  140.7260 O   0  0  0  0  0  0  0  0  0  0  0  0
  189.7390  173.2150  139.2240 C   0  0  0  0  0  2  0  0  0  0  0  0
  189.3330  173.5230  140.6670 C   0  0  1  0  0  0  0  0  0  0  0  0
  190.7600  169.2370  139.7810 Cl  0  0  0  0  0  0  0  0  0  0  0  0
  190.0480  171.7500  139.0060 C   0  0  0  0  0  0  0  0  0  0  0  0
  190.0700  177.5630  144.2190 C   0  0  0  0  0  2  0  0  0  0  0  0
  189.5010  177.4830  145.6240 C   0  0  0  0  0  2  0  0  0  0  0  0
  188.5100  176.3250  145.7430 C   0  0  2  0  0  3  0  0  0  0  0  0
  185.8560  178.5930  144.8300 C   0  0  0  0  0  0  0  0  0  0  0  0
  186.8020  177.8730  146.8800 C   0  0  1  0  0  3  0  0  0  0  0  0
  185.2170  179.3410  143.9350 C   0  0  0  0  0  2  0  0  0  0  0  0
  185.8820  178.9190  146.2740 C   0  0  0  0  0  2  0  0  0  0  0  0
  186.1930  177.3000  147.9950 O   0  0  0  0  0  1  0  0  0  0  0  0
  186.6020  177.3650  144.4730 C   0  0  0  0  0  2  0  0  0  0  0  0
  187.0520  176.8010  145.8100 C   0  0  1  0  0  3  0  0  0  0  0  0
  189.9630  175.8810  147.5940 F   0  0  0  0  0  0  0  0  0  0  0  0
  188.8720  175.3920  146.9000 C   0  0  0  0  0  3  0  0  0  0  0  0
  189.1340  174.1090  146.4510 F   0  0  0  0  0  0  0  0  0  0  0  0
  1  2  1  0  0  0  0
  1  4  1  0  0  0  0
  2  8  2  0  0  0  0
  3  6  1  0  0  0  0
  4  3  2  0  0  0  0
  4  7  1  0  0  0  0
  6 10  1  0  0  0  0
  6  5  2  0  0  0  0
  7  9  2  0  0  0  0
  8 40  1  0  0  0  0
  8  7  1  0  0  0  0
  9  5  1  0  0  0  0
 10 11  1  1  0  0  0
 13 12  1  0  0  0  0
 13 20  1  0  0  0  0
 14 24  1  6  0  0  0
 14 13  1  0  0  0  0
 15 16  1  6  0  0  0
 15 17  1  0  0  0  0
 17 10  1  1  0  0  0
 17 12  1  0  0  0  0
 18 15  1  0  0  0  0
 18 14  1  0  0  0  0
 20 19  1  6  0  0  0
 20 21  1  0  0  0  0
 21 23  2  0  0  0  0
 22 21  1  0  0  0  0
 25 24  1  0  0  0  0
 26 28  1  0  0  0  0
 28 25  1  0  0  0  0
 28 27  2  0  0  0  0
 29  2  1  0  0  0  0
 30 39  1  0  0  0  0
 31 29  1  1  0  0  0
 33 32  1  0  0  0  0
 34 33  1  0  0  0  0
 35 31  1  0  0  0  0
 37 36  1  6  0  0  0
 37 35  1  0  0  0  0
 37 31  1  0  0  0  0
 37 32  1  0  0  0  0
 38 34  1  0  0  0  0
 39 36  1  0  0  0  0
 39 34  2  0  0  0  0
 40 41  1  0  0  0  0
 42 41  1  1  0  0  0
 42 51  1  0  0  0  0
 43 46  1  0  0  0  0
 44 47  1  1  0  0  0
 45 43  2  0  0  0  0
 46 44  1  0  0  0  0
 48 43  1  0  0  0  0
 48 49  1  0  0  0  0
 49 42  1  6  0  0  0
 49 44  1  0  0  0  0
 51 50  1  0  0  0  0
 52 51  1  0  0  0  0
M  END
>  <MODEL>
7

>  <REMARK>
 VINA RESULT:      -6.7      3.581      9.498
  Name = 
  14 active torsions:
  status: ('A' for Active; 'I' for Inactive)
    1  A    between atoms: C_4  and  C_28
    2  A    between atoms: C_4  and  C_45
    3  A    between atoms: O_6  and  C_10
    4  A    between atoms: O_6  and  C_17
    5  A    between atoms: N_9  and  C_50
    6  A    between atoms: C_16  and  C_21
    7  A    between atoms: C_18  and  C_50
    8  A    between atoms: C_21  and  C_42
    9  A    between atoms: C_21  and  C_47
   10  A    between atoms: C_30  and  C_36
   11  A    between atoms: C_36  and  C_44
   12  A    between atoms: C_37  and  C_45
   13  A    between atoms: C_38  and  C_40
   14  A    between atoms: C_40  and  C_47
                            x       y       z     vdW  Elec       q    Type
                         _______ _______ _______ _____ _____    ______ ____

>  <TORSDO>
F 14

$$$$
=
 OpenBabel11042416003D

 52 57  0  0  1  0  0  0  0  0999 V2000
  189.6590  174.6710  141.2160 O   0  0  0  0  0  0  0  0  0  0  0  0
  189.3000  175.2070  142.3700 C   0  0  0  0  0  0  0  0  0  0  0  0
  190.4020  172.4630  140.5340 C   0  0  0  0  0  3  0  0  0  0  0  0
  189.9660  173.4170  141.4510 C   0  0  0  0  0  0  0  0  0  0  0  0
  190.5060  170.8680  142.3900 C   0  0  0  0  0  3  0  0  0  0  0  0
  190.6720  171.1680  141.0140 C   0  0  0  0  0  0  0  0  0  0  0  0
  189.8050  173.1190  142.7810 C   0  0  0  0  0  0  0  0  0  0  0  0
  189.3680  174.2700  143.3910 C   0  0  0  0  0  0  0  0  0  0  0  0
  190.0670  171.8510  143.2930 C   0  0  0  0  0  3  0  0  0  0  0  0
  191.1430  170.1160  140.0590 C   0  0  1  0  0  3  0  0  0  0  0  0
  190.3610  170.1680  138.9000 O   0  0  0  0  0  1  0  0  0  0  0  0
  193.4470  170.4360  141.0110 C   0  0  0  0  0  2  0  0  0  0  0  0
  194.8900  170.4780  140.7330 N   0  0  0  0  0  0  0  0  0  0  0  0
  195.1330  171.7360  139.9930 C   0  0  2  0  0  3  0  0  0  0  0  0
  192.8900  171.5060  138.8540 C   0  0  1  0  0  3  0  0  0  0  0  0
  192.2940  171.3590  137.6030 O   0  0  0  0  0  1  0  0  0  0  0  0
  192.6370  170.2730  139.7250 C   0  0  2  0  0  3  0  0  0  0  0  0
  194.3840  171.7170  138.6580 C   0  0  0  0  0  2  0  0  0  0  0  0
  196.3010  171.6740  142.2170 O   0  0  0  0  0  1  0  0  0  0  0  0
  195.5800  170.4900  142.0440 C   0  0  2  0  0  3  0  0  0  0  0  0
  196.5500  169.3460  142.1850 C   0  0  0  0  0  0  0  0  0  0  0  0
  196.8750  168.5030  141.0010 C   0  0  0  0  0  1  0  0  0  0  0  0
  197.0840  169.1130  143.2580 O   0  0  0  0  0  0  0  0  0  0  0  0
  196.6080  171.9450  139.6560 C   0  0  0  0  0  2  0  0  0  0  0  0
  196.7770  173.0820  138.6590 C   0  0  0  0  0  2  0  0  0  0  0  0
  197.5860  174.6490  140.5450 C   0  0  0  0  0  1  0  0  0  0  0  0
  196.0000  175.2900  138.9420 O   0  0  0  0  0  0  0  0  0  0  0  0
  196.7350  174.4070  139.3480 C   0  0  0  0  0  0  0  0  0  0  0  0
  188.8960  176.5320  142.5300 O   0  0  0  0  0  0  0  0  0  0  0  0
  184.0670  178.6660  145.8780 C   0  0  0  0  0  1  0  0  0  0  0  0
  187.5210  176.8910  142.5370 C   0  0  2  0  0  3  0  0  0  0  0  0
  188.1960  177.9140  144.8440 C   0  0  0  0  0  2  0  0  0  0  0  0
  187.7010  177.3900  146.1840 C   0  0  0  0  0  2  0  0  0  0  0  0
  186.3610  177.9870  146.5120 C   0  0  0  0  0  0  0  0  0  0  0  0
  187.4040  178.2950  142.5800 O   0  0  0  0  0  0  0  0  0  0  0  0
  185.6570  177.6420  144.1390 C   0  0  0  0  0  2  0  0  0  0  0  0
  187.1440  177.6090  143.7780 C   0  0  1  0  0  0  0  0  0  0  0  0
  186.0900  178.5390  148.1620 Cl  0  0  0  0  0  0  0  0  0  0  0  0
  185.4120  178.1010  145.5600 C   0  0  0  0  0  0  0  0  0  0  0  0
  189.0970  174.4860  144.8400 C   0  0  0  0  0  2  0  0  0  0  0  0
  190.3730  174.2680  145.6350 C   0  0  0  0  0  2  0  0  0  0  0  0
  191.2900  175.4870  145.5320 C   0  0  2  0  0  3  0  0  0  0  0  0
  193.2410  174.5960  142.6300 C   0  0  0  0  0  0  0  0  0  0  0  0
  192.9420  173.6630  144.7880 C   0  0  1  0  0  3  0  0  0  0  0  0
  193.5180  174.7000  141.3330 C   0  0  0  0  0  2  0  0  0  0  0  0
  193.5070  173.3660  143.4100 C   0  0  0  0  0  2  0  0  0  0  0  0
  193.8850  173.3420  145.7630 O   0  0  0  0  0  1  0  0  0  0  0  0
  192.6430  175.6960  143.4200 C   0  0  0  0  0  2  0  0  0  0  0  0
  192.6240  175.1640  144.8430 C   0  0  1  0  0  3  0  0  0  0  0  0
  192.8290  176.3590  147.1470 F   0  0  0  0  0  0  0  0  0  0  0  0
  191.4840  176.1600  146.8910 C   0  0  0  0  0  3  0  0  0  0  0  0
  190.9160  175.4150  147.9100 F   0  0  0  0  0  0  0  0  0  0  0  0
  1  4  1  0  0  0  0
  1  2  1  0  0  0  0
  2 29  1  0  0  0  0
  2  8  2  0  0  0  0
  3  6  2  0  0  0  0
  3  4  1  0  0  0  0
  4  7  2  0  0  0  0
  5  9  2  0  0  0  0
  6  5  1  0  0  0  0
  7  9  1  0  0  0  0
  7  8  1  0  0  0  0
  8 40  1  0  0  0  0
 10 11  1  6  0  0  0
 10  6  1  0  0  0  0
 13 12  1  0  0  0  0
 13 20  1  0  0  0  0
 14 24  1  6  0  0  0
 14 13  1  0  0  0  0
 15 16  1  6  0  0  0
 15 17  1  0  0  0  0
 17 10  1  1  0  0  0
 17 12  1  0  0  0  0
 18 15  1  0  0  0  0
 18 14  1  0  0  0  0
 20 21  1  0  0  0  0
 20 19  1  6  0  0  0
 21 23  2  0  0  0  0
 22 21  1  0  0  0  0
 25 28  1  0  0  0  0
 25 24  1  0  0  0  0
 27 28  2  0  0  0  0
 28 26  1  0  0  0  0
 31 29  1  1  0  0  0
 31 35  1  0  0  0  0
 31 37  1  0  0  0  0
 32 33  1  0  0  0  0
 33 34  1  0  0  0  0
 34 38  1  0  0  0  0
 35 37  1  0  0  0  0
 36 39  1  0  0  0  0
 37 36  1  1  0  0  0
 37 32  1  0  0  0  0
 39 30  1  0  0  0  0
 39 34  2  0  0  0  0
 40 41  1  0  0  0  0
 42 41  1  1  0  0  0
 42 51  1  0  0  0  0
 43 46  1  0  0  0  0
 43 48  1  0  0  0  0
 44 49  1  0  0  0  0
 44 47  1  1  0  0  0
 45 43  2  0  0  0  0
 46 44  1  0  0  0  0
 48 49  1  0  0  0  0
 49 42  1  6  0  0  0
 51 50  1  0  0  0  0
 51 52  1  0  0  0  0
M  END
>  <MODEL>
8

>  <REMARK>
 VINA RESULT:      -6.7      3.367      9.002
  Name = 
  14 active torsions:
  status: ('A' for Active; 'I' for Inactive)
    1  A    between atoms: C_4  and  C_28
    2  A    between atoms: C_4  and  C_45
    3  A    between atoms: O_6  and  C_10
    4  A    between atoms: O_6  and  C_17
    5  A    between atoms: N_9  and  C_50
    6  A    between atoms: C_16  and  C_21
    7  A    between atoms: C_18  and  C_50
    8  A    between atoms: C_21  and  C_42
    9  A    between atoms: C_21  and  C_47
   10  A    between atoms: C_30  and  C_36
   11  A    between atoms: C_36  and  C_44
   12  A    between atoms: C_37  and  C_45
   13  A    between atoms: C_38  and  C_40
   14  A    between atoms: C_40  and  C_47
                            x       y       z     vdW  Elec       q    Type
                         _______ _______ _______ _____ _____    ______ ____

>  <TORSDO>
F 14

$$$$
=
 OpenBabel11042416003D

 52 57  0  0  1  0  0  0  0  0999 V2000
  190.8750  173.5430  142.2110 O   0  0  0  0  0  0  0  0  0  0  0  0
  190.0580  174.2050  143.0120 C   0  0  0  0  0  0  0  0  0  0  0  0
  190.8060  172.9150  139.8670 C   0  0  0  0  0  3  0  0  0  0  0  0
  190.3120  173.5100  141.0260 C   0  0  0  0  0  0  0  0  0  0  0  0
  188.7770  173.6800  138.7260 C   0  0  0  0  0  3  0  0  0  0  0  0
  190.0250  173.0070  138.6990 C   0  0  0  0  0  0  0  0  0  0  0  0
  189.1040  174.1630  141.0440 C   0  0  0  0  0  0  0  0  0  0  0  0
  188.9260  174.6250  142.3260 C   0  0  0  0  0  0  0  0  0  0  0  0
  188.3030  174.2680  139.9100 C   0  0  0  0  0  3  0  0  0  0  0  0
  190.5220  172.3800  137.4340 C   0  0  1  0  0  3  0  0  0  0  0  0
  189.4300  172.0730  136.6150 O   0  0  0  0  0  1  0  0  0  0  0  0
  192.7720  173.4920  137.5590 C   0  0  0  0  0  2  0  0  0  0  0  0
  193.7960  174.2640  136.8410 N   0  0  0  0  0  0  0  0  0  0  0  0
  193.2460  175.6290  136.6770 C   0  0  2  0  0  3  0  0  0  0  0  0
  190.9250  174.6670  136.4130 C   0  0  1  0  0  3  0  0  0  0  0  0
  189.8640  174.5680  135.5160 O   0  0  0  0  0  1  0  0  0  0  0  0
  191.5250  173.2880  136.7000 C   0  0  2  0  0  3  0  0  0  0  0  0
  191.9800  175.5870  135.8170 C   0  0  0  0  0  2  0  0  0  0  0  0
  195.6780  173.0550  137.6290 O   0  0  0  0  0  1  0  0  0  0  0  0
  195.0050  174.2780  137.6980 C   0  0  2  0  0  3  0  0  0  0  0  0
  194.6710  174.5290  139.1450 C   0  0  0  0  0  0  0  0  0  0  0  0
  194.6440  173.3900  140.1040 C   0  0  0  0  0  1  0  0  0  0  0  0
  194.4360  175.6590  139.5410 O   0  0  0  0  0  0  0  0  0  0  0  0
  194.2170  176.5720  135.9690 C   0  0  0  0  0  2  0  0  0  0  0  0
  193.4600  177.6680  135.2320 C   0  0  0  0  0  2  0  0  0  0  0  0
  193.8370  180.1940  134.8520 C   0  0  0  0  0  1  0  0  0  0  0  0
  195.5390  178.5990  134.6230 O   0  0  0  0  0  0  0  0  0  0  0  0
  194.3670  178.8050  134.8870 C   0  0  0  0  0  0  0  0  0  0  0  0
  190.3100  174.4570  144.3600 O   0  0  0  0  0  0  0  0  0  0  0  0
  196.4360  174.1580  145.5720 C   0  0  0  0  0  1  0  0  0  0  0  0
  191.3520  173.7860  145.0550 C   0  0  2  0  0  3  0  0  0  0  0  0
  192.6890  175.9040  144.3090 C   0  0  0  0  0  2  0  0  0  0  0  0
  193.8280  175.8790  143.3000 C   0  0  0  0  0  2  0  0  0  0  0  0
  195.1180  175.5230  143.9830 C   0  0  0  0  0  0  0  0  0  0  0  0
  191.7830  174.5840  146.1350 O   0  0  0  0  0  0  0  0  0  0  0  0
  193.9120  173.7690  145.2920 C   0  0  0  0  0  2  0  0  0  0  0  0
  192.6250  174.5480  145.0110 C   0  0  1  0  0  0  0  0  0  0  0  0
  196.5570  176.4400  143.5470 Cl  0  0  0  0  0  0  0  0  0  0  0  0
  195.1550  174.5400  144.9070 C   0  0  0  0  0  0  0  0  0  0  0  0
  187.7480  175.3500  142.8760 C   0  0  0  0  0  2  0  0  0  0  0  0
  188.0320  176.8410  142.8990 C   0  0  0  0  0  2  0  0  0  0  0  0
  188.1100  177.3560  144.3370 C   0  0  2  0  0  3  0  0  0  0  0  0
  184.9640  178.2390  145.8660 C   0  0  0  0  0  0  0  0  0  0  0  0
  185.8340  178.3420  143.6640 C   0  0  1  0  0  3  0  0  0  0  0  0
  184.0970  178.1740  146.8730 C   0  0  0  0  0  2  0  0  0  0  0  0
  184.5450  178.4460  144.4620 C   0  0  0  0  0  2  0  0  0  0  0  0
  185.9360  179.4240  142.7920 O   0  0  0  0  0  1  0  0  0  0  0  0
  186.4270  178.1110  146.0490 C   0  0  0  0  0  2  0  0  0  0  0  0
  186.9980  178.3630  144.6640 C   0  0  1  0  0  3  0  0  0  0  0  0
  190.3120  177.8680  143.5430 F   0  0  0  0  0  0  0  0  0  0  0  0
  189.5020  177.9000  144.6630 C   0  0  0  0  0  3  0  0  0  0  0  0
  190.0940  177.1880  145.6920 F   0  0  0  0  0  0  0  0  0  0  0  0
  1  2  1  0  0  0  0
  2 29  1  0  0  0  0
  3  4  1  0  0  0  0
  4  7  2  0  0  0  0
  4  1  1  0  0  0  0
  5  9  2  0  0  0  0
  6  5  1  0  0  0  0
  6  3  2  0  0  0  0
  7  8  1  0  0  0  0
  8 40  1  0  0  0  0
  8  2  2  0  0  0  0
  9  7  1  0  0  0  0
 10 11  1  6  0  0  0
 10  6  1  0  0  0  0
 13 12  1  0  0  0  0
 13 20  1  0  0  0  0
 14 24  1  6  0  0  0
 14 13  1  0  0  0  0
 15 16  1  6  0  0  0
 15 17  1  0  0  0  0
 17 10  1  1  0  0  0
 17 12  1  0  0  0  0
 18 15  1  0  0  0  0
 18 14  1  0  0  0  0
 20 19  1  1  0  0  0
 20 21  1  0  0  0  0
 21 23  2  0  0  0  0
 21 22  1  0  0  0  0
 25 24  1  0  0  0  0
 26 28  1  0  0  0  0
 27 28  2  0  0  0  0
 28 25  1  0  0  0  0
 31 29  1  6  0  0  0
 31 35  1  0  0  0  0
 33 34  1  0  0  0  0
 33 32  1  0  0  0  0
 34 39  2  0  0  0  0
 37 32  1  6  0  0  0
 37 31  1  0  0  0  0
 37 36  1  0  0  0  0
 37 35  1  0  0  0  0
 38 34  1  0  0  0  0
 39 36  1  0  0  0  0
 39 30  1  0  0  0  0
 40 41  1  0  0  0  0
 42 41  1  6  0  0  0
 42 51  1  0  0  0  0
 43 48  1  0  0  0  0
 43 45  2  0  0  0  0
 44 47  1  6  0  0  0
 44 46  1  0  0  0  0
 44 49  1  0  0  0  0
 46 43  1  0  0  0  0
 49 42  1  6  0  0  0
 49 48  1  0  0  0  0
 50 51  1  0  0  0  0
 51 52  1  0  0  0  0
M  END
>  <MODEL>
9

>  <REMARK>
 VINA RESULT:      -6.6      3.626      8.896
  Name = 
  14 active torsions:
  status: ('A' for Active; 'I' for Inactive)
    1  A    between atoms: C_4  and  C_28
    2  A    between atoms: C_4  and  C_45
    3  A    between atoms: O_6  and  C_10
    4  A    between atoms: O_6  and  C_17
    5  A    between atoms: N_9  and  C_50
    6  A    between atoms: C_16  and  C_21
    7  A    between atoms: C_18  and  C_50
    8  A    between atoms: C_21  and  C_42
    9  A    between atoms: C_21  and  C_47
   10  A    between atoms: C_30  and  C_36
   11  A    between atoms: C_36  and  C_44
   12  A    between atoms: C_37  and  C_45
   13  A    between atoms: C_38  and  C_40
   14  A    between atoms: C_40  and  C_47
                            x       y       z     vdW  Elec       q    Type
                         _______ _______ _______ _____ _____    ______ ____

>  <TORSDO>
F 14

$$$$
