=
 OpenBabel11042414483D

 28 30  0  0  1  0  0  0  0  0999 V2000
  192.0320  174.5500  144.0280 C   0  0  0  0  0  0  0  0  0  0  0  0
  190.6570  176.3300  143.0930 O   0  0  0  0  0  0  0  0  0  0  0  0
  189.2900  176.1960  142.7840 C   0  0  1  0  0  3  0  0  0  0  0  0
  187.8820  174.2020  141.9510 C   0  0  0  0  0  1  0  0  0  0  0  0
  190.3660  174.1690  142.1870 C   0  0  1  0  0  3  0  0  0  0  0  0
  192.1150  173.3040  144.2030 O   0  0  0  0  0  0  0  0  0  0  0  0
  191.0870  173.8580  141.0350 O   0  0  0  0  0  1  0  0  0  0  0  0
  191.1410  175.0610  143.0240 N   0  0  0  0  0  0  0  0  0  0  0  0
  189.1730  175.0010  141.8310 C   0  0  2  0  0  3  0  0  0  0  0  0
  194.0300  175.9490  144.2850 N   0  0  0  0  0  0  0  0  0  0  0  0
  193.3900  176.6750  146.8310 N   0  0  0  0  0  0  0  0  0  0  0  0
  192.8770  175.4700  144.8290 C   0  0  0  0  0  0  0  0  0  0  0  0
  191.3540  175.4070  146.7820 N   0  0  0  0  0  1  0  0  0  0  0  0
  194.8630  176.7710  144.9730 C   0  0  0  0  0  3  0  0  0  0  0  0
  192.5520  175.8500  146.1510 C   0  0  0  0  0  0  0  0  0  0  0  0
  194.5360  177.1420  146.2740 C   0  0  0  0  0  3  0  0  0  0  0  0
  188.4700  176.0430  144.0740 C   0  0  0  0  0  2  0  0  0  0  0  0
  188.9170  177.6330  145.8140 O   0  0  0  0  0  1  0  0  0  0  0  0
  188.0900  177.3800  144.7150 C   0  0  2  0  0  3  0  0  0  0  0  0
  186.3990  178.0120  146.5030 C   0  0  0  0  0  2  0  0  0  0  0  0
  184.0690  178.4840  145.9180 N   0  0  0  0  0  2  0  0  0  0  0  0
  184.9370  177.8430  146.8990 C   0  0  0  0  0  2  0  0  0  0  0  0
  183.6260  179.0400  143.7050 O   0  0  0  0  0  0  0  0  0  0  0  0
  184.4380  178.5580  144.5390 C   0  0  0  0  0  0  0  0  0  0  0  0
  185.7550  178.1420  144.1290 N   0  0  0  0  0  0  0  0  0  0  0  0
  186.6000  177.4230  145.1050 C   0  0  1  0  0  3  0  0  0  0  0  0
  185.9250  177.5630  141.7570 C   0  0  0  0  0  1  0  0  0  0  0  0
  186.2690  178.5780  142.8310 C   0  0  0  0  0  2  0  0  0  0  0  0
  1  6  2  0  0  0  0
  1 12  1  0  0  0  0
  3  2  1  0  0  0  0
  3 17  1  1  0  0  0
  5  7  1  6  0  0  0
  5  8  1  0  0  0  0
  8  2  1  0  0  0  0
  8  1  1  0  0  0  0
  9  4  1  1  0  0  0
  9  5  1  0  0  0  0
  9  3  1  0  0  0  0
 10 12  2  0  0  0  0
 10 14  1  0  0  0  0
 12 15  1  0  0  0  0
 14 16  2  0  0  0  0
 15 13  1  0  0  0  0
 15 11  2  0  0  0  0
 16 11  1  0  0  0  0
 17 19  1  0  0  0  0
 19 18  1  1  0  0  0
 20 22  1  0  0  0  0
 21 22  1  0  0  0  0
 23 24  2  0  0  0  0
 24 21  1  0  0  0  0
 25 24  1  0  0  0  0
 25 26  1  0  0  0  0
 26 19  1  6  0  0  0
 26 20  1  0  0  0  0
 27 28  1  0  0  0  0
 28 25  1  0  0  0  0
M  END
>  <MODEL>
1

>  <REMARK>
 VINA RESULT:      -6.8      0.000      0.000
  Name = 
  5 active torsions:
  status: ('A' for Active; 'I' for Inactive)
    1  A    between atoms: C_1  and  C_13
    2  A    between atoms: C_1  and  C_28
    3  A    between atoms: C_3  and  C_11
    4  A    between atoms: N_21  and  C_23
    5  A    between atoms: C_25  and  C_28
                            x       y       z     vdW  Elec       q    Type
                         _______ _______ _______ _____ _____    ______ ____

>  <TORSDO>
F 5

$$$$
=
 OpenBabel11042414483D

 28 30  0  0  1  0  0  0  0  0999 V2000
  191.3130  175.0000  143.7250 C   0  0  0  0  0  0  0  0  0  0  0  0
  189.7320  174.7770  145.5640 O   0  0  0  0  0  0  0  0  0  0  0  0
  189.6960  175.6260  146.6860 C   0  0  1  0  0  3  0  0  0  0  0  0
  191.5420  176.8880  147.9720 C   0  0  0  0  0  1  0  0  0  0  0  0
  191.9720  175.2550  146.1350 C   0  0  1  0  0  3  0  0  0  0  0  0
  192.4140  175.5060  143.3770 O   0  0  0  0  0  0  0  0  0  0  0  0
  192.7940  174.1740  146.4560 O   0  0  0  0  0  1  0  0  0  0  0  0
  191.0150  174.8590  145.1240 N   0  0  0  0  0  0  0  0  0  0  0  0
  191.0990  175.5940  147.3040 C   0  0  2  0  0  3  0  0  0  0  0  0
  190.3490  173.2020  142.3630 N   0  0  0  0  0  0  0  0  0  0  0  0
  188.6390  174.8810  141.0690 N   0  0  0  0  0  0  0  0  0  0  0  0
  190.3560  174.5230  142.6960 C   0  0  0  0  0  0  0  0  0  0  0  0
  189.4020  176.7780  142.3240 N   0  0  0  0  0  1  0  0  0  0  0  0
  189.5190  172.7040  141.4110 C   0  0  0  0  0  3  0  0  0  0  0  0
  189.4680  175.3880  142.0200 C   0  0  0  0  0  0  0  0  0  0  0  0
  188.6460  173.5620  140.7490 C   0  0  0  0  0  3  0  0  0  0  0  0
  189.2350  177.0320  146.2690 C   0  0  0  0  0  2  0  0  0  0  0  0
  187.1720  176.1730  147.1410 O   0  0  0  0  0  1  0  0  0  0  0  0
  187.7360  177.2650  146.4730 C   0  0  2  0  0  3  0  0  0  0  0  0
  186.5590  176.2550  144.4610 C   0  0  0  0  0  2  0  0  0  0  0  0
  184.9520  177.5660  143.1570 N   0  0  0  0  0  2  0  0  0  0  0  0
  186.0360  176.5940  143.0700 C   0  0  0  0  0  2  0  0  0  0  0  0
  184.0160  179.4240  144.1930 O   0  0  0  0  0  0  0  0  0  0  0  0
  184.9200  178.5460  144.1980 C   0  0  0  0  0  0  0  0  0  0  0  0
  185.8760  178.4790  145.2720 N   0  0  0  0  0  0  0  0  0  0  0  0
  187.0160  177.5470  145.1410 C   0  0  1  0  0  3  0  0  0  0  0  0
  184.5380  178.4990  147.3220 C   0  0  0  0  0  1  0  0  0  0  0  0
  185.6090  179.2070  146.5130 C   0  0  0  0  0  2  0  0  0  0  0  0
  1  8  1  0  0  0  0
  2  3  1  0  0  0  0
  3 17  1  6  0  0  0
  3  9  1  0  0  0  0
  5  7  1  1  0  0  0
  5  9  1  0  0  0  0
  6  1  2  0  0  0  0
  8  2  1  0  0  0  0
  8  5  1  0  0  0  0
  9  4  1  6  0  0  0
 10 12  1  0  0  0  0
 11 15  1  0  0  0  0
 12  1  1  0  0  0  0
 14 10  2  0  0  0  0
 15 13  1  0  0  0  0
 15 12  2  0  0  0  0
 16 11  2  0  0  0  0
 16 14  1  0  0  0  0
 17 19  1  0  0  0  0
 19 18  1  6  0  0  0
 20 26  1  0  0  0  0
 21 24  1  0  0  0  0
 22 21  1  0  0  0  0
 22 20  1  0  0  0  0
 23 24  2  0  0  0  0
 24 25  1  0  0  0  0
 25 28  1  0  0  0  0
 26 25  1  0  0  0  0
 26 19  1  1  0  0  0
 28 27  1  0  0  0  0
M  END
>  <MODEL>
2

>  <REMARK>
 VINA RESULT:      -6.8      1.964      4.486
  Name = 
  5 active torsions:
  status: ('A' for Active; 'I' for Inactive)
    1  A    between atoms: C_1  and  C_13
    2  A    between atoms: C_1  and  C_28
    3  A    between atoms: C_3  and  C_11
    4  A    between atoms: N_21  and  C_23
    5  A    between atoms: C_25  and  C_28
                            x       y       z     vdW  Elec       q    Type
                         _______ _______ _______ _____ _____    ______ ____

>  <TORSDO>
F 5

$$$$
=
 OpenBabel11042414483D

 28 30  0  0  1  0  0  0  0  0999 V2000
  185.8210  178.8120  143.9610 C   0  0  0  0  0  0  0  0  0  0  0  0
  186.3140  176.5880  143.0990 O   0  0  0  0  0  0  0  0  0  0  0  0
  186.9690  176.3380  141.8790 C   0  0  1  0  0  3  0  0  0  0  0  0
  186.9830  177.5900  139.6240 C   0  0  0  0  0  1  0  0  0  0  0  0
  185.5100  178.1780  141.5500 C   0  0  1  0  0  3  0  0  0  0  0  0
  185.7050  180.0290  143.6500 O   0  0  0  0  0  0  0  0  0  0  0  0
  184.1390  178.1850  141.2940 O   0  0  0  0  0  1  0  0  0  0  0  0
  185.7490  177.8130  142.9310 N   0  0  0  0  0  0  0  0  0  0  0  0
  186.1630  177.0630  140.7940 C   0  0  2  0  0  3  0  0  0  0  0  0
  187.2190  178.0160  145.8130 N   0  0  0  0  0  0  0  0  0  0  0  0
  185.1520  178.0270  147.5870 N   0  0  0  0  0  0  0  0  0  0  0  0
  185.9920  178.4220  145.3830 C   0  0  0  0  0  0  0  0  0  0  0  0
  183.6170  178.8520  145.9390 N   0  0  0  0  0  1  0  0  0  0  0  0
  187.4380  177.6200  147.0930 C   0  0  0  0  0  3  0  0  0  0  0  0
  184.9240  178.4230  146.3080 C   0  0  0  0  0  0  0  0  0  0  0  0
  186.3810  177.6250  148.0000 C   0  0  0  0  0  3  0  0  0  0  0  0
  188.4360  176.7870  141.9660 C   0  0  0  0  0  2  0  0  0  0  0  0
  188.9330  174.4430  141.8460 O   0  0  0  0  0  1  0  0  0  0  0  0
  189.3940  175.6600  142.3590 C   0  0  2  0  0  3  0  0  0  0  0  0
  189.5800  174.1460  144.3920 C   0  0  0  0  0  2  0  0  0  0  0  0
  190.7500  174.8910  146.4100 N   0  0  0  0  0  2  0  0  0  0  0  0
  189.5870  174.1630  145.9160 C   0  0  0  0  0  2  0  0  0  0  0  0
  192.2580  176.6440  146.1710 O   0  0  0  0  0  0  0  0  0  0  0  0
  191.3070  175.9830  145.6740 C   0  0  0  0  0  0  0  0  0  0  0  0
  190.8220  176.2730  144.3490 N   0  0  0  0  0  0  0  0  0  0  0  0
  189.5970  175.5900  143.8850 C   0  0  1  0  0  3  0  0  0  0  0  0
  191.2250  178.5590  143.5710 C   0  0  0  0  0  1  0  0  0  0  0  0
  191.6330  177.1020  143.4570 C   0  0  0  0  0  2  0  0  0  0  0  0
  1 12  1  0  0  0  0
  3 17  1  1  0  0  0
  3  2  1  0  0  0  0
  5  7  1  1  0  0  0
  5  8  1  0  0  0  0
  6  1  2  0  0  0  0
  8  2  1  0  0  0  0
  8  1  1  0  0  0  0
  9  4  1  6  0  0  0
  9  5  1  0  0  0  0
  9  3  1  0  0  0  0
 10 14  1  0  0  0  0
 11 16  1  0  0  0  0
 12 10  2  0  0  0  0
 12 15  1  0  0  0  0
 13 15  1  0  0  0  0
 14 16  2  0  0  0  0
 15 11  2  0  0  0  0
 17 19  1  0  0  0  0
 19 18  1  1  0  0  0
 20 22  1  0  0  0  0
 22 21  1  0  0  0  0
 24 23  2  0  0  0  0
 24 21  1  0  0  0  0
 25 24  1  0  0  0  0
 26 19  1  6  0  0  0
 26 25  1  0  0  0  0
 26 20  1  0  0  0  0
 28 27  1  0  0  0  0
 28 25  1  0  0  0  0
M  END
>  <MODEL>
3

>  <REMARK>
 VINA RESULT:      -6.6      2.181      6.558
  Name = 
  5 active torsions:
  status: ('A' for Active; 'I' for Inactive)
    1  A    between atoms: C_1  and  C_13
    2  A    between atoms: C_1  and  C_28
    3  A    between atoms: C_3  and  C_11
    4  A    between atoms: N_21  and  C_23
    5  A    between atoms: C_25  and  C_28
                            x       y       z     vdW  Elec       q    Type
                         _______ _______ _______ _____ _____    ______ ____

>  <TORSDO>
F 5

$$$$
=
 OpenBabel11042414483D

 28 30  0  0  1  0  0  0  0  0999 V2000
  187.5850  176.9490  145.1190 C   0  0  0  0  0  0  0  0  0  0  0  0
  189.9430  177.3120  144.6350 O   0  0  0  0  0  0  0  0  0  0  0  0
  190.9950  176.5920  145.2330 C   0  0  1  0  0  3  0  0  0  0  0  0
  191.2820  175.5550  147.5770 C   0  0  0  0  0  1  0  0  0  0  0  0
  189.3560  176.9900  146.8990 C   0  0  1  0  0  3  0  0  0  0  0  0
  186.7730  176.4510  145.9460 O   0  0  0  0  0  0  0  0  0  0  0  0
  189.1400  178.1310  147.6720 O   0  0  0  0  0  1  0  0  0  0  0  0
  188.9290  177.2320  145.5370 N   0  0  0  0  0  0  0  0  0  0  0  0
  190.8260  176.7490  146.7490 C   0  0  2  0  0  3  0  0  0  0  0  0
  187.4750  176.4300  142.7240 N   0  0  0  0  0  0  0  0  0  0  0  0
  186.0440  178.6740  142.1410 N   0  0  0  0  0  0  0  0  0  0  0  0
  187.1360  177.2700  143.7410 C   0  0  0  0  0  0  0  0  0  0  0  0
  185.9880  179.3500  144.4420 N   0  0  0  0  0  1  0  0  0  0  0  0
  187.1210  176.6800  141.4370 C   0  0  0  0  0  3  0  0  0  0  0  0
  186.3960  178.4330  143.4310 C   0  0  0  0  0  0  0  0  0  0  0  0
  186.3910  177.8260  141.1390 C   0  0  0  0  0  3  0  0  0  0  0  0
  190.9740  175.1320  144.7540 C   0  0  0  0  0  2  0  0  0  0  0  0
  191.9000  174.0910  142.8020 O   0  0  0  0  0  1  0  0  0  0  0  0
  192.2420  174.7200  144.0030 C   0  0  2  0  0  3  0  0  0  0  0  0
  193.3320  172.4390  144.2580 C   0  0  0  0  0  2  0  0  0  0  0  0
  195.3590  172.1580  145.6030 N   0  0  0  0  0  2  0  0  0  0  0  0
  194.0760  171.5590  145.2540 C   0  0  0  0  0  2  0  0  0  0  0  0
  196.6250  174.0640  146.0160 O   0  0  0  0  0  0  0  0  0  0  0  0
  195.5300  173.5780  145.6270 C   0  0  0  0  0  0  0  0  0  0  0  0
  194.4750  174.4320  145.1450 N   0  0  0  0  0  0  0  0  0  0  0  0
  193.1550  173.8310  144.8690 C   0  0  1  0  0  3  0  0  0  0  0  0
  194.5580  176.7280  145.9910 C   0  0  0  0  0  1  0  0  0  0  0  0
  194.7830  175.8190  144.7970 C   0  0  0  0  0  2  0  0  0  0  0  0
  1  8  1  0  0  0  0
  1  6  2  0  0  0  0
  2  3  1  0  0  0  0
  2  8  1  0  0  0  0
  3 17  1  1  0  0  0
  3  9  1  0  0  0  0
  5  7  1  1  0  0  0
  8  5  1  0  0  0  0
  9  5  1  0  0  0  0
  9  4  1  1  0  0  0
 10 12  1  0  0  0  0
 11 15  1  0  0  0  0
 12  1  1  0  0  0  0
 14 10  2  0  0  0  0
 15 12  2  0  0  0  0
 15 13  1  0  0  0  0
 16 14  1  0  0  0  0
 16 11  2  0  0  0  0
 19 18  1  6  0  0  0
 19 17  1  0  0  0  0
 20 26  1  0  0  0  0
 20 22  1  0  0  0  0
 21 24  1  0  0  0  0
 22 21  1  0  0  0  0
 24 23  2  0  0  0  0
 25 24  1  0  0  0  0
 26 19  1  6  0  0  0
 26 25  1  0  0  0  0
 28 25  1  0  0  0  0
 28 27  1  0  0  0  0
M  END
>  <MODEL>
4

>  <REMARK>
 VINA RESULT:      -6.4      2.288      8.045
  Name = 
  5 active torsions:
  status: ('A' for Active; 'I' for Inactive)
    1  A    between atoms: C_1  and  C_13
    2  A    between atoms: C_1  and  C_28
    3  A    between atoms: C_3  and  C_11
    4  A    between atoms: N_21  and  C_23
    5  A    between atoms: C_25  and  C_28
                            x       y       z     vdW  Elec       q    Type
                         _______ _______ _______ _____ _____    ______ ____

>  <TORSDO>
F 5

$$$$
=
 OpenBabel11042414483D

 28 30  0  0  1  0  0  0  0  0999 V2000
  187.5610  176.9920  145.2510 C   0  0  0  0  0  0  0  0  0  0  0  0
  189.8810  177.3500  144.6020 O   0  0  0  0  0  0  0  0  0  0  0  0
  190.9690  176.6180  145.1130 C   0  0  1  0  0  3  0  0  0  0  0  0
  191.4180  175.5510  147.4180 C   0  0  0  0  0  1  0  0  0  0  0  0
  189.4570  177.0030  146.8980 C   0  0  1  0  0  3  0  0  0  0  0  0
  186.8080  176.4880  146.1290 O   0  0  0  0  0  0  0  0  0  0  0  0
  189.3030  178.1360  147.6980 O   0  0  0  0  0  1  0  0  0  0  0  0
  188.9340  177.2640  145.5740 N   0  0  0  0  0  0  0  0  0  0  0  0
  190.9110  176.7570  146.6390 C   0  0  2  0  0  3  0  0  0  0  0  0
  187.2720  176.5020  142.8650 N   0  0  0  0  0  0  0  0  0  0  0  0
  185.8210  178.7620  142.4130 N   0  0  0  0  0  0  0  0  0  0  0  0
  187.0160  177.3330  143.9130 C   0  0  0  0  0  0  0  0  0  0  0  0
  185.9380  179.4130  144.7190 N   0  0  0  0  0  1  0  0  0  0  0  0
  186.8280  176.7690  141.6100 C   0  0  0  0  0  3  0  0  0  0  0  0
  186.2640  178.5040  143.6710 C   0  0  0  0  0  0  0  0  0  0  0  0
  186.0870  177.9240  141.3790 C   0  0  0  0  0  3  0  0  0  0  0  0
  190.9040  175.1640  144.6200 C   0  0  0  0  0  2  0  0  0  0  0  0
  192.0540  173.3980  143.4740 O   0  0  0  0  0  1  0  0  0  0  0  0
  192.0800  174.7740  143.7210 C   0  0  2  0  0  3  0  0  0  0  0  0
  194.1730  174.0440  144.9640 C   0  0  0  0  0  2  0  0  0  0  0  0
  196.2500  175.3280  144.7890 N   0  0  0  0  0  2  0  0  0  0  0  0
  195.3910  174.5840  145.7030 C   0  0  0  0  0  2  0  0  0  0  0  0
  196.4650  176.7480  142.9610 O   0  0  0  0  0  0  0  0  0  0  0  0
  195.7040  176.0450  143.6780 C   0  0  0  0  0  0  0  0  0  0  0  0
  194.3090  175.9040  143.3540 N   0  0  0  0  0  0  0  0  0  0  0  0
  193.4280  175.2170  144.3220 C   0  0  1  0  0  3  0  0  0  0  0  0
  194.2120  175.2410  140.9990 C   0  0  0  0  0  1  0  0  0  0  0  0
  193.8410  176.2970  142.0250 C   0  0  0  0  0  2  0  0  0  0  0  0
  1  8  1  0  0  0  0
  1  6  2  0  0  0  0
  2  3  1  0  0  0  0
  2  8  1  0  0  0  0
  3 17  1  1  0  0  0
  3  9  1  0  0  0  0
  5  7  1  1  0  0  0
  8  5  1  0  0  0  0
  9  5  1  0  0  0  0
  9  4  1  1  0  0  0
 10 12  1  0  0  0  0
 11 15  1  0  0  0  0
 12  1  1  0  0  0  0
 14 10  2  0  0  0  0
 15 12  2  0  0  0  0
 15 13  1  0  0  0  0
 16 14  1  0  0  0  0
 16 11  2  0  0  0  0
 19 18  1  1  0  0  0
 19 17  1  0  0  0  0
 20 22  1  0  0  0  0
 21 22  1  0  0  0  0
 23 24  2  0  0  0  0
 24 21  1  0  0  0  0
 25 24  1  0  0  0  0
 25 26  1  0  0  0  0
 26 19  1  6  0  0  0
 26 20  1  0  0  0  0
 27 28  1  0  0  0  0
 28 25  1  0  0  0  0
M  END
>  <MODEL>
5

>  <REMARK>
 VINA RESULT:      -6.3      2.301      7.808
  Name = 
  5 active torsions:
  status: ('A' for Active; 'I' for Inactive)
    1  A    between atoms: C_1  and  C_13
    2  A    between atoms: C_1  and  C_28
    3  A    between atoms: C_3  and  C_11
    4  A    between atoms: N_21  and  C_23
    5  A    between atoms: C_25  and  C_28
                            x       y       z     vdW  Elec       q    Type
                         _______ _______ _______ _____ _____    ______ ____

>  <TORSDO>
F 5

$$$$
=
 OpenBabel11042414483D

 28 30  0  0  1  0  0  0  0  0999 V2000
  190.7640  173.3980  144.2400 C   0  0  0  0  0  0  0  0  0  0  0  0
  190.1490  175.3110  142.8650 O   0  0  0  0  0  0  0  0  0  0  0  0
  189.1170  175.3010  141.9070 C   0  0  1  0  0  3  0  0  0  0  0  0
  188.2040  173.4540  140.3540 C   0  0  0  0  0  1  0  0  0  0  0  0
  190.2280  173.2090  141.7930 C   0  0  1  0  0  3  0  0  0  0  0  0
  190.6760  172.1440  144.3500 O   0  0  0  0  0  0  0  0  0  0  0  0
  191.4110  172.8710  141.1350 O   0  0  0  0  0  1  0  0  0  0  0  0
  190.5290  174.0090  142.9610 N   0  0  0  0  0  0  0  0  0  0  0  0
  189.4250  174.1460  140.9460 C   0  0  2  0  0  3  0  0  0  0  0  0
  190.1990  174.5160  146.3490 N   0  0  0  0  0  0  0  0  0  0  0  0
  192.7130  175.5110  146.6790 N   0  0  0  0  0  0  0  0  0  0  0  0
  191.1450  174.2220  145.4140 C   0  0  0  0  0  0  0  0  0  0  0  0
  193.4950  174.4640  144.6680 N   0  0  0  0  0  1  0  0  0  0  0  0
  190.4730  175.2870  147.4320 C   0  0  0  0  0  3  0  0  0  0  0  0
  192.4460  174.7430  145.5910 C   0  0  0  0  0  0  0  0  0  0  0  0
  191.7580  175.7960  147.6010 C   0  0  0  0  0  3  0  0  0  0  0  0
  187.7530  175.1790  142.6040 C   0  0  0  0  0  2  0  0  0  0  0  0
  188.1390  177.5290  142.8960 O   0  0  0  0  0  1  0  0  0  0  0  0
  187.1770  176.5260  143.0510 C   0  0  2  0  0  3  0  0  0  0  0  0
  187.7470  176.7680  145.5150 C   0  0  0  0  0  2  0  0  0  0  0  0
  186.0130  177.3090  147.1580 N   0  0  0  0  0  2  0  0  0  0  0  0
  187.2040  176.5030  146.9140 C   0  0  0  0  0  2  0  0  0  0  0  0
  184.0610  178.2810  146.3530 O   0  0  0  0  0  0  0  0  0  0  0  0
  185.1240  177.6570  146.0930 C   0  0  0  0  0  0  0  0  0  0  0  0
  185.4850  177.3510  144.7330 N   0  0  0  0  0  0  0  0  0  0  0  0
  186.6460  176.4680  144.4960 C   0  0  1  0  0  3  0  0  0  0  0  0
  185.2950  179.4690  143.5210 C   0  0  0  0  0  1  0  0  0  0  0  0
  184.7990  178.0400  143.6400 C   0  0  0  0  0  2  0  0  0  0  0  0
  1  6  2  0  0  0  0
  1 12  1  0  0  0  0
  2  8  1  0  0  0  0
  3 17  1  1  0  0  0
  3  2  1  0  0  0  0
  5  7  1  6  0  0  0
  5  8  1  0  0  0  0
  8  1  1  0  0  0  0
  9  4  1  1  0  0  0
  9  5  1  0  0  0  0
  9  3  1  0  0  0  0
 10 14  1  0  0  0  0
 11 16  1  0  0  0  0
 12 15  1  0  0  0  0
 12 10  2  0  0  0  0
 13 15  1  0  0  0  0
 14 16  2  0  0  0  0
 15 11  2  0  0  0  0
 17 19  1  0  0  0  0
 19 18  1  1  0  0  0
 20 22  1  0  0  0  0
 22 21  1  0  0  0  0
 24 23  2  0  0  0  0
 24 21  1  0  0  0  0
 25 24  1  0  0  0  0
 26 19  1  6  0  0  0
 26 25  1  0  0  0  0
 26 20  1  0  0  0  0
 27 28  1  0  0  0  0
 28 25  1  0  0  0  0
M  END
>  <MODEL>
6

>  <REMARK>
 VINA RESULT:      -6.2      1.719      2.351
  Name = 
  5 active torsions:
  status: ('A' for Active; 'I' for Inactive)
    1  A    between atoms: C_1  and  C_13
    2  A    between atoms: C_1  and  C_28
    3  A    between atoms: C_3  and  C_11
    4  A    between atoms: N_21  and  C_23
    5  A    between atoms: C_25  and  C_28
                            x       y       z     vdW  Elec       q    Type
                         _______ _______ _______ _____ _____    ______ ____

>  <TORSDO>
F 5

$$$$
=
 OpenBabel11042414483D

 28 30  0  0  1  0  0  0  0  0999 V2000
  187.9010  175.1240  142.4580 C   0  0  0  0  0  0  0  0  0  0  0  0
  190.0350  175.9800  143.2630 O   0  0  0  0  0  0  0  0  0  0  0  0
  190.2870  176.3500  144.5970 C   0  0  1  0  0  3  0  0  0  0  0  0
  188.7910  177.3800  146.4290 C   0  0  0  0  0  1  0  0  0  0  0  0
  188.0870  177.0510  144.0580 C   0  0  1  0  0  3  0  0  0  0  0  0
  186.6690  175.0380  142.7140 O   0  0  0  0  0  0  0  0  0  0  0  0
  187.6650  178.1950  143.3800 O   0  0  0  0  0  1  0  0  0  0  0  0
  188.6900  176.1230  143.1250 N   0  0  0  0  0  0  0  0  0  0  0  0
  189.2250  177.3920  144.9700 C   0  0  2  0  0  3  0  0  0  0  0  0
  188.4950  174.5970  140.1370 N   0  0  0  0  0  0  0  0  0  0  0  0
  189.6110  172.2020  140.7990 N   0  0  0  0  0  0  0  0  0  0  0  0
  188.5140  174.2260  141.4470 C   0  0  0  0  0  0  0  0  0  0  0  0
  189.1690  172.5340  143.1330 N   0  0  0  0  0  1  0  0  0  0  0  0
  189.0130  173.8100  139.1590 C   0  0  0  0  0  3  0  0  0  0  0  0
  189.0930  172.9820  141.7830 C   0  0  0  0  0  0  0  0  0  0  0  0
  189.5830  172.5860  139.4970 C   0  0  0  0  0  3  0  0  0  0  0  0
  190.2790  175.1070  145.5010 C   0  0  0  0  0  2  0  0  0  0  0  0
  191.5630  175.1930  147.5260 O   0  0  0  0  0  1  0  0  0  0  0  0
  191.6270  174.8380  146.1740 C   0  0  2  0  0  3  0  0  0  0  0  0
  193.6040  176.4160  146.4190 C   0  0  0  0  0  2  0  0  0  0  0  0
  195.4450  176.3830  144.8050 N   0  0  0  0  0  2  0  0  0  0  0  0
  194.5940  177.2480  145.6140 C   0  0  0  0  0  2  0  0  0  0  0  0
  195.6910  174.4610  143.5210 O   0  0  0  0  0  0  0  0  0  0  0  0
  194.9590  175.1410  144.2880 C   0  0  0  0  0  0  0  0  0  0  0  0
  193.6690  174.6520  144.7010 N   0  0  0  0  0  0  0  0  0  0  0  0
  192.7800  175.5620  145.4530 C   0  0  1  0  0  3  0  0  0  0  0  0
  194.0470  172.3860  145.5450 C   0  0  0  0  0  1  0  0  0  0  0  0
  193.3450  173.2390  144.5050 C   0  0  0  0  0  2  0  0  0  0  0  0
  1  6  2  0  0  0  0
  1  8  1  0  0  0  0
  2  3  1  0  0  0  0
  3  9  1  0  0  0  0
  3 17  1  1  0  0  0
  5  7  1  6  0  0  0
  5  9  1  0  0  0  0
  8  2  1  0  0  0  0
  8  5  1  0  0  0  0
  9  4  1  1  0  0  0
 10 12  1  0  0  0  0
 11 15  1  0  0  0  0
 12 15  2  0  0  0  0
 12  1  1  0  0  0  0
 14 16  1  0  0  0  0
 14 10  2  0  0  0  0
 15 13  1  0  0  0  0
 16 11  2  0  0  0  0
 17 19  1  0  0  0  0
 19 18  1  1  0  0  0
 21 22  1  0  0  0  0
 22 20  1  0  0  0  0
 23 24  2  0  0  0  0
 24 25  1  0  0  0  0
 24 21  1  0  0  0  0
 25 26  1  0  0  0  0
 26 19  1  1  0  0  0
 26 20  1  0  0  0  0
 28 25  1  0  0  0  0
 28 27  1  0  0  0  0
M  END
>  <MODEL>
7

>  <REMARK>
 VINA RESULT:      -6.1      2.662      7.257
  Name = 
  5 active torsions:
  status: ('A' for Active; 'I' for Inactive)
    1  A    between atoms: C_1  and  C_13
    2  A    between atoms: C_1  and  C_28
    3  A    between atoms: C_3  and  C_11
    4  A    between atoms: N_21  and  C_23
    5  A    between atoms: C_25  and  C_28
                            x       y       z     vdW  Elec       q    Type
                         _______ _______ _______ _____ _____    ______ ____

>  <TORSDO>
F 5

$$$$
=
 OpenBabel11042414483D

 28 30  0  0  1  0  0  0  0  0999 V2000
  187.1890  177.8200  143.1750 C   0  0  0  0  0  0  0  0  0  0  0  0
  187.8040  175.6340  144.0550 O   0  0  0  0  0  0  0  0  0  0  0  0
  189.0780  175.0520  143.9120 C   0  0  1  0  0  3  0  0  0  0  0  0
  190.8480  175.1790  142.0400 C   0  0  0  0  0  1  0  0  0  0  0  0
  188.5590  176.1600  141.8810 C   0  0  1  0  0  3  0  0  0  0  0  0
  187.5050  178.7170  142.3470 O   0  0  0  0  0  0  0  0  0  0  0  0
  187.7780  175.7230  140.8100 O   0  0  0  0  0  1  0  0  0  0  0  0
  187.7090  176.4920  143.0040 N   0  0  0  0  0  0  0  0  0  0  0  0
  189.3790  175.0230  142.4080 C   0  0  2  0  0  3  0  0  0  0  0  0
  186.7610  178.2930  145.5430 N   0  0  0  0  0  0  0  0  0  0  0  0
  184.0690  178.4990  145.1800 N   0  0  0  0  0  0  0  0  0  0  0  0
  186.2580  178.1310  144.2880 C   0  0  0  0  0  0  0  0  0  0  0  0
  184.2610  178.1010  142.8220 N   0  0  0  0  0  1  0  0  0  0  0  0
  185.9620  178.5510  146.6110 C   0  0  0  0  0  3  0  0  0  0  0  0
  184.8610  178.2380  144.1070 C   0  0  0  0  0  0  0  0  0  0  0  0
  184.5870  178.6560  146.4250 C   0  0  0  0  0  3  0  0  0  0  0  0
  190.1120  175.8360  144.7360 C   0  0  0  0  0  2  0  0  0  0  0  0
  190.6450  175.0830  146.9500 O   0  0  0  0  0  1  0  0  0  0  0  0
  191.0000  174.9420  145.6050 C   0  0  2  0  0  3  0  0  0  0  0  0
  193.0850  176.0750  146.5130 C   0  0  0  0  0  2  0  0  0  0  0  0
  195.3170  175.3070  145.8610 N   0  0  0  0  0  2  0  0  0  0  0  0
  194.5020  176.4860  146.1310 C   0  0  0  0  0  2  0  0  0  0  0  0
  195.4870  173.1490  145.0140 O   0  0  0  0  0  0  0  0  0  0  0  0
  194.7400  174.1170  145.3160 C   0  0  0  0  0  0  0  0  0  0  0  0
  193.3100  174.0150  145.1810 N   0  0  0  0  0  0  0  0  0  0  0  0
  192.4960  175.2320  145.3800 C   0  0  1  0  0  3  0  0  0  0  0  0
  192.4970  172.3910  143.5390 C   0  0  0  0  0  1  0  0  0  0  0  0
  192.7020  172.6950  145.0120 C   0  0  0  0  0  2  0  0  0  0  0  0
  1 12  1  0  0  0  0
  3  2  1  0  0  0  0
  3 17  1  1  0  0  0
  5  7  1  6  0  0  0
  5  9  1  0  0  0  0
  5  8  1  0  0  0  0
  6  1  2  0  0  0  0
  8  1  1  0  0  0  0
  8  2  1  0  0  0  0
  9  4  1  1  0  0  0
  9  3  1  0  0  0  0
 10 14  1  0  0  0  0
 11 16  1  0  0  0  0
 12 10  2  0  0  0  0
 13 15  1  0  0  0  0
 15 12  1  0  0  0  0
 15 11  2  0  0  0  0
 16 14  2  0  0  0  0
 17 19  1  0  0  0  0
 19 18  1  1  0  0  0
 21 22  1  0  0  0  0
 22 20  1  0  0  0  0
 23 24  2  0  0  0  0
 24 21  1  0  0  0  0
 25 24  1  0  0  0  0
 25 26  1  0  0  0  0
 26 19  1  1  0  0  0
 26 20  1  0  0  0  0
 27 28  1  0  0  0  0
 28 25  1  0  0  0  0
M  END
>  <MODEL>
8

>  <REMARK>
 VINA RESULT:      -6.1      2.067      7.464
  Name = 
  5 active torsions:
  status: ('A' for Active; 'I' for Inactive)
    1  A    between atoms: C_1  and  C_13
    2  A    between atoms: C_1  and  C_28
    3  A    between atoms: C_3  and  C_11
    4  A    between atoms: N_21  and  C_23
    5  A    between atoms: C_25  and  C_28
                            x       y       z     vdW  Elec       q    Type
                         _______ _______ _______ _____ _____    ______ ____

>  <TORSDO>
F 5

$$$$
=
 OpenBabel11042414483D

 28 30  0  0  1  0  0  0  0  0999 V2000
  191.7630  174.5240  143.8790 C   0  0  0  0  0  0  0  0  0  0  0  0
  189.7470  174.4020  145.2390 O   0  0  0  0  0  0  0  0  0  0  0  0
  189.2820  175.4450  146.0640 C   0  0  1  0  0  3  0  0  0  0  0  0
  190.5060  177.2610  147.4270 C   0  0  0  0  0  1  0  0  0  0  0  0
  191.6460  175.3890  146.2350 C   0  0  1  0  0  3  0  0  0  0  0  0
  192.8520  175.1390  143.7140 O   0  0  0  0  0  0  0  0  0  0  0  0
  192.4570  174.5670  147.0180 O   0  0  0  0  0  1  0  0  0  0  0  0
  191.0840  174.6250  145.1410 N   0  0  0  0  0  0  0  0  0  0  0  0
  190.4340  175.7970  147.0130 C   0  0  2  0  0  3  0  0  0  0  0  0
  190.6220  174.2790  141.7220 N   0  0  0  0  0  0  0  0  0  0  0  0
  190.7110  171.5580  141.8050 N   0  0  0  0  0  0  0  0  0  0  0  0
  191.2160  173.6780  142.7900 C   0  0  0  0  0  0  0  0  0  0  0  0
  191.8790  171.5650  143.9000 N   0  0  0  0  0  1  0  0  0  0  0  0
  190.0760  173.5630  140.7060 C   0  0  0  0  0  3  0  0  0  0  0  0
  191.2580  172.2660  142.8270 C   0  0  0  0  0  0  0  0  0  0  0  0
  190.1210  172.1730  140.7480 C   0  0  0  0  0  3  0  0  0  0  0  0
  188.8050  176.6250  145.2030 C   0  0  0  0  0  2  0  0  0  0  0  0
  187.8190  175.7930  143.1800 O   0  0  0  0  0  1  0  0  0  0  0  0
  187.5140  176.3330  144.4340 C   0  0  2  0  0  3  0  0  0  0  0  0
  185.9750  177.6840  142.9290 C   0  0  0  0  0  2  0  0  0  0  0  0
  184.2990  179.1950  143.8780 N   0  0  0  0  0  2  0  0  0  0  0  0
  185.2790  179.0340  142.8110 C   0  0  0  0  0  2  0  0  0  0  0  0
  183.6740  178.8260  146.0870 O   0  0  0  0  0  0  0  0  0  0  0  0
  184.4970  178.5950  145.1620 C   0  0  0  0  0  0  0  0  0  0  0  0
  185.5950  177.6860  145.3630 N   0  0  0  0  0  0  0  0  0  0  0  0
  186.6270  177.5870  144.3100 C   0  0  1  0  0  3  0  0  0  0  0  0
  186.3230  177.3950  147.6820 C   0  0  0  0  0  1  0  0  0  0  0  0
  185.5730  176.7830  146.5140 C   0  0  0  0  0  2  0  0  0  0  0  0
  1  8  1  0  0  0  0
  2  3  1  0  0  0  0
  3 17  1  6  0  0  0
  3  9  1  0  0  0  0
  5  9  1  0  0  0  0
  5  7  1  1  0  0  0
  6  1  2  0  0  0  0
  8  2  1  0  0  0  0
  8  5  1  0  0  0  0
  9  4  1  6  0  0  0
 10 12  1  0  0  0  0
 11 15  1  0  0  0  0
 12 15  2  0  0  0  0
 12  1  1  0  0  0  0
 14 16  1  0  0  0  0
 14 10  2  0  0  0  0
 15 13  1  0  0  0  0
 16 11  2  0  0  0  0
 19 18  1  6  0  0  0
 19 17  1  0  0  0  0
 20 26  1  0  0  0  0
 21 24  1  0  0  0  0
 22 20  1  0  0  0  0
 22 21  1  0  0  0  0
 24 25  1  0  0  0  0
 24 23  2  0  0  0  0
 25 28  1  0  0  0  0
 26 19  1  6  0  0  0
 26 25  1  0  0  0  0
 28 27  1  0  0  0  0
M  END
>  <MODEL>
9

>  <REMARK>
 VINA RESULT:      -6.0      2.165      4.388
  Name = 
  5 active torsions:
  status: ('A' for Active; 'I' for Inactive)
    1  A    between atoms: C_1  and  C_13
    2  A    between atoms: C_1  and  C_28
    3  A    between atoms: C_3  and  C_11
    4  A    between atoms: N_21  and  C_23
    5  A    between atoms: C_25  and  C_28
                            x       y       z     vdW  Elec       q    Type
                         _______ _______ _______ _____ _____    ______ ____

>  <TORSDO>
F 5

$$$$
