=
 OpenBabel11042413593D

 36 38  0  0  1  0  0  0  0  0999 V2000
  188.5140  177.5660  143.5180 C   0  0  2  0  0  3  0  0  0  0  0  0
  188.9410  175.1310  142.9270 C   0  0  0  0  0  0  0  0  0  0  0  0
  189.2620  172.6190  143.5640 C   0  0  0  0  0  3  0  0  0  0  0  0
  187.1420  177.3430  142.8550 C   0  0  2  0  0  3  0  0  0  0  0  0
  187.1290  176.3390  141.6830 C   0  0  0  0  0  2  0  0  0  0  0  0
  189.4820  178.2880  142.5830 C   0  0  0  0  0  1  0  0  0  0  0  0
  189.1000  173.8740  143.2430 C   0  0  0  0  0  0  0  0  0  0  0  0
  189.0580  176.2020  143.9860 C   0  0  1  0  0  3  0  0  0  0  0  0
  188.4030  175.4870  141.5750 C   0  0  0  0  0  2  0  0  0  0  0  0
  192.9010  176.4030  145.9190 C   0  0  0  0  0  0  0  0  0  0  0  0
  190.4090  176.2700  144.6430 C   0  0  0  0  0  0  0  0  0  0  0  0
  194.2210  176.4710  146.5960 C   0  0  0  0  0  1  0  0  0  0  0  0
  192.8320  176.3720  144.5230 C   0  0  0  0  0  3  0  0  0  0  0  0
  191.5900  176.3080  143.8860 C   0  0  0  0  0  3  0  0  0  0  0  0
  191.7280  176.3670  146.6770 C   0  0  0  0  0  3  0  0  0  0  0  0
  190.4840  176.3010  146.0400 C   0  0  0  0  0  3  0  0  0  0  0  0
  191.7470  171.9940  143.7290 C   0  0  1  0  0  3  0  0  0  0  0  0
  191.6880  170.3290  142.2610 N   0  0  0  0  0  0  0  0  0  0  0  0
  192.4850  171.0140  143.1010 C   0  0  0  0  0  0  0  0  0  0  0  0
  190.4710  171.8590  143.2160 C   0  0  0  0  0  0  0  0  0  0  0  0
  190.4680  170.8480  142.3240 N   0  0  0  0  0  0  0  0  0  0  0  0
  192.1520  172.8160  144.8190 N   0  0  0  0  0  1  0  0  0  0  0  0
  193.8490  170.6540  143.3490 N   0  0  0  0  0  2  0  0  0  0  0  0
  194.9910  171.4630  143.0510 C   0  0  0  0  0  0  0  0  0  0  0  0
  194.8980  172.4370  142.2560 O   0  0  0  0  0  0  0  0  0  0  0  0
  196.2230  171.1280  143.6140 O   0  0  0  0  0  0  0  0  0  0  0  0
  196.4330  171.1380  145.0180 C   0  0  0  0  0  2  0  0  0  0  0  0
  196.0870  172.5020  145.5720 C   0  0  0  0  0  1  0  0  0  0  0  0
  186.3510  178.6200  142.5830 C   0  0  0  0  0  2  0  0  0  0  0  0
  185.7280  179.2000  143.8460 C   0  0  0  0  0  2  0  0  0  0  0  0
  184.5720  178.3320  144.3170 C   0  0  0  0  0  2  0  0  0  0  0  0
  184.0310  178.8150  145.6540 C   0  0  0  0  0  2  0  0  0  0  0  0
  184.7040  178.0750  146.7980 C   0  0  0  0  0  2  0  0  0  0  0  0
  185.2790  176.7560  146.3060 C   0  0  0  0  0  2  0  0  0  0  0  0
  187.3560  177.8960  147.0840 C   0  0  0  0  0  1  0  0  0  0  0  0
  186.7030  176.5570  146.8010 C   0  0  0  0  0  2  0  0  0  0  0  0
  1  6  1  6  0  0  0
  1  8  1  0  0  0  0
  2  7  2  0  0  0  0
  2  8  1  0  0  0  0
  4 29  1  6  0  0  0
  4  1  1  0  0  0  0
  5  4  1  0  0  0  0
  7  3  2  0  0  0  0
  8 11  1  6  0  0  0
  9  5  1  0  0  0  0
  9  2  1  0  0  0  0
 10 12  1  0  0  0  0
 10 15  1  0  0  0  0
 11 16  1  0  0  0  0
 13 10  2  0  0  0  0
 14 13  1  0  0  0  0
 14 11  2  0  0  0  0
 16 15  2  0  0  0  0
 17 22  1  1  0  0  0
 18 21  1  0  0  0  0
 18 19  2  0  0  0  0
 19 23  1  0  0  0  0
 19 17  1  0  0  0  0
 20  3  1  0  0  0  0
 20 17  1  0  0  0  0
 21 20  2  0  0  0  0
 24 23  1  0  0  0  0
 24 26  1  0  0  0  0
 25 24  2  0  0  0  0
 26 27  1  0  0  0  0
 27 28  1  0  0  0  0
 29 30  1  0  0  0  0
 30 31  1  0  0  0  0
 31 32  1  0  0  0  0
 32 33  1  0  0  0  0
 34 33  1  0  0  0  0
 34 36  1  0  0  0  0
 36 35  1  0  0  0  0
M  END
>  <MODEL>
1

>  <REMARK>
 VINA RESULT:      -6.8      0.000      0.000
  Name = 
  12 active torsions:
  status: ('A' for Active; 'I' for Inactive)
    1  A    between atoms: O_3  and  C_7
    2  A    between atoms: O_3  and  C_30
    3  A    between atoms: C_4  and  C_33
    4  A    between atoms: C_6  and  C_11
    5  A    between atoms: C_6  and  C_26
    6  A    between atoms: C_9  and  C_23
    7  A    between atoms: C_10  and  C_15
    8  A    between atoms: C_10  and  C_20
    9  A    between atoms: C_11  and  C_17
   10  A    between atoms: C_15  and  C_25
   11  A    between atoms: N_19  and  C_21
   12  A    between atoms: C_20  and  C_26
                            x       y       z     vdW  Elec       q    Type
                         _______ _______ _______ _____ _____    ______ ____

>  <TORSDO>
F 12

$$$$
=
 OpenBabel11042413593D

 36 38  0  0  1  0  0  0  0  0999 V2000
  189.9470  175.2360  143.4960 C   0  0  2  0  0  3  0  0  0  0  0  0
  188.1180  176.0680  141.9390 C   0  0  0  0  0  0  0  0  0  0  0  0
  186.6760  177.9660  140.8730 C   0  0  0  0  0  3  0  0  0  0  0  0
  190.7250  174.9410  142.2000 C   0  0  2  0  0  3  0  0  0  0  0  0
  189.8610  174.5350  140.9870 C   0  0  0  0  0  2  0  0  0  0  0  0
  189.3130  173.9720  144.0740 C   0  0  0  0  0  1  0  0  0  0  0  0
  187.3970  177.0150  141.4030 C   0  0  0  0  0  0  0  0  0  0  0  0
  188.9050  176.3330  143.2010 C   0  0  1  0  0  3  0  0  0  0  0  0
  188.3600  174.8040  141.1710 C   0  0  0  0  0  2  0  0  0  0  0  0
  186.5260  177.4430  146.6140 C   0  0  0  0  0  0  0  0  0  0  0  0
  188.0580  176.7120  144.3840 C   0  0  0  0  0  0  0  0  0  0  0  0
  185.7130  177.8320  147.7950 C   0  0  0  0  0  1  0  0  0  0  0  0
  185.9620  176.6520  145.6080 C   0  0  0  0  0  3  0  0  0  0  0  0
  186.7260  176.2860  144.4970 C   0  0  0  0  0  3  0  0  0  0  0  0
  187.8520  177.8690  146.5070 C   0  0  0  0  0  3  0  0  0  0  0  0
  188.6170  177.5030  145.3940 C   0  0  0  0  0  3  0  0  0  0  0  0
  184.4170  178.3400  142.0350 C   0  0  1  0  0  3  0  0  0  0  0  0
  183.1450  177.8540  140.2800 N   0  0  0  0  0  0  0  0  0  0  0  0
  183.1230  178.2390  141.5700 C   0  0  0  0  0  0  0  0  0  0  0  0
  185.2080  177.9910  140.9580 C   0  0  0  0  0  0  0  0  0  0  0  0
  184.4100  177.6950  139.9120 N   0  0  0  0  0  0  0  0  0  0  0  0
  184.8490  178.8900  143.2760 N   0  0  0  0  0  1  0  0  0  0  0  0
  181.9170  178.5910  142.2580 N   0  0  0  0  0  2  0  0  0  0  0  0
  180.7530  179.1650  141.6570 C   0  0  0  0  0  0  0  0  0  0  0  0
  180.8160  179.6960  140.5150 O   0  0  0  0  0  0  0  0  0  0  0  0
  179.5560  179.1750  142.3740 O   0  0  0  0  0  0  0  0  0  0  0  0
  178.4190  178.4430  141.9440 C   0  0  0  0  0  2  0  0  0  0  0  0
  178.4210  177.0770  142.5950 C   0  0  0  0  0  1  0  0  0  0  0  0
  191.9700  174.0760  142.3870 C   0  0  0  0  0  2  0  0  0  0  0  0
  193.1520  174.8670  142.9320 C   0  0  0  0  0  2  0  0  0  0  0  0
  193.2760  174.6710  144.4350 C   0  0  0  0  0  2  0  0  0  0  0  0
  193.5660  175.9880  145.1390 C   0  0  0  0  0  2  0  0  0  0  0  0
  192.4110  176.3690  146.0500 C   0  0  0  0  0  2  0  0  0  0  0  0
  191.7610  175.1200  146.6250 C   0  0  0  0  0  2  0  0  0  0  0  0
  189.4490  174.6980  147.4610 C   0  0  0  0  0  1  0  0  0  0  0  0
  190.7320  175.4750  147.6870 C   0  0  0  0  0  2  0  0  0  0  0  0
  1  6  1  6  0  0  0
  2  8  1  0  0  0  0
  3 20  1  0  0  0  0
  3  7  2  0  0  0  0
  4 29  1  1  0  0  0
  4  1  1  0  0  0  0
  5  9  1  0  0  0  0
  5  4  1  0  0  0  0
  7  2  2  0  0  0  0
  8  1  1  0  0  0  0
  8 11  1  1  0  0  0
  9  2  1  0  0  0  0
 10 12  1  0  0  0  0
 11 14  2  0  0  0  0
 11 16  1  0  0  0  0
 13 10  2  0  0  0  0
 14 13  1  0  0  0  0
 15 10  1  0  0  0  0
 16 15  2  0  0  0  0
 17 22  1  6  0  0  0
 18 19  2  0  0  0  0
 19 17  1  0  0  0  0
 19 23  1  0  0  0  0
 20 17  1  0  0  0  0
 21 18  1  0  0  0  0
 21 20  2  0  0  0  0
 24 23  1  0  0  0  0
 24 26  1  0  0  0  0
 25 24  2  0  0  0  0
 27 26  1  0  0  0  0
 27 28  1  0  0  0  0
 29 30  1  0  0  0  0
 30 31  1  0  0  0  0
 31 32  1  0  0  0  0
 32 33  1  0  0  0  0
 33 34  1  0  0  0  0
 34 36  1  0  0  0  0
 35 36  1  0  0  0  0
M  END
>  <MODEL>
2

>  <REMARK>
 VINA RESULT:      -6.7      5.650      9.456
  Name = 
  12 active torsions:
  status: ('A' for Active; 'I' for Inactive)
    1  A    between atoms: O_3  and  C_7
    2  A    between atoms: O_3  and  C_30
    3  A    between atoms: C_4  and  C_33
    4  A    between atoms: C_6  and  C_11
    5  A    between atoms: C_6  and  C_26
    6  A    between atoms: C_9  and  C_23
    7  A    between atoms: C_10  and  C_15
    8  A    between atoms: C_10  and  C_20
    9  A    between atoms: C_11  and  C_17
   10  A    between atoms: C_15  and  C_25
   11  A    between atoms: N_19  and  C_21
   12  A    between atoms: C_20  and  C_26
                            x       y       z     vdW  Elec       q    Type
                         _______ _______ _______ _____ _____    ______ ____

>  <TORSDO>
F 12

$$$$
=
 OpenBabel11042413593D

 36 38  0  0  1  0  0  0  0  0999 V2000
  188.3210  176.0340  146.1280 C   0  0  2  0  0  3  0  0  0  0  0  0
  190.7780  176.5490  145.7330 C   0  0  0  0  0  0  0  0  0  0  0  0
  192.8010  177.1180  144.1830 C   0  0  0  0  0  3  0  0  0  0  0  0
  188.2740  177.4300  146.7750 C   0  0  2  0  0  3  0  0  0  0  0  0
  189.5700  177.8740  147.4870 C   0  0  0  0  0  2  0  0  0  0  0  0
  188.3990  174.9280  147.1790 C   0  0  0  0  0  1  0  0  0  0  0  0
  191.7910  176.8350  144.9610 C   0  0  0  0  0  0  0  0  0  0  0  0
  189.5050  175.9920  145.1420 C   0  0  1  0  0  3  0  0  0  0  0  0
  190.7920  177.0020  147.1610 C   0  0  0  0  0  2  0  0  0  0  0  0
  189.9670  172.2280  143.1030 C   0  0  0  0  0  0  0  0  0  0  0  0
  189.6780  174.6700  144.4450 C   0  0  0  0  0  0  0  0  0  0  0  0
  190.1220  170.9330  142.3910 C   0  0  0  0  0  1  0  0  0  0  0  0
  190.5360  172.4000  144.3690 C   0  0  0  0  0  3  0  0  0  0  0  0
  190.3910  173.6170  145.0390 C   0  0  0  0  0  3  0  0  0  0  0  0
  189.2560  173.2730  142.5080 C   0  0  0  0  0  3  0  0  0  0  0  0
  189.1110  174.4920  143.1780 C   0  0  0  0  0  3  0  0  0  0  0  0
  194.6440  175.6110  145.1460 C   0  0  1  0  0  3  0  0  0  0  0  0
  195.6840  175.2220  143.2220 N   0  0  0  0  0  0  0  0  0  0  0  0
  195.6950  174.9550  144.5410 C   0  0  0  0  0  0  0  0  0  0  0  0
  194.0120  176.2870  144.1190 C   0  0  0  0  0  0  0  0  0  0  0  0
  194.6690  176.0380  142.9680 N   0  0  0  0  0  0  0  0  0  0  0  0
  194.1830  175.4570  146.4840 N   0  0  0  0  0  1  0  0  0  0  0  0
  196.6070  174.0280  145.1410 N   0  0  0  0  0  2  0  0  0  0  0  0
  196.3480  172.6410  145.3800 C   0  0  0  0  0  0  0  0  0  0  0  0
  195.1680  172.1960  145.3610 O   0  0  0  0  0  0  0  0  0  0  0  0
  197.4150  171.7960  145.6850 O   0  0  0  0  0  0  0  0  0  0  0  0
  197.3780  170.4070  145.3970 C   0  0  0  0  0  2  0  0  0  0  0  0
  196.9440  169.6460  146.6310 C   0  0  0  0  0  1  0  0  0  0  0  0
  187.0030  177.7230  147.5700 C   0  0  0  0  0  2  0  0  0  0  0  0
  185.7390  177.3920  146.7880 C   0  0  0  0  0  2  0  0  0  0  0  0
  184.8370  178.6130  146.6920 C   0  0  0  0  0  2  0  0  0  0  0  0
  184.4090  178.8670  145.2540 C   0  0  0  0  0  2  0  0  0  0  0  0
  185.4620  179.6840  144.5230 C   0  0  0  0  0  2  0  0  0  0  0  0
  185.7970  179.0350  143.1880 C   0  0  0  0  0  2  0  0  0  0  0  0
  186.0860  176.5620  143.0360 C   0  0  0  0  0  1  0  0  0  0  0  0
  186.7650  177.8770  143.3680 C   0  0  0  0  0  2  0  0  0  0  0  0
  1  4  1  0  0  0  0
  1  6  1  1  0  0  0
  2  9  1  0  0  0  0
  3  7  2  0  0  0  0
  4  5  1  0  0  0  0
  4 29  1  1  0  0  0
  7  2  2  0  0  0  0
  8 11  1  1  0  0  0
  8  2  1  0  0  0  0
  8  1  1  0  0  0  0
  9  5  1  0  0  0  0
 10 13  1  0  0  0  0
 11 14  1  0  0  0  0
 12 10  1  0  0  0  0
 13 14  2  0  0  0  0
 15 10  2  0  0  0  0
 15 16  1  0  0  0  0
 16 11  2  0  0  0  0
 17 22  1  6  0  0  0
 18 19  2  0  0  0  0
 19 23  1  0  0  0  0
 19 17  1  0  0  0  0
 20  3  1  0  0  0  0
 20 17  1  0  0  0  0
 21 18  1  0  0  0  0
 21 20  2  0  0  0  0
 23 24  1  0  0  0  0
 24 26  1  0  0  0  0
 25 24  2  0  0  0  0
 27 26  1  0  0  0  0
 27 28  1  0  0  0  0
 30 29  1  0  0  0  0
 31 30  1  0  0  0  0
 32 31  1  0  0  0  0
 33 32  1  0  0  0  0
 34 36  1  0  0  0  0
 34 33  1  0  0  0  0
 35 36  1  0  0  0  0
M  END
>  <MODEL>
3

>  <REMARK>
 VINA RESULT:      -6.7      2.325      4.505
  Name = 
  12 active torsions:
  status: ('A' for Active; 'I' for Inactive)
    1  A    between atoms: O_3  and  C_7
    2  A    between atoms: O_3  and  C_30
    3  A    between atoms: C_4  and  C_33
    4  A    between atoms: C_6  and  C_11
    5  A    between atoms: C_6  and  C_26
    6  A    between atoms: C_9  and  C_23
    7  A    between atoms: C_10  and  C_15
    8  A    between atoms: C_10  and  C_20
    9  A    between atoms: C_11  and  C_17
   10  A    between atoms: C_15  and  C_25
   11  A    between atoms: N_19  and  C_21
   12  A    between atoms: C_20  and  C_26
                            x       y       z     vdW  Elec       q    Type
                         _______ _______ _______ _____ _____    ______ ____

>  <TORSDO>
F 12

$$$$
=
 OpenBabel11042413593D

 36 38  0  0  1  0  0  0  0  0999 V2000
  190.1050  175.9030  146.4110 C   0  0  2  0  0  3  0  0  0  0  0  0
  189.4790  176.3760  143.9940 C   0  0  0  0  0  0  0  0  0  0  0  0
  188.8000  177.9870  142.0550 C   0  0  0  0  0  3  0  0  0  0  0  0
  191.5130  175.6330  145.8500 C   0  0  2  0  0  3  0  0  0  0  0  0
  191.5550  175.0360  144.4260 C   0  0  0  0  0  2  0  0  0  0  0  0
  189.3470  174.6050  146.6820 C   0  0  0  0  0  1  0  0  0  0  0  0
  189.1410  177.1800  143.0220 C   0  0  0  0  0  0  0  0  0  0  0  0
  189.3560  176.8270  145.4300 C   0  0  1  0  0  3  0  0  0  0  0  0
  190.2150  175.1100  143.6780 C   0  0  0  0  0  2  0  0  0  0  0  0
  185.3560  177.8110  146.6830 C   0  0  0  0  0  0  0  0  0  0  0  0
  187.9520  177.1630  145.8510 C   0  0  0  0  0  0  0  0  0  0  0  0
  183.9800  178.1570  147.1240 C   0  0  0  0  0  1  0  0  0  0  0  0
  185.5500  177.0820  145.5060 C   0  0  0  0  0  3  0  0  0  0  0  0
  186.8440  176.7570  145.0920 C   0  0  0  0  0  3  0  0  0  0  0  0
  186.4560  178.2170  147.4440 C   0  0  0  0  0  3  0  0  0  0  0  0
  187.7520  177.8920  147.0280 C   0  0  0  0  0  3  0  0  0  0  0  0
  186.3110  178.3450  141.5310 C   0  0  1  0  0  3  0  0  0  0  0  0
  186.2810  177.1850  139.6380 N   0  0  0  0  0  0  0  0  0  0  0  0
  185.5300  177.9220  140.4770 C   0  0  0  0  0  0  0  0  0  0  0  0
  187.5630  177.8180  141.2770 C   0  0  0  0  0  0  0  0  0  0  0  0
  187.5110  177.1140  140.1280 N   0  0  0  0  0  0  0  0  0  0  0  0
  185.9650  179.2910  142.5390 N   0  0  0  0  0  1  0  0  0  0  0  0
  184.1700  178.2760  140.2000 N   0  0  0  0  0  2  0  0  0  0  0  0
  183.1110  178.3300  141.1610 C   0  0  0  0  0  0  0  0  0  0  0  0
  183.2320  177.7630  142.2810 O   0  0  0  0  0  0  0  0  0  0  0  0
  181.9220  178.9750  140.8220 O   0  0  0  0  0  0  0  0  0  0  0  0
  180.6570  178.4800  141.2330 C   0  0  0  0  0  2  0  0  0  0  0  0
  179.5630  179.3700  140.6850 C   0  0  0  0  0  1  0  0  0  0  0  0
  192.4720  174.9590  146.8290 C   0  0  0  0  0  2  0  0  0  0  0  0
  193.9220  175.0400  146.3720 C   0  0  0  0  0  2  0  0  0  0  0  0
  194.3490  176.4900  146.2090 C   0  0  0  0  0  2  0  0  0  0  0  0
  194.9720  176.7290  144.8410 C   0  0  0  0  0  2  0  0  0  0  0  0
  195.7880  175.5210  144.4120 C   0  0  0  0  0  2  0  0  0  0  0  0
  195.2880  174.9970  143.0740 C   0  0  0  0  0  2  0  0  0  0  0  0
  195.6740  176.6350  141.2320 C   0  0  0  0  0  1  0  0  0  0  0  0
  194.6720  176.1120  142.2430 C   0  0  0  0  0  2  0  0  0  0  0  0
  1  6  1  6  0  0  0
  2  8  1  0  0  0  0
  3  7  2  0  0  0  0
  4  1  1  0  0  0  0
  4 29  1  1  0  0  0
  5  4  1  0  0  0  0
  7  2  2  0  0  0  0
  8 11  1  1  0  0  0
  8  1  1  0  0  0  0
  9  2  1  0  0  0  0
  9  5  1  0  0  0  0
 10 12  1  0  0  0  0
 10 15  1  0  0  0  0
 11 16  1  0  0  0  0
 13 10  2  0  0  0  0
 14 13  1  0  0  0  0
 14 11  2  0  0  0  0
 16 15  2  0  0  0  0
 17 22  1  6  0  0  0
 18 21  1  0  0  0  0
 18 19  2  0  0  0  0
 19 17  1  0  0  0  0
 20 17  1  0  0  0  0
 20  3  1  0  0  0  0
 21 20  2  0  0  0  0
 23 19  1  0  0  0  0
 23 24  1  0  0  0  0
 24 25  2  0  0  0  0
 26 24  1  0  0  0  0
 26 27  1  0  0  0  0
 28 27  1  0  0  0  0
 30 29  1  0  0  0  0
 31 30  1  0  0  0  0
 32 31  1  0  0  0  0
 33 32  1  0  0  0  0
 34 33  1  0  0  0  0
 35 36  1  0  0  0  0
 36 34  1  0  0  0  0
M  END
>  <MODEL>
4

>  <REMARK>
 VINA RESULT:      -6.5      4.839      9.401
  Name = 
  12 active torsions:
  status: ('A' for Active; 'I' for Inactive)
    1  A    between atoms: O_3  and  C_7
    2  A    between atoms: O_3  and  C_30
    3  A    between atoms: C_4  and  C_33
    4  A    between atoms: C_6  and  C_11
    5  A    between atoms: C_6  and  C_26
    6  A    between atoms: C_9  and  C_23
    7  A    between atoms: C_10  and  C_15
    8  A    between atoms: C_10  and  C_20
    9  A    between atoms: C_11  and  C_17
   10  A    between atoms: C_15  and  C_25
   11  A    between atoms: N_19  and  C_21
   12  A    between atoms: C_20  and  C_26
                            x       y       z     vdW  Elec       q    Type
                         _______ _______ _______ _____ _____    ______ ____

>  <TORSDO>
F 12

$$$$
=
 OpenBabel11042413593D

 36 38  0  0  1  0  0  0  0  0999 V2000
  190.2440  175.4340  145.9400 C   0  0  2  0  0  3  0  0  0  0  0  0
  189.3740  176.1170  143.6520 C   0  0  0  0  0  0  0  0  0  0  0  0
  188.6140  177.9050  141.9070 C   0  0  0  0  0  3  0  0  0  0  0  0
  191.5420  175.0840  145.1900 C   0  0  2  0  0  3  0  0  0  0  0  0
  191.3550  174.5820  143.7420 C   0  0  0  0  0  2  0  0  0  0  0  0
  189.4090  174.1900  146.2330 C   0  0  0  0  0  1  0  0  0  0  0  0
  188.9950  177.0090  142.7770 C   0  0  0  0  0  0  0  0  0  0  0  0
  189.4700  176.4810  145.1150 C   0  0  1  0  0  3  0  0  0  0  0  0
  189.9460  174.8170  143.1760 C   0  0  0  0  0  2  0  0  0  0  0  0
  185.7050  177.6730  146.8300 C   0  0  0  0  0  0  0  0  0  0  0  0
  188.1640  176.9050  145.7300 C   0  0  0  0  0  0  0  0  0  0  0  0
  184.4000  178.0790  147.4140 C   0  0  0  0  0  1  0  0  0  0  0  0
  186.8970  178.0540  147.4520 C   0  0  0  0  0  3  0  0  0  0  0  0
  188.1240  177.6730  146.9030 C   0  0  0  0  0  3  0  0  0  0  0  0
  185.7390  176.9090  145.6600 C   0  0  0  0  0  3  0  0  0  0  0  0
  186.9680  176.5270  145.1110 C   0  0  0  0  0  3  0  0  0  0  0  0
  186.1030  178.4280  141.7710 C   0  0  1  0  0  3  0  0  0  0  0  0
  185.7680  177.5410  139.7630 N   0  0  0  0  0  0  0  0  0  0  0  0
  185.1720  178.1840  140.7840 C   0  0  0  0  0  0  0  0  0  0  0  0
  187.2810  177.8930  141.2860 C   0  0  0  0  0  0  0  0  0  0  0  0
  187.0450  177.3550  140.0720 N   0  0  0  0  0  0  0  0  0  0  0  0
  185.9420  179.2390  142.9310 N   0  0  0  0  0  1  0  0  0  0  0  0
  183.8110  178.6260  140.7390 N   0  0  0  0  0  2  0  0  0  0  0  0
  182.7240  177.9160  140.1380 C   0  0  0  0  0  0  0  0  0  0  0  0
  182.9430  176.9790  139.3230 O   0  0  0  0  0  0  0  0  0  0  0  0
  181.4170  178.3070  140.4280 O   0  0  0  0  0  0  0  0  0  0  0  0
  181.0270  178.7130  141.7310 C   0  0  0  0  0  2  0  0  0  0  0  0
  179.6730  178.1240  142.0610 C   0  0  0  0  0  1  0  0  0  0  0  0
  192.5480  174.2690  146.0000 C   0  0  0  0  0  2  0  0  0  0  0  0
  193.0550  173.0500  145.2410 C   0  0  0  0  0  2  0  0  0  0  0  0
  194.5690  173.0960  145.1090 C   0  0  0  0  0  2  0  0  0  0  0  0
  194.9900  173.2370  143.6540 C   0  0  0  0  0  2  0  0  0  0  0  0
  195.4880  174.6460  143.3780 C   0  0  0  0  0  2  0  0  0  0  0  0
  195.7680  175.3700  144.6870 C   0  0  0  0  0  2  0  0  0  0  0  0
  194.5640  177.1700  145.9250 C   0  0  0  0  0  1  0  0  0  0  0  0
  195.2750  176.8070  144.6350 C   0  0  0  0  0  2  0  0  0  0  0  0
  1  6  1  6  0  0  0
  2  8  1  0  0  0  0
  3  7  2  0  0  0  0
  4  1  1  0  0  0  0
  4 29  1  1  0  0  0
  5  4  1  0  0  0  0
  7  2  2  0  0  0  0
  8 11  1  1  0  0  0
  8  1  1  0  0  0  0
  9  2  1  0  0  0  0
  9  5  1  0  0  0  0
 10 12  1  0  0  0  0
 10 13  1  0  0  0  0
 11 14  1  0  0  0  0
 14 13  2  0  0  0  0
 15 10  2  0  0  0  0
 16 15  1  0  0  0  0
 16 11  2  0  0  0  0
 17 22  1  6  0  0  0
 18 21  1  0  0  0  0
 18 19  2  0  0  0  0
 19 17  1  0  0  0  0
 20 17  1  0  0  0  0
 20  3  1  0  0  0  0
 21 20  2  0  0  0  0
 23 19  1  0  0  0  0
 24 26  1  0  0  0  0
 24 23  1  0  0  0  0
 25 24  2  0  0  0  0
 26 27  1  0  0  0  0
 27 28  1  0  0  0  0
 30 29  1  0  0  0  0
 31 30  1  0  0  0  0
 32 31  1  0  0  0  0
 33 32  1  0  0  0  0
 33 34  1  0  0  0  0
 36 34  1  0  0  0  0
 36 35  1  0  0  0  0
M  END
>  <MODEL>
5

>  <REMARK>
 VINA RESULT:      -6.5      4.881      9.396
  Name = 
  12 active torsions:
  status: ('A' for Active; 'I' for Inactive)
    1  A    between atoms: O_3  and  C_7
    2  A    between atoms: O_3  and  C_30
    3  A    between atoms: C_4  and  C_33
    4  A    between atoms: C_6  and  C_11
    5  A    between atoms: C_6  and  C_26
    6  A    between atoms: C_9  and  C_23
    7  A    between atoms: C_10  and  C_15
    8  A    between atoms: C_10  and  C_20
    9  A    between atoms: C_11  and  C_17
   10  A    between atoms: C_15  and  C_25
   11  A    between atoms: N_19  and  C_21
   12  A    between atoms: C_20  and  C_26
                            x       y       z     vdW  Elec       q    Type
                         _______ _______ _______ _____ _____    ______ ____

>  <TORSDO>
F 12

$$$$
=
 OpenBabel11042413593D

 36 38  0  0  1  0  0  0  0  0999 V2000
  188.1530  176.1360  146.2100 C   0  0  2  0  0  3  0  0  0  0  0  0
  190.6270  176.6220  145.8890 C   0  0  0  0  0  0  0  0  0  0  0  0
  192.6980  177.1880  144.4040 C   0  0  0  0  0  3  0  0  0  0  0  0
  188.1080  177.5220  146.8800 C   0  0  2  0  0  3  0  0  0  0  0  0
  189.3920  177.9340  147.6340 C   0  0  0  0  0  2  0  0  0  0  0  0
  188.1870  175.0110  147.2430 C   0  0  0  0  0  1  0  0  0  0  0  0
  191.6640  176.9070  145.1490 C   0  0  0  0  0  0  0  0  0  0  0  0
  189.3620  176.0940  145.2550 C   0  0  1  0  0  3  0  0  0  0  0  0
  190.6090  177.0500  147.3250 C   0  0  0  0  0  2  0  0  0  0  0  0
  189.8780  172.3160  143.2540 C   0  0  0  0  0  0  0  0  0  0  0  0
  189.5350  174.7820  144.5390 C   0  0  0  0  0  0  0  0  0  0  0  0
  190.0580  171.0080  142.5740 C   0  0  0  0  0  1  0  0  0  0  0  0
  189.4530  173.4300  142.5240 C   0  0  0  0  0  3  0  0  0  0  0  0
  189.2840  174.6600  143.1640 C   0  0  0  0  0  3  0  0  0  0  0  0
  190.1310  172.4320  144.6240 C   0  0  0  0  0  3  0  0  0  0  0  0
  189.9600  173.6640  145.2650 C   0  0  0  0  0  3  0  0  0  0  0  0
  194.0060  175.0280  143.9410 C   0  0  1  0  0  3  0  0  0  0  0  0
  196.0040  175.8140  144.5080 N   0  0  0  0  0  0  0  0  0  0  0  0
  195.3480  174.7310  144.0530 C   0  0  0  0  0  0  0  0  0  0  0  0
  193.8990  176.3400  144.3570 C   0  0  0  0  0  0  0  0  0  0  0  0
  195.1230  176.7870  144.7020 N   0  0  0  0  0  0  0  0  0  0  0  0
  192.9930  174.2350  143.3290 N   0  0  0  0  0  1  0  0  0  0  0  0
  196.0130  173.5280  143.6510 N   0  0  0  0  0  2  0  0  0  0  0  0
  196.1840  172.3610  144.4600 C   0  0  0  0  0  0  0  0  0  0  0  0
  196.0290  172.4180  145.7100 O   0  0  0  0  0  0  0  0  0  0  0  0
  196.5750  171.1670  143.8520 O   0  0  0  0  0  0  0  0  0  0  0  0
  195.7790  170.5340  142.8620 C   0  0  0  0  0  2  0  0  0  0  0  0
  194.3840  170.3070  143.4020 C   0  0  0  0  0  1  0  0  0  0  0  0
  186.8210  177.8190  147.6460 C   0  0  0  0  0  2  0  0  0  0  0  0
  185.9990  178.9240  146.9950 C   0  0  0  0  0  2  0  0  0  0  0  0
  184.7080  178.3600  146.4230 C   0  0  0  0  0  2  0  0  0  0  0  0
  184.3380  179.0520  145.1180 C   0  0  0  0  0  2  0  0  0  0  0  0
  185.5800  179.6100  144.4430 C   0  0  0  0  0  2  0  0  0  0  0  0
  185.7860  178.9470  143.0890 C   0  0  0  0  0  2  0  0  0  0  0  0
  186.0740  176.4750  143.2590 C   0  0  0  0  0  1  0  0  0  0  0  0
  186.7900  177.8100  143.1830 C   0  0  0  0  0  2  0  0  0  0  0  0
  1  4  1  0  0  0  0
  1  6  1  1  0  0  0
  2  9  1  0  0  0  0
  3  7  2  0  0  0  0
  4  5  1  0  0  0  0
  4 29  1  1  0  0  0
  7  2  2  0  0  0  0
  8 11  1  1  0  0  0
  8  2  1  0  0  0  0
  8  1  1  0  0  0  0
  9  5  1  0  0  0  0
 10 15  1  0  0  0  0
 11 16  1  0  0  0  0
 12 10  1  0  0  0  0
 13 14  1  0  0  0  0
 13 10  2  0  0  0  0
 14 11  2  0  0  0  0
 15 16  2  0  0  0  0
 17 22  1  6  0  0  0
 17 19  1  0  0  0  0
 17 20  1  0  0  0  0
 18 21  1  0  0  0  0
 19 18  2  0  0  0  0
 20  3  1  0  0  0  0
 20 21  2  0  0  0  0
 23 19  1  0  0  0  0
 23 24  1  0  0  0  0
 24 25  2  0  0  0  0
 26 24  1  0  0  0  0
 27 28  1  0  0  0  0
 27 26  1  0  0  0  0
 30 29  1  0  0  0  0
 31 30  1  0  0  0  0
 32 31  1  0  0  0  0
 33 32  1  0  0  0  0
 34 36  1  0  0  0  0
 34 33  1  0  0  0  0
 36 35  1  0  0  0  0
M  END
>  <MODEL>
6

>  <REMARK>
 VINA RESULT:      -6.4      1.888      4.451
  Name = 
  12 active torsions:
  status: ('A' for Active; 'I' for Inactive)
    1  A    between atoms: O_3  and  C_7
    2  A    between atoms: O_3  and  C_30
    3  A    between atoms: C_4  and  C_33
    4  A    between atoms: C_6  and  C_11
    5  A    between atoms: C_6  and  C_26
    6  A    between atoms: C_9  and  C_23
    7  A    between atoms: C_10  and  C_15
    8  A    between atoms: C_10  and  C_20
    9  A    between atoms: C_11  and  C_17
   10  A    between atoms: C_15  and  C_25
   11  A    between atoms: N_19  and  C_21
   12  A    between atoms: C_20  and  C_26
                            x       y       z     vdW  Elec       q    Type
                         _______ _______ _______ _____ _____    ______ ____

>  <TORSDO>
F 12

$$$$
=
 OpenBabel11042413593D

 36 38  0  0  1  0  0  0  0  0999 V2000
  190.4530  175.6840  145.7380 C   0  0  2  0  0  3  0  0  0  0  0  0
  189.3960  176.3550  143.5260 C   0  0  0  0  0  0  0  0  0  0  0  0
  188.4350  178.1270  141.8670 C   0  0  0  0  0  3  0  0  0  0  0  0
  191.7120  175.4080  144.8950 C   0  0  2  0  0  3  0  0  0  0  0  0
  191.4500  174.9170  143.4550 C   0  0  0  0  0  2  0  0  0  0  0  0
  189.7000  174.3960  146.0660 C   0  0  0  0  0  1  0  0  0  0  0  0
  188.9160  177.2390  142.6940 C   0  0  0  0  0  0  0  0  0  0  0  0
  189.5750  176.7020  144.9850 C   0  0  1  0  0  3  0  0  0  0  0  0
  189.9970  175.0910  142.9900 C   0  0  0  0  0  2  0  0  0  0  0  0
  185.9430  177.7390  147.0530 C   0  0  0  0  0  0  0  0  0  0  0  0
  188.2960  177.0540  145.6940 C   0  0  0  0  0  0  0  0  0  0  0  0
  184.6960  178.1040  147.7720 C   0  0  0  0  0  1  0  0  0  0  0  0
  185.8870  176.8840  145.9480 C   0  0  0  0  0  3  0  0  0  0  0  0
  187.0600  176.5410  145.2710 C   0  0  0  0  0  3  0  0  0  0  0  0
  187.1710  178.2520  147.4790 C   0  0  0  0  0  3  0  0  0  0  0  0
  188.3460  177.9090  146.8000 C   0  0  0  0  0  3  0  0  0  0  0  0
  185.8890  178.4590  141.9430 C   0  0  1  0  0  3  0  0  0  0  0  0
  185.4740  177.7090  139.8950 N   0  0  0  0  0  0  0  0  0  0  0  0
  184.9090  178.2210  141.0040 C   0  0  0  0  0  0  0  0  0  0  0  0
  187.0640  178.0580  141.3370 C   0  0  0  0  0  0  0  0  0  0  0  0
  186.7800  177.6020  140.1010 N   0  0  0  0  0  0  0  0  0  0  0  0
  185.7540  179.1610  143.1750 N   0  0  0  0  0  1  0  0  0  0  0  0
  183.5190  178.5560  141.0870 N   0  0  0  0  0  2  0  0  0  0  0  0
  182.4610  177.9000  140.3820 C   0  0  0  0  0  0  0  0  0  0  0  0
  182.7110  177.1690  139.3860 O   0  0  0  0  0  0  0  0  0  0  0  0
  181.1430  178.1220  140.7810 O   0  0  0  0  0  0  0  0  0  0  0  0
  180.7040  179.3870  141.2510 C   0  0  0  0  0  2  0  0  0  0  0  0
  179.5690  179.8840  140.3820 C   0  0  0  0  0  1  0  0  0  0  0  0
  192.8080  174.6320  145.6220 C   0  0  0  0  0  2  0  0  0  0  0  0
  193.6530  175.5220  146.5240 C   0  0  0  0  0  2  0  0  0  0  0  0
  194.9010  175.9900  145.7920 C   0  0  0  0  0  2  0  0  0  0  0  0
  195.4970  174.8700  144.9510 C   0  0  0  0  0  2  0  0  0  0  0  0
  196.2320  173.8760  145.8350 C   0  0  0  0  0  2  0  0  0  0  0  0
  196.0480  172.4620  145.3030 C   0  0  0  0  0  2  0  0  0  0  0  0
  196.5630  170.0450  145.6430 C   0  0  0  0  0  1  0  0  0  0  0  0
  196.8050  171.4530  146.1520 C   0  0  0  0  0  2  0  0  0  0  0  0
  1  6  1  6  0  0  0
  2  8  1  0  0  0  0
  3  7  2  0  0  0  0
  4 29  1  1  0  0  0
  4  1  1  0  0  0  0
  5  4  1  0  0  0  0
  7  2  2  0  0  0  0
  8 11  1  1  0  0  0
  8  1  1  0  0  0  0
  9  5  1  0  0  0  0
  9  2  1  0  0  0  0
 10 15  1  0  0  0  0
 10 12  1  0  0  0  0
 11 16  1  0  0  0  0
 13 10  2  0  0  0  0
 14 11  2  0  0  0  0
 14 13  1  0  0  0  0
 16 15  2  0  0  0  0
 17 22  1  6  0  0  0
 18 21  1  0  0  0  0
 18 19  2  0  0  0  0
 19 23  1  0  0  0  0
 19 17  1  0  0  0  0
 20  3  1  0  0  0  0
 20 17  1  0  0  0  0
 21 20  2  0  0  0  0
 24 26  1  0  0  0  0
 24 23  1  0  0  0  0
 25 24  2  0  0  0  0
 26 27  1  0  0  0  0
 28 27  1  0  0  0  0
 29 30  1  0  0  0  0
 31 30  1  0  0  0  0
 32 31  1  0  0  0  0
 32 33  1  0  0  0  0
 34 33  1  0  0  0  0
 34 36  1  0  0  0  0
 35 36  1  0  0  0  0
M  END
>  <MODEL>
7

>  <REMARK>
 VINA RESULT:      -6.3      4.933      9.719
  Name = 
  12 active torsions:
  status: ('A' for Active; 'I' for Inactive)
    1  A    between atoms: O_3  and  C_7
    2  A    between atoms: O_3  and  C_30
    3  A    between atoms: C_4  and  C_33
    4  A    between atoms: C_6  and  C_11
    5  A    between atoms: C_6  and  C_26
    6  A    between atoms: C_9  and  C_23
    7  A    between atoms: C_10  and  C_15
    8  A    between atoms: C_10  and  C_20
    9  A    between atoms: C_11  and  C_17
   10  A    between atoms: C_15  and  C_25
   11  A    between atoms: N_19  and  C_21
   12  A    between atoms: C_20  and  C_26
                            x       y       z     vdW  Elec       q    Type
                         _______ _______ _______ _____ _____    ______ ____

>  <TORSDO>
F 12

$$$$
=
 OpenBabel11042413593D

 36 38  0  0  1  0  0  0  0  0999 V2000
  187.4360  176.4040  142.2900 C   0  0  2  0  0  3  0  0  0  0  0  0
  189.5530  176.8300  143.6310 C   0  0  0  0  0  0  0  0  0  0  0  0
  192.1370  177.1490  143.8330 C   0  0  0  0  0  3  0  0  0  0  0  0
  187.1140  177.8790  142.5900 C   0  0  2  0  0  3  0  0  0  0  0  0
  187.6280  178.4070  143.9460 C   0  0  0  0  0  2  0  0  0  0  0  0
  186.6670  175.4600  143.2130 C   0  0  0  0  0  1  0  0  0  0  0  0
  190.8450  176.9920  143.7340 C   0  0  0  0  0  0  0  0  0  0  0  0
  188.9620  176.2070  142.3880 C   0  0  1  0  0  3  0  0  0  0  0  0
  188.6480  177.4840  144.6300 C   0  0  0  0  0  2  0  0  0  0  0  0
  190.2620  172.1800  141.5960 C   0  0  0  0  0  0  0  0  0  0  0  0
  189.4190  174.7970  142.1310 C   0  0  0  0  0  0  0  0  0  0  0  0
  190.7120  170.7920  141.3120 C   0  0  0  0  0  1  0  0  0  0  0  0
  190.1180  172.6100  142.9180 C   0  0  0  0  0  3  0  0  0  0  0  0
  189.6960  173.9150  143.1860 C   0  0  0  0  0  3  0  0  0  0  0  0
  189.9860  173.0550  140.5420 C   0  0  0  0  0  3  0  0  0  0  0  0
  189.5640  174.3610  140.8100 C   0  0  0  0  0  3  0  0  0  0  0  0
  193.4590  175.0340  144.4440 C   0  0  1  0  0  3  0  0  0  0  0  0
  194.2020  175.7580  146.4070 N   0  0  0  0  0  0  0  0  0  0  0  0
  194.2250  174.7230  145.5470 C   0  0  0  0  0  0  0  0  0  0  0  0
  192.9770  176.3040  144.6950 C   0  0  0  0  0  0  0  0  0  0  0  0
  193.4380  176.7130  145.8940 N   0  0  0  0  0  0  0  0  0  0  0  0
  193.3620  174.3030  143.2250 N   0  0  0  0  0  1  0  0  0  0  0  0
  195.0340  173.5590  145.7480 N   0  0  0  0  0  2  0  0  0  0  0  0
  196.4470  173.4810  145.5370 C   0  0  0  0  0  0  0  0  0  0  0  0
  197.0430  174.3580  144.8540 O   0  0  0  0  0  0  0  0  0  0  0  0
  197.1500  172.3930  146.0550 O   0  0  0  0  0  0  0  0  0  0  0  0
  196.8570  171.0590  145.6700 C   0  0  0  0  0  2  0  0  0  0  0  0
  197.9410  170.5510  144.7450 C   0  0  0  0  0  1  0  0  0  0  0  0
  185.6800  178.2970  142.2690 C   0  0  0  0  0  2  0  0  0  0  0  0
  185.1200  179.2850  143.2840 C   0  0  0  0  0  2  0  0  0  0  0  0
  183.9310  178.6810  144.0140 C   0  0  0  0  0  2  0  0  0  0  0  0
  184.1390  178.7090  145.5210 C   0  0  0  0  0  2  0  0  0  0  0  0
  184.8100  177.4280  145.9880 C   0  0  0  0  0  2  0  0  0  0  0  0
  185.5710  177.6740  147.2820 C   0  0  0  0  0  2  0  0  0  0  0  0
  187.1060  179.2960  148.3950 C   0  0  0  0  0  1  0  0  0  0  0  0
  185.9480  179.1400  147.4270 C   0  0  0  0  0  2  0  0  0  0  0  0
  1  8  1  0  0  0  0
  1  4  1  0  0  0  0
  1  6  1  1  0  0  0
  2  7  2  0  0  0  0
  2  9  1  0  0  0  0
  3 20  1  0  0  0  0
  4 29  1  1  0  0  0
  4  5  1  0  0  0  0
  5  9  1  0  0  0  0
  7  3  2  0  0  0  0
  8 11  1  1  0  0  0
  8  2  1  0  0  0  0
 10 13  1  0  0  0  0
 11 14  1  0  0  0  0
 12 10  1  0  0  0  0
 13 14  2  0  0  0  0
 15 16  1  0  0  0  0
 15 10  2  0  0  0  0
 16 11  2  0  0  0  0
 17 22  1  6  0  0  0
 17 20  1  0  0  0  0
 17 19  1  0  0  0  0
 19 23  1  0  0  0  0
 19 18  2  0  0  0  0
 20 21  2  0  0  0  0
 21 18  1  0  0  0  0
 24 23  1  0  0  0  0
 24 26  1  0  0  0  0
 25 24  2  0  0  0  0
 27 26  1  0  0  0  0
 28 27  1  0  0  0  0
 29 30  1  0  0  0  0
 30 31  1  0  0  0  0
 31 32  1  0  0  0  0
 32 33  1  0  0  0  0
 33 34  1  0  0  0  0
 34 36  1  0  0  0  0
 36 35  1  0  0  0  0
M  END
>  <MODEL>
8

>  <REMARK>
 VINA RESULT:      -6.2      2.018      4.048
  Name = 
  12 active torsions:
  status: ('A' for Active; 'I' for Inactive)
    1  A    between atoms: O_3  and  C_7
    2  A    between atoms: O_3  and  C_30
    3  A    between atoms: C_4  and  C_33
    4  A    between atoms: C_6  and  C_11
    5  A    between atoms: C_6  and  C_26
    6  A    between atoms: C_9  and  C_23
    7  A    between atoms: C_10  and  C_15
    8  A    between atoms: C_10  and  C_20
    9  A    between atoms: C_11  and  C_17
   10  A    between atoms: C_15  and  C_25
   11  A    between atoms: N_19  and  C_21
   12  A    between atoms: C_20  and  C_26
                            x       y       z     vdW  Elec       q    Type
                         _______ _______ _______ _____ _____    ______ ____

>  <TORSDO>
F 12

$$$$
=
 OpenBabel11042413593D

 36 38  0  0  1  0  0  0  0  0999 V2000
  189.4960  176.8310  145.2820 C   0  0  2  0  0  3  0  0  0  0  0  0
  189.1600  174.9870  143.5660 C   0  0  0  0  0  0  0  0  0  0  0  0
  189.5510  172.5670  142.6660 C   0  0  0  0  0  3  0  0  0  0  0  0
  188.0170  176.5870  145.6320 C   0  0  2  0  0  3  0  0  0  0  0  0
  187.1210  176.1480  144.4530 C   0  0  0  0  0  2  0  0  0  0  0  0
  189.6690  178.0590  144.3900 C   0  0  0  0  0  1  0  0  0  0  0  0
  189.3530  173.7770  143.1140 C   0  0  0  0  0  0  0  0  0  0  0  0
  190.0630  175.5520  144.6360 C   0  0  1  0  0  3  0  0  0  0  0  0
  187.9020  175.7150  143.2030 C   0  0  0  0  0  2  0  0  0  0  0  0
  194.2120  175.8530  143.5230 C   0  0  0  0  0  0  0  0  0  0  0  0
  191.5070  175.6570  144.2280 C   0  0  0  0  0  0  0  0  0  0  0  0
  195.6470  175.9540  143.1500 C   0  0  0  0  0  1  0  0  0  0  0  0
  193.2280  175.8970  142.5310 C   0  0  0  0  0  3  0  0  0  0  0  0
  191.8790  175.8000  142.8820 C   0  0  0  0  0  3  0  0  0  0  0  0
  193.8480  175.7110  144.8650 C   0  0  0  0  0  3  0  0  0  0  0  0
  192.4970  175.6140  145.2160 C   0  0  0  0  0  3  0  0  0  0  0  0
  189.5040  172.2840  140.1140 C   0  0  1  0  0  3  0  0  0  0  0  0
  191.6760  171.8940  139.8620 N   0  0  0  0  0  0  0  0  0  0  0  0
  190.5080  172.0240  139.2060 C   0  0  0  0  0  0  0  0  0  0  0  0
  190.1350  172.2960  141.3430 C   0  0  0  0  0  0  0  0  0  0  0  0
  191.4470  172.0490  141.1590 N   0  0  0  0  0  0  0  0  0  0  0  0
  188.1620  172.6680  139.8330 N   0  0  0  0  0  1  0  0  0  0  0  0
  190.4100  172.0070  137.7770 N   0  0  0  0  0  2  0  0  0  0  0  0
  189.7900  170.9800  136.9970 C   0  0  0  0  0  0  0  0  0  0  0  0
  189.5510  169.8490  137.5000 O   0  0  0  0  0  0  0  0  0  0  0  0
  189.4980  171.2310  135.6570 O   0  0  0  0  0  0  0  0  0  0  0  0
  190.5170  171.4770  134.7000 C   0  0  0  0  0  2  0  0  0  0  0  0
  191.3470  170.2260  134.5130 C   0  0  0  0  0  1  0  0  0  0  0  0
  187.3860  177.6560  146.5210 C   0  0  0  0  0  2  0  0  0  0  0  0
  186.2400  177.1120  147.3630 C   0  0  0  0  0  2  0  0  0  0  0  0
  184.9020  177.4880  146.7460 C   0  0  0  0  0  2  0  0  0  0  0  0
  184.9080  178.9280  146.2550 C   0  0  0  0  0  2  0  0  0  0  0  0
  184.5150  178.9900  144.7880 C   0  0  0  0  0  2  0  0  0  0  0  0
  185.5420  179.7910  144.0020 C   0  0  0  0  0  2  0  0  0  0  0  0
  184.9320  178.2270  142.1560 C   0  0  0  0  0  1  0  0  0  0  0  0
  186.0600  179.0000  142.8110 C   0  0  0  0  0  2  0  0  0  0  0  0
  1  6  1  6  0  0  0
  1  4  1  0  0  0  0
  2  8  1  0  0  0  0
  3  7  2  0  0  0  0
  4 29  1  6  0  0  0
  5  4  1  0  0  0  0
  7  2  2  0  0  0  0
  8 11  1  6  0  0  0
  8  1  1  0  0  0  0
  9  2  1  0  0  0  0
  9  5  1  0  0  0  0
 10 15  1  0  0  0  0
 11 16  1  0  0  0  0
 12 10  1  0  0  0  0
 13 14  1  0  0  0  0
 13 10  2  0  0  0  0
 14 11  2  0  0  0  0
 15 16  2  0  0  0  0
 17 22  1  6  0  0  0
 17 20  1  0  0  0  0
 18 21  1  0  0  0  0
 19 18  2  0  0  0  0
 19 17  1  0  0  0  0
 20  3  1  0  0  0  0
 21 20  2  0  0  0  0
 23 19  1  0  0  0  0
 24 25  2  0  0  0  0
 24 23  1  0  0  0  0
 26 24  1  0  0  0  0
 27 26  1  0  0  0  0
 28 27  1  0  0  0  0
 29 30  1  0  0  0  0
 31 30  1  0  0  0  0
 32 31  1  0  0  0  0
 33 32  1  0  0  0  0
 34 33  1  0  0  0  0
 35 36  1  0  0  0  0
 36 34  1  0  0  0  0
M  END
>  <MODEL>
9

>  <REMARK>
 VINA RESULT:      -6.2      3.488      4.858
  Name = 
  12 active torsions:
  status: ('A' for Active; 'I' for Inactive)
    1  A    between atoms: O_3  and  C_7
    2  A    between atoms: O_3  and  C_30
    3  A    between atoms: C_4  and  C_33
    4  A    between atoms: C_6  and  C_11
    5  A    between atoms: C_6  and  C_26
    6  A    between atoms: C_9  and  C_23
    7  A    between atoms: C_10  and  C_15
    8  A    between atoms: C_10  and  C_20
    9  A    between atoms: C_11  and  C_17
   10  A    between atoms: C_15  and  C_25
   11  A    between atoms: N_19  and  C_21
   12  A    between atoms: C_20  and  C_26
                            x       y       z     vdW  Elec       q    Type
                         _______ _______ _______ _____ _____    ______ ____

>  <TORSDO>
F 12

$$$$
