=
 OpenBabel11042417443D

 48 54  0  0  1  0  0  0  0  0999 V2000
  191.1600  171.5420  140.0560 S   0  0  0  0  0  0  0  0  0  0  0  0
  192.2400  175.0060  144.8660 C   0  0  0  0  0  0  0  0  0  0  0  0
  189.6410  174.4040  143.9050 C   0  0  1  0  0  3  0  0  0  0  0  0
  193.0070  172.4090  141.8650 C   0  0  0  0  0  2  0  0  0  0  0  0
  190.5970  172.8580  142.4080 C   0  0  0  0  0  0  0  0  0  0  0  0
  192.0090  173.7730  144.3830 C   0  0  0  0  0  0  0  0  0  0  0  0
  188.7120  174.2510  142.6990 C   0  0  0  0  0  2  0  0  0  0  0  0
  190.8030  173.5750  143.6270 N   0  0  0  0  0  0  0  0  0  0  0  0
  192.8580  172.6070  144.7790 C   0  0  0  0  0  1  0  0  0  0  0  0
  192.7760  172.1050  139.5190 C   0  0  0  0  0  0  0  0  0  0  0  0
  190.0910  175.8260  144.1390 C   0  0  0  0  0  0  0  0  0  0  0  0
  191.2830  176.0540  144.6190 N   0  0  0  0  0  0  0  0  0  0  0  0
  189.1970  173.0200  141.9410 C   0  0  0  0  0  2  0  0  0  0  0  0
  193.5920  172.4730  140.5000 C   0  0  0  0  0  3  0  0  0  0  0  0
  191.5430  172.2790  141.6440 C   0  0  0  0  0  0  0  0  0  0  0  0
  195.7860  171.0910  138.8750 O   0  0  0  0  0  1  0  0  0  0  0  0
  193.5280  174.8090  137.6410 C   0  0  1  0  0  3  0  0  0  0  0  0
  192.8390  173.8270  136.6670 C   0  0  0  0  0  2  0  0  0  0  0  0
  194.8670  174.2900  138.2200 C   0  0  1  0  0  3  0  0  0  0  0  0
  195.5470  173.4150  137.3570 O   0  0  0  0  0  0  0  0  0  0  0  0
  193.7280  176.0070  136.9780 F   0  0  0  0  0  0  0  0  0  0  0  0
  195.7010  175.3470  138.5870 O   0  0  0  0  0  1  0  0  0  0  0  0
  193.2050  172.1300  138.1440 N   0  0  0  0  0  0  0  0  0  0  0  0
  194.8920  171.8770  137.6740 P   0  0  2  0  0  0  0  0  0  0  0  0
  194.9370  171.0520  136.4090 O   0  0  0  0  0  0  0  0  0  0  0  0
  192.3350  172.6100  137.2080 O   0  0  0  0  0  0  0  0  0  0  0  0
  189.1190  176.9630  143.9800 C   0  0  2  0  0  3  0  0  0  0  0  0
  189.6900  177.9390  143.0660 N   0  0  0  0  0  1  0  0  0  0  0  0
  189.0690  176.7320  146.5040 C   0  0  0  0  0  2  0  0  0  0  0  0
  186.7060  176.7450  146.0270 C   0  0  0  0  0  2  0  0  0  0  0  0
  187.7720  176.0230  146.8260 C   0  0  0  0  0  2  0  0  0  0  0  0
  187.3130  177.9510  145.4830 N   0  0  0  0  0  0  0  0  0  0  0  0
  188.7450  177.6420  145.3290 C   0  0  2  0  0  3  0  0  0  0  0  0
  186.6310  178.2950  144.2390 C   0  0  0  0  0  2  0  0  0  0  0  0
  185.6590  180.4520  144.2140 F   0  0  0  0  0  0  0  0  0  0  0  0
  185.3990  179.1310  144.5330 C   0  0  1  0  0  3  0  0  0  0  0  0
  184.2770  178.6520  143.7420 N   0  0  0  0  0  2  0  0  0  0  0  0
  184.8170  177.7790  142.7150 C   0  0  0  0  0  2  0  0  0  0  0  0
  184.3810  178.2760  141.3500 C   0  0  0  0  0  2  0  0  0  0  0  0
  185.3600  177.8180  140.2850 C   0  0  0  0  0  2  0  0  0  0  0  0
  186.7150  177.8580  140.8050 N   0  0  0  0  0  2  0  0  0  0  0  0
  187.2890  176.6730  140.4910 O   0  0  0  0  0  1  0  0  0  0  0  0
  193.7000  175.3900  145.8350 S   0  0  0  0  0  0  0  0  0  0  0  0
  194.4250  176.3680  144.4850 C   0  0  0  0  0  2  0  0  0  0  0  0
  195.2640  175.4750  143.5930 C   0  0  1  0  0  0  0  0  0  0  0  0
  196.6320  175.5860  143.8940 O   0  0  0  0  0  0  0  0  0  0  0  0
  195.0120  175.7150  142.1230 C   0  0  0  0  0  2  0  0  0  0  0  0
  196.1700  176.3780  142.8300 C   0  0  1  0  0  3  0  0  0  0  0  0
  1 15  1  0  0  0  0
  2 43  1  0  0  0  0
  3  7  1  6  0  0  0
  3 11  1  0  0  0  0
  5  8  1  0  0  0  0
  6  9  1  0  0  0  0
  6  2  2  0  0  0  0
  8  3  1  0  0  0  0
  8  6  1  0  0  0  0
 10  1  1  0  0  0  0
 10 14  2  0  0  0  0
 11 12  2  0  0  0  0
 12  2  1  0  0  0  0
 13  5  1  0  0  0  0
 13  7  1  0  0  0  0
 14  4  1  0  0  0  0
 15  4  1  0  0  0  0
 15  5  2  0  0  0  0
 17 21  1  6  0  0  0
 17 19  1  0  0  0  0
 18 26  1  0  0  0  0
 18 17  1  0  0  0  0
 19 22  1  6  0  0  0
 20 24  1  0  0  0  0
 20 19  1  0  0  0  0
 23 10  1  0  0  0  0
 24 25  2  6  0  0  0
 24 23  1  0  0  0  0
 24 16  1  0  0  0  0
 26 23  1  0  0  0  0
 27 28  1  6  0  0  0
 27 11  1  0  0  0  0
 29 31  1  0  0  0  0
 30 31  1  0  0  0  0
 32 30  1  0  0  0  0
 33 27  1  6  0  0  0
 33 32  1  0  0  0  0
 33 29  1  0  0  0  0
 34 36  1  0  0  0  0
 34 32  1  0  0  0  0
 36 35  1  6  0  0  0
 37 36  1  0  0  0  0
 38 37  1  0  0  0  0
 39 38  1  0  0  0  0
 40 41  1  0  0  0  0
 40 39  1  0  0  0  0
 42 41  1  0  0  0  0
 44 43  1  0  0  0  0
 45 46  1  0  0  0  0
 45 44  1  1  0  0  0
 47 45  1  0  0  0  0
 48 47  1  6  0  0  0
 48 45  1  0  0  0  0
 48 46  1  0  0  0  0
M  END
>  <MODEL>
1

>  <REMARK>
 VINA RESULT:      -6.8      0.000      0.000
  Name = 
  13 active torsions:
  status: ('A' for Active; 'I' for Inactive)
    1  A    between atoms: S_1  and  C_7
    2  A    between atoms: S_1  and  C_31
    3  A    between atoms: C_3  and  N_34
    4  A    between atoms: C_3  and  C_35
    5  A    between atoms: C_10  and  C_31
    6  A    between atoms: N_11  and  C_20
    7  A    between atoms: C_20  and  C_35
    8  A    between atoms: C_21  and  C_29
    9  A    between atoms: C_21  and  C_44
   10  A    between atoms: C_27  and  C_32
   11  A    between atoms: C_27  and  N_34
   12  A    between atoms: C_28  and  N_30
   13  A    between atoms: C_32  and  N_41
                            x       y       z     vdW  Elec       q    Type
                         _______ _______ _______ _____ _____    ______ ____

>  <TORSDO>
F 13

$$$$
=
 OpenBabel11042417443D

 48 54  0  0  1  0  0  0  0  0999 V2000
  191.1490  171.5920  140.4490 S   0  0  0  0  0  0  0  0  0  0  0  0
  193.2010  174.9540  145.0080 C   0  0  0  0  0  0  0  0  0  0  0  0
  190.4520  174.4640  144.5210 C   0  0  1  0  0  3  0  0  0  0  0  0
  193.3200  172.3660  141.9060 C   0  0  0  0  0  2  0  0  0  0  0  0
  191.0640  172.9000  142.8700 C   0  0  0  0  0  0  0  0  0  0  0  0
  192.8390  173.7360  144.5680 C   0  0  0  0  0  0  0  0  0  0  0  0
  189.3180  174.3610  143.4980 C   0  0  0  0  0  2  0  0  0  0  0  0
  191.5120  173.5940  144.0370 N   0  0  0  0  0  0  0  0  0  0  0  0
  193.6980  172.5350  144.8010 C   0  0  0  0  0  1  0  0  0  0  0  0
  192.6660  172.0990  139.6370 C   0  0  0  0  0  0  0  0  0  0  0  0
  190.9920  175.8650  144.6780 C   0  0  0  0  0  0  0  0  0  0  0  0
  192.2580  176.0410  144.9400 N   0  0  0  0  0  0  0  0  0  0  0  0
  189.6120  173.1210  142.6590 C   0  0  0  0  0  2  0  0  0  0  0  0
  193.6570  172.4220  140.4590 C   0  0  0  0  0  3  0  0  0  0  0  0
  191.8370  172.2940  141.9470 C   0  0  0  0  0  0  0  0  0  0  0  0
  193.4940  174.9260  138.2860 O   0  0  0  0  0  1  0  0  0  0  0  0
  190.2800  171.9160  137.2550 C   0  0  1  0  0  3  0  0  0  0  0  0
  191.4790  171.1310  136.6790 C   0  0  0  0  0  2  0  0  0  0  0  0
  190.5610  173.4220  137.4820 C   0  0  1  0  0  3  0  0  0  0  0  0
  191.5070  173.9540  136.5900 O   0  0  0  0  0  0  0  0  0  0  0  0
  189.2050  171.7550  136.3990 F   0  0  0  0  0  0  0  0  0  0  0  0
  189.3820  174.1680  137.4310 O   0  0  0  0  0  1  0  0  0  0  0  0
  192.8450  172.1240  138.2070 N   0  0  0  0  0  0  0  0  0  0  0  0
  193.0190  173.6340  137.3020 P   0  0  2  0  0  0  0  0  0  0  0  0
  194.0480  173.4440  136.2110 O   0  0  0  0  0  0  0  0  0  0  0  0
  192.6220  170.9710  137.5120 O   0  0  0  0  0  0  0  0  0  0  0  0
  190.0540  177.0400  144.7000 C   0  0  2  0  0  3  0  0  0  0  0  0
  190.7230  178.1810  144.0950 N   0  0  0  0  0  1  0  0  0  0  0  0
  190.0420  176.3800  147.1470 C   0  0  0  0  0  2  0  0  0  0  0  0
  187.7180  176.0430  146.5990 C   0  0  0  0  0  2  0  0  0  0  0  0
  188.8980  175.4030  147.3030 C   0  0  0  0  0  2  0  0  0  0  0  0
  188.0920  177.4130  146.2840 N   0  0  0  0  0  0  0  0  0  0  0  0
  189.5570  177.4010  146.1290 C   0  0  2  0  0  3  0  0  0  0  0  0
  187.3620  177.8330  145.0920 C   0  0  0  0  0  2  0  0  0  0  0  0
  185.8840  179.4170  146.0460 F   0  0  0  0  0  0  0  0  0  0  0  0
  185.9250  178.1680  145.4510 C   0  0  1  0  0  3  0  0  0  0  0  0
  185.1040  178.1740  144.2520 N   0  0  0  0  0  2  0  0  0  0  0  0
  185.7590  177.3160  143.2790 C   0  0  0  0  0  2  0  0  0  0  0  0
  185.6820  177.9580  141.9080 C   0  0  0  0  0  2  0  0  0  0  0  0
  186.6320  177.2660  140.9480 C   0  0  0  0  0  2  0  0  0  0  0  0
  187.9370  177.1100  141.5660 N   0  0  0  0  0  2  0  0  0  0  0  0
  188.5520  178.3130  141.4900 O   0  0  0  0  0  1  0  0  0  0  0  0
  194.8240  175.2700  145.7050 S   0  0  0  0  0  0  0  0  0  0  0  0
  195.2380  176.4500  144.3860 C   0  0  0  0  0  2  0  0  0  0  0  0
  196.4120  175.9330  143.5800 C   0  0  1  0  0  0  0  0  0  0  0  0
  197.2910  176.9710  143.2250 O   0  0  0  0  0  0  0  0  0  0  0  0
  195.9860  175.1460  142.3630 C   0  0  0  0  0  2  0  0  0  0  0  0
  196.3420  176.6100  142.2540 C   0  0  1  0  0  3  0  0  0  0  0  0
  1 15  1  0  0  0  0
  2 43  1  0  0  0  0
  3  7  1  6  0  0  0
  3 11  1  0  0  0  0
  4 15  1  0  0  0  0
  5  8  1  0  0  0  0
  6  9  1  0  0  0  0
  6  2  2  0  0  0  0
  8  3  1  0  0  0  0
  8  6  1  0  0  0  0
 10  1  1  0  0  0  0
 10 14  2  0  0  0  0
 11 27  1  0  0  0  0
 11 12  2  0  0  0  0
 12  2  1  0  0  0  0
 13  5  1  0  0  0  0
 13  7  1  0  0  0  0
 14  4  1  0  0  0  0
 15  5  2  0  0  0  0
 17 21  1  6  0  0  0
 17 19  1  0  0  0  0
 18 17  1  0  0  0  0
 18 26  1  0  0  0  0
 19 22  1  6  0  0  0
 20 24  1  0  0  0  0
 20 19  1  0  0  0  0
 23 10  1  0  0  0  0
 24 25  2  6  0  0  0
 24 23  1  0  0  0  0
 24 16  1  0  0  0  0
 26 23  1  0  0  0  0
 27 28  1  1  0  0  0
 29 31  1  0  0  0  0
 30 31  1  0  0  0  0
 32 30  1  0  0  0  0
 33 27  1  6  0  0  0
 33 32  1  0  0  0  0
 33 29  1  0  0  0  0
 34 36  1  0  0  0  0
 34 32  1  0  0  0  0
 36 35  1  6  0  0  0
 37 36  1  0  0  0  0
 38 37  1  0  0  0  0
 39 38  1  0  0  0  0
 40 41  1  0  0  0  0
 40 39  1  0  0  0  0
 42 41  1  0  0  0  0
 44 43  1  0  0  0  0
 45 44  1  1  0  0  0
 46 45  1  0  0  0  0
 47 45  1  0  0  0  0
 48 47  1  6  0  0  0
 48 46  1  0  0  0  0
 48 45  1  0  0  0  0
M  END
>  <MODEL>
2

>  <REMARK>
 VINA RESULT:      -6.8      1.772      2.212
  Name = 
  13 active torsions:
  status: ('A' for Active; 'I' for Inactive)
    1  A    between atoms: S_1  and  C_7
    2  A    between atoms: S_1  and  C_31
    3  A    between atoms: C_3  and  N_34
    4  A    between atoms: C_3  and  C_35
    5  A    between atoms: C_10  and  C_31
    6  A    between atoms: N_11  and  C_20
    7  A    between atoms: C_20  and  C_35
    8  A    between atoms: C_21  and  C_29
    9  A    between atoms: C_21  and  C_44
   10  A    between atoms: C_27  and  C_32
   11  A    between atoms: C_27  and  N_34
   12  A    between atoms: C_28  and  N_30
   13  A    between atoms: C_32  and  N_41
                            x       y       z     vdW  Elec       q    Type
                         _______ _______ _______ _____ _____    ______ ____

>  <TORSDO>
F 13

$$$$
=
 OpenBabel11042417443D

 48 54  0  0  1  0  0  0  0  0999 V2000
  190.0580  173.1220  139.0980 S   0  0  0  0  0  0  0  0  0  0  0  0
  192.7970  174.7950  144.1960 C   0  0  0  0  0  0  0  0  0  0  0  0
  189.9830  174.6190  143.9010 C   0  0  1  0  0  3  0  0  0  0  0  0
  192.4120  173.2950  140.4630 C   0  0  0  0  0  2  0  0  0  0  0  0
  190.3080  173.6160  141.7950 C   0  0  0  0  0  0  0  0  0  0  0  0
  192.2960  173.7940  143.4520 C   0  0  0  0  0  0  0  0  0  0  0  0
  188.7540  174.8950  143.0320 C   0  0  0  0  0  2  0  0  0  0  0  0
  190.9180  173.8900  143.0580 N   0  0  0  0  0  0  0  0  0  0  0  0
  193.0710  172.5380  143.2100 C   0  0  0  0  0  1  0  0  0  0  0  0
  191.5290  173.7790  138.3100 C   0  0  0  0  0  0  0  0  0  0  0  0
  190.6500  175.8730  144.4130 C   0  0  0  0  0  0  0  0  0  0  0  0
  191.9450  175.8950  144.5700 N   0  0  0  0  0  0  0  0  0  0  0  0
  188.8650  173.9640  141.8290 C   0  0  0  0  0  2  0  0  0  0  0  0
  192.6160  173.7820  139.0730 C   0  0  0  0  0  3  0  0  0  0  0  0
  190.9370  173.2890  140.6500 C   0  0  0  0  0  0  0  0  0  0  0  0
  188.7140  174.5370  136.8940 O   0  0  0  0  0  1  0  0  0  0  0  0
  192.1730  171.9570  135.5420 C   0  0  1  0  0  3  0  0  0  0  0  0
  192.8340  173.3280  135.2780 C   0  0  0  0  0  2  0  0  0  0  0  0
  190.6310  172.0140  135.6820 C   0  0  1  0  0  3  0  0  0  0  0  0
  190.0420  173.0540  134.9440 O   0  0  0  0  0  0  0  0  0  0  0  0
  192.5260  171.1010  134.5140 F   0  0  0  0  0  0  0  0  0  0  0  0
  190.0480  170.7930  135.3400 O   0  0  0  0  0  1  0  0  0  0  0  0
  191.5750  174.2380  136.9450 N   0  0  0  0  0  0  0  0  0  0  0  0
  190.1180  174.4190  135.9580 P   0  0  2  0  0  0  0  0  0  0  0  0
  190.2450  175.6600  135.1060 O   0  0  0  0  0  0  0  0  0  0  0  0
  192.7900  174.2910  136.3260 O   0  0  0  0  0  0  0  0  0  0  0  0
  189.8180  177.0280  144.8970 C   0  0  2  0  0  3  0  0  0  0  0  0
  190.3950  178.2620  144.3880 N   0  0  0  0  0  1  0  0  0  0  0  0
  190.3020  175.8500  147.0890 C   0  0  0  0  0  2  0  0  0  0  0  0
  187.8940  175.7430  147.0660 C   0  0  0  0  0  2  0  0  0  0  0  0
  189.1370  174.9130  147.3170 C   0  0  0  0  0  2  0  0  0  0  0  0
  188.3150  177.1310  146.9530 N   0  0  0  0  0  0  0  0  0  0  0  0
  189.6980  177.0890  146.4470 C   0  0  2  0  0  3  0  0  0  0  0  0
  187.3740  177.8330  146.0840 C   0  0  0  0  0  2  0  0  0  0  0  0
  186.4780  179.1670  147.8220 F   0  0  0  0  0  0  0  0  0  0  0  0
  186.1340  178.2260  146.8670 C   0  0  1  0  0  3  0  0  0  0  0  0
  185.1400  178.7870  145.9680 N   0  0  0  0  0  2  0  0  0  0  0  0
  185.8510  179.3160  144.8170 C   0  0  0  0  0  2  0  0  0  0  0  0
  184.9690  179.2100  143.5880 C   0  0  0  0  0  2  0  0  0  0  0  0
  184.8420  177.7620  143.1540 C   0  0  0  0  0  2  0  0  0  0  0  0
  186.0440  177.3450  142.4540 N   0  0  0  0  0  2  0  0  0  0  0  0
  185.8840  177.6980  141.1570 O   0  0  0  0  0  1  0  0  0  0  0  0
  194.4990  174.7970  144.7660 S   0  0  0  0  0  0  0  0  0  0  0  0
  194.9460  176.1570  143.6450 C   0  0  0  0  0  2  0  0  0  0  0  0
  195.6100  175.6030  142.4010 C   0  0  1  0  0  0  0  0  0  0  0  0
  196.9710  175.9480  142.3470 O   0  0  0  0  0  0  0  0  0  0  0  0
  194.8990  176.0060  141.1300 C   0  0  0  0  0  2  0  0  0  0  0  0
  196.0980  176.7800  141.6270 C   0  0  1  0  0  3  0  0  0  0  0  0
  1 15  1  0  0  0  0
  2 12  1  0  0  0  0
  2 43  1  0  0  0  0
  3  7  1  6  0  0  0
  3 11  1  0  0  0  0
  4 15  1  0  0  0  0
  5 13  1  0  0  0  0
  5  8  1  0  0  0  0
  6  2  2  0  0  0  0
  8  6  1  0  0  0  0
  8  3  1  0  0  0  0
  9  6  1  0  0  0  0
 10 14  2  0  0  0  0
 10  1  1  0  0  0  0
 11 12  2  0  0  0  0
 11 27  1  0  0  0  0
 13  7  1  0  0  0  0
 14  4  1  0  0  0  0
 15  5  2  0  0  0  0
 17 21  1  6  0  0  0
 17 19  1  0  0  0  0
 18 17  1  0  0  0  0
 18 26  1  0  0  0  0
 19 22  1  6  0  0  0
 20 19  1  0  0  0  0
 20 24  1  0  0  0  0
 23 10  1  0  0  0  0
 24 25  2  6  0  0  0
 24 16  1  0  0  0  0
 24 23  1  0  0  0  0
 26 23  1  0  0  0  0
 27 28  1  1  0  0  0
 29 31  1  0  0  0  0
 30 31  1  0  0  0  0
 32 30  1  0  0  0  0
 33 27  1  6  0  0  0
 33 32  1  0  0  0  0
 33 29  1  0  0  0  0
 34 36  1  0  0  0  0
 34 32  1  0  0  0  0
 36 35  1  1  0  0  0
 37 36  1  0  0  0  0
 38 37  1  0  0  0  0
 39 38  1  0  0  0  0
 40 39  1  0  0  0  0
 41 40  1  0  0  0  0
 42 41  1  0  0  0  0
 44 43  1  0  0  0  0
 45 44  1  1  0  0  0
 46 45  1  0  0  0  0
 47 45  1  0  0  0  0
 48 47  1  6  0  0  0
 48 46  1  0  0  0  0
 48 45  1  0  0  0  0
M  END
>  <MODEL>
3

>  <REMARK>
 VINA RESULT:      -6.6      2.222      3.070
  Name = 
  13 active torsions:
  status: ('A' for Active; 'I' for Inactive)
    1  A    between atoms: S_1  and  C_7
    2  A    between atoms: S_1  and  C_31
    3  A    between atoms: C_3  and  N_34
    4  A    between atoms: C_3  and  C_35
    5  A    between atoms: C_10  and  C_31
    6  A    between atoms: N_11  and  C_20
    7  A    between atoms: C_20  and  C_35
    8  A    between atoms: C_21  and  C_29
    9  A    between atoms: C_21  and  C_44
   10  A    between atoms: C_27  and  C_32
   11  A    between atoms: C_27  and  N_34
   12  A    between atoms: C_28  and  N_30
   13  A    between atoms: C_32  and  N_41
                            x       y       z     vdW  Elec       q    Type
                         _______ _______ _______ _____ _____    ______ ____

>  <TORSDO>
F 13

$$$$
=
 OpenBabel11042417443D

 48 54  0  0  1  0  0  0  0  0999 V2000
  187.1000  177.0500  142.2710 S   0  0  0  0  0  0  0  0  0  0  0  0
  192.5950  175.2660  143.9780 C   0  0  0  0  0  0  0  0  0  0  0  0
  191.2220  174.2160  141.7320 C   0  0  1  0  0  3  0  0  0  0  0  0
  189.2580  177.5430  143.8620 C   0  0  0  0  0  2  0  0  0  0  0  0
  189.5780  175.8790  142.0100 C   0  0  0  0  0  0  0  0  0  0  0  0
  191.8540  176.1060  143.2350 C   0  0  0  0  0  0  0  0  0  0  0  0
  189.9040  173.7060  141.1430 C   0  0  0  0  0  2  0  0  0  0  0  0
  190.9310  175.5220  142.3020 N   0  0  0  0  0  0  0  0  0  0  0  0
  192.1120  177.5790  143.2280 C   0  0  0  0  0  1  0  0  0  0  0  0
  186.8880  177.4380  144.0090 C   0  0  0  0  0  0  0  0  0  0  0  0
  191.7860  173.3190  142.8070 C   0  0  0  0  0  0  0  0  0  0  0  0
  192.4450  173.8440  143.8040 N   0  0  0  0  0  0  0  0  0  0  0  0
  188.9830  174.9180  141.0480 C   0  0  0  0  0  2  0  0  0  0  0  0
  188.0150  177.6870  144.6650 C   0  0  0  0  0  3  0  0  0  0  0  0
  188.8370  176.8110  142.6400 C   0  0  0  0  0  0  0  0  0  0  0  0
  185.5670  180.3810  144.3230 O   0  0  0  0  0  0  0  0  0  0  0  0
  186.2220  177.0360  147.2940 C   0  0  1  0  0  3  0  0  0  0  0  0
  185.0100  176.4170  146.5640 C   0  0  0  0  0  2  0  0  0  0  0  0
  186.3910  178.5580  147.0630 C   0  0  1  0  0  3  0  0  0  0  0  0
  185.1770  179.2250  146.8280 O   0  0  0  0  0  0  0  0  0  0  0  0
  186.0960  176.7710  148.6470 F   0  0  0  0  0  0  0  0  0  0  0  0
  187.0700  179.1570  148.1250 O   0  0  0  0  0  1  0  0  0  0  0  0
  185.6080  177.5240  144.6650 N   0  0  0  0  0  0  0  0  0  0  0  0
  184.8990  179.0690  145.1560 P   0  0  2  0  0  0  0  0  0  0  0  0
  183.4090  179.0350  144.9050 O   0  0  0  0  0  1  0  0  0  0  0  0
  185.0510  176.3740  145.1420 O   0  0  0  0  0  0  0  0  0  0  0  0
  191.7370  171.8250  142.6480 C   0  0  2  0  0  3  0  0  0  0  0  0
  191.3970  171.2320  143.9320 N   0  0  0  0  0  1  0  0  0  0  0  0
  194.1350  172.2950  141.9770 C   0  0  0  0  0  2  0  0  0  0  0  0
  193.1930  171.7160  139.8340 C   0  0  0  0  0  2  0  0  0  0  0  0
  194.0770  172.7320  140.5300 C   0  0  0  0  0  2  0  0  0  0  0  0
  192.9690  170.6240  140.7680 N   0  0  0  0  0  0  0  0  0  0  0  0
  193.0660  171.2210  142.1110 C   0  0  2  0  0  3  0  0  0  0  0  0
  191.6770  170.0140  140.4700 C   0  0  0  0  0  2  0  0  0  0  0  0
  192.1560  168.7890  138.5020 F   0  0  0  0  0  0  0  0  0  0  0  0
  191.4850  169.9060  138.9670 C   0  0  1  0  0  3  0  0  0  0  0  0
  190.0700  169.7880  138.6570 N   0  0  0  0  0  2  0  0  0  0  0  0
  189.5200  171.1320  138.6450 C   0  0  0  0  0  2  0  0  0  0  0  0
  190.0330  171.8770  137.4280 C   0  0  0  0  0  2  0  0  0  0  0  0
  189.5960  173.3290  137.4760 C   0  0  0  0  0  2  0  0  0  0  0  0
  188.1930  173.4140  137.8430 N   0  0  0  0  0  2  0  0  0  0  0  0
  187.8370  174.7140  137.7270 O   0  0  0  0  0  1  0  0  0  0  0  0
  193.7940  175.8600  145.1740 S   0  0  0  0  0  0  0  0  0  0  0  0
  192.8490  175.1740  146.5670 C   0  0  0  0  0  2  0  0  0  0  0  0
  191.6620  176.0640  146.8750 C   0  0  1  0  0  0  0  0  0  0  0  0
  191.8950  176.8580  148.0110 O   0  0  0  0  0  0  0  0  0  0  0  0
  190.3710  175.2920  147.0120 C   0  0  0  0  0  2  0  0  0  0  0  0
  191.1820  175.6690  148.2300 C   0  0  1  0  0  3  0  0  0  0  0  0
  1 15  1  0  0  0  0
  1 10  1  0  0  0  0
  2 43  1  0  0  0  0
  3  7  1  1  0  0  0
  3  8  1  0  0  0  0
  3 11  1  0  0  0  0
  4 14  1  0  0  0  0
  5  8  1  0  0  0  0
  5 15  2  0  0  0  0
  6  2  2  0  0  0  0
  8  6  1  0  0  0  0
  9  6  1  0  0  0  0
 10 23  1  0  0  0  0
 10 14  2  0  0  0  0
 11 12  2  0  0  0  0
 12  2  1  0  0  0  0
 13  7  1  0  0  0  0
 13  5  1  0  0  0  0
 15  4  1  0  0  0  0
 17 21  1  1  0  0  0
 18 17  1  0  0  0  0
 19 17  1  0  0  0  0
 19 22  1  1  0  0  0
 20 19  1  0  0  0  0
 23 26  1  0  0  0  0
 23 24  1  0  0  0  0
 24 16  2  6  0  0  0
 24 20  1  0  0  0  0
 25 24  1  0  0  0  0
 26 18  1  0  0  0  0
 27 11  1  0  0  0  0
 27 28  1  1  0  0  0
 29 33  1  0  0  0  0
 30 31  1  0  0  0  0
 30 32  1  0  0  0  0
 31 29  1  0  0  0  0
 32 33  1  0  0  0  0
 33 27  1  6  0  0  0
 34 32  1  0  0  0  0
 36 35  1  1  0  0  0
 36 34  1  0  0  0  0
 37 36  1  0  0  0  0
 38 37  1  0  0  0  0
 39 40  1  0  0  0  0
 39 38  1  0  0  0  0
 40 41  1  0  0  0  0
 42 41  1  0  0  0  0
 43 44  1  0  0  0  0
 45 44  1  6  0  0  0
 45 47  1  0  0  0  0
 45 46  1  0  0  0  0
 45 48  1  0  0  0  0
 46 48  1  0  0  0  0
 48 47  1  6  0  0  0
M  END
>  <MODEL>
4

>  <REMARK>
 VINA RESULT:      -6.1      4.323      9.111
  Name = 
  13 active torsions:
  status: ('A' for Active; 'I' for Inactive)
    1  A    between atoms: S_1  and  C_7
    2  A    between atoms: S_1  and  C_31
    3  A    between atoms: C_3  and  N_34
    4  A    between atoms: C_3  and  C_35
    5  A    between atoms: C_10  and  C_31
    6  A    between atoms: N_11  and  C_20
    7  A    between atoms: C_20  and  C_35
    8  A    between atoms: C_21  and  C_29
    9  A    between atoms: C_21  and  C_44
   10  A    between atoms: C_27  and  C_32
   11  A    between atoms: C_27  and  N_34
   12  A    between atoms: C_28  and  N_30
   13  A    between atoms: C_32  and  N_41
                            x       y       z     vdW  Elec       q    Type
                         _______ _______ _______ _____ _____    ______ ____

>  <TORSDO>
F 13

$$$$
=
 OpenBabel11042417443D

 48 54  0  0  1  0  0  0  0  0999 V2000
  188.7540  174.1540  143.1720 S   0  0  0  0  0  0  0  0  0  0  0  0
  193.0950  174.0420  138.9950 C   0  0  0  0  0  0  0  0  0  0  0  0
  193.5330  173.4970  141.7420 C   0  0  1  0  0  3  0  0  0  0  0  0
  189.3510  174.1730  140.5110 C   0  0  0  0  0  2  0  0  0  0  0  0
  191.2030  173.5290  142.0790 C   0  0  0  0  0  0  0  0  0  0  0  0
  192.1490  173.3640  139.6680 C   0  0  0  0  0  0  0  0  0  0  0  0
  193.2530  173.8790  143.1970 C   0  0  0  0  0  2  0  0  0  0  0  0
  192.2340  173.3630  141.1030 N   0  0  0  0  0  0  0  0  0  0  0  0
  191.1680  172.4830  138.9640 C   0  0  0  0  0  1  0  0  0  0  0  0
  187.9760  175.3330  142.0650 C   0  0  0  0  0  0  0  0  0  0  0  0
  194.3490  174.5260  140.9980 C   0  0  0  0  0  0  0  0  0  0  0  0
  194.1390  174.7160  139.7240 N   0  0  0  0  0  0  0  0  0  0  0  0
  191.7810  173.5640  143.4450 C   0  0  0  0  0  2  0  0  0  0  0  0
  188.3300  175.2170  140.7910 C   0  0  0  0  0  3  0  0  0  0  0  0
  189.9100  173.8230  141.8430 C   0  0  0  0  0  0  0  0  0  0  0  0
  188.5530  178.4260  141.2890 O   0  0  0  0  0  0  0  0  0  0  0  0
  187.4030  176.4600  145.1960 C   0  0  1  0  0  3  0  0  0  0  0  0
  186.0100  176.4070  144.5310 C   0  0  0  0  0  2  0  0  0  0  0  0
  188.3810  177.4660  144.5380 C   0  0  1  0  0  3  0  0  0  0  0  0
  187.7370  178.5670  143.9500 O   0  0  0  0  0  0  0  0  0  0  0  0
  187.2330  176.7670  146.5340 F   0  0  0  0  0  0  0  0  0  0  0  0
  189.3430  177.9030  145.4500 O   0  0  0  0  0  1  0  0  0  0  0  0
  187.0080  176.3130  142.4840 N   0  0  0  0  0  0  0  0  0  0  0  0
  187.3180  178.0520  142.3830 P   0  0  2  0  0  0  0  0  0  0  0  0
  186.0520  178.7590  141.9540 O   0  0  0  0  0  1  0  0  0  0  0  0
  185.9330  175.8860  143.2080 O   0  0  0  0  0  0  0  0  0  0  0  0
  195.5070  175.2070  141.6740 C   0  0  2  0  0  3  0  0  0  0  0  0
  195.5860  176.5770  141.1910 N   0  0  0  0  0  1  0  0  0  0  0  0
  196.6610  173.1770  140.6890 C   0  0  0  0  0  2  0  0  0  0  0  0
  197.0150  172.7750  143.0390 C   0  0  0  0  0  2  0  0  0  0  0  0
  196.5810  172.1040  141.7510 C   0  0  0  0  0  2  0  0  0  0  0  0
  197.5550  174.0800  142.6880 N   0  0  0  0  0  0  0  0  0  0  0  0
  196.8620  174.4780  141.4500 C   0  0  2  0  0  3  0  0  0  0  0  0
  197.3510  174.9860  143.8140 C   0  0  0  0  0  2  0  0  0  0  0  0
  197.8160  174.0810  145.9500 F   0  0  0  0  0  0  0  0  0  0  0  0
  196.8120  174.2210  145.0090 C   0  0  1  0  0  3  0  0  0  0  0  0
  195.6940  174.9420  145.5940 N   0  0  0  0  0  2  0  0  0  0  0  0
  195.6740  176.2640  144.9930 C   0  0  0  0  0  2  0  0  0  0  0  0
  194.5640  177.0860  145.6190 C   0  0  0  0  0  2  0  0  0  0  0  0
  193.7070  176.2140  146.5180 C   0  0  0  0  0  2  0  0  0  0  0  0
  192.3480  176.1600  146.0110 N   0  0  0  0  0  2  0  0  0  0  0  0
  192.3320  176.8720  144.8600 O   0  0  0  0  0  1  0  0  0  0  0  0
  193.1160  174.1180  137.2020 S   0  0  0  0  0  0  0  0  0  0  0  0
  194.5110  175.2830  137.1970 C   0  0  0  0  0  2  0  0  0  0  0  0
  195.7090  174.6520  136.5160 C   0  0  1  0  0  0  0  0  0  0  0  0
  196.7970  174.5300  137.3970 O   0  0  0  0  0  0  0  0  0  0  0  0
  196.1140  175.3780  135.2540 C   0  0  0  0  0  2  0  0  0  0  0  0
  196.8010  175.6640  136.5680 C   0  0  1  0  0  3  0  0  0  0  0  0
  2  6  2  0  0  0  0
  2 12  1  0  0  0  0
  3  7  1  1  0  0  0
  4 14  1  0  0  0  0
  4 15  1  0  0  0  0
  5 13  1  0  0  0  0
  6  8  1  0  0  0  0
  7 13  1  0  0  0  0
  8  3  1  0  0  0  0
  8  5  1  0  0  0  0
  9  6  1  0  0  0  0
 10 23  1  0  0  0  0
 10  1  1  0  0  0  0
 11 27  1  0  0  0  0
 11  3  1  0  0  0  0
 12 11  2  0  0  0  0
 14 10  2  0  0  0  0
 15  5  2  0  0  0  0
 15  1  1  0  0  0  0
 17 21  1  1  0  0  0
 18 17  1  0  0  0  0
 19 17  1  0  0  0  0
 19 22  1  1  0  0  0
 20 19  1  0  0  0  0
 23 26  1  0  0  0  0
 24 16  2  6  0  0  0
 24 23  1  0  0  0  0
 24 20  1  0  0  0  0
 25 24  1  0  0  0  0
 26 18  1  0  0  0  0
 27 28  1  6  0  0  0
 29 33  1  0  0  0  0
 29 31  1  0  0  0  0
 31 30  1  0  0  0  0
 32 30  1  0  0  0  0
 32 34  1  0  0  0  0
 33 27  1  1  0  0  0
 33 32  1  0  0  0  0
 34 36  1  0  0  0  0
 36 37  1  0  0  0  0
 36 35  1  1  0  0  0
 38 37  1  0  0  0  0
 38 39  1  0  0  0  0
 39 40  1  0  0  0  0
 41 40  1  0  0  0  0
 42 41  1  0  0  0  0
 43  2  1  0  0  0  0
 44 43  1  0  0  0  0
 45 48  1  0  0  0  0
 45 44  1  1  0  0  0
 45 46  1  0  0  0  0
 47 45  1  0  0  0  0
 48 47  1  6  0  0  0
 48 46  1  0  0  0  0
M  END
>  <MODEL>
5

>  <REMARK>
 VINA RESULT:      -6.0      3.567      8.692
  Name = 
  13 active torsions:
  status: ('A' for Active; 'I' for Inactive)
    1  A    between atoms: S_1  and  C_7
    2  A    between atoms: S_1  and  C_31
    3  A    between atoms: C_3  and  N_34
    4  A    between atoms: C_3  and  C_35
    5  A    between atoms: C_10  and  C_31
    6  A    between atoms: N_11  and  C_20
    7  A    between atoms: C_20  and  C_35
    8  A    between atoms: C_21  and  C_29
    9  A    between atoms: C_21  and  C_44
   10  A    between atoms: C_27  and  C_32
   11  A    between atoms: C_27  and  N_34
   12  A    between atoms: C_28  and  N_30
   13  A    between atoms: C_32  and  N_41
                            x       y       z     vdW  Elec       q    Type
                         _______ _______ _______ _____ _____    ______ ____

>  <TORSDO>
F 13

$$$$
=
 OpenBabel11042417443D

 48 54  0  0  1  0  0  0  0  0999 V2000
  191.4310  171.4610  140.0080 S   0  0  0  0  0  0  0  0  0  0  0  0
  193.5650  174.2210  144.9190 C   0  0  0  0  0  0  0  0  0  0  0  0
  191.0520  172.9150  144.8100 C   0  0  1  0  0  3  0  0  0  0  0  0
  193.5920  172.6040  141.2150 C   0  0  0  0  0  2  0  0  0  0  0  0
  191.6250  172.0790  142.6840 C   0  0  0  0  0  0  0  0  0  0  0  0
  193.4690  173.0850  144.2070 C   0  0  0  0  0  0  0  0  0  0  0  0
  189.7660  172.6490  144.0240 C   0  0  0  0  0  2  0  0  0  0  0  0
  192.1480  172.6060  143.9050 N   0  0  0  0  0  0  0  0  0  0  0  0
  194.6690  172.2450  143.9100 C   0  0  0  0  0  1  0  0  0  0  0  0
  192.4580  172.6380  139.1260 C   0  0  0  0  0  0  0  0  0  0  0  0
  191.1830  174.3430  145.2800 C   0  0  0  0  0  0  0  0  0  0  0  0
  192.3660  174.8910  145.3510 N   0  0  0  0  0  0  0  0  0  0  0  0
  190.1700  171.8140  142.8140 C   0  0  0  0  0  2  0  0  0  0  0  0
  193.4950  173.0980  139.8160 C   0  0  0  0  0  3  0  0  0  0  0  0
  192.2610  172.0070  141.4990 C   0  0  0  0  0  0  0  0  0  0  0  0
  193.1130  170.4790  136.8000 O   0  0  0  0  0  1  0  0  0  0  0  0
  194.2650  174.8240  137.2940 C   0  0  1  0  0  3  0  0  0  0  0  0
  192.8010  175.0560  136.8600 C   0  0  0  0  0  2  0  0  0  0  0  0
  194.8090  173.4130  136.9580 C   0  0  1  0  0  3  0  0  0  0  0  0
  194.2150  172.8440  135.8190 O   0  0  0  0  0  0  0  0  0  0  0  0
  195.0530  175.7930  136.6980 F   0  0  0  0  0  0  0  0  0  0  0  0
  196.1970  173.4280  136.8190 O   0  0  0  0  0  1  0  0  0  0  0  0
  192.2310  173.0430  137.7630 N   0  0  0  0  0  0  0  0  0  0  0  0
  192.7990  172.0890  136.3850 P   0  0  2  0  0  0  0  0  0  0  0  0
  191.7540  172.1200  135.2940 O   0  0  0  0  0  0  0  0  0  0  0  0
  191.7900  174.3140  137.5350 O   0  0  0  0  0  0  0  0  0  0  0  0
  189.9860  175.0740  145.8220 C   0  0  2  0  0  3  0  0  0  0  0  0
  189.2530  174.1780  146.7020 N   0  0  0  0  0  1  0  0  0  0  0  0
  189.8250  175.8940  143.4290 C   0  0  0  0  0  2  0  0  0  0  0  0
  189.3450  177.9370  144.6170 C   0  0  0  0  0  2  0  0  0  0  0  0
  190.1650  177.3670  143.4760 C   0  0  0  0  0  2  0  0  0  0  0  0
  188.4030  176.9080  145.0300 N   0  0  0  0  0  0  0  0  0  0  0  0
  189.0490  175.6230  144.7090 C   0  0  2  0  0  3  0  0  0  0  0  0
  188.1010  177.0950  146.4460 C   0  0  0  0  0  2  0  0  0  0  0  0
  186.2520  177.5320  147.8580 F   0  0  0  0  0  0  0  0  0  0  0  0
  186.6200  176.8760  146.6970 C   0  0  1  0  0  3  0  0  0  0  0  0
  185.8480  177.3950  145.5800 N   0  0  0  0  0  2  0  0  0  0  0  0
  185.6030  178.8020  145.8440 C   0  0  0  0  0  2  0  0  0  0  0  0
  185.5920  179.5670  144.5350 C   0  0  0  0  0  2  0  0  0  0  0  0
  185.4300  178.6090  143.3680 C   0  0  0  0  0  2  0  0  0  0  0  0
  186.5140  178.7940  142.4190 N   0  0  0  0  0  2  0  0  0  0  0  0
  186.8790  177.5600  141.9990 O   0  0  0  0  0  1  0  0  0  0  0  0
  195.1510  174.9260  145.3760 S   0  0  0  0  0  0  0  0  0  0  0  0
  195.1660  176.0140  143.9200 C   0  0  0  0  0  2  0  0  0  0  0  0
  196.4410  175.8030  143.1290 C   0  0  1  0  0  0  0  0  0  0  0  0
  197.1970  176.9850  143.0460 O   0  0  0  0  0  0  0  0  0  0  0  0
  196.1900  175.2240  141.7570 C   0  0  0  0  0  2  0  0  0  0  0  0
  196.3600  176.7120  141.9520 C   0  0  1  0  0  3  0  0  0  0  0  0
  1 15  1  0  0  0  0
  2 12  1  0  0  0  0
  2 43  1  0  0  0  0
  3  7  1  6  0  0  0
  3 11  1  0  0  0  0
  4 15  1  0  0  0  0
  5 13  1  0  0  0  0
  5  8  1  0  0  0  0
  6  2  2  0  0  0  0
  8  6  1  0  0  0  0
  8  3  1  0  0  0  0
  9  6  1  0  0  0  0
 10 14  2  0  0  0  0
 10  1  1  0  0  0  0
 11 12  2  0  0  0  0
 11 27  1  0  0  0  0
 13  7  1  0  0  0  0
 14  4  1  0  0  0  0
 15  5  2  0  0  0  0
 17 21  1  6  0  0  0
 18 17  1  0  0  0  0
 18 26  1  0  0  0  0
 19 22  1  6  0  0  0
 19 17  1  0  0  0  0
 20 24  1  0  0  0  0
 20 19  1  0  0  0  0
 23 10  1  0  0  0  0
 24 25  2  6  0  0  0
 24 16  1  0  0  0  0
 24 23  1  0  0  0  0
 26 23  1  0  0  0  0
 27 28  1  1  0  0  0
 29 31  1  0  0  0  0
 29 33  1  0  0  0  0
 30 32  1  0  0  0  0
 31 30  1  0  0  0  0
 32 34  1  0  0  0  0
 33 32  1  0  0  0  0
 33 27  1  1  0  0  0
 34 36  1  0  0  0  0
 36 35  1  1  0  0  0
 37 38  1  0  0  0  0
 37 36  1  0  0  0  0
 39 38  1  0  0  0  0
 40 39  1  0  0  0  0
 41 40  1  0  0  0  0
 42 41  1  0  0  0  0
 44 43  1  0  0  0  0
 45 44  1  1  0  0  0
 46 45  1  0  0  0  0
 47 45  1  0  0  0  0
 48 47  1  6  0  0  0
 48 46  1  0  0  0  0
 48 45  1  0  0  0  0
M  END
>  <MODEL>
6

>  <REMARK>
 VINA RESULT:      -5.9      1.720      2.396
  Name = 
  13 active torsions:
  status: ('A' for Active; 'I' for Inactive)
    1  A    between atoms: S_1  and  C_7
    2  A    between atoms: S_1  and  C_31
    3  A    between atoms: C_3  and  N_34
    4  A    between atoms: C_3  and  C_35
    5  A    between atoms: C_10  and  C_31
    6  A    between atoms: N_11  and  C_20
    7  A    between atoms: C_20  and  C_35
    8  A    between atoms: C_21  and  C_29
    9  A    between atoms: C_21  and  C_44
   10  A    between atoms: C_27  and  C_32
   11  A    between atoms: C_27  and  N_34
   12  A    between atoms: C_28  and  N_30
   13  A    between atoms: C_32  and  N_41
                            x       y       z     vdW  Elec       q    Type
                         _______ _______ _______ _____ _____    ______ ____

>  <TORSDO>
F 13

$$$$
=
 OpenBabel11042417443D

 48 54  0  0  1  0  0  0  0  0999 V2000
  187.0150  176.8710  142.2340 S   0  0  0  0  0  0  0  0  0  0  0  0
  192.5770  175.3010  143.9370 C   0  0  0  0  0  0  0  0  0  0  0  0
  191.1730  174.0710  141.8030 C   0  0  1  0  0  3  0  0  0  0  0  0
  189.1990  177.5110  143.7360 C   0  0  0  0  0  2  0  0  0  0  0  0
  189.5070  175.7230  142.0000 C   0  0  0  0  0  0  0  0  0  0  0  0
  191.8050  176.0740  143.1530 C   0  0  0  0  0  0  0  0  0  0  0  0
  189.8520  173.5000  141.2830 C   0  0  0  0  0  2  0  0  0  0  0  0
  190.8720  175.4090  142.2850 N   0  0  0  0  0  0  0  0  0  0  0  0
  192.0380  177.5460  143.0350 C   0  0  0  0  0  1  0  0  0  0  0  0
  186.8350  177.3800  143.9450 C   0  0  0  0  0  0  0  0  0  0  0  0
  191.7760  173.2620  142.9260 C   0  0  0  0  0  0  0  0  0  0  0  0
  192.4470  173.8680  143.8670 N   0  0  0  0  0  0  0  0  0  0  0  0
  188.9080  174.6870  141.1230 C   0  0  0  0  0  2  0  0  0  0  0  0
  187.9720  177.6920  144.5550 C   0  0  0  0  0  3  0  0  0  0  0  0
  188.7640  176.6860  142.5790 C   0  0  0  0  0  0  0  0  0  0  0  0
  185.5710  180.3470  144.2620 O   0  0  0  0  0  0  0  0  0  0  0  0
  186.2200  177.0100  147.2440 C   0  0  1  0  0  3  0  0  0  0  0  0
  184.9850  176.4080  146.5390 C   0  0  0  0  0  2  0  0  0  0  0  0
  186.4110  178.5280  146.9990 C   0  0  1  0  0  3  0  0  0  0  0  0
  185.2050  179.2140  146.7820 O   0  0  0  0  0  0  0  0  0  0  0  0
  186.1130  176.7570  148.6000 F   0  0  0  0  0  0  0  0  0  0  0  0
  187.1190  179.1220  148.0450 O   0  0  0  0  0  1  0  0  0  0  0  0
  185.5690  177.4920  144.6230 N   0  0  0  0  0  0  0  0  0  0  0  0
  184.8950  179.0530  145.1160 P   0  0  2  0  0  0  0  0  0  0  0  0
  183.4010  179.0430  144.8910 O   0  0  0  0  0  1  0  0  0  0  0  0
  185.0000  176.3550  145.1170 O   0  0  0  0  0  0  0  0  0  0  0  0
  191.7490  171.7600  142.8760 C   0  0  2  0  0  3  0  0  0  0  0  0
  191.5680  171.2530  144.2270 N   0  0  0  0  0  1  0  0  0  0  0  0
  192.9890  171.2680  140.7210 C   0  0  0  0  0  2  0  0  0  0  0  0
  192.4640  169.0260  141.4350 C   0  0  0  0  0  2  0  0  0  0  0  0
  192.4490  169.9440  140.2290 C   0  0  0  0  0  2  0  0  0  0  0  0
  193.2050  169.7050  142.4870 N   0  0  0  0  0  0  0  0  0  0  0  0
  193.0270  171.1450  142.2360 C   0  0  2  0  0  3  0  0  0  0  0  0
  192.7020  169.2490  143.7790 C   0  0  0  0  0  2  0  0  0  0  0  0
  194.9390  168.4760  143.7590 F   0  0  0  0  0  0  0  0  0  0  0  0
  193.7840  168.4830  144.5200 C   0  0  1  0  0  3  0  0  0  0  0  0
  194.0490  169.1160  145.8010 N   0  0  0  0  0  2  0  0  0  0  0  0
  195.1200  170.0760  145.5910 C   0  0  0  0  0  2  0  0  0  0  0  0
  194.5770  171.4820  145.7620 C   0  0  0  0  0  2  0  0  0  0  0  0
  195.5740  172.4980  145.2360 C   0  0  0  0  0  2  0  0  0  0  0  0
  196.8740  172.2810  145.8450 N   0  0  0  0  0  2  0  0  0  0  0  0
  197.1880  173.4160  146.5120 O   0  0  0  0  0  1  0  0  0  0  0  0
  193.7910  175.9980  145.0590 S   0  0  0  0  0  0  0  0  0  0  0  0
  192.9360  175.3240  146.5150 C   0  0  0  0  0  2  0  0  0  0  0  0
  191.6540  176.0910  146.7630 C   0  0  1  0  0  0  0  0  0  0  0  0
  191.6990  176.7890  147.9820 O   0  0  0  0  0  0  0  0  0  0  0  0
  190.4240  175.2170  146.6860 C   0  0  0  0  0  2  0  0  0  0  0  0
  191.0670  175.5350  148.0150 C   0  0  1  0  0  3  0  0  0  0  0  0
  1 15  1  0  0  0  0
  1 10  1  0  0  0  0
  2 43  1  0  0  0  0
  3  7  1  1  0  0  0
  3  8  1  0  0  0  0
  3 11  1  0  0  0  0
  4 14  1  0  0  0  0
  5  8  1  0  0  0  0
  5 15  2  0  0  0  0
  6  2  2  0  0  0  0
  8  6  1  0  0  0  0
  9  6  1  0  0  0  0
 10 14  2  0  0  0  0
 10 23  1  0  0  0  0
 11 12  2  0  0  0  0
 12  2  1  0  0  0  0
 13  7  1  0  0  0  0
 13  5  1  0  0  0  0
 15  4  1  0  0  0  0
 17 21  1  1  0  0  0
 18 17  1  0  0  0  0
 19 17  1  0  0  0  0
 19 22  1  1  0  0  0
 20 19  1  0  0  0  0
 23 24  1  0  0  0  0
 23 26  1  0  0  0  0
 24 16  2  6  0  0  0
 24 20  1  0  0  0  0
 25 24  1  0  0  0  0
 26 18  1  0  0  0  0
 27 11  1  0  0  0  0
 27 28  1  1  0  0  0
 29 33  1  0  0  0  0
 30 32  1  0  0  0  0
 31 29  1  0  0  0  0
 31 30  1  0  0  0  0
 32 34  1  0  0  0  0
 33 32  1  0  0  0  0
 33 27  1  1  0  0  0
 34 36  1  0  0  0  0
 36 35  1  6  0  0  0
 36 37  1  0  0  0  0
 38 39  1  0  0  0  0
 38 37  1  0  0  0  0
 40 39  1  0  0  0  0
 40 41  1  0  0  0  0
 41 42  1  0  0  0  0
 43 44  1  0  0  0  0
 45 44  1  6  0  0  0
 45 46  1  0  0  0  0
 45 48  1  0  0  0  0
 46 48  1  0  0  0  0
 47 45  1  0  0  0  0
 48 47  1  6  0  0  0
M  END
>  <MODEL>
7

>  <REMARK>
 VINA RESULT:      -5.9      4.850      9.853
  Name = 
  13 active torsions:
  status: ('A' for Active; 'I' for Inactive)
    1  A    between atoms: S_1  and  C_7
    2  A    between atoms: S_1  and  C_31
    3  A    between atoms: C_3  and  N_34
    4  A    between atoms: C_3  and  C_35
    5  A    between atoms: C_10  and  C_31
    6  A    between atoms: N_11  and  C_20
    7  A    between atoms: C_20  and  C_35
    8  A    between atoms: C_21  and  C_29
    9  A    between atoms: C_21  and  C_44
   10  A    between atoms: C_27  and  C_32
   11  A    between atoms: C_27  and  N_34
   12  A    between atoms: C_28  and  N_30
   13  A    between atoms: C_32  and  N_41
                            x       y       z     vdW  Elec       q    Type
                         _______ _______ _______ _____ _____    ______ ____

>  <TORSDO>
F 13

$$$$
=
 OpenBabel11042417443D

 48 54  0  0  1  0  0  0  0  0999 V2000
  191.5440  170.9100  140.2540 S   0  0  0  0  0  0  0  0  0  0  0  0
  193.7290  173.6810  145.1370 C   0  0  0  0  0  0  0  0  0  0  0  0
  191.0370  172.8330  144.8760 C   0  0  1  0  0  3  0  0  0  0  0  0
  193.7690  171.7580  141.5820 C   0  0  0  0  0  2  0  0  0  0  0  0
  191.6220  171.7220  142.8840 C   0  0  0  0  0  0  0  0  0  0  0  0
  193.4850  172.5200  144.5040 C   0  0  0  0  0  0  0  0  0  0  0  0
  189.7940  172.7290  143.9890 C   0  0  0  0  0  2  0  0  0  0  0  0
  192.1290  172.2560  144.1090 N   0  0  0  0  0  0  0  0  0  0  0  0
  194.5310  171.4580  144.3900 C   0  0  0  0  0  1  0  0  0  0  0  0
  192.8400  171.8030  139.3950 C   0  0  0  0  0  0  0  0  0  0  0  0
  191.3880  174.2520  145.2520 C   0  0  0  0  0  0  0  0  0  0  0  0
  192.6410  174.5880  145.3990 N   0  0  0  0  0  0  0  0  0  0  0  0
  190.1380  171.7300  142.8890 C   0  0  0  0  0  2  0  0  0  0  0  0
  193.8820  172.1340  140.1480 C   0  0  0  0  0  3  0  0  0  0  0  0
  192.3320  171.4330  141.7760 C   0  0  0  0  0  0  0  0  0  0  0  0
  193.4430  174.8700  138.5380 O   0  0  0  0  0  1  0  0  0  0  0  0
  190.1300  172.0130  137.3920 C   0  0  1  0  0  3  0  0  0  0  0  0
  191.2350  171.4010  136.5040 C   0  0  0  0  0  2  0  0  0  0  0  0
  190.4320  173.4540  137.8760 C   0  0  1  0  0  3  0  0  0  0  0  0
  191.2330  174.1850  136.9830 O   0  0  0  0  0  0  0  0  0  0  0  0
  188.9410  171.9890  136.6850 F   0  0  0  0  0  0  0  0  0  0  0  0
  189.2550  174.1520  138.1460 O   0  0  0  0  0  1  0  0  0  0  0  0
  192.8060  172.1180  137.9900 N   0  0  0  0  0  0  0  0  0  0  0  0
  192.8360  173.7840  137.3920 P   0  0  2  0  0  0  0  0  0  0  0  0
  193.6930  173.8510  136.1490 O   0  0  0  0  0  0  0  0  0  0  0  0
  192.4890  171.1200  137.1150 O   0  0  0  0  0  0  0  0  0  0  0  0
  190.3050  175.2290  145.6170 C   0  0  2  0  0  3  0  0  0  0  0  0
  189.3160  174.5420  146.4340 N   0  0  0  0  0  1  0  0  0  0  0  0
  190.5970  175.9830  143.2150 C   0  0  0  0  0  2  0  0  0  0  0  0
  190.2950  178.1140  144.3020 C   0  0  0  0  0  2  0  0  0  0  0  0
  191.1580  177.3850  143.2910 C   0  0  0  0  0  2  0  0  0  0  0  0
  189.1540  177.2600  144.5940 N   0  0  0  0  0  0  0  0  0  0  0  0
  189.6240  175.8800  144.3800 C   0  0  2  0  0  3  0  0  0  0  0  0
  188.6990  177.5390  145.9530 C   0  0  0  0  0  2  0  0  0  0  0  0
  186.7330  178.3030  147.0260 F   0  0  0  0  0  0  0  0  0  0  0  0
  187.1850  177.4660  146.0220 C   0  0  1  0  0  3  0  0  0  0  0  0
  186.6120  177.8790  144.7510 N   0  0  0  0  0  2  0  0  0  0  0  0
  185.7500  179.0170  145.0190 C   0  0  0  0  0  2  0  0  0  0  0  0
  184.6530  179.0750  143.9730 C   0  0  0  0  0  2  0  0  0  0  0  0
  184.8550  177.9840  142.9380 C   0  0  0  0  0  2  0  0  0  0  0  0
  185.1980  178.5730  141.6550 N   0  0  0  0  0  2  0  0  0  0  0  0
  185.5690  177.5560  140.8440 O   0  0  0  0  0  1  0  0  0  0  0  0
  195.3730  174.1320  145.6960 S   0  0  0  0  0  0  0  0  0  0  0  0
  195.4260  175.5780  144.5950 C   0  0  0  0  0  2  0  0  0  0  0  0
  195.8850  175.1590  143.2130 C   0  0  1  0  0  0  0  0  0  0  0  0
  197.1610  175.6680  142.9170 O   0  0  0  0  0  0  0  0  0  0  0  0
  194.8940  175.5220  142.1320 C   0  0  0  0  0  2  0  0  0  0  0  0
  196.0740  176.4150  142.4350 C   0  0  1  0  0  3  0  0  0  0  0  0
  1 15  1  0  0  0  0
  2 12  1  0  0  0  0
  2 43  1  0  0  0  0
  3  7  1  6  0  0  0
  3 11  1  0  0  0  0
  4 15  1  0  0  0  0
  5 13  1  0  0  0  0
  5  8  1  0  0  0  0
  6  2  2  0  0  0  0
  8  6  1  0  0  0  0
  8  3  1  0  0  0  0
  9  6  1  0  0  0  0
 10 14  2  0  0  0  0
 10  1  1  0  0  0  0
 11 12  2  0  0  0  0
 11 27  1  0  0  0  0
 13  7  1  0  0  0  0
 14  4  1  0  0  0  0
 15  5  2  0  0  0  0
 17 21  1  6  0  0  0
 17 19  1  0  0  0  0
 18 26  1  0  0  0  0
 18 17  1  0  0  0  0
 19 22  1  6  0  0  0
 20 24  1  0  0  0  0
 20 19  1  0  0  0  0
 23 10  1  0  0  0  0
 24 25  2  6  0  0  0
 24 23  1  0  0  0  0
 24 16  1  0  0  0  0
 26 23  1  0  0  0  0
 27 28  1  6  0  0  0
 29 31  1  0  0  0  0
 29 33  1  0  0  0  0
 30 32  1  0  0  0  0
 31 30  1  0  0  0  0
 32 34  1  0  0  0  0
 33 32  1  0  0  0  0
 33 27  1  1  0  0  0
 34 36  1  0  0  0  0
 36 35  1  1  0  0  0
 37 38  1  0  0  0  0
 37 36  1  0  0  0  0
 39 38  1  0  0  0  0
 40 39  1  0  0  0  0
 41 40  1  0  0  0  0
 42 41  1  0  0  0  0
 44 43  1  0  0  0  0
 45 44  1  1  0  0  0
 46 45  1  0  0  0  0
 47 45  1  0  0  0  0
 48 47  1  6  0  0  0
 48 46  1  0  0  0  0
 48 45  1  0  0  0  0
M  END
>  <MODEL>
8

>  <REMARK>
 VINA RESULT:      -5.9      2.014      2.913
  Name = 
  13 active torsions:
  status: ('A' for Active; 'I' for Inactive)
    1  A    between atoms: S_1  and  C_7
    2  A    between atoms: S_1  and  C_31
    3  A    between atoms: C_3  and  N_34
    4  A    between atoms: C_3  and  C_35
    5  A    between atoms: C_10  and  C_31
    6  A    between atoms: N_11  and  C_20
    7  A    between atoms: C_20  and  C_35
    8  A    between atoms: C_21  and  C_29
    9  A    between atoms: C_21  and  C_44
   10  A    between atoms: C_27  and  C_32
   11  A    between atoms: C_27  and  N_34
   12  A    between atoms: C_28  and  N_30
   13  A    between atoms: C_32  and  N_41
                            x       y       z     vdW  Elec       q    Type
                         _______ _______ _______ _____ _____    ______ ____

>  <TORSDO>
F 13

$$$$
=
 OpenBabel11042417443D

 48 54  0  0  1  0  0  0  0  0999 V2000
  189.3200  174.2520  144.0760 S   0  0  0  0  0  0  0  0  0  0  0  0
  192.9740  170.5730  141.0080 C   0  0  0  0  0  0  0  0  0  0  0  0
  193.5040  171.4920  143.6360 C   0  0  1  0  0  3  0  0  0  0  0  0
  189.6200  172.6480  141.8920 C   0  0  0  0  0  2  0  0  0  0  0  0
  191.3400  172.4180  143.7060 C   0  0  0  0  0  0  0  0  0  0  0  0
  191.9410  170.6970  141.8600 C   0  0  0  0  0  0  0  0  0  0  0  0
  193.5020  172.6630  144.6220 C   0  0  0  0  0  2  0  0  0  0  0  0
  192.1670  171.4430  143.0670 N   0  0  0  0  0  0  0  0  0  0  0  0
  190.6730  169.9290  141.6670 C   0  0  0  0  0  1  0  0  0  0  0  0
  188.8270  174.8190  142.4470 C   0  0  0  0  0  0  0  0  0  0  0  0
  194.5130  171.6460  142.5240 C   0  0  0  0  0  0  0  0  0  0  0  0
  194.2410  171.1720  141.3390 N   0  0  0  0  0  0  0  0  0  0  0  0
  192.0380  173.0040  144.8770 C   0  0  0  0  0  2  0  0  0  0  0  0
  188.9970  173.9320  141.4730 C   0  0  0  0  0  3  0  0  0  0  0  0
  190.1790  172.9200  143.2410 C   0  0  0  0  0  0  0  0  0  0  0  0
  190.6710  177.4220  143.0190 O   0  0  0  0  0  1  0  0  0  0  0  0
  186.4310  176.4060  144.2180 C   0  0  1  0  0  3  0  0  0  0  0  0
  186.1390  176.7640  142.7450 C   0  0  0  0  0  2  0  0  0  0  0  0
  187.7900  176.9370  144.7410 C   0  0  1  0  0  3  0  0  0  0  0  0
  188.2050  178.1220  144.1120 O   0  0  0  0  0  0  0  0  0  0  0  0
  185.3970  176.8960  144.9970 F   0  0  0  0  0  0  0  0  0  0  0  0
  187.7630  177.1130  146.1260 O   0  0  0  0  0  1  0  0  0  0  0  0
  188.2490  176.1120  142.1840 N   0  0  0  0  0  0  0  0  0  0  0  0
  189.0210  177.6170  142.7060 P   0  0  2  0  0  0  0  0  0  0  0  0
  188.8450  178.6640  141.6310 O   0  0  0  0  0  0  0  0  0  0  0  0
  186.9580  176.1620  141.7470 O   0  0  0  0  0  0  0  0  0  0  0  0
  195.8850  172.1870  142.8170 C   0  0  2  0  0  3  0  0  0  0  0  0
  196.3990  172.8230  141.6140 N   0  0  0  0  0  1  0  0  0  0  0  0
  196.1420  169.8240  143.6960 C   0  0  0  0  0  2  0  0  0  0  0  0
  196.7810  171.0820  145.6510 C   0  0  0  0  0  2  0  0  0  0  0  0
  195.9290  169.9160  145.1900 C   0  0  0  0  0  2  0  0  0  0  0  0
  197.6270  171.4690  144.5320 N   0  0  0  0  0  0  0  0  0  0  0  0
  196.8780  171.1000  143.3190 C   0  0  2  0  0  3  0  0  0  0  0  0
  197.9290  172.8930  144.6480 C   0  0  0  0  0  2  0  0  0  0  0  0
  197.5500  173.7910  146.8040 F   0  0  0  0  0  0  0  0  0  0  0  0
  196.9390  173.5610  145.5850 C   0  0  1  0  0  3  0  0  0  0  0  0
  196.4970  174.8250  145.0170 N   0  0  0  0  0  2  0  0  0  0  0  0
  195.3420  175.2600  145.7830 C   0  0  0  0  0  2  0  0  0  0  0  0
  194.6930  176.4410  145.0890 C   0  0  0  0  0  2  0  0  0  0  0  0
  193.2180  176.5120  145.4400 C   0  0  0  0  0  2  0  0  0  0  0  0
  193.0420  176.3820  146.8750 N   0  0  0  0  0  2  0  0  0  0  0  0
  191.8270  175.8190  147.0700 O   0  0  0  0  0  1  0  0  0  0  0  0
  192.8340  169.6590  139.4700 S   0  0  0  0  0  0  0  0  0  0  0  0
  192.7700  171.1860  138.4860 C   0  0  0  0  0  2  0  0  0  0  0  0
  191.3490  171.7060  138.4300 C   0  0  1  0  0  0  0  0  0  0  0  0
  190.6800  171.2550  137.2790 O   0  0  0  0  0  0  0  0  0  0  0  0
  191.2700  173.2100  138.5450 C   0  0  0  0  0  2  0  0  0  0  0  0
  191.2540  172.5340  137.1950 C   0  0  1  0  0  3  0  0  0  0  0  0
  2 12  1  0  0  0  0
  2  6  2  0  0  0  0
  3  7  1  1  0  0  0
  4 15  1  0  0  0  0
  5 13  1  0  0  0  0
  6  8  1  0  0  0  0
  7 13  1  0  0  0  0
  8  3  1  0  0  0  0
  8  5  1  0  0  0  0
  9  6  1  0  0  0  0
 10  1  1  0  0  0  0
 11 27  1  0  0  0  0
 11  3  1  0  0  0  0
 12 11  2  0  0  0  0
 14  4  1  0  0  0  0
 14 10  2  0  0  0  0
 15  5  2  0  0  0  0
 15  1  1  0  0  0  0
 17 19  1  0  0  0  0
 17 21  1  1  0  0  0
 18 17  1  0  0  0  0
 19 22  1  1  0  0  0
 20 19  1  0  0  0  0
 23 10  1  0  0  0  0
 23 24  1  0  0  0  0
 24 25  2  6  0  0  0
 24 16  1  0  0  0  0
 24 20  1  0  0  0  0
 26 23  1  0  0  0  0
 26 18  1  0  0  0  0
 27 28  1  6  0  0  0
 29 31  1  0  0  0  0
 31 30  1  0  0  0  0
 32 34  1  0  0  0  0
 32 30  1  0  0  0  0
 33 27  1  1  0  0  0
 33 29  1  0  0  0  0
 33 32  1  0  0  0  0
 34 36  1  0  0  0  0
 36 35  1  1  0  0  0
 37 36  1  0  0  0  0
 37 38  1  0  0  0  0
 39 40  1  0  0  0  0
 39 38  1  0  0  0  0
 40 41  1  0  0  0  0
 41 42  1  0  0  0  0
 43  2  1  0  0  0  0
 44 43  1  0  0  0  0
 45 44  1  1  0  0  0
 45 47  1  0  0  0  0
 46 45  1  0  0  0  0
 48 46  1  0  0  0  0
 48 45  1  0  0  0  0
 48 47  1  1  0  0  0
M  END
>  <MODEL>
9

>  <REMARK>
 VINA RESULT:      -5.8      3.725      8.814
  Name = 
  13 active torsions:
  status: ('A' for Active; 'I' for Inactive)
    1  A    between atoms: S_1  and  C_7
    2  A    between atoms: S_1  and  C_31
    3  A    between atoms: C_3  and  N_34
    4  A    between atoms: C_3  and  C_35
    5  A    between atoms: C_10  and  C_31
    6  A    between atoms: N_11  and  C_20
    7  A    between atoms: C_20  and  C_35
    8  A    between atoms: C_21  and  C_29
    9  A    between atoms: C_21  and  C_44
   10  A    between atoms: C_27  and  C_32
   11  A    between atoms: C_27  and  N_34
   12  A    between atoms: C_28  and  N_30
   13  A    between atoms: C_32  and  N_41
                            x       y       z     vdW  Elec       q    Type
                         _______ _______ _______ _____ _____    ______ ____

>  <TORSDO>
F 13

$$$$
