=
 OpenBabel11042418393D

 67 75  0  0  1  0  0  0  0  0999 V2000
  192.0860  174.7970  143.6280 C   0  0  1  0  0  3  0  0  0  0  0  0
  185.9320  178.2180  143.2980 N   0  0  0  0  0  0  0  0  0  0  0  0
  186.8450  177.3470  141.2690 C   0  0  0  0  0  3  0  0  0  0  0  0
  188.7750  175.9070  144.9990 C   0  0  1  0  0  3  0  0  0  0  0  0
  188.7340  176.1800  143.7140 C   0  0  1  0  0  3  0  0  0  0  0  0
  185.6520  177.7070  140.6220 C   0  0  0  0  0  3  0  0  0  0  0  0
  190.0880  175.2710  145.3150 C   0  0  1  0  0  3  0  0  0  0  0  0
  187.9550  177.3780  143.5150 C   0  0  1  0  0  3  0  0  0  0  0  0
  187.9550  176.8690  145.8260 C   0  0  0  0  0  2  0  0  0  0  0  0
  190.6820  175.2490  143.9260 C   0  0  0  0  0  0  0  0  0  0  0  0
  186.1860  178.2300  144.6000 N   0  0  0  0  0  2  0  0  0  0  0  0
  184.6060  178.3250  141.3340 C   0  0  0  0  0  0  0  0  0  0  0  0
  189.9260  175.8210  143.0410 N   0  0  0  0  0  0  0  0  0  0  0  0
  186.9510  177.6580  142.6210 C   0  0  2  0  0  3  0  0  0  0  0  0
  184.7580  178.5590  142.7140 C   0  0  0  0  0  3  0  0  0  0  0  0
  187.4420  177.7460  144.7290 C   0  0  2  0  0  3  0  0  0  0  0  0
  190.8440  176.1130  146.1360 O   0  0  0  0  0  0  0  0  0  0  0  0
  190.9430  175.4320  147.3520 C   0  0  0  0  0  1  0  0  0  0  0  0
  183.4060  178.6910  140.6470 N   0  0  0  0  0  2  0  0  0  0  0  0
  182.5130  177.0960  139.2070 O   0  0  0  0  0  1  0  0  0  0  0  0
  182.3090  177.7600  140.4190 C   0  0  2  0  0  3  0  0  0  0  0  0
  178.9380  177.4720  140.1160 C   0  0  0  0  0  2  0  0  0  0  0  0
  180.1130  177.9020  139.4420 O   0  0  0  0  0  0  0  0  0  0  0  0
  179.0890  177.7290  141.5320 N   0  0  0  0  0  0  0  0  0  0  0  0
  180.9780  178.5060  140.3910 C   0  0  1  0  0  3  0  0  0  0  0  0
  180.3040  178.4030  141.6980 C   0  0  0  0  0  0  0  0  0  0  0  0
  180.6060  179.4130  142.9510 S   0  0  0  0  0  0  0  0  0  0  0  0
  178.0510  176.4890  143.3590 C   0  0  0  0  0  1  0  0  0  0  0  0
  177.9850  177.7250  142.4820 C   0  0  0  0  0  2  0  0  0  0  0  0
  192.0560  172.3180  143.1690 N   0  0  0  0  0  2  0  0  0  0  0  0
  192.3060  173.3860  144.0800 C   0  0  0  0  0  0  0  0  0  0  0  0
  192.7240  173.1470  145.2460 O   0  0  0  0  0  0  0  0  0  0  0  0
  192.9770  168.8940  142.3100 C   0  0  0  0  0  2  0  0  0  0  0  0
  191.9080  169.9640  142.3940 C   0  0  2  0  0  0  0  0  0  0  0  0
  193.3470  170.2970  142.7450 C   0  0  1  0  0  3  0  0  0  0  0  0
  192.2190  170.9190  143.5460 C   0  0  1  0  0  3  0  0  0  0  0  0
  191.6240  170.6080  141.0390 C   0  0  0  0  0  2  0  0  0  0  0  0
  190.6850  169.8540  140.3330 O   0  0  0  0  0  0  0  0  0  0  0  0
  190.4850  170.5540  139.1430 C   0  0  0  0  0  2  0  0  0  0  0  0
  190.4680  172.0610  139.4060 C   0  0  1  0  0  3  0  0  0  0  0  0
  191.1070  172.8910  138.2570 C   0  0  0  0  0  0  0  0  0  0  0  0
  191.6300  171.9680  137.1680 C   0  0  0  0  0  1  0  0  0  0  0  0
  192.2940  173.7270  138.7500 C   0  0  0  0  0  2  0  0  0  0  0  0
  193.2950  173.8200  137.7790 O   0  0  0  0  0  1  0  0  0  0  0  0
  190.2940  173.9460  136.2300 O   0  0  0  0  0  1  0  0  0  0  0  0
  190.0760  173.8200  137.6060 C   0  0  0  0  0  2  0  0  0  0  0  0
  189.0350  172.5040  139.7060 C   0  0  0  0  0  2  0  0  0  0  0  0
  187.7080  172.8030  141.6740 O   0  0  0  0  0  1  0  0  0  0  0  0
  188.9310  173.1320  141.0850 C   0  0  0  0  0  2  0  0  0  0  0  0
  192.4380  174.9500  142.1490 C   0  0  0  0  0  2  0  0  0  0  0  0
  193.6870  175.7990  141.9610 C   0  0  1  0  0  3  0  0  0  0  0  0
  194.1470  176.2880  143.1870 O   0  0  0  0  0  1  0  0  0  0  0  0
  194.7810  174.9970  141.2640 C   0  0  0  0  0  2  0  0  0  0  0  0
  196.4170  175.7920  141.4090 S   0  0  0  0  0  0  0  0  0  0  0  0
  197.2820  174.2130  141.2090 C   0  0  0  0  0  2  0  0  0  0  0  0
  197.9230  173.8150  142.5290 C   0  0  0  0  0  2  0  0  0  0  0  0
  197.3320  169.9660  145.3860 C   0  0  2  0  0  3  0  0  0  0  0  0
  196.1120  169.7630  146.0420 O   0  0  0  0  0  1  0  0  0  0  0  0
  196.5610  173.9360  144.9420 S   0  0  0  0  0  0  0  0  0  0  0  0
  196.9650  173.0220  143.4180 C   0  0  2  0  0  3  0  0  0  0  0  0
  196.7070  172.4160  145.9400 C   0  0  0  0  0  2  0  0  0  0  0  0
  196.1580  168.6130  143.7320 O   0  0  0  0  0  1  0  0  0  0  0  0
  197.6520  171.4700  145.2160 C   0  0  2  0  0  3  0  0  0  0  0  0
  197.1870  170.5090  141.8440 O   0  0  0  0  0  0  0  0  0  0  0  0
  197.5470  171.7510  143.8050 N   0  0  0  0  0  0  0  0  0  0  0  0
  197.3430  170.5470  143.0940 C   0  0  0  0  0  0  0  0  0  0  0  0
  197.3180  169.3570  143.9660 C   0  0  1  0  0  3  0  0  0  0  0  0
  1 50  1  6  0  0  0
  1 10  1  0  0  0  0
  1 31  1  0  0  0  0
  2 11  1  0  0  0  0
  3 14  1  0  0  0  0
  4  7  1  0  0  0  0
  4  9  1  1  0  0  0
  5 13  1  1  0  0  0
  5  4  1  0  0  0  0
  6  3  2  0  0  0  0
  6 12  1  0  0  0  0
  7 17  1  1  0  0  0
  8  5  1  0  0  0  0
  8 16  1  0  0  0  0
 10  7  1  0  0  0  0
 11 16  1  0  0  0  0
 12 15  2  0  0  0  0
 13 10  2  0  0  0  0
 14  2  1  0  0  0  0
 14  8  1  0  0  0  0
 15  2  1  0  0  0  0
 16  9  1  0  0  0  0
 17 18  1  0  0  0  0
 19 12  1  0  0  0  0
 20 21  1  0  0  0  0
 21 19  1  0  0  0  0
 22 24  1  0  0  0  0
 23 22  1  0  0  0  0
 23 25  1  0  0  0  0
 24 26  1  0  0  0  0
 24 29  1  0  0  0  0
 25 21  1  0  0  0  0
 25 26  1  0  0  0  0
 26 27  2  0  0  0  0
 29 28  1  0  0  0  0
 30 36  1  0  0  0  0
 30 31  1  0  0  0  0
 31 32  2  0  0  0  0
 33 34  1  0  0  0  0
 33 35  1  0  0  0  0
 34 35  1  0  0  0  0
 34 36  1  0  0  0  0
 35 36  1  0  0  0  0
 37 34  1  0  0  0  0
 38 37  1  0  0  0  0
 39 40  1  0  0  0  0
 39 38  1  0  0  0  0
 40 47  1  0  0  0  0
 41 43  1  0  0  0  0
 41 40  1  0  0  0  0
 42 41  1  0  0  0  0
 44 43  1  0  0  0  0
 45 46  1  0  0  0  0
 46 41  1  0  0  0  0
 47 49  1  0  0  0  0
 49 48  1  0  0  0  0
 51 50  1  0  0  0  0
 51 52  1  0  0  0  0
 53 54  1  0  0  0  0
 53 51  1  0  0  0  0
 55 54  1  0  0  0  0
 55 56  1  0  0  0  0
 56 60  1  0  0  0  0
 57 58  1  0  0  0  0
 59 61  1  0  0  0  0
 60 65  1  0  0  0  0
 60 59  1  0  0  0  0
 62 67  1  0  0  0  0
 63 57  1  0  0  0  0
 63 61  1  0  0  0  0
 64 66  2  0  0  0  0
 65 63  1  0  0  0  0
 66 65  1  0  0  0  0
 66 67  1  0  0  0  0
 67 57  1  0  0  0  0
M  END
>  <MODEL>
1

>  <REMARK>
 VINA RESULT:      -6.0      0.000      0.000
  Name = 
  24 active torsions:
  status: ('A' for Active; 'I' for Inactive)
    1  A    between atoms: C_3  and  C_15
    2  A    between atoms: C_3  and  C_17
    3  A    between atoms: C_3  and  C_27
    4  A    between atoms: O_7  and  C_20
    5  A    between atoms: O_7  and  C_45
    6  A    between atoms: C_8  and  C_31
    7  A    between atoms: N_11  and  C_61
    8  A    between atoms: C_12  and  C_37
    9  A    between atoms: C_12  and  C_49
   10  A    between atoms: O_18  and  C_29
   11  A    between atoms: C_19  and  C_60
   12  A    between atoms: C_20  and  C_27
   13  A    between atoms: C_23  and  C_45
   14  A    between atoms: C_25  and  C_59
   15  A    between atoms: C_27  and  C_59
   16  A    between atoms: C_30  and  C_31
   17  A    between atoms: C_30  and  S_51
   18  A    between atoms: N_34  and  C_42
   19  A    between atoms: N_34  and  C_54
   20  A    between atoms: C_36  and  C_60
   21  A    between atoms: C_37  and  S_51
   22  A    between atoms: N_43  and  C_55
   23  A    between atoms: C_47  and  C_54
   24  A    between atoms: C_49  and  C_60
                            x       y       z     vdW  Elec       q    Type
                         _______ _______ _______ _____ _____    ______ ____

>  <TORSDO>
F 24

$$$$
=
 OpenBabel11042418393D

 67 75  0  0  1  0  0  0  0  0999 V2000
  189.3330  175.4570  142.9360 C   0  0  1  0  0  3  0  0  0  0  0  0
  183.1330  178.8100  143.0380 N   0  0  0  0  0  0  0  0  0  0  0  0
  183.7960  177.7330  141.0120 C   0  0  0  0  0  3  0  0  0  0  0  0
  186.2050  176.6970  144.5950 C   0  0  1  0  0  3  0  0  0  0  0  0
  185.9970  176.8340  143.3040 C   0  0  1  0  0  3  0  0  0  0  0  0
  182.5250  178.0190  140.4880 C   0  0  0  0  0  3  0  0  0  0  0  0
  187.5570  176.1010  144.8060 C   0  0  1  0  0  3  0  0  0  0  0  0
  185.1800  178.0020  143.0820 C   0  0  1  0  0  3  0  0  0  0  0  0
  185.4810  177.7390  145.4140 C   0  0  0  0  0  2  0  0  0  0  0  0
  187.9710  175.9350  143.3620 C   0  0  0  0  0  0  0  0  0  0  0  0
  183.5500  178.9590  144.2890 N   0  0  0  0  0  2  0  0  0  0  0  0
  181.5680  178.7060  141.2590 C   0  0  0  0  0  0  0  0  0  0  0  0
  187.1000  176.4090  142.5250 N   0  0  0  0  0  0  0  0  0  0  0  0
  184.0670  178.1840  142.2990 C   0  0  2  0  0  3  0  0  0  0  0  0
  181.8890  179.0840  142.5760 C   0  0  0  0  0  3  0  0  0  0  0  0
  184.8190  178.4950  144.3060 C   0  0  2  0  0  3  0  0  0  0  0  0
  188.3970  177.0260  145.4310 O   0  0  0  0  0  0  0  0  0  0  0  0
  188.6940  176.4580  146.6720 C   0  0  0  0  0  1  0  0  0  0  0  0
  180.2850  178.9950  140.6960 N   0  0  0  0  0  2  0  0  0  0  0  0
  178.8370  177.3370  141.4470 O   0  0  0  0  0  1  0  0  0  0  0  0
  179.0350  178.7170  141.3900 C   0  0  2  0  0  3  0  0  0  0  0  0
  177.8690  181.5930  140.0080 C   0  0  0  0  0  2  0  0  0  0  0  0
  177.7290  180.7220  141.1230 O   0  0  0  0  0  0  0  0  0  0  0  0
  178.1860  180.8070  138.8360 N   0  0  0  0  0  0  0  0  0  0  0  0
  177.8690  179.3850  140.6680 C   0  0  1  0  0  3  0  0  0  0  0  0
  178.1380  179.4620  139.2200 C   0  0  0  0  0  0  0  0  0  0  0  0
  177.8130  178.2420  138.1770 S   0  0  0  0  0  0  0  0  0  0  0  0
  178.9790  182.5120  137.2810 C   0  0  0  0  0  1  0  0  0  0  0  0
  178.0820  181.3030  137.4710 C   0  0  0  0  0  2  0  0  0  0  0  0
  190.4300  174.1690  141.0660 N   0  0  0  0  0  2  0  0  0  0  0  0
  189.2380  174.5390  141.7560 C   0  0  0  0  0  0  0  0  0  0  0  0
  188.1190  174.0860  141.3880 O   0  0  0  0  0  0  0  0  0  0  0  0
  191.8090  171.3720  139.1740 C   0  0  0  0  0  2  0  0  0  0  0  0
  191.8130  172.8560  139.4770 C   0  0  2  0  0  0  0  0  0  0  0  0
  190.9110  171.9220  140.2630 C   0  0  1  0  0  3  0  0  0  0  0  0
  190.4130  173.3040  139.8910 C   0  0  1  0  0  3  0  0  0  0  0  0
  192.9550  173.2540  140.4100 C   0  0  0  0  0  2  0  0  0  0  0  0
  194.1820  172.8910  139.8520 O   0  0  0  0  0  0  0  0  0  0  0  0
  194.5080  173.9390  138.9900 C   0  0  0  0  0  2  0  0  0  0  0  0
  195.9580  173.8130  138.5190 C   0  0  1  0  0  3  0  0  0  0  0  0
  196.1130  172.9520  137.2340 C   0  0  0  0  0  0  0  0  0  0  0  0
  197.2280  173.5050  136.3610 C   0  0  0  0  0  1  0  0  0  0  0  0
  194.8340  172.9540  136.3890 C   0  0  0  0  0  2  0  0  0  0  0  0
  194.8130  174.0250  135.4920 O   0  0  0  0  0  1  0  0  0  0  0  0
  195.4220  170.6290  137.3320 O   0  0  0  0  0  1  0  0  0  0  0  0
  196.4840  171.5050  137.5780 C   0  0  0  0  0  2  0  0  0  0  0  0
  196.5550  175.2100  138.3490 C   0  0  0  0  0  2  0  0  0  0  0  0
  197.1750  175.4360  140.6500 O   0  0  0  0  0  1  0  0  0  0  0  0
  197.6760  175.4540  139.3460 C   0  0  0  0  0  2  0  0  0  0  0  0
  190.2830  176.6170  142.6410 C   0  0  0  0  0  2  0  0  0  0  0  0
  191.6640  176.3670  143.2320 C   0  0  1  0  0  3  0  0  0  0  0  0
  192.6500  176.4380  142.2440 O   0  0  0  0  0  1  0  0  0  0  0  0
  191.9570  177.3630  144.3480 C   0  0  0  0  0  2  0  0  0  0  0  0
  192.2800  176.5370  145.9420 S   0  0  0  0  0  0  0  0  0  0  0  0
  193.8090  175.7860  145.3260 C   0  0  0  0  0  2  0  0  0  0  0  0
  194.0280  174.4450  146.0090 C   0  0  0  0  0  2  0  0  0  0  0  0
  195.5520  169.9020  145.4030 C   0  0  2  0  0  3  0  0  0  0  0  0
  195.6510  169.3650  144.1140 O   0  0  0  0  0  1  0  0  0  0  0  0
  192.9090  172.7270  144.1410 S   0  0  0  0  0  0  0  0  0  0  0  0
  194.3870  173.3430  145.0130 C   0  0  2  0  0  3  0  0  0  0  0  0
  193.4880  171.0040  144.2950 C   0  0  0  0  0  2  0  0  0  0  0  0
  197.8540  170.4900  144.8530 O   0  0  0  0  0  1  0  0  0  0  0  0
  194.3940  170.9220  145.5140 C   0  0  2  0  0  3  0  0  0  0  0  0
  197.1870  173.0440  145.9700 O   0  0  0  0  0  0  0  0  0  0  0  0
  195.0070  172.2160  145.6840 N   0  0  0  0  0  0  0  0  0  0  0  0
  196.4030  172.0660  145.8340 C   0  0  0  0  0  0  0  0  0  0  0  0
  196.8400  170.6570  145.8010 C   0  0  1  0  0  3  0  0  0  0  0  0
  1 50  1  6  0  0  0
  1 10  1  0  0  0  0
  2 11  1  0  0  0  0
  3 14  1  0  0  0  0
  4  7  1  0  0  0  0
  4  9  1  1  0  0  0
  5 13  1  6  0  0  0
  5  4  1  0  0  0  0
  6  3  2  0  0  0  0
  6 12  1  0  0  0  0
  7 17  1  1  0  0  0
  8  5  1  0  0  0  0
  8 16  1  0  0  0  0
 10  7  1  0  0  0  0
 11 16  1  0  0  0  0
 12 15  2  0  0  0  0
 13 10  2  0  0  0  0
 14  2  1  0  0  0  0
 14  8  1  0  0  0  0
 15  2  1  0  0  0  0
 16  9  1  0  0  0  0
 17 18  1  0  0  0  0
 19 12  1  0  0  0  0
 19 21  1  0  0  0  0
 21 20  1  0  0  0  0
 22 23  1  0  0  0  0
 24 26  1  0  0  0  0
 24 22  1  0  0  0  0
 25 23  1  0  0  0  0
 25 21  1  0  0  0  0
 26 25  1  0  0  0  0
 27 26  2  0  0  0  0
 28 29  1  0  0  0  0
 29 24  1  0  0  0  0
 30 31  1  0  0  0  0
 31  1  1  0  0  0  0
 32 31  2  0  0  0  0
 33 34  1  0  0  0  0
 33 35  1  0  0  0  0
 34 36  1  0  0  0  0
 34 35  1  0  0  0  0
 34 37  1  0  0  0  0
 36 35  1  0  0  0  0
 36 30  1  0  0  0  0
 38 37  1  0  0  0  0
 39 38  1  0  0  0  0
 40 39  1  0  0  0  0
 41 46  1  0  0  0  0
 41 40  1  0  0  0  0
 42 41  1  0  0  0  0
 43 41  1  0  0  0  0
 44 43  1  0  0  0  0
 45 46  1  0  0  0  0
 47 40  1  0  0  0  0
 47 49  1  0  0  0  0
 49 48  1  0  0  0  0
 50 51  1  0  0  0  0
 51 53  1  0  0  0  0
 52 51  1  0  0  0  0
 53 54  1  0  0  0  0
 55 54  1  0  0  0  0
 55 56  1  0  0  0  0
 57 63  1  0  0  0  0
 57 67  1  0  0  0  0
 58 57  1  0  0  0  0
 59 61  1  0  0  0  0
 59 60  1  0  0  0  0
 60 65  1  0  0  0  0
 60 56  1  0  0  0  0
 61 63  1  0  0  0  0
 62 67  1  0  0  0  0
 63 65  1  0  0  0  0
 65 66  1  0  0  0  0
 66 64  2  0  0  0  0
 67 66  1  0  0  0  0
M  END
>  <MODEL>
2

>  <REMARK>
 VINA RESULT:      -5.6      2.724      4.405
  Name = 
  24 active torsions:
  status: ('A' for Active; 'I' for Inactive)
    1  A    between atoms: C_3  and  C_15
    2  A    between atoms: C_3  and  C_17
    3  A    between atoms: C_3  and  C_27
    4  A    between atoms: O_7  and  C_20
    5  A    between atoms: O_7  and  C_45
    6  A    between atoms: C_8  and  C_31
    7  A    between atoms: N_11  and  C_61
    8  A    between atoms: C_12  and  C_37
    9  A    between atoms: C_12  and  C_49
   10  A    between atoms: O_18  and  C_29
   11  A    between atoms: C_19  and  C_60
   12  A    between atoms: C_20  and  C_27
   13  A    between atoms: C_23  and  C_45
   14  A    between atoms: C_25  and  C_59
   15  A    between atoms: C_27  and  C_59
   16  A    between atoms: C_30  and  C_31
   17  A    between atoms: C_30  and  S_51
   18  A    between atoms: N_34  and  C_42
   19  A    between atoms: N_34  and  C_54
   20  A    between atoms: C_36  and  C_60
   21  A    between atoms: C_37  and  S_51
   22  A    between atoms: N_43  and  C_55
   23  A    between atoms: C_47  and  C_54
   24  A    between atoms: C_49  and  C_60
                            x       y       z     vdW  Elec       q    Type
                         _______ _______ _______ _____ _____    ______ ____

>  <TORSDO>
F 24

$$$$
=
 OpenBabel11042418393D

 67 75  0  0  1  0  0  0  0  0999 V2000
  192.0040  176.4980  145.4030 C   0  0  1  0  0  3  0  0  0  0  0  0
  191.0760  171.9370  140.1090 N   0  0  0  0  0  0  0  0  0  0  0  0
  192.8000  173.5770  139.8920 C   0  0  0  0  0  3  0  0  0  0  0  0
  191.0630  173.1670  143.9580 C   0  0  1  0  0  3  0  0  0  0  0  0
  191.6850  173.8070  142.9920 C   0  0  1  0  0  3  0  0  0  0  0  0
  193.2140  172.9310  138.7160 C   0  0  0  0  0  3  0  0  0  0  0  0
  191.0360  174.0340  145.1720 C   0  0  1  0  0  3  0  0  0  0  0  0
  191.1020  173.4290  141.7270 C   0  0  1  0  0  3  0  0  0  0  0  0
  190.0130  172.2120  143.4400 C   0  0  0  0  0  2  0  0  0  0  0  0
  191.7980  175.2220  144.6330 C   0  0  0  0  0  0  0  0  0  0  0  0
  190.1840  171.5170  140.9960 N   0  0  0  0  0  2  0  0  0  0  0  0
  192.5420  171.7840  138.2510 C   0  0  0  0  0  0  0  0  0  0  0  0
  192.1080  175.1000  143.3790 N   0  0  0  0  0  0  0  0  0  0  0  0
  191.6890  173.0530  140.5450 C   0  0  2  0  0  3  0  0  0  0  0  0
  191.4600  171.2730  138.9920 C   0  0  0  0  0  3  0  0  0  0  0  0
  190.1760  172.4520  141.9730 C   0  0  2  0  0  3  0  0  0  0  0  0
  189.7220  174.4120  145.4620 O   0  0  0  0  0  0  0  0  0  0  0  0
  189.3170  173.5450  146.4800 C   0  0  0  0  0  1  0  0  0  0  0  0
  192.9790  171.1530  137.0430 N   0  0  0  0  0  2  0  0  0  0  0  0
  194.5780  169.9940  138.2730 O   0  0  0  0  0  1  0  0  0  0  0  0
  194.1610  170.3030  136.9770 C   0  0  2  0  0  3  0  0  0  0  0  0
  195.4210  173.3000  135.9940 C   0  0  0  0  0  2  0  0  0  0  0  0
  194.7530  172.1350  135.5310 O   0  0  0  0  0  0  0  0  0  0  0  0
  196.3310  172.9290  137.0550 N   0  0  0  0  0  0  0  0  0  0  0  0
  195.2800  171.0120  136.2200 C   0  0  1  0  0  3  0  0  0  0  0  0
  196.2870  171.5340  137.1620 C   0  0  0  0  0  0  0  0  0  0  0  0
  197.5290  170.6380  137.7420 S   0  0  0  0  0  0  0  0  0  0  0  0
  197.0530  174.3460  138.9060 C   0  0  0  0  0  1  0  0  0  0  0  0
  197.4060  173.7820  137.5420 C   0  0  0  0  0  2  0  0  0  0  0  0
  189.7170  177.3500  146.0380 N   0  0  0  0  0  2  0  0  0  0  0  0
  190.9240  176.6940  146.4220 C   0  0  0  0  0  0  0  0  0  0  0  0
  191.0720  176.2670  147.6000 O   0  0  0  0  0  0  0  0  0  0  0  0
  186.3130  176.7260  147.1900 C   0  0  0  0  0  2  0  0  0  0  0  0
  187.2570  177.5310  146.3210 C   0  0  2  0  0  0  0  0  0  0  0  0
  187.7810  176.3580  147.1300 C   0  0  1  0  0  3  0  0  0  0  0  0
  188.6340  177.6030  146.9810 C   0  0  1  0  0  3  0  0  0  0  0  0
  187.2290  177.0810  144.8620 C   0  0  0  0  0  2  0  0  0  0  0  0
  186.0250  176.4320  144.5810 O   0  0  0  0  0  0  0  0  0  0  0  0
  185.9230  176.4560  143.1890 C   0  0  0  0  0  2  0  0  0  0  0  0
  186.5100  177.7530  142.6310 C   0  0  1  0  0  3  0  0  0  0  0  0
  187.4830  177.5240  141.4400 C   0  0  0  0  0  0  0  0  0  0  0  0
  188.6930  178.4350  141.5660 C   0  0  0  0  0  1  0  0  0  0  0  0
  186.8190  177.8360  140.0940 C   0  0  0  0  0  2  0  0  0  0  0  0
  186.7030  176.6920  139.3010 O   0  0  0  0  0  1  0  0  0  0  0  0
  189.1340  175.9320  142.2280 O   0  0  0  0  0  1  0  0  0  0  0  0
  188.0030  176.0820  141.4190 C   0  0  0  0  0  2  0  0  0  0  0  0
  185.3710  178.7060  142.2670 C   0  0  0  0  0  2  0  0  0  0  0  0
  183.1100  178.1490  141.7170 O   0  0  0  0  0  1  0  0  0  0  0  0
  184.0340  178.1810  142.7630 C   0  0  0  0  0  2  0  0  0  0  0  0
  193.3820  176.5580  146.0600 C   0  0  0  0  0  2  0  0  0  0  0  0
  194.4450  177.0290  145.0780 C   0  0  1  0  0  3  0  0  0  0  0  0
  195.1230  178.1460  145.5750 O   0  0  0  0  0  1  0  0  0  0  0  0
  195.4280  175.9050  144.7700 C   0  0  0  0  0  2  0  0  0  0  0  0
  196.2960  176.1620  143.1870 S   0  0  0  0  0  0  0  0  0  0  0  0
  196.9940  174.4910  143.2150 C   0  0  0  0  0  2  0  0  0  0  0  0
  196.2090  173.6290  144.1920 C   0  0  0  0  0  2  0  0  0  0  0  0
  193.2780  170.0840  142.7190 C   0  0  2  0  0  3  0  0  0  0  0  0
  193.8150  168.8510  142.3280 O   0  0  0  0  0  1  0  0  0  0  0  0
  196.8280  171.9620  142.0640 S   0  0  0  0  0  0  0  0  0  0  0  0
  196.0990  172.1800  143.7210 C   0  0  2  0  0  3  0  0  0  0  0  0
  195.4460  170.8860  141.5530 C   0  0  0  0  0  2  0  0  0  0  0  0
  193.2500  168.8920  144.8460 O   0  0  0  0  0  1  0  0  0  0  0  0
  194.2310  171.2580  142.3890 C   0  0  2  0  0  3  0  0  0  0  0  0
  194.2890  171.3370  145.9240 O   0  0  0  0  0  0  0  0  0  0  0  0
  194.7120  171.7590  143.6520 N   0  0  0  0  0  0  0  0  0  0  0  0
  194.0390  171.1080  144.7100 C   0  0  0  0  0  0  0  0  0  0  0  0
  193.0330  170.1340  144.2440 C   0  0  1  0  0  3  0  0  0  0  0  0
  1 50  1  1  0  0  0
  1 31  1  0  0  0  0
  2 14  1  0  0  0  0
  2 11  1  0  0  0  0
  3 14  1  0  0  0  0
  4  9  1  6  0  0  0
  4  7  1  0  0  0  0
  5 13  1  1  0  0  0
  5  4  1  0  0  0  0
  6  3  2  0  0  0  0
  7 17  1  6  0  0  0
  8 16  1  0  0  0  0
  8  5  1  0  0  0  0
 10  7  1  0  0  0  0
 10  1  1  0  0  0  0
 11 16  1  0  0  0  0
 12  6  1  0  0  0  0
 12 15  2  0  0  0  0
 13 10  2  0  0  0  0
 14  8  1  0  0  0  0
 15  2  1  0  0  0  0
 16  9  1  0  0  0  0
 17 18  1  0  0  0  0
 19 12  1  0  0  0  0
 21 19  1  0  0  0  0
 21 20  1  0  0  0  0
 22 24  1  0  0  0  0
 23 22  1  0  0  0  0
 23 25  1  0  0  0  0
 24 26  1  0  0  0  0
 24 29  1  0  0  0  0
 25 21  1  0  0  0  0
 25 26  1  0  0  0  0
 26 27  2  0  0  0  0
 29 28  1  0  0  0  0
 30 31  1  0  0  0  0
 30 36  1  0  0  0  0
 31 32  2  0  0  0  0
 34 36  1  0  0  0  0
 34 35  1  0  0  0  0
 34 33  1  0  0  0  0
 35 33  1  0  0  0  0
 36 35  1  0  0  0  0
 37 34  1  0  0  0  0
 38 37  1  0  0  0  0
 39 38  1  0  0  0  0
 40 39  1  0  0  0  0
 41 42  1  0  0  0  0
 41 40  1  0  0  0  0
 43 41  1  0  0  0  0
 44 43  1  0  0  0  0
 46 41  1  0  0  0  0
 46 45  1  0  0  0  0
 47 40  1  0  0  0  0
 47 49  1  0  0  0  0
 48 49  1  0  0  0  0
 51 52  1  0  0  0  0
 51 50  1  0  0  0  0
 53 51  1  0  0  0  0
 54 55  1  0  0  0  0
 54 53  1  0  0  0  0
 55 56  1  0  0  0  0
 57 67  1  0  0  0  0
 58 57  1  0  0  0  0
 59 60  1  0  0  0  0
 60 56  1  0  0  0  0
 61 59  1  0  0  0  0
 61 63  1  0  0  0  0
 63 57  1  0  0  0  0
 63 65  1  0  0  0  0
 65 60  1  0  0  0  0
 65 66  1  0  0  0  0
 66 64  2  0  0  0  0
 67 66  1  0  0  0  0
 67 62  1  0  0  0  0
M  END
>  <MODEL>
3

>  <REMARK>
 VINA RESULT:      -5.5      3.735      8.996
  Name = 
  24 active torsions:
  status: ('A' for Active; 'I' for Inactive)
    1  A    between atoms: C_3  and  C_15
    2  A    between atoms: C_3  and  C_17
    3  A    between atoms: C_3  and  C_27
    4  A    between atoms: O_7  and  C_20
    5  A    between atoms: O_7  and  C_45
    6  A    between atoms: C_8  and  C_31
    7  A    between atoms: N_11  and  C_61
    8  A    between atoms: C_12  and  C_37
    9  A    between atoms: C_12  and  C_49
   10  A    between atoms: O_18  and  C_29
   11  A    between atoms: C_19  and  C_60
   12  A    between atoms: C_20  and  C_27
   13  A    between atoms: C_23  and  C_45
   14  A    between atoms: C_25  and  C_59
   15  A    between atoms: C_27  and  C_59
   16  A    between atoms: C_30  and  C_31
   17  A    between atoms: C_30  and  S_51
   18  A    between atoms: N_34  and  C_42
   19  A    between atoms: N_34  and  C_54
   20  A    between atoms: C_36  and  C_60
   21  A    between atoms: C_37  and  S_51
   22  A    between atoms: N_43  and  C_55
   23  A    between atoms: C_47  and  C_54
   24  A    between atoms: C_49  and  C_60
                            x       y       z     vdW  Elec       q    Type
                         _______ _______ _______ _____ _____    ______ ____

>  <TORSDO>
F 24

$$$$
=
 OpenBabel11042418393D

 67 75  0  0  1  0  0  0  0  0999 V2000
  192.0170  176.4690  145.4930 C   0  0  1  0  0  3  0  0  0  0  0  0
  191.6500  171.8310  140.1970 N   0  0  0  0  0  0  0  0  0  0  0  0
  193.3970  173.4590  140.1480 C   0  0  0  0  0  3  0  0  0  0  0  0
  191.2200  173.1200  144.0020 C   0  0  1  0  0  3  0  0  0  0  0  0
  191.9480  173.7420  143.1020 C   0  0  1  0  0  3  0  0  0  0  0  0
  193.9350  172.7930  139.0350 C   0  0  0  0  0  3  0  0  0  0  0  0
  191.0640  174.0060  145.1930 C   0  0  1  0  0  3  0  0  0  0  0  0
  191.5070  173.3470  141.7870 C   0  0  1  0  0  3  0  0  0  0  0  0
  190.2270  172.1620  143.3860 C   0  0  0  0  0  2  0  0  0  0  0  0
  191.8890  175.1820  144.7240 C   0  0  0  0  0  0  0  0  0  0  0  0
  190.6630  171.4290  140.9870 N   0  0  0  0  0  2  0  0  0  0  0  0
  193.3110  171.6420  138.5160 C   0  0  0  0  0  0  0  0  0  0  0  0
  192.3340  175.0400  143.5130 N   0  0  0  0  0  0  0  0  0  0  0  0
  192.2180  172.9510  140.6820 C   0  0  2  0  0  3  0  0  0  0  0  0
  192.1510  171.1480  139.1400 C   0  0  0  0  0  3  0  0  0  0  0  0
  190.5530  172.3780  141.9430 C   0  0  2  0  0  3  0  0  0  0  0  0
  189.7290  174.3950  145.3310 O   0  0  0  0  0  0  0  0  0  0  0  0
  189.1840  173.4860  146.2410 C   0  0  0  0  0  1  0  0  0  0  0  0
  193.8750  170.9910  137.3730 N   0  0  0  0  0  2  0  0  0  0  0  0
  194.2240  173.0260  136.3020 O   0  0  0  0  0  1  0  0  0  0  0  0
  194.0520  171.6570  136.0900 C   0  0  2  0  0  3  0  0  0  0  0  0
  190.9520  170.2850  135.8800 C   0  0  0  0  0  2  0  0  0  0  0  0
  192.3010  170.1280  135.4640 O   0  0  0  0  0  0  0  0  0  0  0  0
  190.6470  171.6970  135.9600 N   0  0  0  0  0  0  0  0  0  0  0  0
  192.8400  171.4130  135.1950 C   0  0  1  0  0  3  0  0  0  0  0  0
  191.7740  172.3860  135.4970 C   0  0  0  0  0  0  0  0  0  0  0  0
  191.7030  173.8800  134.8310 S   0  0  0  0  0  0  0  0  0  0  0  0
  188.9990  172.7200  137.4410 C   0  0  0  0  0  1  0  0  0  0  0  0
  189.2960  172.2360  136.0330 C   0  0  0  0  0  2  0  0  0  0  0  0
  189.7310  177.3120  146.1440 N   0  0  0  0  0  2  0  0  0  0  0  0
  190.9170  176.6060  146.5010 C   0  0  0  0  0  0  0  0  0  0  0  0
  191.0330  176.0890  147.6460 O   0  0  0  0  0  0  0  0  0  0  0  0
  186.3180  176.6030  147.2180 C   0  0  0  0  0  2  0  0  0  0  0  0
  187.2650  177.4550  146.3990 C   0  0  2  0  0  0  0  0  0  0  0  0
  187.7900  176.2530  147.1640 C   0  0  1  0  0  3  0  0  0  0  0  0
  188.6320  177.5120  147.0810 C   0  0  1  0  0  3  0  0  0  0  0  0
  187.2620  177.0680  144.9220 C   0  0  0  0  0  2  0  0  0  0  0  0
  186.0900  176.3790  144.6050 O   0  0  0  0  0  0  0  0  0  0  0  0
  186.0310  176.3950  143.2110 C   0  0  0  0  0  2  0  0  0  0  0  0
  186.6340  177.6900  142.6650 C   0  0  1  0  0  3  0  0  0  0  0  0
  187.6310  177.4570  141.4950 C   0  0  0  0  0  0  0  0  0  0  0  0
  188.8540  178.3460  141.6620 C   0  0  0  0  0  1  0  0  0  0  0  0
  187.0070  177.7960  140.1370 C   0  0  0  0  0  2  0  0  0  0  0  0
  186.8320  176.6530  139.3530 O   0  0  0  0  0  1  0  0  0  0  0  0
  189.2520  175.8330  142.2830 O   0  0  0  0  0  1  0  0  0  0  0  0
  188.1270  176.0070  141.4710 C   0  0  0  0  0  2  0  0  0  0  0  0
  185.5060  178.6460  142.2750 C   0  0  0  0  0  2  0  0  0  0  0  0
  183.2290  178.0830  141.7990 O   0  0  0  0  0  1  0  0  0  0  0  0
  184.1700  178.1760  142.8260 C   0  0  0  0  0  2  0  0  0  0  0  0
  193.3830  176.6070  146.1630 C   0  0  0  0  0  2  0  0  0  0  0  0
  194.4450  177.0570  145.1690 C   0  0  1  0  0  3  0  0  0  0  0  0
  195.1130  178.1930  145.6350 O   0  0  0  0  0  1  0  0  0  0  0  0
  195.4360  175.9320  144.8960 C   0  0  0  0  0  2  0  0  0  0  0  0
  196.2970  176.1430  143.3020 S   0  0  0  0  0  0  0  0  0  0  0  0
  197.0350  174.4910  143.4000 C   0  0  0  0  0  2  0  0  0  0  0  0
  196.2140  173.6230  144.3400 C   0  0  0  0  0  2  0  0  0  0  0  0
  193.5830  169.8850  142.7810 C   0  0  2  0  0  3  0  0  0  0  0  0
  194.2080  168.6700  142.4740 O   0  0  0  0  0  1  0  0  0  0  0  0
  197.0740  171.9240  142.3240 S   0  0  0  0  0  0  0  0  0  0  0  0
  196.2120  172.1550  143.9140 C   0  0  2  0  0  3  0  0  0  0  0  0
  195.7900  170.7620  141.7510 C   0  0  0  0  0  2  0  0  0  0  0  0
  193.4530  168.7610  144.9410 O   0  0  0  0  0  1  0  0  0  0  0  0
  194.4980  171.0960  142.4810 C   0  0  2  0  0  3  0  0  0  0  0  0
  194.2850  171.2890  146.0060 O   0  0  0  0  0  0  0  0  0  0  0  0
  194.8570  171.6610  143.7580 N   0  0  0  0  0  0  0  0  0  0  0  0
  194.1390  171.0100  144.7850 C   0  0  0  0  0  0  0  0  0  0  0  0
  193.2200  169.9700  144.2800 C   0  0  1  0  0  3  0  0  0  0  0  0
  1 50  1  1  0  0  0
  1 31  1  0  0  0  0
  2 14  1  0  0  0  0
  2 11  1  0  0  0  0
  3 14  1  0  0  0  0
  4  9  1  6  0  0  0
  4  7  1  0  0  0  0
  5 13  1  6  0  0  0
  5  4  1  0  0  0  0
  6  3  2  0  0  0  0
  7 17  1  6  0  0  0
  8 16  1  0  0  0  0
  8  5  1  0  0  0  0
 10  7  1  0  0  0  0
 10  1  1  0  0  0  0
 11 16  1  0  0  0  0
 12  6  1  0  0  0  0
 12 15  2  0  0  0  0
 13 10  2  0  0  0  0
 14  8  1  0  0  0  0
 15  2  1  0  0  0  0
 16  9  1  0  0  0  0
 17 18  1  0  0  0  0
 19 12  1  0  0  0  0
 21 20  1  0  0  0  0
 21 19  1  0  0  0  0
 22 24  1  0  0  0  0
 23 22  1  0  0  0  0
 24 29  1  0  0  0  0
 25 23  1  0  0  0  0
 25 26  1  0  0  0  0
 25 21  1  0  0  0  0
 26 24  1  0  0  0  0
 27 26  2  0  0  0  0
 29 28  1  0  0  0  0
 30 31  1  0  0  0  0
 30 36  1  0  0  0  0
 31 32  2  0  0  0  0
 34 36  1  0  0  0  0
 34 35  1  0  0  0  0
 34 33  1  0  0  0  0
 35 33  1  0  0  0  0
 36 35  1  0  0  0  0
 37 34  1  0  0  0  0
 38 37  1  0  0  0  0
 39 38  1  0  0  0  0
 40 39  1  0  0  0  0
 41 42  1  0  0  0  0
 41 40  1  0  0  0  0
 43 41  1  0  0  0  0
 44 43  1  0  0  0  0
 46 41  1  0  0  0  0
 46 45  1  0  0  0  0
 47 40  1  0  0  0  0
 47 49  1  0  0  0  0
 48 49  1  0  0  0  0
 51 52  1  0  0  0  0
 51 50  1  0  0  0  0
 53 51  1  0  0  0  0
 54 55  1  0  0  0  0
 54 53  1  0  0  0  0
 55 56  1  0  0  0  0
 57 67  1  0  0  0  0
 58 57  1  0  0  0  0
 59 60  1  0  0  0  0
 60 56  1  0  0  0  0
 61 59  1  0  0  0  0
 61 63  1  0  0  0  0
 63 57  1  0  0  0  0
 63 65  1  0  0  0  0
 65 60  1  0  0  0  0
 65 66  1  0  0  0  0
 66 64  2  0  0  0  0
 67 66  1  0  0  0  0
 67 62  1  0  0  0  0
M  END
>  <MODEL>
4

>  <REMARK>
 VINA RESULT:      -5.1      3.654      8.090
  Name = 
  24 active torsions:
  status: ('A' for Active; 'I' for Inactive)
    1  A    between atoms: C_3  and  C_15
    2  A    between atoms: C_3  and  C_17
    3  A    between atoms: C_3  and  C_27
    4  A    between atoms: O_7  and  C_20
    5  A    between atoms: O_7  and  C_45
    6  A    between atoms: C_8  and  C_31
    7  A    between atoms: N_11  and  C_61
    8  A    between atoms: C_12  and  C_37
    9  A    between atoms: C_12  and  C_49
   10  A    between atoms: O_18  and  C_29
   11  A    between atoms: C_19  and  C_60
   12  A    between atoms: C_20  and  C_27
   13  A    between atoms: C_23  and  C_45
   14  A    between atoms: C_25  and  C_59
   15  A    between atoms: C_27  and  C_59
   16  A    between atoms: C_30  and  C_31
   17  A    between atoms: C_30  and  S_51
   18  A    between atoms: N_34  and  C_42
   19  A    between atoms: N_34  and  C_54
   20  A    between atoms: C_36  and  C_60
   21  A    between atoms: C_37  and  S_51
   22  A    between atoms: N_43  and  C_55
   23  A    between atoms: C_47  and  C_54
   24  A    between atoms: C_49  and  C_60
                            x       y       z     vdW  Elec       q    Type
                         _______ _______ _______ _____ _____    ______ ____

>  <TORSDO>
F 24

$$$$
=
 OpenBabel11042418393D

 67 75  0  0  1  0  0  0  0  0999 V2000
  191.2810  173.7690  144.9840 C   0  0  1  0  0  3  0  0  0  0  0  0
  186.1890  178.3890  143.4280 N   0  0  0  0  0  0  0  0  0  0  0  0
  186.7210  176.7140  141.8100 C   0  0  0  0  0  3  0  0  0  0  0  0
  188.4540  176.0790  145.8490 C   0  0  1  0  0  3  0  0  0  0  0  0
  188.4020  175.9320  144.5430 C   0  0  1  0  0  3  0  0  0  0  0  0
  185.6200  177.1480  141.0540 C   0  0  0  0  0  3  0  0  0  0  0  0
  189.5790  175.2570  146.3830 C   0  0  1  0  0  3  0  0  0  0  0  0
  187.9420  177.1640  143.9500 C   0  0  1  0  0  3  0  0  0  0  0  0
  187.9590  177.4330  146.3010 C   0  0  0  0  0  2  0  0  0  0  0  0
  190.0590  174.6420  145.0890 C   0  0  0  0  0  0  0  0  0  0  0  0
  186.5200  178.7470  144.6610 N   0  0  0  0  0  2  0  0  0  0  0  0
  184.8120  178.2100  141.5050 C   0  0  0  0  0  0  0  0  0  0  0  0
  189.4190  175.0800  144.0490 N   0  0  0  0  0  0  0  0  0  0  0  0
  186.9880  177.3980  142.9910 C   0  0  2  0  0  3  0  0  0  0  0  0
  185.1060  178.8210  142.7380 C   0  0  0  0  0  3  0  0  0  0  0  0
  187.6170  178.0190  144.9680 C   0  0  2  0  0  3  0  0  0  0  0  0
  190.5740  176.0880  146.9050 O   0  0  0  0  0  0  0  0  0  0  0  0
  191.0940  175.3820  147.9930 C   0  0  0  0  0  1  0  0  0  0  0  0
  183.7040  178.6390  140.7090 N   0  0  0  0  0  2  0  0  0  0  0  0
  182.5450  177.1850  139.3100 O   0  0  0  0  0  1  0  0  0  0  0  0
  182.4950  177.8420  140.5400 C   0  0  2  0  0  3  0  0  0  0  0  0
  179.1270  178.0040  140.1350 C   0  0  0  0  0  2  0  0  0  0  0  0
  180.3670  178.3940  139.5600 O   0  0  0  0  0  0  0  0  0  0  0  0
  179.2540  178.0170  141.5760 N   0  0  0  0  0  0  0  0  0  0  0  0
  181.2600  178.7350  140.6090 C   0  0  1  0  0  3  0  0  0  0  0  0
  180.5310  178.5080  141.8700 C   0  0  0  0  0  0  0  0  0  0  0  0
  180.9000  179.2670  143.2740 S   0  0  0  0  0  0  0  0  0  0  0  0
  178.0170  176.6360  143.1630 C   0  0  0  0  0  1  0  0  0  0  0  0
  178.1230  177.9940  142.4930 C   0  0  0  0  0  2  0  0  0  0  0  0
  191.6300  172.2740  142.9840 N   0  0  0  0  0  2  0  0  0  0  0  0
  190.9800  172.5090  144.2310 C   0  0  0  0  0  0  0  0  0  0  0  0
  190.1760  171.6600  144.7030 O   0  0  0  0  0  0  0  0  0  0  0  0
  191.8490  170.4840  139.8130 C   0  0  0  0  0  2  0  0  0  0  0  0
  191.0780  171.4230  140.7180 C   0  0  2  0  0  0  0  0  0  0  0  0
  192.4500  170.9210  141.1330 C   0  0  1  0  0  3  0  0  0  0  0  0
  191.3660  171.0860  142.1810 C   0  0  1  0  0  3  0  0  0  0  0  0
  191.2480  172.8860  140.3140 C   0  0  0  0  0  2  0  0  0  0  0  0
  191.2610  173.0040  138.9240 O   0  0  0  0  0  0  0  0  0  0  0  0
  192.2630  173.9370  138.6530 C   0  0  0  0  0  2  0  0  0  0  0  0
  192.2730  174.2940  137.1660 C   0  0  1  0  0  3  0  0  0  0  0  0
  193.4830  173.6900  136.3980 C   0  0  0  0  0  0  0  0  0  0  0  0
  193.0500  172.4570  135.6200 C   0  0  0  0  0  1  0  0  0  0  0  0
  194.6030  173.2550  137.3500 C   0  0  0  0  0  2  0  0  0  0  0  0
  194.7730  171.8680  137.3430 O   0  0  0  0  0  1  0  0  0  0  0  0
  194.8430  175.6590  136.0010 O   0  0  0  0  0  1  0  0  0  0  0  0
  194.0490  174.6890  135.3820 C   0  0  0  0  0  2  0  0  0  0  0  0
  190.9380  173.8900  136.5410 C   0  0  0  0  0  2  0  0  0  0  0  0
  189.0980  174.6570  135.2170 O   0  0  0  0  0  1  0  0  0  0  0  0
  190.3430  175.0280  135.7280 C   0  0  0  0  0  2  0  0  0  0  0  0
  192.4620  174.5050  144.3530 C   0  0  0  0  0  2  0  0  0  0  0  0
  191.9910  175.6360  143.4490 C   0  0  1  0  0  3  0  0  0  0  0  0
  192.1990  176.8780  144.0560 O   0  0  0  0  0  1  0  0  0  0  0  0
  192.7010  175.5770  142.1010 C   0  0  0  0  0  2  0  0  0  0  0  0
  194.3570  176.3380  142.1610 S   0  0  0  0  0  0  0  0  0  0  0  0
  195.1030  174.9580  141.2530 C   0  0  0  0  0  2  0  0  0  0  0  0
  194.5900  173.6430  141.8180 C   0  0  0  0  0  2  0  0  0  0  0  0
  195.9360  169.7470  144.3360 C   0  0  2  0  0  3  0  0  0  0  0  0
  197.2410  169.2560  144.2180 O   0  0  0  0  0  1  0  0  0  0  0  0
  196.2140  171.6610  140.7560 S   0  0  0  0  0  0  0  0  0  0  0  0
  195.7290  172.6900  142.1800 C   0  0  2  0  0  3  0  0  0  0  0  0
  196.3560  170.1850  141.8190 C   0  0  0  0  0  2  0  0  0  0  0  0
  197.0400  170.9830  146.1250 O   0  0  0  0  0  1  0  0  0  0  0  0
  195.4370  170.3810  143.0150 C   0  0  2  0  0  3  0  0  0  0  0  0
  195.5900  173.2350  145.1000 O   0  0  0  0  0  0  0  0  0  0  0  0
  195.3390  171.8000  143.2570 N   0  0  0  0  0  0  0  0  0  0  0  0
  195.5840  172.0680  144.6220 C   0  0  0  0  0  0  0  0  0  0  0  0
  195.8430  170.8500  145.4140 C   0  0  1  0  0  3  0  0  0  0  0  0
  1 50  1  6  0  0  0
  1 10  1  0  0  0  0
  2 11  1  0  0  0  0
  3 14  1  0  0  0  0
  4  9  1  6  0  0  0
  4  7  1  0  0  0  0
  5 13  1  6  0  0  0
  5  4  1  0  0  0  0
  6 12  1  0  0  0  0
  6  3  2  0  0  0  0
  7 17  1  6  0  0  0
  8  5  1  0  0  0  0
  8 16  1  0  0  0  0
 10  7  1  0  0  0  0
 11 16  1  0  0  0  0
 12 15  2  0  0  0  0
 13 10  2  0  0  0  0
 14  2  1  0  0  0  0
 14  8  1  0  0  0  0
 15  2  1  0  0  0  0
 16  9  1  0  0  0  0
 17 18  1  0  0  0  0
 19 12  1  0  0  0  0
 20 21  1  0  0  0  0
 21 25  1  0  0  0  0
 21 19  1  0  0  0  0
 22 24  1  0  0  0  0
 23 22  1  0  0  0  0
 23 25  1  0  0  0  0
 24 26  1  0  0  0  0
 24 29  1  0  0  0  0
 25 26  1  0  0  0  0
 26 27  2  0  0  0  0
 29 28  1  0  0  0  0
 30 31  1  0  0  0  0
 31 32  2  0  0  0  0
 31  1  1  0  0  0  0
 33 34  1  0  0  0  0
 33 35  1  0  0  0  0
 34 35  1  0  0  0  0
 34 36  1  0  0  0  0
 35 36  1  0  0  0  0
 36 30  1  0  0  0  0
 37 34  1  0  0  0  0
 38 37  1  0  0  0  0
 39 38  1  0  0  0  0
 40 39  1  0  0  0  0
 41 40  1  0  0  0  0
 41 43  1  0  0  0  0
 42 41  1  0  0  0  0
 44 43  1  0  0  0  0
 46 45  1  0  0  0  0
 46 41  1  0  0  0  0
 47 40  1  0  0  0  0
 48 49  1  0  0  0  0
 49 47  1  0  0  0  0
 51 52  1  0  0  0  0
 51 50  1  0  0  0  0
 53 54  1  0  0  0  0
 53 51  1  0  0  0  0
 55 56  1  0  0  0  0
 55 54  1  0  0  0  0
 56 60  1  0  0  0  0
 57 67  1  0  0  0  0
 58 57  1  0  0  0  0
 59 61  1  0  0  0  0
 59 60  1  0  0  0  0
 60 65  1  0  0  0  0
 61 63  1  0  0  0  0
 63 65  1  0  0  0  0
 63 57  1  0  0  0  0
 65 66  1  0  0  0  0
 66 64  2  0  0  0  0
 66 67  1  0  0  0  0
 67 62  1  0  0  0  0
M  END
>  <MODEL>
5

>  <REMARK>
 VINA RESULT:      -4.8      1.617      2.528
  Name = 
  24 active torsions:
  status: ('A' for Active; 'I' for Inactive)
    1  A    between atoms: C_3  and  C_15
    2  A    between atoms: C_3  and  C_17
    3  A    between atoms: C_3  and  C_27
    4  A    between atoms: O_7  and  C_20
    5  A    between atoms: O_7  and  C_45
    6  A    between atoms: C_8  and  C_31
    7  A    between atoms: N_11  and  C_61
    8  A    between atoms: C_12  and  C_37
    9  A    between atoms: C_12  and  C_49
   10  A    between atoms: O_18  and  C_29
   11  A    between atoms: C_19  and  C_60
   12  A    between atoms: C_20  and  C_27
   13  A    between atoms: C_23  and  C_45
   14  A    between atoms: C_25  and  C_59
   15  A    between atoms: C_27  and  C_59
   16  A    between atoms: C_30  and  C_31
   17  A    between atoms: C_30  and  S_51
   18  A    between atoms: N_34  and  C_42
   19  A    between atoms: N_34  and  C_54
   20  A    between atoms: C_36  and  C_60
   21  A    between atoms: C_37  and  S_51
   22  A    between atoms: N_43  and  C_55
   23  A    between atoms: C_47  and  C_54
   24  A    between atoms: C_49  and  C_60
                            x       y       z     vdW  Elec       q    Type
                         _______ _______ _______ _____ _____    ______ ____

>  <TORSDO>
F 24

$$$$
=
 OpenBabel11042418393D

 67 75  0  0  1  0  0  0  0  0999 V2000
  189.9170  174.3600  143.4960 C   0  0  1  0  0  3  0  0  0  0  0  0
  192.8130  172.5340  137.3330 N   0  0  0  0  0  0  0  0  0  0  0  0
  192.9090  174.8310  137.9850 C   0  0  0  0  0  3  0  0  0  0  0  0
  191.6760  171.9970  141.1730 C   0  0  1  0  0  3  0  0  0  0  0  0
  191.7390  173.1740  140.5920 C   0  0  1  0  0  3  0  0  0  0  0  0
  193.7380  175.0720  136.8770 C   0  0  0  0  0  3  0  0  0  0  0  0
  190.9670  172.1400  142.4780 C   0  0  1  0  0  3  0  0  0  0  0  0
  191.6770  172.9950  139.1610 C   0  0  1  0  0  3  0  0  0  0  0  0
  191.6320  170.8590  140.1800 C   0  0  0  0  0  2  0  0  0  0  0  0
  190.7170  173.6300  142.4500 C   0  0  0  0  0  0  0  0  0  0  0  0
  192.4100  171.3630  137.8080 N   0  0  0  0  0  2  0  0  0  0  0  0
  194.0940  174.0250  136.0050 C   0  0  0  0  0  0  0  0  0  0  0  0
  191.1090  174.1910  141.3480 N   0  0  0  0  0  0  0  0  0  0  0  0
  192.4390  173.5330  138.1550 C   0  0  2  0  0  3  0  0  0  0  0  0
  193.6280  172.7230  136.2680 C   0  0  0  0  0  3  0  0  0  0  0  0
  191.6830  171.6500  138.9110 C   0  0  2  0  0  3  0  0  0  0  0  0
  189.7470  171.4590  142.4380 O   0  0  0  0  0  0  0  0  0  0  0  0
  189.2570  171.5260  143.7440 C   0  0  0  0  0  1  0  0  0  0  0  0
  194.9290  174.3020  134.8770 N   0  0  0  0  0  2  0  0  0  0  0  0
  195.7750  172.1360  134.8050 O   0  0  0  0  0  1  0  0  0  0  0  0
  196.0680  173.4690  134.5130 C   0  0  2  0  0  3  0  0  0  0  0  0
  197.3110  175.5760  136.8700 C   0  0  0  0  0  2  0  0  0  0  0  0
  197.2760  175.3170  135.4720 O   0  0  0  0  0  0  0  0  0  0  0  0
  197.2860  174.3160  137.5800 N   0  0  0  0  0  0  0  0  0  0  0  0
  197.3130  173.9120  135.2750 C   0  0  1  0  0  3  0  0  0  0  0  0
  197.3390  173.3020  136.6170 C   0  0  0  0  0  0  0  0  0  0  0  0
  197.9410  171.8090  136.9170 S   0  0  0  0  0  0  0  0  0  0  0  0
  197.7410  175.5300  139.6470 C   0  0  0  0  0  1  0  0  0  0  0  0
  197.6340  174.1680  138.9870 C   0  0  0  0  0  2  0  0  0  0  0  0
  191.7160  174.6640  145.2370 N   0  0  0  0  0  2  0  0  0  0  0  0
  190.7950  175.2510  144.3200 C   0  0  0  0  0  0  0  0  0  0  0  0
  190.7320  176.5050  144.1920 O   0  0  0  0  0  0  0  0  0  0  0  0
  194.9520  176.2030  145.9150 C   0  0  0  0  0  2  0  0  0  0  0  0
  194.0370  175.0050  146.0500 C   0  0  2  0  0  0  0  0  0  0  0  0
  193.5930  176.2140  145.2480 C   0  0  1  0  0  3  0  0  0  0  0  0
  192.5810  175.4670  146.0930 C   0  0  1  0  0  3  0  0  0  0  0  0
  194.3680  173.9050  145.0440 C   0  0  0  0  0  2  0  0  0  0  0  0
  194.7470  172.7390  145.7100 O   0  0  0  0  0  0  0  0  0  0  0  0
  196.0050  172.4240  145.1940 C   0  0  0  0  0  2  0  0  0  0  0  0
  195.9560  171.0960  144.4380 C   0  0  1  0  0  3  0  0  0  0  0  0
  196.2910  171.2370  142.9270 C   0  0  0  0  0  0  0  0  0  0  0  0
  196.2420  172.6990  142.5110 C   0  0  0  0  0  1  0  0  0  0  0  0
  195.2880  170.4820  142.0470 C   0  0  0  0  0  2  0  0  0  0  0  0
  195.1130  171.1120  140.8120 O   0  0  0  0  0  1  0  0  0  0  0  0
  197.6890  169.4130  142.1500 O   0  0  0  0  0  1  0  0  0  0  0  0
  197.7060  170.7290  142.6230 C   0  0  0  0  0  2  0  0  0  0  0  0
  196.8660  170.0850  145.1360 C   0  0  0  0  0  2  0  0  0  0  0  0
  195.3610  169.3320  146.8370 O   0  0  0  0  0  1  0  0  0  0  0  0
  196.5640  170.0070  146.6230 C   0  0  0  0  0  2  0  0  0  0  0  0
  188.7630  175.1540  142.8860 C   0  0  0  0  0  2  0  0  0  0  0  0
  188.4040  174.6360  141.5000 C   0  0  1  0  0  3  0  0  0  0  0  0
  187.5330  173.5470  141.5860 O   0  0  0  0  0  1  0  0  0  0  0  0
  187.7880  175.7450  140.6560 C   0  0  0  0  0  2  0  0  0  0  0  0
  188.2120  177.4050  141.2820 S   0  0  0  0  0  0  0  0  0  0  0  0
  186.4720  177.9080  141.3380 C   0  0  0  0  0  2  0  0  0  0  0  0
  186.2620  178.8880  142.4810 C   0  0  0  0  0  2  0  0  0  0  0  0
  185.4970  178.7270  147.2470 C   0  0  2  0  0  3  0  0  0  0  0  0
  184.4670  177.9310  147.7630 O   0  0  0  0  0  1  0  0  0  0  0  0
  183.7200  178.8490  143.5890 S   0  0  0  0  0  0  0  0  0  0  0  0
  185.4500  178.2750  143.6220 C   0  0  2  0  0  3  0  0  0  0  0  0
  183.7100  179.0500  145.4020 C   0  0  0  0  0  2  0  0  0  0  0  0
  186.6950  176.6350  147.6160 O   0  0  0  0  0  1  0  0  0  0  0  0
  185.1420  179.2960  145.8530 C   0  0  2  0  0  3  0  0  0  0  0  0
  187.8100  177.1280  145.0210 O   0  0  0  0  0  0  0  0  0  0  0  0
  186.0110  178.6340  144.9110 N   0  0  0  0  0  0  0  0  0  0  0  0
  186.9490  177.8380  145.6060 C   0  0  0  0  0  0  0  0  0  0  0  0
  186.8020  177.9190  147.0720 C   0  0  1  0  0  3  0  0  0  0  0  0
  1 50  1  6  0  0  0
  1 31  1  0  0  0  0
  2 11  1  0  0  0  0
  2 14  1  0  0  0  0
  3 14  1  0  0  0  0
  4  9  1  6  0  0  0
  4  7  1  0  0  0  0
  5  4  1  0  0  0  0
  5 13  1  1  0  0  0
  6  3  2  0  0  0  0
  7 17  1  6  0  0  0
  8  5  1  0  0  0  0
 10  7  1  0  0  0  0
 10  1  1  0  0  0  0
 11 16  1  0  0  0  0
 12 15  2  0  0  0  0
 12  6  1  0  0  0  0
 13 10  2  0  0  0  0
 14  8  1  0  0  0  0
 15  2  1  0  0  0  0
 16  8  1  0  0  0  0
 16  9  1  0  0  0  0
 17 18  1  0  0  0  0
 19 12  1  0  0  0  0
 21 20  1  0  0  0  0
 21 19  1  0  0  0  0
 21 25  1  0  0  0  0
 22 24  1  0  0  0  0
 23 22  1  0  0  0  0
 24 29  1  0  0  0  0
 25 23  1  0  0  0  0
 25 26  1  0  0  0  0
 26 27  2  0  0  0  0
 26 24  1  0  0  0  0
 29 28  1  0  0  0  0
 30 36  1  0  0  0  0
 31 30  1  0  0  0  0
 32 31  2  0  0  0  0
 33 34  1  0  0  0  0
 34 36  1  0  0  0  0
 35 33  1  0  0  0  0
 35 34  1  0  0  0  0
 35 36  1  0  0  0  0
 37 38  1  0  0  0  0
 37 34  1  0  0  0  0
 39 38  1  0  0  0  0
 40 47  1  0  0  0  0
 40 39  1  0  0  0  0
 41 40  1  0  0  0  0
 42 41  1  0  0  0  0
 43 41  1  0  0  0  0
 44 43  1  0  0  0  0
 45 46  1  0  0  0  0
 46 41  1  0  0  0  0
 47 49  1  0  0  0  0
 49 48  1  0  0  0  0
 51 52  1  0  0  0  0
 51 50  1  0  0  0  0
 53 54  1  0  0  0  0
 53 51  1  0  0  0  0
 54 55  1  0  0  0  0
 55 56  1  0  0  0  0
 56 60  1  0  0  0  0
 57 58  1  0  0  0  0
 59 60  1  0  0  0  0
 59 61  1  0  0  0  0
 60 65  1  0  0  0  0
 61 63  1  0  0  0  0
 63 57  1  0  0  0  0
 64 66  2  0  0  0  0
 65 66  1  0  0  0  0
 65 63  1  0  0  0  0
 66 67  1  0  0  0  0
 67 57  1  0  0  0  0
 67 62  1  0  0  0  0
M  END
>  <MODEL>
6

>  <REMARK>
 VINA RESULT:      -4.2      3.499     11.147
  Name = 
  24 active torsions:
  status: ('A' for Active; 'I' for Inactive)
    1  A    between atoms: C_3  and  C_15
    2  A    between atoms: C_3  and  C_17
    3  A    between atoms: C_3  and  C_27
    4  A    between atoms: O_7  and  C_20
    5  A    between atoms: O_7  and  C_45
    6  A    between atoms: C_8  and  C_31
    7  A    between atoms: N_11  and  C_61
    8  A    between atoms: C_12  and  C_37
    9  A    between atoms: C_12  and  C_49
   10  A    between atoms: O_18  and  C_29
   11  A    between atoms: C_19  and  C_60
   12  A    between atoms: C_20  and  C_27
   13  A    between atoms: C_23  and  C_45
   14  A    between atoms: C_25  and  C_59
   15  A    between atoms: C_27  and  C_59
   16  A    between atoms: C_30  and  C_31
   17  A    between atoms: C_30  and  S_51
   18  A    between atoms: N_34  and  C_42
   19  A    between atoms: N_34  and  C_54
   20  A    between atoms: C_36  and  C_60
   21  A    between atoms: C_37  and  S_51
   22  A    between atoms: N_43  and  C_55
   23  A    between atoms: C_47  and  C_54
   24  A    between atoms: C_49  and  C_60
                            x       y       z     vdW  Elec       q    Type
                         _______ _______ _______ _____ _____    ______ ____

>  <TORSDO>
F 24

$$$$
=
 OpenBabel11042418393D

 67 75  0  0  1  0  0  0  0  0999 V2000
  189.8790  175.2670  143.0060 C   0  0  1  0  0  3  0  0  0  0  0  0
  183.8580  178.7740  144.0740 N   0  0  0  0  0  0  0  0  0  0  0  0
  184.1830  177.7160  141.9570 C   0  0  0  0  0  3  0  0  0  0  0  0
  187.0670  176.5570  145.1280 C   0  0  1  0  0  3  0  0  0  0  0  0
  186.6740  176.7210  143.8850 C   0  0  1  0  0  3  0  0  0  0  0  0
  182.8570  178.0440  141.6320 C   0  0  0  0  0  3  0  0  0  0  0  0
  188.4180  175.9230  145.1280 C   0  0  1  0  0  3  0  0  0  0  0  0
  185.8660  177.9140  143.8020 C   0  0  1  0  0  3  0  0  0  0  0  0
  186.5020  177.6030  146.0600 C   0  0  0  0  0  2  0  0  0  0  0  0
  188.6090  175.7710  143.6370 C   0  0  0  0  0  0  0  0  0  0  0  0
  184.4600  178.8910  145.2500 N   0  0  0  0  0  2  0  0  0  0  0  0
  182.0440  178.7410  142.5460 C   0  0  0  0  0  0  0  0  0  0  0  0
  187.6370  176.2820  142.9450 N   0  0  0  0  0  0  0  0  0  0  0  0
  184.6550  178.1370  143.1960 C   0  0  2  0  0  3  0  0  0  0  0  0
  182.5680  179.0880  143.8060 C   0  0  0  0  0  3  0  0  0  0  0  0
  185.7040  178.3940  145.0730 C   0  0  2  0  0  3  0  0  0  0  0  0
  189.3670  176.8160  145.6330 O   0  0  0  0  0  0  0  0  0  0  0  0
  189.2570  176.7060  147.0220 C   0  0  0  0  0  1  0  0  0  0  0  0
  180.7010  179.0720  142.1830 N   0  0  0  0  0  2  0  0  0  0  0  0
  180.5630  178.0580  140.0950 O   0  0  0  0  0  1  0  0  0  0  0  0
  179.8900  178.2400  141.3040 C   0  0  2  0  0  3  0  0  0  0  0  0
  178.2460  181.1580  140.7420 C   0  0  0  0  0  2  0  0  0  0  0  0
  178.4850  180.1500  141.7160 O   0  0  0  0  0  0  0  0  0  0  0  0
  178.2250  180.5470  139.4310 N   0  0  0  0  0  0  0  0  0  0  0  0
  178.5340  178.8940  141.0580 C   0  0  1  0  0  3  0  0  0  0  0  0
  178.3490  179.1660  139.6210 C   0  0  0  0  0  0  0  0  0  0  0  0
  177.7730  178.0590  138.5600 S   0  0  0  0  0  0  0  0  0  0  0  0
  178.7760  181.3320  137.1870 C   0  0  0  0  0  1  0  0  0  0  0  0
  177.6910  181.1950  138.2400 C   0  0  0  0  0  2  0  0  0  0  0  0
  190.6220  173.6620  141.2080 N   0  0  0  0  0  2  0  0  0  0  0  0
  189.5880  174.4650  141.7750 C   0  0  0  0  0  0  0  0  0  0  0  0
  188.4380  174.4860  141.2560 O   0  0  0  0  0  0  0  0  0  0  0  0
  191.5930  170.9080  139.0220 C   0  0  0  0  0  2  0  0  0  0  0  0
  191.7370  172.3660  139.4080 C   0  0  2  0  0  0  0  0  0  0  0  0
  190.8540  171.4450  140.2300 C   0  0  1  0  0  3  0  0  0  0  0  0
  190.4220  172.8790  139.9940 C   0  0  1  0  0  3  0  0  0  0  0  0
  192.9940  172.6250  140.2360 C   0  0  0  0  0  2  0  0  0  0  0  0
  194.0190  173.1020  139.4180 O   0  0  0  0  0  0  0  0  0  0  0  0
  195.0160  172.1280  139.4890 C   0  0  0  0  0  2  0  0  0  0  0  0
  195.6560  171.9170  138.1160 C   0  0  1  0  0  3  0  0  0  0  0  0
  196.9290  172.7810  137.8930 C   0  0  0  0  0  0  0  0  0  0  0  0
  197.6590  172.9920  139.2110 C   0  0  0  0  0  1  0  0  0  0  0  0
  196.5870  174.1680  137.3380 C   0  0  0  0  0  2  0  0  0  0  0  0
  196.8150  175.1710  138.2840 O   0  0  0  0  0  1  0  0  0  0  0  0
  197.8250  172.6100  135.6460 O   0  0  0  0  0  1  0  0  0  0  0  0
  197.9100  172.0880  136.9400 C   0  0  0  0  0  2  0  0  0  0  0  0
  195.9310  170.4270  137.9110 C   0  0  0  0  0  2  0  0  0  0  0  0
  193.8910  170.4850  136.6600 O   0  0  0  0  0  1  0  0  0  0  0  0
  195.1480  169.8800  136.7290 C   0  0  0  0  0  2  0  0  0  0  0  0
  190.8560  176.3990  142.6930 C   0  0  0  0  0  2  0  0  0  0  0  0
  192.2760  176.0360  143.1050 C   0  0  1  0  0  3  0  0  0  0  0  0
  193.1530  176.1530  142.0230 O   0  0  0  0  0  1  0  0  0  0  0  0
  192.7400  176.9130  144.2620 C   0  0  0  0  0  2  0  0  0  0  0  0
  193.1290  175.9360  145.7530 S   0  0  0  0  0  0  0  0  0  0  0  0
  194.4650  175.0490  144.9120 C   0  0  0  0  0  2  0  0  0  0  0  0
  195.3350  174.3450  145.9420 C   0  0  0  0  0  2  0  0  0  0  0  0
  195.6310  170.8360  142.6370 C   0  0  2  0  0  3  0  0  0  0  0  0
  196.8310  170.1350  142.4670 O   0  0  0  0  0  1  0  0  0  0  0  0
  197.5760  173.9720  144.3510 S   0  0  0  0  0  0  0  0  0  0  0  0
  196.2030  173.2560  145.3130 C   0  0  2  0  0  3  0  0  0  0  0  0
  197.3290  172.7530  143.0160 C   0  0  0  0  0  2  0  0  0  0  0  0
  195.2960  168.9970  144.2030 O   0  0  0  0  0  1  0  0  0  0  0  0
  195.8760  172.3060  143.0550 C   0  0  2  0  0  3  0  0  0  0  0  0
  194.3390  171.0370  145.9770 O   0  0  0  0  0  0  0  0  0  0  0  0
  195.4240  172.4210  144.4190 N   0  0  0  0  0  0  0  0  0  0  0  0
  194.8000  171.2180  144.8180 C   0  0  0  0  0  0  0  0  0  0  0  0
  194.7600  170.2040  143.7450 C   0  0  1  0  0  3  0  0  0  0  0  0
  1 50  1  6  0  0  0
  1 10  1  0  0  0  0
  2 11  1  0  0  0  0
  3 14  1  0  0  0  0
  4  9  1  6  0  0  0
  5 13  1  6  0  0  0
  5  4  1  0  0  0  0
  6  3  2  0  0  0  0
  6 12  1  0  0  0  0
  7  4  1  0  0  0  0
  7 17  1  6  0  0  0
  8  5  1  0  0  0  0
  8 16  1  0  0  0  0
 10  7  1  0  0  0  0
 12 15  2  0  0  0  0
 13 10  2  0  0  0  0
 14  8  1  0  0  0  0
 14  2  1  0  0  0  0
 15  2  1  0  0  0  0
 16 11  1  0  0  0  0
 16  9  1  0  0  0  0
 17 18  1  0  0  0  0
 19 12  1  0  0  0  0
 20 21  1  0  0  0  0
 21 19  1  0  0  0  0
 22 23  1  0  0  0  0
 24 26  1  0  0  0  0
 24 22  1  0  0  0  0
 25 21  1  0  0  0  0
 25 23  1  0  0  0  0
 26 25  1  0  0  0  0
 27 26  2  0  0  0  0
 28 29  1  0  0  0  0
 29 24  1  0  0  0  0
 30 31  1  0  0  0  0
 31  1  1  0  0  0  0
 32 31  2  0  0  0  0
 33 34  1  0  0  0  0
 33 35  1  0  0  0  0
 34 36  1  0  0  0  0
 34 35  1  0  0  0  0
 34 37  1  0  0  0  0
 36 35  1  0  0  0  0
 36 30  1  0  0  0  0
 38 39  1  0  0  0  0
 38 37  1  0  0  0  0
 40 39  1  0  0  0  0
 41 40  1  0  0  0  0
 41 42  1  0  0  0  0
 43 41  1  0  0  0  0
 43 44  1  0  0  0  0
 45 46  1  0  0  0  0
 46 41  1  0  0  0  0
 47 40  1  0  0  0  0
 48 49  1  0  0  0  0
 49 47  1  0  0  0  0
 50 51  1  0  0  0  0
 51 53  1  0  0  0  0
 52 51  1  0  0  0  0
 53 54  1  0  0  0  0
 55 54  1  0  0  0  0
 55 56  1  0  0  0  0
 57 63  1  0  0  0  0
 57 67  1  0  0  0  0
 58 57  1  0  0  0  0
 59 60  1  0  0  0  0
 60 56  1  0  0  0  0
 61 63  1  0  0  0  0
 61 59  1  0  0  0  0
 63 65  1  0  0  0  0
 65 66  1  0  0  0  0
 65 60  1  0  0  0  0
 66 64  2  0  0  0  0
 67 62  1  0  0  0  0
 67 66  1  0  0  0  0
M  END
>  <MODEL>
7

>  <REMARK>
 VINA RESULT:      -4.1      2.573      4.080
  Name = 
  24 active torsions:
  status: ('A' for Active; 'I' for Inactive)
    1  A    between atoms: C_3  and  C_15
    2  A    between atoms: C_3  and  C_17
    3  A    between atoms: C_3  and  C_27
    4  A    between atoms: O_7  and  C_20
    5  A    between atoms: O_7  and  C_45
    6  A    between atoms: C_8  and  C_31
    7  A    between atoms: N_11  and  C_61
    8  A    between atoms: C_12  and  C_37
    9  A    between atoms: C_12  and  C_49
   10  A    between atoms: O_18  and  C_29
   11  A    between atoms: C_19  and  C_60
   12  A    between atoms: C_20  and  C_27
   13  A    between atoms: C_23  and  C_45
   14  A    between atoms: C_25  and  C_59
   15  A    between atoms: C_27  and  C_59
   16  A    between atoms: C_30  and  C_31
   17  A    between atoms: C_30  and  S_51
   18  A    between atoms: N_34  and  C_42
   19  A    between atoms: N_34  and  C_54
   20  A    between atoms: C_36  and  C_60
   21  A    between atoms: C_37  and  S_51
   22  A    between atoms: N_43  and  C_55
   23  A    between atoms: C_47  and  C_54
   24  A    between atoms: C_49  and  C_60
                            x       y       z     vdW  Elec       q    Type
                         _______ _______ _______ _____ _____    ______ ____

>  <TORSDO>
F 24

$$$$
=
 OpenBabel11042418393D

 67 75  0  0  1  0  0  0  0  0999 V2000
  188.4820  176.8950  144.7180 C   0  0  1  0  0  3  0  0  0  0  0  0
  192.5720  172.3460  141.2160 N   0  0  0  0  0  0  0  0  0  0  0  0
  190.3120  171.7140  141.6610 C   0  0  0  0  0  3  0  0  0  0  0  0
  191.2690  175.9900  142.3760 C   0  0  1  0  0  3  0  0  0  0  0  0
  190.5820  174.8830  142.5500 C   0  0  1  0  0  3  0  0  0  0  0  0
  190.5100  170.5790  140.8580 C   0  0  0  0  0  3  0  0  0  0  0  0
  190.6250  177.0860  143.1570 C   0  0  1  0  0  3  0  0  0  0  0  0
  191.4850  173.7590  142.5070 C   0  0  1  0  0  3  0  0  0  0  0  0
  192.7350  175.7310  142.1220 C   0  0  0  0  0  2  0  0  0  0  0  0
  189.4580  176.3160  143.7300 C   0  0  0  0  0  0  0  0  0  0  0  0
  193.3820  173.3850  141.3700 N   0  0  0  0  0  2  0  0  0  0  0  0
  191.7540  170.3450  140.2400 C   0  0  0  0  0  0  0  0  0  0  0  0
  189.4820  175.0550  143.4230 N   0  0  0  0  0  0  0  0  0  0  0  0
  191.3990  172.5630  141.8380 C   0  0  2  0  0  3  0  0  0  0  0  0
  192.7950  171.2760  140.4150 C   0  0  0  0  0  3  0  0  0  0  0  0
  192.7280  174.2370  142.1910 C   0  0  2  0  0  3  0  0  0  0  0  0
  191.4690  177.4970  144.1920 O   0  0  0  0  0  0  0  0  0  0  0  0
  191.7400  178.8400  143.9210 C   0  0  0  0  0  1  0  0  0  0  0  0
  191.9310  169.1750  139.4370 N   0  0  0  0  0  2  0  0  0  0  0  0
  193.6550  168.5200  140.8550 O   0  0  0  0  0  1  0  0  0  0  0  0
  193.0190  168.2280  139.6470 C   0  0  2  0  0  3  0  0  0  0  0  0
  194.3680  170.1980  137.2310 C   0  0  0  0  0  2  0  0  0  0  0  0
  193.4830  169.1080  137.4550 O   0  0  0  0  0  0  0  0  0  0  0  0
  195.4410  170.1370  138.1990 N   0  0  0  0  0  0  0  0  0  0  0  0
  194.0170  168.3040  138.4950 C   0  0  1  0  0  3  0  0  0  0  0  0
  195.2610  168.9610  138.9370 C   0  0  0  0  0  0  0  0  0  0  0  0
  196.4890  168.1660  139.6730 S   0  0  0  0  0  0  0  0  0  0  0  0
  196.4510  172.1910  137.3540 C   0  0  0  0  0  1  0  0  0  0  0  0
  196.6890  170.8790  138.0790 C   0  0  0  0  0  2  0  0  0  0  0  0
  187.4600  177.8570  142.6230 N   0  0  0  0  0  2  0  0  0  0  0  0
  187.3480  177.5790  144.0170 C   0  0  0  0  0  0  0  0  0  0  0  0
  186.3000  177.8890  144.6490 O   0  0  0  0  0  0  0  0  0  0  0  0
  184.7610  177.8020  140.1700 C   0  0  0  0  0  2  0  0  0  0  0  0
  186.2340  177.9880  140.4680 C   0  0  2  0  0  0  0  0  0  0  0  0
  185.2790  177.5840  141.5760 C   0  0  1  0  0  3  0  0  0  0  0  0
  186.4110  178.5450  141.8800 C   0  0  1  0  0  3  0  0  0  0  0  0
  187.0570  176.7490  140.1210 C   0  0  0  0  0  2  0  0  0  0  0  0
  187.1750  176.6200  138.7370 O   0  0  0  0  0  0  0  0  0  0  0  0
  187.4070  175.2610  138.5220 C   0  0  0  0  0  2  0  0  0  0  0  0
  188.5140  175.0640  137.4850 C   0  0  1  0  0  3  0  0  0  0  0  0
  189.2510  173.7030  137.6240 C   0  0  0  0  0  0  0  0  0  0  0  0
  188.3950  172.7190  138.4060 C   0  0  0  0  0  1  0  0  0  0  0  0
  190.5780  173.8460  138.3780 C   0  0  0  0  0  2  0  0  0  0  0  0
  191.5750  174.3920  137.5640 O   0  0  0  0  0  1  0  0  0  0  0  0
  189.0090  171.7770  136.1700 O   0  0  0  0  0  1  0  0  0  0  0  0
  189.5200  173.0760  136.2510 C   0  0  0  0  0  2  0  0  0  0  0  0
  187.9330  175.2620  136.0850 C   0  0  0  0  0  2  0  0  0  0  0  0
  185.7370  176.0260  135.5170 O   0  0  0  0  0  1  0  0  0  0  0  0
  186.9620  176.4310  136.0520 C   0  0  0  0  0  2  0  0  0  0  0  0
  187.9560  175.8420  145.6930 C   0  0  0  0  0  2  0  0  0  0  0  0
  188.6240  175.9660  147.0550 C   0  0  1  0  0  3  0  0  0  0  0  0
  187.9070  175.2610  148.0270 O   0  0  0  0  0  1  0  0  0  0  0  0
  190.0650  175.4720  146.9940 C   0  0  0  0  0  2  0  0  0  0  0  0
  191.1860  176.4870  148.0130 S   0  0  0  0  0  0  0  0  0  0  0  0
  192.5420  176.3120  146.8240 C   0  0  0  0  0  2  0  0  0  0  0  0
  193.0870  174.8940  146.8800 C   0  0  0  0  0  2  0  0  0  0  0  0
  196.9220  174.4310  143.9810 C   0  0  2  0  0  3  0  0  0  0  0  0
  196.7850  173.8080  142.7350 O   0  0  0  0  0  1  0  0  0  0  0  0
  193.5680  172.6070  145.3870 S   0  0  0  0  0  0  0  0  0  0  0  0
  193.6100  174.4240  145.5230 C   0  0  2  0  0  3  0  0  0  0  0  0
  195.2060  172.5890  144.5850 C   0  0  0  0  0  2  0  0  0  0  0  0
  196.4000  176.3560  142.5770 O   0  0  0  0  0  1  0  0  0  0  0  0
  195.9590  173.8320  145.0340 C   0  0  2  0  0  3  0  0  0  0  0  0
  194.6340  177.0950  144.7120 O   0  0  0  0  0  0  0  0  0  0  0  0
  194.9810  174.8520  145.3170 N   0  0  0  0  0  0  0  0  0  0  0  0
  195.3360  176.0500  144.6580 C   0  0  0  0  0  0  0  0  0  0  0  0
  196.5960  175.9390  143.8970 C   0  0  1  0  0  3  0  0  0  0  0  0
  1 50  1  6  0  0  0
  2 11  1  0  0  0  0
  2 14  1  0  0  0  0
  3 14  1  0  0  0  0
  4  9  1  1  0  0  0
  4  5  1  0  0  0  0
  4  7  1  0  0  0  0
  5 13  1  1  0  0  0
  6  3  2  0  0  0  0
  7 10  1  0  0  0  0
  7 17  1  1  0  0  0
  8  5  1  0  0  0  0
  9 16  1  0  0  0  0
 10  1  1  0  0  0  0
 11 16  1  0  0  0  0
 12 15  2  0  0  0  0
 12  6  1  0  0  0  0
 13 10  2  0  0  0  0
 14  8  1  0  0  0  0
 15  2  1  0  0  0  0
 16  8  1  0  0  0  0
 18 17  1  0  0  0  0
 19 21  1  0  0  0  0
 19 12  1  0  0  0  0
 21 20  1  0  0  0  0
 22 23  1  0  0  0  0
 22 24  1  0  0  0  0
 23 25  1  0  0  0  0
 24 26  1  0  0  0  0
 25 26  1  0  0  0  0
 25 21  1  0  0  0  0
 26 27  2  0  0  0  0
 28 29  1  0  0  0  0
 29 24  1  0  0  0  0
 30 31  1  0  0  0  0
 31 32  2  0  0  0  0
 31  1  1  0  0  0  0
 33 34  1  0  0  0  0
 33 35  1  0  0  0  0
 34 35  1  0  0  0  0
 34 36  1  0  0  0  0
 35 36  1  0  0  0  0
 36 30  1  0  0  0  0
 37 34  1  0  0  0  0
 38 37  1  0  0  0  0
 39 38  1  0  0  0  0
 40 41  1  0  0  0  0
 40 39  1  0  0  0  0
 41 43  1  0  0  0  0
 41 42  1  0  0  0  0
 44 43  1  0  0  0  0
 45 46  1  0  0  0  0
 46 41  1  0  0  0  0
 47 40  1  0  0  0  0
 48 49  1  0  0  0  0
 49 47  1  0  0  0  0
 50 51  1  0  0  0  0
 51 52  1  0  0  0  0
 53 51  1  0  0  0  0
 53 54  1  0  0  0  0
 55 56  1  0  0  0  0
 55 54  1  0  0  0  0
 57 63  1  0  0  0  0
 58 57  1  0  0  0  0
 59 60  1  0  0  0  0
 60 56  1  0  0  0  0
 61 63  1  0  0  0  0
 61 59  1  0  0  0  0
 62 67  1  0  0  0  0
 63 65  1  0  0  0  0
 65 60  1  0  0  0  0
 66 64  2  0  0  0  0
 66 65  1  0  0  0  0
 67 57  1  0  0  0  0
 67 66  1  0  0  0  0
M  END
>  <MODEL>
8

>  <REMARK>
 VINA RESULT:      -4.0      3.543      9.186
  Name = 
  24 active torsions:
  status: ('A' for Active; 'I' for Inactive)
    1  A    between atoms: C_3  and  C_15
    2  A    between atoms: C_3  and  C_17
    3  A    between atoms: C_3  and  C_27
    4  A    between atoms: O_7  and  C_20
    5  A    between atoms: O_7  and  C_45
    6  A    between atoms: C_8  and  C_31
    7  A    between atoms: N_11  and  C_61
    8  A    between atoms: C_12  and  C_37
    9  A    between atoms: C_12  and  C_49
   10  A    between atoms: O_18  and  C_29
   11  A    between atoms: C_19  and  C_60
   12  A    between atoms: C_20  and  C_27
   13  A    between atoms: C_23  and  C_45
   14  A    between atoms: C_25  and  C_59
   15  A    between atoms: C_27  and  C_59
   16  A    between atoms: C_30  and  C_31
   17  A    between atoms: C_30  and  S_51
   18  A    between atoms: N_34  and  C_42
   19  A    between atoms: N_34  and  C_54
   20  A    between atoms: C_36  and  C_60
   21  A    between atoms: C_37  and  S_51
   22  A    between atoms: N_43  and  C_55
   23  A    between atoms: C_47  and  C_54
   24  A    between atoms: C_49  and  C_60
                            x       y       z     vdW  Elec       q    Type
                         _______ _______ _______ _____ _____    ______ ____

>  <TORSDO>
F 24

$$$$
=
 OpenBabel11042418393D

 67 75  0  0  1  0  0  0  0  0999 V2000
  189.6250  175.8400  143.5860 C   0  0  1  0  0  3  0  0  0  0  0  0
  183.2580  178.8650  143.5600 N   0  0  0  0  0  0  0  0  0  0  0  0
  184.0410  177.8740  141.5320 C   0  0  0  0  0  3  0  0  0  0  0  0
  186.3850  176.8760  145.1690 C   0  0  1  0  0  3  0  0  0  0  0  0
  186.2120  177.0340  143.8750 C   0  0  1  0  0  3  0  0  0  0  0  0
  182.7740  178.1070  140.9730 C   0  0  0  0  0  3  0  0  0  0  0  0
  187.7590  176.3450  145.4100 C   0  0  1  0  0  3  0  0  0  0  0  0
  185.3420  178.1630  143.6530 C   0  0  1  0  0  3  0  0  0  0  0  0
  185.5810  177.8590  145.9870 C   0  0  0  0  0  2  0  0  0  0  0  0
  188.2270  176.2360  143.9780 C   0  0  0  0  0  0  0  0  0  0  0  0
  183.6260  179.0050  144.8260 N   0  0  0  0  0  2  0  0  0  0  0  0
  181.7580  178.7240  141.7280 C   0  0  0  0  0  0  0  0  0  0  0  0
  187.3590  176.6850  143.1240 N   0  0  0  0  0  0  0  0  0  0  0  0
  184.2470  178.3060  142.8380 C   0  0  2  0  0  3  0  0  0  0  0  0
  182.0170  179.0860  143.0630 C   0  0  0  0  0  3  0  0  0  0  0  0
  184.9170  178.6070  144.8750 C   0  0  2  0  0  3  0  0  0  0  0  0
  188.5290  177.2970  146.0840 O   0  0  0  0  0  0  0  0  0  0  0  0
  189.1810  176.5820  147.0910 C   0  0  0  0  0  1  0  0  0  0  0  0
  180.4800  178.9610  141.1290 N   0  0  0  0  0  2  0  0  0  0  0  0
  178.9430  177.4950  142.0790 O   0  0  0  0  0  1  0  0  0  0  0  0
  179.2280  178.8450  141.8640 C   0  0  2  0  0  3  0  0  0  0  0  0
  178.2560  181.5790  140.0990 C   0  0  0  0  0  2  0  0  0  0  0  0
  178.0900  180.9000  141.3360 O   0  0  0  0  0  0  0  0  0  0  0  0
  178.4530  180.6030  139.0500 N   0  0  0  0  0  0  0  0  0  0  0  0
  178.0930  179.5030  141.0840 C   0  0  1  0  0  3  0  0  0  0  0  0
  178.3050  179.3390  139.6340 C   0  0  0  0  0  0  0  0  0  0  0  0
  177.8320  178.0130  138.7970 S   0  0  0  0  0  0  0  0  0  0  0  0
  177.9350  182.3490  137.4260 C   0  0  0  0  0  1  0  0  0  0  0  0
  178.3330  180.8990  137.6290 C   0  0  0  0  0  2  0  0  0  0  0  0
  190.4480  173.7760  142.3950 N   0  0  0  0  0  2  0  0  0  0  0  0
  189.6140  174.9320  142.3950 C   0  0  0  0  0  0  0  0  0  0  0  0
  188.8630  175.1790  141.4110 O   0  0  0  0  0  0  0  0  0  0  0  0
  191.0870  170.4500  141.0410 C   0  0  0  0  0  2  0  0  0  0  0  0
  191.6180  171.8180  141.4140 C   0  0  2  0  0  0  0  0  0  0  0  0
  190.1750  171.4550  141.7110 C   0  0  1  0  0  3  0  0  0  0  0  0
  190.5140  172.8620  141.2600 C   0  0  1  0  0  3  0  0  0  0  0  0
  192.3580  171.8080  142.7500 C   0  0  0  0  0  2  0  0  0  0  0  0
  193.0200  170.5910  142.9250 O   0  0  0  0  0  0  0  0  0  0  0  0
  194.2830  170.9370  143.4100 C   0  0  0  0  0  2  0  0  0  0  0  0
  194.9760  169.7160  144.0160 C   0  0  1  0  0  3  0  0  0  0  0  0
  196.4750  169.6040  143.6240 C   0  0  0  0  0  0  0  0  0  0  0  0
  197.0720  168.3230  144.1860 C   0  0  0  0  0  1  0  0  0  0  0  0
  197.3000  170.7700  144.1810 C   0  0  0  0  0  2  0  0  0  0  0  0
  197.7170  170.5240  145.4920 O   0  0  0  0  0  1  0  0  0  0  0  0
  196.8000  168.2390  141.6460 O   0  0  0  0  0  1  0  0  0  0  0  0
  196.6470  169.5520  142.1010 C   0  0  0  0  0  2  0  0  0  0  0  0
  194.7790  169.7260  145.5330 C   0  0  0  0  0  2  0  0  0  0  0  0
  194.6330  172.0620  146.0350 O   0  0  0  0  0  1  0  0  0  0  0  0
  193.8910  170.8810  145.9650 C   0  0  0  0  0  2  0  0  0  0  0  0
  190.5170  177.0540  143.3310 C   0  0  0  0  0  2  0  0  0  0  0  0
  191.9850  176.6580  143.2560 C   0  0  1  0  0  3  0  0  0  0  0  0
  192.7040  177.5590  142.4660 O   0  0  0  0  0  1  0  0  0  0  0  0
  192.5900  176.5730  144.6520 C   0  0  0  0  0  2  0  0  0  0  0  0
  193.1700  174.8910  145.0520 S   0  0  0  0  0  0  0  0  0  0  0  0
  193.8390  174.6480  143.3860 C   0  0  0  0  0  2  0  0  0  0  0  0
  195.3220  174.9850  143.3800 C   0  0  0  0  0  2  0  0  0  0  0  0
  195.6130  173.2190  138.8940 C   0  0  2  0  0  3  0  0  0  0  0  0
  196.2670  173.9510  137.8960 O   0  0  0  0  0  1  0  0  0  0  0  0
  195.0270  176.5710  141.1250 S   0  0  0  0  0  0  0  0  0  0  0  0
  195.8610  175.1840  141.9640 C   0  0  2  0  0  3  0  0  0  0  0  0
  194.9220  175.6200  139.5710 C   0  0  0  0  0  2  0  0  0  0  0  0
  197.8810  172.3510  139.1210 O   0  0  0  0  0  1  0  0  0  0  0  0
  194.9240  174.1410  139.9280 C   0  0  2  0  0  3  0  0  0  0  0  0
  197.4300  172.6590  141.9350 O   0  0  0  0  0  0  0  0  0  0  0  0
  195.6610  173.9940  141.1580 N   0  0  0  0  0  0  0  0  0  0  0  0
  196.6270  172.9740  141.0170 C   0  0  0  0  0  0  0  0  0  0  0  0
  196.6020  172.3350  139.6860 C   0  0  1  0  0  3  0  0  0  0  0  0
  1 50  1  6  0  0  0
  1 10  1  0  0  0  0
  2 11  1  0  0  0  0
  3 14  1  0  0  0  0
  4  7  1  0  0  0  0
  4  9  1  1  0  0  0
  5 13  1  6  0  0  0
  5  4  1  0  0  0  0
  6  3  2  0  0  0  0
  6 12  1  0  0  0  0
  7 17  1  1  0  0  0
  8  5  1  0  0  0  0
  8 16  1  0  0  0  0
 10  7  1  0  0  0  0
 11 16  1  0  0  0  0
 12 15  2  0  0  0  0
 13 10  2  0  0  0  0
 14  2  1  0  0  0  0
 14  8  1  0  0  0  0
 15  2  1  0  0  0  0
 16  9  1  0  0  0  0
 17 18  1  0  0  0  0
 19 12  1  0  0  0  0
 19 21  1  0  0  0  0
 21 20  1  0  0  0  0
 22 23  1  0  0  0  0
 24 26  1  0  0  0  0
 24 22  1  0  0  0  0
 25 23  1  0  0  0  0
 25 21  1  0  0  0  0
 26 25  1  0  0  0  0
 27 26  2  0  0  0  0
 28 29  1  0  0  0  0
 29 24  1  0  0  0  0
 31 30  1  0  0  0  0
 31  1  1  0  0  0  0
 32 31  2  0  0  0  0
 33 34  1  0  0  0  0
 33 35  1  0  0  0  0
 34 35  1  0  0  0  0
 34 37  1  0  0  0  0
 36 34  1  0  0  0  0
 36 35  1  0  0  0  0
 36 30  1  0  0  0  0
 37 38  1  0  0  0  0
 38 39  1  0  0  0  0
 39 40  1  0  0  0  0
 40 47  1  0  0  0  0
 41 40  1  0  0  0  0
 41 43  1  0  0  0  0
 41 42  1  0  0  0  0
 43 44  1  0  0  0  0
 45 46  1  0  0  0  0
 46 41  1  0  0  0  0
 47 49  1  0  0  0  0
 49 48  1  0  0  0  0
 51 50  1  0  0  0  0
 51 53  1  0  0  0  0
 52 51  1  0  0  0  0
 53 54  1  0  0  0  0
 55 54  1  0  0  0  0
 56 55  1  0  0  0  0
 57 67  1  0  0  0  0
 57 63  1  0  0  0  0
 58 57  1  0  0  0  0
 59 60  1  0  0  0  0
 60 56  1  0  0  0  0
 61 63  1  0  0  0  0
 61 59  1  0  0  0  0
 62 67  1  0  0  0  0
 63 65  1  0  0  0  0
 65 60  1  0  0  0  0
 66 65  1  0  0  0  0
 66 64  2  0  0  0  0
 67 66  1  0  0  0  0
M  END
>  <MODEL>
9

>  <REMARK>
 VINA RESULT:      -4.0      2.401      5.044
  Name = 
  24 active torsions:
  status: ('A' for Active; 'I' for Inactive)
    1  A    between atoms: C_3  and  C_15
    2  A    between atoms: C_3  and  C_17
    3  A    between atoms: C_3  and  C_27
    4  A    between atoms: O_7  and  C_20
    5  A    between atoms: O_7  and  C_45
    6  A    between atoms: C_8  and  C_31
    7  A    between atoms: N_11  and  C_61
    8  A    between atoms: C_12  and  C_37
    9  A    between atoms: C_12  and  C_49
   10  A    between atoms: O_18  and  C_29
   11  A    between atoms: C_19  and  C_60
   12  A    between atoms: C_20  and  C_27
   13  A    between atoms: C_23  and  C_45
   14  A    between atoms: C_25  and  C_59
   15  A    between atoms: C_27  and  C_59
   16  A    between atoms: C_30  and  C_31
   17  A    between atoms: C_30  and  S_51
   18  A    between atoms: N_34  and  C_42
   19  A    between atoms: N_34  and  C_54
   20  A    between atoms: C_36  and  C_60
   21  A    between atoms: C_37  and  S_51
   22  A    between atoms: N_43  and  C_55
   23  A    between atoms: C_47  and  C_54
   24  A    between atoms: C_49  and  C_60
                            x       y       z     vdW  Elec       q    Type
                         _______ _______ _______ _____ _____    ______ ____

>  <TORSDO>
F 24

$$$$
