=
 OpenBabel11042416373D

 32 33  0  0  1  0  0  0  0  0999 V2000
  192.4480  175.6510  145.1940 C   0  0  1  0  0  3  0  0  0  0  0  0
  193.8330  175.9310  144.6810 C   0  0  1  0  0  3  0  0  0  0  0  0
  192.4180  176.3370  146.5480 C   0  0  2  0  0  3  0  0  0  0  0  0
  194.4130  176.8670  145.7170 C   0  0  0  0  0  2  0  0  0  0  0  0
  193.7300  176.6640  146.9240 O   0  0  0  0  0  0  0  0  0  0  0  0
  191.4680  176.2610  144.3070 N   0  0  0  0  0  2  0  0  0  0  0  0
  190.3950  175.5210  143.7150 C   0  0  0  0  0  0  0  0  0  0  0  0
  190.2940  174.2810  143.9200 O   0  0  0  0  0  0  0  0  0  0  0  0
  188.6040  178.2300  141.7770 C   0  0  0  0  0  3  0  0  0  0  0  0
  189.5470  177.5750  142.5770 C   0  0  0  0  0  3  0  0  0  0  0  0
  187.3660  176.1610  141.5450 C   0  0  0  0  0  3  0  0  0  0  0  0
  189.4060  176.2090  142.8650 C   0  0  0  0  0  0  0  0  0  0  0  0
  187.5140  177.5230  141.2620 C   0  0  0  0  0  0  0  0  0  0  0  0
  188.3090  175.5070  142.3430 C   0  0  0  0  0  3  0  0  0  0  0  0
  186.5950  178.1580  140.4930 F   0  0  0  0  0  0  0  0  0  0  0  0
  194.5680  174.7430  144.6700 O   0  0  0  0  0  0  0  0  0  0  0  0
  195.8670  175.1330  144.3370 C   0  0  0  0  0  2  0  0  0  0  0  0
  196.0040  175.2070  142.8270 C   0  0  0  0  0  2  0  0  0  0  0  0
  196.1400  177.0840  141.2650 O   0  0  0  0  0  0  0  0  0  0  0  0
  196.5350  176.5050  142.4460 N   0  0  0  0  0  0  0  0  0  0  0  0
  197.2110  177.1620  143.2620 O   0  0  0  0  0  0  0  0  0  0  0  0
  191.7660  175.4500  147.6000 C   0  0  0  0  0  2  0  0  0  0  0  0
  190.4730  175.8930  147.8930 O   0  0  0  0  0  0  0  0  0  0  0  0
  189.6320  174.9210  147.3460 C   0  0  0  0  0  2  0  0  0  0  0  0
  188.3680  175.5680  146.8030 C   0  0  0  0  0  2  0  0  0  0  0  0
  188.5740  177.0590  146.6160 C   0  0  0  0  0  2  0  0  0  0  0  0
  185.3850  178.8590  147.1720 N   0  0  0  0  0  2  0  0  0  0  0  0
  186.2950  178.2250  146.5120 C   0  0  0  0  0  0  0  0  0  0  0  0
  187.4620  177.7780  147.2150 N   0  0  0  0  0  2  0  0  0  0  0  0
  186.1880  179.0230  144.1630 O   0  0  0  0  0  0  0  0  0  0  0  0
  185.8110  176.8210  144.6390 O   0  0  0  0  0  1  0  0  0  0  0  0
  186.0830  177.9720  145.0690 C   0  0  0  0  0  0  0  0  0  0  0  0
  1  6  1  6  0  0  0
  1  3  1  0  0  0  0
  2 16  1  1  0  0  0
  2  1  1  0  0  0  0
  2  4  1  0  0  0  0
  3  5  1  0  0  0  0
  3 22  1  1  0  0  0
  4  5  1  0  0  0  0
  7  8  2  0  0  0  0
  7  6  1  0  0  0  0
  9 10  1  0  0  0  0
 10 12  2  0  0  0  0
 11 14  2  0  0  0  0
 12  7  1  0  0  0  0
 13 11  1  0  0  0  0
 13  9  2  0  0  0  0
 14 12  1  0  0  0  0
 15 13  1  0  0  0  0
 17 16  1  0  0  0  0
 18 17  1  0  0  0  0
 19 20  2  0  0  0  0
 20 18  1  0  0  0  0
 20 21  2  0  0  0  0
 22 23  1  0  0  0  0
 24 23  1  0  0  0  0
 25 24  1  0  0  0  0
 26 25  1  0  0  0  0
 26 29  1  0  0  0  0
 28 27  2  0  0  0  0
 28 29  1  0  0  0  0
 30 32  2  0  0  0  0
 31 32  1  0  0  0  0
 32 28  1  0  0  0  0
M  END
>  <MODEL>
1

>  <REMARK>
 VINA RESULT:      -6.1      0.000      0.000
  Name = 
  13 active torsions:
  status: ('A' for Active; 'I' for Inactive)
    1  A    between atoms: N_2  and  C_11
    2  A    between atoms: C_4  and  C_15
    3  A    between atoms: C_4  and  O_16
    4  A    between atoms: O_7  and  C_14
    5  A    between atoms: O_7  and  C_18
    6  A    between atoms: C_9  and  C_29
    7  A    between atoms: C_10  and  C_21
    8  A    between atoms: C_15  and  C_20
    9  A    between atoms: O_16  and  C_23
   10  A    between atoms: C_17  and  C_23
   11  A    between atoms: C_18  and  C_24
   12  A    between atoms: C_20  and  N_30
   13  A    between atoms: C_24  and  N_25
                            x       y       z     vdW  Elec       q    Type
                         _______ _______ _______ _____ _____    ______ ____

>  <TORSDO>
F 13

$$$$
=
 OpenBabel11042416373D

 32 33  0  0  1  0  0  0  0  0999 V2000
  190.4830  175.0830  144.1380 C   0  0  1  0  0  3  0  0  0  0  0  0
  191.6900  174.9230  145.0200 C   0  0  1  0  0  3  0  0  0  0  0  0
  190.2380  173.6840  143.6030 C   0  0  2  0  0  3  0  0  0  0  0  0
  191.9320  173.4310  145.0220 C   0  0  0  0  0  2  0  0  0  0  0  0
  191.3680  172.8920  143.8580 O   0  0  0  0  0  0  0  0  0  0  0  0
  189.3470  175.5140  144.9410 N   0  0  0  0  0  2  0  0  0  0  0  0
  188.9130  176.8760  144.9980 C   0  0  0  0  0  0  0  0  0  0  0  0
  189.5460  177.7680  144.3700 O   0  0  0  0  0  0  0  0  0  0  0  0
  186.7310  178.3160  147.7310 C   0  0  0  0  0  3  0  0  0  0  0  0
  187.8590  177.9810  146.9740 C   0  0  0  0  0  3  0  0  0  0  0  0
  185.3190  177.1700  146.1330 C   0  0  0  0  0  3  0  0  0  0  0  0
  187.7240  177.2380  145.7910 C   0  0  0  0  0  0  0  0  0  0  0  0
  185.4620  177.9110  147.3100 C   0  0  0  0  0  0  0  0  0  0  0  0
  186.4450  176.8350  145.3770 C   0  0  0  0  0  3  0  0  0  0  0  0
  184.3690  178.2290  148.0470 F   0  0  0  0  0  0  0  0  0  0  0  0
  192.7800  175.5670  144.4290 O   0  0  0  0  0  0  0  0  0  0  0  0
  192.8660  176.7950  145.0860 C   0  0  0  0  0  2  0  0  0  0  0  0
  194.3220  177.1210  145.3660 C   0  0  0  0  0  2  0  0  0  0  0  0
  195.8920  175.6080  144.2580 O   0  0  0  0  0  0  0  0  0  0  0  0
  195.1100  175.9000  145.3490 N   0  0  0  0  0  0  0  0  0  0  0  0
  195.2070  175.2090  146.3830 O   0  0  0  0  0  0  0  0  0  0  0  0
  189.9290  173.7110  142.1120 C   0  0  0  0  0  2  0  0  0  0  0  0
  188.5580  173.8650  141.8910 O   0  0  0  0  0  0  0  0  0  0  0  0
  188.4440  175.0660  141.1850 C   0  0  0  0  0  2  0  0  0  0  0  0
  187.3730  175.9410  141.8140 C   0  0  0  0  0  2  0  0  0  0  0  0
  187.4600  177.3570  141.2760 C   0  0  0  0  0  2  0  0  0  0  0  0
  184.0600  178.4210  140.2600 N   0  0  0  0  0  2  0  0  0  0  0  0
  185.0550  178.2120  141.0570 C   0  0  0  0  0  0  0  0  0  0  0  0
  186.2590  177.6560  140.5130 N   0  0  0  0  0  2  0  0  0  0  0  0
  185.8640  179.3890  143.0880 O   0  0  0  0  0  0  0  0  0  0  0  0
  183.9420  178.1580  143.1720 O   0  0  0  0  0  1  0  0  0  0  0  0
  184.9120  178.5720  142.4850 C   0  0  0  0  0  0  0  0  0  0  0  0
  1  6  1  1  0  0  0
  1  2  1  0  0  0  0
  2 16  1  6  0  0  0
  2  4  1  0  0  0  0
  3 22  1  6  0  0  0
  3  5  1  0  0  0  0
  3  1  1  0  0  0  0
  5  4  1  0  0  0  0
  6  7  1  0  0  0  0
  7 12  1  0  0  0  0
  8  7  2  0  0  0  0
 10  9  2  0  0  0  0
 11 13  2  0  0  0  0
 12 10  1  0  0  0  0
 13  9  1  0  0  0  0
 13 15  1  0  0  0  0
 14 12  2  0  0  0  0
 14 11  1  0  0  0  0
 16 17  1  0  0  0  0
 17 18  1  0  0  0  0
 19 20  2  0  0  0  0
 20 18  1  0  0  0  0
 20 21  2  0  0  0  0
 23 22  1  0  0  0  0
 24 25  1  0  0  0  0
 24 23  1  0  0  0  0
 26 25  1  0  0  0  0
 27 28  2  0  0  0  0
 28 32  1  0  0  0  0
 29 28  1  0  0  0  0
 29 26  1  0  0  0  0
 32 30  2  0  0  0  0
 32 31  1  0  0  0  0
M  END
>  <MODEL>
2

>  <REMARK>
 VINA RESULT:      -5.9      2.851      4.709
  Name = 
  13 active torsions:
  status: ('A' for Active; 'I' for Inactive)
    1  A    between atoms: N_2  and  C_11
    2  A    between atoms: C_4  and  C_15
    3  A    between atoms: C_4  and  O_16
    4  A    between atoms: O_7  and  C_14
    5  A    between atoms: O_7  and  C_18
    6  A    between atoms: C_9  and  C_29
    7  A    between atoms: C_10  and  C_21
    8  A    between atoms: C_15  and  C_20
    9  A    between atoms: O_16  and  C_23
   10  A    between atoms: C_17  and  C_23
   11  A    between atoms: C_18  and  C_24
   12  A    between atoms: C_20  and  N_30
   13  A    between atoms: C_24  and  N_25
                            x       y       z     vdW  Elec       q    Type
                         _______ _______ _______ _____ _____    ______ ____

>  <TORSDO>
F 13

$$$$
=
 OpenBabel11042416373D

 32 33  0  0  1  0  0  0  0  0999 V2000
  191.0330  175.4710  144.8890 C   0  0  1  0  0  3  0  0  0  0  0  0
  192.0130  176.0870  145.8480 C   0  0  1  0  0  3  0  0  0  0  0  0
  191.3190  173.9840  144.9830 C   0  0  2  0  0  3  0  0  0  0  0  0
  192.6650  174.8910  146.5050 C   0  0  0  0  0  2  0  0  0  0  0  0
  192.5450  173.7940  145.6400 O   0  0  0  0  0  0  0  0  0  0  0  0
  189.6760  175.7460  145.3380 N   0  0  0  0  0  2  0  0  0  0  0  0
  189.0740  177.0410  145.2390 C   0  0  0  0  0  0  0  0  0  0  0  0
  189.7380  178.0120  144.7850 O   0  0  0  0  0  0  0  0  0  0  0  0
  186.0580  177.7690  147.4000 C   0  0  0  0  0  3  0  0  0  0  0  0
  187.3840  177.5900  146.9930 C   0  0  0  0  0  3  0  0  0  0  0  0
  185.3000  177.2500  145.1600 C   0  0  0  0  0  3  0  0  0  0  0  0
  187.6770  177.2390  145.6660 C   0  0  0  0  0  0  0  0  0  0  0  0
  185.0170  177.6000  146.4840 C   0  0  0  0  0  0  0  0  0  0  0  0
  186.6250  177.0710  144.7530 C   0  0  0  0  0  3  0  0  0  0  0  0
  183.7310  177.7670  146.8790 F   0  0  0  0  0  0  0  0  0  0  0  0
  192.9760  176.7980  145.1270 O   0  0  0  0  0  0  0  0  0  0  0  0
  194.1040  176.8030  145.9510 C   0  0  0  0  0  2  0  0  0  0  0  0
  195.2660  177.4480  145.2190 C   0  0  0  0  0  2  0  0  0  0  0  0
  196.6720  176.9280  143.2860 O   0  0  0  0  0  0  0  0  0  0  0  0
  195.8630  176.4870  144.3050 N   0  0  0  0  0  0  0  0  0  0  0  0
  195.7780  175.2670  144.5460 O   0  0  0  0  0  0  0  0  0  0  0  0
  191.3470  173.3410  143.6020 C   0  0  0  0  0  2  0  0  0  0  0  0
  191.2170  174.3070  142.6010 O   0  0  0  0  0  0  0  0  0  0  0  0
  190.3020  173.7620  141.6970 C   0  0  0  0  0  2  0  0  0  0  0  0
  188.9090  173.7570  142.3040 C   0  0  0  0  0  2  0  0  0  0  0  0
  188.0270  174.7830  141.6180 C   0  0  0  0  0  2  0  0  0  0  0  0
  188.5830  178.4460  141.6480 N   0  0  0  0  0  2  0  0  0  0  0  0
  187.9720  177.3360  141.3990 C   0  0  0  0  0  0  0  0  0  0  0  0
  188.5820  176.1110  141.8270 N   0  0  0  0  0  2  0  0  0  0  0  0
  185.5010  177.5770  141.4420 O   0  0  0  0  0  1  0  0  0  0  0  0
  186.5830  177.2490  139.4570 O   0  0  0  0  0  0  0  0  0  0  0  0
  186.6660  177.3810  140.7060 C   0  0  0  0  0  0  0  0  0  0  0  0
  1  3  1  0  0  0  0
  1  6  1  1  0  0  0
  1  2  1  0  0  0  0
  2 16  1  6  0  0  0
  2  4  1  0  0  0  0
  3 22  1  6  0  0  0
  3  5  1  0  0  0  0
  5  4  1  0  0  0  0
  7  6  1  0  0  0  0
  7 12  1  0  0  0  0
  8  7  2  0  0  0  0
 10  9  1  0  0  0  0
 11 13  1  0  0  0  0
 12 10  2  0  0  0  0
 13 15  1  0  0  0  0
 13  9  2  0  0  0  0
 14 11  2  0  0  0  0
 14 12  1  0  0  0  0
 16 17  1  0  0  0  0
 18 17  1  0  0  0  0
 19 20  2  0  0  0  0
 20 21  2  0  0  0  0
 20 18  1  0  0  0  0
 23 22  1  0  0  0  0
 24 25  1  0  0  0  0
 24 23  1  0  0  0  0
 26 29  1  0  0  0  0
 26 25  1  0  0  0  0
 28 27  2  0  0  0  0
 28 29  1  0  0  0  0
 31 32  2  0  0  0  0
 32 28  1  0  0  0  0
 32 30  1  0  0  0  0
M  END
>  <MODEL>
3

>  <REMARK>
 VINA RESULT:      -5.8      2.536      4.296
  Name = 
  13 active torsions:
  status: ('A' for Active; 'I' for Inactive)
    1  A    between atoms: N_2  and  C_11
    2  A    between atoms: C_4  and  C_15
    3  A    between atoms: C_4  and  O_16
    4  A    between atoms: O_7  and  C_14
    5  A    between atoms: O_7  and  C_18
    6  A    between atoms: C_9  and  C_29
    7  A    between atoms: C_10  and  C_21
    8  A    between atoms: C_15  and  C_20
    9  A    between atoms: O_16  and  C_23
   10  A    between atoms: C_17  and  C_23
   11  A    between atoms: C_18  and  C_24
   12  A    between atoms: C_20  and  N_30
   13  A    between atoms: C_24  and  N_25
                            x       y       z     vdW  Elec       q    Type
                         _______ _______ _______ _____ _____    ______ ____

>  <TORSDO>
F 13

$$$$
=
 OpenBabel11042416373D

 32 33  0  0  1  0  0  0  0  0999 V2000
  187.5820  177.1610  144.9140 C   0  0  1  0  0  3  0  0  0  0  0  0
  186.1170  177.4230  144.7080 C   0  0  1  0  0  3  0  0  0  0  0  0
  187.6870  176.8270  146.3910 C   0  0  2  0  0  3  0  0  0  0  0  0
  185.5040  177.0750  146.0460 C   0  0  0  0  0  2  0  0  0  0  0  0
  186.4940  177.1990  147.0300 O   0  0  0  0  0  0  0  0  0  0  0  0
  187.9880  176.0130  144.1150 N   0  0  0  0  0  2  0  0  0  0  0  0
  188.7890  176.1350  142.9350 C   0  0  0  0  0  0  0  0  0  0  0  0
  189.1370  177.2760  142.5240 O   0  0  0  0  0  0  0  0  0  0  0  0
  188.6550  172.8320  141.1000 C   0  0  0  0  0  3  0  0  0  0  0  0
  188.2560  173.9820  141.7900 C   0  0  0  0  0  3  0  0  0  0  0  0
  190.9610  173.5610  141.2200 C   0  0  0  0  0  3  0  0  0  0  0  0
  189.2070  174.9280  142.2000 C   0  0  0  0  0  0  0  0  0  0  0  0
  190.0060  172.6220  140.8150 C   0  0  0  0  0  0  0  0  0  0  0  0
  190.5630  174.7090  141.9090 C   0  0  0  0  0  3  0  0  0  0  0  0
  190.3940  171.5040  140.1530 F   0  0  0  0  0  0  0  0  0  0  0  0
  185.9250  178.7830  144.4530 O   0  0  0  0  0  0  0  0  0  0  0  0
  185.8920  178.8820  143.0610 C   0  0  0  0  0  2  0  0  0  0  0  0
  184.5880  178.3050  142.5410 C   0  0  0  0  0  2  0  0  0  0  0  0
  183.4630  178.2120  140.3710 O   0  0  0  0  0  0  0  0  0  0  0  0
  184.6330  178.2220  141.0900 N   0  0  0  0  0  0  0  0  0  0  0  0
  185.7250  178.3290  140.4960 O   0  0  0  0  0  0  0  0  0  0  0  0
  188.8780  177.5290  147.0310 C   0  0  0  0  0  2  0  0  0  0  0  0
  190.0800  177.0540  146.5010 O   0  0  0  0  0  0  0  0  0  0  0  0
  190.9100  176.8700  147.6100 C   0  0  0  0  0  2  0  0  0  0  0  0
  191.2750  175.4010  147.7510 C   0  0  0  0  0  2  0  0  0  0  0  0
  192.3130  175.0090  146.7160 C   0  0  0  0  0  2  0  0  0  0  0  0
  194.7690  177.5810  145.6790 N   0  0  0  0  0  2  0  0  0  0  0  0
  193.8050  176.7330  145.5460 C   0  0  0  0  0  0  0  0  0  0  0  0
  193.3760  176.0010  146.7020 N   0  0  0  0  0  2  0  0  0  0  0  0
  193.6810  175.6240  143.3280 O   0  0  0  0  0  0  0  0  0  0  0  0
  192.1890  177.2690  143.8680 O   0  0  0  0  0  1  0  0  0  0  0  0
  193.1770  176.5700  144.2160 C   0  0  0  0  0  0  0  0  0  0  0  0
  1  6  1  6  0  0  0
  1  3  1  0  0  0  0
  2 16  1  1  0  0  0
  2  1  1  0  0  0  0
  2  4  1  0  0  0  0
  3  5  1  0  0  0  0
  3 22  1  1  0  0  0
  4  5  1  0  0  0  0
  7  6  1  0  0  0  0
  8  7  2  0  0  0  0
  9 10  1  0  0  0  0
 10 12  2  0  0  0  0
 11 14  2  0  0  0  0
 12  7  1  0  0  0  0
 13  9  2  0  0  0  0
 13 11  1  0  0  0  0
 14 12  1  0  0  0  0
 15 13  1  0  0  0  0
 17 16  1  0  0  0  0
 18 17  1  0  0  0  0
 19 20  2  0  0  0  0
 20 18  1  0  0  0  0
 21 20  2  0  0  0  0
 23 22  1  0  0  0  0
 23 24  1  0  0  0  0
 24 25  1  0  0  0  0
 26 25  1  0  0  0  0
 28 27  2  0  0  0  0
 28 29  1  0  0  0  0
 29 26  1  0  0  0  0
 30 32  2  0  0  0  0
 31 32  1  0  0  0  0
 32 28  1  0  0  0  0
M  END
>  <MODEL>
4

>  <REMARK>
 VINA RESULT:      -5.6      2.928      7.140
  Name = 
  13 active torsions:
  status: ('A' for Active; 'I' for Inactive)
    1  A    between atoms: N_2  and  C_11
    2  A    between atoms: C_4  and  C_15
    3  A    between atoms: C_4  and  O_16
    4  A    between atoms: O_7  and  C_14
    5  A    between atoms: O_7  and  C_18
    6  A    between atoms: C_9  and  C_29
    7  A    between atoms: C_10  and  C_21
    8  A    between atoms: C_15  and  C_20
    9  A    between atoms: O_16  and  C_23
   10  A    between atoms: C_17  and  C_23
   11  A    between atoms: C_18  and  C_24
   12  A    between atoms: C_20  and  N_30
   13  A    between atoms: C_24  and  N_25
                            x       y       z     vdW  Elec       q    Type
                         _______ _______ _______ _____ _____    ______ ____

>  <TORSDO>
F 13

$$$$
=
 OpenBabel11042416373D

 32 33  0  0  1  0  0  0  0  0999 V2000
  190.3530  175.4380  144.4560 C   0  0  1  0  0  3  0  0  0  0  0  0
  190.4360  174.5270  143.2630 C   0  0  1  0  0  3  0  0  0  0  0  0
  191.4280  176.4780  144.1940 C   0  0  2  0  0  3  0  0  0  0  0  0
  191.4450  175.2090  142.3670 C   0  0  0  0  0  2  0  0  0  0  0  0
  192.2640  176.0210  143.1640 O   0  0  0  0  0  0  0  0  0  0  0  0
  189.0440  176.0760  144.4910 N   0  0  0  0  0  2  0  0  0  0  0  0
  188.3730  176.4010  145.7130 C   0  0  0  0  0  0  0  0  0  0  0  0
  188.8960  176.0970  146.8200 O   0  0  0  0  0  0  0  0  0  0  0  0
  185.6270  178.8240  144.7730 C   0  0  0  0  0  3  0  0  0  0  0  0
  186.8600  178.1630  144.7980 C   0  0  0  0  0  3  0  0  0  0  0  0
  184.8010  177.3490  146.5060 C   0  0  0  0  0  3  0  0  0  0  0  0
  187.0720  177.0910  145.6780 C   0  0  0  0  0  0  0  0  0  0  0  0
  184.5990  178.4170  145.6260 C   0  0  0  0  0  0  0  0  0  0  0  0
  186.0330  176.6890  146.5320 C   0  0  0  0  0  3  0  0  0  0  0  0
  183.4060  179.0610  145.6070 F   0  0  0  0  0  0  0  0  0  0  0  0
  190.9400  173.2880  143.6650 O   0  0  0  0  0  0  0  0  0  0  0  0
  189.8150  172.4720  143.7940 C   0  0  0  0  0  2  0  0  0  0  0  0
  189.2240  172.2000  142.4230 C   0  0  0  0  0  2  0  0  0  0  0  0
  190.7980  171.9060  140.5740 O   0  0  0  0  0  0  0  0  0  0  0  0
  190.1360  171.3710  141.6520 N   0  0  0  0  0  0  0  0  0  0  0  0
  190.4430  170.2360  142.0670 O   0  0  0  0  0  0  0  0  0  0  0  0
  192.2370  176.7610  145.4530 C   0  0  0  0  0  2  0  0  0  0  0  0
  193.5890  176.9380  145.1450 O   0  0  0  0  0  0  0  0  0  0  0  0
  194.2750  176.2470  146.1470 C   0  0  0  0  0  2  0  0  0  0  0  0
  193.9900  174.7570  146.0420 C   0  0  0  0  0  2  0  0  0  0  0  0
  195.1270  174.0470  145.3340 C   0  0  0  0  0  2  0  0  0  0  0  0
  195.3020  174.7400  141.6990 N   0  0  0  0  0  2  0  0  0  0  0  0
  195.6340  174.8200  142.9440 C   0  0  0  0  0  0  0  0  0  0  0  0
  194.8840  174.0590  143.9000 N   0  0  0  0  0  2  0  0  0  0  0  0
  196.5820  177.0310  143.5570 O   0  0  0  0  0  1  0  0  0  0  0  0
  197.9410  175.1990  143.4410 O   0  0  0  0  0  0  0  0  0  0  0  0
  196.7820  175.6740  143.3220 C   0  0  0  0  0  0  0  0  0  0  0  0
  1  6  1  6  0  0  0
  2 16  1  1  0  0  0
  2  1  1  0  0  0  0
  3  1  1  0  0  0  0
  3 22  1  1  0  0  0
  4  5  1  0  0  0  0
  4  2  1  0  0  0  0
  5  3  1  0  0  0  0
  6  7  1  0  0  0  0
  7  8  2  0  0  0  0
  9 10  2  0  0  0  0
  9 13  1  0  0  0  0
 10 12  1  0  0  0  0
 11 14  1  0  0  0  0
 12  7  1  0  0  0  0
 12 14  2  0  0  0  0
 13 11  2  0  0  0  0
 15 13  1  0  0  0  0
 16 17  1  0  0  0  0
 18 17  1  0  0  0  0
 19 20  2  0  0  0  0
 20 21  2  0  0  0  0
 20 18  1  0  0  0  0
 23 22  1  0  0  0  0
 23 24  1  0  0  0  0
 25 24  1  0  0  0  0
 26 25  1  0  0  0  0
 27 28  2  0  0  0  0
 28 32  1  0  0  0  0
 28 29  1  0  0  0  0
 29 26  1  0  0  0  0
 32 31  2  0  0  0  0
 32 30  1  0  0  0  0
M  END
>  <MODEL>
5

>  <REMARK>
 VINA RESULT:      -5.6      2.702      6.745
  Name = 
  13 active torsions:
  status: ('A' for Active; 'I' for Inactive)
    1  A    between atoms: N_2  and  C_11
    2  A    between atoms: C_4  and  C_15
    3  A    between atoms: C_4  and  O_16
    4  A    between atoms: O_7  and  C_14
    5  A    between atoms: O_7  and  C_18
    6  A    between atoms: C_9  and  C_29
    7  A    between atoms: C_10  and  C_21
    8  A    between atoms: C_15  and  C_20
    9  A    between atoms: O_16  and  C_23
   10  A    between atoms: C_17  and  C_23
   11  A    between atoms: C_18  and  C_24
   12  A    between atoms: C_20  and  N_30
   13  A    between atoms: C_24  and  N_25
                            x       y       z     vdW  Elec       q    Type
                         _______ _______ _______ _____ _____    ______ ____

>  <TORSDO>
F 13

$$$$
=
 OpenBabel11042416373D

 32 33  0  0  1  0  0  0  0  0999 V2000
  189.8540  174.8190  144.1070 C   0  0  1  0  0  3  0  0  0  0  0  0
  190.3230  173.9890  145.2690 C   0  0  1  0  0  3  0  0  0  0  0  0
  189.6690  173.8090  142.9890 C   0  0  2  0  0  3  0  0  0  0  0  0
  190.2240  172.5710  144.7530 C   0  0  0  0  0  2  0  0  0  0  0  0
  190.2940  172.6060  143.3540 O   0  0  0  0  0  0  0  0  0  0  0  0
  188.5770  175.4370  144.4340 N   0  0  0  0  0  2  0  0  0  0  0  0
  188.3910  176.8550  144.4820 C   0  0  0  0  0  0  0  0  0  0  0  0
  189.3680  177.6260  144.2750 O   0  0  0  0  0  0  0  0  0  0  0  0
  185.2820  178.9960  144.2670 C   0  0  0  0  0  3  0  0  0  0  0  0
  186.5430  178.4580  143.9860 C   0  0  0  0  0  3  0  0  0  0  0  0
  185.0380  177.4560  146.1190 C   0  0  0  0  0  3  0  0  0  0  0  0
  187.0590  177.4160  144.7700 C   0  0  0  0  0  0  0  0  0  0  0  0
  184.5300  178.4940  145.3320 C   0  0  0  0  0  0  0  0  0  0  0  0
  186.2970  176.9180  145.8390 C   0  0  0  0  0  3  0  0  0  0  0  0
  183.3110  179.0200  145.6090 F   0  0  0  0  0  0  0  0  0  0  0  0
  191.6610  174.2890  145.5380 O   0  0  0  0  0  0  0  0  0  0  0  0
  191.6320  175.5680  146.0960 C   0  0  0  0  0  2  0  0  0  0  0  0
  191.1320  175.4880  147.5270 C   0  0  0  0  0  2  0  0  0  0  0  0
  191.6060  177.4480  148.9110 O   0  0  0  0  0  0  0  0  0  0  0  0
  190.7910  176.8190  148.0020 N   0  0  0  0  0  0  0  0  0  0  0  0
  189.8600  177.4500  147.4640 O   0  0  0  0  0  0  0  0  0  0  0  0
  190.2390  174.3310  141.6760 C   0  0  0  0  0  2  0  0  0  0  0  0
  191.1550  173.4240  141.1370 O   0  0  0  0  0  0  0  0  0  0  0  0
  192.2610  174.2020  140.7850 C   0  0  0  0  0  2  0  0  0  0  0  0
  193.2170  174.3140  141.9610 C   0  0  0  0  0  2  0  0  0  0  0  0
  193.7320  175.7340  142.0930 C   0  0  0  0  0  2  0  0  0  0  0  0
  194.9780  176.5580  145.4830 N   0  0  0  0  0  2  0  0  0  0  0  0
  195.0470  176.2530  144.2300 C   0  0  0  0  0  0  0  0  0  0  0  0
  193.8240  176.0840  143.5020 N   0  0  0  0  0  2  0  0  0  0  0  0
  197.0130  174.8720  143.6030 O   0  0  0  0  0  1  0  0  0  0  0  0
  196.9570  177.0920  143.0630 O   0  0  0  0  0  0  0  0  0  0  0  0
  196.3800  176.1120  143.6030 C   0  0  0  0  0  0  0  0  0  0  0  0
  1  6  1  1  0  0  0
  1  2  1  0  0  0  0
  2 16  1  6  0  0  0
  3 22  1  6  0  0  0
  3  5  1  0  0  0  0
  3  1  1  0  0  0  0
  4  2  1  0  0  0  0
  5  4  1  0  0  0  0
  6  7  1  0  0  0  0
  7 12  1  0  0  0  0
  8  7  2  0  0  0  0
  9 13  1  0  0  0  0
 10  9  2  0  0  0  0
 10 12  1  0  0  0  0
 12 14  2  0  0  0  0
 13 15  1  0  0  0  0
 13 11  2  0  0  0  0
 14 11  1  0  0  0  0
 16 17  1  0  0  0  0
 17 18  1  0  0  0  0
 18 20  1  0  0  0  0
 20 19  2  0  0  0  0
 21 20  2  0  0  0  0
 23 22  1  0  0  0  0
 24 23  1  0  0  0  0
 24 25  1  0  0  0  0
 25 26  1  0  0  0  0
 26 29  1  0  0  0  0
 28 27  2  0  0  0  0
 29 28  1  0  0  0  0
 31 32  2  0  0  0  0
 32 30  1  0  0  0  0
 32 28  1  0  0  0  0
M  END
>  <MODEL>
6

>  <REMARK>
 VINA RESULT:      -5.6      2.619      6.741
  Name = 
  13 active torsions:
  status: ('A' for Active; 'I' for Inactive)
    1  A    between atoms: N_2  and  C_11
    2  A    between atoms: C_4  and  C_15
    3  A    between atoms: C_4  and  O_16
    4  A    between atoms: O_7  and  C_14
    5  A    between atoms: O_7  and  C_18
    6  A    between atoms: C_9  and  C_29
    7  A    between atoms: C_10  and  C_21
    8  A    between atoms: C_15  and  C_20
    9  A    between atoms: O_16  and  C_23
   10  A    between atoms: C_17  and  C_23
   11  A    between atoms: C_18  and  C_24
   12  A    between atoms: C_20  and  N_30
   13  A    between atoms: C_24  and  N_25
                            x       y       z     vdW  Elec       q    Type
                         _______ _______ _______ _____ _____    ______ ____

>  <TORSDO>
F 13

$$$$
=
 OpenBabel11042416373D

 32 33  0  0  1  0  0  0  0  0999 V2000
  190.9000  175.8330  144.8920 C   0  0  1  0  0  3  0  0  0  0  0  0
  191.9430  176.4740  145.7630 C   0  0  1  0  0  3  0  0  0  0  0  0
  191.0270  174.3530  145.2030 C   0  0  2  0  0  3  0  0  0  0  0  0
  192.4670  175.3240  146.5930 C   0  0  0  0  0  2  0  0  0  0  0  0
  192.2290  174.1330  145.8940 O   0  0  0  0  0  0  0  0  0  0  0  0
  189.5800  176.3100  145.2820 N   0  0  0  0  0  2  0  0  0  0  0  0
  188.8900  177.3450  144.5730 C   0  0  0  0  0  0  0  0  0  0  0  0
  189.4420  177.9130  143.5910 O   0  0  0  0  0  0  0  0  0  0  0  0
  185.3540  178.6780  144.4560 C   0  0  0  0  0  3  0  0  0  0  0  0
  186.6370  178.2880  144.0570 C   0  0  0  0  0  3  0  0  0  0  0  0
  185.8500  177.9900  146.7230 C   0  0  0  0  0  3  0  0  0  0  0  0
  187.5350  177.7470  144.9900 C   0  0  0  0  0  0  0  0  0  0  0  0
  184.9610  178.5280  145.7880 C   0  0  0  0  0  0  0  0  0  0  0  0
  187.1310  177.6010  146.3260 C   0  0  0  0  0  3  0  0  0  0  0  0
  183.7190  178.9120  146.1760 F   0  0  0  0  0  0  0  0  0  0  0  0
  192.9730  176.9690  144.9580 O   0  0  0  0  0  0  0  0  0  0  0  0
  194.1210  176.8610  145.7450 C   0  0  0  0  0  2  0  0  0  0  0  0
  195.3200  176.5770  144.8590 C   0  0  0  0  0  2  0  0  0  0  0  0
  196.2320  174.4860  145.7420 O   0  0  0  0  0  0  0  0  0  0  0  0
  195.5280  175.1420  144.7610 N   0  0  0  0  0  0  0  0  0  0  0  0
  194.9310  174.4870  143.8840 O   0  0  0  0  0  0  0  0  0  0  0  0
  190.9820  173.5170  143.9300 C   0  0  0  0  0  2  0  0  0  0  0  0
  190.2150  174.1500  142.9470 O   0  0  0  0  0  0  0  0  0  0  0  0
  188.9470  173.5740  143.0600 C   0  0  0  0  0  2  0  0  0  0  0  0
  187.9240  174.4130  142.3120 C   0  0  0  0  0  2  0  0  0  0  0  0
  188.6070  175.2830  141.2740 C   0  0  0  0  0  2  0  0  0  0  0  0
  188.1920  173.7010  137.9500 N   0  0  0  0  0  2  0  0  0  0  0  0
  188.7190  173.9170  139.1090 C   0  0  0  0  0  0  0  0  0  0  0  0
  188.1300  174.9180  139.9500 N   0  0  0  0  0  2  0  0  0  0  0  0
  191.1670  173.6550  139.4290 O   0  0  0  0  0  0  0  0  0  0  0  0
  189.7550  171.9380  139.9600 O   0  0  0  0  0  1  0  0  0  0  0  0
  189.8890  173.1110  139.5220 C   0  0  0  0  0  0  0  0  0  0  0  0
  1  3  1  0  0  0  0
  1  6  1  1  0  0  0
  1  2  1  0  0  0  0
  2 16  1  6  0  0  0
  2  4  1  0  0  0  0
  3 22  1  6  0  0  0
  3  5  1  0  0  0  0
  5  4  1  0  0  0  0
  7 12  1  0  0  0  0
  7  6  1  0  0  0  0
  8  7  2  0  0  0  0
  9 13  1  0  0  0  0
 10  9  2  0  0  0  0
 10 12  1  0  0  0  0
 12 14  2  0  0  0  0
 13 15  1  0  0  0  0
 13 11  2  0  0  0  0
 14 11  1  0  0  0  0
 16 17  1  0  0  0  0
 18 17  1  0  0  0  0
 20 18  1  0  0  0  0
 20 19  2  0  0  0  0
 21 20  2  0  0  0  0
 23 24  1  0  0  0  0
 23 22  1  0  0  0  0
 25 24  1  0  0  0  0
 26 25  1  0  0  0  0
 27 28  2  0  0  0  0
 28 32  1  0  0  0  0
 28 29  1  0  0  0  0
 29 26  1  0  0  0  0
 30 32  2  0  0  0  0
 32 31  1  0  0  0  0
M  END
>  <MODEL>
7

>  <REMARK>
 VINA RESULT:      -5.5      2.951      5.230
  Name = 
  13 active torsions:
  status: ('A' for Active; 'I' for Inactive)
    1  A    between atoms: N_2  and  C_11
    2  A    between atoms: C_4  and  C_15
    3  A    between atoms: C_4  and  O_16
    4  A    between atoms: O_7  and  C_14
    5  A    between atoms: O_7  and  C_18
    6  A    between atoms: C_9  and  C_29
    7  A    between atoms: C_10  and  C_21
    8  A    between atoms: C_15  and  C_20
    9  A    between atoms: O_16  and  C_23
   10  A    between atoms: C_17  and  C_23
   11  A    between atoms: C_18  and  C_24
   12  A    between atoms: C_20  and  N_30
   13  A    between atoms: C_24  and  N_25
                            x       y       z     vdW  Elec       q    Type
                         _______ _______ _______ _____ _____    ______ ____

>  <TORSDO>
F 13

$$$$
=
 OpenBabel11042416373D

 32 33  0  0  1  0  0  0  0  0999 V2000
  190.5870  175.7230  144.9070 C   0  0  1  0  0  3  0  0  0  0  0  0
  191.6430  176.4390  145.7010 C   0  0  1  0  0  3  0  0  0  0  0  0
  190.7710  174.2660  145.2880 C   0  0  2  0  0  3  0  0  0  0  0  0
  192.2330  175.3490  146.5680 C   0  0  0  0  0  2  0  0  0  0  0  0
  192.0040  174.1160  145.9410 O   0  0  0  0  0  0  0  0  0  0  0  0
  189.2700  176.1830  145.3230 N   0  0  0  0  0  2  0  0  0  0  0  0
  188.5320  177.1760  144.6020 C   0  0  0  0  0  0  0  0  0  0  0  0
  189.0380  177.7210  143.5830 O   0  0  0  0  0  0  0  0  0  0  0  0
  185.2550  179.0360  144.9090 C   0  0  0  0  0  3  0  0  0  0  0  0
  186.5330  178.6660  144.4770 C   0  0  0  0  0  3  0  0  0  0  0  0
  185.2580  177.2020  146.4900 C   0  0  0  0  0  3  0  0  0  0  0  0
  187.1820  177.5610  145.0490 C   0  0  0  0  0  0  0  0  0  0  0  0
  184.6180  178.3040  145.9140 C   0  0  0  0  0  0  0  0  0  0  0  0
  186.5340  176.8320  146.0590 C   0  0  0  0  0  3  0  0  0  0  0  0
  183.3820  178.6670  146.3380 F   0  0  0  0  0  0  0  0  0  0  0  0
  192.6260  176.9190  144.8320 O   0  0  0  0  0  0  0  0  0  0  0  0
  193.8080  176.8770  145.5750 C   0  0  0  0  0  2  0  0  0  0  0  0
  194.9850  176.6420  144.6460 C   0  0  0  0  0  2  0  0  0  0  0  0
  194.5430  175.5570  142.4980 O   0  0  0  0  0  0  0  0  0  0  0  0
  194.7510  175.4470  143.8520 N   0  0  0  0  0  0  0  0  0  0  0  0
  194.9060  174.3210  144.3650 O   0  0  0  0  0  0  0  0  0  0  0  0
  190.7020  173.3630  144.0630 C   0  0  0  0  0  2  0  0  0  0  0  0
  191.4740  173.8830  143.0190 O   0  0  0  0  0  0  0  0  0  0  0  0
  192.1950  172.7900  142.5330 C   0  0  0  0  0  2  0  0  0  0  0  0
  191.9630  172.6330  141.0390 C   0  0  0  0  0  2  0  0  0  0  0  0
  190.6370  171.9440  140.7780 C   0  0  0  0  0  2  0  0  0  0  0  0
  188.1950  174.0980  139.0120 N   0  0  0  0  0  2  0  0  0  0  0  0
  188.7540  173.5030  140.0130 C   0  0  0  0  0  0  0  0  0  0  0  0
  189.9020  172.6820  139.7640 N   0  0  0  0  0  2  0  0  0  0  0  0
  187.5420  172.6660  142.0120 O   0  0  0  0  0  1  0  0  0  0  0  0
  188.3040  174.8190  141.9570 O   0  0  0  0  0  0  0  0  0  0  0  0
  188.1960  173.7120  141.3680 C   0  0  0  0  0  0  0  0  0  0  0  0
  1  3  1  0  0  0  0
  1  6  1  1  0  0  0
  1  2  1  0  0  0  0
  2 16  1  6  0  0  0
  2  4  1  0  0  0  0
  3 22  1  6  0  0  0
  3  5  1  0  0  0  0
  5  4  1  0  0  0  0
  7 12  1  0  0  0  0
  7  6  1  0  0  0  0
  8  7  2  0  0  0  0
  9 13  1  0  0  0  0
 10  9  2  0  0  0  0
 10 12  1  0  0  0  0
 12 14  2  0  0  0  0
 13 15  1  0  0  0  0
 13 11  2  0  0  0  0
 14 11  1  0  0  0  0
 16 17  1  0  0  0  0
 18 17  1  0  0  0  0
 19 20  2  0  0  0  0
 20 21  2  0  0  0  0
 20 18  1  0  0  0  0
 23 22  1  0  0  0  0
 24 23  1  0  0  0  0
 25 24  1  0  0  0  0
 26 25  1  0  0  0  0
 27 28  2  0  0  0  0
 28 32  1  0  0  0  0
 29 28  1  0  0  0  0
 29 26  1  0  0  0  0
 32 31  2  0  0  0  0
 32 30  1  0  0  0  0
M  END
>  <MODEL>
8

>  <REMARK>
 VINA RESULT:      -5.4      2.979      5.127
  Name = 
  13 active torsions:
  status: ('A' for Active; 'I' for Inactive)
    1  A    between atoms: N_2  and  C_11
    2  A    between atoms: C_4  and  C_15
    3  A    between atoms: C_4  and  O_16
    4  A    between atoms: O_7  and  C_14
    5  A    between atoms: O_7  and  C_18
    6  A    between atoms: C_9  and  C_29
    7  A    between atoms: C_10  and  C_21
    8  A    between atoms: C_15  and  C_20
    9  A    between atoms: O_16  and  C_23
   10  A    between atoms: C_17  and  C_23
   11  A    between atoms: C_18  and  C_24
   12  A    between atoms: C_20  and  N_30
   13  A    between atoms: C_24  and  N_25
                            x       y       z     vdW  Elec       q    Type
                         _______ _______ _______ _____ _____    ______ ____

>  <TORSDO>
F 13

$$$$
=
 OpenBabel11042416373D

 32 33  0  0  1  0  0  0  0  0999 V2000
  187.4610  177.2610  143.5270 C   0  0  1  0  0  3  0  0  0  0  0  0
  186.5550  178.2410  144.2170 C   0  0  1  0  0  3  0  0  0  0  0  0
  187.4860  177.7410  142.0870 C   0  0  2  0  0  3  0  0  0  0  0  0
  186.2650  179.2690  143.1470 C   0  0  0  0  0  2  0  0  0  0  0  0
  186.4470  178.6650  141.8950 O   0  0  0  0  0  0  0  0  0  0  0  0
  188.7960  177.3440  144.1020 N   0  0  0  0  0  2  0  0  0  0  0  0
  189.3430  176.3200  144.9390 C   0  0  0  0  0  0  0  0  0  0  0  0
  188.6470  175.3130  145.2420 O   0  0  0  0  0  0  0  0  0  0  0  0
  193.0930  176.7980  145.0500 C   0  0  0  0  0  3  0  0  0  0  0  0
  191.7840  176.6910  144.5660 C   0  0  0  0  0  3  0  0  0  0  0  0
  192.2930  176.4120  147.3020 C   0  0  0  0  0  3  0  0  0  0  0  0
  190.7210  176.4430  145.4480 C   0  0  0  0  0  0  0  0  0  0  0  0
  193.3460  176.6590  146.4160 C   0  0  0  0  0  0  0  0  0  0  0  0
  190.9850  176.3040  146.8200 C   0  0  0  0  0  3  0  0  0  0  0  0
  194.6150  176.7550  146.8840 F   0  0  0  0  0  0  0  0  0  0  0  0
  185.3660  177.5980  144.5720 O   0  0  0  0  0  0  0  0  0  0  0  0
  184.5620  178.6080  145.1040 C   0  0  0  0  0  2  0  0  0  0  0  0
  184.2460  178.2960  146.5550 C   0  0  0  0  0  2  0  0  0  0  0  0
  185.9410  179.6680  147.6630 O   0  0  0  0  0  0  0  0  0  0  0  0
  185.4520  178.4210  147.3570 N   0  0  0  0  0  0  0  0  0  0  0  0
  185.9410  177.4130  147.9030 O   0  0  0  0  0  0  0  0  0  0  0  0
  187.3520  176.5760  141.1150 C   0  0  0  0  0  2  0  0  0  0  0  0
  187.4500  175.3540  141.7880 O   0  0  0  0  0  0  0  0  0  0  0  0
  188.4470  174.6520  141.1050 C   0  0  0  0  0  2  0  0  0  0  0  0
  189.4150  174.0250  142.0950 C   0  0  0  0  0  2  0  0  0  0  0  0
  190.7180  173.6660  141.4080 C   0  0  0  0  0  2  0  0  0  0  0  0
  190.8380  170.0580  140.5750 N   0  0  0  0  0  2  0  0  0  0  0  0
  190.6270  171.3180  140.3860 C   0  0  0  0  0  0  0  0  0  0  0  0
  190.9080  172.2250  141.4600 N   0  0  0  0  0  2  0  0  0  0  0  0
  191.0260  172.0380  138.0440 O   0  0  0  0  0  0  0  0  0  0  0  0
  188.8930  171.9070  138.8500 O   0  0  0  0  0  1  0  0  0  0  0  0
  190.1250  171.7670  139.0680 C   0  0  0  0  0  0  0  0  0  0  0  0
  1  6  1  1  0  0  0
  1  2  1  0  0  0  0
  2 16  1  6  0  0  0
  3 22  1  6  0  0  0
  3  1  1  0  0  0  0
  4  2  1  0  0  0  0
  5  3  1  0  0  0  0
  5  4  1  0  0  0  0
  6  7  1  0  0  0  0
  7  8  2  0  0  0  0
  7 12  1  0  0  0  0
  9 13  1  0  0  0  0
 10  9  2  0  0  0  0
 10 12  1  0  0  0  0
 12 14  2  0  0  0  0
 13 15  1  0  0  0  0
 13 11  2  0  0  0  0
 14 11  1  0  0  0  0
 16 17  1  0  0  0  0
 17 18  1  0  0  0  0
 18 20  1  0  0  0  0
 20 19  2  0  0  0  0
 20 21  2  0  0  0  0
 22 23  1  0  0  0  0
 24 23  1  0  0  0  0
 24 25  1  0  0  0  0
 26 29  1  0  0  0  0
 26 25  1  0  0  0  0
 28 27  2  0  0  0  0
 28 29  1  0  0  0  0
 30 32  2  0  0  0  0
 31 32  1  0  0  0  0
 32 28  1  0  0  0  0
M  END
>  <MODEL>
9

>  <REMARK>
 VINA RESULT:      -5.4      3.828      8.443
  Name = 
  13 active torsions:
  status: ('A' for Active; 'I' for Inactive)
    1  A    between atoms: N_2  and  C_11
    2  A    between atoms: C_4  and  C_15
    3  A    between atoms: C_4  and  O_16
    4  A    between atoms: O_7  and  C_14
    5  A    between atoms: O_7  and  C_18
    6  A    between atoms: C_9  and  C_29
    7  A    between atoms: C_10  and  C_21
    8  A    between atoms: C_15  and  C_20
    9  A    between atoms: O_16  and  C_23
   10  A    between atoms: C_17  and  C_23
   11  A    between atoms: C_18  and  C_24
   12  A    between atoms: C_20  and  N_30
   13  A    between atoms: C_24  and  N_25
                            x       y       z     vdW  Elec       q    Type
                         _______ _______ _______ _____ _____    ______ ____

>  <TORSDO>
F 13

$$$$
