=
 OpenBabel11042418363D

 37 40  0  0  1  0  0  0  0  0999 V2000
  187.9470  176.8440  145.7250 C   0  0  0  0  0  0  0  0  0  0  0  0
  191.0500  176.8790  142.8480 F   0  0  0  0  0  0  0  0  0  0  0  0
  187.7500  176.4370  144.4730 C   0  0  0  0  0  3  0  0  0  0  0  0
  190.0790  176.8170  143.7970 C   0  0  0  0  0  0  0  0  0  0  0  0
  189.2870  177.2890  146.1560 C   0  0  0  0  0  0  0  0  0  0  0  0
  188.8370  176.4000  143.4730 C   0  0  0  0  0  0  0  0  0  0  0  0
  189.4620  177.7020  147.3360 O   0  0  0  0  0  0  0  0  0  0  0  0
  190.4420  177.2960  145.1830 C   0  0  1  0  0  3  0  0  0  0  0  0
  188.2540  174.7440  140.1980 C   0  0  0  0  0  0  0  0  0  0  0  0
  188.9170  174.6780  141.4680 C   0  0  2  0  0  3  0  0  0  0  0  0
  189.1370  172.4710  139.7270 C   0  0  0  0  0  3  0  0  0  0  0  0
  188.3370  173.6430  139.1830 C   0  0  0  0  0  3  0  0  0  0  0  0
  189.5720  173.5980  141.8900 C   0  0  0  0  0  3  0  0  0  0  0  0
  187.7010  176.5470  141.3130 N   0  0  0  0  0  0  0  0  0  0  0  0
  187.5460  175.8200  140.1170 N   0  0  0  0  0  0  0  0  0  0  0  0
  189.6940  172.4540  140.9580 C   0  0  0  0  0  3  0  0  0  0  0  0
  188.5050  175.9160  142.1170 C   0  0  0  0  0  0  0  0  0  0  0  0
  192.8290  176.6920  145.2150 C   0  0  0  0  0  3  0  0  0  0  0  0
  191.6040  176.5000  145.6890 C   0  0  0  0  0  3  0  0  0  0  0  0
  194.5670  176.2270  146.7230 O   0  0  0  0  0  0  0  0  0  0  0  0
  193.9730  175.8930  145.6640 C   0  0  0  0  0  0  0  0  0  0  0  0
  194.4930  174.7440  144.8460 C   0  0  1  0  0  3  0  0  0  0  0  0
  193.4770  173.8060  144.6660 O   0  0  0  0  0  1  0  0  0  0  0  0
  194.9940  175.2060  143.4880 C   0  0  0  0  0  2  0  0  0  0  0  0
  197.2310  175.5930  142.7910 O   0  0  0  0  0  0  0  0  0  0  0  0
  196.2190  176.0890  143.6330 C   0  0  1  0  0  3  0  0  0  0  0  0
  196.5300  176.7250  142.3360 C   0  0  0  0  0  2  0  0  0  0  0  0
  186.7850  176.9050  146.6590 C   0  0  0  0  0  2  0  0  0  0  0  0
  186.2170  178.2450  146.6420 N   0  0  0  0  0  2  0  0  0  0  0  0
  184.7720  178.1230  146.5130 C   0  0  0  0  0  2  0  0  0  0  0  0
  184.3130  178.7210  145.1910 C   0  0  0  0  0  2  0  0  0  0  0  0
  185.4400  179.5080  144.5450 C   0  0  0  0  0  2  0  0  0  0  0  0
  185.5910  179.0790  143.0940 C   0  0  0  0  0  2  0  0  0  0  0  0
  184.5540  178.0260  142.7510 C   0  0  0  0  0  2  0  0  0  0  0  0
  185.0010  178.4630  140.4510 O   0  0  0  0  0  0  0  0  0  0  0  0
  184.1420  178.1830  141.3270 C   0  0  0  0  0  0  0  0  0  0  0  0
  182.8150  177.9810  140.9590 O   0  0  0  0  0  1  0  0  0  0  0  0
  1  5  1  0  0  0  0
  1 28  1  0  0  0  0
  2  4  1  0  0  0  0
  3  1  2  0  0  0  0
  4  8  1  0  0  0  0
  5  7  2  0  0  0  0
  6  4  2  0  0  0  0
  6  3  1  0  0  0  0
  8 19  1  1  0  0  0
  8  5  1  0  0  0  0
  9 10  1  0  0  0  0
 10 13  1  1  0  0  0
 10 17  1  0  0  0  0
 11 16  1  0  0  0  0
 12 11  2  0  0  0  0
 12  9  1  0  0  0  0
 14 17  2  0  0  0  0
 15  9  2  0  0  0  0
 15 14  1  0  0  0  0
 16 13  2  0  0  0  0
 17  6  1  0  0  0  0
 18 21  1  0  0  0  0
 18 19  2  0  0  0  0
 21 20  2  0  0  0  0
 22 23  1  6  0  0  0
 22 21  1  0  0  0  0
 24 22  1  0  0  0  0
 25 26  1  0  0  0  0
 26 24  1  6  0  0  0
 27 25  1  0  0  0  0
 27 26  1  0  0  0  0
 29 28  1  0  0  0  0
 30 29  1  0  0  0  0
 31 30  1  0  0  0  0
 32 31  1  0  0  0  0
 33 32  1  0  0  0  0
 34 33  1  0  0  0  0
 35 36  2  0  0  0  0
 36 34  1  0  0  0  0
 37 36  1  0  0  0  0
M  END
>  <MODEL>
1

>  <REMARK>
 VINA RESULT:      -6.8      0.000      0.000
  Name = 
  14 active torsions:
  status: ('A' for Active; 'I' for Inactive)
    1  A    between atoms: C_3  and  C_9
    2  A    between atoms: C_6  and  C_28
    3  A    between atoms: C_8  and  C_30
    4  A    between atoms: C_8  and  C_37
    5  A    between atoms: C_9  and  N_13
    6  A    between atoms: N_13  and  C_20
    7  A    between atoms: C_15  and  C_33
    8  A    between atoms: C_16  and  C_30
    9  A    between atoms: C_20  and  C_35
   10  A    between atoms: C_22  and  C_32
   11  A    between atoms: C_24  and  C_28
   12  A    between atoms: C_24  and  C_33
   13  A    between atoms: C_26  and  C_34
   14  A    between atoms: C_35  and  C_37
                            x       y       z     vdW  Elec       q    Type
                         _______ _______ _______ _____ _____    ______ ____

>  <TORSDO>
F 14

$$$$
=
 OpenBabel11042418363D

 37 40  0  0  1  0  0  0  0  0999 V2000
  188.4670  175.0050  141.4800 C   0  0  0  0  0  0  0  0  0  0  0  0
  189.3030  178.2910  144.0120 F   0  0  0  0  0  0  0  0  0  0  0  0
  189.1570  174.8650  142.6090 C   0  0  0  0  0  3  0  0  0  0  0  0
  188.9760  177.2350  143.2210 C   0  0  0  0  0  0  0  0  0  0  0  0
  187.9340  176.3280  141.0980 C   0  0  0  0  0  0  0  0  0  0  0  0
  189.4140  175.9960  143.5250 C   0  0  0  0  0  0  0  0  0  0  0  0
  187.3060  176.4610  140.0120 O   0  0  0  0  0  0  0  0  0  0  0  0
  188.1740  177.5330  141.9750 C   0  0  1  0  0  3  0  0  0  0  0  0
  191.7320  175.5680  146.3990 C   0  0  0  0  0  0  0  0  0  0  0  0
  191.5740  176.0290  145.0500 C   0  0  0  0  0  0  0  0  0  0  0  0
  194.0380  176.4850  146.3420 C   0  0  0  0  0  3  0  0  0  0  0  0
  193.0100  175.7250  147.1640 C   0  0  0  0  0  2  0  0  0  0  0  0
  192.5110  176.7230  144.4060 C   0  0  0  0  0  3  0  0  0  0  0  0
  189.6520  175.1900  145.8210 N   0  0  0  0  0  0  0  0  0  0  0  0
  190.6170  175.0920  146.8430 N   0  0  0  0  0  0  0  0  0  0  0  0
  193.8060  176.9390  145.0910 C   0  0  0  0  0  3  0  0  0  0  0  0
  190.1810  175.7190  144.7580 C   0  0  0  0  0  0  0  0  0  0  0  0
  186.0760  177.6600  143.2560 C   0  0  0  0  0  3  0  0  0  0  0  0
  186.8950  178.2050  142.3650 C   0  0  0  0  0  3  0  0  0  0  0  0
  183.8060  178.1130  142.8600 O   0  0  0  0  0  0  0  0  0  0  0  0
  184.7970  178.2790  143.6190 C   0  0  0  0  0  0  0  0  0  0  0  0
  184.6740  179.1670  144.8260 C   0  0  1  0  0  3  0  0  0  0  0  0
  183.4440  178.9410  145.4440 O   0  0  0  0  0  1  0  0  0  0  0  0
  185.7900  178.9120  145.8250 C   0  0  0  0  0  2  0  0  0  0  0  0
  185.4200  176.7140  146.6450 O   0  0  0  0  0  0  0  0  0  0  0  0
  185.2970  178.0730  146.9890 C   0  0  1  0  0  3  0  0  0  0  0  0
  186.4020  177.2400  147.5050 C   0  0  0  0  0  2  0  0  0  0  0  0
  188.2990  173.8260  140.5820 C   0  0  0  0  0  2  0  0  0  0  0  0
  189.5280  173.6030  139.8360 N   0  0  0  0  0  2  0  0  0  0  0  0
  189.8970  172.2010  139.9770 C   0  0  0  0  0  2  0  0  0  0  0  0
  191.3160  172.0870  140.5130 C   0  0  0  0  0  2  0  0  0  0  0  0
  191.3000  171.8210  142.0080 C   0  0  0  0  0  2  0  0  0  0  0  0
  192.1870  172.8330  142.7130 C   0  0  0  0  0  2  0  0  0  0  0  0
  192.2060  172.5630  144.2040 C   0  0  0  0  0  2  0  0  0  0  0  0
  193.9260  172.3370  145.8380 O   0  0  0  0  0  1  0  0  0  0  0  0
  193.5670  172.8440  144.7420 C   0  0  0  0  0  0  0  0  0  0  0  0
  194.4550  173.6330  144.0180 O   0  0  0  0  0  0  0  0  0  0  0  0
  1  3  2  0  0  0  0
  3  6  1  0  0  0  0
  4  6  2  0  0  0  0
  4  2  1  0  0  0  0
  5  1  1  0  0  0  0
  5  8  1  0  0  0  0
  6 17  1  0  0  0  0
  7  5  2  0  0  0  0
  8 19  1  1  0  0  0
  8  4  1  0  0  0  0
  9 15  2  0  0  0  0
  9 12  1  0  0  0  0
 10  9  1  0  0  0  0
 11 12  1  0  0  0  0
 13 10  2  0  0  0  0
 13 16  1  0  0  0  0
 14 15  1  0  0  0  0
 16 11  2  0  0  0  0
 17 10  1  0  0  0  0
 17 14  2  0  0  0  0
 18 21  1  0  0  0  0
 19 18  2  0  0  0  0
 20 21  2  0  0  0  0
 21 22  1  0  0  0  0
 22 23  1  1  0  0  0
 22 24  1  0  0  0  0
 25 26  1  0  0  0  0
 25 27  1  0  0  0  0
 26 24  1  6  0  0  0
 26 27  1  0  0  0  0
 28  1  1  0  0  0  0
 29 30  1  0  0  0  0
 29 28  1  0  0  0  0
 30 31  1  0  0  0  0
 31 32  1  0  0  0  0
 32 33  1  0  0  0  0
 33 34  1  0  0  0  0
 34 36  1  0  0  0  0
 36 35  1  0  0  0  0
 37 36  2  0  0  0  0
M  END
>  <MODEL>
2

>  <REMARK>
 VINA RESULT:      -6.8      2.239      8.541
  Name = 
  14 active torsions:
  status: ('A' for Active; 'I' for Inactive)
    1  A    between atoms: C_3  and  C_9
    2  A    between atoms: C_6  and  C_28
    3  A    between atoms: C_8  and  C_30
    4  A    between atoms: C_8  and  C_37
    5  A    between atoms: C_9  and  N_13
    6  A    between atoms: N_13  and  C_20
    7  A    between atoms: C_15  and  C_33
    8  A    between atoms: C_16  and  C_30
    9  A    between atoms: C_20  and  C_35
   10  A    between atoms: C_22  and  C_32
   11  A    between atoms: C_24  and  C_28
   12  A    between atoms: C_24  and  C_33
   13  A    between atoms: C_26  and  C_34
   14  A    between atoms: C_35  and  C_37
                            x       y       z     vdW  Elec       q    Type
                         _______ _______ _______ _____ _____    ______ ____

>  <TORSDO>
F 14

$$$$
=
 OpenBabel11042418363D

 37 40  0  0  1  0  0  0  0  0999 V2000
  189.0880  175.0550  141.8750 C   0  0  0  0  0  0  0  0  0  0  0  0
  191.0500  178.5020  143.3490 F   0  0  0  0  0  0  0  0  0  0  0  0
  190.4030  175.0840  142.0780 C   0  0  0  0  0  3  0  0  0  0  0  0
  190.3990  177.3840  142.9330 C   0  0  0  0  0  0  0  0  0  0  0  0
  188.2640  176.2360  142.2020 C   0  0  0  0  0  0  0  0  0  0  0  0
  191.0920  176.2650  142.6370 C   0  0  0  0  0  0  0  0  0  0  0  0
  187.0220  176.2140  141.9800 O   0  0  0  0  0  0  0  0  0  0  0  0
  188.9020  177.4860  142.7590 C   0  0  1  0  0  3  0  0  0  0  0  0
  194.6580  175.9350  143.6300 C   0  0  0  0  0  0  0  0  0  0  0  0
  193.2950  175.9810  144.0720 C   0  0  2  0  0  3  0  0  0  0  0  0
  195.3030  175.4370  145.9750 C   0  0  0  0  0  3  0  0  0  0  0  0
  195.8050  175.6910  144.5630 C   0  0  0  0  0  3  0  0  0  0  0  0
  192.9280  175.7110  145.3240 C   0  0  0  0  0  3  0  0  0  0  0  0
  193.4060  176.2000  141.8510 N   0  0  0  0  0  0  0  0  0  0  0  0
  194.7170  176.0530  142.3450 N   0  0  0  0  0  0  0  0  0  0  0  0
  193.9950  175.4440  146.3150 C   0  0  0  0  0  3  0  0  0  0  0  0
  192.5540  176.1770  142.8330 C   0  0  0  0  0  0  0  0  0  0  0  0
  188.2260  177.0630  145.0880 C   0  0  0  0  0  3  0  0  0  0  0  0
  188.2840  177.8980  144.0580 C   0  0  0  0  0  3  0  0  0  0  0  0
  188.2980  177.9140  147.2760 O   0  0  0  0  0  0  0  0  0  0  0  0
  187.5860  177.4310  146.3550 C   0  0  0  0  0  0  0  0  0  0  0  0
  186.1260  177.1690  146.5980 C   0  0  1  0  0  3  0  0  0  0  0  0
  185.9330  176.8260  147.9350 O   0  0  0  0  0  1  0  0  0  0  0  0
  185.2760  178.3840  146.2640 C   0  0  0  0  0  2  0  0  0  0  0  0
  183.6510  179.1860  144.7290 O   0  0  0  0  0  0  0  0  0  0  0  0
  184.7330  178.2950  144.8500 C   0  0  1  0  0  3  0  0  0  0  0  0
  184.8780  179.6020  144.1790 C   0  0  0  0  0  2  0  0  0  0  0  0
  188.4760  173.8450  141.2540 C   0  0  0  0  0  2  0  0  0  0  0  0
  188.4390  172.7640  142.2290 N   0  0  0  0  0  2  0  0  0  0  0  0
  189.6190  171.9330  142.0290 C   0  0  0  0  0  2  0  0  0  0  0  0
  190.2560  171.6000  143.3700 C   0  0  0  0  0  2  0  0  0  0  0  0
  189.4620  172.2220  144.5040 C   0  0  0  0  0  2  0  0  0  0  0  0
  190.3690  173.1290  145.3200 C   0  0  0  0  0  2  0  0  0  0  0  0
  189.6520  174.4230  145.6520 C   0  0  0  0  0  2  0  0  0  0  0  0
  188.6610  174.2840  147.8140 O   0  0  0  0  0  1  0  0  0  0  0  0
  189.6590  174.6290  147.1280 C   0  0  0  0  0  0  0  0  0  0  0  0
  190.7800  175.1650  147.7540 O   0  0  0  0  0  0  0  0  0  0  0  0
  1  3  2  0  0  0  0
  1  5  1  0  0  0  0
  3  6  1  0  0  0  0
  4  2  1  0  0  0  0
  5  8  1  0  0  0  0
  6 17  1  0  0  0  0
  6  4  2  0  0  0  0
  7  5  2  0  0  0  0
  8  4  1  0  0  0  0
  8 19  1  1  0  0  0
  9 10  1  0  0  0  0
  9 12  1  0  0  0  0
 10 13  1  6  0  0  0
 11 16  1  0  0  0  0
 12 11  2  0  0  0  0
 13 16  2  0  0  0  0
 14 15  1  0  0  0  0
 14 17  2  0  0  0  0
 15  9  2  0  0  0  0
 17 10  1  0  0  0  0
 18 21  1  0  0  0  0
 19 18  2  0  0  0  0
 21 22  1  0  0  0  0
 21 20  2  0  0  0  0
 22 23  1  1  0  0  0
 24 22  1  0  0  0  0
 25 26  1  0  0  0  0
 26 24  1  1  0  0  0
 27 25  1  0  0  0  0
 27 26  1  0  0  0  0
 28  1  1  0  0  0  0
 28 29  1  0  0  0  0
 30 29  1  0  0  0  0
 30 31  1  0  0  0  0
 31 32  1  0  0  0  0
 32 33  1  0  0  0  0
 33 34  1  0  0  0  0
 34 36  1  0  0  0  0
 36 37  2  0  0  0  0
 36 35  1  0  0  0  0
M  END
>  <MODEL>
3

>  <REMARK>
 VINA RESULT:      -6.8      2.741      7.636
  Name = 
  14 active torsions:
  status: ('A' for Active; 'I' for Inactive)
    1  A    between atoms: C_3  and  C_9
    2  A    between atoms: C_6  and  C_28
    3  A    between atoms: C_8  and  C_30
    4  A    between atoms: C_8  and  C_37
    5  A    between atoms: C_9  and  N_13
    6  A    between atoms: N_13  and  C_20
    7  A    between atoms: C_15  and  C_33
    8  A    between atoms: C_16  and  C_30
    9  A    between atoms: C_20  and  C_35
   10  A    between atoms: C_22  and  C_32
   11  A    between atoms: C_24  and  C_28
   12  A    between atoms: C_24  and  C_33
   13  A    between atoms: C_26  and  C_34
   14  A    between atoms: C_35  and  C_37
                            x       y       z     vdW  Elec       q    Type
                         _______ _______ _______ _____ _____    ______ ____

>  <TORSDO>
F 14

$$$$
=
 OpenBabel11042418363D

 37 40  0  0  1  0  0  0  0  0999 V2000
  187.6780  175.8790  141.0890 C   0  0  0  0  0  0  0  0  0  0  0  0
  186.0180  179.4530  142.6310 F   0  0  0  0  0  0  0  0  0  0  0  0
  187.7130  176.1680  142.3880 C   0  0  0  0  0  3  0  0  0  0  0  0
  186.4930  178.2830  142.1300 C   0  0  0  0  0  0  0  0  0  0  0  0
  187.0130  176.7980  140.1450 C   0  0  0  0  0  0  0  0  0  0  0  0
  187.0950  177.3900  142.9430 C   0  0  0  0  0  0  0  0  0  0  0  0
  187.0080  176.5350  138.9110 O   0  0  0  0  0  0  0  0  0  0  0  0
  186.3760  178.0760  140.6380 C   0  0  1  0  0  3  0  0  0  0  0  0
  186.7960  177.9630  146.6030 C   0  0  0  0  0  0  0  0  0  0  0  0
  186.1190  177.9400  145.3390 C   0  0  0  0  0  0  0  0  0  0  0  0
  184.5900  178.3700  147.6680 C   0  0  0  0  0  3  0  0  0  0  0  0
  186.0850  178.2210  147.8970 C   0  0  0  0  0  2  0  0  0  0  0  0
  184.7960  178.0410  145.2210 C   0  0  0  0  0  3  0  0  0  0  0  0
  188.2800  177.4310  145.0820 N   0  0  0  0  0  0  0  0  0  0  0  0
  188.0410  177.6610  146.4510 N   0  0  0  0  0  0  0  0  0  0  0  0
  184.0090  178.2840  146.4510 C   0  0  0  0  0  3  0  0  0  0  0  0
  187.1830  177.5990  144.4040 C   0  0  0  0  0  0  0  0  0  0  0  0
  183.9650  177.9840  141.1270 C   0  0  0  0  0  3  0  0  0  0  0  0
  184.9360  178.1720  140.2420 C   0  0  0  0  0  3  0  0  0  0  0  0
  182.1810  177.4400  139.7000 O   0  0  0  0  0  0  0  0  0  0  0  0
  182.5480  178.0300  140.7500 C   0  0  0  0  0  0  0  0  0  0  0  0
  181.5540  178.8300  141.5460 C   0  0  1  0  0  3  0  0  0  0  0  0
  181.0650  179.8730  140.7610 O   0  0  0  0  0  1  0  0  0  0  0  0
  180.3930  177.9690  142.0160 C   0  0  0  0  0  2  0  0  0  0  0  0
  178.7370  177.3530  140.4300 O   0  0  0  0  0  0  0  0  0  0  0  0
  179.1030  178.3730  141.3260 C   0  0  1  0  0  3  0  0  0  0  0  0
  178.0400  177.4010  141.6520 C   0  0  0  0  0  2  0  0  0  0  0  0
  188.3740  174.6540  140.6000 C   0  0  0  0  0  2  0  0  0  0  0  0
  188.0850  173.5410  141.4920 N   0  0  0  0  0  2  0  0  0  0  0  0
  189.3500  173.0250  141.9970 C   0  0  0  0  0  2  0  0  0  0  0  0
  189.1080  172.1660  143.2300 C   0  0  0  0  0  2  0  0  0  0  0  0
  190.2290  172.3530  144.2360 C   0  0  0  0  0  2  0  0  0  0  0  0
  189.8950  173.5180  145.1550 C   0  0  0  0  0  2  0  0  0  0  0  0
  191.1520  174.2970  145.4880 C   0  0  0  0  0  2  0  0  0  0  0  0
  190.0500  175.0030  147.4800 O   0  0  0  0  0  1  0  0  0  0  0  0
  190.8500  175.2960  146.5520 C   0  0  0  0  0  0  0  0  0  0  0  0
  191.4780  176.5370  146.5440 O   0  0  0  0  0  0  0  0  0  0  0  0
  1  3  2  0  0  0  0
  3  6  1  0  0  0  0
  4  2  1  0  0  0  0
  4  6  2  0  0  0  0
  5  8  1  0  0  0  0
  5  1  1  0  0  0  0
  6 17  1  0  0  0  0
  7  5  2  0  0  0  0
  8 19  1  1  0  0  0
  8  4  1  0  0  0  0
  9 12  1  0  0  0  0
 10  9  1  0  0  0  0
 11 12  1  0  0  0  0
 13 10  2  0  0  0  0
 13 16  1  0  0  0  0
 14 15  1  0  0  0  0
 15  9  2  0  0  0  0
 16 11  2  0  0  0  0
 17 14  2  0  0  0  0
 17 10  1  0  0  0  0
 19 18  2  0  0  0  0
 20 21  2  0  0  0  0
 21 18  1  0  0  0  0
 21 22  1  0  0  0  0
 22 23  1  6  0  0  0
 22 24  1  0  0  0  0
 25 26  1  0  0  0  0
 25 27  1  0  0  0  0
 26 27  1  0  0  0  0
 26 24  1  1  0  0  0
 28  1  1  0  0  0  0
 28 29  1  0  0  0  0
 29 30  1  0  0  0  0
 30 31  1  0  0  0  0
 31 32  1  0  0  0  0
 32 33  1  0  0  0  0
 33 34  1  0  0  0  0
 34 36  1  0  0  0  0
 36 35  1  0  0  0  0
 37 36  2  0  0  0  0
M  END
>  <MODEL>
4

>  <REMARK>
 VINA RESULT:      -6.6      2.956      9.899
  Name = 
  14 active torsions:
  status: ('A' for Active; 'I' for Inactive)
    1  A    between atoms: C_3  and  C_9
    2  A    between atoms: C_6  and  C_28
    3  A    between atoms: C_8  and  C_30
    4  A    between atoms: C_8  and  C_37
    5  A    between atoms: C_9  and  N_13
    6  A    between atoms: N_13  and  C_20
    7  A    between atoms: C_15  and  C_33
    8  A    between atoms: C_16  and  C_30
    9  A    between atoms: C_20  and  C_35
   10  A    between atoms: C_22  and  C_32
   11  A    between atoms: C_24  and  C_28
   12  A    between atoms: C_24  and  C_33
   13  A    between atoms: C_26  and  C_34
   14  A    between atoms: C_35  and  C_37
                            x       y       z     vdW  Elec       q    Type
                         _______ _______ _______ _____ _____    ______ ____

>  <TORSDO>
F 14

$$$$
=
 OpenBabel11042418363D

 37 40  0  0  1  0  0  0  0  0999 V2000
  188.3700  175.0190  141.4370 C   0  0  0  0  0  0  0  0  0  0  0  0
  189.1680  178.2880  144.0020 F   0  0  0  0  0  0  0  0  0  0  0  0
  189.0410  174.8710  142.5770 C   0  0  0  0  0  3  0  0  0  0  0  0
  188.8530  177.2380  143.1990 C   0  0  0  0  0  0  0  0  0  0  0  0
  187.8460  176.3440  141.0530 C   0  0  0  0  0  0  0  0  0  0  0  0
  189.2840  175.9960  143.5030 C   0  0  0  0  0  0  0  0  0  0  0  0
  187.2370  176.4850  139.9580 O   0  0  0  0  0  0  0  0  0  0  0  0
  188.0730  177.5450  141.9420 C   0  0  1  0  0  3  0  0  0  0  0  0
  191.5510  175.5470  146.4130 C   0  0  0  0  0  0  0  0  0  0  0  0
  191.4180  176.0170  145.0650 C   0  0  0  0  0  0  0  0  0  0  0  0
  193.8600  176.4610  146.4020 C   0  0  0  0  0  3  0  0  0  0  0  0
  192.8170  175.6980  147.2020 C   0  0  0  0  0  2  0  0  0  0  0  0
  192.3660  176.7130  144.4410 C   0  0  0  0  0  3  0  0  0  0  0  0
  189.4810  175.1760  145.7980 N   0  0  0  0  0  0  0  0  0  0  0  0
  190.4280  175.0710  146.8360 N   0  0  0  0  0  0  0  0  0  0  0  0
  193.6490  176.9230  145.1500 C   0  0  0  0  0  3  0  0  0  0  0  0
  190.0290  175.7110  144.7470 C   0  0  0  0  0  0  0  0  0  0  0  0
  185.9710  177.6870  143.2160 C   0  0  0  0  0  3  0  0  0  0  0  0
  186.7880  178.2160  142.3130 C   0  0  0  0  0  3  0  0  0  0  0  0
  183.6910  178.0850  142.8250 O   0  0  0  0  0  0  0  0  0  0  0  0
  184.6880  178.3050  143.5630 C   0  0  0  0  0  0  0  0  0  0  0  0
  184.5650  179.2520  144.7240 C   0  0  1  0  0  3  0  0  0  0  0  0
  183.4100  178.9520  145.4460 O   0  0  0  0  0  1  0  0  0  0  0  0
  185.7690  179.1640  145.6470 C   0  0  0  0  0  2  0  0  0  0  0  0
  186.5050  177.3370  146.9740 O   0  0  0  0  0  0  0  0  0  0  0  0
  185.4710  178.2830  146.8460 C   0  0  1  0  0  3  0  0  0  0  0  0
  186.5410  178.4360  147.8530 C   0  0  0  0  0  2  0  0  0  0  0  0
  188.2150  173.8450  140.5290 C   0  0  0  0  0  2  0  0  0  0  0  0
  189.4120  173.7000  139.7130 N   0  0  0  0  0  2  0  0  0  0  0  0
  189.9720  172.3780  139.9600 C   0  0  0  0  0  2  0  0  0  0  0  0
  191.2710  172.5000  140.7420 C   0  0  0  0  0  2  0  0  0  0  0  0
  192.0610  173.7100  140.2740 C   0  0  0  0  0  2  0  0  0  0  0  0
  192.3610  174.6090  141.4620 C   0  0  0  0  0  2  0  0  0  0  0  0
  193.7930  175.1020  141.3960 C   0  0  0  0  0  2  0  0  0  0  0  0
  195.6030  173.5540  141.4770 O   0  0  0  0  0  0  0  0  0  0  0  0
  194.6830  174.1410  142.1060 C   0  0  0  0  0  0  0  0  0  0  0  0
  194.5250  173.9210  143.4710 O   0  0  0  0  0  1  0  0  0  0  0  0
  1  3  2  0  0  0  0
  3  6  1  0  0  0  0
  4  6  2  0  0  0  0
  4  2  1  0  0  0  0
  5  1  1  0  0  0  0
  5  8  1  0  0  0  0
  6 17  1  0  0  0  0
  7  5  2  0  0  0  0
  8 19  1  1  0  0  0
  8  4  1  0  0  0  0
  9 15  2  0  0  0  0
  9 12  1  0  0  0  0
 10  9  1  0  0  0  0
 11 12  1  0  0  0  0
 13 10  2  0  0  0  0
 13 16  1  0  0  0  0
 14 15  1  0  0  0  0
 16 11  2  0  0  0  0
 17 10  1  0  0  0  0
 17 14  2  0  0  0  0
 18 21  1  0  0  0  0
 19 18  2  0  0  0  0
 20 21  2  0  0  0  0
 21 22  1  0  0  0  0
 22 23  1  1  0  0  0
 22 24  1  0  0  0  0
 25 27  1  0  0  0  0
 26 24  1  6  0  0  0
 26 25  1  0  0  0  0
 26 27  1  0  0  0  0
 28  1  1  0  0  0  0
 29 30  1  0  0  0  0
 29 28  1  0  0  0  0
 30 31  1  0  0  0  0
 32 31  1  0  0  0  0
 32 33  1  0  0  0  0
 34 33  1  0  0  0  0
 34 36  1  0  0  0  0
 35 36  2  0  0  0  0
 36 37  1  0  0  0  0
M  END
>  <MODEL>
5

>  <REMARK>
 VINA RESULT:      -6.5      2.195      8.465
  Name = 
  14 active torsions:
  status: ('A' for Active; 'I' for Inactive)
    1  A    between atoms: C_3  and  C_9
    2  A    between atoms: C_6  and  C_28
    3  A    between atoms: C_8  and  C_30
    4  A    between atoms: C_8  and  C_37
    5  A    between atoms: C_9  and  N_13
    6  A    between atoms: N_13  and  C_20
    7  A    between atoms: C_15  and  C_33
    8  A    between atoms: C_16  and  C_30
    9  A    between atoms: C_20  and  C_35
   10  A    between atoms: C_22  and  C_32
   11  A    between atoms: C_24  and  C_28
   12  A    between atoms: C_24  and  C_33
   13  A    between atoms: C_26  and  C_34
   14  A    between atoms: C_35  and  C_37
                            x       y       z     vdW  Elec       q    Type
                         _______ _______ _______ _____ _____    ______ ____

>  <TORSDO>
F 14

$$$$
=
 OpenBabel11042418363D

 37 40  0  0  1  0  0  0  0  0999 V2000
  189.7510  174.8900  143.4860 C   0  0  0  0  0  0  0  0  0  0  0  0
  189.9690  174.9240  147.7120 F   0  0  0  0  0  0  0  0  0  0  0  0
  188.8270  175.4900  144.2340 C   0  0  0  0  0  3  0  0  0  0  0  0
  189.9440  174.9570  146.3540 C   0  0  0  0  0  0  0  0  0  0  0  0
  190.9150  174.2440  144.1260 C   0  0  0  0  0  0  0  0  0  0  0  0
  188.9180  175.5490  145.7070 C   0  0  0  0  0  0  0  0  0  0  0  0
  191.7720  173.6510  143.4150 O   0  0  0  0  0  0  0  0  0  0  0  0
  191.0640  174.2480  145.6290 C   0  0  1  0  0  3  0  0  0  0  0  0
  186.1510  177.6060  147.0940 C   0  0  0  0  0  0  0  0  0  0  0  0
  187.0600  177.4080  146.0030 C   0  0  0  0  0  0  0  0  0  0  0  0
  185.0930  179.4130  145.7580 C   0  0  0  0  0  3  0  0  0  0  0  0
  185.0930  178.6680  147.0830 C   0  0  0  0  0  2  0  0  0  0  0  0
  186.9750  178.0770  144.8550 C   0  0  0  0  0  3  0  0  0  0  0  0
  187.3880  175.8670  147.5880 N   0  0  0  0  0  0  0  0  0  0  0  0
  186.3380  176.7090  148.0030 N   0  0  0  0  0  0  0  0  0  0  0  0
  185.9480  179.1390  144.7490 C   0  0  0  0  0  3  0  0  0  0  0  0
  187.8410  176.2550  146.4320 C   0  0  0  0  0  0  0  0  0  0  0  0
  192.8310  175.9600  145.5280 C   0  0  0  0  0  3  0  0  0  0  0  0
  192.3730  174.8320  146.0590 C   0  0  0  0  0  3  0  0  0  0  0  0
  194.1930  177.2920  146.9010 O   0  0  0  0  0  0  0  0  0  0  0  0
  194.1310  176.5250  145.9040 C   0  0  0  0  0  0  0  0  0  0  0  0
  195.3610  176.2730  145.0770 C   0  0  1  0  0  3  0  0  0  0  0  0
  195.8700  175.0100  145.3770 O   0  0  0  0  0  1  0  0  0  0  0  0
  195.0610  176.3510  143.5890 C   0  0  0  0  0  2  0  0  0  0  0  0
  196.2930  175.4200  141.7850 O   0  0  0  0  0  0  0  0  0  0  0  0
  196.3430  176.4140  142.7790 C   0  0  1  0  0  3  0  0  0  0  0  0
  196.0270  176.7400  141.3740 C   0  0  0  0  0  2  0  0  0  0  0  0
  189.5580  174.8250  142.0090 C   0  0  0  0  0  2  0  0  0  0  0  0
  188.1420  174.6690  141.7090 N   0  0  0  0  0  2  0  0  0  0  0  0
  187.9190  175.0980  140.3360 C   0  0  0  0  0  2  0  0  0  0  0  0
  187.4340  176.5400  140.3120 C   0  0  0  0  0  2  0  0  0  0  0  0
  186.5460  176.8210  141.5120 C   0  0  0  0  0  2  0  0  0  0  0  0
  185.9890  178.2320  141.4100 C   0  0  0  0  0  2  0  0  0  0  0  0
  184.9110  178.2930  140.3460 C   0  0  0  0  0  2  0  0  0  0  0  0
  182.5570  177.9290  140.2860 O   0  0  0  0  0  0  0  0  0  0  0  0
  183.5720  178.1740  140.9890 C   0  0  0  0  0  0  0  0  0  0  0  0
  183.4470  178.2920  142.3700 O   0  0  0  0  0  1  0  0  0  0  0  0
  1  5  1  0  0  0  0
  1  3  2  0  0  0  0
  3  6  1  0  0  0  0
  4  2  1  0  0  0  0
  5  8  1  0  0  0  0
  6  4  2  0  0  0  0
  6 17  1  0  0  0  0
  7  5  2  0  0  0  0
  8 19  1  6  0  0  0
  8  4  1  0  0  0  0
  9 15  2  0  0  0  0
 10 17  1  0  0  0  0
 10  9  1  0  0  0  0
 11 12  1  0  0  0  0
 12  9  1  0  0  0  0
 13 10  2  0  0  0  0
 14 15  1  0  0  0  0
 16 13  1  0  0  0  0
 16 11  2  0  0  0  0
 17 14  2  0  0  0  0
 18 21  1  0  0  0  0
 18 19  2  0  0  0  0
 21 20  2  0  0  0  0
 22 23  1  6  0  0  0
 22 21  1  0  0  0  0
 24 22  1  0  0  0  0
 25 26  1  0  0  0  0
 26 24  1  1  0  0  0
 27 25  1  0  0  0  0
 27 26  1  0  0  0  0
 28  1  1  0  0  0  0
 29 28  1  0  0  0  0
 30 29  1  0  0  0  0
 31 30  1  0  0  0  0
 31 32  1  0  0  0  0
 33 32  1  0  0  0  0
 34 36  1  0  0  0  0
 34 33  1  0  0  0  0
 35 36  2  0  0  0  0
 36 37  1  0  0  0  0
M  END
>  <MODEL>
6

>  <REMARK>
 VINA RESULT:      -6.4      1.931      4.858
  Name = 
  14 active torsions:
  status: ('A' for Active; 'I' for Inactive)
    1  A    between atoms: C_3  and  C_9
    2  A    between atoms: C_6  and  C_28
    3  A    between atoms: C_8  and  C_30
    4  A    between atoms: C_8  and  C_37
    5  A    between atoms: C_9  and  N_13
    6  A    between atoms: N_13  and  C_20
    7  A    between atoms: C_15  and  C_33
    8  A    between atoms: C_16  and  C_30
    9  A    between atoms: C_20  and  C_35
   10  A    between atoms: C_22  and  C_32
   11  A    between atoms: C_24  and  C_28
   12  A    between atoms: C_24  and  C_33
   13  A    between atoms: C_26  and  C_34
   14  A    between atoms: C_35  and  C_37
                            x       y       z     vdW  Elec       q    Type
                         _______ _______ _______ _____ _____    ______ ____

>  <TORSDO>
F 14

$$$$
=
 OpenBabel11042418363D

 37 40  0  0  1  0  0  0  0  0999 V2000
  190.2370  176.3610  142.9810 C   0  0  0  0  0  0  0  0  0  0  0  0
  187.0000  173.7580  142.1760 F   0  0  0  0  0  0  0  0  0  0  0  0
  190.2930  175.4460  142.0170 C   0  0  0  0  0  3  0  0  0  0  0  0
  188.0080  174.6400  142.4060 C   0  0  0  0  0  0  0  0  0  0  0  0
  189.0060  176.5170  143.7810 C   0  0  0  0  0  0  0  0  0  0  0  0
  189.1530  174.5640  141.6950 C   0  0  0  0  0  0  0  0  0  0  0  0
  188.9680  177.3660  144.7150 O   0  0  0  0  0  0  0  0  0  0  0  0
  187.8060  175.6370  143.5220 C   0  0  1  0  0  3  0  0  0  0  0  0
  189.7820  171.8030  139.2880 C   0  0  0  0  0  0  0  0  0  0  0  0
  189.9560  172.2820  140.6280 C   0  0  2  0  0  3  0  0  0  0  0  0
  190.8050  169.6630  140.0200 C   0  0  0  0  0  3  0  0  0  0  0  0
  190.2310  170.4430  138.8480 C   0  0  0  0  0  3  0  0  0  0  0  0
  190.4350  171.5240  141.6130 C   0  0  0  0  0  3  0  0  0  0  0  0
  188.8480  173.7830  139.3980 N   0  0  0  0  0  0  0  0  0  0  0  0
  189.1330  172.6690  138.5830 N   0  0  0  0  0  0  0  0  0  0  0  0
  190.8920  170.1570  141.2740 C   0  0  0  0  0  3  0  0  0  0  0  0
  189.3250  173.5950  140.5930 C   0  0  0  0  0  0  0  0  0  0  0  0
  186.6500  177.6810  142.7810 C   0  0  0  0  0  3  0  0  0  0  0  0
  186.5740  176.4390  143.2450 C   0  0  0  0  0  3  0  0  0  0  0  0
  184.9240  178.4800  141.4040 O   0  0  0  0  0  0  0  0  0  0  0  0
  185.4570  178.4990  142.5450 C   0  0  0  0  0  0  0  0  0  0  0  0
  184.9140  179.4140  143.6080 C   0  0  1  0  0  3  0  0  0  0  0  0
  183.6210  179.0170  143.9440 O   0  0  0  0  0  1  0  0  0  0  0  0
  185.7830  179.4000  144.8550 C   0  0  0  0  0  2  0  0  0  0  0  0
  185.4510  177.6190  146.3900 O   0  0  0  0  0  0  0  0  0  0  0  0
  184.9980  178.9090  146.0580 C   0  0  1  0  0  3  0  0  0  0  0  0
  185.9180  178.6790  147.1900 C   0  0  0  0  0  2  0  0  0  0  0  0
  191.4510  177.1750  143.2810 C   0  0  0  0  0  2  0  0  0  0  0  0
  192.6400  176.3510  143.1250 N   0  0  0  0  0  2  0  0  0  0  0  0
  192.9150  175.7040  144.4010 C   0  0  0  0  0  2  0  0  0  0  0  0
  193.3430  176.7410  145.4290 C   0  0  0  0  0  2  0  0  0  0  0  0
  192.9230  176.3110  146.8230 C   0  0  0  0  0  2  0  0  0  0  0  0
  191.4160  176.4520  146.9640 C   0  0  0  0  0  2  0  0  0  0  0  0
  190.8440  175.2500  147.6900 C   0  0  0  0  0  2  0  0  0  0  0  0
  188.4950  175.1430  147.3070 O   0  0  0  0  0  1  0  0  0  0  0  0
  189.6420  174.7560  146.9610 C   0  0  0  0  0  0  0  0  0  0  0  0
  189.7870  173.8990  145.8740 O   0  0  0  0  0  0  0  0  0  0  0  0
  1 28  1  0  0  0  0
  1  5  1  0  0  0  0
  2  4  1  0  0  0  0
  3  1  2  0  0  0  0
  4  8  1  0  0  0  0
  5  7  2  0  0  0  0
  6  3  1  0  0  0  0
  6  4  2  0  0  0  0
  8 19  1  6  0  0  0
  8  5  1  0  0  0  0
  9 10  1  0  0  0  0
 10 13  1  1  0  0  0
 11 16  1  0  0  0  0
 12  9  1  0  0  0  0
 12 11  2  0  0  0  0
 14 17  2  0  0  0  0
 15  9  2  0  0  0  0
 15 14  1  0  0  0  0
 16 13  2  0  0  0  0
 17 10  1  0  0  0  0
 17  6  1  0  0  0  0
 18 19  2  0  0  0  0
 20 21  2  0  0  0  0
 21 18  1  0  0  0  0
 21 22  1  0  0  0  0
 22 23  1  1  0  0  0
 22 24  1  0  0  0  0
 25 27  1  0  0  0  0
 26 24  1  6  0  0  0
 26 25  1  0  0  0  0
 26 27  1  0  0  0  0
 29 28  1  0  0  0  0
 29 30  1  0  0  0  0
 30 31  1  0  0  0  0
 31 32  1  0  0  0  0
 32 33  1  0  0  0  0
 33 34  1  0  0  0  0
 36 35  1  0  0  0  0
 36 34  1  0  0  0  0
 37 36  2  0  0  0  0
M  END
>  <MODEL>
7

>  <REMARK>
 VINA RESULT:      -6.3      2.893      7.250
  Name = 
  14 active torsions:
  status: ('A' for Active; 'I' for Inactive)
    1  A    between atoms: C_3  and  C_9
    2  A    between atoms: C_6  and  C_28
    3  A    between atoms: C_8  and  C_30
    4  A    between atoms: C_8  and  C_37
    5  A    between atoms: C_9  and  N_13
    6  A    between atoms: N_13  and  C_20
    7  A    between atoms: C_15  and  C_33
    8  A    between atoms: C_16  and  C_30
    9  A    between atoms: C_20  and  C_35
   10  A    between atoms: C_22  and  C_32
   11  A    between atoms: C_24  and  C_28
   12  A    between atoms: C_24  and  C_33
   13  A    between atoms: C_26  and  C_34
   14  A    between atoms: C_35  and  C_37
                            x       y       z     vdW  Elec       q    Type
                         _______ _______ _______ _____ _____    ______ ____

>  <TORSDO>
F 14

$$$$
=
 OpenBabel11042418363D

 37 40  0  0  1  0  0  0  0  0999 V2000
  190.1820  173.4990  145.2360 C   0  0  0  0  0  0  0  0  0  0  0  0
  190.5070  177.1190  147.4030 F   0  0  0  0  0  0  0  0  0  0  0  0
  189.1200  174.2540  145.5080 C   0  0  0  0  0  3  0  0  0  0  0  0
  190.4250  175.9860  146.6570 C   0  0  0  0  0  0  0  0  0  0  0  0
  191.5270  173.9360  145.6570 C   0  0  0  0  0  0  0  0  0  0  0  0
  189.2270  175.5430  146.2220 C   0  0  0  0  0  0  0  0  0  0  0  0
  192.5270  173.2030  145.4220 O   0  0  0  0  0  0  0  0  0  0  0  0
  191.7120  175.2330  146.4090 C   0  0  1  0  0  3  0  0  0  0  0  0
  186.0320  177.4400  146.2940 C   0  0  0  0  0  0  0  0  0  0  0  0
  187.0640  176.8690  145.4780 C   0  0  0  0  0  0  0  0  0  0  0  0
  184.8220  178.0060  144.2010 C   0  0  0  0  0  3  0  0  0  0  0  0
  184.8170  178.1020  145.7180 C   0  0  0  0  0  2  0  0  0  0  0  0
  186.9800  176.7890  144.1510 C   0  0  0  0  0  3  0  0  0  0  0  0
  187.4900  176.5140  147.6430 N   0  0  0  0  0  0  0  0  0  0  0  0
  186.2770  177.2240  147.5430 N   0  0  0  0  0  0  0  0  0  0  0  0
  185.8050  177.4060  143.4940 C   0  0  0  0  0  3  0  0  0  0  0  0
  187.9810  176.3020  146.4580 C   0  0  0  0  0  0  0  0  0  0  0  0
  193.9950  175.9980  145.8970 C   0  0  0  0  0  3  0  0  0  0  0  0
  192.6870  176.1400  145.7270 C   0  0  0  0  0  3  0  0  0  0  0  0
  194.9120  178.1310  145.5480 O   0  0  0  0  0  0  0  0  0  0  0  0
  194.9660  176.9030  145.2740 C   0  0  0  0  0  0  0  0  0  0  0  0
  195.9590  176.4060  144.2610 C   0  0  1  0  0  3  0  0  0  0  0  0
  196.4000  175.1350  144.6290 O   0  0  0  0  0  1  0  0  0  0  0  0
  195.3540  176.3420  142.8680 C   0  0  0  0  0  2  0  0  0  0  0  0
  195.1670  174.6090  141.2550 O   0  0  0  0  0  0  0  0  0  0  0  0
  196.1040  175.3540  141.9950 C   0  0  1  0  0  3  0  0  0  0  0  0
  195.8350  175.6430  140.5720 C   0  0  0  0  0  2  0  0  0  0  0  0
  189.9830  172.1840  144.5600 C   0  0  0  0  0  2  0  0  0  0  0  0
  190.2420  172.3260  143.1340 N   0  0  0  0  0  2  0  0  0  0  0  0
  188.9630  172.4670  142.4530 C   0  0  0  0  0  2  0  0  0  0  0  0
  189.1530  173.1980  141.1320 C   0  0  0  0  0  2  0  0  0  0  0  0
  190.1590  174.3240  141.2890 C   0  0  0  0  0  2  0  0  0  0  0  0
  189.5320  175.4570  142.0840 C   0  0  0  0  0  2  0  0  0  0  0  0
  190.6100  176.2840  142.7560 C   0  0  0  0  0  2  0  0  0  0  0  0
  190.4260  178.2910  144.0270 O   0  0  0  0  0  1  0  0  0  0  0  0
  190.1070  177.6690  142.9800 C   0  0  0  0  0  0  0  0  0  0  0  0
  189.3200  178.2900  142.0160 O   0  0  0  0  0  0  0  0  0  0  0  0
  1  3  2  0  0  0  0
  1  5  1  0  0  0  0
  3  6  1  0  0  0  0
  4  2  1  0  0  0  0
  5  8  1  0  0  0  0
  6 17  1  0  0  0  0
  6  4  2  0  0  0  0
  7  5  2  0  0  0  0
  8 19  1  6  0  0  0
  8  4  1  0  0  0  0
  9 15  2  0  0  0  0
 10  9  1  0  0  0  0
 10 17  1  0  0  0  0
 11 12  1  0  0  0  0
 12  9  1  0  0  0  0
 13 10  2  0  0  0  0
 15 14  1  0  0  0  0
 16 13  1  0  0  0  0
 16 11  2  0  0  0  0
 17 14  2  0  0  0  0
 19 18  2  0  0  0  0
 21 20  2  0  0  0  0
 21 18  1  0  0  0  0
 22 23  1  1  0  0  0
 22 21  1  0  0  0  0
 24 22  1  0  0  0  0
 25 26  1  0  0  0  0
 26 24  1  1  0  0  0
 27 25  1  0  0  0  0
 27 26  1  0  0  0  0
 28  1  1  0  0  0  0
 29 28  1  0  0  0  0
 30 29  1  0  0  0  0
 31 32  1  0  0  0  0
 31 30  1  0  0  0  0
 32 33  1  0  0  0  0
 33 34  1  0  0  0  0
 34 36  1  0  0  0  0
 36 35  1  0  0  0  0
 37 36  2  0  0  0  0
M  END
>  <MODEL>
8

>  <REMARK>
 VINA RESULT:      -6.3      2.458      5.348
  Name = 
  14 active torsions:
  status: ('A' for Active; 'I' for Inactive)
    1  A    between atoms: C_3  and  C_9
    2  A    between atoms: C_6  and  C_28
    3  A    between atoms: C_8  and  C_30
    4  A    between atoms: C_8  and  C_37
    5  A    between atoms: C_9  and  N_13
    6  A    between atoms: N_13  and  C_20
    7  A    between atoms: C_15  and  C_33
    8  A    between atoms: C_16  and  C_30
    9  A    between atoms: C_20  and  C_35
   10  A    between atoms: C_22  and  C_32
   11  A    between atoms: C_24  and  C_28
   12  A    between atoms: C_24  and  C_33
   13  A    between atoms: C_26  and  C_34
   14  A    between atoms: C_35  and  C_37
                            x       y       z     vdW  Elec       q    Type
                         _______ _______ _______ _____ _____    ______ ____

>  <TORSDO>
F 14

$$$$
=
 OpenBabel11042418363D

 37 40  0  0  1  0  0  0  0  0999 V2000
  188.7460  176.2440  145.7960 C   0  0  0  0  0  0  0  0  0  0  0  0
  191.4100  176.9380  142.5830 F   0  0  0  0  0  0  0  0  0  0  0  0
  188.5130  175.7700  144.5740 C   0  0  0  0  0  3  0  0  0  0  0  0
  190.5950  176.6720  143.6370 C   0  0  0  0  0  0  0  0  0  0  0  0
  189.9810  177.0030  146.0710 C   0  0  0  0  0  0  0  0  0  0  0  0
  189.4590  175.9650  143.4560 C   0  0  0  0  0  0  0  0  0  0  0  0
  190.1830  177.4760  147.2240 O   0  0  0  0  0  0  0  0  0  0  0  0
  190.9860  177.2590  144.9730 C   0  0  1  0  0  3  0  0  0  0  0  0
  188.8740  174.0990  140.2950 C   0  0  0  0  0  0  0  0  0  0  0  0
  189.6200  174.1730  141.5180 C   0  0  2  0  0  3  0  0  0  0  0  0
  189.9960  171.9280  139.8540 C   0  0  0  0  0  3  0  0  0  0  0  0
  189.0250  172.9700  139.3220 C   0  0  0  0  0  3  0  0  0  0  0  0
  190.4270  173.1990  141.9370 C   0  0  0  0  0  3  0  0  0  0  0  0
  188.1780  175.8740  141.3750 N   0  0  0  0  0  0  0  0  0  0  0  0
  188.0370  175.0790  140.2210 N   0  0  0  0  0  0  0  0  0  0  0  0
  190.6270  172.0360  141.0430 C   0  0  0  0  0  3  0  0  0  0  0  0
  189.1030  175.3820  142.1460 C   0  0  0  0  0  0  0  0  0  0  0  0
  192.7250  175.5210  145.1010 C   0  0  0  0  0  3  0  0  0  0  0  0
  192.3520  176.7730  145.3410 C   0  0  0  0  0  3  0  0  0  0  0  0
  194.6450  175.5650  146.4520 O   0  0  0  0  0  0  0  0  0  0  0  0
  194.0430  175.0130  145.4930 C   0  0  0  0  0  0  0  0  0  0  0  0
  194.7150  173.9090  144.7250 C   0  0  1  0  0  3  0  0  0  0  0  0
  195.9220  174.3740  144.2050 O   0  0  0  0  0  1  0  0  0  0  0  0
  194.9810  172.6970  145.6030 C   0  0  0  0  0  2  0  0  0  0  0  0
  195.9760  170.5490  145.4090 O   0  0  0  0  0  0  0  0  0  0  0  0
  195.0900  171.4350  144.7680 C   0  0  1  0  0  3  0  0  0  0  0  0
  194.6010  170.2800  145.5480 C   0  0  0  0  0  2  0  0  0  0  0  0
  187.7140  176.0520  146.8560 C   0  0  0  0  0  2  0  0  0  0  0  0
  187.0370  177.3160  147.1090 N   0  0  0  0  0  2  0  0  0  0  0  0
  185.6980  177.2340  146.5410 C   0  0  0  0  0  2  0  0  0  0  0  0
  185.1070  178.6290  146.3960 C   0  0  0  0  0  2  0  0  0  0  0  0
  185.4810  179.2260  145.0510 C   0  0  0  0  0  2  0  0  0  0  0  0
  185.6510  178.1130  144.0310 C   0  0  0  0  0  2  0  0  0  0  0  0
  186.1620  178.6780  142.7200 C   0  0  0  0  0  2  0  0  0  0  0  0
  185.6740  178.1460  140.4500 O   0  0  0  0  0  0  0  0  0  0  0  0
  185.2330  178.2950  141.6200 C   0  0  0  0  0  0  0  0  0  0  0  0
  183.8880  178.0620  141.8890 O   0  0  0  0  0  1  0  0  0  0  0  0
  1  5  1  0  0  0  0
  1 28  1  0  0  0  0
  2  4  1  0  0  0  0
  3  1  2  0  0  0  0
  4  8  1  0  0  0  0
  5  7  2  0  0  0  0
  6  4  2  0  0  0  0
  6  3  1  0  0  0  0
  8 19  1  1  0  0  0
  8  5  1  0  0  0  0
  9 10  1  0  0  0  0
 10 13  1  1  0  0  0
 10 17  1  0  0  0  0
 11 16  1  0  0  0  0
 12 11  2  0  0  0  0
 12  9  1  0  0  0  0
 14 17  2  0  0  0  0
 15  9  2  0  0  0  0
 15 14  1  0  0  0  0
 16 13  2  0  0  0  0
 17  6  1  0  0  0  0
 18 19  2  0  0  0  0
 18 21  1  0  0  0  0
 21 20  2  0  0  0  0
 22 23  1  1  0  0  0
 22 21  1  0  0  0  0
 22 24  1  0  0  0  0
 25 27  1  0  0  0  0
 26 25  1  0  0  0  0
 26 27  1  0  0  0  0
 26 24  1  1  0  0  0
 28 29  1  0  0  0  0
 30 29  1  0  0  0  0
 31 30  1  0  0  0  0
 32 31  1  0  0  0  0
 33 32  1  0  0  0  0
 34 33  1  0  0  0  0
 35 36  2  0  0  0  0
 36 37  1  0  0  0  0
 36 34  1  0  0  0  0
M  END
>  <MODEL>
9

>  <REMARK>
 VINA RESULT:      -6.2      1.526      2.103
  Name = 
  14 active torsions:
  status: ('A' for Active; 'I' for Inactive)
    1  A    between atoms: C_3  and  C_9
    2  A    between atoms: C_6  and  C_28
    3  A    between atoms: C_8  and  C_30
    4  A    between atoms: C_8  and  C_37
    5  A    between atoms: C_9  and  N_13
    6  A    between atoms: N_13  and  C_20
    7  A    between atoms: C_15  and  C_33
    8  A    between atoms: C_16  and  C_30
    9  A    between atoms: C_20  and  C_35
   10  A    between atoms: C_22  and  C_32
   11  A    between atoms: C_24  and  C_28
   12  A    between atoms: C_24  and  C_33
   13  A    between atoms: C_26  and  C_34
   14  A    between atoms: C_35  and  C_37
                            x       y       z     vdW  Elec       q    Type
                         _______ _______ _______ _____ _____    ______ ____

>  <TORSDO>
F 14

$$$$
