=
 OpenBabel11042416083D

 34 38  0  0  1  0  0  0  0  0999 V2000
  184.9950  179.0170  145.8270 N   0  0  0  0  0  0  0  0  0  0  0  0
  186.4480  177.5160  146.9300 N   0  0  0  0  0  2  0  0  0  0  0  0
  184.7190  178.1040  143.3490 S   0  0  0  0  0  0  0  0  0  0  0  0
  190.8110  176.7370  145.6370 C   0  0  0  0  0  0  0  0  0  0  0  0
  185.7970  178.0120  145.7630 C   0  0  0  0  0  0  0  0  0  0  0  0
  184.4030  179.4220  144.5670 C   0  0  0  0  0  2  0  0  0  0  0  0
  188.5310  176.6560  146.0310 C   0  0  0  0  0  0  0  0  0  0  0  0
  188.5310  177.2010  144.7360 C   0  0  0  0  0  0  0  0  0  0  0  0
  187.3150  176.3510  146.8470 C   0  0  0  0  0  2  0  0  0  0  0  0
  186.0070  177.3830  144.4340 C   0  0  2  0  0  3  0  0  0  0  0  0
  190.1340  177.3720  144.2340 S   0  0  0  0  0  0  0  0  0  0  0  0
  189.8130  176.3900  146.5330 C   0  0  0  0  0  3  0  0  0  0  0  0
  187.3830  177.6240  143.9600 N   0  0  0  0  0  0  0  0  0  0  0  0
  192.2080  176.5940  145.8950 N   0  0  0  0  0  2  0  0  0  0  0  0
  193.2120  177.0620  144.9560 C   0  0  0  0  0  2  0  0  0  0  0  0
  195.2350  176.2260  143.3170 C   0  0  1  0  0  3  0  0  0  0  0  0
  194.6060  176.6570  145.4530 C   0  0  2  0  0  3  0  0  0  0  0  0
  195.8490  173.8450  143.1810 C   0  0  0  0  0  1  0  0  0  0  0  0
  194.8470  174.8400  143.5550 N   0  0  0  0  0  0  0  0  0  0  0  0
  195.4450  175.6260  144.6720 C   0  0  1  0  0  0  0  0  0  0  0  0
  194.5380  175.3190  145.7280 O   0  0  0  0  0  0  0  0  0  0  0  0
  196.5630  176.3460  141.1580 N   0  0  0  0  0  1  0  0  0  0  0  0
  197.5880  176.7280  143.2050 O   0  0  0  0  0  0  0  0  0  0  0  0
  196.5370  176.4280  142.5800 C   0  0  0  0  0  0  0  0  0  0  0  0
  187.6210  178.2820  142.6760 C   0  0  0  0  0  2  0  0  0  0  0  0
  188.3360  177.3340  141.7260 C   0  0  0  0  0  2  0  0  0  0  0  0
  187.4400  176.1490  141.3950 C   0  0  0  0  0  2  0  0  0  0  0  0
  188.2560  174.9810  140.8580 C   0  0  0  0  0  2  0  0  0  0  0  0
  188.3800  173.8990  141.8760 C   0  0  0  0  0  0  0  0  0  0  0  0
  190.7850  173.1910  144.8220 C   0  0  0  0  0  1  0  0  0  0  0  0
  187.5570  172.9450  141.8800 O   0  0  0  0  0  0  0  0  0  0  0  0
  189.4360  173.9640  142.8400 N   0  0  0  0  0  2  0  0  0  0  0  0
  189.7250  172.9510  143.8100 C   0  0  0  0  0  0  0  0  0  0  0  0
  189.1040  171.8550  143.8100 O   0  0  0  0  0  0  0  0  0  0  0  0
  3  6  1  0  0  0  0
  4 14  1  0  0  0  0
  4 12  2  0  0  0  0
  5  1  2  0  0  0  0
  5  2  1  0  0  0  0
  6  1  1  0  0  0  0
  7 12  1  0  0  0  0
  7  9  1  0  0  0  0
  8  7  2  0  0  0  0
  9  2  1  0  0  0  0
 10  3  1  6  0  0  0
 10  5  1  0  0  0  0
 11  8  1  0  0  0  0
 11  4  1  0  0  0  0
 13 10  1  0  0  0  0
 13  8  1  0  0  0  0
 15 14  1  0  0  0  0
 16 24  1  6  0  0  0
 16 19  1  0  0  0  0
 16 20  1  0  0  0  0
 17 15  1  6  0  0  0
 17 21  1  0  0  0  0
 18 19  1  0  0  0  0
 19 20  1  0  0  0  0
 20 17  1  0  0  0  0
 20 21  1  1  0  0  0
 22 24  1  0  0  0  0
 24 23  2  0  0  0  0
 25 13  1  0  0  0  0
 26 25  1  0  0  0  0
 27 26  1  0  0  0  0
 28 27  1  0  0  0  0
 28 29  1  0  0  0  0
 29 31  2  0  0  0  0
 29 32  1  0  0  0  0
 32 33  1  0  0  0  0
 33 30  1  0  0  0  0
 34 33  2  0  0  0  0
M  END
>  <MODEL>
1

>  <REMARK>
 VINA RESULT:      -7.0      0.000      0.000
  Name = 
  9 active torsions:
  status: ('A' for Active; 'I' for Inactive)
    1  A    between atoms: C_1  and  C_9
    2  A    between atoms: C_1  and  N_13
    3  A    between atoms: C_2  and  C_10
    4  A    between atoms: C_5  and  C_12
    5  A    between atoms: C_5  and  C_30
    6  A    between atoms: C_7  and  N_13
    7  A    between atoms: C_8  and  C_34
    8  A    between atoms: C_10  and  C_12
    9  A    between atoms: C_30  and  N_32
                            x       y       z     vdW  Elec       q    Type
                         _______ _______ _______ _____ _____    ______ ____

>  <TORSDO>
F 9

$$$$
=
 OpenBabel11042416083D

 34 38  0  0  1  0  0  0  0  0999 V2000
  183.9010  178.2970  142.9060 N   0  0  0  0  0  0  0  0  0  0  0  0
  185.2150  177.4440  141.1390 N   0  0  0  0  0  2  0  0  0  0  0  0
  185.4640  179.9580  144.2640 S   0  0  0  0  0  0  0  0  0  0  0  0
  189.0560  174.9570  141.7550 C   0  0  0  0  0  0  0  0  0  0  0  0
  185.0540  178.1850  142.3450 C   0  0  0  0  0  0  0  0  0  0  0  0
  183.8770  179.0730  144.1300 C   0  0  0  0  0  2  0  0  0  0  0  0
  187.4820  176.6060  141.3480 C   0  0  0  0  0  0  0  0  0  0  0  0
  187.7620  176.8700  142.7000 C   0  0  0  0  0  0  0  0  0  0  0  0
  186.5170  177.3660  140.4940 C   0  0  0  0  0  2  0  0  0  0  0  0
  186.2030  178.8650  142.9950 C   0  0  2  0  0  3  0  0  0  0  0  0
  188.9050  175.7470  143.2320 S   0  0  0  0  0  0  0  0  0  0  0  0
  188.2160  175.5350  140.8170 C   0  0  0  0  0  3  0  0  0  0  0  0
  187.1470  177.8730  143.5440 N   0  0  0  0  0  0  0  0  0  0  0  0
  189.9010  173.8370  141.4940 N   0  0  0  0  0  2  0  0  0  0  0  0
  191.0230  173.5060  142.3540 C   0  0  0  0  0  2  0  0  0  0  0  0
  193.5370  173.8060  143.3880 C   0  0  1  0  0  3  0  0  0  0  0  0
  192.3070  173.4380  141.5180 C   0  0  2  0  0  3  0  0  0  0  0  0
  194.7990  175.8940  143.0570 C   0  0  0  0  0  1  0  0  0  0  0  0
  193.5000  175.2240  143.0500 N   0  0  0  0  0  0  0  0  0  0  0  0
  193.5640  174.2190  141.9490 C   0  0  1  0  0  0  0  0  0  0  0  0
  192.5460  174.7110  141.0810 O   0  0  0  0  0  0  0  0  0  0  0  0
  195.2980  173.4980  145.1890 N   0  0  0  0  0  1  0  0  0  0  0  0
  195.5870  172.5780  143.0770 O   0  0  0  0  0  0  0  0  0  0  0  0
  194.8720  173.2720  143.8480 C   0  0  0  0  0  0  0  0  0  0  0  0
  187.5020  177.8930  144.9630 C   0  0  0  0  0  2  0  0  0  0  0  0
  186.7690  176.7840  145.7020 C   0  0  0  0  0  2  0  0  0  0  0  0
  187.6110  176.2850  146.8660 C   0  0  0  0  0  2  0  0  0  0  0  0
  188.9160  177.0630  146.9690 C   0  0  0  0  0  2  0  0  0  0  0  0
  190.0890  176.1440  146.9940 C   0  0  0  0  0  0  0  0  0  0  0  0
  193.9130  176.5920  146.6160 C   0  0  0  0  0  1  0  0  0  0  0  0
  189.9150  174.9100  147.1850 O   0  0  0  0  0  0  0  0  0  0  0  0
  191.4020  176.6800  146.8020 N   0  0  0  0  0  2  0  0  0  0  0  0
  192.6010  175.9020  146.7110 C   0  0  0  0  0  0  0  0  0  0  0  0
  192.5600  174.6440  146.6960 O   0  0  0  0  0  0  0  0  0  0  0  0
  1  6  1  0  0  0  0
  2  5  1  0  0  0  0
  4 11  1  0  0  0  0
  5  1  2  0  0  0  0
  6  3  1  0  0  0  0
  7  8  2  0  0  0  0
  8 11  1  0  0  0  0
  8 13  1  0  0  0  0
  9  2  1  0  0  0  0
  9  7  1  0  0  0  0
 10  5  1  1  0  0  0
 10 13  1  0  0  0  0
 10  3  1  0  0  0  0
 12  7  1  0  0  0  0
 12  4  2  0  0  0  0
 13 25  1  0  0  0  0
 14  4  1  0  0  0  0
 14 15  1  0  0  0  0
 16 24  1  1  0  0  0
 17 20  1  0  0  0  0
 17 15  1  1  0  0  0
 19 18  1  0  0  0  0
 19 16  1  0  0  0  0
 20 21  1  6  0  0  0
 20 19  1  0  0  0  0
 20 16  1  0  0  0  0
 21 17  1  0  0  0  0
 23 24  2  0  0  0  0
 24 22  1  0  0  0  0
 25 26  1  0  0  0  0
 26 27  1  0  0  0  0
 27 28  1  0  0  0  0
 28 29  1  0  0  0  0
 29 31  2  0  0  0  0
 30 33  1  0  0  0  0
 32 29  1  0  0  0  0
 33 32  1  0  0  0  0
 34 33  2  0  0  0  0
M  END
>  <MODEL>
2

>  <REMARK>
 VINA RESULT:      -7.0      2.240      4.462
  Name = 
  9 active torsions:
  status: ('A' for Active; 'I' for Inactive)
    1  A    between atoms: C_1  and  C_9
    2  A    between atoms: C_1  and  N_13
    3  A    between atoms: C_2  and  C_10
    4  A    between atoms: C_5  and  C_12
    5  A    between atoms: C_5  and  C_30
    6  A    between atoms: C_7  and  N_13
    7  A    between atoms: C_8  and  C_34
    8  A    between atoms: C_10  and  C_12
    9  A    between atoms: C_30  and  N_32
                            x       y       z     vdW  Elec       q    Type
                         _______ _______ _______ _____ _____    ______ ____

>  <TORSDO>
F 9

$$$$
=
 OpenBabel11042416083D

 34 38  0  0  1  0  0  0  0  0999 V2000
  183.9760  178.6820  145.4330 N   0  0  0  0  0  0  0  0  0  0  0  0
  185.0210  178.8630  143.3220 N   0  0  0  0  0  2  0  0  0  0  0  0
  185.9240  178.7110  147.2360 S   0  0  0  0  0  0  0  0  0  0  0  0
  188.0030  175.7600  141.6520 C   0  0  0  0  0  0  0  0  0  0  0  0
  185.0580  178.6920  144.7370 C   0  0  0  0  0  0  0  0  0  0  0  0
  184.1550  178.4950  146.8590 C   0  0  0  0  0  2  0  0  0  0  0  0
  186.9600  177.5970  142.5980 C   0  0  0  0  0  0  0  0  0  0  0  0
  187.2850  176.8800  143.7630 C   0  0  0  0  0  0  0  0  0  0  0  0
  186.2570  178.9170  142.5570 C   0  0  0  0  0  2  0  0  0  0  0  0
  186.3440  178.5290  145.4620 C   0  0  2  0  0  3  0  0  0  0  0  0
  188.0600  175.4510  143.3040 S   0  0  0  0  0  0  0  0  0  0  0  0
  187.3700  176.9690  141.4130 C   0  0  0  0  0  3  0  0  0  0  0  0
  186.9650  177.2330  145.1300 N   0  0  0  0  0  0  0  0  0  0  0  0
  188.5030  174.9000  140.6280 N   0  0  0  0  0  2  0  0  0  0  0  0
  188.9220  173.5380  140.9080 C   0  0  0  0  0  2  0  0  0  0  0  0
  190.3680  171.3010  141.5310 C   0  0  1  0  0  3  0  0  0  0  0  0
  190.4400  173.4210  140.7260 C   0  0  2  0  0  3  0  0  0  0  0  0
  191.7610  171.2220  143.5600 C   0  0  0  0  0  1  0  0  0  0  0  0
  190.6600  171.8640  142.8440 N   0  0  0  0  0  0  0  0  0  0  0  0
  191.2690  172.4930  141.6360 C   0  0  1  0  0  0  0  0  0  0  0  0
  191.0000  173.8700  141.8890 O   0  0  0  0  0  0  0  0  0  0  0  0
  190.7480  168.8010  141.7400 N   0  0  0  0  0  1  0  0  0  0  0  0
  192.0540  170.0850  140.3140 O   0  0  0  0  0  0  0  0  0  0  0  0
  191.1270  170.0490  141.1660 C   0  0  0  0  0  0  0  0  0  0  0  0
  187.2930  176.2750  146.1850 C   0  0  0  0  0  2  0  0  0  0  0  0
  188.7440  176.4390  146.6090 C   0  0  0  0  0  2  0  0  0  0  0  0
  189.2930  175.1160  147.1200 C   0  0  0  0  0  2  0  0  0  0  0  0
  190.7030  175.2850  147.6690 C   0  0  0  0  0  2  0  0  0  0  0  0
  191.7100  175.2920  146.5690 C   0  0  0  0  0  0  0  0  0  0  0  0
  194.7600  177.5000  145.6790 C   0  0  0  0  0  1  0  0  0  0  0  0
  191.6600  174.4130  145.6680 O   0  0  0  0  0  0  0  0  0  0  0  0
  192.7260  176.3010  146.5570 N   0  0  0  0  0  2  0  0  0  0  0  0
  193.6940  176.4780  145.5170 C   0  0  0  0  0  0  0  0  0  0  0  0
  193.6470  175.7930  144.4620 O   0  0  0  0  0  0  0  0  0  0  0  0
  1  6  1  0  0  0  0
  2  5  1  0  0  0  0
  4 11  1  0  0  0  0
  5  1  2  0  0  0  0
  6  3  1  0  0  0  0
  7  8  2  0  0  0  0
  8 13  1  0  0  0  0
  9  7  1  0  0  0  0
  9  2  1  0  0  0  0
 10  5  1  6  0  0  0
 10  3  1  0  0  0  0
 11  8  1  0  0  0  0
 12  4  2  0  0  0  0
 12  7  1  0  0  0  0
 13 10  1  0  0  0  0
 13 25  1  0  0  0  0
 14 15  1  0  0  0  0
 14  4  1  0  0  0  0
 16 24  1  1  0  0  0
 16 20  1  0  0  0  0
 16 19  1  0  0  0  0
 17 15  1  1  0  0  0
 17 20  1  0  0  0  0
 17 21  1  0  0  0  0
 19 18  1  0  0  0  0
 20 21  1  6  0  0  0
 20 19  1  0  0  0  0
 23 24  2  0  0  0  0
 24 22  1  0  0  0  0
 25 26  1  0  0  0  0
 26 27  1  0  0  0  0
 27 28  1  0  0  0  0
 29 28  1  0  0  0  0
 31 29  2  0  0  0  0
 32 29  1  0  0  0  0
 33 30  1  0  0  0  0
 33 32  1  0  0  0  0
 34 33  2  0  0  0  0
M  END
>  <MODEL>
3

>  <REMARK>
 VINA RESULT:      -6.9      2.538      5.545
  Name = 
  9 active torsions:
  status: ('A' for Active; 'I' for Inactive)
    1  A    between atoms: C_1  and  C_9
    2  A    between atoms: C_1  and  N_13
    3  A    between atoms: C_2  and  C_10
    4  A    between atoms: C_5  and  C_12
    5  A    between atoms: C_5  and  C_30
    6  A    between atoms: C_7  and  N_13
    7  A    between atoms: C_8  and  C_34
    8  A    between atoms: C_10  and  C_12
    9  A    between atoms: C_30  and  N_32
                            x       y       z     vdW  Elec       q    Type
                         _______ _______ _______ _____ _____    ______ ____

>  <TORSDO>
F 9

$$$$
=
 OpenBabel11042416083D

 34 38  0  0  1  0  0  0  0  0999 V2000
  183.9930  178.3600  145.8730 N   0  0  0  0  0  0  0  0  0  0  0  0
  184.6500  178.5630  143.6130 N   0  0  0  0  0  2  0  0  0  0  0  0
  186.1720  178.7930  147.3260 S   0  0  0  0  0  0  0  0  0  0  0  0
  187.7840  175.8420  141.5900 C   0  0  0  0  0  0  0  0  0  0  0  0
  184.9370  178.4880  145.0080 C   0  0  0  0  0  0  0  0  0  0  0  0
  184.4220  178.2910  147.2560 C   0  0  0  0  0  2  0  0  0  0  0  0
  186.6260  177.5580  142.6270 C   0  0  0  0  0  0  0  0  0  0  0  0
  187.2400  176.9720  143.7470 C   0  0  0  0  0  0  0  0  0  0  0  0
  185.7260  178.7530  142.6530 C   0  0  0  0  0  2  0  0  0  0  0  0
  186.3300  178.5650  145.5160 C   0  0  2  0  0  3  0  0  0  0  0  0
  188.1490  175.6500  143.2200 S   0  0  0  0  0  0  0  0  0  0  0  0
  186.9390  176.9250  141.4150 C   0  0  0  0  0  3  0  0  0  0  0  0
  187.0880  177.3580  145.1340 N   0  0  0  0  0  0  0  0  0  0  0  0
  188.2460  175.0040  140.5300 N   0  0  0  0  0  2  0  0  0  0  0  0
  189.4360  174.1830  140.6670 C   0  0  0  0  0  2  0  0  0  0  0  0
  190.7260  173.0790  142.8110 C   0  0  1  0  0  3  0  0  0  0  0  0
  189.0590  172.8340  141.2930 C   0  0  2  0  0  3  0  0  0  0  0  0
  192.2920  171.2020  142.5130 C   0  0  0  0  0  1  0  0  0  0  0  0
  191.5730  172.3170  141.9000 N   0  0  0  0  0  0  0  0  0  0  0  0
  190.1250  171.9740  141.9990 C   0  0  1  0  0  0  0  0  0  0  0  0
  189.7780  171.8870  140.6190 O   0  0  0  0  0  0  0  0  0  0  0  0
  189.7120  172.1450  144.9410 N   0  0  0  0  0  1  0  0  0  0  0  0
  191.9220  172.8530  144.8890 O   0  0  0  0  0  0  0  0  0  0  0  0
  190.8330  172.7140  144.2710 C   0  0  0  0  0  0  0  0  0  0  0  0
  187.7250  176.5290  146.1560 C   0  0  0  0  0  2  0  0  0  0  0  0
  189.1270  177.0410  146.4470 C   0  0  0  0  0  2  0  0  0  0  0  0
  190.1070  175.8790  146.5100 C   0  0  0  0  0  2  0  0  0  0  0  0
  191.3820  176.2790  147.2410 C   0  0  0  0  0  2  0  0  0  0  0  0
  192.5450  176.3190  146.3090 C   0  0  0  0  0  0  0  0  0  0  0  0
  192.9740  176.0900  142.4710 C   0  0  0  0  0  1  0  0  0  0  0  0
  193.7100  176.4700  146.7670 O   0  0  0  0  0  0  0  0  0  0  0  0
  192.3190  176.1890  144.9020 N   0  0  0  0  0  2  0  0  0  0  0  0
  193.3480  176.1190  143.9090 C   0  0  0  0  0  0  0  0  0  0  0  0
  194.5640  176.0670  144.2340 O   0  0  0  0  0  0  0  0  0  0  0  0
  1  6  1  0  0  0  0
  2  5  1  0  0  0  0
  4 11  1  0  0  0  0
  5  1  2  0  0  0  0
  6  3  1  0  0  0  0
  7  9  1  0  0  0  0
  7  8  2  0  0  0  0
  8 13  1  0  0  0  0
  9  2  1  0  0  0  0
 10  5  1  6  0  0  0
 10  3  1  0  0  0  0
 11  8  1  0  0  0  0
 12  4  2  0  0  0  0
 12  7  1  0  0  0  0
 13 10  1  0  0  0  0
 13 25  1  0  0  0  0
 14 15  1  0  0  0  0
 14  4  1  0  0  0  0
 16 24  1  1  0  0  0
 17 15  1  6  0  0  0
 17 20  1  0  0  0  0
 19 20  1  0  0  0  0
 19 18  1  0  0  0  0
 19 16  1  0  0  0  0
 20 21  1  1  0  0  0
 20 16  1  0  0  0  0
 21 17  1  0  0  0  0
 24 23  2  0  0  0  0
 24 22  1  0  0  0  0
 25 26  1  0  0  0  0
 26 27  1  0  0  0  0
 27 28  1  0  0  0  0
 29 31  2  0  0  0  0
 29 28  1  0  0  0  0
 30 33  1  0  0  0  0
 32 29  1  0  0  0  0
 33 34  2  0  0  0  0
 33 32  1  0  0  0  0
M  END
>  <MODEL>
4

>  <REMARK>
 VINA RESULT:      -6.8      2.262      5.475
  Name = 
  9 active torsions:
  status: ('A' for Active; 'I' for Inactive)
    1  A    between atoms: C_1  and  C_9
    2  A    between atoms: C_1  and  N_13
    3  A    between atoms: C_2  and  C_10
    4  A    between atoms: C_5  and  C_12
    5  A    between atoms: C_5  and  C_30
    6  A    between atoms: C_7  and  N_13
    7  A    between atoms: C_8  and  C_34
    8  A    between atoms: C_10  and  C_12
    9  A    between atoms: C_30  and  N_32
                            x       y       z     vdW  Elec       q    Type
                         _______ _______ _______ _____ _____    ______ ____

>  <TORSDO>
F 9

$$$$
=
 OpenBabel11042416083D

 34 38  0  0  1  0  0  0  0  0999 V2000
  184.0180  178.5550  145.7390 N   0  0  0  0  0  0  0  0  0  0  0  0
  184.8640  178.8500  143.5540 N   0  0  0  0  0  2  0  0  0  0  0  0
  186.1180  178.5720  147.3630 S   0  0  0  0  0  0  0  0  0  0  0  0
  187.7660  175.9040  141.5000 C   0  0  0  0  0  0  0  0  0  0  0  0
  185.0330  178.6240  144.9510 C   0  0  0  0  0  0  0  0  0  0  0  0
  184.3280  178.3190  147.1350 C   0  0  0  0  0  2  0  0  0  0  0  0
  186.7640  177.6710  142.6100 C   0  0  0  0  0  0  0  0  0  0  0  0
  187.2100  176.9200  143.7100 C   0  0  0  0  0  0  0  0  0  0  0  0
  186.0250  178.9700  142.6850 C   0  0  0  0  0  2  0  0  0  0  0  0
  186.3820  178.4730  145.5530 C   0  0  2  0  0  3  0  0  0  0  0  0
  187.9790  175.5340  143.1260 S   0  0  0  0  0  0  0  0  0  0  0  0
  187.0830  177.1020  141.3680 C   0  0  0  0  0  3  0  0  0  0  0  0
  187.0050  177.2090  145.1140 N   0  0  0  0  0  0  0  0  0  0  0  0
  188.1960  175.1000  140.4010 N   0  0  0  0  0  2  0  0  0  0  0  0
  188.6790  173.7440  140.5870 C   0  0  0  0  0  2  0  0  0  0  0  0
  190.2050  171.9240  139.2310 C   0  0  1  0  0  3  0  0  0  0  0  0
  188.1480  172.8510  139.4590 C   0  0  2  0  0  3  0  0  0  0  0  0
  190.9860  172.3860  136.9420 C   0  0  0  0  0  1  0  0  0  0  0  0
  190.4630  172.9200  138.1970 N   0  0  0  0  0  0  0  0  0  0  0  0
  189.0870  172.3640  138.3380 C   0  0  1  0  0  0  0  0  0  0  0  0
  188.3120  173.5600  138.3020 O   0  0  0  0  0  0  0  0  0  0  0  0
  192.0160  170.1480  139.1430 N   0  0  0  0  0  1  0  0  0  0  0  0
  189.8350  169.6520  138.5190 O   0  0  0  0  0  0  0  0  0  0  0  0
  190.6580  170.5180  138.9190 C   0  0  0  0  0  0  0  0  0  0  0  0
  187.4510  176.2220  146.0960 C   0  0  0  0  0  2  0  0  0  0  0  0
  188.8820  176.5150  146.5200 C   0  0  0  0  0  2  0  0  0  0  0  0
  189.5310  175.2570  147.0770 C   0  0  0  0  0  2  0  0  0  0  0  0
  190.0530  174.3690  145.9550 C   0  0  0  0  0  2  0  0  0  0  0  0
  191.2560  174.9690  145.3110 C   0  0  0  0  0  0  0  0  0  0  0  0
  194.3350  176.9360  146.5830 C   0  0  0  0  0  1  0  0  0  0  0  0
  191.4180  174.8630  144.0650 O   0  0  0  0  0  0  0  0  0  0  0  0
  192.2140  175.6560  146.1220 N   0  0  0  0  0  2  0  0  0  0  0  0
  193.3610  176.3530  145.6240 C   0  0  0  0  0  0  0  0  0  0  0  0
  193.5500  176.4940  144.3870 O   0  0  0  0  0  0  0  0  0  0  0  0
  1  6  1  0  0  0  0
  2  5  1  0  0  0  0
  4 11  1  0  0  0  0
  5  1  2  0  0  0  0
  6  3  1  0  0  0  0
  7  9  1  0  0  0  0
  7  8  2  0  0  0  0
  8 13  1  0  0  0  0
  9  2  1  0  0  0  0
 10  5  1  6  0  0  0
 10  3  1  0  0  0  0
 11  8  1  0  0  0  0
 12  4  2  0  0  0  0
 12  7  1  0  0  0  0
 13 10  1  0  0  0  0
 13 25  1  0  0  0  0
 14 15  1  0  0  0  0
 14  4  1  0  0  0  0
 16 24  1  6  0  0  0
 17 15  1  1  0  0  0
 18 19  1  0  0  0  0
 19 20  1  0  0  0  0
 19 16  1  0  0  0  0
 20 21  1  6  0  0  0
 20 16  1  0  0  0  0
 20 17  1  0  0  0  0
 21 17  1  0  0  0  0
 23 24  2  0  0  0  0
 24 22  1  0  0  0  0
 25 26  1  0  0  0  0
 26 27  1  0  0  0  0
 28 27  1  0  0  0  0
 29 28  1  0  0  0  0
 29 32  1  0  0  0  0
 31 29  2  0  0  0  0
 33 32  1  0  0  0  0
 33 30  1  0  0  0  0
 34 33  2  0  0  0  0
M  END
>  <MODEL>
5

>  <REMARK>
 VINA RESULT:      -6.8      2.860      6.114
  Name = 
  9 active torsions:
  status: ('A' for Active; 'I' for Inactive)
    1  A    between atoms: C_1  and  C_9
    2  A    between atoms: C_1  and  N_13
    3  A    between atoms: C_2  and  C_10
    4  A    between atoms: C_5  and  C_12
    5  A    between atoms: C_5  and  C_30
    6  A    between atoms: C_7  and  N_13
    7  A    between atoms: C_8  and  C_34
    8  A    between atoms: C_10  and  C_12
    9  A    between atoms: C_30  and  N_32
                            x       y       z     vdW  Elec       q    Type
                         _______ _______ _______ _____ _____    ______ ____

>  <TORSDO>
F 9

$$$$
=
 OpenBabel11042416083D

 34 38  0  0  1  0  0  0  0  0999 V2000
  184.9270  179.0290  145.5520 N   0  0  0  0  0  0  0  0  0  0  0  0
  186.2700  177.6370  146.9080 N   0  0  0  0  0  2  0  0  0  0  0  0
  184.9320  177.9440  143.1300 S   0  0  0  0  0  0  0  0  0  0  0  0
  190.7570  176.8580  146.1470 C   0  0  0  0  0  0  0  0  0  0  0  0
  185.7430  178.0380  145.6460 C   0  0  0  0  0  0  0  0  0  0  0  0
  184.4700  179.3360  144.2120 C   0  0  0  0  0  2  0  0  0  0  0  0
  188.4490  176.7590  146.3000 C   0  0  0  0  0  0  0  0  0  0  0  0
  188.5820  177.2140  144.9760 C   0  0  0  0  0  0  0  0  0  0  0  0
  187.1560  176.4860  147.0000 C   0  0  0  0  0  2  0  0  0  0  0  0
  186.1040  177.3250  144.3940 C   0  0  2  0  0  3  0  0  0  0  0  0
  190.2280  177.3820  144.6390 S   0  0  0  0  0  0  0  0  0  0  0  0
  189.6730  176.5530  146.9530 C   0  0  0  0  0  3  0  0  0  0  0  0
  187.5200  177.5590  144.0550 N   0  0  0  0  0  0  0  0  0  0  0  0
  192.1190  176.7610  146.5630 N   0  0  0  0  0  2  0  0  0  0  0  0
  192.9600  175.6410  146.1790 C   0  0  0  0  0  2  0  0  0  0  0  0
  194.6940  173.9410  144.9210 C   0  0  1  0  0  3  0  0  0  0  0  0
  193.7780  176.0160  144.9370 C   0  0  2  0  0  3  0  0  0  0  0  0
  197.1290  174.1940  145.1900 C   0  0  0  0  0  1  0  0  0  0  0  0
  195.7940  174.4960  145.7020 N   0  0  0  0  0  0  0  0  0  0  0  0
  195.1410  175.3470  144.6660 C   0  0  1  0  0  0  0  0  0  0  0  0
  194.9470  176.5550  145.3990 O   0  0  0  0  0  0  0  0  0  0  0  0
  195.4190  171.6570  144.0870 N   0  0  0  0  0  1  0  0  0  0  0  0
  195.0640  173.4050  142.6020 O   0  0  0  0  0  0  0  0  0  0  0  0
  195.0860  173.0110  143.7980 C   0  0  0  0  0  0  0  0  0  0  0  0
  187.8870  178.1330  142.7610 C   0  0  0  0  0  2  0  0  0  0  0  0
  188.5930  177.0910  141.9080 C   0  0  0  0  0  2  0  0  0  0  0  0
  187.6050  176.0260  141.4570 C   0  0  0  0  0  2  0  0  0  0  0  0
  188.3280  174.8360  140.8410 C   0  0  0  0  0  2  0  0  0  0  0  0
  189.4310  174.3610  141.7240 C   0  0  0  0  0  0  0  0  0  0  0  0
  189.6890  173.3140  145.4400 C   0  0  0  0  0  1  0  0  0  0  0  0
  190.5930  174.2200  141.2560 O   0  0  0  0  0  0  0  0  0  0  0  0
  189.1500  174.0680  143.0970 N   0  0  0  0  0  2  0  0  0  0  0  0
  190.1290  173.6940  144.0720 C   0  0  0  0  0  0  0  0  0  0  0  0
  191.3580  173.6950  143.7950 O   0  0  0  0  0  0  0  0  0  0  0  0
  1  5  2  0  0  0  0
  2  9  1  0  0  0  0
  3  6  1  0  0  0  0
  4 14  1  0  0  0  0
  4 12  2  0  0  0  0
  5  2  1  0  0  0  0
  6  1  1  0  0  0  0
  7 12  1  0  0  0  0
  7  9  1  0  0  0  0
  8  7  2  0  0  0  0
 10  3  1  6  0  0  0
 10  5  1  0  0  0  0
 11  8  1  0  0  0  0
 11  4  1  0  0  0  0
 13 10  1  0  0  0  0
 13  8  1  0  0  0  0
 15 14  1  0  0  0  0
 16 24  1  6  0  0  0
 16 19  1  0  0  0  0
 17 21  1  0  0  0  0
 17 15  1  1  0  0  0
 18 19  1  0  0  0  0
 20 16  1  0  0  0  0
 20 17  1  0  0  0  0
 20 21  1  6  0  0  0
 20 19  1  0  0  0  0
 23 24  2  0  0  0  0
 24 22  1  0  0  0  0
 25 13  1  0  0  0  0
 26 25  1  0  0  0  0
 27 26  1  0  0  0  0
 28 27  1  0  0  0  0
 28 29  1  0  0  0  0
 29 32  1  0  0  0  0
 31 29  2  0  0  0  0
 32 33  1  0  0  0  0
 33 30  1  0  0  0  0
 34 33  2  0  0  0  0
M  END
>  <MODEL>
6

>  <REMARK>
 VINA RESULT:      -6.8      1.572      1.856
  Name = 
  9 active torsions:
  status: ('A' for Active; 'I' for Inactive)
    1  A    between atoms: C_1  and  C_9
    2  A    between atoms: C_1  and  N_13
    3  A    between atoms: C_2  and  C_10
    4  A    between atoms: C_5  and  C_12
    5  A    between atoms: C_5  and  C_30
    6  A    between atoms: C_7  and  N_13
    7  A    between atoms: C_8  and  C_34
    8  A    between atoms: C_10  and  C_12
    9  A    between atoms: C_30  and  N_32
                            x       y       z     vdW  Elec       q    Type
                         _______ _______ _______ _____ _____    ______ ____

>  <TORSDO>
F 9

$$$$
=
 OpenBabel11042416083D

 34 38  0  0  1  0  0  0  0  0999 V2000
  184.8880  179.0620  145.6310 N   0  0  0  0  0  0  0  0  0  0  0  0
  186.1960  177.6120  146.9600 N   0  0  0  0  0  2  0  0  0  0  0  0
  184.7650  177.9590  143.2200 S   0  0  0  0  0  0  0  0  0  0  0  0
  190.6120  176.5950  146.0770 C   0  0  0  0  0  0  0  0  0  0  0  0
  185.6540  178.0300  145.7100 C   0  0  0  0  0  0  0  0  0  0  0  0
  184.4080  179.3810  144.3020 C   0  0  0  0  0  2  0  0  0  0  0  0
  188.3070  176.6170  146.2970 C   0  0  0  0  0  0  0  0  0  0  0  0
  188.4250  177.0550  144.9670 C   0  0  0  0  0  0  0  0  0  0  0  0
  187.0230  176.4170  147.0370 C   0  0  0  0  0  2  0  0  0  0  0  0
  185.9400  177.2890  144.4550 C   0  0  2  0  0  3  0  0  0  0  0  0
  190.0670  177.1340  144.5800 S   0  0  0  0  0  0  0  0  0  0  0  0
  189.5380  176.3530  146.9170 C   0  0  0  0  0  3  0  0  0  0  0  0
  187.3560  177.4470  144.0730 N   0  0  0  0  0  0  0  0  0  0  0  0
  191.9790  176.4300  146.4540 N   0  0  0  0  0  2  0  0  0  0  0  0
  193.0620  176.5950  145.5010 C   0  0  0  0  0  2  0  0  0  0  0  0
  195.2280  176.2250  143.8720 C   0  0  1  0  0  3  0  0  0  0  0  0
  193.6190  175.2190  145.1140 C   0  0  2  0  0  3  0  0  0  0  0  0
  194.9430  175.4910  141.5390 C   0  0  0  0  0  1  0  0  0  0  0  0
  194.3350  176.0850  142.7280 N   0  0  0  0  0  0  0  0  0  0  0  0
  194.3470  175.0190  143.7710 C   0  0  1  0  0  0  0  0  0  0  0  0
  192.9490  174.8400  143.9850 O   0  0  0  0  0  0  0  0  0  0  0  0
  197.2140  174.6650  144.1140 N   0  0  0  0  0  1  0  0  0  0  0  0
  197.4030  176.6540  142.9320 O   0  0  0  0  0  0  0  0  0  0  0  0
  196.6780  175.8900  143.6220 C   0  0  0  0  0  0  0  0  0  0  0  0
  187.7140  177.9910  142.7640 C   0  0  0  0  0  2  0  0  0  0  0  0
  187.4500  176.9590  141.6790 C   0  0  0  0  0  2  0  0  0  0  0  0
  188.6170  175.9870  141.5850 C   0  0  0  0  0  2  0  0  0  0  0  0
  188.2520  174.7760  140.7360 C   0  0  0  0  0  2  0  0  0  0  0  0
  188.7730  173.5180  141.3440 C   0  0  0  0  0  0  0  0  0  0  0  0
  189.7870  172.4320  144.9160 C   0  0  0  0  0  1  0  0  0  0  0  0
  188.9540  172.5020  140.6210 O   0  0  0  0  0  0  0  0  0  0  0  0
  189.0560  173.4840  142.7460 N   0  0  0  0  0  2  0  0  0  0  0  0
  189.6420  172.3760  143.4380 C   0  0  0  0  0  0  0  0  0  0  0  0
  190.0520  171.3620  142.8130 O   0  0  0  0  0  0  0  0  0  0  0  0
  1  5  2  0  0  0  0
  2  9  1  0  0  0  0
  3  6  1  0  0  0  0
  4 14  1  0  0  0  0
  4 12  2  0  0  0  0
  5  2  1  0  0  0  0
  6  1  1  0  0  0  0
  7 12  1  0  0  0  0
  7  9  1  0  0  0  0
  8  7  2  0  0  0  0
 10  3  1  6  0  0  0
 10  5  1  0  0  0  0
 11  8  1  0  0  0  0
 11  4  1  0  0  0  0
 13 10  1  0  0  0  0
 13  8  1  0  0  0  0
 15 14  1  0  0  0  0
 16 24  1  6  0  0  0
 17 15  1  6  0  0  0
 18 19  1  0  0  0  0
 19 20  1  0  0  0  0
 19 16  1  0  0  0  0
 20 16  1  0  0  0  0
 20 21  1  6  0  0  0
 20 17  1  0  0  0  0
 21 17  1  0  0  0  0
 23 24  2  0  0  0  0
 24 22  1  0  0  0  0
 25 13  1  0  0  0  0
 26 25  1  0  0  0  0
 27 26  1  0  0  0  0
 28 29  1  0  0  0  0
 28 27  1  0  0  0  0
 29 32  1  0  0  0  0
 31 29  2  0  0  0  0
 32 33  1  0  0  0  0
 33 30  1  0  0  0  0
 34 33  2  0  0  0  0
M  END
>  <MODEL>
7

>  <REMARK>
 VINA RESULT:      -6.7      1.068      1.182
  Name = 
  9 active torsions:
  status: ('A' for Active; 'I' for Inactive)
    1  A    between atoms: C_1  and  C_9
    2  A    between atoms: C_1  and  N_13
    3  A    between atoms: C_2  and  C_10
    4  A    between atoms: C_5  and  C_12
    5  A    between atoms: C_5  and  C_30
    6  A    between atoms: C_7  and  N_13
    7  A    between atoms: C_8  and  C_34
    8  A    between atoms: C_10  and  C_12
    9  A    between atoms: C_30  and  N_32
                            x       y       z     vdW  Elec       q    Type
                         _______ _______ _______ _____ _____    ______ ____

>  <TORSDO>
F 9

$$$$
=
 OpenBabel11042416083D

 34 38  0  0  1  0  0  0  0  0999 V2000
  196.3740  174.1460  144.2780 N   0  0  0  0  0  0  0  0  0  0  0  0
  195.3320  175.2660  146.0780 N   0  0  0  0  0  2  0  0  0  0  0  0
  196.0220  175.6780  142.1400 S   0  0  0  0  0  0  0  0  0  0  0  0
  190.8200  176.2290  146.2430 C   0  0  0  0  0  0  0  0  0  0  0  0
  195.6290  175.1100  144.6930 C   0  0  0  0  0  0  0  0  0  0  0  0
  196.5930  174.0990  142.8470 C   0  0  0  0  0  2  0  0  0  0  0  0
  193.1240  176.2700  146.0210 C   0  0  0  0  0  0  0  0  0  0  0  0
  192.7570  176.0800  144.6780 C   0  0  0  0  0  0  0  0  0  0  0  0
  194.5250  176.3880  146.5320 C   0  0  0  0  0  2  0  0  0  0  0  0
  195.1010  176.0560  143.6760 C   0  0  2  0  0  3  0  0  0  0  0  0
  191.0730  176.0000  144.5970 S   0  0  0  0  0  0  0  0  0  0  0  0
  192.0330  176.3600  146.8980 C   0  0  0  0  0  3  0  0  0  0  0  0
  193.6390  175.9070  143.5420 N   0  0  0  0  0  0  0  0  0  0  0  0
  189.5490  176.2600  146.8930 N   0  0  0  0  0  2  0  0  0  0  0  0
  188.5170  177.2080  146.5130 C   0  0  0  0  0  2  0  0  0  0  0  0
  186.4990  178.2340  144.9780 C   0  0  1  0  0  3  0  0  0  0  0  0
  187.2240  176.4530  146.1800 C   0  0  2  0  0  3  0  0  0  0  0  0
  184.4100  179.0330  146.0070 C   0  0  0  0  0  1  0  0  0  0  0  0
  185.8180  178.6840  146.1860 N   0  0  0  0  0  0  0  0  0  0  0  0
  185.9150  177.2210  145.9130 C   0  0  1  0  0  0  0  0  0  0  0  0
  186.3440  176.7420  147.1850 O   0  0  0  0  0  0  0  0  0  0  0  0
  185.1280  177.1750  143.1240 N   0  0  0  0  0  1  0  0  0  0  0  0
  185.5100  179.4640  143.1580 O   0  0  0  0  0  0  0  0  0  0  0  0
  185.7100  178.3430  143.6960 C   0  0  0  0  0  0  0  0  0  0  0  0
  193.0410  175.5980  142.2440 C   0  0  0  0  0  2  0  0  0  0  0  0
  192.8950  174.0940  142.0790 C   0  0  0  0  0  2  0  0  0  0  0  0
  192.2300  173.7740  140.7490 C   0  0  0  0  0  2  0  0  0  0  0  0
  191.0360  172.8490  140.9450 C   0  0  0  0  0  2  0  0  0  0  0  0
  189.9400  173.5370  141.6860 C   0  0  0  0  0  0  0  0  0  0  0  0
  187.4960  176.4250  140.8780 C   0  0  0  0  0  1  0  0  0  0  0  0
  189.6450  173.1670  142.8540 O   0  0  0  0  0  0  0  0  0  0  0  0
  189.2330  174.6090  141.0530 N   0  0  0  0  0  2  0  0  0  0  0  0
  188.2260  175.4110  141.6810 C   0  0  0  0  0  0  0  0  0  0  0  0
  187.9610  175.2810  142.9050 O   0  0  0  0  0  0  0  0  0  0  0  0
  1  5  2  0  0  0  0
  2  9  1  0  0  0  0
  3  6  1  0  0  0  0
  4 14  1  0  0  0  0
  4 12  2  0  0  0  0
  5  2  1  0  0  0  0
  6  1  1  0  0  0  0
  7  9  1  0  0  0  0
  7 12  1  0  0  0  0
  8  7  2  0  0  0  0
 10  3  1  6  0  0  0
 10  5  1  0  0  0  0
 11  8  1  0  0  0  0
 11  4  1  0  0  0  0
 13 10  1  0  0  0  0
 13  8  1  0  0  0  0
 15 14  1  0  0  0  0
 16 24  1  6  0  0  0
 16 20  1  0  0  0  0
 16 19  1  0  0  0  0
 17 15  1  1  0  0  0
 17 21  1  0  0  0  0
 18 19  1  0  0  0  0
 20 17  1  0  0  0  0
 20 19  1  0  0  0  0
 20 21  1  6  0  0  0
 22 24  1  0  0  0  0
 23 24  2  0  0  0  0
 25 13  1  0  0  0  0
 26 25  1  0  0  0  0
 27 28  1  0  0  0  0
 27 26  1  0  0  0  0
 28 29  1  0  0  0  0
 29 31  2  0  0  0  0
 30 33  1  0  0  0  0
 32 33  1  0  0  0  0
 32 29  1  0  0  0  0
 33 34  2  0  0  0  0
M  END
>  <MODEL>
8

>  <REMARK>
 VINA RESULT:      -6.7      2.720      7.843
  Name = 
  9 active torsions:
  status: ('A' for Active; 'I' for Inactive)
    1  A    between atoms: C_1  and  C_9
    2  A    between atoms: C_1  and  N_13
    3  A    between atoms: C_2  and  C_10
    4  A    between atoms: C_5  and  C_12
    5  A    between atoms: C_5  and  C_30
    6  A    between atoms: C_7  and  N_13
    7  A    between atoms: C_8  and  C_34
    8  A    between atoms: C_10  and  C_12
    9  A    between atoms: C_30  and  N_32
                            x       y       z     vdW  Elec       q    Type
                         _______ _______ _______ _____ _____    ______ ____

>  <TORSDO>
F 9

$$$$
=
 OpenBabel11042416083D

 34 38  0  0  1  0  0  0  0  0999 V2000
  184.6530  179.0360  145.4640 N   0  0  0  0  0  0  0  0  0  0  0  0
  185.9230  177.6100  146.8540 N   0  0  0  0  0  2  0  0  0  0  0  0
  184.7270  177.9710  143.0330 S   0  0  0  0  0  0  0  0  0  0  0  0
  190.4200  176.7600  146.2470 C   0  0  0  0  0  0  0  0  0  0  0  0
  185.4490  178.0310  145.5770 C   0  0  0  0  0  0  0  0  0  0  0  0
  184.2500  179.3620  144.1100 C   0  0  0  0  0  2  0  0  0  0  0  0
  188.1070  176.6990  146.3160 C   0  0  0  0  0  0  0  0  0  0  0  0
  188.2950  177.1630  145.0030 C   0  0  0  0  0  0  0  0  0  0  0  0
  186.7850  176.4430  146.9670 C   0  0  0  0  0  2  0  0  0  0  0  0
  185.8420  177.3210  144.3330 C   0  0  2  0  0  3  0  0  0  0  0  0
  189.9550  177.3060  144.7260 S   0  0  0  0  0  0  0  0  0  0  0  0
  189.3030  176.4670  147.0110 C   0  0  0  0  0  3  0  0  0  0  0  0
  187.2730  177.5350  144.0470 N   0  0  0  0  0  0  0  0  0  0  0  0
  191.7650  176.6360  146.7110 N   0  0  0  0  0  2  0  0  0  0  0  0
  192.7720  175.9110  145.9560 C   0  0  0  0  0  2  0  0  0  0  0  0
  194.3900  175.2650  143.8470 C   0  0  1  0  0  3  0  0  0  0  0  0
  193.6990  176.9090  145.2490 C   0  0  2  0  0  3  0  0  0  0  0  0
  196.8160  174.9860  144.1560 C   0  0  0  0  0  1  0  0  0  0  0  0
  195.4930  175.0340  144.7730 N   0  0  0  0  0  0  0  0  0  0  0  0
  194.9970  176.4260  144.5720 C   0  0  1  0  0  0  0  0  0  0  0  0
  194.8880  176.8670  145.9230 O   0  0  0  0  0  0  0  0  0  0  0  0
  194.8820  174.0250  141.6890 N   0  0  0  0  0  1  0  0  0  0  0  0
  194.8720  176.3460  141.7490 O   0  0  0  0  0  0  0  0  0  0  0  0
  194.7480  175.2630  142.3810 C   0  0  0  0  0  0  0  0  0  0  0  0
  187.6960  178.1120  142.7720 C   0  0  0  0  0  2  0  0  0  0  0  0
  188.5050  177.0970  141.9800 C   0  0  0  0  0  2  0  0  0  0  0  0
  187.5870  176.0230  141.4140 C   0  0  0  0  0  2  0  0  0  0  0  0
  187.8910  174.6650  142.0330 C   0  0  0  0  0  2  0  0  0  0  0  0
  188.4460  173.7240  141.0180 C   0  0  0  0  0  0  0  0  0  0  0  0
  188.9480  173.8360  137.1840 C   0  0  0  0  0  1  0  0  0  0  0  0
  188.8960  172.6040  141.3810 O   0  0  0  0  0  0  0  0  0  0  0  0
  188.4630  174.1120  139.6410 N   0  0  0  0  0  2  0  0  0  0  0  0
  188.8810  173.2740  138.5580 C   0  0  0  0  0  0  0  0  0  0  0  0
  189.1780  172.0650  138.7480 O   0  0  0  0  0  0  0  0  0  0  0  0
  1  5  2  0  0  0  0
  2  9  1  0  0  0  0
  3  6  1  0  0  0  0
  4 14  1  0  0  0  0
  4 12  2  0  0  0  0
  5  2  1  0  0  0  0
  6  1  1  0  0  0  0
  7  9  1  0  0  0  0
  7 12  1  0  0  0  0
  8  7  2  0  0  0  0
 10  3  1  6  0  0  0
 10  5  1  0  0  0  0
 11  8  1  0  0  0  0
 11  4  1  0  0  0  0
 13 10  1  0  0  0  0
 13  8  1  0  0  0  0
 15 14  1  0  0  0  0
 16 24  1  6  0  0  0
 16 20  1  0  0  0  0
 16 19  1  0  0  0  0
 17 21  1  0  0  0  0
 17 15  1  1  0  0  0
 18 19  1  0  0  0  0
 20 19  1  0  0  0  0
 20 17  1  0  0  0  0
 20 21  1  6  0  0  0
 22 24  1  0  0  0  0
 23 24  2  0  0  0  0
 25 13  1  0  0  0  0
 26 25  1  0  0  0  0
 27 26  1  0  0  0  0
 27 28  1  0  0  0  0
 29 31  2  0  0  0  0
 29 28  1  0  0  0  0
 30 33  1  0  0  0  0
 32 29  1  0  0  0  0
 33 34  2  0  0  0  0
 33 32  1  0  0  0  0
M  END
>  <MODEL>
9

>  <REMARK>
 VINA RESULT:      -6.6      1.579      2.254
  Name = 
  9 active torsions:
  status: ('A' for Active; 'I' for Inactive)
    1  A    between atoms: C_1  and  C_9
    2  A    between atoms: C_1  and  N_13
    3  A    between atoms: C_2  and  C_10
    4  A    between atoms: C_5  and  C_12
    5  A    between atoms: C_5  and  C_30
    6  A    between atoms: C_7  and  N_13
    7  A    between atoms: C_8  and  C_34
    8  A    between atoms: C_10  and  C_12
    9  A    between atoms: C_30  and  N_32
                            x       y       z     vdW  Elec       q    Type
                         _______ _______ _______ _____ _____    ______ ____

>  <TORSDO>
F 9

$$$$
