=
 OpenBabel11042417513D

 57 63  0  0  1  0  0  0  0  0999 V2000
  195.2040  175.1710  141.8180 C   0  0  0  0  0  0  0  0  0  0  0  0
  192.9370  174.7220  142.5910 C   0  0  0  0  0  0  0  0  0  0  0  0
  194.2610  175.0930  142.8520 C   0  0  0  0  0  3  0  0  0  0  0  0
  191.9770  173.1750  138.7920 C   0  0  0  0  0  3  0  0  0  0  0  0
  193.4970  174.4900  140.2340 C   0  0  0  0  0  0  0  0  0  0  0  0
  191.1180  174.0610  140.9320 C   0  0  0  0  0  2  0  0  0  0  0  0
  192.5470  174.4220  141.2710 C   0  0  0  0  0  0  0  0  0  0  0  0
  193.0880  174.1890  138.8250 C   0  0  0  0  0  2  0  0  0  0  0  0
  194.8130  174.8670  140.5080 C   0  0  0  0  0  3  0  0  0  0  0  0
  191.0440  173.1140  139.7550 C   0  0  0  0  0  0  0  0  0  0  0  0
  191.3330  173.3910  143.9120 C   0  0  0  0  0  3  0  0  0  0  0  0
  192.0040  174.6010  143.7250 C   0  0  0  0  0  0  0  0  0  0  0  0
  189.7460  172.0720  145.0880 F   0  0  0  0  0  0  0  0  0  0  0  0
  192.3960  177.0150  144.3340 C   0  0  0  0  0  1  0  0  0  0  0  0
  190.4050  173.2480  144.9420 C   0  0  0  0  0  0  0  0  0  0  0  0
  190.7800  175.5580  145.6120 C   0  0  0  0  0  0  0  0  0  0  0  0
  191.7300  175.6950  144.5750 C   0  0  0  0  0  0  0  0  0  0  0  0
  190.1210  174.3230  145.7870 C   0  0  0  0  0  0  0  0  0  0  0  0
  189.1970  174.1610  146.7670 F   0  0  0  0  0  0  0  0  0  0  0  0
  190.7850  176.5820  147.9320 C   0  0  0  0  0  1  0  0  0  0  0  0
  190.4330  176.7580  146.4630 C   0  0  2  0  0  3  0  0  0  0  0  0
  188.5640  177.5950  145.0560 C   0  0  0  0  0  3  0  0  0  0  0  0
  189.0210  177.2260  146.2530 C   0  0  0  0  0  3  0  0  0  0  0  0
  187.1610  178.0710  144.8970 C   0  0  0  0  0  2  0  0  0  0  0  0
  186.6510  177.7130  143.5100 C   0  0  2  0  0  3  0  0  0  0  0  0
  187.8150  177.6230  142.5250 C   0  0  1  0  0  3  0  0  0  0  0  0
  188.2670  176.3050  142.4560 O   0  0  0  0  0  1  0  0  0  0  0  0
  187.1470  176.8400  140.5620 C   0  0  0  0  0  1  0  0  0  0  0  0
  187.3940  178.0270  141.2540 O   0  0  0  0  0  0  0  0  0  0  0  0
  185.6980  178.7250  143.0720 N   0  0  0  0  0  2  0  0  0  0  0  0
  183.8460  178.1410  141.8630 C   0  0  0  0  0  1  0  0  0  0  0  0
  183.6760  179.0420  143.9160 O   0  0  0  0  0  1  0  0  0  0  0  0
  184.4170  178.1660  143.1960 N   0  0  0  0  0  0  0  0  0  0  0  0
  196.8850  176.4850  143.1520 N   0  0  0  0  0  1  0  0  0  0  0  0
  197.5430  175.0870  141.4260 O   0  0  0  0  0  0  0  0  0  0  0  0
  196.5950  175.5610  142.1070 C   0  0  0  0  0  0  0  0  0  0  0  0
  188.7390  172.6130  138.9470 C   0  0  0  0  0  1  0  0  0  0  0  0
  189.9460  172.1910  139.6440 N   0  0  0  0  0  0  0  0  0  0  0  0
  193.2880  168.9520  141.5580 C   0  0  0  0  0  0  0  0  0  0  0  0
  192.1000  169.4950  139.6880 C   0  0  0  0  0  0  0  0  0  0  0  0
  194.0980  168.1660  140.2660 S   0  0  0  0  0  0  0  0  0  0  0  0
  193.0390  168.7210  139.0700 C   0  0  0  0  0  0  0  0  0  0  0  0
  191.0430  170.0580  139.0550 C   0  0  0  0  0  0  0  0  0  0  0  0
  190.8980  169.8480  137.6730 C   0  0  0  0  0  3  0  0  0  0  0  0
  190.1320  170.7830  140.0110 C   0  0  1  0  0  3  0  0  0  0  0  0
  191.8720  169.0680  136.9930 C   0  0  0  0  0  0  0  0  0  0  0  0
  192.9580  168.4810  137.6960 C   0  0  0  0  0  3  0  0  0  0  0  0
  191.7380  168.8430  135.5310 C   0  0  0  0  0  1  0  0  0  0  0  0
  192.2010  169.6480  141.0240 C   0  0  0  0  0  0  0  0  0  0  0  0
  190.8890  170.6410  141.7150 S   0  0  0  0  0  0  0  0  0  0  0  0
  192.7600  168.1890  143.9200 C   0  0  0  0  0  3  0  0  0  0  0  0
  193.6200  168.8250  142.9460 N   0  0  0  0  0  0  0  0  0  0  0  0
  194.4820  169.3250  145.0530 C   0  0  2  0  0  3  0  0  0  0  0  0
  193.3550  168.4080  145.2390 N   0  0  0  0  0  0  0  0  0  0  0  0
  194.7380  169.4850  143.5680 C   0  0  0  0  0  2  0  0  0  0  0  0
  195.4160  168.4190  147.2260 C   0  0  0  0  0  1  0  0  0  0  0  0
  195.7230  168.8290  145.7920 C   0  0  0  0  0  2  0  0  0  0  0  0
  1 36  1  0  0  0  0
  1  3  1  0  0  0  0
  2  3  2  0  0  0  0
  2 12  1  0  0  0  0
  4  8  1  0  0  0  0
  4 10  2  0  0  0  0
  5  9  1  0  0  0  0
  5  7  2  0  0  0  0
  6  7  1  0  0  0  0
  7  2  1  0  0  0  0
  8  5  1  0  0  0  0
  9  1  2  0  0  0  0
 10  6  1  0  0  0  0
 11 15  1  0  0  0  0
 12 11  2  0  0  0  0
 12 17  1  0  0  0  0
 14 17  1  0  0  0  0
 15 13  1  0  0  0  0
 15 18  2  0  0  0  0
 16 18  1  0  0  0  0
 16 21  1  0  0  0  0
 17 16  2  0  0  0  0
 18 19  1  0  0  0  0
 21 20  1  1  0  0  0
 22 23  2  0  0  0  0
 23 21  1  0  0  0  0
 24 22  1  0  0  0  0
 25 24  1  1  0  0  0
 26 27  1  6  0  0  0
 26 25  1  0  0  0  0
 28 29  1  0  0  0  0
 29 26  1  0  0  0  0
 30 33  1  0  0  0  0
 30 25  1  0  0  0  0
 31 33  1  0  0  0  0
 33 32  1  0  0  0  0
 35 36  2  0  0  0  0
 36 34  1  0  0  0  0
 37 38  1  0  0  0  0
 38 10  1  0  0  0  0
 39 52  1  0  0  0  0
 40 49  1  0  0  0  0
 41 39  1  0  0  0  0
 42 40  1  0  0  0  0
 42 41  1  0  0  0  0
 43 40  2  0  0  0  0
 43 45  1  0  0  0  0
 44 43  1  0  0  0  0
 45 38  1  6  0  0  0
 45 50  1  0  0  0  0
 46 44  2  0  0  0  0
 46 47  1  0  0  0  0
 47 42  2  0  0  0  0
 48 46  1  0  0  0  0
 49 39  2  0  0  0  0
 49 50  1  0  0  0  0
 51 54  2  0  0  0  0
 52 55  1  0  0  0  0
 52 51  1  0  0  0  0
 53 54  1  0  0  0  0
 53 57  1  1  0  0  0
 55 53  1  0  0  0  0
 57 56  1  0  0  0  0
M  END
>  <MODEL>
1

>  <REMARK>
 VINA RESULT:      -7.4      0.000      0.000
  Name = 
  14 active torsions:
  status: ('A' for Active; 'I' for Inactive)
    1  A    between atoms: C_1  and  N_15
    2  A    between atoms: C_3  and  C_17
    3  A    between atoms: C_7  and  C_9
    4  A    between atoms: O_8  and  C_40
    5  A    between atoms: C_20  and  C_57
    6  A    between atoms: N_25  and  C_44
    7  A    between atoms: N_25  and  C_54
    8  A    between atoms: C_26  and  C_33
    9  A    between atoms: C_28  and  C_50
   10  A    between atoms: C_34  and  C_50
   11  A    between atoms: N_39  and  N_52
   12  A    between atoms: C_40  and  C_48
   13  A    between atoms: C_48  and  N_52
   14  A    between atoms: C_48  and  C_57
                            x       y       z     vdW  Elec       q    Type
                         _______ _______ _______ _____ _____    ______ ____

>  <TORSDO>
F 14

$$$$
=
 OpenBabel11042417513D

 57 63  0  0  1  0  0  0  0  0999 V2000
  193.4010  175.1560  145.4210 C   0  0  0  0  0  0  0  0  0  0  0  0
  191.1800  174.6110  144.5800 C   0  0  0  0  0  0  0  0  0  0  0  0
  192.5720  174.5980  144.4380 C   0  0  0  0  0  3  0  0  0  0  0  0
  189.4770  176.9490  147.6430 C   0  0  0  0  0  3  0  0  0  0  0  0
  191.4360  175.7640  146.7080 C   0  0  0  0  0  0  0  0  0  0  0  0
  189.1080  175.1920  145.9450 C   0  0  0  0  0  2  0  0  0  0  0  0
  190.6040  175.1950  145.7260 C   0  0  0  0  0  0  0  0  0  0  0  0
  190.8340  176.3710  147.9380 C   0  0  0  0  0  2  0  0  0  0  0  0
  192.8240  175.7380  146.5560 C   0  0  0  0  0  3  0  0  0  0  0  0
  188.6560  176.4020  146.7320 C   0  0  0  0  0  0  0  0  0  0  0  0
  189.0660  174.5630  143.3070 C   0  0  0  0  0  3  0  0  0  0  0  0
  190.3570  174.0620  143.4880 C   0  0  0  0  0  0  0  0  0  0  0  0
  186.9760  174.5220  142.1790 F   0  0  0  0  0  0  0  0  0  0  0  0
  192.1780  172.4180  142.9120 C   0  0  0  0  0  1  0  0  0  0  0  0
  188.2360  174.0380  142.3190 C   0  0  0  0  0  0  0  0  0  0  0  0
  189.9760  172.4610  141.6810 C   0  0  0  0  0  0  0  0  0  0  0  0
  190.8210  173.0050  142.6750 C   0  0  0  0  0  0  0  0  0  0  0  0
  188.6800  172.9900  141.5100 C   0  0  0  0  0  0  0  0  0  0  0  0
  187.8400  172.4840  140.5710 F   0  0  0  0  0  0  0  0  0  0  0  0
  190.7750  170.0540  141.7180 C   0  0  0  0  0  1  0  0  0  0  0  0
  190.4510  171.2760  140.8710 C   0  0  2  0  0  3  0  0  0  0  0  0
  191.5060  172.7240  139.1510 C   0  0  0  0  0  3  0  0  0  0  0  0
  191.5530  171.6330  139.9160 C   0  0  0  0  0  3  0  0  0  0  0  0
  192.6130  173.0290  138.2030 C   0  0  0  0  0  2  0  0  0  0  0  0
  193.3690  174.2620  138.6750 C   0  0  2  0  0  3  0  0  0  0  0  0
  193.6540  175.1920  137.4980 C   0  0  1  0  0  3  0  0  0  0  0  0
  194.7770  174.7400  136.8050 O   0  0  0  0  0  1  0  0  0  0  0  0
  192.6690  176.4120  135.9320 C   0  0  0  0  0  1  0  0  0  0  0  0
  192.5580  175.2070  136.6290 O   0  0  0  0  0  0  0  0  0  0  0  0
  194.6180  173.8490  139.3050 N   0  0  0  0  0  2  0  0  0  0  0  0
  195.4660  173.8620  141.4290 C   0  0  0  0  0  1  0  0  0  0  0  0
  193.5770  174.9630  140.9090 O   0  0  0  0  0  1  0  0  0  0  0  0
  194.8070  174.6740  140.4230 N   0  0  0  0  0  0  0  0  0  0  0  0
  195.6710  174.2840  146.0680 N   0  0  0  0  0  1  0  0  0  0  0  0
  195.4210  175.8800  144.4080 O   0  0  0  0  0  0  0  0  0  0  0  0
  194.8650  175.1370  145.2590 C   0  0  0  0  0  0  0  0  0  0  0  0
  186.2800  176.5480  147.4740 C   0  0  0  0  0  1  0  0  0  0  0  0
  187.3310  176.9290  146.5410 N   0  0  0  0  0  0  0  0  0  0  0  0
  185.4410  177.9030  141.9810 C   0  0  0  0  0  0  0  0  0  0  0  0
  187.3550  177.8670  143.2200 C   0  0  0  0  0  0  0  0  0  0  0  0
  186.7180  177.8760  140.8360 S   0  0  0  0  0  0  0  0  0  0  0  0
  187.9520  177.8570  141.9930 C   0  0  0  0  0  0  0  0  0  0  0  0
  188.0310  177.9270  144.3930 C   0  0  0  0  0  0  0  0  0  0  0  0
  189.4340  177.9700  144.3570 C   0  0  0  0  0  3  0  0  0  0  0  0
  187.1030  178.0110  145.5770 C   0  0  1  0  0  3  0  0  0  0  0  0
  190.0890  177.9360  143.0960 C   0  0  0  0  0  0  0  0  0  0  0  0
  189.3440  177.8900  141.8880 C   0  0  0  0  0  3  0  0  0  0  0  0
  191.5730  177.9730  143.0410 C   0  0  0  0  0  1  0  0  0  0  0  0
  186.0070  177.8870  143.2570 C   0  0  0  0  0  0  0  0  0  0  0  0
  185.3540  177.9470  144.9170 S   0  0  0  0  0  0  0  0  0  0  0  0
  183.4980  177.7830  140.3510 C   0  0  0  0  0  3  0  0  0  0  0  0
  184.0480  178.0240  141.6680 N   0  0  0  0  0  0  0  0  0  0  0  0
  181.8510  178.8050  141.6860 C   0  0  2  0  0  3  0  0  0  0  0  0
  182.0890  178.1720  140.3860 N   0  0  0  0  0  0  0  0  0  0  0  0
  183.0700  178.5890  142.5610 C   0  0  0  0  0  2  0  0  0  0  0  0
  179.5330  177.8580  141.3120 C   0  0  0  0  0  1  0  0  0  0  0  0
  180.5810  178.2640  142.3380 C   0  0  0  0  0  2  0  0  0  0  0  0
  1  9  1  0  0  0  0
  2  7  2  0  0  0  0
  3  2  1  0  0  0  0
  3  1  2  0  0  0  0
  4  8  1  0  0  0  0
  5  8  1  0  0  0  0
  6 10  1  0  0  0  0
  7  6  1  0  0  0  0
  7  5  1  0  0  0  0
  9  5  2  0  0  0  0
 10  4  2  0  0  0  0
 11 12  1  0  0  0  0
 12  2  1  0  0  0  0
 13 15  1  0  0  0  0
 15 11  2  0  0  0  0
 16 17  1  0  0  0  0
 17 14  1  0  0  0  0
 17 12  2  0  0  0  0
 18 16  2  0  0  0  0
 18 15  1  0  0  0  0
 19 18  1  0  0  0  0
 21 16  1  0  0  0  0
 21 20  1  1  0  0  0
 22 23  2  0  0  0  0
 23 21  1  0  0  0  0
 24 22  1  0  0  0  0
 25 24  1  6  0  0  0
 25 30  1  0  0  0  0
 26 27  1  6  0  0  0
 26 25  1  0  0  0  0
 28 29  1  0  0  0  0
 29 26  1  0  0  0  0
 30 33  1  0  0  0  0
 33 32  1  0  0  0  0
 33 31  1  0  0  0  0
 35 36  2  0  0  0  0
 36  1  1  0  0  0  0
 36 34  1  0  0  0  0
 38 10  1  0  0  0  0
 38 37  1  0  0  0  0
 39 49  2  0  0  0  0
 40 49  1  0  0  0  0
 40 43  1  0  0  0  0
 41 39  1  0  0  0  0
 41 42  1  0  0  0  0
 42 40  2  0  0  0  0
 43 45  1  0  0  0  0
 44 43  2  0  0  0  0
 45 38  1  1  0  0  0
 46 44  1  0  0  0  0
 47 42  1  0  0  0  0
 47 46  2  0  0  0  0
 48 46  1  0  0  0  0
 49 50  1  0  0  0  0
 50 45  1  0  0  0  0
 51 54  2  0  0  0  0
 51 52  1  0  0  0  0
 52 39  1  0  0  0  0
 52 55  1  0  0  0  0
 53 57  1  1  0  0  0
 53 55  1  0  0  0  0
 54 53  1  0  0  0  0
 56 57  1  0  0  0  0
M  END
>  <MODEL>
2

>  <REMARK>
 VINA RESULT:      -7.4      3.966      9.604
  Name = 
  14 active torsions:
  status: ('A' for Active; 'I' for Inactive)
    1  A    between atoms: C_1  and  N_15
    2  A    between atoms: C_3  and  C_17
    3  A    between atoms: C_7  and  C_9
    4  A    between atoms: O_8  and  C_40
    5  A    between atoms: C_20  and  C_57
    6  A    between atoms: N_25  and  C_44
    7  A    between atoms: N_25  and  C_54
    8  A    between atoms: C_26  and  C_33
    9  A    between atoms: C_28  and  C_50
   10  A    between atoms: C_34  and  C_50
   11  A    between atoms: N_39  and  N_52
   12  A    between atoms: C_40  and  C_48
   13  A    between atoms: C_48  and  N_52
   14  A    between atoms: C_48  and  C_57
                            x       y       z     vdW  Elec       q    Type
                         _______ _______ _______ _____ _____    ______ ____

>  <TORSDO>
F 14

$$$$
=
 OpenBabel11042417513D

 57 63  0  0  1  0  0  0  0  0999 V2000
  193.6780  174.9820  145.3490 C   0  0  0  0  0  0  0  0  0  0  0  0
  191.4360  174.4510  144.5550 C   0  0  0  0  0  0  0  0  0  0  0  0
  192.8240  174.4520  144.3730 C   0  0  0  0  0  3  0  0  0  0  0  0
  189.8110  176.6750  147.7440 C   0  0  0  0  0  3  0  0  0  0  0  0
  191.7480  175.5340  146.7130 C   0  0  0  0  0  0  0  0  0  0  0  0
  189.4010  174.9730  145.9990 C   0  0  0  0  0  2  0  0  0  0  0  0
  190.8910  174.9920  145.7370 C   0  0  0  0  0  0  0  0  0  0  0  0
  191.1790  176.0960  147.9790 C   0  0  0  0  0  2  0  0  0  0  0  0
  193.1310  175.5220  146.5200 C   0  0  0  0  0  3  0  0  0  0  0  0
  188.9670  176.1540  146.8390 C   0  0  0  0  0  0  0  0  0  0  0  0
  189.3380  174.5270  143.2580 C   0  0  0  0  0  3  0  0  0  0  0  0
  190.5850  173.9330  143.4700 C   0  0  0  0  0  0  0  0  0  0  0  0
  187.2640  174.6130  142.1040 F   0  0  0  0  0  0  0  0  0  0  0  0
  192.2780  172.1370  142.9680 C   0  0  0  0  0  1  0  0  0  0  0  0
  188.4800  174.0380  142.2750 C   0  0  0  0  0  0  0  0  0  0  0  0
  190.0990  172.3110  141.7070 C   0  0  0  0  0  0  0  0  0  0  0  0
  190.9730  172.8190  142.6950 C   0  0  0  0  0  0  0  0  0  0  0  0
  188.8500  172.9330  141.5040 C   0  0  0  0  0  0  0  0  0  0  0  0
  187.9840  172.4650  140.5700 F   0  0  0  0  0  0  0  0  0  0  0  0
  190.7860  169.8730  141.8340 C   0  0  0  0  0  1  0  0  0  0  0  0
  190.4890  171.0680  140.9410 C   0  0  2  0  0  3  0  0  0  0  0  0
  191.3930  172.1410  138.8910 C   0  0  0  0  0  3  0  0  0  0  0  0
  191.5710  171.3270  139.9320 C   0  0  0  0  0  3  0  0  0  0  0  0
  192.4880  172.3540  137.9040 C   0  0  0  0  0  2  0  0  0  0  0  0
  192.2040  173.6010  137.0810 C   0  0  2  0  0  3  0  0  0  0  0  0
  193.0470  174.7710  137.5840 C   0  0  1  0  0  3  0  0  0  0  0  0
  193.8740  174.3390  138.6220 O   0  0  0  0  0  1  0  0  0  0  0  0
  193.1550  176.3820  136.0670 C   0  0  0  0  0  1  0  0  0  0  0  0
  193.8420  175.2640  136.5440 O   0  0  0  0  0  0  0  0  0  0  0  0
  190.7860  173.9260  137.1740 N   0  0  0  0  0  2  0  0  0  0  0  0
  189.3480  174.9310  135.7060 C   0  0  0  0  0  1  0  0  0  0  0  0
  189.4840  172.6930  135.8770 O   0  0  0  0  0  1  0  0  0  0  0  0
  190.2510  173.8090  135.8830 N   0  0  0  0  0  0  0  0  0  0  0  0
  195.7600  175.9900  144.3590 N   0  0  0  0  0  1  0  0  0  0  0  0
  195.8480  174.0720  145.6560 O   0  0  0  0  0  0  0  0  0  0  0  0
  195.1370  174.9770  145.1440 C   0  0  0  0  0  0  0  0  0  0  0  0
  186.5850  176.1690  147.5770 C   0  0  0  0  0  1  0  0  0  0  0  0
  187.6330  176.6780  146.7040 N   0  0  0  0  0  0  0  0  0  0  0  0
  185.3780  178.2340  142.4840 C   0  0  0  0  0  0  0  0  0  0  0  0
  187.3980  177.9480  143.5040 C   0  0  0  0  0  0  0  0  0  0  0  0
  186.5300  178.2430  141.2130 S   0  0  0  0  0  0  0  0  0  0  0  0
  187.8670  178.0270  142.2260 C   0  0  0  0  0  0  0  0  0  0  0  0
  188.1890  177.8440  144.5990 C   0  0  0  0  0  0  0  0  0  0  0  0
  189.5820  177.8010  144.4190 C   0  0  0  0  0  3  0  0  0  0  0  0
  187.3920  177.8650  145.8770 C   0  0  1  0  0  3  0  0  0  0  0  0
  190.1040  177.8550  143.0990 C   0  0  0  0  0  0  0  0  0  0  0  0
  189.2410  177.9810  141.9780 C   0  0  0  0  0  3  0  0  0  0  0  0
  191.5730  177.8030  142.8900 C   0  0  0  0  0  1  0  0  0  0  0  0
  186.0660  178.0510  143.6860 C   0  0  0  0  0  0  0  0  0  0  0  0
  185.5860  177.9820  145.4040 S   0  0  0  0  0  0  0  0  0  0  0  0
  183.1260  178.9640  143.4000 C   0  0  0  0  0  3  0  0  0  0  0  0
  183.9740  178.4750  142.3340 N   0  0  0  0  0  0  0  0  0  0  0  0
  181.7670  178.2330  141.6230 C   0  0  2  0  0  3  0  0  0  0  0  0
  181.7450  178.9150  142.9190 N   0  0  0  0  0  0  0  0  0  0  0  0
  183.2080  178.0720  141.1830 C   0  0  0  0  0  2  0  0  0  0  0  0
  179.7260  178.1980  140.1230 C   0  0  0  0  0  1  0  0  0  0  0  0
  180.9390  178.9910  140.5880 C   0  0  0  0  0  2  0  0  0  0  0  0
  1  9  1  0  0  0  0
  2  7  2  0  0  0  0
  3  2  1  0  0  0  0
  3  1  2  0  0  0  0
  4  8  1  0  0  0  0
  5  8  1  0  0  0  0
  6 10  1  0  0  0  0
  7  6  1  0  0  0  0
  7  5  1  0  0  0  0
  9  5  2  0  0  0  0
 10  4  2  0  0  0  0
 11 12  1  0  0  0  0
 12  2  1  0  0  0  0
 13 15  1  0  0  0  0
 15 11  2  0  0  0  0
 16 17  1  0  0  0  0
 17 14  1  0  0  0  0
 17 12  2  0  0  0  0
 18 16  2  0  0  0  0
 18 15  1  0  0  0  0
 19 18  1  0  0  0  0
 21 16  1  0  0  0  0
 21 20  1  1  0  0  0
 22 23  2  0  0  0  0
 23 21  1  0  0  0  0
 24 22  1  0  0  0  0
 25 30  1  0  0  0  0
 25 26  1  0  0  0  0
 25 24  1  1  0  0  0
 26 27  1  1  0  0  0
 28 29  1  0  0  0  0
 29 26  1  0  0  0  0
 31 33  1  0  0  0  0
 32 33  1  0  0  0  0
 33 30  1  0  0  0  0
 34 36  1  0  0  0  0
 36  1  1  0  0  0  0
 36 35  2  0  0  0  0
 38 10  1  0  0  0  0
 38 37  1  0  0  0  0
 39 49  2  0  0  0  0
 40 49  1  0  0  0  0
 40 43  1  0  0  0  0
 41 42  1  0  0  0  0
 41 39  1  0  0  0  0
 42 40  2  0  0  0  0
 43 45  1  0  0  0  0
 44 43  2  0  0  0  0
 45 38  1  6  0  0  0
 46 44  1  0  0  0  0
 47 42  1  0  0  0  0
 47 46  2  0  0  0  0
 48 46  1  0  0  0  0
 49 50  1  0  0  0  0
 50 45  1  0  0  0  0
 52 39  1  0  0  0  0
 52 51  1  0  0  0  0
 53 57  1  6  0  0  0
 53 54  1  0  0  0  0
 54 51  2  0  0  0  0
 55 53  1  0  0  0  0
 55 52  1  0  0  0  0
 56 57  1  0  0  0  0
M  END
>  <MODEL>
3

>  <REMARK>
 VINA RESULT:      -7.2      4.158      9.566
  Name = 
  14 active torsions:
  status: ('A' for Active; 'I' for Inactive)
    1  A    between atoms: C_1  and  N_15
    2  A    between atoms: C_3  and  C_17
    3  A    between atoms: C_7  and  C_9
    4  A    between atoms: O_8  and  C_40
    5  A    between atoms: C_20  and  C_57
    6  A    between atoms: N_25  and  C_44
    7  A    between atoms: N_25  and  C_54
    8  A    between atoms: C_26  and  C_33
    9  A    between atoms: C_28  and  C_50
   10  A    between atoms: C_34  and  C_50
   11  A    between atoms: N_39  and  N_52
   12  A    between atoms: C_40  and  C_48
   13  A    between atoms: C_48  and  N_52
   14  A    between atoms: C_48  and  C_57
                            x       y       z     vdW  Elec       q    Type
                         _______ _______ _______ _____ _____    ______ ____

>  <TORSDO>
F 14

$$$$
=
 OpenBabel11042417513D

 57 63  0  0  1  0  0  0  0  0999 V2000
  188.2110  174.3230  138.8400 C   0  0  0  0  0  0  0  0  0  0  0  0
  189.0320  173.5330  140.9940 C   0  0  0  0  0  0  0  0  0  0  0  0
  188.3990  174.5100  140.2160 C   0  0  0  0  0  3  0  0  0  0  0  0
  190.9840  170.3450  139.0500 C   0  0  0  0  0  3  0  0  0  0  0  0
  189.3090  172.1660  139.0000 C   0  0  0  0  0  0  0  0  0  0  0  0
  190.1380  171.2450  141.1900 C   0  0  0  0  0  2  0  0  0  0  0  0
  189.4890  172.3480  140.3840 C   0  0  0  0  0  0  0  0  0  0  0  0
  189.7760  170.9020  138.3460 C   0  0  0  0  0  2  0  0  0  0  0  0
  188.6700  173.1450  138.2380 C   0  0  0  0  0  3  0  0  0  0  0  0
  191.1580  170.4820  140.3740 C   0  0  0  0  0  0  0  0  0  0  0  0
  189.3720  172.7290  143.3030 C   0  0  0  0  0  3  0  0  0  0  0  0
  189.2540  173.8090  142.4240 C   0  0  0  0  0  0  0  0  0  0  0  0
  189.6190  171.8800  145.5070 F   0  0  0  0  0  0  0  0  0  0  0  0
  189.0840  176.2860  141.9970 C   0  0  0  0  0  1  0  0  0  0  0  0
  189.5330  172.9440  144.6700 C   0  0  0  0  0  0  0  0  0  0  0  0
  189.4290  175.3500  144.3140 C   0  0  0  0  0  0  0  0  0  0  0  0
  189.2800  175.1290  142.9260 C   0  0  0  0  0  0  0  0  0  0  0  0
  189.5560  174.2440  145.1800 C   0  0  0  0  0  0  0  0  0  0  0  0
  189.6910  174.4210  146.5190 F   0  0  0  0  0  0  0  0  0  0  0  0
  190.3550  177.0200  145.9830 C   0  0  0  0  0  1  0  0  0  0  0  0
  189.3730  176.7620  144.8500 C   0  0  2  0  0  3  0  0  0  0  0  0
  186.9960  176.3280  145.4250 C   0  0  0  0  0  3  0  0  0  0  0  0
  187.9750  177.2000  145.1790 C   0  0  0  0  0  3  0  0  0  0  0  0
  185.6180  176.8070  145.7290 C   0  0  0  0  0  2  0  0  0  0  0  0
  185.6360  178.3100  145.9610 C   0  0  2  0  0  3  0  0  0  0  0  0
  185.3370  178.6230  147.4260 C   0  0  1  0  0  3  0  0  0  0  0  0
  185.7640  177.5630  148.2270 O   0  0  0  0  0  1  0  0  0  0  0  0
  187.1530  179.3330  148.4780 C   0  0  0  0  0  1  0  0  0  0  0  0
  186.0130  179.7850  147.8110 O   0  0  0  0  0  0  0  0  0  0  0  0
  184.6460  178.9430  145.0990 N   0  0  0  0  0  2  0  0  0  0  0  0
  185.7320  179.2320  143.1060 C   0  0  0  0  0  1  0  0  0  0  0  0
  183.6030  178.5160  143.1940 O   0  0  0  0  0  1  0  0  0  0  0  0
  184.7960  178.3850  143.8210 N   0  0  0  0  0  0  0  0  0  0  0  0
  187.7330  175.4100  136.6210 N   0  0  0  0  0  1  0  0  0  0  0  0
  186.8020  176.2150  138.5840 O   0  0  0  0  0  0  0  0  0  0  0  0
  187.5430  175.3590  138.0320 C   0  0  0  0  0  0  0  0  0  0  0  0
  192.2870  168.4130  141.1870 C   0  0  0  0  0  1  0  0  0  0  0  0
  192.2800  169.8600  141.0260 N   0  0  0  0  0  0  0  0  0  0  0  0
  193.9580  174.5510  141.7340 C   0  0  0  0  0  0  0  0  0  0  0  0
  194.0590  172.7390  140.3520 C   0  0  0  0  0  0  0  0  0  0  0  0
  194.5570  175.1540  140.2450 S   0  0  0  0  0  0  0  0  0  0  0  0
  194.5300  173.6560  139.4590 C   0  0  0  0  0  0  0  0  0  0  0  0
  193.9630  171.4120  140.0990 C   0  0  0  0  0  0  0  0  0  0  0  0
  194.3580  170.9390  138.8370 C   0  0  0  0  0  3  0  0  0  0  0  0
  193.4920  170.6390  141.3030 C   0  0  1  0  0  3  0  0  0  0  0  0
  194.8290  171.8710  137.8730 C   0  0  0  0  0  0  0  0  0  0  0  0
  194.9310  173.2530  138.1830 C   0  0  0  0  0  3  0  0  0  0  0  0
  195.2440  171.3890  136.5300 C   0  0  0  0  0  1  0  0  0  0  0  0
  193.7370  173.1800  141.5850 C   0  0  0  0  0  0  0  0  0  0  0  0
  193.1810  171.8760  142.6710 S   0  0  0  0  0  0  0  0  0  0  0  0
  192.9180  176.4410  143.0720 C   0  0  0  0  0  3  0  0  0  0  0  0
  193.8130  175.3110  142.9400 N   0  0  0  0  0  0  0  0  0  0  0  0
  194.3480  176.3820  144.9410 C   0  0  2  0  0  3  0  0  0  0  0  0
  193.1750  177.0540  144.3740 N   0  0  0  0  0  0  0  0  0  0  0  0
  194.6740  175.1740  144.0860 C   0  0  0  0  0  2  0  0  0  0  0  0
  193.0740  174.8930  146.5440 C   0  0  0  0  0  1  0  0  0  0  0  0
  194.1110  175.9980  146.3990 C   0  0  0  0  0  2  0  0  0  0  0  0
  1  3  1  0  0  0  0
  2 12  1  0  0  0  0
  3  2  2  0  0  0  0
  4 10  2  0  0  0  0
  5  7  2  0  0  0  0
  7  2  1  0  0  0  0
  7  6  1  0  0  0  0
  8  5  1  0  0  0  0
  8  4  1  0  0  0  0
  9  1  2  0  0  0  0
  9  5  1  0  0  0  0
 10 38  1  0  0  0  0
 10  6  1  0  0  0  0
 11 15  1  0  0  0  0
 12 17  1  0  0  0  0
 12 11  2  0  0  0  0
 14 17  1  0  0  0  0
 15 18  2  0  0  0  0
 15 13  1  0  0  0  0
 16 21  1  0  0  0  0
 16 18  1  0  0  0  0
 17 16  2  0  0  0  0
 18 19  1  0  0  0  0
 21 23  1  0  0  0  0
 21 20  1  1  0  0  0
 22 24  1  0  0  0  0
 23 22  2  0  0  0  0
 25 24  1  1  0  0  0
 25 26  1  0  0  0  0
 26 29  1  0  0  0  0
 26 27  1  1  0  0  0
 29 28  1  0  0  0  0
 30 25  1  0  0  0  0
 31 33  1  0  0  0  0
 32 33  1  0  0  0  0
 33 30  1  0  0  0  0
 34 36  1  0  0  0  0
 36 35  2  0  0  0  0
 36  1  1  0  0  0  0
 38 37  1  0  0  0  0
 39 52  1  0  0  0  0
 40 49  1  0  0  0  0
 41 39  1  0  0  0  0
 42 41  1  0  0  0  0
 42 40  2  0  0  0  0
 43 40  1  0  0  0  0
 43 45  1  0  0  0  0
 44 43  2  0  0  0  0
 45 38  1  6  0  0  0
 45 50  1  0  0  0  0
 46 47  2  0  0  0  0
 46 44  1  0  0  0  0
 47 42  1  0  0  0  0
 48 46  1  0  0  0  0
 49 39  2  0  0  0  0
 49 50  1  0  0  0  0
 51 54  2  0  0  0  0
 52 51  1  0  0  0  0
 52 55  1  0  0  0  0
 53 57  1  1  0  0  0
 54 53  1  0  0  0  0
 55 53  1  0  0  0  0
 57 56  1  0  0  0  0
M  END
>  <MODEL>
4

>  <REMARK>
 VINA RESULT:      -7.1      2.873      5.206
  Name = 
  14 active torsions:
  status: ('A' for Active; 'I' for Inactive)
    1  A    between atoms: C_1  and  N_15
    2  A    between atoms: C_3  and  C_17
    3  A    between atoms: C_7  and  C_9
    4  A    between atoms: O_8  and  C_40
    5  A    between atoms: C_20  and  C_57
    6  A    between atoms: N_25  and  C_44
    7  A    between atoms: N_25  and  C_54
    8  A    between atoms: C_26  and  C_33
    9  A    between atoms: C_28  and  C_50
   10  A    between atoms: C_34  and  C_50
   11  A    between atoms: N_39  and  N_52
   12  A    between atoms: C_40  and  C_48
   13  A    between atoms: C_48  and  N_52
   14  A    between atoms: C_48  and  C_57
                            x       y       z     vdW  Elec       q    Type
                         _______ _______ _______ _____ _____    ______ ____

>  <TORSDO>
F 14

$$$$
=
 OpenBabel11042417513D

 57 63  0  0  1  0  0  0  0  0999 V2000
  195.1670  169.4920  143.1890 C   0  0  0  0  0  0  0  0  0  0  0  0
  194.4920  171.5920  142.1500 C   0  0  0  0  0  0  0  0  0  0  0  0
  195.4540  170.8080  142.7990 C   0  0  0  0  0  3  0  0  0  0  0  0
  190.5160  170.2070  142.0010 C   0  0  0  0  0  3  0  0  0  0  0  0
  192.9260  169.7330  142.2890 C   0  0  0  0  0  0  0  0  0  0  0  0
  192.1610  171.8420  141.1500 C   0  0  0  0  0  2  0  0  0  0  0  0
  193.2170  171.0510  141.8880 C   0  0  0  0  0  0  0  0  0  0  0  0
  191.5800  169.1440  141.9990 C   0  0  0  0  0  2  0  0  0  0  0  0
  193.8970  168.9610  142.9290 C   0  0  0  0  0  3  0  0  0  0  0  0
  190.7660  171.4610  141.5930 C   0  0  0  0  0  0  0  0  0  0  0  0
  194.2400  174.0130  142.5550 C   0  0  0  0  0  3  0  0  0  0  0  0
  194.8310  172.9850  141.8150 C   0  0  0  0  0  0  0  0  0  0  0  0
  193.8890  176.3270  142.9550 F   0  0  0  0  0  0  0  0  0  0  0  0
  196.2570  172.2010  139.8910 C   0  0  0  0  0  1  0  0  0  0  0  0
  194.4940  175.3460  142.2400 C   0  0  0  0  0  0  0  0  0  0  0  0
  195.9270  174.6500  140.4000 C   0  0  0  0  0  0  0  0  0  0  0  0
  195.6780  173.2990  140.7300 C   0  0  0  0  0  0  0  0  0  0  0  0
  195.3270  175.6700  141.1670 C   0  0  0  0  0  0  0  0  0  0  0  0
  195.5370  176.9780  140.8710 F   0  0  0  0  0  0  0  0  0  0  0  0
  197.8240  176.0380  139.4470 C   0  0  0  0  0  1  0  0  0  0  0  0
  196.7680  174.9750  139.1860 C   0  0  2  0  0  3  0  0  0  0  0  0
  194.6710  174.8600  137.8600 C   0  0  0  0  0  3  0  0  0  0  0  0
  195.9380  175.2620  137.9690 C   0  0  0  0  0  3  0  0  0  0  0  0
  193.8900  175.1510  136.6240 C   0  0  0  0  0  2  0  0  0  0  0  0
  193.0290  173.9500  136.2660 C   0  0  2  0  0  3  0  0  0  0  0  0
  191.6880  174.0240  136.9940 C   0  0  1  0  0  3  0  0  0  0  0  0
  190.6920  174.4170  136.1010 O   0  0  0  0  0  1  0  0  0  0  0  0
  190.4040  172.2530  136.6420 C   0  0  0  0  0  1  0  0  0  0  0  0
  191.3620  172.7690  137.5170 O   0  0  0  0  0  0  0  0  0  0  0  0
  193.7330  172.7260  136.6290 N   0  0  0  0  0  2  0  0  0  0  0  0
  193.8060  171.3400  134.8120 C   0  0  0  0  0  1  0  0  0  0  0  0
  195.6420  171.7780  136.0330 O   0  0  0  0  0  1  0  0  0  0  0  0
  194.5310  172.3690  135.5330 N   0  0  0  0  0  0  0  0  0  0  0  0
  196.1000  168.4350  145.2730 N   0  0  0  0  0  1  0  0  0  0  0  0
  197.1540  168.1960  143.2230 O   0  0  0  0  0  0  0  0  0  0  0  0
  196.1880  168.6790  143.8710 C   0  0  0  0  0  0  0  0  0  0  0  0
  189.0390  172.6550  140.2470 C   0  0  0  0  0  1  0  0  0  0  0  0
  189.7020  172.4270  141.5240 N   0  0  0  0  0  0  0  0  0  0  0  0
  188.5680  176.7690  143.8000 C   0  0  0  0  0  0  0  0  0  0  0  0
  189.9070  174.9250  143.8950 C   0  0  0  0  0  0  0  0  0  0  0  0
  189.8690  177.2100  144.8280 S   0  0  0  0  0  0  0  0  0  0  0  0
  190.6550  175.7160  144.7180 C   0  0  0  0  0  0  0  0  0  0  0  0
  190.1900  173.6280  143.6260 C   0  0  0  0  0  0  0  0  0  0  0  0
  191.3290  173.0530  144.2140 C   0  0  0  0  0  3  0  0  0  0  0  0
  189.1390  172.9890  142.7560 C   0  0  1  0  0  3  0  0  0  0  0  0
  192.1450  173.8570  145.0560 C   0  0  0  0  0  0  0  0  0  0  0  0
  191.8050  175.2080  145.3270 C   0  0  0  0  0  3  0  0  0  0  0  0
  193.3570  173.2670  145.6800 C   0  0  0  0  0  1  0  0  0  0  0  0
  188.7800  175.4550  143.3780 C   0  0  0  0  0  0  0  0  0  0  0  0
  187.8700  174.3040  142.3610 S   0  0  0  0  0  0  0  0  0  0  0  0
  187.0310  177.9730  142.1780 C   0  0  0  0  0  3  0  0  0  0  0  0
  187.4230  177.5820  143.5150 N   0  0  0  0  0  0  0  0  0  0  0  0
  185.7890  179.2310  143.7330 C   0  0  2  0  0  3  0  0  0  0  0  0
  185.9320  178.9290  142.3060 N   0  0  0  0  0  0  0  0  0  0  0  0
  186.6520  178.2650  144.5210 C   0  0  0  0  0  2  0  0  0  0  0  0
  184.1670  178.6450  145.5870 C   0  0  0  0  0  1  0  0  0  0  0  0
  184.3270  179.1670  144.1660 C   0  0  0  0  0  2  0  0  0  0  0  0
  1 36  1  0  0  0  0
  2  3  1  0  0  0  0
  3  1  2  0  0  0  0
  5  9  2  0  0  0  0
  6 10  1  0  0  0  0
  6  7  1  0  0  0  0
  7  2  2  0  0  0  0
  7  5  1  0  0  0  0
  8  4  1  0  0  0  0
  8  5  1  0  0  0  0
  9  1  1  0  0  0  0
 10  4  2  0  0  0  0
 12  2  1  0  0  0  0
 12 11  2  0  0  0  0
 14 17  1  0  0  0  0
 15 11  1  0  0  0  0
 15 13  1  0  0  0  0
 16 17  2  0  0  0  0
 16 18  1  0  0  0  0
 17 12  1  0  0  0  0
 18 15  2  0  0  0  0
 19 18  1  0  0  0  0
 21 20  1  1  0  0  0
 21 16  1  0  0  0  0
 22 23  2  0  0  0  0
 23 21  1  0  0  0  0
 24 22  1  0  0  0  0
 25 24  1  1  0  0  0
 25 30  1  0  0  0  0
 25 26  1  0  0  0  0
 26 27  1  6  0  0  0
 26 29  1  0  0  0  0
 28 29  1  0  0  0  0
 31 33  1  0  0  0  0
 33 32  1  0  0  0  0
 33 30  1  0  0  0  0
 35 36  2  0  0  0  0
 36 34  1  0  0  0  0
 37 38  1  0  0  0  0
 38 10  1  0  0  0  0
 39 41  1  0  0  0  0
 40 42  1  0  0  0  0
 42 41  1  0  0  0  0
 42 47  2  0  0  0  0
 43 40  2  0  0  0  0
 43 44  1  0  0  0  0
 44 46  2  0  0  0  0
 45 38  1  6  0  0  0
 45 43  1  0  0  0  0
 46 47  1  0  0  0  0
 46 48  1  0  0  0  0
 49 39  2  0  0  0  0
 49 40  1  0  0  0  0
 50 45  1  0  0  0  0
 50 49  1  0  0  0  0
 51 54  2  0  0  0  0
 51 52  1  0  0  0  0
 52 39  1  0  0  0  0
 52 55  1  0  0  0  0
 53 57  1  1  0  0  0
 53 55  1  0  0  0  0
 54 53  1  0  0  0  0
 57 56  1  0  0  0  0
M  END
>  <MODEL>
5

>  <REMARK>
 VINA RESULT:      -6.7      3.603      8.876
  Name = 
  14 active torsions:
  status: ('A' for Active; 'I' for Inactive)
    1  A    between atoms: C_1  and  N_15
    2  A    between atoms: C_3  and  C_17
    3  A    between atoms: C_7  and  C_9
    4  A    between atoms: O_8  and  C_40
    5  A    between atoms: C_20  and  C_57
    6  A    between atoms: N_25  and  C_44
    7  A    between atoms: N_25  and  C_54
    8  A    between atoms: C_26  and  C_33
    9  A    between atoms: C_28  and  C_50
   10  A    between atoms: C_34  and  C_50
   11  A    between atoms: N_39  and  N_52
   12  A    between atoms: C_40  and  C_48
   13  A    between atoms: C_48  and  N_52
   14  A    between atoms: C_48  and  C_57
                            x       y       z     vdW  Elec       q    Type
                         _______ _______ _______ _____ _____    ______ ____

>  <TORSDO>
F 14

$$$$
=
 OpenBabel11042417513D

 57 63  0  0  1  0  0  0  0  0999 V2000
  186.3000  177.8200  146.1070 C   0  0  0  0  0  0  0  0  0  0  0  0
  187.6750  177.0790  144.2360 C   0  0  0  0  0  0  0  0  0  0  0  0
  186.4260  177.4200  144.7700 C   0  0  0  0  0  3  0  0  0  0  0  0
  190.9370  176.6000  146.8580 C   0  0  0  0  0  3  0  0  0  0  0  0
  188.6910  177.5300  146.4010 C   0  0  0  0  0  0  0  0  0  0  0  0
  190.1950  176.8230  144.5120 C   0  0  0  0  0  2  0  0  0  0  0  0
  188.8200  177.1370  145.0550 C   0  0  0  0  0  0  0  0  0  0  0  0
  189.9050  177.6120  147.2750 C   0  0  0  0  0  2  0  0  0  0  0  0
  187.4410  177.8730  146.9180 C   0  0  0  0  0  3  0  0  0  0  0  0
  191.0960  176.2350  145.5760 C   0  0  0  0  0  0  0  0  0  0  0  0
  187.3380  177.4800  141.8240 C   0  0  0  0  0  3  0  0  0  0  0  0
  187.7380  176.6100  142.8410 C   0  0  0  0  0  0  0  0  0  0  0  0
  186.9170  177.9160  139.5280 F   0  0  0  0  0  0  0  0  0  0  0  0
  188.4900  174.3330  143.6160 C   0  0  0  0  0  1  0  0  0  0  0  0
  187.3350  177.0620  140.4950 C   0  0  0  0  0  0  0  0  0  0  0  0
  188.1120  174.8580  141.1770 C   0  0  0  0  0  0  0  0  0  0  0  0
  188.1270  175.2900  142.5230 C   0  0  0  0  0  0  0  0  0  0  0  0
  187.7130  175.7580  140.1670 C   0  0  0  0  0  0  0  0  0  0  0  0
  187.6780  175.3730  138.8660 F   0  0  0  0  0  0  0  0  0  0  0  0
  187.9130  172.4290  141.8770 C   0  0  0  0  0  1  0  0  0  0  0  0
  188.4500  173.4210  140.8560 C   0  0  2  0  0  3  0  0  0  0  0  0
  190.4270  173.4380  139.3510 C   0  0  0  0  0  3  0  0  0  0  0  0
  189.9100  173.2230  140.5620 C   0  0  0  0  0  3  0  0  0  0  0  0
  191.8780  173.2100  139.1000 C   0  0  0  0  0  2  0  0  0  0  0  0
  192.2730  173.8380  137.7710 C   0  0  2  0  0  3  0  0  0  0  0  0
  192.4120  172.7610  136.6980 C   0  0  1  0  0  3  0  0  0  0  0  0
  192.7270  171.5410  137.2970 O   0  0  0  0  0  1  0  0  0  0  0  0
  191.1190  171.2680  135.6920 C   0  0  0  0  0  1  0  0  0  0  0  0
  191.2070  172.6270  136.0010 O   0  0  0  0  0  0  0  0  0  0  0  0
  193.5320  174.5540  137.9330 N   0  0  0  0  0  2  0  0  0  0  0  0
  195.2920  175.3720  136.7220 C   0  0  0  0  0  1  0  0  0  0  0  0
  193.2360  176.2680  136.5650 O   0  0  0  0  0  1  0  0  0  0  0  0
  193.8720  175.0780  136.6770 N   0  0  0  0  0  0  0  0  0  0  0  0
  184.8060  178.3570  148.0590 N   0  0  0  0  0  1  0  0  0  0  0  0
  183.9900  178.3150  145.8910 O   0  0  0  0  0  0  0  0  0  0  0  0
  184.9800  178.1750  146.6560 C   0  0  0  0  0  0  0  0  0  0  0  0
  192.8240  174.5670  146.2460 C   0  0  0  0  0  1  0  0  0  0  0  0
  192.1520  175.3320  145.2040 N   0  0  0  0  0  0  0  0  0  0  0  0
  193.8610  171.7300  142.1340 C   0  0  0  0  0  0  0  0  0  0  0  0
  194.2450  173.8440  142.8990 C   0  0  0  0  0  0  0  0  0  0  0  0
  195.5080  172.0470  141.7730 S   0  0  0  0  0  0  0  0  0  0  0  0
  195.5010  173.6100  142.4200 C   0  0  0  0  0  0  0  0  0  0  0  0
  193.8420  175.0240  143.4300 C   0  0  0  0  0  0  0  0  0  0  0  0
  194.7690  176.0760  143.5090 C   0  0  0  0  0  3  0  0  0  0  0  0
  192.3800  175.0110  143.7910 C   0  0  1  0  0  3  0  0  0  0  0  0
  196.0940  175.8580  143.0430 C   0  0  0  0  0  0  0  0  0  0  0  0
  196.4730  174.6120  142.4770 C   0  0  0  0  0  3  0  0  0  0  0  0
  197.0890  176.9580  143.1260 C   0  0  0  0  0  1  0  0  0  0  0  0
  193.3350  172.8580  142.7690 C   0  0  0  0  0  0  0  0  0  0  0  0
  191.7230  173.3070  143.3890 S   0  0  0  0  0  0  0  0  0  0  0  0
  192.4780  169.6790  142.7010 C   0  0  0  0  0  3  0  0  0  0  0  0
  193.1400  170.5510  141.7560 N   0  0  0  0  0  0  0  0  0  0  0  0
  192.5490  168.6120  140.6040 C   0  0  2  0  0  3  0  0  0  0  0  0
  192.0090  168.5070  141.9620 N   0  0  0  0  0  0  0  0  0  0  0  0
  193.1600  169.9880  140.4310 C   0  0  0  0  0  2  0  0  0  0  0  0
  190.5750  169.5420  139.3180 C   0  0  0  0  0  1  0  0  0  0  0  0
  191.4700  168.3350  139.5600 C   0  0  0  0  0  2  0  0  0  0  0  0
  1 36  1  0  0  0  0
  1  9  1  0  0  0  0
  2  3  1  0  0  0  0
  2  7  2  0  0  0  0
  3  1  2  0  0  0  0
  4  8  1  0  0  0  0
  5  9  2  0  0  0  0
  5  8  1  0  0  0  0
  6  7  1  0  0  0  0
  6 10  1  0  0  0  0
  7  5  1  0  0  0  0
 10  4  2  0  0  0  0
 11 12  1  0  0  0  0
 12  2  1  0  0  0  0
 13 15  1  0  0  0  0
 15 11  2  0  0  0  0
 16 17  1  0  0  0  0
 17 12  2  0  0  0  0
 17 14  1  0  0  0  0
 18 15  1  0  0  0  0
 18 16  2  0  0  0  0
 19 18  1  0  0  0  0
 21 16  1  0  0  0  0
 21 20  1  1  0  0  0
 22 23  2  0  0  0  0
 23 21  1  0  0  0  0
 24 22  1  0  0  0  0
 25 30  1  0  0  0  0
 25 24  1  1  0  0  0
 26 27  1  1  0  0  0
 26 25  1  0  0  0  0
 28 29  1  0  0  0  0
 29 26  1  0  0  0  0
 32 33  1  0  0  0  0
 33 31  1  0  0  0  0
 33 30  1  0  0  0  0
 35 36  2  0  0  0  0
 36 34  1  0  0  0  0
 38 10  1  0  0  0  0
 38 37  1  0  0  0  0
 39 49  2  0  0  0  0
 40 43  1  0  0  0  0
 41 39  1  0  0  0  0
 41 42  1  0  0  0  0
 42 47  1  0  0  0  0
 42 40  2  0  0  0  0
 43 44  2  0  0  0  0
 43 45  1  0  0  0  0
 45 38  1  1  0  0  0
 46 48  1  0  0  0  0
 46 44  1  0  0  0  0
 47 46  2  0  0  0  0
 49 40  1  0  0  0  0
 49 50  1  0  0  0  0
 50 45  1  0  0  0  0
 52 39  1  0  0  0  0
 52 51  1  0  0  0  0
 53 57  1  6  0  0  0
 53 54  1  0  0  0  0
 54 51  2  0  0  0  0
 55 53  1  0  0  0  0
 55 52  1  0  0  0  0
 56 57  1  0  0  0  0
M  END
>  <MODEL>
6

>  <REMARK>
 VINA RESULT:      -6.7      3.117      8.094
  Name = 
  14 active torsions:
  status: ('A' for Active; 'I' for Inactive)
    1  A    between atoms: C_1  and  N_15
    2  A    between atoms: C_3  and  C_17
    3  A    between atoms: C_7  and  C_9
    4  A    between atoms: O_8  and  C_40
    5  A    between atoms: C_20  and  C_57
    6  A    between atoms: N_25  and  C_44
    7  A    between atoms: N_25  and  C_54
    8  A    between atoms: C_26  and  C_33
    9  A    between atoms: C_28  and  C_50
   10  A    between atoms: C_34  and  C_50
   11  A    between atoms: N_39  and  N_52
   12  A    between atoms: C_40  and  C_48
   13  A    between atoms: C_48  and  N_52
   14  A    between atoms: C_48  and  C_57
                            x       y       z     vdW  Elec       q    Type
                         _______ _______ _______ _____ _____    ______ ____

>  <TORSDO>
F 14

$$$$
=
 OpenBabel11042417513D

 57 63  0  0  1  0  0  0  0  0999 V2000
  188.4670  174.1240  138.2740 C   0  0  0  0  0  0  0  0  0  0  0  0
  189.6170  173.0470  140.1330 C   0  0  0  0  0  0  0  0  0  0  0  0
  188.7740  174.0500  139.6400 C   0  0  0  0  0  3  0  0  0  0  0  0
  191.7720  170.6810  137.3930 C   0  0  0  0  0  3  0  0  0  0  0  0
  189.8650  172.1830  137.8720 C   0  0  0  0  0  0  0  0  0  0  0  0
  191.0440  170.9730  139.7360 C   0  0  0  0  0  2  0  0  0  0  0  0
  190.1660  172.1010  139.2440 C   0  0  0  0  0  0  0  0  0  0  0  0
  190.4300  171.1720  136.9220 C   0  0  0  0  0  2  0  0  0  0  0  0
  189.0180  173.1840  137.3950 C   0  0  0  0  0  3  0  0  0  0  0  0
  192.0660  170.5670  138.6970 C   0  0  0  0  0  0  0  0  0  0  0  0
  189.2350  172.2110  142.4240 C   0  0  0  0  0  3  0  0  0  0  0  0
  189.9500  173.0530  141.5680 C   0  0  0  0  0  0  0  0  0  0  0  0
  188.7580  171.4150  144.6090 F   0  0  0  0  0  0  0  0  0  0  0  0
  191.6400  174.8830  141.1920 C   0  0  0  0  0  1  0  0  0  0  0  0
  189.4830  172.2200  143.7950 C   0  0  0  0  0  0  0  0  0  0  0  0
  191.1660  173.9520  143.4880 C   0  0  0  0  0  0  0  0  0  0  0  0
  190.9210  173.9310  142.0970 C   0  0  0  0  0  0  0  0  0  0  0  0
  190.4380  173.0870  144.3310 C   0  0  0  0  0  0  0  0  0  0  0  0
  190.6410  173.0890  145.6730 F   0  0  0  0  0  0  0  0  0  0  0  0
  193.2090  174.3260  144.9440 C   0  0  0  0  0  1  0  0  0  0  0  0
  192.1470  174.9540  144.0540 C   0  0  2  0  0  3  0  0  0  0  0  0
  190.2250  176.4930  144.3770 C   0  0  0  0  0  3  0  0  0  0  0  0
  191.4670  176.1290  144.6950 C   0  0  0  0  0  3  0  0  0  0  0  0
  189.5960  177.6780  145.0250 C   0  0  0  0  0  2  0  0  0  0  0  0
  188.1020  177.6870  144.7410 C   0  0  2  0  0  3  0  0  0  0  0  0
  187.3620  176.8300  145.7650 C   0  0  1  0  0  3  0  0  0  0  0  0
  187.4390  177.4330  147.0210 O   0  0  0  0  0  1  0  0  0  0  0  0
  185.3020  176.9880  146.5660 C   0  0  0  0  0  1  0  0  0  0  0  0
  186.0180  176.7080  145.4000 O   0  0  0  0  0  0  0  0  0  0  0  0
  187.8650  177.1800  143.3950 N   0  0  0  0  0  2  0  0  0  0  0  0
  186.2970  178.4330  142.2980 C   0  0  0  0  0  1  0  0  0  0  0  0
  188.2930  177.9710  141.3720 O   0  0  0  0  0  1  0  0  0  0  0  0
  187.7180  178.2940  142.5550 N   0  0  0  0  0  0  0  0  0  0  0  0
  186.9460  176.0900  138.6680 N   0  0  0  0  0  1  0  0  0  0  0  0
  187.3650  175.2990  136.5310 O   0  0  0  0  0  0  0  0  0  0  0  0
  187.5790  175.1850  137.7680 C   0  0  0  0  0  0  0  0  0  0  0  0
  193.4440  168.5660  139.2590 C   0  0  0  0  0  1  0  0  0  0  0  0
  193.3270  170.0100  139.1100 N   0  0  0  0  0  0  0  0  0  0  0  0
  195.4130  173.9200  141.4940 C   0  0  0  0  0  0  0  0  0  0  0  0
  194.5820  173.2010  139.4950 C   0  0  0  0  0  0  0  0  0  0  0  0
  195.0860  175.3480  140.6030 S   0  0  0  0  0  0  0  0  0  0  0  0
  194.5130  174.5380  139.2330 C   0  0  0  0  0  0  0  0  0  0  0  0
  194.2700  172.2340  138.5990 C   0  0  0  0  0  0  0  0  0  0  0  0
  193.8370  172.6190  137.3190 C   0  0  0  0  0  3  0  0  0  0  0  0
  194.5260  170.8540  139.1450 C   0  0  1  0  0  3  0  0  0  0  0  0
  193.7300  174.0050  137.0210 C   0  0  0  0  0  0  0  0  0  0  0  0
  194.0820  174.9880  137.9830 C   0  0  0  0  0  3  0  0  0  0  0  0
  193.2660  174.4290  135.6750 C   0  0  0  0  0  1  0  0  0  0  0  0
  195.0560  172.8270  140.7010 C   0  0  0  0  0  0  0  0  0  0  0  0
  195.1400  171.0550  140.9000 S   0  0  0  0  0  0  0  0  0  0  0  0
  196.5020  175.0400  143.4950 C   0  0  0  0  0  3  0  0  0  0  0  0
  196.0360  173.8690  142.7830 N   0  0  0  0  0  0  0  0  0  0  0  0
  197.3340  173.1180  144.5690 C   0  0  2  0  0  3  0  0  0  0  0  0
  197.2270  174.5760  144.6770 N   0  0  0  0  0  0  0  0  0  0  0  0
  196.4540  172.6510  143.4270 C   0  0  0  0  0  2  0  0  0  0  0  0
  195.6800  171.6270  145.7760 C   0  0  0  0  0  1  0  0  0  0  0  0
  196.9630  172.4400  145.8850 C   0  0  0  0  0  2  0  0  0  0  0  0
  1  3  1  0  0  0  0
  2 12  1  0  0  0  0
  3  2  2  0  0  0  0
  4 10  2  0  0  0  0
  5  7  2  0  0  0  0
  7  6  1  0  0  0  0
  7  2  1  0  0  0  0
  8  4  1  0  0  0  0
  8  5  1  0  0  0  0
  9  5  1  0  0  0  0
  9  1  2  0  0  0  0
 10 38  1  0  0  0  0
 10  6  1  0  0  0  0
 11 15  1  0  0  0  0
 12 17  1  0  0  0  0
 12 11  2  0  0  0  0
 14 17  1  0  0  0  0
 15 18  2  0  0  0  0
 15 13  1  0  0  0  0
 16 21  1  0  0  0  0
 16 18  1  0  0  0  0
 17 16  2  0  0  0  0
 18 19  1  0  0  0  0
 21 23  1  0  0  0  0
 21 20  1  1  0  0  0
 22 23  2  0  0  0  0
 22 24  1  0  0  0  0
 25 24  1  1  0  0  0
 25 26  1  0  0  0  0
 26 27  1  1  0  0  0
 29 26  1  0  0  0  0
 29 28  1  0  0  0  0
 30 25  1  0  0  0  0
 31 33  1  0  0  0  0
 32 33  1  0  0  0  0
 33 30  1  0  0  0  0
 35 36  2  0  0  0  0
 36  1  1  0  0  0  0
 36 34  1  0  0  0  0
 38 37  1  0  0  0  0
 39 52  1  0  0  0  0
 40 49  1  0  0  0  0
 41 39  1  0  0  0  0
 42 40  1  0  0  0  0
 42 41  1  0  0  0  0
 43 45  1  0  0  0  0
 43 40  2  0  0  0  0
 44 43  1  0  0  0  0
 45 38  1  1  0  0  0
 45 50  1  0  0  0  0
 46 44  2  0  0  0  0
 46 47  1  0  0  0  0
 47 42  2  0  0  0  0
 48 46  1  0  0  0  0
 49 50  1  0  0  0  0
 49 39  2  0  0  0  0
 51 54  2  0  0  0  0
 52 55  1  0  0  0  0
 52 51  1  0  0  0  0
 53 54  1  0  0  0  0
 53 57  1  1  0  0  0
 55 53  1  0  0  0  0
 56 57  1  0  0  0  0
M  END
>  <MODEL>
7

>  <REMARK>
 VINA RESULT:      -6.7      2.660      5.069
  Name = 
  14 active torsions:
  status: ('A' for Active; 'I' for Inactive)
    1  A    between atoms: C_1  and  N_15
    2  A    between atoms: C_3  and  C_17
    3  A    between atoms: C_7  and  C_9
    4  A    between atoms: O_8  and  C_40
    5  A    between atoms: C_20  and  C_57
    6  A    between atoms: N_25  and  C_44
    7  A    between atoms: N_25  and  C_54
    8  A    between atoms: C_26  and  C_33
    9  A    between atoms: C_28  and  C_50
   10  A    between atoms: C_34  and  C_50
   11  A    between atoms: N_39  and  N_52
   12  A    between atoms: C_40  and  C_48
   13  A    between atoms: C_48  and  N_52
   14  A    between atoms: C_48  and  C_57
                            x       y       z     vdW  Elec       q    Type
                         _______ _______ _______ _____ _____    ______ ____

>  <TORSDO>
F 14

$$$$
=
 OpenBabel11042417513D

 57 63  0  0  1  0  0  0  0  0999 V2000
  186.7240  177.5870  146.1660 C   0  0  0  0  0  0  0  0  0  0  0  0
  187.9040  176.9370  144.1350 C   0  0  0  0  0  0  0  0  0  0  0  0
  186.7190  177.2730  144.8010 C   0  0  0  0  0  3  0  0  0  0  0  0
  191.3690  176.2030  146.4160 C   0  0  0  0  0  3  0  0  0  0  0  0
  189.1210  177.2180  146.2240 C   0  0  0  0  0  0  0  0  0  0  0  0
  190.4300  176.5990  144.1660 C   0  0  0  0  0  2  0  0  0  0  0  0
  189.1180  176.9120  144.8500 C   0  0  0  0  0  0  0  0  0  0  0  0
  190.4100  177.2110  146.9880 C   0  0  0  0  0  2  0  0  0  0  0  0
  187.9330  177.5570  146.8730 C   0  0  0  0  0  3  0  0  0  0  0  0
  191.4020  175.9200  145.1050 C   0  0  0  0  0  0  0  0  0  0  0  0
  187.2590  177.4620  141.8120 C   0  0  0  0  0  3  0  0  0  0  0  0
  187.8290  176.5600  142.7130 C   0  0  0  0  0  0  0  0  0  0  0  0
  186.5430  178.0080  139.6140 F   0  0  0  0  0  0  0  0  0  0  0  0
  188.8020  174.2960  143.2380 C   0  0  0  0  0  1  0  0  0  0  0  0
  187.1230  177.1270  140.4660 C   0  0  0  0  0  0  0  0  0  0  0  0
  188.1060  174.9430  140.9010 C   0  0  0  0  0  0  0  0  0  0  0  0
  188.2550  175.2920  142.2620 C   0  0  0  0  0  0  0  0  0  0  0  0
  187.5370  175.8740  140.0080 C   0  0  0  0  0  0  0  0  0  0  0  0
  187.3710  175.5680  138.6960 F   0  0  0  0  0  0  0  0  0  0  0  0
  187.8810  172.4470  141.2940 C   0  0  0  0  0  1  0  0  0  0  0  0
  188.4890  173.5540  140.4450 C   0  0  2  0  0  3  0  0  0  0  0  0
  190.5170  172.2550  139.8340 C   0  0  0  0  0  3  0  0  0  0  0  0
  189.9700  173.3960  140.2550 C   0  0  0  0  0  3  0  0  0  0  0  0
  191.9940  172.1380  139.6780 C   0  0  0  0  0  2  0  0  0  0  0  0
  192.4970  170.9250  140.4460 C   0  0  2  0  0  3  0  0  0  0  0  0
  192.5140  171.2170  141.9440 C   0  0  1  0  0  3  0  0  0  0  0  0
  191.7670  170.2490  142.6180 O   0  0  0  0  0  1  0  0  0  0  0  0
  193.7640  170.4740  143.6170 C   0  0  0  0  0  1  0  0  0  0  0  0
  193.8290  171.1880  142.4190 O   0  0  0  0  0  0  0  0  0  0  0  0
  193.8360  170.5840  139.9830 N   0  0  0  0  0  2  0  0  0  0  0  0
  193.0090  168.5250  139.4280 C   0  0  0  0  0  1  0  0  0  0  0  0
  194.9320  169.2950  138.5550 O   0  0  0  0  0  1  0  0  0  0  0  0
  193.6870  169.6970  138.9070 N   0  0  0  0  0  0  0  0  0  0  0  0
  185.4100  179.0730  147.7150 N   0  0  0  0  0  1  0  0  0  0  0  0
  184.4380  177.2350  146.6940 O   0  0  0  0  0  0  0  0  0  0  0  0
  185.4700  177.9390  146.8540 C   0  0  0  0  0  0  0  0  0  0  0  0
  192.1400  173.5830  144.6430 C   0  0  0  0  0  1  0  0  0  0  0  0
  192.3930  175.0170  144.5820 N   0  0  0  0  0  0  0  0  0  0  0  0
  195.3460  173.9690  140.6450 C   0  0  0  0  0  0  0  0  0  0  0  0
  195.3140  174.2640  142.9060 C   0  0  0  0  0  0  0  0  0  0  0  0
  196.7860  173.2330  141.2150 S   0  0  0  0  0  0  0  0  0  0  0  0
  196.5020  173.5970  142.8430 C   0  0  0  0  0  0  0  0  0  0  0  0
  194.7920  174.7790  144.0460 C   0  0  0  0  0  0  0  0  0  0  0  0
  195.5030  174.6120  145.2450 C   0  0  0  0  0  3  0  0  0  0  0  0
  193.5140  175.5350  143.7910 C   0  0  1  0  0  3  0  0  0  0  0  0
  196.7320  173.8990  145.2190 C   0  0  0  0  0  0  0  0  0  0  0  0
  197.2540  173.3890  144.0010 C   0  0  0  0  0  3  0  0  0  0  0  0
  197.4930  173.7060  146.4800 C   0  0  0  0  0  1  0  0  0  0  0  0
  194.6580  174.4810  141.7480 C   0  0  0  0  0  0  0  0  0  0  0  0
  193.1450  175.4030  141.9620 S   0  0  0  0  0  0  0  0  0  0  0  0
  195.3380  173.1650  138.2370 C   0  0  0  0  0  3  0  0  0  0  0  0
  194.9760  174.1130  139.2680 N   0  0  0  0  0  0  0  0  0  0  0  0
  194.4880  175.1080  137.2170 C   0  0  2  0  0  3  0  0  0  0  0  0
  194.9360  173.7380  136.9530 N   0  0  0  0  0  0  0  0  0  0  0  0
  194.3840  175.3040  138.7160 C   0  0  0  0  0  2  0  0  0  0  0  0
  193.1030  176.8170  135.9620 C   0  0  0  0  0  1  0  0  0  0  0  0
  193.1650  175.3990  136.5130 C   0  0  0  0  0  2  0  0  0  0  0  0
  1 36  1  0  0  0  0
  1  9  1  0  0  0  0
  2  3  1  0  0  0  0
  2  7  2  0  0  0  0
  3  1  2  0  0  0  0
  4  8  1  0  0  0  0
  5  9  2  0  0  0  0
  5  8  1  0  0  0  0
  6  7  1  0  0  0  0
  6 10  1  0  0  0  0
  7  5  1  0  0  0  0
 10  4  2  0  0  0  0
 11 12  1  0  0  0  0
 12  2  1  0  0  0  0
 13 15  1  0  0  0  0
 15 11  2  0  0  0  0
 16 17  1  0  0  0  0
 17 12  2  0  0  0  0
 17 14  1  0  0  0  0
 18 15  1  0  0  0  0
 18 16  2  0  0  0  0
 19 18  1  0  0  0  0
 21 16  1  0  0  0  0
 21 20  1  1  0  0  0
 22 23  2  0  0  0  0
 23 21  1  0  0  0  0
 24 22  1  0  0  0  0
 25 24  1  6  0  0  0
 25 26  1  0  0  0  0
 26 29  1  0  0  0  0
 26 27  1  1  0  0  0
 29 28  1  0  0  0  0
 30 25  1  0  0  0  0
 32 33  1  0  0  0  0
 33 31  1  0  0  0  0
 33 30  1  0  0  0  0
 35 36  2  0  0  0  0
 36 34  1  0  0  0  0
 38 37  1  0  0  0  0
 38 10  1  0  0  0  0
 39 41  1  0  0  0  0
 39 49  2  0  0  0  0
 40 43  1  0  0  0  0
 41 42  1  0  0  0  0
 42 40  2  0  0  0  0
 42 47  1  0  0  0  0
 43 44  2  0  0  0  0
 45 43  1  0  0  0  0
 45 38  1  1  0  0  0
 46 44  1  0  0  0  0
 46 48  1  0  0  0  0
 47 46  2  0  0  0  0
 49 50  1  0  0  0  0
 49 40  1  0  0  0  0
 50 45  1  0  0  0  0
 51 52  1  0  0  0  0
 52 39  1  0  0  0  0
 53 57  1  6  0  0  0
 53 55  1  0  0  0  0
 54 53  1  0  0  0  0
 54 51  2  0  0  0  0
 55 52  1  0  0  0  0
 56 57  1  0  0  0  0
M  END
>  <MODEL>
8

>  <REMARK>
 VINA RESULT:      -6.5      3.320      8.884
  Name = 
  14 active torsions:
  status: ('A' for Active; 'I' for Inactive)
    1  A    between atoms: C_1  and  N_15
    2  A    between atoms: C_3  and  C_17
    3  A    between atoms: C_7  and  C_9
    4  A    between atoms: O_8  and  C_40
    5  A    between atoms: C_20  and  C_57
    6  A    between atoms: N_25  and  C_44
    7  A    between atoms: N_25  and  C_54
    8  A    between atoms: C_26  and  C_33
    9  A    between atoms: C_28  and  C_50
   10  A    between atoms: C_34  and  C_50
   11  A    between atoms: N_39  and  N_52
   12  A    between atoms: C_40  and  C_48
   13  A    between atoms: C_48  and  N_52
   14  A    between atoms: C_48  and  C_57
                            x       y       z     vdW  Elec       q    Type
                         _______ _______ _______ _____ _____    ______ ____

>  <TORSDO>
F 14

$$$$
=
 OpenBabel11042417513D

 57 63  0  0  1  0  0  0  0  0999 V2000
  188.5370  173.8820  138.9510 C   0  0  0  0  0  0  0  0  0  0  0  0
  189.3280  173.1680  141.1440 C   0  0  0  0  0  0  0  0  0  0  0  0
  188.6900  174.1080  140.3260 C   0  0  0  0  0  3  0  0  0  0  0  0
  191.3940  169.9760  139.3290 C   0  0  0  0  0  3  0  0  0  0  0  0
  189.6810  171.7550  139.1940 C   0  0  0  0  0  0  0  0  0  0  0  0
  190.4810  170.9130  141.4250 C   0  0  0  0  0  2  0  0  0  0  0  0
  189.8250  171.9780  140.5760 C   0  0  0  0  0  0  0  0  0  0  0  0
  190.1910  170.4860  138.5840 C   0  0  0  0  0  2  0  0  0  0  0  0
  189.0370  172.6990  138.3920 C   0  0  0  0  0  3  0  0  0  0  0  0
  191.5360  170.1520  140.6520 C   0  0  0  0  0  0  0  0  0  0  0  0
  189.3690  172.4600  143.5080 C   0  0  0  0  0  3  0  0  0  0  0  0
  189.5100  173.4860  142.5700 C   0  0  0  0  0  0  0  0  0  0  0  0
  189.3160  171.7190  145.7630 F   0  0  0  0  0  0  0  0  0  0  0  0
  189.8390  175.9210  142.0090 C   0  0  0  0  0  1  0  0  0  0  0  0
  189.4840  172.7260  144.8700 C   0  0  0  0  0  0  0  0  0  0  0  0
  189.8600  175.0820  144.3880 C   0  0  0  0  0  0  0  0  0  0  0  0
  189.7560  174.8070  143.0060 C   0  0  0  0  0  0  0  0  0  0  0  0
  189.7230  174.0280  145.3150 C   0  0  0  0  0  0  0  0  0  0  0  0
  189.8080  174.2600  146.6500 F   0  0  0  0  0  0  0  0  0  0  0  0
  191.1390  176.6790  145.8870 C   0  0  0  0  0  1  0  0  0  0  0  0
  190.0400  176.5110  144.8480 C   0  0  2  0  0  3  0  0  0  0  0  0
  188.0350  177.9150  144.4250 C   0  0  0  0  0  3  0  0  0  0  0  0
  188.7460  177.1530  145.2580 C   0  0  0  0  0  3  0  0  0  0  0  0
  186.7660  178.5480  144.8800 C   0  0  0  0  0  2  0  0  0  0  0  0
  185.5940  177.6260  144.5770 C   0  0  2  0  0  3  0  0  0  0  0  0
  184.4420  178.4190  143.9650 C   0  0  1  0  0  3  0  0  0  0  0  0
  184.8080  179.7600  143.8450 O   0  0  0  0  0  1  0  0  0  0  0  0
  185.1880  178.3450  141.8790 C   0  0  0  0  0  1  0  0  0  0  0  0
  184.1400  177.9140  142.6960 O   0  0  0  0  0  0  0  0  0  0  0  0
  185.1610  176.9770  145.8080 N   0  0  0  0  0  2  0  0  0  0  0  0
  185.9440  177.1500  147.9510 C   0  0  0  0  0  1  0  0  0  0  0  0
  184.1330  178.2910  147.2620 O   0  0  0  0  0  1  0  0  0  0  0  0
  185.3600  177.8940  146.8500 N   0  0  0  0  0  0  0  0  0  0  0  0
  188.1140  174.9220  136.7000 N   0  0  0  0  0  1  0  0  0  0  0  0
  187.0660  175.7120  138.6090 O   0  0  0  0  0  0  0  0  0  0  0  0
  187.8650  174.8800  138.1020 C   0  0  0  0  0  0  0  0  0  0  0  0
  192.5240  168.2360  141.9060 C   0  0  0  0  0  1  0  0  0  0  0  0
  192.6560  169.5740  141.3450 N   0  0  0  0  0  0  0  0  0  0  0  0
  194.9230  174.0650  141.2210 C   0  0  0  0  0  0  0  0  0  0  0  0
  194.5230  172.1610  140.0300 C   0  0  0  0  0  0  0  0  0  0  0  0
  195.2290  174.4840  139.5860 S   0  0  0  0  0  0  0  0  0  0  0  0
  194.8710  172.9490  138.9720 C   0  0  0  0  0  0  0  0  0  0  0  0
  194.2360  170.8400  139.9310 C   0  0  0  0  0  0  0  0  0  0  0  0
  194.2860  170.2350  138.6650 C   0  0  0  0  0  3  0  0  0  0  0  0
  193.9730  170.2180  141.2770 C   0  0  1  0  0  3  0  0  0  0  0  0
  194.6200  171.0330  137.5370 C   0  0  0  0  0  0  0  0  0  0  0  0
  194.9300  172.4110  137.6840 C   0  0  0  0  0  3  0  0  0  0  0  0
  194.6690  170.4100  136.1890 C   0  0  0  0  0  1  0  0  0  0  0  0
  194.5340  172.7240  141.2550 C   0  0  0  0  0  0  0  0  0  0  0  0
  194.1070  171.5770  142.5550 S   0  0  0  0  0  0  0  0  0  0  0  0
  195.5710  176.2950  142.2440 C   0  0  0  0  0  3  0  0  0  0  0  0
  195.1320  174.9200  142.3510 N   0  0  0  0  0  0  0  0  0  0  0  0
  195.7120  175.6250  144.4960 C   0  0  2  0  0  3  0  0  0  0  0  0
  195.8340  176.7780  143.5990 N   0  0  0  0  0  0  0  0  0  0  0  0
  195.1290  174.4640  143.7160 C   0  0  0  0  0  2  0  0  0  0  0  0
  193.9630  174.8160  146.1390 C   0  0  0  0  0  1  0  0  0  0  0  0
  194.8680  175.9670  145.7210 C   0  0  0  0  0  2  0  0  0  0  0  0
  1  3  1  0  0  0  0
  2 12  1  0  0  0  0
  3  2  2  0  0  0  0
  4 10  2  0  0  0  0
  5  7  2  0  0  0  0
  7  2  1  0  0  0  0
  7  6  1  0  0  0  0
  8  5  1  0  0  0  0
  8  4  1  0  0  0  0
  9  1  2  0  0  0  0
  9  5  1  0  0  0  0
 10 38  1  0  0  0  0
 10  6  1  0  0  0  0
 11 15  1  0  0  0  0
 12 17  1  0  0  0  0
 12 11  2  0  0  0  0
 14 17  1  0  0  0  0
 15 18  2  0  0  0  0
 15 13  1  0  0  0  0
 16 21  1  0  0  0  0
 16 18  1  0  0  0  0
 17 16  2  0  0  0  0
 18 19  1  0  0  0  0
 21 23  1  0  0  0  0
 21 20  1  1  0  0  0
 22 24  1  0  0  0  0
 22 23  2  0  0  0  0
 25 24  1  1  0  0  0
 25 30  1  0  0  0  0
 26 27  1  6  0  0  0
 26 25  1  0  0  0  0
 28 29  1  0  0  0  0
 29 26  1  0  0  0  0
 30 33  1  0  0  0  0
 33 32  1  0  0  0  0
 33 31  1  0  0  0  0
 34 36  1  0  0  0  0
 36 35  2  0  0  0  0
 36  1  1  0  0  0  0
 38 37  1  0  0  0  0
 39 49  2  0  0  0  0
 39 52  1  0  0  0  0
 40 49  1  0  0  0  0
 41 39  1  0  0  0  0
 42 41  1  0  0  0  0
 42 40  2  0  0  0  0
 43 40  1  0  0  0  0
 43 45  1  0  0  0  0
 44 43  2  0  0  0  0
 45 38  1  6  0  0  0
 45 50  1  0  0  0  0
 46 47  2  0  0  0  0
 46 44  1  0  0  0  0
 47 42  1  0  0  0  0
 48 46  1  0  0  0  0
 49 50  1  0  0  0  0
 51 52  1  0  0  0  0
 51 54  2  0  0  0  0
 52 55  1  0  0  0  0
 53 57  1  1  0  0  0
 54 53  1  0  0  0  0
 55 53  1  0  0  0  0
 57 56  1  0  0  0  0
M  END
>  <MODEL>
9

>  <REMARK>
 VINA RESULT:      -6.4      2.792      4.952
  Name = 
  14 active torsions:
  status: ('A' for Active; 'I' for Inactive)
    1  A    between atoms: C_1  and  N_15
    2  A    between atoms: C_3  and  C_17
    3  A    between atoms: C_7  and  C_9
    4  A    between atoms: O_8  and  C_40
    5  A    between atoms: C_20  and  C_57
    6  A    between atoms: N_25  and  C_44
    7  A    between atoms: N_25  and  C_54
    8  A    between atoms: C_26  and  C_33
    9  A    between atoms: C_28  and  C_50
   10  A    between atoms: C_34  and  C_50
   11  A    between atoms: N_39  and  N_52
   12  A    between atoms: C_40  and  C_48
   13  A    between atoms: C_48  and  N_52
   14  A    between atoms: C_48  and  C_57
                            x       y       z     vdW  Elec       q    Type
                         _______ _______ _______ _____ _____    ______ ____

>  <TORSDO>
F 14

$$$$
