=
 OpenBabel11042417213D

 26 29  0  0  0  0  0  0  0  0999 V2000
  184.6380  178.0500  142.2960 C   0  0  0  0  0  0  0  0  0  0  0  0
  186.9290  176.9200  147.3660 C   0  0  0  0  0  3  0  0  0  0  0  0
  186.2980  177.2250  145.2700 C   0  0  0  0  0  0  0  0  0  0  0  0
  184.3890  178.3720  144.4930 N   0  0  0  0  0  0  0  0  0  0  0  0
  187.0440  176.4980  142.4980 S   0  0  0  0  0  0  0  0  0  0  0  0
  187.4440  176.4730  145.1680 C   0  0  0  0  0  0  0  0  0  0  0  0
  185.4970  177.6690  144.2540 C   0  0  0  0  0  0  0  0  0  0  0  0
  185.9670  177.4970  146.5570 C   0  0  0  0  0  0  0  0  0  0  0  0
  183.8180  178.6240  143.2900 C   0  0  0  0  0  3  0  0  0  0  0  0
  187.8530  176.2890  146.5040 C   0  0  0  0  0  0  0  0  0  0  0  0
  183.9970  178.6850  145.7680 C   0  0  0  0  0  3  0  0  0  0  0  0
  184.8040  178.2420  146.8600 C   0  0  0  0  0  3  0  0  0  0  0  0
  185.6970  177.4370  142.9460 C   0  0  0  0  0  0  0  0  0  0  0  0
  187.9410  176.0240  143.9100 C   0  0  0  0  0  0  0  0  0  0  0  0
  188.9920  174.4040  147.4180 O   0  0  0  0  0  1  0  0  0  0  0  0
  190.2760  176.2440  147.0090 O   0  0  0  0  0  0  0  0  0  0  0  0
  189.0480  175.5940  147.0170 C   0  0  0  0  0  0  0  0  0  0  0  0
  189.0920  175.1850  143.8050 N   0  0  0  0  0  2  0  0  0  0  0  0
  190.3970  175.6810  143.3960 C   0  0  0  0  0  1  0  0  0  0  0  0
  184.3620  178.0230  140.8330 C   0  0  0  0  0  2  0  0  0  0  0  0
  183.2000  178.8420  140.5400 N   0  0  0  0  0  2  0  0  0  0  0  0
  182.0700  177.9370  140.4190 C   0  0  0  0  0  2  0  0  0  0  0  0
  178.6960  178.4770  142.1120 N   0  0  0  0  0  1  0  0  0  0  0  0
  180.6280  179.8220  140.6140 O   0  0  0  0  0  0  0  0  0  0  0  0
  179.8760  177.8750  141.6570 N   0  0  0  0  0  2  0  0  0  0  0  0
  180.8340  178.6110  140.8990 C   0  0  0  0  0  0  0  0  0  0  0  0
  1 13  1  0  0  0  0
  1  9  2  0  0  0  0
  3  8  2  0  0  0  0
  4 11  1  0  0  0  0
  5 13  1  0  0  0  0
  5 14  1  0  0  0  0
  6  3  1  0  0  0  0
  6 10  1  0  0  0  0
  7  4  1  0  0  0  0
  7  3  1  0  0  0  0
  8 12  1  0  0  0  0
  8  2  1  0  0  0  0
  9  4  1  0  0  0  0
 10 17  1  0  0  0  0
 10  2  2  0  0  0  0
 11 12  2  0  0  0  0
 13  7  2  0  0  0  0
 14  6  2  0  0  0  0
 16 17  2  0  0  0  0
 17 15  1  0  0  0  0
 18 14  1  0  0  0  0
 19 18  1  0  0  0  0
 20  1  1  0  0  0  0
 21 20  1  0  0  0  0
 22 21  1  0  0  0  0
 22 26  1  0  0  0  0
 24 26  2  0  0  0  0
 25 23  1  0  0  0  0
 26 25  1  0  0  0  0
M  END
>  <MODEL>
1

>  <REMARK>
 VINA RESULT:      -7.5      0.000      0.000
  Name = 
  6 active torsions:
  status: ('A' for Active; 'I' for Inactive)
    1  A    between atoms: N_3  and  C_25
    2  A    between atoms: C_5  and  C_10
    3  A    between atoms: C_9  and  C_16
    4  A    between atoms: C_9  and  N_26
    5  A    between atoms: C_10  and  N_26
    6  A    between atoms: C_18  and  C_21
                            x       y       z     vdW  Elec       q    Type
                         _______ _______ _______ _____ _____    ______ ____

>  <TORSDO>
F 6

$$$$
=
 OpenBabel11042417213D

 26 29  0  0  0  0  0  0  0  0999 V2000
  187.8520  176.3650  146.5120 C   0  0  0  0  0  0  0  0  0  0  0  0
  183.7510  178.7460  143.3890 C   0  0  0  0  0  3  0  0  0  0  0  0
  185.4540  177.6970  144.3310 C   0  0  0  0  0  0  0  0  0  0  0  0
  185.9560  177.5410  146.6300 N   0  0  0  0  0  0  0  0  0  0  0  0
  187.9080  176.1870  143.6470 S   0  0  0  0  0  0  0  0  0  0  0  0
  185.6480  177.5080  142.9830 C   0  0  0  0  0  0  0  0  0  0  0  0
  186.2450  177.2620  145.3580 C   0  0  0  0  0  0  0  0  0  0  0  0
  184.3450  178.4310  144.5980 C   0  0  0  0  0  0  0  0  0  0  0  0
  186.9440  177.0000  147.3840 C   0  0  0  0  0  3  0  0  0  0  0  0
  184.5560  178.1660  142.3840 C   0  0  0  0  0  0  0  0  0  0  0  0
  184.8500  178.2740  146.9720 C   0  0  0  0  0  3  0  0  0  0  0  0
  183.9950  178.7470  145.9310 C   0  0  0  0  0  3  0  0  0  0  0  0
  187.3830  176.5610  145.2220 C   0  0  0  0  0  0  0  0  0  0  0  0
  186.7850  176.8140  142.4760 C   0  0  0  0  0  0  0  0  0  0  0  0
  185.0290  178.7010  140.1080 O   0  0  0  0  0  0  0  0  0  0  0  0
  182.9660  177.8160  140.5180 O   0  0  0  0  0  1  0  0  0  0  0  0
  184.2080  178.2650  140.9540 C   0  0  0  0  0  0  0  0  0  0  0  0
  187.0270  176.6750  141.0760 N   0  0  0  0  0  2  0  0  0  0  0  0
  187.8350  175.6030  140.5150 C   0  0  0  0  0  1  0  0  0  0  0  0
  189.1250  175.6970  146.8980 C   0  0  0  0  0  2  0  0  0  0  0  0
  190.1800  176.6880  147.0120 N   0  0  0  0  0  2  0  0  0  0  0  0
  191.3930  176.0660  146.5100 C   0  0  0  0  0  2  0  0  0  0  0  0
  191.3770  177.6660  143.0480 N   0  0  0  0  0  1  0  0  0  0  0  0
  191.5790  175.1830  144.3060 O   0  0  0  0  0  0  0  0  0  0  0  0
  191.3390  177.5010  144.4380 N   0  0  0  0  0  2  0  0  0  0  0  0
  191.4530  176.2080  145.0290 C   0  0  0  0  0  0  0  0  0  0  0  0
  1 20  1  0  0  0  0
  1  9  2  0  0  0  0
  2  8  1  0  0  0  0
  3  8  2  0  0  0  0
  3  7  1  0  0  0  0
  4 11  1  0  0  0  0
  4  9  1  0  0  0  0
  5 13  1  0  0  0  0
  6  3  1  0  0  0  0
  7  4  1  0  0  0  0
  8 12  1  0  0  0  0
 10  6  1  0  0  0  0
 10  2  2  0  0  0  0
 12 11  2  0  0  0  0
 13  7  2  0  0  0  0
 13  1  1  0  0  0  0
 14  6  2  0  0  0  0
 14  5  1  0  0  0  0
 15 17  2  0  0  0  0
 16 17  1  0  0  0  0
 17 10  1  0  0  0  0
 18 14  1  0  0  0  0
 19 18  1  0  0  0  0
 20 21  1  0  0  0  0
 22 21  1  0  0  0  0
 23 25  1  0  0  0  0
 24 26  2  0  0  0  0
 25 26  1  0  0  0  0
 26 22  1  0  0  0  0
M  END
>  <MODEL>
2

>  <REMARK>
 VINA RESULT:      -7.0      2.963      7.151
  Name = 
  6 active torsions:
  status: ('A' for Active; 'I' for Inactive)
    1  A    between atoms: N_3  and  C_25
    2  A    between atoms: C_5  and  C_10
    3  A    between atoms: C_9  and  C_16
    4  A    between atoms: C_9  and  N_26
    5  A    between atoms: C_10  and  N_26
    6  A    between atoms: C_18  and  C_21
                            x       y       z     vdW  Elec       q    Type
                         _______ _______ _______ _____ _____    ______ ____

>  <TORSDO>
F 6

$$$$
=
 OpenBabel11042417213D

 26 29  0  0  0  0  0  0  0  0999 V2000
  190.3170  174.5620  143.8200 C   0  0  0  0  0  0  0  0  0  0  0  0
  186.1840  177.7740  146.0230 C   0  0  0  0  0  3  0  0  0  0  0  0
  187.6950  176.6310  144.8830 C   0  0  0  0  0  0  0  0  0  0  0  0
  189.2510  175.0680  145.7180 N   0  0  0  0  0  0  0  0  0  0  0  0
  188.7990  176.3370  142.1510 S   0  0  0  0  0  0  0  0  0  0  0  0
  187.0800  177.4130  143.9340 C   0  0  0  0  0  0  0  0  0  0  0  0
  188.7230  175.7490  144.6990 C   0  0  0  0  0  0  0  0  0  0  0  0
  187.1900  176.8300  146.1260 C   0  0  0  0  0  0  0  0  0  0  0  0
  190.2580  174.3180  145.2080 C   0  0  0  0  0  3  0  0  0  0  0  0
  186.1090  178.1320  144.6590 C   0  0  0  0  0  0  0  0  0  0  0  0
  188.7880  175.2170  146.9990 C   0  0  0  0  0  3  0  0  0  0  0  0
  187.7140  176.1280  147.2360 C   0  0  0  0  0  3  0  0  0  0  0  0
  189.3290  175.4910  143.5290 C   0  0  0  0  0  0  0  0  0  0  0  0
  187.4930  177.4070  142.5700 C   0  0  0  0  0  0  0  0  0  0  0  0
  183.9570  178.7380  143.8290 O   0  0  0  0  0  0  0  0  0  0  0  0
  185.4380  180.4510  144.1080 O   0  0  0  0  0  1  0  0  0  0  0  0
  185.1140  179.1000  144.1610 C   0  0  0  0  0  0  0  0  0  0  0  0
  186.9040  178.2670  141.5940 N   0  0  0  0  0  2  0  0  0  0  0  0
  185.8670  177.8280  140.6750 C   0  0  0  0  0  1  0  0  0  0  0  0
  191.3160  174.0040  142.8690 C   0  0  0  0  0  2  0  0  0  0  0  0
  192.6560  174.3400  143.3150 N   0  0  0  0  0  2  0  0  0  0  0  0
  192.9250  175.6900  142.8510 C   0  0  0  0  0  2  0  0  0  0  0  0
  194.6310  177.3110  145.8510 N   0  0  0  0  0  1  0  0  0  0  0  0
  192.2640  177.3950  144.3760 O   0  0  0  0  0  0  0  0  0  0  0  0
  194.3860  176.4940  144.7410 N   0  0  0  0  0  2  0  0  0  0  0  0
  193.1590  176.5830  144.0180 C   0  0  0  0  0  0  0  0  0  0  0  0
  1  9  2  0  0  0  0
  2  8  1  0  0  0  0
  3  8  2  0  0  0  0
  4 11  1  0  0  0  0
  5 14  1  0  0  0  0
  5 13  1  0  0  0  0
  6 10  1  0  0  0  0
  6  3  1  0  0  0  0
  7  3  1  0  0  0  0
  7  4  1  0  0  0  0
  8 12  1  0  0  0  0
  9  4  1  0  0  0  0
 10  2  2  0  0  0  0
 11 12  2  0  0  0  0
 13  1  1  0  0  0  0
 13  7  2  0  0  0  0
 14  6  2  0  0  0  0
 15 17  2  0  0  0  0
 16 17  1  0  0  0  0
 17 10  1  0  0  0  0
 18 14  1  0  0  0  0
 19 18  1  0  0  0  0
 20 21  1  0  0  0  0
 20  1  1  0  0  0  0
 22 21  1  0  0  0  0
 22 26  1  0  0  0  0
 25 23  1  0  0  0  0
 26 24  2  0  0  0  0
 26 25  1  0  0  0  0
M  END
>  <MODEL>
3

>  <REMARK>
 VINA RESULT:      -6.8      3.305      7.786
  Name = 
  6 active torsions:
  status: ('A' for Active; 'I' for Inactive)
    1  A    between atoms: N_3  and  C_25
    2  A    between atoms: C_5  and  C_10
    3  A    between atoms: C_9  and  C_16
    4  A    between atoms: C_9  and  N_26
    5  A    between atoms: C_10  and  N_26
    6  A    between atoms: C_18  and  C_21
                            x       y       z     vdW  Elec       q    Type
                         _______ _______ _______ _____ _____    ______ ____

>  <TORSDO>
F 6

$$$$
=
 OpenBabel11042417213D

 26 29  0  0  0  0  0  0  0  0999 V2000
  189.6160  174.4850  142.4070 C   0  0  0  0  0  0  0  0  0  0  0  0
  186.7590  177.7850  146.0400 C   0  0  0  0  0  3  0  0  0  0  0  0
  187.6890  176.6300  144.4000 C   0  0  0  0  0  0  0  0  0  0  0  0
  189.3190  174.9350  144.5760 N   0  0  0  0  0  0  0  0  0  0  0  0
  187.7450  176.4380  141.4450 S   0  0  0  0  0  0  0  0  0  0  0  0
  186.8410  177.5000  143.7570 C   0  0  0  0  0  0  0  0  0  0  0  0
  188.5210  175.7040  143.8340 C   0  0  0  0  0  0  0  0  0  0  0  0
  187.6650  176.7820  145.7470 C   0  0  0  0  0  0  0  0  0  0  0  0
  190.0270  174.1620  143.7170 C   0  0  0  0  0  3  0  0  0  0  0  0
  186.2390  178.2280  144.8030 C   0  0  0  0  0  0  0  0  0  0  0  0
  189.3450  175.0330  145.9430 C   0  0  0  0  0  3  0  0  0  0  0  0
  188.4910  175.9870  146.5760 C   0  0  0  0  0  3  0  0  0  0  0  0
  188.6600  175.4830  142.5160 C   0  0  0  0  0  0  0  0  0  0  0  0
  186.7500  177.5530  142.3360 C   0  0  0  0  0  0  0  0  0  0  0  0
  185.4500  180.3990  144.2100 O   0  0  0  0  0  0  0  0  0  0  0  0
  183.9200  179.0090  145.1760 O   0  0  0  0  0  1  0  0  0  0  0  0
  185.2070  179.2780  144.7240 C   0  0  0  0  0  0  0  0  0  0  0  0
  185.9230  178.5020  141.6620 N   0  0  0  0  0  2  0  0  0  0  0  0
  184.5680  178.2010  141.2260 C   0  0  0  0  0  1  0  0  0  0  0  0
  190.1760  173.9310  141.1450 C   0  0  0  0  0  2  0  0  0  0  0  0
  189.6150  172.6150  140.8990 N   0  0  0  0  0  2  0  0  0  0  0  0
  188.3120  172.8230  140.2900 C   0  0  0  0  0  2  0  0  0  0  0  0
  189.3880  172.5580  136.6410 N   0  0  0  0  0  1  0  0  0  0  0  0
  188.0060  174.2320  138.3950 O   0  0  0  0  0  0  0  0  0  0  0  0
  189.2010  172.2670  137.9980 N   0  0  0  0  0  2  0  0  0  0  0  0
  188.4800  173.1560  138.8500 C   0  0  0  0  0  0  0  0  0  0  0  0
  1 13  1  0  0  0  0
  1  9  2  0  0  0  0
  3  8  2  0  0  0  0
  4 11  1  0  0  0  0
  5 14  1  0  0  0  0
  5 13  1  0  0  0  0
  6  3  1  0  0  0  0
  6 10  1  0  0  0  0
  7  3  1  0  0  0  0
  7  4  1  0  0  0  0
  8  2  1  0  0  0  0
  8 12  1  0  0  0  0
  9  4  1  0  0  0  0
 10  2  2  0  0  0  0
 11 12  2  0  0  0  0
 13  7  2  0  0  0  0
 14  6  2  0  0  0  0
 15 17  2  0  0  0  0
 17 10  1  0  0  0  0
 17 16  1  0  0  0  0
 18 14  1  0  0  0  0
 19 18  1  0  0  0  0
 20  1  1  0  0  0  0
 21 20  1  0  0  0  0
 22 21  1  0  0  0  0
 23 25  1  0  0  0  0
 24 26  2  0  0  0  0
 25 26  1  0  0  0  0
 26 22  1  0  0  0  0
M  END
>  <MODEL>
4

>  <REMARK>
 VINA RESULT:      -6.7      3.721      6.661
  Name = 
  6 active torsions:
  status: ('A' for Active; 'I' for Inactive)
    1  A    between atoms: N_3  and  C_25
    2  A    between atoms: C_5  and  C_10
    3  A    between atoms: C_9  and  C_16
    4  A    between atoms: C_9  and  N_26
    5  A    between atoms: C_10  and  N_26
    6  A    between atoms: C_18  and  C_21
                            x       y       z     vdW  Elec       q    Type
                         _______ _______ _______ _____ _____    ______ ____

>  <TORSDO>
F 6

$$$$
=
 OpenBabel11042417213D

 26 29  0  0  0  0  0  0  0  0999 V2000
  190.1810  174.3070  144.1770 C   0  0  0  0  0  0  0  0  0  0  0  0
  186.0980  177.8250  142.3890 C   0  0  0  0  0  3  0  0  0  0  0  0
  187.6590  176.6020  143.3660 C   0  0  0  0  0  0  0  0  0  0  0  0
  189.0450  174.9730  142.3720 N   0  0  0  0  0  0  0  0  0  0  0  0
  188.8420  176.0490  146.0240 S   0  0  0  0  0  0  0  0  0  0  0  0
  187.1370  177.3560  144.3890 C   0  0  0  0  0  0  0  0  0  0  0  0
  188.6480  175.6590  143.4440 C   0  0  0  0  0  0  0  0  0  0  0  0
  187.0600  176.8530  142.1760 C   0  0  0  0  0  0  0  0  0  0  0  0
  190.0020  174.1100  142.7920 C   0  0  0  0  0  3  0  0  0  0  0  0
  186.1500  178.1450  143.7640 C   0  0  0  0  0  0  0  0  0  0  0  0
  188.4860  175.1770  141.1380 C   0  0  0  0  0  3  0  0  0  0  0  0
  187.4500  176.1530  141.0110 C   0  0  0  0  0  3  0  0  0  0  0  0
  189.2920  175.2970  144.5660 C   0  0  0  0  0  0  0  0  0  0  0  0
  187.5800  177.2110  145.7350 C   0  0  0  0  0  0  0  0  0  0  0  0
  185.5670  180.4020  144.2660 O   0  0  0  0  0  0  0  0  0  0  0  0
  184.0970  178.8080  144.9780 O   0  0  0  0  0  1  0  0  0  0  0  0
  185.2830  179.1810  144.3550 C   0  0  0  0  0  0  0  0  0  0  0  0
  186.9930  177.9430  146.8120 N   0  0  0  0  0  2  0  0  0  0  0  0
  185.9220  177.4100  147.6390 C   0  0  0  0  0  1  0  0  0  0  0  0
  191.0830  173.5290  145.0690 C   0  0  0  0  0  2  0  0  0  0  0  0
  192.4400  174.0310  144.9500 N   0  0  0  0  0  2  0  0  0  0  0  0
  192.6820  174.8620  146.1160 C   0  0  0  0  0  2  0  0  0  0  0  0
  194.9410  177.9140  145.7630 N   0  0  0  0  0  1  0  0  0  0  0  0
  192.4660  176.9220  144.9400 O   0  0  0  0  0  0  0  0  0  0  0  0
  194.4510  176.6580  146.1390 N   0  0  0  0  0  2  0  0  0  0  0  0
  193.1800  176.1970  145.6850 C   0  0  0  0  0  0  0  0  0  0  0  0
  1 13  1  0  0  0  0
  1 20  1  0  0  0  0
  2 10  2  0  0  0  0
  3  7  1  0  0  0  0
  3  6  1  0  0  0  0
  4  9  1  0  0  0  0
  4  7  1  0  0  0  0
  6 14  2  0  0  0  0
  7 13  2  0  0  0  0
  8  2  1  0  0  0  0
  8  3  2  0  0  0  0
  9  1  2  0  0  0  0
 10 17  1  0  0  0  0
 10  6  1  0  0  0  0
 11  4  1  0  0  0  0
 12 11  2  0  0  0  0
 12  8  1  0  0  0  0
 13  5  1  0  0  0  0
 14  5  1  0  0  0  0
 14 18  1  0  0  0  0
 15 17  2  0  0  0  0
 17 16  1  0  0  0  0
 18 19  1  0  0  0  0
 21 20  1  0  0  0  0
 21 22  1  0  0  0  0
 23 25  1  0  0  0  0
 24 26  2  0  0  0  0
 26 22  1  0  0  0  0
 26 25  1  0  0  0  0
M  END
>  <MODEL>
5

>  <REMARK>
 VINA RESULT:      -6.5      3.938      8.313
  Name = 
  6 active torsions:
  status: ('A' for Active; 'I' for Inactive)
    1  A    between atoms: N_3  and  C_25
    2  A    between atoms: C_5  and  C_10
    3  A    between atoms: C_9  and  C_16
    4  A    between atoms: C_9  and  N_26
    5  A    between atoms: C_10  and  N_26
    6  A    between atoms: C_18  and  C_21
                            x       y       z     vdW  Elec       q    Type
                         _______ _______ _______ _____ _____    ______ ____

>  <TORSDO>
F 6

$$$$
=
 OpenBabel11042417213D

 26 29  0  0  0  0  0  0  0  0999 V2000
  187.3980  177.8300  143.2750 C   0  0  0  0  0  0  0  0  0  0  0  0
  190.7380  175.5400  147.2550 C   0  0  0  0  0  3  0  0  0  0  0  0
  189.7070  176.4950  145.5490 C   0  0  0  0  0  0  0  0  0  0  0  0
  187.4020  176.9370  145.3230 N   0  0  0  0  0  0  0  0  0  0  0  0
  190.2220  177.5580  142.8330 S   0  0  0  0  0  0  0  0  0  0  0  0
  191.0250  176.4490  145.1600 C   0  0  0  0  0  0  0  0  0  0  0  0
  188.6430  176.9780  144.8380 C   0  0  0  0  0  0  0  0  0  0  0  0
  189.5090  175.9580  146.7780 C   0  0  0  0  0  0  0  0  0  0  0  0
  186.5910  177.4570  144.3700 C   0  0  0  0  0  3  0  0  0  0  0  0
  191.6840  175.8510  146.2530 C   0  0  0  0  0  0  0  0  0  0  0  0
  187.1290  176.4110  146.5590 C   0  0  0  0  0  3  0  0  0  0  0  0
  188.2110  175.8970  147.3360 C   0  0  0  0  0  3  0  0  0  0  0  0
  188.7050  177.5000  143.6020 C   0  0  0  0  0  0  0  0  0  0  0  0
  191.4490  176.9070  143.8790 C   0  0  0  0  0  0  0  0  0  0  0  0
  193.9030  176.4520  146.8870 O   0  0  0  0  0  1  0  0  0  0  0  0
  193.6230  174.3160  146.1350 O   0  0  0  0  0  0  0  0  0  0  0  0
  193.1230  175.5800  146.4290 C   0  0  0  0  0  0  0  0  0  0  0  0
  192.8050  176.7980  143.4450 N   0  0  0  0  0  2  0  0  0  0  0  0
  193.2090  175.9850  142.3090 C   0  0  0  0  0  1  0  0  0  0  0  0
  186.9230  178.3820  141.9770 C   0  0  0  0  0  2  0  0  0  0  0  0
  185.9560  177.4750  141.3860 N   0  0  0  0  0  2  0  0  0  0  0  0
  185.0220  178.2930  140.6330 C   0  0  0  0  0  2  0  0  0  0  0  0
  181.2400  178.3000  141.1190 N   0  0  0  0  0  1  0  0  0  0  0  0
  183.6280  178.2950  142.5630 O   0  0  0  0  0  0  0  0  0  0  0  0
  182.5040  178.2930  140.5170 N   0  0  0  0  0  2  0  0  0  0  0  0
  183.6940  178.2850  141.3040 C   0  0  0  0  0  0  0  0  0  0  0  0
  1 13  1  0  0  0  0
  1  9  2  0  0  0  0
  3  8  2  0  0  0  0
  4 11  1  0  0  0  0
  5 13  1  0  0  0  0
  5 14  1  0  0  0  0
  6  3  1  0  0  0  0
  6 10  1  0  0  0  0
  7  4  1  0  0  0  0
  7  3  1  0  0  0  0
  8  2  1  0  0  0  0
  8 12  1  0  0  0  0
  9  4  1  0  0  0  0
 10 17  1  0  0  0  0
 10  2  2  0  0  0  0
 11 12  2  0  0  0  0
 13  7  2  0  0  0  0
 14  6  2  0  0  0  0
 16 17  2  0  0  0  0
 17 15  1  0  0  0  0
 18 14  1  0  0  0  0
 19 18  1  0  0  0  0
 20  1  1  0  0  0  0
 21 20  1  0  0  0  0
 22 26  1  0  0  0  0
 22 21  1  0  0  0  0
 25 23  1  0  0  0  0
 25 26  1  0  0  0  0
 26 24  2  0  0  0  0
M  END
>  <MODEL>
6

>  <REMARK>
 VINA RESULT:      -6.4      2.444      3.579
  Name = 
  6 active torsions:
  status: ('A' for Active; 'I' for Inactive)
    1  A    between atoms: N_3  and  C_25
    2  A    between atoms: C_5  and  C_10
    3  A    between atoms: C_9  and  C_16
    4  A    between atoms: C_9  and  N_26
    5  A    between atoms: C_10  and  N_26
    6  A    between atoms: C_18  and  C_21
                            x       y       z     vdW  Elec       q    Type
                         _______ _______ _______ _____ _____    ______ ____

>  <TORSDO>
F 6

$$$$
=
 OpenBabel11042417213D

 26 29  0  0  0  0  0  0  0  0999 V2000
  188.2010  175.6850  141.4070 C   0  0  0  0  0  0  0  0  0  0  0  0
  185.2800  178.7800  145.1660 C   0  0  0  0  0  3  0  0  0  0  0  0
  186.6040  177.4950  143.9480 C   0  0  0  0  0  0  0  0  0  0  0  0
  186.5430  177.1680  141.6130 N   0  0  0  0  0  0  0  0  0  0  0  0
  188.8190  175.5470  144.2070 S   0  0  0  0  0  0  0  0  0  0  0  0
  187.0410  177.2990  145.2360 C   0  0  0  0  0  0  0  0  0  0  0  0
  187.0800  176.9100  142.8060 C   0  0  0  0  0  0  0  0  0  0  0  0
  185.5600  178.3590  143.8790 C   0  0  0  0  0  0  0  0  0  0  0  0
  187.2150  176.4130  140.7100 C   0  0  0  0  0  3  0  0  0  0  0  0
  186.2050  178.1280  146.0110 C   0  0  0  0  0  0  0  0  0  0  0  0
  185.4890  178.0320  141.4690 C   0  0  0  0  0  3  0  0  0  0  0  0
  184.9610  178.6660  142.6350 C   0  0  0  0  0  3  0  0  0  0  0  0
  188.0800  176.0170  142.7480 C   0  0  0  0  0  0  0  0  0  0  0  0
  188.0910  176.3860  145.5450 C   0  0  0  0  0  0  0  0  0  0  0  0
  186.4640  179.5060  147.9400 O   0  0  0  0  0  0  0  0  0  0  0  0
  185.9410  177.3200  148.3370 O   0  0  0  0  0  1  0  0  0  0  0  0
  186.2320  178.3650  147.4660 C   0  0  0  0  0  0  0  0  0  0  0  0
  188.5020  176.1290  146.8880 N   0  0  0  0  0  2  0  0  0  0  0  0
  189.2000  174.9160  147.2820 C   0  0  0  0  0  1  0  0  0  0  0  0
  189.1280  174.6760  140.8250 C   0  0  0  0  0  2  0  0  0  0  0  0
  188.5030  173.3650  140.8550 N   0  0  0  0  0  2  0  0  0  0  0  0
  189.5660  172.4010  141.0790 C   0  0  0  0  0  2  0  0  0  0  0  0
  191.4530  172.5010  144.3920 N   0  0  0  0  0  1  0  0  0  0  0  0
  188.9410  171.9160  143.3250 O   0  0  0  0  0  0  0  0  0  0  0  0
  191.1520  172.6030  143.0280 N   0  0  0  0  0  2  0  0  0  0  0  0
  189.8480  172.2970  142.5370 C   0  0  0  0  0  0  0  0  0  0  0  0
  1 13  1  0  0  0  0
  2 10  2  0  0  0  0
  3  6  1  0  0  0  0
  4  7  1  0  0  0  0
  5 14  1  0  0  0  0
  6 14  2  0  0  0  0
  6 10  1  0  0  0  0
  7  3  1  0  0  0  0
  8  3  2  0  0  0  0
  8  2  1  0  0  0  0
  9  1  2  0  0  0  0
  9  4  1  0  0  0  0
 10 17  1  0  0  0  0
 11  4  1  0  0  0  0
 11 12  2  0  0  0  0
 12  8  1  0  0  0  0
 13  7  2  0  0  0  0
 13  5  1  0  0  0  0
 14 18  1  0  0  0  0
 17 15  2  0  0  0  0
 17 16  1  0  0  0  0
 18 19  1  0  0  0  0
 20 21  1  0  0  0  0
 20  1  1  0  0  0  0
 21 22  1  0  0  0  0
 22 26  1  0  0  0  0
 25 23  1  0  0  0  0
 26 25  1  0  0  0  0
 26 24  2  0  0  0  0
M  END
>  <MODEL>
7

>  <REMARK>
 VINA RESULT:      -6.4      3.621      6.347
  Name = 
  6 active torsions:
  status: ('A' for Active; 'I' for Inactive)
    1  A    between atoms: N_3  and  C_25
    2  A    between atoms: C_5  and  C_10
    3  A    between atoms: C_9  and  C_16
    4  A    between atoms: C_9  and  N_26
    5  A    between atoms: C_10  and  N_26
    6  A    between atoms: C_18  and  C_21
                            x       y       z     vdW  Elec       q    Type
                         _______ _______ _______ _____ _____    ______ ____

>  <TORSDO>
F 6

$$$$
=
 OpenBabel11042417213D

 26 29  0  0  0  0  0  0  0  0999 V2000
  188.7550  177.4430  144.5870 C   0  0  0  0  0  0  0  0  0  0  0  0
  193.9120  176.0520  146.5140 C   0  0  0  0  0  3  0  0  0  0  0  0
  192.0390  176.6000  145.4760 C   0  0  0  0  0  0  0  0  0  0  0  0
  189.9480  177.1000  146.4450 N   0  0  0  0  0  0  0  0  0  0  0  0
  190.9020  176.9090  142.7590 S   0  0  0  0  0  0  0  0  0  0  0  0
  192.9340  176.3830  144.4560 C   0  0  0  0  0  0  0  0  0  0  0  0
  190.7190  176.9470  145.3680 C   0  0  0  0  0  0  0  0  0  0  0  0
  192.5870  176.4050  146.7000 C   0  0  0  0  0  0  0  0  0  0  0  0
  188.7060  177.4060  145.9960 C   0  0  0  0  0  3  0  0  0  0  0  0
  194.1320  176.0460  145.1180 C   0  0  0  0  0  0  0  0  0  0  0  0
  190.4360  176.9210  147.7130 C   0  0  0  0  0  3  0  0  0  0  0  0
  191.8100  176.5600  147.8710 C   0  0  0  0  0  3  0  0  0  0  0  0
  190.0540  177.1340  144.2170 C   0  0  0  0  0  0  0  0  0  0  0  0
  192.5540  176.4760  143.0860 C   0  0  0  0  0  0  0  0  0  0  0  0
  195.9400  174.5870  144.5780 O   0  0  0  0  0  1  0  0  0  0  0  0
  196.1620  176.7510  143.8890 O   0  0  0  0  0  0  0  0  0  0  0  0
  195.4550  175.7460  144.5400 C   0  0  0  0  0  0  0  0  0  0  0  0
  193.4630  176.1840  142.0240 N   0  0  0  0  0  2  0  0  0  0  0  0
  193.4500  174.9260  141.2950 C   0  0  0  0  0  1  0  0  0  0  0  0
  187.6040  177.6730  143.6710 C   0  0  0  0  0  2  0  0  0  0  0  0
  186.5530  176.7130  143.9570 N   0  0  0  0  0  2  0  0  0  0  0  0
  185.2940  177.3680  143.6490 C   0  0  0  0  0  2  0  0  0  0  0  0
  184.4510  178.3130  147.2460 N   0  0  0  0  0  1  0  0  0  0  0  0
  184.4170  179.3420  144.6520 O   0  0  0  0  0  0  0  0  0  0  0  0
  184.8790  177.5910  146.1250 N   0  0  0  0  0  2  0  0  0  0  0  0
  184.8460  178.1680  144.8210 C   0  0  0  0  0  0  0  0  0  0  0  0
  1  9  2  0  0  0  0
  2  8  1  0  0  0  0
  3  8  2  0  0  0  0
  4 11  1  0  0  0  0
  5 14  1  0  0  0  0
  5 13  1  0  0  0  0
  6 10  1  0  0  0  0
  6  3  1  0  0  0  0
  7  3  1  0  0  0  0
  7  4  1  0  0  0  0
  8 12  1  0  0  0  0
  9  4  1  0  0  0  0
 10  2  2  0  0  0  0
 11 12  2  0  0  0  0
 13  1  1  0  0  0  0
 13  7  2  0  0  0  0
 14  6  2  0  0  0  0
 16 17  2  0  0  0  0
 17 15  1  0  0  0  0
 17 10  1  0  0  0  0
 18 14  1  0  0  0  0
 19 18  1  0  0  0  0
 20 21  1  0  0  0  0
 20  1  1  0  0  0  0
 22 21  1  0  0  0  0
 22 26  1  0  0  0  0
 24 26  2  0  0  0  0
 25 23  1  0  0  0  0
 26 25  1  0  0  0  0
M  END
>  <MODEL>
8

>  <REMARK>
 VINA RESULT:      -6.4      3.828      5.886
  Name = 
  6 active torsions:
  status: ('A' for Active; 'I' for Inactive)
    1  A    between atoms: N_3  and  C_25
    2  A    between atoms: C_5  and  C_10
    3  A    between atoms: C_9  and  C_16
    4  A    between atoms: C_9  and  N_26
    5  A    between atoms: C_10  and  N_26
    6  A    between atoms: C_18  and  C_21
                            x       y       z     vdW  Elec       q    Type
                         _______ _______ _______ _____ _____    ______ ____

>  <TORSDO>
F 6

$$$$
=
 OpenBabel11042417213D

 26 29  0  0  0  0  0  0  0  0999 V2000
  192.3680  176.3880  143.4350 C   0  0  0  0  0  0  0  0  0  0  0  0
  188.1850  177.4350  147.1300 C   0  0  0  0  0  3  0  0  0  0  0  0
  189.5930  177.0660  145.4650 C   0  0  0  0  0  0  0  0  0  0  0  0
  191.8580  176.4260  145.6100 N   0  0  0  0  0  0  0  0  0  0  0  0
  189.7740  177.2000  142.5130 S   0  0  0  0  0  0  0  0  0  0  0  0
  188.4270  177.4410  144.8410 C   0  0  0  0  0  0  0  0  0  0  0  0
  190.7880  176.7470  144.8810 C   0  0  0  0  0  0  0  0  0  0  0  0
  189.4800  177.0610  146.8170 C   0  0  0  0  0  0  0  0  0  0  0  0
  192.8720  176.2000  144.7380 C   0  0  0  0  0  3  0  0  0  0  0  0
  187.5270  177.6630  145.9010 C   0  0  0  0  0  0  0  0  0  0  0  0
  191.8150  176.3980  146.9790 C   0  0  0  0  0  3  0  0  0  0  0  0
  190.5860  176.7240  147.6300 C   0  0  0  0  0  3  0  0  0  0  0  0
  191.0350  176.7490  143.5610 C   0  0  0  0  0  0  0  0  0  0  0  0
  188.3390  177.5690  143.4240 C   0  0  0  0  0  0  0  0  0  0  0  0
  185.7530  179.2470  145.7220 O   0  0  0  0  0  0  0  0  0  0  0  0
  185.1260  177.0580  145.8580 O   0  0  0  0  0  1  0  0  0  0  0  0
  186.1040  178.0460  145.8400 C   0  0  0  0  0  0  0  0  0  0  0  0
  187.1510  178.0240  142.7760 N   0  0  0  0  0  2  0  0  0  0  0  0
  186.1280  177.1200  142.2760 C   0  0  0  0  0  1  0  0  0  0  0  0
  193.1480  176.3120  142.1690 C   0  0  0  0  0  2  0  0  0  0  0  0
  194.3030  175.4540  142.3580 N   0  0  0  0  0  2  0  0  0  0  0  0
  195.4670  176.2290  141.9660 C   0  0  0  0  0  2  0  0  0  0  0  0
  197.7600  174.5080  144.4820 N   0  0  0  0  0  1  0  0  0  0  0  0
  197.3050  176.9850  143.2780 O   0  0  0  0  0  0  0  0  0  0  0  0
  196.7470  174.7340  143.5410 N   0  0  0  0  0  2  0  0  0  0  0  0
  196.5630  176.0200  142.9520 C   0  0  0  0  0  0  0  0  0  0  0  0
  1 13  1  0  0  0  0
  1  9  2  0  0  0  0
  3  8  2  0  0  0  0
  4 11  1  0  0  0  0
  5 14  1  0  0  0  0
  5 13  1  0  0  0  0
  6  3  1  0  0  0  0
  6 10  1  0  0  0  0
  7  3  1  0  0  0  0
  7  4  1  0  0  0  0
  8  2  1  0  0  0  0
  8 12  1  0  0  0  0
  9  4  1  0  0  0  0
 10  2  2  0  0  0  0
 11 12  2  0  0  0  0
 13  7  2  0  0  0  0
 14  6  2  0  0  0  0
 15 17  2  0  0  0  0
 17 16  1  0  0  0  0
 17 10  1  0  0  0  0
 18 14  1  0  0  0  0
 19 18  1  0  0  0  0
 20 21  1  0  0  0  0
 20  1  1  0  0  0  0
 22 21  1  0  0  0  0
 22 26  1  0  0  0  0
 25 23  1  0  0  0  0
 26 24  2  0  0  0  0
 26 25  1  0  0  0  0
M  END
>  <MODEL>
9

>  <REMARK>
 VINA RESULT:      -6.2      4.104      9.142
  Name = 
  6 active torsions:
  status: ('A' for Active; 'I' for Inactive)
    1  A    between atoms: N_3  and  C_25
    2  A    between atoms: C_5  and  C_10
    3  A    between atoms: C_9  and  C_16
    4  A    between atoms: C_9  and  N_26
    5  A    between atoms: C_10  and  N_26
    6  A    between atoms: C_18  and  C_21
                            x       y       z     vdW  Elec       q    Type
                         _______ _______ _______ _____ _____    ______ ____

>  <TORSDO>
F 6

$$$$
