=
 OpenBabel11042420003D

 52 57  0  0  1  0  0  0  0  0999 V2000
  190.7470  176.1350  145.5610 C   0  0  2  0  0  3  0  0  0  0  0  0
  193.0110  176.2860  143.8360 C   0  0  0  0  0  2  0  0  0  0  0  0
  192.6870  175.1920  144.8650 C   0  0  2  0  0  3  0  0  0  0  0  0
  192.0430  175.7660  145.9740 O   0  0  0  0  0  0  0  0  0  0  0  0
  191.7100  176.9200  143.3630 C   0  0  1  0  0  3  0  0  0  0  0  0
  190.7970  177.2900  144.5410 C   0  0  1  0  0  3  0  0  0  0  0  0
  192.0030  178.0520  142.6020 O   0  0  0  0  0  1  0  0  0  0  0  0
  196.0280  172.6610  144.8250 C   0  0  0  0  0  2  0  0  0  0  0  0
  194.8130  172.1960  145.6230 C   0  0  0  0  0  2  0  0  0  0  0  0
  196.2210  174.1000  145.0000 N   0  0  0  0  0  0  0  0  0  0  0  0
  193.8690  174.4390  145.3060 N   0  0  1  0  0  0  0  0  0  0  0  0
  193.5970  173.0050  145.1820 C   0  0  0  0  0  2  0  0  0  0  0  0
  195.0380  174.7800  144.4820 C   0  0  0  0  0  2  0  0  0  0  0  0
  197.3330  174.4920  144.1490 C   0  0  0  0  0  2  0  0  0  0  0  0
  197.9370  175.3030  141.9400 C   0  0  0  0  0  2  0  0  0  0  0  0
  197.2020  174.0420  141.7570 N   0  0  0  0  0  2  0  0  0  0  0  0
  196.8130  174.9890  142.8130 C   0  0  1  0  0  3  0  0  0  0  0  0
  189.9040  176.5220  146.7790 C   0  0  2  0  0  3  0  0  0  0  0  0
  190.6720  176.4920  147.9500 O   0  0  0  0  0  0  0  0  0  0  0  0
  190.7340  177.7440  148.3530 O   0  0  0  0  0  0  0  0  0  0  0  0
  191.6280  177.7390  149.3210 O   0  0  0  0  0  1  0  0  0  0  0  0
  188.7230  175.5760  146.9120 C   0  0  0  0  0  2  0  0  0  0  0  0
  187.4710  176.3390  147.3090 C   0  0  0  0  0  2  0  0  0  0  0  0
  186.6310  176.6700  146.0870 C   0  0  0  0  0  2  0  0  0  0  0  0
  185.1710  176.8500  146.4790 C   0  0  0  0  0  2  0  0  0  0  0  0
  184.5440  178.6040  147.9780 F   0  0  0  0  0  0  0  0  0  0  0  0
  185.8200  179.1260  146.1870 F   0  0  0  0  0  0  0  0  0  0  0  0
  183.6560  178.5740  145.9120 F   0  0  0  0  0  0  0  0  0  0  0  0
  184.7950  178.3180  146.6480 C   0  0  0  0  0  0  0  0  0  0  0  0
  189.3890  177.5700  144.0190 C   0  0  0  0  0  2  0  0  0  0  0  0
  189.1760  176.9210  142.3340 S   0  0  0  0  0  0  0  0  0  0  0  0
  188.3910  175.3910  142.9380 C   0  0  2  0  0  3  0  0  0  0  0  0
  189.1900  174.2270  142.5820 N   0  0  0  0  0  0  0  0  0  0  0  0
  190.3700  172.5990  141.3780 C   0  0  0  0  0  0  0  0  0  0  0  0
  189.2090  174.3750  140.2200 O   0  0  0  0  0  0  0  0  0  0  0  0
  189.7750  173.3040  143.5430 C   0  0  0  0  0  2  0  0  0  0  0  0
  191.2820  171.1770  143.2520 C   0  0  0  0  0  1  0  0  0  0  0  0
  189.5560  173.7940  141.2830 C   0  0  0  0  0  0  0  0  0  0  0  0
  190.5030  172.3100  142.6790 C   0  0  0  0  0  0  0  0  0  0  0  0
  193.2760  169.7740  139.1850 N   0  0  0  0  0  2  0  0  0  0  0  0
  192.3290  171.8980  139.8920 C   0  0  0  0  0  2  0  0  0  0  0  0
  192.6150  168.5960  138.6440 C   0  0  0  0  0  2  0  0  0  0  0  0
  191.0860  170.4190  138.3950 C   0  0  2  0  0  3  0  0  0  0  0  0
  192.4830  170.9140  138.7460 C   0  0  2  0  0  3  0  0  0  0  0  0
  190.9300  171.8720  140.2660 N   0  0  0  0  0  0  0  0  0  0  0  0
  190.1380  170.9880  139.4350 C   0  0  0  0  0  2  0  0  0  0  0  0
  190.6220  168.3210  137.3830 O   0  0  0  0  0  1  0  0  0  0  0  0
  191.1460  168.9180  138.5280 C   0  0  1  0  0  3  0  0  0  0  0  0
  186.9690  175.2600  142.4170 C   0  0  0  0  0  2  0  0  0  0  0  0
  186.2550  176.5260  142.6100 C   0  0  0  0  0  0  0  0  0  0  0  0
  184.9880  178.8510  142.9340 C   0  0  0  0  0  1  0  0  0  0  0  0
  185.6790  177.5740  142.7590 C   0  0  0  0  0  0  0  0  0  0  0  0
  1  4  1  0  0  0  0
  1 18  1  1  0  0  0
  3  2  1  6  0  0  0
  3 11  1  0  0  0  0
  3  4  1  0  0  0  0
  5  7  1  1  0  0  0
  5  2  1  0  0  0  0
  5  6  1  0  0  0  0
  6 30  1  6  0  0  0
  6  1  1  0  0  0  0
  8 10  1  0  0  0  0
  8  9  1  0  0  0  0
 11 13  1  6  0  0  0
 12 11  1  0  0  0  0
 12  9  1  0  0  0  0
 13 10  1  0  0  0  0
 14 10  1  0  0  0  0
 15 17  1  0  0  0  0
 16 15  1  0  0  0  0
 16 17  1  0  0  0  0
 17 14  1  1  0  0  0
 18 22  1  1  0  0  0
 18 19  1  0  0  0  0
 19 20  1  0  0  0  0
 20 21  1  0  0  0  0
 22 23  1  0  0  0  0
 24 25  1  0  0  0  0
 24 23  1  0  0  0  0
 25 29  1  0  0  0  0
 27 29  1  0  0  0  0
 28 29  1  0  0  0  0
 29 26  1  0  0  0  0
 31 32  1  0  0  0  0
 31 30  1  0  0  0  0
 32 49  1  6  0  0  0
 33 32  1  0  0  0  0
 33 36  1  0  0  0  0
 34 39  2  0  0  0  0
 35 38  2  0  0  0  0
 38 34  1  0  0  0  0
 38 33  1  0  0  0  0
 39 37  1  0  0  0  0
 39 36  1  0  0  0  0
 41 45  1  0  0  0  0
 42 40  1  0  0  0  0
 43 48  1  0  0  0  0
 43 44  1  0  0  0  0
 43 46  1  1  0  0  0
 44 40  1  0  0  0  0
 44 41  1  1  0  0  0
 45 34  1  0  0  0  0
 46 45  1  0  0  0  0
 48 47  1  6  0  0  0
 48 42  1  0  0  0  0
 49 50  1  0  0  0  0
 50 52  3  0  0  0  0
 52 51  1  0  0  0  0
M  END
>  <MODEL>
1

>  <REMARK>
 VINA RESULT:      -6.9      0.000      0.000
  Name = 
  18 active torsions:
  status: ('A' for Active; 'I' for Inactive)
    1  A    between atoms: C_5  and  C_16
    2  A    between atoms: C_8  and  C_27
    3  A    between atoms: N_9  and  C_41
    4  A    between atoms: C_11  and  C_32
    5  A    between atoms: C_11  and  C_42
    6  A    between atoms: C_12  and  S_15
    7  A    between atoms: C_12  and  C_40
    8  A    between atoms: O_13  and  O_18
    9  A    between atoms: C_14  and  C_16
   10  A    between atoms: C_14  and  C_43
   11  A    between atoms: S_15  and  C_49
   12  A    between atoms: C_16  and  O_18
   13  A    between atoms: N_19  and  C_49
   14  A    between atoms: N_21  and  C_30
   15  A    between atoms: N_24  and  C_26
   16  A    between atoms: C_27  and  C_49
   17  A    between atoms: C_41  and  C_52
   18  A    between atoms: C_42  and  C_43
                            x       y       z     vdW  Elec       q    Type
                         _______ _______ _______ _____ _____    ______ ____

>  <TORSDO>
F 18

$$$$
=
 OpenBabel11042420003D

 52 57  0  0  1  0  0  0  0  0999 V2000
  190.4660  172.8030  140.8670 C   0  0  2  0  0  3  0  0  0  0  0  0
  191.5990  170.8000  139.1850 C   0  0  0  0  0  2  0  0  0  0  0  0
  191.2740  172.2570  138.8200 C   0  0  2  0  0  3  0  0  0  0  0  0
  190.1190  172.6670  139.5080 O   0  0  0  0  0  0  0  0  0  0  0  0
  191.8720  170.7140  140.6800 C   0  0  1  0  0  3  0  0  0  0  0  0
  190.7890  171.4340  141.4980 C   0  0  1  0  0  3  0  0  0  0  0  0
  191.9510  169.3720  141.0550 O   0  0  0  0  0  1  0  0  0  0  0  0
  189.5150  173.1110  135.1130 C   0  0  0  0  0  2  0  0  0  0  0  0
  189.9630  171.6730  135.3560 C   0  0  0  0  0  2  0  0  0  0  0  0
  190.4950  174.0410  135.6720 N   0  0  0  0  0  0  0  0  0  0  0  0
  191.1010  172.4710  137.3780 N   0  0  1  0  0  0  0  0  0  0  0  0
  190.1700  171.4680  136.8530 C   0  0  0  0  0  2  0  0  0  0  0  0
  190.5620  173.8120  137.1130 C   0  0  0  0  0  2  0  0  0  0  0  0
  189.9680  175.3840  135.4880 C   0  0  0  0  0  2  0  0  0  0  0  0
  187.6860  176.1340  135.8490 C   0  0  0  0  0  2  0  0  0  0  0  0
  188.1130  176.6490  134.5390 N   0  0  0  0  0  2  0  0  0  0  0  0
  188.5360  175.3150  134.9920 C   0  0  1  0  0  3  0  0  0  0  0  0
  189.3310  173.4970  141.6260 C   0  0  2  0  0  3  0  0  0  0  0  0
  188.0850  172.9890  141.2380 O   0  0  0  0  0  0  0  0  0  0  0  0
  187.5610  172.4880  142.3370 O   0  0  0  0  0  0  0  0  0  0  0  0
  186.4070  171.9810  141.9550 O   0  0  0  0  0  1  0  0  0  0  0  0
  189.3800  174.9940  141.3730 C   0  0  0  0  0  2  0  0  0  0  0  0
  188.0390  175.4920  140.8620 C   0  0  0  0  0  2  0  0  0  0  0  0
  187.8200  176.9460  141.2480 C   0  0  0  0  0  2  0  0  0  0  0  0
  186.6280  177.5210  140.4960 C   0  0  0  0  0  2  0  0  0  0  0  0
  186.2160  179.0860  142.2550 F   0  0  0  0  0  0  0  0  0  0  0  0
  184.6100  178.7730  140.6980 F   0  0  0  0  0  0  0  0  0  0  0  0
  185.0420  177.1670  142.2140 F   0  0  0  0  0  0  0  0  0  0  0  0
  185.6070  178.1560  141.4330 C   0  0  0  0  0  0  0  0  0  0  0  0
  191.2890  171.6370  142.9280 C   0  0  0  0  0  2  0  0  0  0  0  0
  192.6290  172.8650  142.9830 S   0  0  0  0  0  0  0  0  0  0  0  0
  192.2570  173.3080  144.7110 C   0  0  2  0  0  3  0  0  0  0  0  0
  191.3420  174.4410  144.7670 N   0  0  0  0  0  0  0  0  0  0  0  0
  189.4880  175.8080  145.1960 C   0  0  0  0  0  0  0  0  0  0  0  0
  189.4900  173.4940  145.8950 O   0  0  0  0  0  0  0  0  0  0  0  0
  191.6350  175.7630  144.2340 C   0  0  0  0  0  2  0  0  0  0  0  0
  190.2630  177.9970  144.2110 C   0  0  0  0  0  1  0  0  0  0  0  0
  190.0480  174.4790  145.3450 C   0  0  0  0  0  0  0  0  0  0  0  0
  190.3970  176.5550  144.5580 C   0  0  0  0  0  0  0  0  0  0  0  0
  186.4470  178.2140  147.6860 N   0  0  0  0  0  2  0  0  0  0  0  0
  187.8020  176.2970  147.0560 C   0  0  0  0  0  2  0  0  0  0  0  0
  185.5880  179.0540  146.8660 C   0  0  0  0  0  2  0  0  0  0  0  0
  185.9580  177.0380  145.6340 C   0  0  2  0  0  3  0  0  0  0  0  0
  186.4050  176.8890  147.0820 C   0  0  2  0  0  3  0  0  0  0  0  0
  188.1900  176.2290  145.6610 N   0  0  0  0  0  0  0  0  0  0  0  0
  187.1490  176.6840  144.7620 C   0  0  0  0  0  2  0  0  0  0  0  0
  184.3600  178.6250  144.8790 O   0  0  0  0  0  1  0  0  0  0  0  0
  185.6190  178.4970  145.4650 C   0  0  1  0  0  3  0  0  0  0  0  0
  193.5290  173.5930  145.4920 C   0  0  0  0  0  2  0  0  0  0  0  0
  194.3420  172.3760  145.5710 C   0  0  0  0  0  0  0  0  0  0  0  0
  195.8230  170.1650  145.7640 C   0  0  0  0  0  1  0  0  0  0  0  0
  195.0110  171.3770  145.6540 C   0  0  0  0  0  0  0  0  0  0  0  0
  1  6  1  0  0  0  0
  1 18  1  1  0  0  0
  2  5  1  0  0  0  0
  3  2  1  6  0  0  0
  3  4  1  0  0  0  0
  4  1  1  0  0  0  0
  5  7  1  1  0  0  0
  5  6  1  0  0  0  0
  6 30  1  1  0  0  0
  8  9  1  0  0  0  0
  8 10  1  0  0  0  0
  9 12  1  0  0  0  0
 10 13  1  0  0  0  0
 11 12  1  1  0  0  0
 11  3  1  0  0  0  0
 13 11  1  0  0  0  0
 14 10  1  0  0  0  0
 16 17  1  0  0  0  0
 16 15  1  0  0  0  0
 17 14  1  1  0  0  0
 17 15  1  0  0  0  0
 18 22  1  6  0  0  0
 19 18  1  0  0  0  0
 19 20  1  0  0  0  0
 21 20  1  0  0  0  0
 23 24  1  0  0  0  0
 23 22  1  0  0  0  0
 25 24  1  0  0  0  0
 25 29  1  0  0  0  0
 27 29  1  0  0  0  0
 29 28  1  0  0  0  0
 29 26  1  0  0  0  0
 30 31  1  0  0  0  0
 31 32  1  0  0  0  0
 32 33  1  0  0  0  0
 32 49  1  1  0  0  0
 33 38  1  0  0  0  0
 34 38  1  0  0  0  0
 34 45  1  0  0  0  0
 36 39  1  0  0  0  0
 36 33  1  0  0  0  0
 37 39  1  0  0  0  0
 38 35  2  0  0  0  0
 39 34  2  0  0  0  0
 42 40  1  0  0  0  0
 43 46  1  6  0  0  0
 43 44  1  0  0  0  0
 44 41  1  6  0  0  0
 44 40  1  0  0  0  0
 45 41  1  0  0  0  0
 46 45  1  0  0  0  0
 48 47  1  1  0  0  0
 48 43  1  0  0  0  0
 48 42  1  0  0  0  0
 49 50  1  0  0  0  0
 50 52  3  0  0  0  0
 52 51  1  0  0  0  0
M  END
>  <MODEL>
2

>  <REMARK>
 VINA RESULT:      -6.7      3.370      8.843
  Name = 
  18 active torsions:
  status: ('A' for Active; 'I' for Inactive)
    1  A    between atoms: C_5  and  C_16
    2  A    between atoms: C_8  and  C_27
    3  A    between atoms: N_9  and  C_41
    4  A    between atoms: C_11  and  C_32
    5  A    between atoms: C_11  and  C_42
    6  A    between atoms: C_12  and  S_15
    7  A    between atoms: C_12  and  C_40
    8  A    between atoms: O_13  and  O_18
    9  A    between atoms: C_14  and  C_16
   10  A    between atoms: C_14  and  C_43
   11  A    between atoms: S_15  and  C_49
   12  A    between atoms: C_16  and  O_18
   13  A    between atoms: N_19  and  C_49
   14  A    between atoms: N_21  and  C_30
   15  A    between atoms: N_24  and  C_26
   16  A    between atoms: C_27  and  C_49
   17  A    between atoms: C_41  and  C_52
   18  A    between atoms: C_42  and  C_43
                            x       y       z     vdW  Elec       q    Type
                         _______ _______ _______ _____ _____    ______ ____

>  <TORSDO>
F 18

$$$$
=
 OpenBabel11042420003D

 52 57  0  0  1  0  0  0  0  0999 V2000
  189.5630  176.0620  144.5540 C   0  0  2  0  0  3  0  0  0  0  0  0
  188.6660  176.9130  147.1220 C   0  0  0  0  0  2  0  0  0  0  0  0
  187.8080  176.4370  145.9390 C   0  0  2  0  0  3  0  0  0  0  0  0
  188.4040  176.8430  144.7340 O   0  0  0  0  0  0  0  0  0  0  0  0
  190.0420  176.2710  147.0240 C   0  0  1  0  0  3  0  0  0  0  0  0
  190.6320  176.4030  145.6120 C   0  0  1  0  0  3  0  0  0  0  0  0
  190.8910  176.8640  147.9610 O   0  0  0  0  0  1  0  0  0  0  0  0
  184.4750  178.9780  145.9170 C   0  0  0  0  0  2  0  0  0  0  0  0
  184.8320  178.3110  147.2420 C   0  0  0  0  0  2  0  0  0  0  0  0
  184.6650  178.0360  144.8150 N   0  0  0  0  0  0  0  0  0  0  0  0
  186.4200  176.9130  145.9980 N   0  0  1  0  0  0  0  0  0  0  0  0
  186.2640  177.7910  147.1610 C   0  0  0  0  0  2  0  0  0  0  0  0
  186.0750  177.6610  144.7810 C   0  0  0  0  0  2  0  0  0  0  0  0
  184.3950  178.7560  143.5810 C   0  0  0  0  0  2  0  0  0  0  0  0
  183.3980  178.1790  141.4420 C   0  0  0  0  0  2  0  0  0  0  0  0
  184.8030  178.5330  141.1880 N   0  0  0  0  0  2  0  0  0  0  0  0
  184.4250  177.7980  142.4050 C   0  0  1  0  0  3  0  0  0  0  0  0
  190.1140  176.2660  143.1400 C   0  0  2  0  0  3  0  0  0  0  0  0
  189.7480  177.5210  142.6360 O   0  0  0  0  0  0  0  0  0  0  0  0
  188.8540  177.2700  141.7040 O   0  0  0  0  0  0  0  0  0  0  0  0
  188.1150  178.3590  141.6500 O   0  0  0  0  0  1  0  0  0  0  0  0
  189.5980  175.1710  142.2220 C   0  0  0  0  0  2  0  0  0  0  0  0
  189.3150  173.9040  143.0110 C   0  0  0  0  0  2  0  0  0  0  0  0
  188.6060  172.8760  142.1440 C   0  0  0  0  0  2  0  0  0  0  0  0
  189.5870  172.2290  141.1770 C   0  0  0  0  0  2  0  0  0  0  0  0
  189.5490  171.3640  138.9490 F   0  0  0  0  0  0  0  0  0  0  0  0
  187.8340  172.6710  139.6230 F   0  0  0  0  0  0  0  0  0  0  0  0
  189.8620  173.5710  139.2490 F   0  0  0  0  0  0  0  0  0  0  0  0
  189.1970  172.4570  139.7200 C   0  0  0  0  0  0  0  0  0  0  0  0
  191.8140  175.4450  145.4680 C   0  0  0  0  0  2  0  0  0  0  0  0
  193.3600  176.3560  145.1740 S   0  0  0  0  0  0  0  0  0  0  0  0
  194.3410  174.8210  145.0960 C   0  0  2  0  0  3  0  0  0  0  0  0
  194.9390  174.6590  143.7790 N   0  0  0  0  0  0  0  0  0  0  0  0
  195.2450  174.3410  141.4770 C   0  0  0  0  0  0  0  0  0  0  0  0
  193.0260  174.2950  142.4350 O   0  0  0  0  0  0  0  0  0  0  0  0
  196.3670  174.7400  143.5070 C   0  0  0  0  0  2  0  0  0  0  0  0
  197.7510  174.5520  141.2870 C   0  0  0  0  0  1  0  0  0  0  0  0
  194.2740  174.4200  142.5500 C   0  0  0  0  0  0  0  0  0  0  0  0
  196.4540  174.5260  142.0200 C   0  0  0  0  0  0  0  0  0  0  0  0
  192.9110  172.7070  137.8550 N   0  0  0  0  0  2  0  0  0  0  0  0
  194.6880  172.8040  139.5100 C   0  0  0  0  0  2  0  0  0  0  0  0
  192.3660  173.7620  137.0150 C   0  0  0  0  0  2  0  0  0  0  0  0
  194.4910  174.5330  137.7950 C   0  0  2  0  0  3  0  0  0  0  0  0
  194.3140  173.0440  138.0590 C   0  0  2  0  0  3  0  0  0  0  0  0
  194.9430  174.1090  140.0860 N   0  0  0  0  0  0  0  0  0  0  0  0
  194.8140  175.1860  139.1260 C   0  0  0  0  0  2  0  0  0  0  0  0
  193.3150  175.7490  136.1260 O   0  0  0  0  0  1  0  0  0  0  0  0
  193.1510  175.0170  137.3020 C   0  0  1  0  0  3  0  0  0  0  0  0
  193.4990  173.6120  145.4680 C   0  0  0  0  0  2  0  0  0  0  0  0
  194.3530  172.4230  145.5500 C   0  0  0  0  0  0  0  0  0  0  0  0
  195.9470  170.2880  145.6890 C   0  0  0  0  0  1  0  0  0  0  0  0
  195.0700  171.4560  145.6140 C   0  0  0  0  0  0  0  0  0  0  0  0
  1 18  1  6  0  0  0
  1  4  1  0  0  0  0
  1  6  1  0  0  0  0
  3 11  1  0  0  0  0
  3  2  1  1  0  0  0
  4  3  1  0  0  0  0
  5  2  1  0  0  0  0
  5  7  1  1  0  0  0
  6 30  1  1  0  0  0
  6  5  1  0  0  0  0
  8  9  1  0  0  0  0
 10  8  1  0  0  0  0
 11 13  1  6  0  0  0
 11 12  1  0  0  0  0
 12  9  1  0  0  0  0
 13 10  1  0  0  0  0
 14 10  1  0  0  0  0
 15 17  1  0  0  0  0
 16 15  1  0  0  0  0
 16 17  1  0  0  0  0
 17 14  1  1  0  0  0
 18 22  1  6  0  0  0
 19 18  1  0  0  0  0
 20 19  1  0  0  0  0
 21 20  1  0  0  0  0
 22 23  1  0  0  0  0
 24 23  1  0  0  0  0
 25 24  1  0  0  0  0
 26 29  1  0  0  0  0
 27 29  1  0  0  0  0
 28 29  1  0  0  0  0
 29 25  1  0  0  0  0
 31 30  1  0  0  0  0
 32 31  1  0  0  0  0
 32 49  1  6  0  0  0
 33 32  1  0  0  0  0
 34 39  2  0  0  0  0
 34 38  1  0  0  0  0
 35 38  2  0  0  0  0
 36 33  1  0  0  0  0
 37 39  1  0  0  0  0
 38 33  1  0  0  0  0
 39 36  1  0  0  0  0
 40 44  1  0  0  0  0
 41 45  1  0  0  0  0
 42 48  1  0  0  0  0
 42 40  1  0  0  0  0
 43 44  1  0  0  0  0
 43 46  1  1  0  0  0
 44 41  1  1  0  0  0
 45 34  1  0  0  0  0
 46 45  1  0  0  0  0
 48 47  1  6  0  0  0
 48 43  1  0  0  0  0
 49 50  1  0  0  0  0
 50 52  3  0  0  0  0
 52 51  1  0  0  0  0
M  END
>  <MODEL>
3

>  <REMARK>
 VINA RESULT:      -6.7      3.651      8.079
  Name = 
  18 active torsions:
  status: ('A' for Active; 'I' for Inactive)
    1  A    between atoms: C_5  and  C_16
    2  A    between atoms: C_8  and  C_27
    3  A    between atoms: N_9  and  C_41
    4  A    between atoms: C_11  and  C_32
    5  A    between atoms: C_11  and  C_42
    6  A    between atoms: C_12  and  S_15
    7  A    between atoms: C_12  and  C_40
    8  A    between atoms: O_13  and  O_18
    9  A    between atoms: C_14  and  C_16
   10  A    between atoms: C_14  and  C_43
   11  A    between atoms: S_15  and  C_49
   12  A    between atoms: C_16  and  O_18
   13  A    between atoms: N_19  and  C_49
   14  A    between atoms: N_21  and  C_30
   15  A    between atoms: N_24  and  C_26
   16  A    between atoms: C_27  and  C_49
   17  A    between atoms: C_41  and  C_52
   18  A    between atoms: C_42  and  C_43
                            x       y       z     vdW  Elec       q    Type
                         _______ _______ _______ _____ _____    ______ ____

>  <TORSDO>
F 18

$$$$
=
 OpenBabel11042420003D

 52 57  0  0  1  0  0  0  0  0999 V2000
  189.5770  175.0550  144.4790 C   0  0  2  0  0  3  0  0  0  0  0  0
  188.1580  174.5530  142.0600 C   0  0  0  0  0  2  0  0  0  0  0  0
  188.5090  175.9170  142.6760 C   0  0  2  0  0  3  0  0  0  0  0  0
  188.4660  175.8230  144.0770 O   0  0  0  0  0  0  0  0  0  0  0  0
  189.1920  173.5280  142.5050 C   0  0  1  0  0  3  0  0  0  0  0  0
  189.4350  173.5900  144.0210 C   0  0  1  0  0  3  0  0  0  0  0  0
  188.7630  172.2530  142.1350 O   0  0  0  0  0  1  0  0  0  0  0  0
  185.1360  177.9900  141.3030 C   0  0  0  0  0  2  0  0  0  0  0  0
  186.3080  177.8520  140.3360 C   0  0  0  0  0  2  0  0  0  0  0  0
  185.6300  178.2420  142.6550 N   0  0  0  0  0  0  0  0  0  0  0  0
  187.6340  177.0040  142.2190 N   0  0  1  0  0  0  0  0  0  0  0  0
  187.2280  176.7420  140.8350 C   0  0  0  0  0  2  0  0  0  0  0  0
  186.4340  177.0940  143.0620 C   0  0  0  0  0  2  0  0  0  0  0  0
  184.4740  178.2750  143.5370 C   0  0  0  0  0  2  0  0  0  0  0  0
  185.2400  179.3330  145.5860 C   0  0  0  0  0  2  0  0  0  0  0  0
  183.9480  178.6930  145.8800 N   0  0  0  0  0  2  0  0  0  0  0  0
  184.9110  178.0510  144.9730 C   0  0  1  0  0  3  0  0  0  0  0  0
  189.7410  175.1350  146.0000 C   0  0  2  0  0  3  0  0  0  0  0  0
  188.5010  175.0240  146.6440 O   0  0  0  0  0  0  0  0  0  0  0  0
  188.3140  176.1870  147.2310 O   0  0  0  0  0  0  0  0  0  0  0  0
  187.0510  176.4790  146.9980 O   0  0  0  0  0  1  0  0  0  0  0  0
  190.4050  176.4470  146.3800 C   0  0  0  0  0  2  0  0  0  0  0  0
  191.5110  176.2100  147.3950 C   0  0  0  0  0  2  0  0  0  0  0  0
  192.6370  175.3910  146.7840 C   0  0  0  0  0  2  0  0  0  0  0  0
  193.2440  176.1270  145.5980 C   0  0  0  0  0  2  0  0  0  0  0  0
  195.2920  176.9830  144.7100 F   0  0  0  0  0  0  0  0  0  0  0  0
  194.6330  177.6830  146.7540 F   0  0  0  0  0  0  0  0  0  0  0  0
  195.3750  175.5790  146.4640 F   0  0  0  0  0  0  0  0  0  0  0  0
  194.6630  176.6090  145.8830 C   0  0  0  0  0  0  0  0  0  0  0  0
  190.7140  172.8240  144.3570 C   0  0  0  0  0  2  0  0  0  0  0  0
  192.1440  173.5230  143.4780 S   0  0  0  0  0  0  0  0  0  0  0  0
  192.7110  171.8790  142.9320 C   0  0  2  0  0  3  0  0  0  0  0  0
  192.0990  171.5200  141.6600 N   0  0  0  0  0  0  0  0  0  0  0  0
  191.2890  171.5870  139.4610 C   0  0  0  0  0  0  0  0  0  0  0  0
  192.2860  173.5500  140.4580 O   0  0  0  0  0  0  0  0  0  0  0  0
  191.5640  170.2030  141.3460 C   0  0  0  0  0  2  0  0  0  0  0  0
  190.4620  169.2200  139.1780 C   0  0  0  0  0  1  0  0  0  0  0  0
  191.9300  172.3440  140.5190 C   0  0  0  0  0  0  0  0  0  0  0  0
  191.0760  170.3510  139.9300 C   0  0  0  0  0  0  0  0  0  0  0  0
  189.1850  174.2530  136.3480 N   0  0  0  0  0  2  0  0  0  0  0  0
  189.6030  172.2480  137.6570 C   0  0  0  0  0  2  0  0  0  0  0  0
  190.1140  175.0830  135.5980 C   0  0  0  0  0  2  0  0  0  0  0  0
  191.2080  172.9900  135.9710 C   0  0  2  0  0  3  0  0  0  0  0  0
  189.7230  172.9000  136.2920 C   0  0  2  0  0  3  0  0  0  0  0  0
  190.9550  172.0880  138.1520 N   0  0  0  0  0  0  0  0  0  0  0  0
  191.9600  172.5380  137.2100 C   0  0  0  0  0  2  0  0  0  0  0  0
  192.1720  174.6020  134.5160 O   0  0  0  0  0  1  0  0  0  0  0  0
  191.4780  174.4500  135.7160 C   0  0  1  0  0  3  0  0  0  0  0  0
  192.4350  170.8230  143.9900 C   0  0  0  0  0  2  0  0  0  0  0  0
  193.6280  170.6350  144.8220 C   0  0  0  0  0  0  0  0  0  0  0  0
  195.8190  170.2680  146.2980 C   0  0  0  0  0  1  0  0  0  0  0  0
  194.6160  170.4720  145.4920 C   0  0  0  0  0  0  0  0  0  0  0  0
  1 18  1  1  0  0  0
  2  5  1  0  0  0  0
  3  2  1  6  0  0  0
  3  4  1  0  0  0  0
  4  1  1  0  0  0  0
  5  7  1  1  0  0  0
  5  6  1  0  0  0  0
  6 30  1  6  0  0  0
  6  1  1  0  0  0  0
  8 10  1  0  0  0  0
  9 12  1  0  0  0  0
  9  8  1  0  0  0  0
 10 13  1  0  0  0  0
 10 14  1  0  0  0  0
 11 12  1  6  0  0  0
 11  3  1  0  0  0  0
 11 13  1  0  0  0  0
 15 16  1  0  0  0  0
 17 14  1  6  0  0  0
 17 15  1  0  0  0  0
 17 16  1  0  0  0  0
 18 22  1  6  0  0  0
 18 19  1  0  0  0  0
 19 20  1  0  0  0  0
 21 20  1  0  0  0  0
 22 23  1  0  0  0  0
 24 23  1  0  0  0  0
 25 29  1  0  0  0  0
 25 24  1  0  0  0  0
 26 29  1  0  0  0  0
 29 28  1  0  0  0  0
 29 27  1  0  0  0  0
 31 30  1  0  0  0  0
 32 31  1  0  0  0  0
 32 49  1  1  0  0  0
 33 32  1  0  0  0  0
 34 39  2  0  0  0  0
 34 38  1  0  0  0  0
 35 38  2  0  0  0  0
 36 33  1  0  0  0  0
 37 39  1  0  0  0  0
 38 33  1  0  0  0  0
 39 36  1  0  0  0  0
 41 45  1  0  0  0  0
 42 48  1  0  0  0  0
 42 40  1  0  0  0  0
 43 44  1  0  0  0  0
 43 46  1  1  0  0  0
 44 40  1  0  0  0  0
 44 41  1  1  0  0  0
 45 34  1  0  0  0  0
 46 45  1  0  0  0  0
 48 47  1  6  0  0  0
 48 43  1  0  0  0  0
 49 50  1  0  0  0  0
 50 52  3  0  0  0  0
 52 51  1  0  0  0  0
M  END
>  <MODEL>
4

>  <REMARK>
 VINA RESULT:      -6.5      3.707      7.673
  Name = 
  18 active torsions:
  status: ('A' for Active; 'I' for Inactive)
    1  A    between atoms: C_5  and  C_16
    2  A    between atoms: C_8  and  C_27
    3  A    between atoms: N_9  and  C_41
    4  A    between atoms: C_11  and  C_32
    5  A    between atoms: C_11  and  C_42
    6  A    between atoms: C_12  and  S_15
    7  A    between atoms: C_12  and  C_40
    8  A    between atoms: O_13  and  O_18
    9  A    between atoms: C_14  and  C_16
   10  A    between atoms: C_14  and  C_43
   11  A    between atoms: S_15  and  C_49
   12  A    between atoms: C_16  and  O_18
   13  A    between atoms: N_19  and  C_49
   14  A    between atoms: N_21  and  C_30
   15  A    between atoms: N_24  and  C_26
   16  A    between atoms: C_27  and  C_49
   17  A    between atoms: C_41  and  C_52
   18  A    between atoms: C_42  and  C_43
                            x       y       z     vdW  Elec       q    Type
                         _______ _______ _______ _____ _____    ______ ____

>  <TORSDO>
F 18

$$$$
=
 OpenBabel11042420003D

 52 57  0  0  1  0  0  0  0  0999 V2000
  190.0250  175.6440  144.1120 C   0  0  2  0  0  3  0  0  0  0  0  0
  188.4520  175.3260  141.7570 C   0  0  0  0  0  2  0  0  0  0  0  0
  188.7130  176.6210  142.5430 C   0  0  2  0  0  3  0  0  0  0  0  0
  188.8080  176.3260  143.9130 O   0  0  0  0  0  0  0  0  0  0  0  0
  189.6240  174.3760  141.9650 C   0  0  1  0  0  3  0  0  0  0  0  0
  189.9950  174.2510  143.4510 C   0  0  1  0  0  3  0  0  0  0  0  0
  189.2970  173.1250  141.4400 O   0  0  0  0  0  1  0  0  0  0  0  0
  185.0470  178.6510  142.5680 C   0  0  0  0  0  2  0  0  0  0  0  0
  185.5570  178.1540  141.2190 C   0  0  0  0  0  2  0  0  0  0  0  0
  186.1590  179.1710  143.3630 N   0  0  0  0  0  0  0  0  0  0  0  0
  187.6920  177.6520  142.3210 N   0  0  1  0  0  0  0  0  0  0  0  0
  186.6400  177.1060  141.4590 C   0  0  0  0  0  2  0  0  0  0  0  0
  187.0960  178.0760  143.5960 C   0  0  0  0  0  2  0  0  0  0  0  0
  185.6230  179.5440  144.6620 C   0  0  0  0  0  2  0  0  0  0  0  0
  185.1730  178.6870  146.8910 C   0  0  0  0  0  2  0  0  0  0  0  0
  184.0200  178.3380  146.0470 N   0  0  0  0  0  2  0  0  0  0  0  0
  185.3850  178.3020  145.5000 C   0  0  1  0  0  3  0  0  0  0  0  0
  190.3170  175.5270  145.6110 C   0  0  2  0  0  3  0  0  0  0  0  0
  189.1620  175.7680  146.3670 O   0  0  0  0  0  0  0  0  0  0  0  0
  189.4660  176.7840  147.1450 O   0  0  0  0  0  0  0  0  0  0  0  0
  188.4380  177.6000  147.0460 O   0  0  0  0  0  1  0  0  0  0  0  0
  191.4050  176.5110  146.0040 C   0  0  0  0  0  2  0  0  0  0  0  0
  192.2240  176.9120  144.7890 C   0  0  0  0  0  2  0  0  0  0  0  0
  193.7100  176.9010  145.1110 C   0  0  0  0  0  2  0  0  0  0  0  0
  194.0040  175.8990  146.2190 C   0  0  0  0  0  2  0  0  0  0  0  0
  195.8640  174.3990  146.2720 F   0  0  0  0  0  0  0  0  0  0  0  0
  193.8000  173.5400  145.9440 F   0  0  0  0  0  0  0  0  0  0  0  0
  194.7980  174.7350  144.3200 F   0  0  0  0  0  0  0  0  0  0  0  0
  194.6300  174.6160  145.6860 C   0  0  0  0  0  0  0  0  0  0  0  0
  191.3730  173.6000  143.5720 C   0  0  0  0  0  2  0  0  0  0  0  0
  191.2270  171.8330  143.9760 S   0  0  0  0  0  0  0  0  0  0  0  0
  192.9220  171.4830  143.4050 C   0  0  2  0  0  3  0  0  0  0  0  0
  193.1200  171.9730  142.0480 N   0  0  0  0  0  0  0  0  0  0  0  0
  192.8970  172.3570  139.7470 C   0  0  0  0  0  0  0  0  0  0  0  0
  191.4290  170.8040  140.8750 O   0  0  0  0  0  0  0  0  0  0  0  0
  194.1310  172.9450  141.6630 C   0  0  0  0  0  2  0  0  0  0  0  0
  194.7170  174.0630  139.3630 C   0  0  0  0  0  1  0  0  0  0  0  0
  192.3820  171.6270  140.8880 C   0  0  0  0  0  0  0  0  0  0  0  0
  193.9060  173.1210  140.1850 C   0  0  0  0  0  0  0  0  0  0  0  0
  190.7210  170.4880  136.1410 N   0  0  0  0  0  2  0  0  0  0  0  0
  192.6160  171.1360  137.5180 C   0  0  0  0  0  2  0  0  0  0  0  0
  189.5770  171.2740  135.7050 C   0  0  0  0  0  2  0  0  0  0  0  0
  191.2600  172.8290  136.3910 C   0  0  2  0  0  3  0  0  0  0  0  0
  191.8310  171.4240  136.2510 C   0  0  2  0  0  3  0  0  0  0  0  0
  192.4000  172.2680  138.3970 N   0  0  0  0  0  0  0  0  0  0  0  0
  191.5750  173.2990  137.7990 C   0  0  0  0  0  2  0  0  0  0  0  0
  189.2990  173.5960  135.2910 O   0  0  0  0  0  1  0  0  0  0  0  0
  189.7700  172.6760  136.2270 C   0  0  1  0  0  3  0  0  0  0  0  0
  193.2390  170.0000  143.5040 C   0  0  0  0  0  2  0  0  0  0  0  0
  193.9570  169.7310  144.7530 C   0  0  0  0  0  0  0  0  0  0  0  0
  195.3050  169.2560  147.0060 C   0  0  0  0  0  1  0  0  0  0  0  0
  194.5620  169.5150  145.7730 C   0  0  0  0  0  0  0  0  0  0  0  0
  1 18  1  1  0  0  0
  2  5  1  0  0  0  0
  3  2  1  6  0  0  0
  3  4  1  0  0  0  0
  4  1  1  0  0  0  0
  5  7  1  1  0  0  0
  5  6  1  0  0  0  0
  6 30  1  6  0  0  0
  6  1  1  0  0  0  0
  8 10  1  0  0  0  0
  9 12  1  0  0  0  0
  9  8  1  0  0  0  0
 10 13  1  0  0  0  0
 10 14  1  0  0  0  0
 11 12  1  6  0  0  0
 11  3  1  0  0  0  0
 11 13  1  0  0  0  0
 16 15  1  0  0  0  0
 17 14  1  6  0  0  0
 17 16  1  0  0  0  0
 17 15  1  0  0  0  0
 18 22  1  1  0  0  0
 18 19  1  0  0  0  0
 19 20  1  0  0  0  0
 21 20  1  0  0  0  0
 23 24  1  0  0  0  0
 23 22  1  0  0  0  0
 24 25  1  0  0  0  0
 28 29  1  0  0  0  0
 29 27  1  0  0  0  0
 29 25  1  0  0  0  0
 29 26  1  0  0  0  0
 30 31  1  0  0  0  0
 32 49  1  6  0  0  0
 32 31  1  0  0  0  0
 33 32  1  0  0  0  0
 34 39  2  0  0  0  0
 34 38  1  0  0  0  0
 35 38  2  0  0  0  0
 36 33  1  0  0  0  0
 37 39  1  0  0  0  0
 38 33  1  0  0  0  0
 39 36  1  0  0  0  0
 40 44  1  0  0  0  0
 41 45  1  0  0  0  0
 42 40  1  0  0  0  0
 42 48  1  0  0  0  0
 43 46  1  1  0  0  0
 44 43  1  0  0  0  0
 44 41  1  1  0  0  0
 45 34  1  0  0  0  0
 46 45  1  0  0  0  0
 48 47  1  6  0  0  0
 48 43  1  0  0  0  0
 49 50  1  0  0  0  0
 50 52  3  0  0  0  0
 52 51  1  0  0  0  0
M  END
>  <MODEL>
5

>  <REMARK>
 VINA RESULT:      -6.3      3.677      7.706
  Name = 
  18 active torsions:
  status: ('A' for Active; 'I' for Inactive)
    1  A    between atoms: C_5  and  C_16
    2  A    between atoms: C_8  and  C_27
    3  A    between atoms: N_9  and  C_41
    4  A    between atoms: C_11  and  C_32
    5  A    between atoms: C_11  and  C_42
    6  A    between atoms: C_12  and  S_15
    7  A    between atoms: C_12  and  C_40
    8  A    between atoms: O_13  and  O_18
    9  A    between atoms: C_14  and  C_16
   10  A    between atoms: C_14  and  C_43
   11  A    between atoms: S_15  and  C_49
   12  A    between atoms: C_16  and  O_18
   13  A    between atoms: N_19  and  C_49
   14  A    between atoms: N_21  and  C_30
   15  A    between atoms: N_24  and  C_26
   16  A    between atoms: C_27  and  C_49
   17  A    between atoms: C_41  and  C_52
   18  A    between atoms: C_42  and  C_43
                            x       y       z     vdW  Elec       q    Type
                         _______ _______ _______ _____ _____    ______ ____

>  <TORSDO>
F 18

$$$$
=
 OpenBabel11042420003D

 52 57  0  0  1  0  0  0  0  0999 V2000
  190.8970  175.5600  145.1010 C   0  0  2  0  0  3  0  0  0  0  0  0
  192.4930  175.6380  142.7410 C   0  0  0  0  0  2  0  0  0  0  0  0
  192.1030  174.4040  143.5700 C   0  0  2  0  0  3  0  0  0  0  0  0
  192.0390  174.7530  144.9290 O   0  0  0  0  0  0  0  0  0  0  0  0
  191.4220  176.7070  142.9140 C   0  0  1  0  0  3  0  0  0  0  0  0
  191.0660  176.9190  144.3930 C   0  0  1  0  0  3  0  0  0  0  0  0
  191.8720  177.9010  142.3480 O   0  0  0  0  0  1  0  0  0  0  0  0
  195.5960  172.1770  142.9330 C   0  0  0  0  0  2  0  0  0  0  0  0
  194.5520  172.1650  141.8210 C   0  0  0  0  0  2  0  0  0  0  0  0
  194.9400  172.1220  144.2380 N   0  0  0  0  0  0  0  0  0  0  0  0
  193.0160  173.2680  143.3860 N   0  0  1  0  0  0  0  0  0  0  0  0
  193.5890  173.3280  142.0380 C   0  0  0  0  0  2  0  0  0  0  0  0
  194.1040  173.3110  144.3730 C   0  0  0  0  0  2  0  0  0  0  0  0
  195.9790  172.2270  145.2490 C   0  0  0  0  0  2  0  0  0  0  0  0
  197.3350  173.7930  146.5200 C   0  0  0  0  0  2  0  0  0  0  0  0
  197.4590  174.1580  145.1000 N   0  0  0  0  0  2  0  0  0  0  0  0
  196.1780  173.6800  145.6400 C   0  0  1  0  0  3  0  0  0  0  0  0
  190.6190  175.7570  146.5940 C   0  0  2  0  0  3  0  0  0  0  0  0
  191.7850  175.5740  147.3490 O   0  0  0  0  0  0  0  0  0  0  0  0
  191.4400  175.8540  148.5880 O   0  0  0  0  0  0  0  0  0  0  0  0
  191.5660  177.1620  148.6800 O   0  0  0  0  0  1  0  0  0  0  0  0
  189.5490  174.7820  147.0530 C   0  0  0  0  0  2  0  0  0  0  0  0
  188.1760  175.4300  146.9920 C   0  0  0  0  0  2  0  0  0  0  0  0
  188.2710  176.9220  147.2640 C   0  0  0  0  0  2  0  0  0  0  0  0
  186.9950  177.6250  146.8220 C   0  0  0  0  0  2  0  0  0  0  0  0
  185.5930  177.6250  148.7580 F   0  0  0  0  0  0  0  0  0  0  0  0
  187.3500  179.0430  148.7050 F   0  0  0  0  0  0  0  0  0  0  0  0
  185.5590  179.4140  147.3950 F   0  0  0  0  0  0  0  0  0  0  0  0
  186.3640  178.4370  147.9480 C   0  0  0  0  0  0  0  0  0  0  0  0
  189.7610  177.7090  144.4880 C   0  0  0  0  0  2  0  0  0  0  0  0
  188.8750  177.6990  142.9000 S   0  0  0  0  0  0  0  0  0  0  0  0
  187.8520  176.2730  143.3910 C   0  0  2  0  0  3  0  0  0  0  0  0
  188.3510  175.0480  142.7820 N   0  0  0  0  0  0  0  0  0  0  0  0
  189.0950  173.4530  141.2330 C   0  0  0  0  0  0  0  0  0  0  0  0
  188.3490  175.6280  140.4880 O   0  0  0  0  0  0  0  0  0  0  0  0
  188.7290  173.8540  143.5240 C   0  0  0  0  0  2  0  0  0  0  0  0
  189.6970  171.5380  142.7620 C   0  0  0  0  0  1  0  0  0  0  0  0
  188.5770  174.7960  141.4050 C   0  0  0  0  0  0  0  0  0  0  0  0
  189.1870  172.9030  142.4500 C   0  0  0  0  0  0  0  0  0  0  0  0
  189.2850  172.9750  136.6540 N   0  0  0  0  0  2  0  0  0  0  0  0
  188.5000  172.5520  138.9150 C   0  0  0  0  0  2  0  0  0  0  0  0
  190.6440  173.0340  136.1380 C   0  0  0  0  0  2  0  0  0  0  0  0
  190.7530  171.8930  138.2370 C   0  0  2  0  0  3  0  0  0  0  0  0
  189.3160  172.0180  137.7520 C   0  0  2  0  0  3  0  0  0  0  0  0
  189.4450  172.8420  139.9760 N   0  0  0  0  0  0  0  0  0  0  0  0
  190.8090  172.5010  139.6270 C   0  0  0  0  0  2  0  0  0  0  0  0
  192.6600  171.9820  136.8220 O   0  0  0  0  0  1  0  0  0  0  0  0
  191.5740  172.7240  137.2850 C   0  0  1  0  0  3  0  0  0  0  0  0
  186.3890  176.5000  143.0450 C   0  0  0  0  0  2  0  0  0  0  0  0
  185.9810  177.8380  143.4820 C   0  0  0  0  0  0  0  0  0  0  0  0
  185.1920  180.2640  144.2620 C   0  0  0  0  0  1  0  0  0  0  0  0
  185.6290  178.9350  143.8360 C   0  0  0  0  0  0  0  0  0  0  0  0
  1 18  1  1  0  0  0
  2  5  1  0  0  0  0
  3  2  1  6  0  0  0
  3  4  1  0  0  0  0
  4  1  1  0  0  0  0
  5  7  1  1  0  0  0
  5  6  1  0  0  0  0
  6 30  1  6  0  0  0
  6  1  1  0  0  0  0
  8 10  1  0  0  0  0
  9 12  1  0  0  0  0
  9  8  1  0  0  0  0
 10 13  1  0  0  0  0
 10 14  1  0  0  0  0
 11 12  1  6  0  0  0
 11  3  1  0  0  0  0
 11 13  1  0  0  0  0
 16 17  1  0  0  0  0
 16 15  1  0  0  0  0
 17 14  1  6  0  0  0
 17 15  1  0  0  0  0
 18 22  1  1  0  0  0
 18 19  1  0  0  0  0
 19 20  1  0  0  0  0
 20 21  1  0  0  0  0
 23 22  1  0  0  0  0
 23 24  1  0  0  0  0
 25 24  1  0  0  0  0
 25 29  1  0  0  0  0
 28 29  1  0  0  0  0
 29 27  1  0  0  0  0
 29 26  1  0  0  0  0
 31 32  1  0  0  0  0
 31 30  1  0  0  0  0
 32 49  1  6  0  0  0
 33 32  1  0  0  0  0
 33 36  1  0  0  0  0
 34 38  1  0  0  0  0
 34 39  2  0  0  0  0
 35 38  2  0  0  0  0
 38 33  1  0  0  0  0
 39 37  1  0  0  0  0
 39 36  1  0  0  0  0
 40 44  1  0  0  0  0
 41 45  1  0  0  0  0
 42 40  1  0  0  0  0
 42 48  1  0  0  0  0
 43 46  1  1  0  0  0
 44 43  1  0  0  0  0
 44 41  1  1  0  0  0
 45 34  1  0  0  0  0
 46 45  1  0  0  0  0
 48 47  1  6  0  0  0
 48 43  1  0  0  0  0
 49 50  1  0  0  0  0
 50 52  3  0  0  0  0
 52 51  1  0  0  0  0
M  END
>  <MODEL>
6

>  <REMARK>
 VINA RESULT:      -6.3      1.902      2.434
  Name = 
  18 active torsions:
  status: ('A' for Active; 'I' for Inactive)
    1  A    between atoms: C_5  and  C_16
    2  A    between atoms: C_8  and  C_27
    3  A    between atoms: N_9  and  C_41
    4  A    between atoms: C_11  and  C_32
    5  A    between atoms: C_11  and  C_42
    6  A    between atoms: C_12  and  S_15
    7  A    between atoms: C_12  and  C_40
    8  A    between atoms: O_13  and  O_18
    9  A    between atoms: C_14  and  C_16
   10  A    between atoms: C_14  and  C_43
   11  A    between atoms: S_15  and  C_49
   12  A    between atoms: C_16  and  O_18
   13  A    between atoms: N_19  and  C_49
   14  A    between atoms: N_21  and  C_30
   15  A    between atoms: N_24  and  C_26
   16  A    between atoms: C_27  and  C_49
   17  A    between atoms: C_41  and  C_52
   18  A    between atoms: C_42  and  C_43
                            x       y       z     vdW  Elec       q    Type
                         _______ _______ _______ _____ _____    ______ ____

>  <TORSDO>
F 18

$$$$
=
 OpenBabel11042420003D

 52 57  0  0  1  0  0  0  0  0999 V2000
  189.8400  175.2050  143.9960 C   0  0  2  0  0  3  0  0  0  0  0  0
  188.4630  174.6740  141.5580 C   0  0  0  0  0  2  0  0  0  0  0  0
  188.8080  176.0450  142.1610 C   0  0  2  0  0  3  0  0  0  0  0  0
  188.7400  175.9720  143.5620 O   0  0  0  0  0  0  0  0  0  0  0  0
  189.4850  173.6510  142.0370 C   0  0  1  0  0  3  0  0  0  0  0  0
  189.7000  173.7340  143.5560 C   0  0  1  0  0  3  0  0  0  0  0  0
  189.0560  172.3730  141.6770 O   0  0  0  0  0  1  0  0  0  0  0  0
  185.4010  178.3210  141.2810 C   0  0  0  0  0  2  0  0  0  0  0  0
  186.1510  177.7080  140.1020 C   0  0  0  0  0  2  0  0  0  0  0  0
  186.3510  178.8100  142.2790 N   0  0  0  0  0  0  0  0  0  0  0  0
  187.9460  177.1290  141.6720 N   0  0  1  0  0  0  0  0  0  0  0  0
  187.0680  176.6050  140.6220 C   0  0  0  0  0  2  0  0  0  0  0  0
  187.1230  177.6690  142.7630 C   0  0  0  0  0  2  0  0  0  0  0  0
  185.5760  179.2970  143.4090 C   0  0  0  0  0  2  0  0  0  0  0  0
  185.6230  179.0210  145.8230 C   0  0  0  0  0  2  0  0  0  0  0  0
  184.4010  178.3660  145.3310 N   0  0  0  0  0  2  0  0  0  0  0  0
  185.6480  178.3030  144.5540 C   0  0  1  0  0  3  0  0  0  0  0  0
  189.9760  175.3060  145.5180 C   0  0  2  0  0  3  0  0  0  0  0  0
  188.7500  175.0570  146.1480 O   0  0  0  0  0  0  0  0  0  0  0  0
  188.6380  175.9950  147.0650 O   0  0  0  0  0  0  0  0  0  0  0  0
  187.3410  176.1270  147.2500 O   0  0  0  0  0  1  0  0  0  0  0  0
  190.4830  176.6860  145.9010 C   0  0  0  0  0  2  0  0  0  0  0  0
  191.9910  176.7650  145.7330 C   0  0  0  0  0  2  0  0  0  0  0  0
  192.6910  176.6100  147.0730 C   0  0  0  0  0  2  0  0  0  0  0  0
  194.1990  176.5300  146.8780 C   0  0  0  0  0  2  0  0  0  0  0  0
  193.6740  174.3020  146.1900 F   0  0  0  0  0  0  0  0  0  0  0  0
  194.7400  175.6540  144.7280 F   0  0  0  0  0  0  0  0  0  0  0  0
  195.8280  174.8530  146.5270 F   0  0  0  0  0  0  0  0  0  0  0  0
  194.6110  175.3100  146.0610 C   0  0  0  0  0  0  0  0  0  0  0  0
  190.9690  172.9680  143.9270 C   0  0  0  0  0  2  0  0  0  0  0  0
  192.4400  173.7520  143.2010 S   0  0  0  0  0  0  0  0  0  0  0  0
  193.4030  172.2070  143.2870 C   0  0  2  0  0  3  0  0  0  0  0  0
  193.0660  171.3270  142.1770 N   0  0  0  0  0  0  0  0  0  0  0  0
  192.8300  170.4100  140.0330 C   0  0  0  0  0  0  0  0  0  0  0  0
  193.8570  172.5770  140.3300 O   0  0  0  0  0  0  0  0  0  0  0  0
  192.4200  170.0310  142.3190 C   0  0  0  0  0  2  0  0  0  0  0  0
  191.7290  168.2040  140.5690 C   0  0  0  0  0  1  0  0  0  0  0  0
  193.3090  171.5440  140.7970 C   0  0  0  0  0  0  0  0  0  0  0  0
  192.3160  169.5320  140.9030 C   0  0  0  0  0  0  0  0  0  0  0  0
  193.0980  168.2110  135.9920 N   0  0  0  0  0  2  0  0  0  0  0  0
  193.9000  169.4770  137.9060 C   0  0  0  0  0  2  0  0  0  0  0  0
  191.9350  168.4380  135.1500 C   0  0  0  0  0  2  0  0  0  0  0  0
  192.3630  170.4910  136.2990 C   0  0  2  0  0  3  0  0  0  0  0  0
  193.5350  169.5290  136.4330 C   0  0  2  0  0  3  0  0  0  0  0  0
  192.9040  170.2690  138.6000 N   0  0  0  0  0  0  0  0  0  0  0  0
  191.9400  170.8770  137.7050 C   0  0  0  0  0  2  0  0  0  0  0  0
  190.7530  170.4100  134.5540 O   0  0  0  0  0  1  0  0  0  0  0  0
  191.2640  169.6980  135.6380 C   0  0  1  0  0  3  0  0  0  0  0  0
  193.2000  171.5070  144.6210 C   0  0  0  0  0  2  0  0  0  0  0  0
  194.5030  171.2090  145.2250 C   0  0  0  0  0  0  0  0  0  0  0  0
  196.8850  170.6410  146.2820 C   0  0  0  0  0  1  0  0  0  0  0  0
  195.5780  170.9540  145.7060 C   0  0  0  0  0  0  0  0  0  0  0  0
  1 18  1  1  0  0  0
  2  5  1  0  0  0  0
  3  2  1  6  0  0  0
  3  4  1  0  0  0  0
  4  1  1  0  0  0  0
  5  7  1  1  0  0  0
  5  6  1  0  0  0  0
  6 30  1  6  0  0  0
  6  1  1  0  0  0  0
  8 10  1  0  0  0  0
  9 12  1  0  0  0  0
  9  8  1  0  0  0  0
 10 13  1  0  0  0  0
 10 14  1  0  0  0  0
 11 12  1  6  0  0  0
 11  3  1  0  0  0  0
 11 13  1  0  0  0  0
 16 15  1  0  0  0  0
 17 14  1  6  0  0  0
 17 16  1  0  0  0  0
 17 15  1  0  0  0  0
 18 22  1  6  0  0  0
 18 19  1  0  0  0  0
 19 20  1  0  0  0  0
 20 21  1  0  0  0  0
 23 22  1  0  0  0  0
 23 24  1  0  0  0  0
 25 24  1  0  0  0  0
 27 29  1  0  0  0  0
 29 26  1  0  0  0  0
 29 28  1  0  0  0  0
 29 25  1  0  0  0  0
 31 32  1  0  0  0  0
 31 30  1  0  0  0  0
 32 49  1  1  0  0  0
 33 36  1  0  0  0  0
 33 32  1  0  0  0  0
 34 38  1  0  0  0  0
 34 39  2  0  0  0  0
 35 38  2  0  0  0  0
 37 39  1  0  0  0  0
 38 33  1  0  0  0  0
 39 36  1  0  0  0  0
 40 44  1  0  0  0  0
 41 45  1  0  0  0  0
 42 48  1  0  0  0  0
 42 40  1  0  0  0  0
 43 44  1  0  0  0  0
 43 46  1  1  0  0  0
 44 41  1  1  0  0  0
 45 34  1  0  0  0  0
 46 45  1  0  0  0  0
 48 47  1  6  0  0  0
 48 43  1  0  0  0  0
 49 50  1  0  0  0  0
 50 52  3  0  0  0  0
 52 51  1  0  0  0  0
M  END
>  <MODEL>
7

>  <REMARK>
 VINA RESULT:      -6.1      3.541      7.521
  Name = 
  18 active torsions:
  status: ('A' for Active; 'I' for Inactive)
    1  A    between atoms: C_5  and  C_16
    2  A    between atoms: C_8  and  C_27
    3  A    between atoms: N_9  and  C_41
    4  A    between atoms: C_11  and  C_32
    5  A    between atoms: C_11  and  C_42
    6  A    between atoms: C_12  and  S_15
    7  A    between atoms: C_12  and  C_40
    8  A    between atoms: O_13  and  O_18
    9  A    between atoms: C_14  and  C_16
   10  A    between atoms: C_14  and  C_43
   11  A    between atoms: S_15  and  C_49
   12  A    between atoms: C_16  and  O_18
   13  A    between atoms: N_19  and  C_49
   14  A    between atoms: N_21  and  C_30
   15  A    between atoms: N_24  and  C_26
   16  A    between atoms: C_27  and  C_49
   17  A    between atoms: C_41  and  C_52
   18  A    between atoms: C_42  and  C_43
                            x       y       z     vdW  Elec       q    Type
                         _______ _______ _______ _____ _____    ______ ____

>  <TORSDO>
F 18

$$$$
=
 OpenBabel11042420003D

 52 57  0  0  1  0  0  0  0  0999 V2000
  195.2620  173.4710  141.4590 C   0  0  2  0  0  3  0  0  0  0  0  0
  195.4890  175.3650  139.3420 C   0  0  0  0  0  2  0  0  0  0  0  0
  194.2440  174.5630  139.7540 C   0  0  2  0  0  3  0  0  0  0  0  0
  194.6340  173.2930  140.2110 O   0  0  0  0  0  0  0  0  0  0  0  0
  196.3860  175.5450  140.5580 C   0  0  1  0  0  3  0  0  0  0  0  0
  196.6010  174.2200  141.3060 C   0  0  1  0  0  3  0  0  0  0  0  0
  197.6110  176.0740  140.1490 O   0  0  0  0  0  1  0  0  0  0  0  0
  191.9050  172.9120  136.6940 C   0  0  0  0  0  2  0  0  0  0  0  0
  192.9480  173.9500  136.2890 C   0  0  0  0  0  2  0  0  0  0  0  0
  191.2680  173.3050  137.9490 N   0  0  0  0  0  0  0  0  0  0  0  0
  193.2560  174.4270  138.6760 N   0  0  1  0  0  0  0  0  0  0  0  0
  193.9520  174.1080  137.4270 C   0  0  0  0  0  2  0  0  0  0  0  0
  192.2990  173.3550  138.9810 C   0  0  0  0  0  2  0  0  0  0  0  0
  190.3550  172.2370  138.3230 C   0  0  0  0  0  2  0  0  0  0  0  0
  190.5830  170.4570  139.9610 C   0  0  0  0  0  2  0  0  0  0  0  0
  190.2610  169.8260  138.6710 N   0  0  0  0  0  2  0  0  0  0  0  0
  191.1400  171.0040  138.7290 C   0  0  1  0  0  3  0  0  0  0  0  0
  195.4740  172.1120  142.1330 C   0  0  2  0  0  3  0  0  0  0  0  0
  196.4410  171.3610  141.4530 O   0  0  0  0  0  0  0  0  0  0  0  0
  197.2770  170.9520  142.3830 O   0  0  0  0  0  0  0  0  0  0  0  0
  197.2030  169.6380  142.3440 O   0  0  0  0  0  1  0  0  0  0  0  0
  194.1630  171.3470  142.1770 C   0  0  0  0  0  2  0  0  0  0  0  0
  193.8850  170.8460  143.5850 C   0  0  0  0  0  2  0  0  0  0  0  0
  192.7990  171.6770  144.2490 C   0  0  0  0  0  2  0  0  0  0  0  0
  191.4220  171.1700  143.8440 C   0  0  0  0  0  2  0  0  0  0  0  0
  190.8020  173.2630  142.8690 F   0  0  0  0  0  0  0  0  0  0  0  0
  189.1670  171.7880  143.3750 F   0  0  0  0  0  0  0  0  0  0  0  0
  190.2650  172.8660  145.0170 F   0  0  0  0  0  0  0  0  0  0  0  0
  190.3940  172.2940  143.7670 C   0  0  0  0  0  0  0  0  0  0  0  0
  197.1840  174.5110  142.6880 C   0  0  0  0  0  2  0  0  0  0  0  0
  196.2970  175.8770  143.4970 S   0  0  0  0  0  0  0  0  0  0  0  0
  195.3930  174.7420  144.6000 C   0  0  2  0  0  3  0  0  0  0  0  0
  194.1280  175.3290  145.0190 N   0  0  0  0  0  0  0  0  0  0  0  0
  191.9570  176.2130  145.0240 C   0  0  0  0  0  0  0  0  0  0  0  0
  192.9900  175.5170  142.9520 O   0  0  0  0  0  0  0  0  0  0  0  0
  193.7860  175.6520  146.3960 C   0  0  0  0  0  2  0  0  0  0  0  0
  191.6200  176.6510  147.4850 C   0  0  0  0  0  1  0  0  0  0  0  0
  193.0210  175.6690  144.2020 C   0  0  0  0  0  0  0  0  0  0  0  0
  192.3900  176.2050  146.2910 C   0  0  0  0  0  0  0  0  0  0  0  0
  188.9500  178.1220  142.1010 N   0  0  0  0  0  2  0  0  0  0  0  0
  190.4180  177.9990  144.0340 C   0  0  0  0  0  2  0  0  0  0  0  0
  187.9390  177.1830  141.6410 C   0  0  0  0  0  2  0  0  0  0  0  0
  188.3830  176.6500  143.9300 C   0  0  2  0  0  3  0  0  0  0  0  0
  188.9790  177.9990  143.5520 C   0  0  2  0  0  3  0  0  0  0  0  0
  190.6760  176.6680  144.5470 N   0  0  0  0  0  0  0  0  0  0  0  0
  189.5140  175.8040  144.4870 C   0  0  0  0  0  2  0  0  0  0  0  0
  186.5740  175.6160  142.7890 O   0  0  0  0  0  1  0  0  0  0  0  0
  187.8900  176.0520  142.6370 C   0  0  1  0  0  3  0  0  0  0  0  0
  196.2400  174.3510  145.8000 C   0  0  0  0  0  2  0  0  0  0  0  0
  196.4760  172.9040  145.7870 C   0  0  0  0  0  0  0  0  0  0  0  0
  196.9370  170.2770  145.7250 C   0  0  0  0  0  1  0  0  0  0  0  0
  196.6820  171.7170  145.7620 C   0  0  0  0  0  0  0  0  0  0  0  0
  1 18  1  6  0  0  0
  2  5  1  0  0  0  0
  3  2  1  6  0  0  0
  3  4  1  0  0  0  0
  4  1  1  0  0  0  0
  5  7  1  6  0  0  0
  5  6  1  0  0  0  0
  6  1  1  0  0  0  0
  6 30  1  1  0  0  0
  8 10  1  0  0  0  0
  9  8  1  0  0  0  0
  9 12  1  0  0  0  0
 10 14  1  0  0  0  0
 10 13  1  0  0  0  0
 11 12  1  6  0  0  0
 11 13  1  0  0  0  0
 11  3  1  0  0  0  0
 16 17  1  0  0  0  0
 16 15  1  0  0  0  0
 17 14  1  6  0  0  0
 17 15  1  0  0  0  0
 18 22  1  6  0  0  0
 19 18  1  0  0  0  0
 19 20  1  0  0  0  0
 21 20  1  0  0  0  0
 22 23  1  0  0  0  0
 23 24  1  0  0  0  0
 25 24  1  0  0  0  0
 26 29  1  0  0  0  0
 27 29  1  0  0  0  0
 29 25  1  0  0  0  0
 29 28  1  0  0  0  0
 30 31  1  0  0  0  0
 31 32  1  0  0  0  0
 32 33  1  0  0  0  0
 32 49  1  1  0  0  0
 33 36  1  0  0  0  0
 34 39  2  0  0  0  0
 35 38  2  0  0  0  0
 38 33  1  0  0  0  0
 38 34  1  0  0  0  0
 39 36  1  0  0  0  0
 39 37  1  0  0  0  0
 40 44  1  0  0  0  0
 41 45  1  0  0  0  0
 42 40  1  0  0  0  0
 42 48  1  0  0  0  0
 43 46  1  6  0  0  0
 44 43  1  0  0  0  0
 44 41  1  6  0  0  0
 45 34  1  0  0  0  0
 46 45  1  0  0  0  0
 48 47  1  1  0  0  0
 48 43  1  0  0  0  0
 50 49  1  0  0  0  0
 51 52  1  0  0  0  0
 52 50  3  0  0  0  0
M  END
>  <MODEL>
8

>  <REMARK>
 VINA RESULT:      -6.1      3.797      8.482
  Name = 
  18 active torsions:
  status: ('A' for Active; 'I' for Inactive)
    1  A    between atoms: C_5  and  C_16
    2  A    between atoms: C_8  and  C_27
    3  A    between atoms: N_9  and  C_41
    4  A    between atoms: C_11  and  C_32
    5  A    between atoms: C_11  and  C_42
    6  A    between atoms: C_12  and  S_15
    7  A    between atoms: C_12  and  C_40
    8  A    between atoms: O_13  and  O_18
    9  A    between atoms: C_14  and  C_16
   10  A    between atoms: C_14  and  C_43
   11  A    between atoms: S_15  and  C_49
   12  A    between atoms: C_16  and  O_18
   13  A    between atoms: N_19  and  C_49
   14  A    between atoms: N_21  and  C_30
   15  A    between atoms: N_24  and  C_26
   16  A    between atoms: C_27  and  C_49
   17  A    between atoms: C_41  and  C_52
   18  A    between atoms: C_42  and  C_43
                            x       y       z     vdW  Elec       q    Type
                         _______ _______ _______ _____ _____    ______ ____

>  <TORSDO>
F 18

$$$$
=
 OpenBabel11042420003D

 52 57  0  0  1  0  0  0  0  0999 V2000
  190.6970  175.0680  143.8500 C   0  0  2  0  0  3  0  0  0  0  0  0
  188.2810  174.4770  142.4590 C   0  0  0  0  0  2  0  0  0  0  0  0
  189.0380  175.8140  142.4980 C   0  0  2  0  0  3  0  0  0  0  0  0
  189.6280  175.9820  143.7620 O   0  0  0  0  0  0  0  0  0  0  0  0
  189.2710  173.3420  142.6830 C   0  0  1  0  0  3  0  0  0  0  0  0
  190.1840  173.6140  143.8880 C   0  0  1  0  0  3  0  0  0  0  0  0
  188.5670  172.1510  142.8670 O   0  0  0  0  0  1  0  0  0  0  0  0
  185.6810  178.2940  142.1160 C   0  0  0  0  0  2  0  0  0  0  0  0
  186.3040  177.7630  140.8280 C   0  0  0  0  0  2  0  0  0  0  0  0
  186.7300  178.6510  143.0690 N   0  0  0  0  0  0  0  0  0  0  0  0
  188.1910  176.9710  142.1820 N   0  0  1  0  0  0  0  0  0  0  0  0
  187.2070  176.5810  141.1690 C   0  0  0  0  0  2  0  0  0  0  0  0
  187.4850  177.4410  143.3830 C   0  0  0  0  0  2  0  0  0  0  0  0
  186.0730  179.0620  144.2990 C   0  0  0  0  0  2  0  0  0  0  0  0
  185.0250  177.8440  146.1210 C   0  0  0  0  0  2  0  0  0  0  0  0
  183.9950  178.7090  145.5240 N   0  0  0  0  0  2  0  0  0  0  0  0
  185.0050  178.0530  144.6780 C   0  0  1  0  0  3  0  0  0  0  0  0
  191.5440  175.3770  145.0880 C   0  0  2  0  0  3  0  0  0  0  0  0
  190.8890  174.9710  146.2580 O   0  0  0  0  0  0  0  0  0  0  0  0
  190.4780  176.0850  146.8260 O   0  0  0  0  0  0  0  0  0  0  0  0
  189.1890  175.9020  147.0250 O   0  0  0  0  0  1  0  0  0  0  0  0
  191.8410  176.8650  145.1530 C   0  0  0  0  0  2  0  0  0  0  0  0
  193.3400  177.1110  145.1050 C   0  0  0  0  0  2  0  0  0  0  0  0
  194.0760  175.8690  144.6300 C   0  0  0  0  0  2  0  0  0  0  0  0
  194.4660  176.0120  143.1650 C   0  0  0  0  0  2  0  0  0  0  0  0
  196.2990  177.1280  142.1110 F   0  0  0  0  0  0  0  0  0  0  0  0
  196.5960  176.3080  144.1950 F   0  0  0  0  0  0  0  0  0  0  0  0
  196.4280  174.9070  142.4430 F   0  0  0  0  0  0  0  0  0  0  0  0
  195.9770  176.0980  142.9760 C   0  0  0  0  0  0  0  0  0  0  0  0
  191.3710  172.6530  143.8480 C   0  0  0  0  0  2  0  0  0  0  0  0
  191.9250  172.3710  142.1400 S   0  0  0  0  0  0  0  0  0  0  0  0
  193.6800  172.5600  142.5950 C   0  0  2  0  0  3  0  0  0  0  0  0
  194.5400  172.2970  141.4490 N   0  0  0  0  0  0  0  0  0  0  0  0
  195.6380  172.4560  139.3840 C   0  0  0  0  0  0  0  0  0  0  0  0
  193.9810  174.0980  140.0190 O   0  0  0  0  0  0  0  0  0  0  0  0
  195.4680  171.1800  141.3550 C   0  0  0  0  0  2  0  0  0  0  0  0
  197.1690  170.4540  139.4960 C   0  0  0  0  0  1  0  0  0  0  0  0
  194.6520  173.0590  140.2590 C   0  0  0  0  0  0  0  0  0  0  0  0
  196.1140  171.3720  140.0100 C   0  0  0  0  0  0  0  0  0  0  0  0
  195.0450  174.0570  135.1040 N   0  0  0  0  0  2  0  0  0  0  0  0
  195.5350  172.4170  136.8300 C   0  0  0  0  0  2  0  0  0  0  0  0
  195.5600  175.4060  134.9320 C   0  0  0  0  0  2  0  0  0  0  0  0
  197.0600  174.2810  136.4170 C   0  0  2  0  0  3  0  0  0  0  0  0
  196.1150  173.2980  135.7390 C   0  0  2  0  0  3  0  0  0  0  0  0
  196.0240  172.9490  138.0860 N   0  0  0  0  0  0  0  0  0  0  0  0
  196.9130  174.0800  137.9140 C   0  0  0  0  0  2  0  0  0  0  0  0
  197.6140  176.4230  135.5530 O   0  0  0  0  0  1  0  0  0  0  0  0
  196.5590  175.6500  136.0360 C   0  0  1  0  0  3  0  0  0  0  0  0
  194.0430  171.6660  143.7690 C   0  0  0  0  0  2  0  0  0  0  0  0
  195.0320  172.3400  144.6150 C   0  0  0  0  0  0  0  0  0  0  0  0
  196.8640  173.5690  146.1160 C   0  0  0  0  0  1  0  0  0  0  0  0
  195.8570  172.8950  145.2970 C   0  0  0  0  0  0  0  0  0  0  0  0
  1  6  1  0  0  0  0
  1 18  1  1  0  0  0
  2  5  1  0  0  0  0
  3  2  1  1  0  0  0
  3  4  1  0  0  0  0
  4  1  1  0  0  0  0
  5  7  1  1  0  0  0
  5  6  1  0  0  0  0
  6 30  1  6  0  0  0
  8 10  1  0  0  0  0
  9 12  1  0  0  0  0
  9  8  1  0  0  0  0
 10 13  1  0  0  0  0
 10 14  1  0  0  0  0
 11 12  1  6  0  0  0
 11  3  1  0  0  0  0
 11 13  1  0  0  0  0
 16 15  1  0  0  0  0
 17 14  1  1  0  0  0
 17 16  1  0  0  0  0
 17 15  1  0  0  0  0
 18 22  1  1  0  0  0
 18 19  1  0  0  0  0
 19 20  1  0  0  0  0
 20 21  1  0  0  0  0
 23 22  1  0  0  0  0
 24 23  1  0  0  0  0
 25 24  1  0  0  0  0
 26 29  1  0  0  0  0
 28 29  1  0  0  0  0
 29 25  1  0  0  0  0
 29 27  1  0  0  0  0
 31 32  1  0  0  0  0
 31 30  1  0  0  0  0
 32 49  1  1  0  0  0
 33 32  1  0  0  0  0
 34 39  2  0  0  0  0
 34 38  1  0  0  0  0
 35 38  2  0  0  0  0
 36 33  1  0  0  0  0
 37 39  1  0  0  0  0
 38 33  1  0  0  0  0
 39 36  1  0  0  0  0
 40 44  1  0  0  0  0
 41 45  1  0  0  0  0
 42 40  1  0  0  0  0
 42 48  1  0  0  0  0
 43 46  1  1  0  0  0
 44 43  1  0  0  0  0
 44 41  1  1  0  0  0
 45 34  1  0  0  0  0
 46 45  1  0  0  0  0
 48 47  1  6  0  0  0
 48 43  1  0  0  0  0
 49 50  1  0  0  0  0
 50 52  3  0  0  0  0
 52 51  1  0  0  0  0
M  END
>  <MODEL>
9

>  <REMARK>
 VINA RESULT:      -6.1      4.432      8.323
  Name = 
  18 active torsions:
  status: ('A' for Active; 'I' for Inactive)
    1  A    between atoms: C_5  and  C_16
    2  A    between atoms: C_8  and  C_27
    3  A    between atoms: N_9  and  C_41
    4  A    between atoms: C_11  and  C_32
    5  A    between atoms: C_11  and  C_42
    6  A    between atoms: C_12  and  S_15
    7  A    between atoms: C_12  and  C_40
    8  A    between atoms: O_13  and  O_18
    9  A    between atoms: C_14  and  C_16
   10  A    between atoms: C_14  and  C_43
   11  A    between atoms: S_15  and  C_49
   12  A    between atoms: C_16  and  O_18
   13  A    between atoms: N_19  and  C_49
   14  A    between atoms: N_21  and  C_30
   15  A    between atoms: N_24  and  C_26
   16  A    between atoms: C_27  and  C_49
   17  A    between atoms: C_41  and  C_52
   18  A    between atoms: C_42  and  C_43
                            x       y       z     vdW  Elec       q    Type
                         _______ _______ _______ _____ _____    ______ ____

>  <TORSDO>
F 18

$$$$
