=
 OpenBabel11042415303D

 47 51  0  0  1  0  0  0  0  0999 V2000
  190.6220  178.5640  144.5530 O   0  0  0  0  0  0  0  0  0  0  0  0
  188.2950  172.7170  139.0210 S   0  0  0  0  0  0  0  0  0  0  0  0
  189.6360  177.9680  142.5010 C   0  0  0  0  0  2  0  0  0  0  0  0
  194.8040  172.3550  141.3570 C   0  0  2  0  0  3  0  0  0  0  0  0
  194.8670  174.7840  140.9210 N   0  0  0  0  0  2  0  0  0  0  0  0
  192.3390  170.8920  137.1140 C   0  0  0  0  0  0  0  0  0  0  0  0
  189.9740  172.7030  136.7430 C   0  0  0  0  0  0  0  0  0  0  0  0
  190.2140  171.2020  140.5530 S   0  0  0  0  0  0  0  0  0  0  0  0
  194.3810  175.9050  141.5910 N   0  0  0  0  0  0  0  0  0  0  0  0
  188.2440  177.5580  142.8610 C   0  0  0  0  0  3  0  0  0  0  0  0
  188.4590  175.1940  142.1040 C   0  0  0  0  0  0  0  0  0  0  0  0
  187.7350  176.3300  142.7200 C   0  0  0  0  0  0  0  0  0  0  0  0
  193.1560  170.7820  140.5680 N   0  0  0  0  0  0  0  0  0  0  0  0
  192.6260  176.7550  142.9200 N   0  0  0  0  0  2  0  0  0  0  0  0
  194.0060  173.6180  141.0260 C   0  0  2  0  0  3  0  0  0  0  0  0
  189.3310  173.9790  136.3210 C   0  0  0  0  0  1  0  0  0  0  0  0
  193.1700  171.3490  139.2850 N   0  0  0  0  0  2  0  0  0  0  0  0
  190.6760  171.5140  138.8450 C   0  0  0  0  0  0  0  0  0  0  0  0
  193.9100  171.2090  141.5050 N   0  0  0  0  0  0  0  0  0  0  0  0
  193.6210  170.6600  136.7300 F   0  0  0  0  0  0  0  0  0  0  0  0
  192.0680  171.2230  138.3810 C   0  0  0  0  0  0  0  0  0  0  0  0
  187.9920  173.8560  142.3500 N   0  0  0  0  0  0  0  0  0  0  0  0
  193.3200  175.6870  142.2790 C   0  0  0  0  0  0  0  0  0  0  0  0
  189.2640  172.7430  140.5510 C   0  0  2  0  0  3  0  0  0  0  0  0
  190.6420  172.0340  135.8490 N   0  0  0  0  0  0  0  0  0  0  0  0
  188.3410  172.7690  141.7240 C   0  0  0  0  0  3  0  0  0  0  0  0
  191.2590  170.7400  136.0950 C   0  0  0  0  0  2  0  0  0  0  0  0
  192.7200  174.0030  142.2710 S   0  0  0  0  0  0  0  0  0  0  0  0
  191.4180  176.5250  143.6920 C   0  0  0  0  0  2  0  0  0  0  0  0
  189.4690  175.3970  141.3740 O   0  0  0  0  0  0  0  0  0  0  0  0
  189.7630  172.2000  138.1260 C   0  0  0  0  0  0  0  0  0  0  0  0
  190.5580  177.7420  143.6530 C   0  0  0  0  0  0  0  0  0  0  0  0
  186.3350  176.1060  143.2040 C   0  0  0  0  0  2  0  0  0  0  0  0
  185.9120  177.1990  144.1800 C   0  0  0  0  0  2  0  0  0  0  0  0
  185.7390  176.6410  145.5880 C   0  0  0  0  0  3  0  0  0  0  0  0
  187.0680  176.7280  146.3130 C   0  0  0  0  0  1  0  0  0  0  0  0
  184.7060  177.4680  146.3420 C   0  0  0  0  0  1  0  0  0  0  0  0
  195.6250  172.5290  142.6330 C   0  0  0  0  0  2  0  0  0  0  0  0
  195.1900  171.5310  143.6940 C   0  0  0  0  0  2  0  0  0  0  0  0
  194.9740  172.2390  145.0230 C   0  0  0  0  0  2  0  0  0  0  0  0
  195.4390  173.6920  144.9500 C   0  0  0  0  0  2  0  0  0  0  0  0
  192.3710  175.0140  146.7560 C   0  0  0  0  0  3  0  0  0  0  0  0
  194.8680  175.9500  145.8950 C   0  0  0  0  0  3  0  0  0  0  0  0
  194.4980  174.6220  145.6500 C   0  0  0  0  0  0  0  0  0  0  0  0
  192.7410  176.3390  147.0040 C   0  0  0  0  0  3  0  0  0  0  0  0
  193.9900  176.8080  146.5730 C   0  0  0  0  0  3  0  0  0  0  0  0
  193.2480  174.1570  146.0790 C   0  0  0  0  0  3  0  0  0  0  0  0
  2 24  1  0  0  0  0
  3 10  1  0  0  0  0
  3 32  1  0  0  0  0
  4 19  1  0  0  0  0
  4 38  1  1  0  0  0
  5  9  1  0  0  0  0
  6 21  2  0  0  0  0
  7 31  1  0  0  0  0
  9 23  2  0  0  0  0
 11 22  1  0  0  0  0
 11 12  1  0  0  0  0
 12 10  2  0  0  0  0
 12 33  1  0  0  0  0
 13 19  2  0  0  0  0
 14 29  1  0  0  0  0
 15  5  1  1  0  0  0
 15  4  1  0  0  0  0
 15 28  1  0  0  0  0
 16  7  1  0  0  0  0
 17 13  1  0  0  0  0
 18  8  1  0  0  0  0
 20  6  1  0  0  0  0
 21 18  1  0  0  0  0
 21 17  1  0  0  0  0
 23 14  1  0  0  0  0
 24  8  1  0  0  0  0
 24 26  1  1  0  0  0
 25 27  1  0  0  0  0
 25  7  2  0  0  0  0
 26 22  2  0  0  0  0
 27  6  1  0  0  0  0
 28 23  1  0  0  0  0
 30 11  2  0  0  0  0
 31 18  2  0  0  0  0
 31  2  1  0  0  0  0
 32 29  1  0  0  0  0
 32  1  2  0  0  0  0
 33 34  1  0  0  0  0
 34 35  1  0  0  0  0
 35 36  1  0  0  0  0
 35 37  1  0  0  0  0
 38 39  1  0  0  0  0
 39 40  1  0  0  0  0
 41 40  1  0  0  0  0
 41 44  1  0  0  0  0
 42 45  1  0  0  0  0
 43 46  1  0  0  0  0
 44 43  2  0  0  0  0
 44 47  1  0  0  0  0
 46 45  2  0  0  0  0
 47 42  2  0  0  0  0
M  END
>  <MODEL>
1

>  <REMARK>
 VINA RESULT:      -8.0      0.000      0.000
  Name = 
  8 active torsions:
  status: ('A' for Active; 'I' for Inactive)
    1  A    between atoms: C_3  and  C_6
    2  A    between atoms: C_3  and  C_25
    3  A    between atoms: C_5  and  C_40
    4  A    between atoms: C_10  and  C_33
    5  A    between atoms: C_10  and  C_40
    6  A    between atoms: C_19  and  C_25
    7  A    between atoms: C_23  and  C_46
    8  A    between atoms: C_33  and  C_46
                            x       y       z     vdW  Elec       q    Type
                         _______ _______ _______ _____ _____    ______ ____

>  <TORSDO>
F 8

$$$$
=
 OpenBabel11042415303D

 47 51  0  0  1  0  0  0  0  0999 V2000
  187.5730  173.8750  138.1080 O   0  0  0  0  0  0  0  0  0  0  0  0
  194.5300  171.9810  142.3770 S   0  0  0  0  0  0  0  0  0  0  0  0
  189.9200  173.7620  138.2460 C   0  0  0  0  0  2  0  0  0  0  0  0
  189.8390  175.8700  145.6670 C   0  0  2  0  0  3  0  0  0  0  0  0
  189.7650  177.1710  143.5710 N   0  0  0  0  0  2  0  0  0  0  0  0
  194.9070  175.2010  145.9560 C   0  0  0  0  0  0  0  0  0  0  0  0
  195.8810  174.3040  143.2620 C   0  0  0  0  0  0  0  0  0  0  0  0
  192.6480  172.1390  144.5580 S   0  0  0  0  0  0  0  0  0  0  0  0
  189.1610  176.9800  142.3280 N   0  0  0  0  0  0  0  0  0  0  0  0
  190.2430  172.3340  137.9400 C   0  0  0  0  0  3  0  0  0  0  0  0
  191.2590  171.8120  140.1540 C   0  0  0  0  0  0  0  0  0  0  0  0
  190.8000  171.4640  138.7900 C   0  0  0  0  0  0  0  0  0  0  0  0
  191.5050  174.2500  146.3100 N   0  0  0  0  0  0  0  0  0  0  0  0
  188.5390  175.3840  140.7050 N   0  0  0  0  0  2  0  0  0  0  0  0
  190.2340  175.9430  144.1900 C   0  0  2  0  0  3  0  0  0  0  0  0
  196.2910  174.5460  141.8500 C   0  0  0  0  0  1  0  0  0  0  0  0
  192.5440  175.0800  145.8640 N   0  0  0  0  0  2  0  0  0  0  0  0
  193.9290  173.3980  144.5630 C   0  0  0  0  0  0  0  0  0  0  0  0
  190.2800  174.6060  146.2520 N   0  0  0  0  0  0  0  0  0  0  0  0
  194.7680  176.2730  146.7780 F   0  0  0  0  0  0  0  0  0  0  0  0
  193.8250  174.5670  145.4900 C   0  0  0  0  0  0  0  0  0  0  0  0
  191.4720  170.7540  141.1070 N   0  0  0  0  0  0  0  0  0  0  0  0
  189.0210  175.7480  141.9970 C   0  0  0  0  0  0  0  0  0  0  0  0
  192.7610  172.0670  142.7520 C   0  0  2  0  0  3  0  0  0  0  0  0
  196.5280  174.9350  144.1990 N   0  0  0  0  0  0  0  0  0  0  0  0
  192.0850  170.8340  142.2520 C   0  0  0  0  0  3  0  0  0  0  0  0
  196.2890  174.7450  145.6210 C   0  0  0  0  0  2  0  0  0  0  0  0
  189.5790  174.5500  143.2010 S   0  0  0  0  0  0  0  0  0  0  0  0
  188.3860  173.9950  140.3120 C   0  0  0  0  0  2  0  0  0  0  0  0
  191.4610  173.0150  140.4770 O   0  0  0  0  0  0  0  0  0  0  0  0
  194.8230  173.3040  143.5560 C   0  0  0  0  0  0  0  0  0  0  0  0
  188.5530  173.8700  138.8360 C   0  0  0  0  0  0  0  0  0  0  0  0
  190.9820  170.0560  138.3120 C   0  0  0  0  0  2  0  0  0  0  0  0
  190.2070  169.8130  137.0200 C   0  0  0  0  0  2  0  0  0  0  0  0
  191.1260  169.3050  135.9160 C   0  0  0  0  0  3  0  0  0  0  0  0
  191.3780  170.4340  134.9350 C   0  0  0  0  0  1  0  0  0  0  0  0
  192.4540  168.8640  136.5180 C   0  0  0  0  0  1  0  0  0  0  0  0
  188.3300  176.0180  145.8520 C   0  0  0  0  0  2  0  0  0  0  0  0
  188.0160  177.0800  146.8930 C   0  0  0  0  0  2  0  0  0  0  0  0
  186.5120  177.2170  147.0670 C   0  0  0  0  0  2  0  0  0  0  0  0
  186.0400  178.6120  146.6600 C   0  0  0  0  0  2  0  0  0  0  0  0
  186.0920  178.6830  142.8620 C   0  0  0  0  0  3  0  0  0  0  0  0
  184.2100  178.6740  144.9380 C   0  0  0  0  0  3  0  0  0  0  0  0
  185.5770  178.6580  145.2370 C   0  0  0  0  0  0  0  0  0  0  0  0
  184.7260  178.6970  142.5640 C   0  0  0  0  0  3  0  0  0  0  0  0
  183.7840  178.6920  143.6020 C   0  0  0  0  0  3  0  0  0  0  0  0
  186.5170  178.6650  144.1970 C   0  0  0  0  0  3  0  0  0  0  0  0
  1 32  2  0  0  0  0
  2 24  1  0  0  0  0
  2 31  1  0  0  0  0
  3 32  1  0  0  0  0
  4 38  1  6  0  0  0
  4 19  1  0  0  0  0
  5 15  1  0  0  0  0
  6 20  1  0  0  0  0
  7 31  1  0  0  0  0
  7 25  2  0  0  0  0
  8 18  1  0  0  0  0
  9  5  1  0  0  0  0
 10  3  1  0  0  0  0
 10 12  2  0  0  0  0
 11 30  2  0  0  0  0
 11 22  1  0  0  0  0
 12 11  1  0  0  0  0
 14 23  1  0  0  0  0
 15 28  1  6  0  0  0
 15  4  1  0  0  0  0
 16  7  1  0  0  0  0
 17 13  1  0  0  0  0
 18 21  1  0  0  0  0
 19 13  2  0  0  0  0
 21 17  1  0  0  0  0
 21  6  2  0  0  0  0
 22 26  2  0  0  0  0
 23  9  2  0  0  0  0
 23 28  1  0  0  0  0
 24 26  1  1  0  0  0
 24  8  1  0  0  0  0
 25 27  1  0  0  0  0
 27  6  1  0  0  0  0
 29 14  1  0  0  0  0
 31 18  2  0  0  0  0
 32 29  1  0  0  0  0
 33 12  1  0  0  0  0
 34 33  1  0  0  0  0
 35 37  1  0  0  0  0
 35 34  1  0  0  0  0
 36 35  1  0  0  0  0
 38 39  1  0  0  0  0
 39 40  1  0  0  0  0
 41 40  1  0  0  0  0
 42 47  1  0  0  0  0
 43 44  1  0  0  0  0
 44 41  1  0  0  0  0
 45 42  2  0  0  0  0
 45 46  1  0  0  0  0
 46 43  2  0  0  0  0
 47 44  2  0  0  0  0
M  END
>  <MODEL>
2

>  <REMARK>
 VINA RESULT:      -7.5      3.025      8.458
  Name = 
  8 active torsions:
  status: ('A' for Active; 'I' for Inactive)
    1  A    between atoms: C_3  and  C_6
    2  A    between atoms: C_3  and  C_25
    3  A    between atoms: C_5  and  C_40
    4  A    between atoms: C_10  and  C_33
    5  A    between atoms: C_10  and  C_40
    6  A    between atoms: C_19  and  C_25
    7  A    between atoms: C_23  and  C_46
    8  A    between atoms: C_33  and  C_46
                            x       y       z     vdW  Elec       q    Type
                         _______ _______ _______ _____ _____    ______ ____

>  <TORSDO>
F 8

$$$$
=
 OpenBabel11042415303D

 47 51  0  0  1  0  0  0  0  0999 V2000
  187.4420  172.2930  139.3250 O   0  0  0  0  0  0  0  0  0  0  0  0
  195.6340  172.6320  141.0580 S   0  0  0  0  0  0  0  0  0  0  0  0
  189.6670  172.6290  138.6330 C   0  0  0  0  0  2  0  0  0  0  0  0
  191.4370  176.2530  145.2100 C   0  0  2  0  0  3  0  0  0  0  0  0
  190.3910  177.0320  143.1140 N   0  0  0  0  0  2  0  0  0  0  0  0
  196.3390  176.5680  143.7660 C   0  0  0  0  0  0  0  0  0  0  0  0
  196.5940  175.2940  141.0600 C   0  0  0  0  0  0  0  0  0  0  0  0
  194.5600  172.9260  143.7200 S   0  0  0  0  0  0  0  0  0  0  0  0
  189.4900  176.4720  142.2100 N   0  0  0  0  0  0  0  0  0  0  0  0
  190.2100  171.2490  138.4400 C   0  0  0  0  0  3  0  0  0  0  0  0
  191.9690  171.4090  140.1970 C   0  0  0  0  0  0  0  0  0  0  0  0
  191.1990  170.6970  139.1510 C   0  0  0  0  0  0  0  0  0  0  0  0
  193.5580  175.1310  145.4420 N   0  0  0  0  0  0  0  0  0  0  0  0
  188.7890  174.4780  141.1620 N   0  0  0  0  0  2  0  0  0  0  0  0
  191.3130  176.0720  143.6950 C   0  0  2  0  0  3  0  0  0  0  0  0
  196.4650  175.2910  139.5750 C   0  0  0  0  0  1  0  0  0  0  0  0
  194.1700  176.0150  144.5410 N   0  0  0  0  0  2  0  0  0  0  0  0
  195.4340  174.3620  143.0870 C   0  0  0  0  0  0  0  0  0  0  0  0
  192.3310  175.2450  145.7740 N   0  0  0  0  0  0  0  0  0  0  0  0
  196.2130  177.7520  144.4200 F   0  0  0  0  0  0  0  0  0  0  0  0
  195.3510  175.6680  143.8120 C   0  0  0  0  0  0  0  0  0  0  0  0
  192.7210  170.6380  141.1520 N   0  0  0  0  0  0  0  0  0  0  0  0
  189.5520  175.1930  142.1310 C   0  0  0  0  0  0  0  0  0  0  0  0
  194.1090  172.4840  142.0230 C   0  0  2  0  0  3  0  0  0  0  0  0
  197.3320  176.2170  141.6040 N   0  0  0  0  0  0  0  0  0  0  0  0
  193.6270  171.0720  141.9790 C   0  0  0  0  0  3  0  0  0  0  0  0
  197.6100  176.3020  143.0300 C   0  0  0  0  0  2  0  0  0  0  0  0
  190.7340  174.4030  143.2160 S   0  0  0  0  0  0  0  0  0  0  0  0
  188.8580  173.0310  141.0540 C   0  0  0  0  0  2  0  0  0  0  0  0
  191.9670  172.6690  140.2500 O   0  0  0  0  0  0  0  0  0  0  0  0
  195.9570  174.2100  141.8520 C   0  0  0  0  0  0  0  0  0  0  0  0
  188.5740  172.6200  139.6490 C   0  0  0  0  0  0  0  0  0  0  0  0
  191.5530  169.2740  138.8470 C   0  0  0  0  0  2  0  0  0  0  0  0
  190.7300  168.7430  137.6770 C   0  0  0  0  0  2  0  0  0  0  0  0
  191.6270  168.3270  136.5180 C   0  0  0  0  0  3  0  0  0  0  0  0
  191.4750  169.3380  135.3980 C   0  0  0  0  0  1  0  0  0  0  0  0
  193.0790  168.3060  136.9770 C   0  0  0  0  0  1  0  0  0  0  0  0
  190.0750  176.1680  145.8980 C   0  0  0  0  0  2  0  0  0  0  0  0
  189.8020  177.4250  146.7070 C   0  0  0  0  0  2  0  0  0  0  0  0
  188.3820  177.4010  147.2510 C   0  0  0  0  0  2  0  0  0  0  0  0
  187.4420  176.6760  146.2900 C   0  0  0  0  0  2  0  0  0  0  0  0
  185.7500  179.1600  143.9670 C   0  0  0  0  0  3  0  0  0  0  0  0
  185.1560  177.7220  146.2980 C   0  0  0  0  0  3  0  0  0  0  0  0
  186.4160  177.5950  145.7020 C   0  0  0  0  0  0  0  0  0  0  0  0
  184.4900  179.2860  144.5610 C   0  0  0  0  0  3  0  0  0  0  0  0
  184.1930  178.5660  145.7270 C   0  0  0  0  0  3  0  0  0  0  0  0
  186.7120  178.3160  144.5380 C   0  0  0  0  0  3  0  0  0  0  0  0
  1 32  2  0  0  0  0
  2 31  1  0  0  0  0
  2 24  1  0  0  0  0
  3 32  1  0  0  0  0
  4 19  1  0  0  0  0
  4 38  1  1  0  0  0
  6 21  2  0  0  0  0
  6 20  1  0  0  0  0
  7 25  2  0  0  0  0
  7 31  1  0  0  0  0
  9  5  1  0  0  0  0
 10  3  1  0  0  0  0
 10 12  2  0  0  0  0
 11 30  2  0  0  0  0
 11 22  1  0  0  0  0
 12 11  1  0  0  0  0
 13 19  2  0  0  0  0
 14 23  1  0  0  0  0
 15  5  1  1  0  0  0
 15  4  1  0  0  0  0
 16  7  1  0  0  0  0
 17 13  1  0  0  0  0
 18  8  1  0  0  0  0
 18 21  1  0  0  0  0
 21 17  1  0  0  0  0
 22 26  2  0  0  0  0
 23  9  2  0  0  0  0
 23 28  1  0  0  0  0
 24 26  1  1  0  0  0
 24  8  1  0  0  0  0
 25 27  1  0  0  0  0
 27  6  1  0  0  0  0
 28 15  1  0  0  0  0
 29 14  1  0  0  0  0
 31 18  2  0  0  0  0
 32 29  1  0  0  0  0
 33 12  1  0  0  0  0
 34 33  1  0  0  0  0
 35 37  1  0  0  0  0
 35 34  1  0  0  0  0
 36 35  1  0  0  0  0
 38 39  1  0  0  0  0
 39 40  1  0  0  0  0
 41 40  1  0  0  0  0
 42 47  2  0  0  0  0
 42 45  1  0  0  0  0
 44 41  1  0  0  0  0
 44 43  2  0  0  0  0
 45 46  2  0  0  0  0
 46 43  1  0  0  0  0
 47 44  1  0  0  0  0
M  END
>  <MODEL>
3

>  <REMARK>
 VINA RESULT:      -7.3      3.003      8.201
  Name = 
  8 active torsions:
  status: ('A' for Active; 'I' for Inactive)
    1  A    between atoms: C_3  and  C_6
    2  A    between atoms: C_3  and  C_25
    3  A    between atoms: C_5  and  C_40
    4  A    between atoms: C_10  and  C_33
    5  A    between atoms: C_10  and  C_40
    6  A    between atoms: C_19  and  C_25
    7  A    between atoms: C_23  and  C_46
    8  A    between atoms: C_33  and  C_46
                            x       y       z     vdW  Elec       q    Type
                         _______ _______ _______ _____ _____    ______ ____

>  <TORSDO>
F 8

$$$$
=
 OpenBabel11042415303D

 47 51  0  0  1  0  0  0  0  0999 V2000
  187.7990  173.4170  137.8660 O   0  0  0  0  0  0  0  0  0  0  0  0
  195.6850  172.4020  140.5130 S   0  0  0  0  0  0  0  0  0  0  0  0
  190.1080  173.7900  137.6030 C   0  0  0  0  0  2  0  0  0  0  0  0
  191.1010  174.6130  145.2090 C   0  0  2  0  0  3  0  0  0  0  0  0
  190.3810  176.1860  143.4490 N   0  0  0  0  0  2  0  0  0  0  0  0
  196.1630  175.0110  144.5480 C   0  0  0  0  0  0  0  0  0  0  0  0
  196.7360  174.7890  141.6100 C   0  0  0  0  0  0  0  0  0  0  0  0
  194.2700  171.8000  142.9540 S   0  0  0  0  0  0  0  0  0  0  0  0
  189.5910  176.0720  142.3060 N   0  0  0  0  0  0  0  0  0  0  0  0
  190.6200  172.5330  136.9750 C   0  0  0  0  0  3  0  0  0  0  0  0
  192.1280  171.8930  138.8520 C   0  0  0  0  0  0  0  0  0  0  0  0
  191.4810  171.6780  137.5370 C   0  0  0  0  0  0  0  0  0  0  0  0
  193.1270  173.3070  145.2460 N   0  0  0  0  0  0  0  0  0  0  0  0
  188.9640  174.6620  140.5220 N   0  0  0  0  0  2  0  0  0  0  0  0
  191.1790  175.0060  143.7320 C   0  0  2  0  0  3  0  0  0  0  0  0
  196.8100  175.3360  140.2260 C   0  0  0  0  0  1  0  0  0  0  0  0
  193.8890  174.4020  144.8130 N   0  0  0  0  0  2  0  0  0  0  0  0
  195.2760  173.2880  143.0020 C   0  0  0  0  0  0  0  0  0  0  0  0
  191.8710  173.3970  145.4570 N   0  0  0  0  0  0  0  0  0  0  0  0
  195.9940  175.8830  145.5760 F   0  0  0  0  0  0  0  0  0  0  0  0
  195.1450  174.2430  144.1460 C   0  0  0  0  0  0  0  0  0  0  0  0
  192.7130  170.7670  139.5310 N   0  0  0  0  0  0  0  0  0  0  0  0
  189.6150  174.9090  141.7660 C   0  0  0  0  0  0  0  0  0  0  0  0
  194.0380  172.0450  141.1750 C   0  0  2  0  0  3  0  0  0  0  0  0
  197.4280  175.3850  142.5370 N   0  0  0  0  0  0  0  0  0  0  0  0
  193.5140  170.7920  140.5570 C   0  0  0  0  0  3  0  0  0  0  0  0
  197.5110  174.9230  143.9140 C   0  0  0  0  0  2  0  0  0  0  0  0
  190.6070  173.6810  142.6060 S   0  0  0  0  0  0  0  0  0  0  0  0
  188.9930  173.3530  139.8930 C   0  0  0  0  0  2  0  0  0  0  0  0
  192.1670  173.0430  139.3680 O   0  0  0  0  0  0  0  0  0  0  0  0
  195.9560  173.5500  141.8660 C   0  0  0  0  0  0  0  0  0  0  0  0
  188.8870  173.5060  138.4140 C   0  0  0  0  0  0  0  0  0  0  0  0
  191.8200  170.4380  136.7680 C   0  0  0  0  0  2  0  0  0  0  0  0
  191.9640  170.7390  135.2800 C   0  0  0  0  0  2  0  0  0  0  0  0
  193.4270  170.7160  134.8540 C   0  0  0  0  0  3  0  0  0  0  0  0
  193.9540  172.1370  134.8460 C   0  0  0  0  0  1  0  0  0  0  0  0
  194.2360  169.8910  135.8470 C   0  0  0  0  0  1  0  0  0  0  0  0
  189.6570  174.4020  145.6590 C   0  0  0  0  0  2  0  0  0  0  0  0
  189.4380  174.9660  147.0530 C   0  0  0  0  0  2  0  0  0  0  0  0
  188.2230  175.8820  147.0640 C   0  0  0  0  0  2  0  0  0  0  0  0
  187.8230  176.2740  145.6430 C   0  0  0  0  0  2  0  0  0  0  0  0
  184.4890  177.8760  146.5090 C   0  0  0  0  0  3  0  0  0  0  0  0
  186.6250  178.2930  144.7440 C   0  0  0  0  0  3  0  0  0  0  0  0
  186.6500  177.2050  145.6230 C   0  0  0  0  0  0  0  0  0  0  0  0
  184.4660  178.9650  145.6330 C   0  0  0  0  0  3  0  0  0  0  0  0
  185.5340  179.1740  144.7490 C   0  0  0  0  0  3  0  0  0  0  0  0
  185.5800  176.9970  146.5030 C   0  0  0  0  0  3  0  0  0  0  0  0
  1 32  2  0  0  0  0
  2 24  1  0  0  0  0
  2 31  1  0  0  0  0
  3 32  1  0  0  0  0
  4 19  1  0  0  0  0
  4 38  1  6  0  0  0
  5 15  1  0  0  0  0
  6 20  1  0  0  0  0
  7 31  1  0  0  0  0
  7 25  2  0  0  0  0
  8 18  1  0  0  0  0
  9  5  1  0  0  0  0
 10 12  2  0  0  0  0
 10  3  1  0  0  0  0
 11 30  2  0  0  0  0
 11 22  1  0  0  0  0
 12 11  1  0  0  0  0
 13 19  2  0  0  0  0
 14 23  1  0  0  0  0
 15 28  1  6  0  0  0
 15  4  1  0  0  0  0
 16  7  1  0  0  0  0
 17 13  1  0  0  0  0
 18 21  1  0  0  0  0
 21  6  2  0  0  0  0
 21 17  1  0  0  0  0
 22 26  2  0  0  0  0
 23  9  2  0  0  0  0
 23 28  1  0  0  0  0
 24 26  1  6  0  0  0
 24  8  1  0  0  0  0
 25 27  1  0  0  0  0
 27  6  1  0  0  0  0
 29 14  1  0  0  0  0
 31 18  2  0  0  0  0
 32 29  1  0  0  0  0
 33 12  1  0  0  0  0
 34 33  1  0  0  0  0
 35 34  1  0  0  0  0
 35 37  1  0  0  0  0
 36 35  1  0  0  0  0
 38 39  1  0  0  0  0
 39 40  1  0  0  0  0
 41 40  1  0  0  0  0
 43 46  2  0  0  0  0
 43 44  1  0  0  0  0
 44 41  1  0  0  0  0
 44 47  2  0  0  0  0
 45 42  2  0  0  0  0
 46 45  1  0  0  0  0
 47 42  1  0  0  0  0
M  END
>  <MODEL>
4

>  <REMARK>
 VINA RESULT:      -7.0      2.912      8.128
  Name = 
  8 active torsions:
  status: ('A' for Active; 'I' for Inactive)
    1  A    between atoms: C_3  and  C_6
    2  A    between atoms: C_3  and  C_25
    3  A    between atoms: C_5  and  C_40
    4  A    between atoms: C_10  and  C_33
    5  A    between atoms: C_10  and  C_40
    6  A    between atoms: C_19  and  C_25
    7  A    between atoms: C_23  and  C_46
    8  A    between atoms: C_33  and  C_46
                            x       y       z     vdW  Elec       q    Type
                         _______ _______ _______ _____ _____    ______ ____

>  <TORSDO>
F 8

$$$$
=
 OpenBabel11042415303D

 47 51  0  0  1  0  0  0  0  0999 V2000
  193.6900  177.6730  145.5190 O   0  0  0  0  0  0  0  0  0  0  0  0
  188.6080  172.7210  141.0620 S   0  0  0  0  0  0  0  0  0  0  0  0
  192.0270  177.3980  143.8760 C   0  0  0  0  0  2  0  0  0  0  0  0
  195.2840  170.8950  141.3030 C   0  0  2  0  0  3  0  0  0  0  0  0
  195.7300  173.2750  140.8270 N   0  0  0  0  0  2  0  0  0  0  0  0
  191.4000  170.1910  138.0410 C   0  0  0  0  0  0  0  0  0  0  0  0
  189.4770  172.4700  138.3810 C   0  0  0  0  0  0  0  0  0  0  0  0
  190.5310  170.7650  141.9590 S   0  0  0  0  0  0  0  0  0  0  0  0
  195.7200  174.4390  141.5950 N   0  0  0  0  0  0  0  0  0  0  0  0
  190.7550  177.2700  144.6510 C   0  0  0  0  0  3  0  0  0  0  0  0
  190.2210  174.9540  143.9040 C   0  0  0  0  0  0  0  0  0  0  0  0
  189.9770  176.1830  144.6930 C   0  0  0  0  0  0  0  0  0  0  0  0
  193.1790  169.7410  141.0810 N   0  0  0  0  0  0  0  0  0  0  0  0
  194.6730  175.5690  143.3820 N   0  0  0  0  0  2  0  0  0  0  0  0
  194.7120  172.3120  141.2100 C   0  0  2  0  0  3  0  0  0  0  0  0
  189.0250  173.8720  138.1540 C   0  0  0  0  0  1  0  0  0  0  0  0
  192.9250  170.3550  139.8460 N   0  0  0  0  0  2  0  0  0  0  0  0
  190.5110  171.0580  140.1870 C   0  0  0  0  0  0  0  0  0  0  0  0
  194.2530  169.9540  141.7360 N   0  0  0  0  0  0  0  0  0  0  0  0
  192.4250  169.7150  137.2870 F   0  0  0  0  0  0  0  0  0  0  0  0
  191.6020  170.5080  139.3250 C   0  0  0  0  0  0  0  0  0  0  0  0
  189.5760  173.7310  144.3040 N   0  0  0  0  0  0  0  0  0  0  0  0
  194.8960  174.4130  142.5780 C   0  0  0  0  0  0  0  0  0  0  0  0
  189.9760  172.4680  142.2210 C   0  0  2  0  0  3  0  0  0  0  0  0
  189.6850  171.7220  137.3370 N   0  0  0  0  0  0  0  0  0  0  0  0
  189.4790  172.6280  143.6200 C   0  0  0  0  0  3  0  0  0  0  0  0
  190.0570  170.3170  137.4030 C   0  0  0  0  0  2  0  0  0  0  0  0
  193.9760  172.8930  142.7820 S   0  0  0  0  0  0  0  0  0  0  0  0
  193.7340  175.5570  144.4900 C   0  0  0  0  0  2  0  0  0  0  0  0
  190.9820  174.9770  142.8980 O   0  0  0  0  0  0  0  0  0  0  0  0
  189.5920  171.9540  139.7700 C   0  0  0  0  0  0  0  0  0  0  0  0
  193.1840  176.9280  144.6950 C   0  0  0  0  0  0  0  0  0  0  0  0
  188.7740  176.2320  145.5850 C   0  0  0  0  0  2  0  0  0  0  0  0
  187.5220  176.6000  144.7950 C   0  0  0  0  0  2  0  0  0  0  0  0
  186.5550  177.4130  145.6470 C   0  0  0  0  0  3  0  0  0  0  0  0
  187.2660  177.8450  146.9140 C   0  0  0  0  0  1  0  0  0  0  0  0
  186.1140  178.6520  144.8770 C   0  0  0  0  0  1  0  0  0  0  0  0
  196.4700  170.8300  142.2640 C   0  0  0  0  0  2  0  0  0  0  0  0
  197.0380  169.4220  142.3240 C   0  0  0  0  0  2  0  0  0  0  0  0
  197.8220  169.2260  143.6130 C   0  0  0  0  0  2  0  0  0  0  0  0
  197.3480  170.1970  144.6930 C   0  0  0  0  0  2  0  0  0  0  0  0
  196.6200  168.5020  148.0130 C   0  0  0  0  0  3  0  0  0  0  0  0
  195.2490  169.2260  145.6790 C   0  0  0  0  0  3  0  0  0  0  0  0
  196.6170  169.4990  145.7970 C   0  0  0  0  0  0  0  0  0  0  0  0
  195.2530  168.2320  147.8960 C   0  0  0  0  0  3  0  0  0  0  0  0
  194.5670  168.5950  146.7290 C   0  0  0  0  0  3  0  0  0  0  0  0
  197.3010  169.1340  146.9640 C   0  0  0  0  0  3  0  0  0  0  0  0
  2 24  1  0  0  0  0
  3 10  1  0  0  0  0
  3 32  1  0  0  0  0
  4 19  1  0  0  0  0
  4 38  1  1  0  0  0
  5  9  1  0  0  0  0
  6 21  2  0  0  0  0
  7 31  1  0  0  0  0
  8 24  1  0  0  0  0
  9 23  2  0  0  0  0
 10 12  2  0  0  0  0
 11 22  1  0  0  0  0
 11 12  1  0  0  0  0
 12 33  1  0  0  0  0
 13 19  2  0  0  0  0
 14 29  1  0  0  0  0
 15  5  1  1  0  0  0
 15  4  1  0  0  0  0
 15 28  1  0  0  0  0
 16  7  1  0  0  0  0
 17 13  1  0  0  0  0
 18  8  1  0  0  0  0
 20  6  1  0  0  0  0
 21 17  1  0  0  0  0
 21 18  1  0  0  0  0
 23 28  1  0  0  0  0
 23 14  1  0  0  0  0
 24 26  1  1  0  0  0
 25 27  1  0  0  0  0
 25  7  2  0  0  0  0
 26 22  2  0  0  0  0
 27  6  1  0  0  0  0
 29 32  1  0  0  0  0
 30 11  2  0  0  0  0
 31 18  2  0  0  0  0
 31  2  1  0  0  0  0
 32  1  2  0  0  0  0
 34 33  1  0  0  0  0
 34 35  1  0  0  0  0
 35 36  1  0  0  0  0
 37 35  1  0  0  0  0
 38 39  1  0  0  0  0
 39 40  1  0  0  0  0
 40 41  1  0  0  0  0
 41 44  1  0  0  0  0
 43 44  2  0  0  0  0
 43 46  1  0  0  0  0
 44 47  1  0  0  0  0
 45 42  1  0  0  0  0
 46 45  2  0  0  0  0
 47 42  2  0  0  0  0
M  END
>  <MODEL>
5

>  <REMARK>
 VINA RESULT:      -6.5      2.276      3.365
  Name = 
  8 active torsions:
  status: ('A' for Active; 'I' for Inactive)
    1  A    between atoms: C_3  and  C_6
    2  A    between atoms: C_3  and  C_25
    3  A    between atoms: C_5  and  C_40
    4  A    between atoms: C_10  and  C_33
    5  A    between atoms: C_10  and  C_40
    6  A    between atoms: C_19  and  C_25
    7  A    between atoms: C_23  and  C_46
    8  A    between atoms: C_33  and  C_46
                            x       y       z     vdW  Elec       q    Type
                         _______ _______ _______ _____ _____    ______ ____

>  <TORSDO>
F 8

$$$$
=
 OpenBabel11042415303D

 47 51  0  0  1  0  0  0  0  0999 V2000
  194.1950  174.4350  146.4880 O   0  0  0  0  0  0  0  0  0  0  0  0
  194.3850  171.5990  138.6060 S   0  0  0  0  0  0  0  0  0  0  0  0
  194.8480  172.8110  144.9150 C   0  0  0  0  0  2  0  0  0  0  0  0
  188.1970  173.4980  141.0660 C   0  0  2  0  0  3  0  0  0  0  0  0
  188.8320  172.1950  143.0640 N   0  0  0  0  0  2  0  0  0  0  0  0
  189.8850  170.2520  137.4840 C   0  0  0  0  0  0  0  0  0  0  0  0
  192.6570  169.3880  138.2460 C   0  0  0  0  0  0  0  0  0  0  0  0
  192.1890  173.4590  138.4010 S   0  0  0  0  0  0  0  0  0  0  0  0
  189.6630  172.4340  144.1570 N   0  0  0  0  0  0  0  0  0  0  0  0
  196.0740  173.3810  144.2770 C   0  0  0  0  0  3  0  0  0  0  0  0
  195.1280  173.5360  141.9770 C   0  0  0  0  0  0  0  0  0  0  0  0
  196.1880  173.7340  142.9920 C   0  0  0  0  0  0  0  0  0  0  0  0
  189.2600  173.4460  138.9030 N   0  0  0  0  0  0  0  0  0  0  0  0
  191.6600  173.4620  144.8800 N   0  0  0  0  0  2  0  0  0  0  0  0
  189.3140  172.7750  141.8220 C   0  0  2  0  0  3  0  0  0  0  0  0
  193.6250  168.5660  139.0260 C   0  0  0  0  0  1  0  0  0  0  0  0
  189.3450  172.0470  138.9320 N   0  0  0  0  0  2  0  0  0  0  0  0
  191.7490  171.7320  138.1810 C   0  0  0  0  0  0  0  0  0  0  0  0
  188.7180  174.1130  139.8470 N   0  0  0  0  0  0  0  0  0  0  0  0
  188.5740  169.9020  137.5140 F   0  0  0  0  0  0  0  0  0  0  0  0
  190.3100  171.3230  138.1640 C   0  0  0  0  0  0  0  0  0  0  0  0
  195.1910  174.2860  140.7500 N   0  0  0  0  0  0  0  0  0  0  0  0
  190.6470  173.2180  143.9070 C   0  0  0  0  0  0  0  0  0  0  0  0
  193.5510  172.9490  139.4790 C   0  0  2  0  0  3  0  0  0  0  0  0
  191.7740  168.7630  137.5230 N   0  0  0  0  0  0  0  0  0  0  0  0
  194.5030  174.0840  139.6640 C   0  0  0  0  0  3  0  0  0  0  0  0
  190.8150  169.4300  136.6550 C   0  0  0  0  0  2  0  0  0  0  0  0
  190.7210  173.8670  142.2420 S   0  0  0  0  0  0  0  0  0  0  0  0
  192.7860  174.3370  144.6070 C   0  0  0  0  0  2  0  0  0  0  0  0
  194.1860  172.7220  142.1830 O   0  0  0  0  0  0  0  0  0  0  0  0
  192.7840  170.8680  138.2520 C   0  0  0  0  0  0  0  0  0  0  0  0
  193.9630  173.9060  145.4120 C   0  0  0  0  0  0  0  0  0  0  0  0
  197.4830  174.3520  142.5610 C   0  0  0  0  0  2  0  0  0  0  0  0
  197.8950  175.4750  143.5080 C   0  0  0  0  0  2  0  0  0  0  0  0
  197.1990  176.7820  143.1460 C   0  0  0  0  0  3  0  0  0  0  0  0
  196.9350  176.7950  141.6530 C   0  0  0  0  0  1  0  0  0  0  0  0
  195.8720  176.8760  143.8870 C   0  0  0  0  0  1  0  0  0  0  0  0
  187.5340  174.5670  141.9320 C   0  0  0  0  0  2  0  0  0  0  0  0
  187.7750  175.9530  141.3570 C   0  0  0  0  0  2  0  0  0  0  0  0
  186.8510  176.9650  142.0170 C   0  0  0  0  0  2  0  0  0  0  0  0
  187.4570  177.4900  143.3170 C   0  0  0  0  0  2  0  0  0  0  0  0
  184.5120  178.9760  145.2020 C   0  0  0  0  0  3  0  0  0  0  0  0
  186.3460  176.8760  145.4870 C   0  0  0  0  0  3  0  0  0  0  0  0
  186.4190  177.7190  144.3710 C   0  0  0  0  0  0  0  0  0  0  0  0
  184.4380  178.1330  146.3140 C   0  0  0  0  0  3  0  0  0  0  0  0
  185.3550  177.0820  146.4570 C   0  0  0  0  0  3  0  0  0  0  0  0
  185.5020  178.7700  144.2320 C   0  0  0  0  0  3  0  0  0  0  0  0
  2 24  1  0  0  0  0
  3 32  1  0  0  0  0
  4 15  1  0  0  0  0
  4 38  1  1  0  0  0
  5  9  1  0  0  0  0
  6 20  1  0  0  0  0
  6 21  2  0  0  0  0
  7 31  1  0  0  0  0
  7 16  1  0  0  0  0
  8 24  1  0  0  0  0
 10  3  1  0  0  0  0
 11 30  2  0  0  0  0
 11 12  1  0  0  0  0
 12 10  2  0  0  0  0
 13 17  1  0  0  0  0
 13 19  2  0  0  0  0
 15 28  1  1  0  0  0
 15  5  1  0  0  0  0
 18 31  2  0  0  0  0
 18  8  1  0  0  0  0
 19  4  1  0  0  0  0
 21 18  1  0  0  0  0
 21 17  1  0  0  0  0
 22 11  1  0  0  0  0
 23  9  2  0  0  0  0
 23 14  1  0  0  0  0
 24 26  1  6  0  0  0
 25  7  2  0  0  0  0
 26 22  2  0  0  0  0
 27  6  1  0  0  0  0
 27 25  1  0  0  0  0
 28 23  1  0  0  0  0
 29 14  1  0  0  0  0
 29 32  1  0  0  0  0
 31  2  1  0  0  0  0
 32  1  2  0  0  0  0
 33 12  1  0  0  0  0
 33 34  1  0  0  0  0
 35 34  1  0  0  0  0
 35 37  1  0  0  0  0
 36 35  1  0  0  0  0
 39 38  1  0  0  0  0
 39 40  1  0  0  0  0
 40 41  1  0  0  0  0
 41 44  1  0  0  0  0
 42 45  1  0  0  0  0
 43 46  1  0  0  0  0
 44 43  2  0  0  0  0
 45 46  2  0  0  0  0
 47 44  1  0  0  0  0
 47 42  2  0  0  0  0
M  END
>  <MODEL>
6

>  <REMARK>
 VINA RESULT:      -6.2      2.583      7.148
  Name = 
  8 active torsions:
  status: ('A' for Active; 'I' for Inactive)
    1  A    between atoms: C_3  and  C_6
    2  A    between atoms: C_3  and  C_25
    3  A    between atoms: C_5  and  C_40
    4  A    between atoms: C_10  and  C_33
    5  A    between atoms: C_10  and  C_40
    6  A    between atoms: C_19  and  C_25
    7  A    between atoms: C_23  and  C_46
    8  A    between atoms: C_33  and  C_46
                            x       y       z     vdW  Elec       q    Type
                         _______ _______ _______ _____ _____    ______ ____

>  <TORSDO>
F 8

$$$$
=
 OpenBabel11042415303D

 47 51  0  0  1  0  0  0  0  0999 V2000
  193.1820  177.1680  145.0180 O   0  0  0  0  0  0  0  0  0  0  0  0
  188.5680  172.9200  139.4610 S   0  0  0  0  0  0  0  0  0  0  0  0
  191.7490  177.1330  143.1510 C   0  0  0  0  0  2  0  0  0  0  0  0
  195.0730  170.7380  140.3990 C   0  0  2  0  0  3  0  0  0  0  0  0
  195.6700  173.1260  140.2240 N   0  0  0  0  0  2  0  0  0  0  0  0
  191.6460  170.5400  136.6000 C   0  0  0  0  0  0  0  0  0  0  0  0
  189.7830  172.8750  136.9070 C   0  0  0  0  0  0  0  0  0  0  0  0
  190.2730  170.7930  140.4060 S   0  0  0  0  0  0  0  0  0  0  0  0
  195.6020  174.2120  141.0950 N   0  0  0  0  0  0  0  0  0  0  0  0
  190.3790  177.0000  143.7350 C   0  0  0  0  0  3  0  0  0  0  0  0
  189.8630  174.7930  142.6980 C   0  0  0  0  0  0  0  0  0  0  0  0
  189.5610  175.9550  143.5660 C   0  0  0  0  0  0  0  0  0  0  0  0
  192.9750  169.7200  139.7890 N   0  0  0  0  0  0  0  0  0  0  0  0
  194.3650  175.2240  142.8310 N   0  0  0  0  0  2  0  0  0  0  0  0
  194.5740  172.1850  140.3720 C   0  0  2  0  0  3  0  0  0  0  0  0
  189.4210  174.3130  136.7620 C   0  0  0  0  0  1  0  0  0  0  0  0
  192.9160  170.4580  138.5980 N   0  0  0  0  0  2  0  0  0  0  0  0
  190.5060  171.2500  138.6850 C   0  0  0  0  0  0  0  0  0  0  0  0
  193.9570  169.8160  140.5970 N   0  0  0  0  0  0  0  0  0  0  0  0
  192.7440  170.0850  135.9450 F   0  0  0  0  0  0  0  0  0  0  0  0
  191.6830  170.7260  137.9240 C   0  0  0  0  0  0  0  0  0  0  0  0
  189.1230  173.5740  142.8870 N   0  0  0  0  0  0  0  0  0  0  0  0
  194.6500  174.1380  141.9530 C   0  0  0  0  0  0  0  0  0  0  0  0
  189.7540  172.4910  140.7600 C   0  0  2  0  0  3  0  0  0  0  0  0
  190.1030  172.2170  135.8300 N   0  0  0  0  0  0  0  0  0  0  0  0
  189.0770  172.5460  142.0900 C   0  0  0  0  0  3  0  0  0  0  0  0
  190.4070  170.7950  135.8060 C   0  0  0  0  0  2  0  0  0  0  0  0
  193.6540  172.6550  141.8820 S   0  0  0  0  0  0  0  0  0  0  0  0
  193.2840  175.1580  143.7990 C   0  0  0  0  0  2  0  0  0  0  0  0
  190.7540  174.8710  141.8080 O   0  0  0  0  0  0  0  0  0  0  0  0
  189.6870  172.2270  138.2410 C   0  0  0  0  0  0  0  0  0  0  0  0
  192.7640  176.5300  144.0640 C   0  0  0  0  0  0  0  0  0  0  0  0
  188.2510  175.9830  144.2920 C   0  0  0  0  0  2  0  0  0  0  0  0
  188.3480  176.8220  145.5620 C   0  0  0  0  0  2  0  0  0  0  0  0
  187.0960  177.6700  145.7570 C   0  0  0  0  0  3  0  0  0  0  0  0
  186.6980  178.2640  144.4200 C   0  0  0  0  0  1  0  0  0  0  0  0
  185.9600  176.7950  146.2710 C   0  0  0  0  0  1  0  0  0  0  0  0
  196.1130  170.5230  141.4970 C   0  0  0  0  0  2  0  0  0  0  0  0
  195.6600  169.4430  142.4650 C   0  0  0  0  0  2  0  0  0  0  0  0
  196.4810  169.5050  143.7440 C   0  0  0  0  0  2  0  0  0  0  0  0
  197.5450  170.5980  143.6560 C   0  0  0  0  0  2  0  0  0  0  0  0
  195.5350  173.0380  145.7620 C   0  0  0  0  0  3  0  0  0  0  0  0
  197.9410  172.9880  144.3260 C   0  0  0  0  0  3  0  0  0  0  0  0
  197.1270  171.8500  144.3620 C   0  0  0  0  0  0  0  0  0  0  0  0
  196.3500  174.1740  145.7290 C   0  0  0  0  0  3  0  0  0  0  0  0
  197.5540  174.1490  145.0110 C   0  0  0  0  0  3  0  0  0  0  0  0
  195.9230  171.8780  145.0790 C   0  0  0  0  0  3  0  0  0  0  0  0
  2 24  1  0  0  0  0
  3 10  1  0  0  0  0
  3 32  1  0  0  0  0
  4 19  1  0  0  0  0
  4 38  1  1  0  0  0
  5  9  1  0  0  0  0
  6 21  2  0  0  0  0
  7 31  1  0  0  0  0
  8 24  1  0  0  0  0
  9 23  2  0  0  0  0
 11 22  1  0  0  0  0
 11 12  1  0  0  0  0
 12 10  2  0  0  0  0
 12 33  1  0  0  0  0
 13 19  2  0  0  0  0
 14 29  1  0  0  0  0
 15  5  1  1  0  0  0
 15  4  1  0  0  0  0
 15 28  1  0  0  0  0
 16  7  1  0  0  0  0
 17 13  1  0  0  0  0
 18  8  1  0  0  0  0
 20  6  1  0  0  0  0
 21 17  1  0  0  0  0
 21 18  1  0  0  0  0
 23 14  1  0  0  0  0
 24 26  1  1  0  0  0
 25  7  2  0  0  0  0
 26 22  2  0  0  0  0
 27 25  1  0  0  0  0
 27  6  1  0  0  0  0
 28 23  1  0  0  0  0
 29 32  1  0  0  0  0
 30 11  2  0  0  0  0
 31 18  2  0  0  0  0
 31  2  1  0  0  0  0
 32  1  2  0  0  0  0
 33 34  1  0  0  0  0
 34 35  1  0  0  0  0
 35 37  1  0  0  0  0
 36 35  1  0  0  0  0
 38 39  1  0  0  0  0
 39 40  1  0  0  0  0
 41 40  1  0  0  0  0
 41 44  1  0  0  0  0
 43 44  2  0  0  0  0
 43 46  1  0  0  0  0
 44 47  1  0  0  0  0
 45 42  1  0  0  0  0
 46 45  2  0  0  0  0
 47 42  2  0  0  0  0
M  END
>  <MODEL>
7

>  <REMARK>
 VINA RESULT:      -6.2      1.566      2.312
  Name = 
  8 active torsions:
  status: ('A' for Active; 'I' for Inactive)
    1  A    between atoms: C_3  and  C_6
    2  A    between atoms: C_3  and  C_25
    3  A    between atoms: C_5  and  C_40
    4  A    between atoms: C_10  and  C_33
    5  A    between atoms: C_10  and  C_40
    6  A    between atoms: C_19  and  C_25
    7  A    between atoms: C_23  and  C_46
    8  A    between atoms: C_33  and  C_46
                            x       y       z     vdW  Elec       q    Type
                         _______ _______ _______ _____ _____    ______ ____

>  <TORSDO>
F 8

$$$$
=
 OpenBabel11042415303D

 47 51  0  0  1  0  0  0  0  0999 V2000
  188.2420  173.6280  137.7900 O   0  0  0  0  0  0  0  0  0  0  0  0
  192.1350  173.2840  145.2020 S   0  0  0  0  0  0  0  0  0  0  0  0
  190.2150  173.7190  139.0690 C   0  0  0  0  0  2  0  0  0  0  0  0
  186.6430  177.4810  144.7800 C   0  0  2  0  0  3  0  0  0  0  0  0
  187.6650  178.2510  142.6690 N   0  0  0  0  0  2  0  0  0  0  0  0
  190.8870  177.2650  147.6340 C   0  0  0  0  0  0  0  0  0  0  0  0
  193.0020  175.8410  146.0490 C   0  0  0  0  0  0  0  0  0  0  0  0
  189.4400  173.8070  146.0910 S   0  0  0  0  0  0  0  0  0  0  0  0
  187.7330  177.7340  141.3760 N   0  0  0  0  0  0  0  0  0  0  0  0
  190.5720  172.2870  139.3070 C   0  0  0  0  0  3  0  0  0  0  0  0
  190.3540  172.3680  141.7870 C   0  0  0  0  0  0  0  0  0  0  0  0
  190.6000  171.6810  140.4980 C   0  0  0  0  0  0  0  0  0  0  0  0
  187.6990  176.1790  146.5120 N   0  0  0  0  0  0  0  0  0  0  0  0
  187.8980  175.7650  140.0870 N   0  0  0  0  0  2  0  0  0  0  0  0
  187.7100  177.2380  143.7090 C   0  0  2  0  0  3  0  0  0  0  0  0
  194.0590  175.7770  145.0010 C   0  0  0  0  0  1  0  0  0  0  0  0
  188.8650  176.9560  146.4420 N   0  0  0  0  0  2  0  0  0  0  0  0
  190.6200  175.1220  146.4160 C   0  0  0  0  0  0  0  0  0  0  0  0
  186.6780  176.4230  145.7860 N   0  0  0  0  0  0  0  0  0  0  0  0
  190.4220  178.4860  148.0040 F   0  0  0  0  0  0  0  0  0  0  0  0
  190.1380  176.4640  146.8690 C   0  0  0  0  0  0  0  0  0  0  0  0
  190.0220  171.5780  142.9440 N   0  0  0  0  0  0  0  0  0  0  0  0
  187.7080  176.4520  141.3210 C   0  0  0  0  0  0  0  0  0  0  0  0
  190.4130  173.3270  144.6420 C   0  0  2  0  0  3  0  0  0  0  0  0
  193.1420  176.7160  147.0010 N   0  0  0  0  0  0  0  0  0  0  0  0
  190.0040  171.9650  144.1860 C   0  0  0  0  0  3  0  0  0  0  0  0
  192.2320  176.8450  148.1290 C   0  0  0  0  0  2  0  0  0  0  0  0
  187.5470  175.6090  142.8900 S   0  0  0  0  0  0  0  0  0  0  0  0
  187.8840  174.3150  140.0120 C   0  0  0  0  0  2  0  0  0  0  0  0
  190.4360  173.6240  141.8710 O   0  0  0  0  0  0  0  0  0  0  0  0
  191.8840  174.8610  146.0220 C   0  0  0  0  0  0  0  0  0  0  0  0
  188.7420  173.8630  138.8790 C   0  0  0  0  0  0  0  0  0  0  0  0
  190.9190  170.2170  140.5180 C   0  0  0  0  0  2  0  0  0  0  0  0
  192.4010  169.9840  140.7910 C   0  0  0  0  0  2  0  0  0  0  0  0
  193.0450  169.1730  139.6730 C   0  0  0  0  0  3  0  0  0  0  0  0
  191.9970  168.2570  139.0700 C   0  0  0  0  0  1  0  0  0  0  0  0
  193.5650  170.1130  138.5930 C   0  0  0  0  0  1  0  0  0  0  0  0
  185.2440  177.5590  144.1700 C   0  0  0  0  0  2  0  0  0  0  0  0
  184.6500  178.9450  144.3590 C   0  0  0  0  0  2  0  0  0  0  0  0
  183.2530  179.0040  143.7590 C   0  0  0  0  0  2  0  0  0  0  0  0
  183.2570  178.4990  142.3180 C   0  0  0  0  0  2  0  0  0  0  0  0
  179.5590  179.2000  141.8080 C   0  0  0  0  0  3  0  0  0  0  0  0
  181.6610  177.9280  140.4610 C   0  0  0  0  0  3  0  0  0  0  0  0
  181.8900  178.5200  141.7080 C   0  0  0  0  0  0  0  0  0  0  0  0
  179.3310  178.6110  140.5600 C   0  0  0  0  0  3  0  0  0  0  0  0
  180.3830  177.9740  139.8860 C   0  0  0  0  0  3  0  0  0  0  0  0
  180.8360  179.1540  142.3810 C   0  0  0  0  0  3  0  0  0  0  0  0
  1 32  2  0  0  0  0
  2 31  1  0  0  0  0
  3 10  1  0  0  0  0
  4 38  1  6  0  0  0
  4 19  1  0  0  0  0
  6 20  1  0  0  0  0
  6 27  1  0  0  0  0
  7 25  2  0  0  0  0
  8 18  1  0  0  0  0
  9  5  1  0  0  0  0
 10 12  2  0  0  0  0
 11 30  2  0  0  0  0
 11 22  1  0  0  0  0
 12 33  1  0  0  0  0
 12 11  1  0  0  0  0
 14 23  1  0  0  0  0
 15  5  1  6  0  0  0
 15  4  1  0  0  0  0
 16  7  1  0  0  0  0
 17 13  1  0  0  0  0
 17 21  1  0  0  0  0
 18 21  1  0  0  0  0
 19 13  2  0  0  0  0
 21  6  2  0  0  0  0
 22 26  2  0  0  0  0
 23  9  2  0  0  0  0
 23 28  1  0  0  0  0
 24 26  1  1  0  0  0
 24  2  1  0  0  0  0
 24  8  1  0  0  0  0
 25 27  1  0  0  0  0
 28 15  1  0  0  0  0
 29 14  1  0  0  0  0
 31  7  1  0  0  0  0
 31 18  2  0  0  0  0
 32  3  1  0  0  0  0
 32 29  1  0  0  0  0
 33 34  1  0  0  0  0
 35 34  1  0  0  0  0
 36 35  1  0  0  0  0
 37 35  1  0  0  0  0
 38 39  1  0  0  0  0
 40 39  1  0  0  0  0
 41 40  1  0  0  0  0
 42 47  1  0  0  0  0
 43 44  1  0  0  0  0
 44 41  1  0  0  0  0
 44 47  2  0  0  0  0
 45 42  2  0  0  0  0
 46 43  2  0  0  0  0
 46 45  1  0  0  0  0
M  END
>  <MODEL>
8

>  <REMARK>
 VINA RESULT:      -6.1      4.099     10.089
  Name = 
  8 active torsions:
  status: ('A' for Active; 'I' for Inactive)
    1  A    between atoms: C_3  and  C_6
    2  A    between atoms: C_3  and  C_25
    3  A    between atoms: C_5  and  C_40
    4  A    between atoms: C_10  and  C_33
    5  A    between atoms: C_10  and  C_40
    6  A    between atoms: C_19  and  C_25
    7  A    between atoms: C_23  and  C_46
    8  A    between atoms: C_33  and  C_46
                            x       y       z     vdW  Elec       q    Type
                         _______ _______ _______ _____ _____    ______ ____

>  <TORSDO>
F 8

$$$$
=
 OpenBabel11042415303D

 47 51  0  0  1  0  0  0  0  0999 V2000
  187.0750  175.0050  142.2670 O   0  0  0  0  0  0  0  0  0  0  0  0
  195.1180  174.1740  144.4620 S   0  0  0  0  0  0  0  0  0  0  0  0
  188.7130  174.2920  143.7990 C   0  0  0  0  0  2  0  0  0  0  0  0
  193.4000  172.0030  138.1150 C   0  0  2  0  0  3  0  0  0  0  0  0
  191.4960  170.9070  139.2400 N   0  0  0  0  0  2  0  0  0  0  0  0
  197.0460  170.8620  141.5240 C   0  0  0  0  0  0  0  0  0  0  0  0
  195.9870  171.4890  144.2620 C   0  0  0  0  0  0  0  0  0  0  0  0
  195.4280  174.5780  141.6230 S   0  0  0  0  0  0  0  0  0  0  0  0
  190.2710  171.3520  139.7340 N   0  0  0  0  0  0  0  0  0  0  0  0
  189.0900  175.5320  144.5450 C   0  0  0  0  0  3  0  0  0  0  0  0
  191.4710  175.5680  143.8110 C   0  0  0  0  0  0  0  0  0  0  0  0
  190.2940  176.1150  144.5240 C   0  0  0  0  0  0  0  0  0  0  0  0
  195.3720  172.9160  139.1600 N   0  0  0  0  0  0  0  0  0  0  0  0
  189.1440  173.1370  140.7880 N   0  0  0  0  0  2  0  0  0  0  0  0
  192.5760  171.8660  139.3970 C   0  0  2  0  0  3  0  0  0  0  0  0
  195.1730  171.1850  145.4730 C   0  0  0  0  0  1  0  0  0  0  0  0
  195.4940  171.7980  139.9990 N   0  0  0  0  0  2  0  0  0  0  0  0
  195.9110  172.9540  142.2190 C   0  0  0  0  0  0  0  0  0  0  0  0
  194.4470  173.0080  138.2850 N   0  0  0  0  0  0  0  0  0  0  0  0
  197.2530  169.8680  140.6220 F   0  0  0  0  0  0  0  0  0  0  0  0
  196.1900  171.8520  141.2470 C   0  0  0  0  0  0  0  0  0  0  0  0
  192.5780  176.4410  143.5250 N   0  0  0  0  0  0  0  0  0  0  0  0
  190.2790  172.5700  140.1380 C   0  0  0  0  0  0  0  0  0  0  0  0
  194.2270  174.6890  142.9730 C   0  0  2  0  0  3  0  0  0  0  0  0
  196.9010  170.6310  143.9130 N   0  0  0  0  0  0  0  0  0  0  0  0
  193.7710  176.1020  143.1290 C   0  0  0  0  0  3  0  0  0  0  0  0
  197.8180  170.8270  142.8010 C   0  0  0  0  0  2  0  0  0  0  0  0
  191.8270  173.4440  139.9420 S   0  0  0  0  0  0  0  0  0  0  0  0
  189.1430  174.5100  141.2600 C   0  0  0  0  0  2  0  0  0  0  0  0
  191.5040  174.3560  143.4620 O   0  0  0  0  0  0  0  0  0  0  0  0
  195.7900  172.7800  143.5520 C   0  0  0  0  0  0  0  0  0  0  0  0
  188.2270  174.6370  142.4300 C   0  0  0  0  0  0  0  0  0  0  0  0
  190.4520  177.3930  145.2890 C   0  0  0  0  0  2  0  0  0  0  0  0
  190.1160  177.1940  146.7630 C   0  0  0  0  0  2  0  0  0  0  0  0
  191.3350  176.7210  147.5460 C   0  0  0  0  0  3  0  0  0  0  0  0
  191.5020  177.6030  148.7670 C   0  0  0  0  0  1  0  0  0  0  0  0
  191.1270  175.2810  147.9970 C   0  0  0  0  0  1  0  0  0  0  0  0
  192.5230  172.3790  136.9220 C   0  0  0  0  0  2  0  0  0  0  0  0
  193.0430  173.6370  136.2450 C   0  0  0  0  0  2  0  0  0  0  0  0
  192.0090  174.7480  136.3360 C   0  0  0  0  0  2  0  0  0  0  0  0
  190.8610  174.5070  135.3580 C   0  0  0  0  0  2  0  0  0  0  0  0
  187.5060  176.2390  135.7740 C   0  0  0  0  0  3  0  0  0  0  0  0
  189.0690  174.3380  137.1130 C   0  0  0  0  0  3  0  0  0  0  0  0
  189.5380  174.9160  135.9280 C   0  0  0  0  0  0  0  0  0  0  0  0
  187.0360  175.6600  136.9560 C   0  0  0  0  0  3  0  0  0  0  0  0
  187.8180  174.7090  137.6270 C   0  0  0  0  0  3  0  0  0  0  0  0
  188.7560  175.8680  135.2610 C   0  0  0  0  0  3  0  0  0  0  0  0
  1 32  2  0  0  0  0
  3 10  1  0  0  0  0
  4 38  1  6  0  0  0
  4 19  1  0  0  0  0
  4 15  1  0  0  0  0
  5  9  1  0  0  0  0
  6 27  1  0  0  0  0
  7 16  1  0  0  0  0
  8 18  1  0  0  0  0
  8 24  1  0  0  0  0
  9 23  2  0  0  0  0
 11 12  1  0  0  0  0
 12 10  2  0  0  0  0
 12 33  1  0  0  0  0
 13 17  1  0  0  0  0
 14 29  1  0  0  0  0
 15  5  1  6  0  0  0
 15 28  1  0  0  0  0
 17 21  1  0  0  0  0
 18 31  2  0  0  0  0
 19 13  2  0  0  0  0
 20  6  1  0  0  0  0
 21  6  2  0  0  0  0
 21 18  1  0  0  0  0
 22 11  1  0  0  0  0
 23 14  1  0  0  0  0
 24 26  1  1  0  0  0
 24  2  1  0  0  0  0
 25  7  2  0  0  0  0
 26 22  2  0  0  0  0
 27 25  1  0  0  0  0
 28 23  1  0  0  0  0
 29 32  1  0  0  0  0
 30 11  2  0  0  0  0
 31  7  1  0  0  0  0
 31  2  1  0  0  0  0
 32  3  1  0  0  0  0
 33 34  1  0  0  0  0
 34 35  1  0  0  0  0
 35 37  1  0  0  0  0
 35 36  1  0  0  0  0
 39 40  1  0  0  0  0
 39 38  1  0  0  0  0
 41 44  1  0  0  0  0
 41 40  1  0  0  0  0
 42 45  1  0  0  0  0
 43 46  1  0  0  0  0
 44 43  2  0  0  0  0
 45 46  2  0  0  0  0
 47 42  2  0  0  0  0
 47 44  1  0  0  0  0
M  END
>  <MODEL>
9

>  <REMARK>
 VINA RESULT:      -5.8      2.520      7.122
  Name = 
  8 active torsions:
  status: ('A' for Active; 'I' for Inactive)
    1  A    between atoms: C_3  and  C_6
    2  A    between atoms: C_3  and  C_25
    3  A    between atoms: C_5  and  C_40
    4  A    between atoms: C_10  and  C_33
    5  A    between atoms: C_10  and  C_40
    6  A    between atoms: C_19  and  C_25
    7  A    between atoms: C_23  and  C_46
    8  A    between atoms: C_33  and  C_46
                            x       y       z     vdW  Elec       q    Type
                         _______ _______ _______ _____ _____    ______ ____

>  <TORSDO>
F 8

$$$$
