=
 OpenBabel11042416493D

 29 32  0  0  1  0  0  0  0  0999 V2000
  192.7020  175.8130  146.7290 C   0  0  0  0  0  3  0  0  0  0  0  0
  191.7120  176.5140  144.6520 C   0  0  0  0  0  3  0  0  0  0  0  0
  192.8480  176.3170  145.4400 C   0  0  0  0  0  0  0  0  0  0  0  0
  190.3240  175.7060  146.4330 N   0  0  0  0  0  0  0  0  0  0  0  0
  188.7450  175.3200  147.0860 Cl  0  0  0  0  0  0  0  0  0  0  0  0
  191.4290  175.5110  147.2150 C   0  0  0  0  0  0  0  0  0  0  0  0
  190.4420  176.2020  145.1590 C   0  0  0  0  0  0  0  0  0  0  0  0
  191.3120  175.0570  148.3850 O   0  0  0  0  0  0  0  0  0  0  0  0
  189.2430  176.4110  144.3230 C   0  0  0  0  0  3  0  0  0  0  0  0
  188.5870  177.5690  144.2720 C   0  0  0  0  0  3  0  0  0  0  0  0
  183.9520  178.1650  142.8100 C   0  0  0  0  0  3  0  0  0  0  0  0
  184.1460  178.2950  140.3740 C   0  0  0  0  0  3  0  0  0  0  0  0
  185.3350  178.0110  142.8560 C   0  0  0  0  0  0  0  0  0  0  0  0
  187.4130  177.8320  142.0960 C   0  0  0  0  0  3  0  0  0  0  0  0
  186.1010  177.9990  141.7200 C   0  0  0  0  0  0  0  0  0  0  0  0
  185.5410  178.1380  140.4540 C   0  0  0  0  0  3  0  0  0  0  0  0
  187.4310  177.7450  143.4500 N   0  0  0  0  0  0  0  0  0  0  0  0
  183.3540  178.3080  141.5440 C   0  0  0  0  0  0  0  0  0  0  0  0
  181.9790  178.4630  141.4450 O   0  0  0  0  0  1  0  0  0  0  0  0
  186.1730  177.8520  143.9360 C   0  0  0  0  0  3  0  0  0  0  0  0
  194.1550  176.6340  144.9530 N   0  0  0  0  0  2  0  0  0  0  0  0
  195.9660  176.6710  143.4550 O   0  0  0  0  0  0  0  0  0  0  0  0
  197.0110  173.1170  143.7480 C   0  0  0  0  0  1  0  0  0  0  0  0
  196.8490  175.6480  143.3100 N   0  0  0  0  0  0  0  0  0  0  0  0
  194.7410  176.0250  143.7660 C   0  0  1  0  0  3  0  0  0  0  0  0
  196.2870  174.4200  143.7090 C   0  0  0  0  0  0  0  0  0  0  0  0
  195.0340  174.5780  144.0190 C   0  0  0  0  0  3  0  0  0  0  0  0
  197.9340  175.7300  142.3430 C   0  0  0  0  0  2  0  0  0  0  0  0
  197.3840  175.5800  140.9380 C   0  0  0  0  0  1  0  0  0  0  0  0
  1  6  1  0  0  0  0
  2  7  2  0  0  0  0
  2  3  1  0  0  0  0
  3  1  2  0  0  0  0
  4  5  1  0  0  0  0
  4  6  1  0  0  0  0
  6  8  2  0  0  0  0
  7  4  1  0  0  0  0
  9  7  1  0  0  0  0
 10  9  2  0  0  0  0
 11 13  1  0  0  0  0
 12 16  2  0  0  0  0
 12 18  1  0  0  0  0
 13 20  2  0  0  0  0
 14 17  1  0  0  0  0
 15 14  2  0  0  0  0
 15 13  1  0  0  0  0
 16 15  1  0  0  0  0
 17 20  1  0  0  0  0
 17 10  1  0  0  0  0
 18 11  2  0  0  0  0
 19 18  1  0  0  0  0
 21  3  1  0  0  0  0
 22 25  1  0  0  0  0
 24 22  1  0  0  0  0
 24 26  1  0  0  0  0
 25 27  1  0  0  0  0
 25 21  1  1  0  0  0
 26 23  1  0  0  0  0
 26 27  2  0  0  0  0
 28 24  1  0  0  0  0
 29 28  1  0  0  0  0
M  END
>  <MODEL>
1

>  <REMARK>
 VINA RESULT:      -7.4      0.000      0.000
  Name = 
  5 active torsions:
  status: ('A' for Active; 'I' for Inactive)
    1  A    between atoms: C_2  and  C_22
    2  A    between atoms: C_7  and  N_18
    3  A    between atoms: C_10  and  N_17
    4  A    between atoms: C_11  and  N_26
    5  A    between atoms: C_24  and  N_26
                            x       y       z     vdW  Elec       q    Type
                         _______ _______ _______ _____ _____    ______ ____

>  <TORSDO>
F 5

$$$$
=
 OpenBabel11042416493D

 29 32  0  0  1  0  0  0  0  0999 V2000
  193.1190  171.4460  144.1840 C   0  0  0  0  0  3  0  0  0  0  0  0
  192.1930  173.4670  145.1020 C   0  0  0  0  0  3  0  0  0  0  0  0
  193.2630  172.5780  144.9800 C   0  0  0  0  0  0  0  0  0  0  0  0
  190.8730  172.0960  143.6450 N   0  0  0  0  0  0  0  0  0  0  0  0
  189.3760  171.7640  142.7980 Cl  0  0  0  0  0  0  0  0  0  0  0  0
  191.9130  171.2160  143.5200 C   0  0  0  0  0  0  0  0  0  0  0  0
  190.9910  173.2180  144.4250 C   0  0  0  0  0  0  0  0  0  0  0  0
  191.7960  170.1850  142.8040 O   0  0  0  0  0  0  0  0  0  0  0  0
  189.8630  174.1610  144.5550 C   0  0  0  0  0  3  0  0  0  0  0  0
  189.6690  174.9160  145.6350 C   0  0  0  0  0  3  0  0  0  0  0  0
  186.2620  178.2500  144.5150 C   0  0  0  0  0  3  0  0  0  0  0  0
  185.0380  178.5270  146.6160 C   0  0  0  0  0  3  0  0  0  0  0  0
  187.0650  177.3210  145.1700 C   0  0  0  0  0  0  0  0  0  0  0  0
  187.8190  176.0620  146.8370 C   0  0  0  0  0  3  0  0  0  0  0  0
  186.8740  177.0000  146.4880 C   0  0  0  0  0  0  0  0  0  0  0  0
  185.8670  177.5840  147.2500 C   0  0  0  0  0  3  0  0  0  0  0  0
  188.5700  175.8250  145.7330 N   0  0  0  0  0  0  0  0  0  0  0  0
  185.2340  178.8600  145.2570 C   0  0  0  0  0  0  0  0  0  0  0  0
  184.4060  179.7940  144.6500 O   0  0  0  0  0  1  0  0  0  0  0  0
  188.1280  176.5820  144.7020 C   0  0  0  0  0  3  0  0  0  0  0  0
  194.4980  172.8010  145.6680 N   0  0  0  0  0  2  0  0  0  0  0  0
  195.2970  174.2380  143.9880 O   0  0  0  0  0  0  0  0  0  0  0  0
  194.5660  177.4880  145.6340 C   0  0  0  0  0  1  0  0  0  0  0  0
  195.1060  175.5840  143.9900 N   0  0  0  0  0  0  0  0  0  0  0  0
  195.3990  173.9050  145.3640 C   0  0  1  0  0  3  0  0  0  0  0  0
  194.8840  176.0730  145.2910 C   0  0  0  0  0  0  0  0  0  0  0  0
  195.0210  175.1160  146.1610 C   0  0  0  0  0  3  0  0  0  0  0  0
  195.6510  176.4160  142.9280 C   0  0  0  0  0  2  0  0  0  0  0  0
  197.1420  176.6020  143.1330 C   0  0  0  0  0  1  0  0  0  0  0  0
  1  3  2  0  0  0  0
  3  2  1  0  0  0  0
  3 21  1  0  0  0  0
  4  7  1  0  0  0  0
  5  4  1  0  0  0  0
  6  4  1  0  0  0  0
  6  1  1  0  0  0  0
  7  9  1  0  0  0  0
  7  2  2  0  0  0  0
  8  6  2  0  0  0  0
  9 10  2  0  0  0  0
 10 17  1  0  0  0  0
 11 13  1  0  0  0  0
 11 18  2  0  0  0  0
 12 16  2  0  0  0  0
 13 15  1  0  0  0  0
 15 14  2  0  0  0  0
 15 16  1  0  0  0  0
 17 14  1  0  0  0  0
 18 12  1  0  0  0  0
 19 18  1  0  0  0  0
 20 13  2  0  0  0  0
 20 17  1  0  0  0  0
 22 24  1  0  0  0  0
 22 25  1  0  0  0  0
 24 26  1  0  0  0  0
 25 21  1  6  0  0  0
 25 27  1  0  0  0  0
 26 23  1  0  0  0  0
 26 27  2  0  0  0  0
 28 29  1  0  0  0  0
 28 24  1  0  0  0  0
M  END
>  <MODEL>
2

>  <REMARK>
 VINA RESULT:      -7.3      3.132      4.178
  Name = 
  5 active torsions:
  status: ('A' for Active; 'I' for Inactive)
    1  A    between atoms: C_2  and  C_22
    2  A    between atoms: C_7  and  N_18
    3  A    between atoms: C_10  and  N_17
    4  A    between atoms: C_11  and  N_26
    5  A    between atoms: C_24  and  N_26
                            x       y       z     vdW  Elec       q    Type
                         _______ _______ _______ _____ _____    ______ ____

>  <TORSDO>
F 5

$$$$
=
 OpenBabel11042416493D

 29 32  0  0  1  0  0  0  0  0999 V2000
  184.1020  178.3640  142.5810 C   0  0  0  0  0  3  0  0  0  0  0  0
  186.1450  178.1220  143.8270 C   0  0  0  0  0  3  0  0  0  0  0  0
  184.7720  178.3720  143.8000 C   0  0  0  0  0  0  0  0  0  0  0  0
  186.1530  177.8590  141.4440 N   0  0  0  0  0  0  0  0  0  0  0  0
  187.0010  177.5460  139.9430 Cl  0  0  0  0  0  0  0  0  0  0  0  0
  184.8080  178.1050  141.4050 C   0  0  0  0  0  0  0  0  0  0  0  0
  186.8350  177.8620  142.6340 C   0  0  0  0  0  0  0  0  0  0  0  0
  184.1890  178.1030  140.3070 O   0  0  0  0  0  0  0  0  0  0  0  0
  188.2870  177.5970  142.6650 C   0  0  0  0  0  3  0  0  0  0  0  0
  188.9480  177.3110  143.7860 C   0  0  0  0  0  3  0  0  0  0  0  0
  193.4650  176.0820  142.3450 C   0  0  0  0  0  3  0  0  0  0  0  0
  194.8050  176.4070  144.3670 C   0  0  0  0  0  3  0  0  0  0  0  0
  192.3560  176.4910  143.0810 C   0  0  0  0  0  0  0  0  0  0  0  0
  191.1980  177.1970  144.8390 C   0  0  0  0  0  3  0  0  0  0  0  0
  192.4540  176.8450  144.4010 C   0  0  0  0  0  0  0  0  0  0  0  0
  193.6660  176.8160  145.0840 C   0  0  0  0  0  3  0  0  0  0  0  0
  190.3550  177.0540  143.7860 N   0  0  0  0  0  0  0  0  0  0  0  0
  194.7060  176.0410  143.0060 C   0  0  0  0  0  0  0  0  0  0  0  0
  195.8410  175.6390  142.3160 O   0  0  0  0  0  1  0  0  0  0  0  0
  191.0400  176.6240  142.7010 C   0  0  0  0  0  3  0  0  0  0  0  0
  184.0430  178.6490  145.0000 N   0  0  0  0  0  2  0  0  0  0  0  0
  185.2420  176.9570  146.1060 O   0  0  0  0  0  0  0  0  0  0  0  0
  187.1570  179.0810  148.4780 C   0  0  0  0  0  1  0  0  0  0  0  0
  186.2580  177.1940  146.9760 N   0  0  0  0  0  0  0  0  0  0  0  0
  184.3670  178.0580  146.2920 C   0  0  1  0  0  3  0  0  0  0  0  0
  186.1630  178.4780  147.5450 C   0  0  0  0  0  0  0  0  0  0  0  0
  185.0660  179.0610  147.1590 C   0  0  0  0  0  3  0  0  0  0  0  0
  186.9410  176.0960  147.6440 C   0  0  0  0  0  2  0  0  0  0  0  0
  188.2310  175.7730  146.9170 C   0  0  0  0  0  1  0  0  0  0  0  0
  1  3  2  0  0  0  0
  3  2  1  0  0  0  0
  3 21  1  0  0  0  0
  4  7  1  0  0  0  0
  5  4  1  0  0  0  0
  6  4  1  0  0  0  0
  6  1  1  0  0  0  0
  7  9  1  0  0  0  0
  7  2  2  0  0  0  0
  8  6  2  0  0  0  0
  9 10  2  0  0  0  0
 10 17  1  0  0  0  0
 11 18  2  0  0  0  0
 11 13  1  0  0  0  0
 12 16  2  0  0  0  0
 13 15  1  0  0  0  0
 15 14  2  0  0  0  0
 15 16  1  0  0  0  0
 17 14  1  0  0  0  0
 18 12  1  0  0  0  0
 19 18  1  0  0  0  0
 20 13  2  0  0  0  0
 20 17  1  0  0  0  0
 22 25  1  0  0  0  0
 22 24  1  0  0  0  0
 24 26  1  0  0  0  0
 24 28  1  0  0  0  0
 25 21  1  6  0  0  0
 25 27  1  0  0  0  0
 26 23  1  0  0  0  0
 27 26  2  0  0  0  0
 29 28  1  0  0  0  0
M  END
>  <MODEL>
3

>  <REMARK>
 VINA RESULT:      -7.2      3.000      9.325
  Name = 
  5 active torsions:
  status: ('A' for Active; 'I' for Inactive)
    1  A    between atoms: C_2  and  C_22
    2  A    between atoms: C_7  and  N_18
    3  A    between atoms: C_10  and  N_17
    4  A    between atoms: C_11  and  N_26
    5  A    between atoms: C_24  and  N_26
                            x       y       z     vdW  Elec       q    Type
                         _______ _______ _______ _____ _____    ______ ____

>  <TORSDO>
F 5

$$$$
=
 OpenBabel11042416493D

 29 32  0  0  1  0  0  0  0  0999 V2000
  189.8160  176.6820  146.7640 C   0  0  0  0  0  3  0  0  0  0  0  0
  190.6020  176.3460  144.5160 C   0  0  0  0  0  3  0  0  0  0  0  0
  189.5420  176.4660  145.4170 C   0  0  0  0  0  0  0  0  0  0  0  0
  192.1700  176.6590  146.3020 N   0  0  0  0  0  0  0  0  0  0  0  0
  193.8160  176.7770  146.8880 Cl  0  0  0  0  0  0  0  0  0  0  0  0
  191.1400  176.7760  147.1950 C   0  0  0  0  0  0  0  0  0  0  0  0
  191.9250  176.4450  144.9690 C   0  0  0  0  0  0  0  0  0  0  0  0
  191.3730  176.9690  148.4180 O   0  0  0  0  0  0  0  0  0  0  0  0
  193.0430  176.3180  144.0140 C   0  0  0  0  0  3  0  0  0  0  0  0
  192.8990  175.8090  142.7920 C   0  0  0  0  0  3  0  0  0  0  0  0
  195.5690  174.9170  138.7850 C   0  0  0  0  0  3  0  0  0  0  0  0
  197.8250  175.5910  139.4540 C   0  0  0  0  0  3  0  0  0  0  0  0
  195.1420  175.2830  140.0590 C   0  0  0  0  0  0  0  0  0  0  0  0
  195.2870  176.0430  142.1400 C   0  0  0  0  0  3  0  0  0  0  0  0
  196.0070  175.7810  140.9970 C   0  0  0  0  0  0  0  0  0  0  0  0
  197.3630  175.9510  140.7330 C   0  0  0  0  0  3  0  0  0  0  0  0
  193.9990  175.7030  141.8850 N   0  0  0  0  0  0  0  0  0  0  0  0
  196.9350  175.0770  138.4850 C   0  0  0  0  0  0  0  0  0  0  0  0
  197.4100  174.7260  137.2290 O   0  0  0  0  0  1  0  0  0  0  0  0
  193.8870  175.2360  140.6190 C   0  0  0  0  0  3  0  0  0  0  0  0
  188.1820  176.3600  144.9840 N   0  0  0  0  0  2  0  0  0  0  0  0
  186.5680  177.0160  143.4060 O   0  0  0  0  0  0  0  0  0  0  0  0
  184.1660  178.6660  145.7110 C   0  0  0  0  0  1  0  0  0  0  0  0
  185.3490  177.5180  143.7340 N   0  0  0  0  0  0  0  0  0  0  0  0
  187.4200  177.4770  144.4430 C   0  0  1  0  0  3  0  0  0  0  0  0
  185.3560  178.0950  145.0190 C   0  0  0  0  0  0  0  0  0  0  0  0
  186.5600  178.0820  145.5110 C   0  0  0  0  0  3  0  0  0  0  0  0
  184.4080  177.9270  142.7030 C   0  0  0  0  0  2  0  0  0  0  0  0
  185.1580  178.2880  141.4360 C   0  0  0  0  0  1  0  0  0  0  0  0
  1  6  1  0  0  0  0
  2  7  2  0  0  0  0
  2  3  1  0  0  0  0
  3  1  2  0  0  0  0
  4  5  1  0  0  0  0
  4  6  1  0  0  0  0
  6  8  2  0  0  0  0
  7  4  1  0  0  0  0
  9  7  1  0  0  0  0
 10  9  2  0  0  0  0
 11 13  1  0  0  0  0
 12 16  2  0  0  0  0
 13 20  2  0  0  0  0
 13 15  1  0  0  0  0
 15 14  2  0  0  0  0
 16 15  1  0  0  0  0
 17 14  1  0  0  0  0
 17 10  1  0  0  0  0
 18 11  2  0  0  0  0
 18 12  1  0  0  0  0
 19 18  1  0  0  0  0
 20 17  1  0  0  0  0
 21  3  1  0  0  0  0
 22 24  1  0  0  0  0
 22 25  1  0  0  0  0
 24 26  1  0  0  0  0
 25 21  1  1  0  0  0
 25 27  1  0  0  0  0
 26 27  2  0  0  0  0
 26 23  1  0  0  0  0
 28 24  1  0  0  0  0
 29 28  1  0  0  0  0
M  END
>  <MODEL>
4

>  <REMARK>
 VINA RESULT:      -6.8      2.589      9.404
  Name = 
  5 active torsions:
  status: ('A' for Active; 'I' for Inactive)
    1  A    between atoms: C_2  and  C_22
    2  A    between atoms: C_7  and  N_18
    3  A    between atoms: C_10  and  N_17
    4  A    between atoms: C_11  and  N_26
    5  A    between atoms: C_24  and  N_26
                            x       y       z     vdW  Elec       q    Type
                         _______ _______ _______ _____ _____    ______ ____

>  <TORSDO>
F 5

$$$$
=
 OpenBabel11042416493D

 29 32  0  0  1  0  0  0  0  0999 V2000
  195.2870  175.6170  143.5920 C   0  0  0  0  0  3  0  0  0  0  0  0
  193.1660  176.5640  142.9680 C   0  0  0  0  0  3  0  0  0  0  0  0
  194.4570  176.1620  142.6180 C   0  0  0  0  0  0  0  0  0  0  0  0
  193.5540  175.8740  145.2310 N   0  0  0  0  0  0  0  0  0  0  0  0
  193.0140  175.6880  146.8870 Cl  0  0  0  0  0  0  0  0  0  0  0  0
  194.8220  175.4790  144.9000 C   0  0  0  0  0  0  0  0  0  0  0  0
  192.7170  176.4140  144.2880 C   0  0  0  0  0  0  0  0  0  0  0  0
  195.5860  174.9860  145.7730 O   0  0  0  0  0  0  0  0  0  0  0  0
  191.3520  176.8390  144.6550 C   0  0  0  0  0  3  0  0  0  0  0  0
  190.2780  176.0760  144.4590 C   0  0  0  0  0  3  0  0  0  0  0  0
  185.9090  178.2890  144.4000 C   0  0  0  0  0  3  0  0  0  0  0  0
  184.8810  177.5540  146.4950 C   0  0  0  0  0  3  0  0  0  0  0  0
  187.0240  177.5290  144.7450 C   0  0  0  0  0  0  0  0  0  0  0  0
  188.2960  176.1730  145.9580 C   0  0  0  0  0  3  0  0  0  0  0  0
  187.0770  176.8080  145.9090 C   0  0  0  0  0  0  0  0  0  0  0  0
  186.0210  176.7950  146.8160 C   0  0  0  0  0  3  0  0  0  0  0  0
  188.9670  176.5110  144.8290 N   0  0  0  0  0  0  0  0  0  0  0  0
  184.8240  178.2980  145.2960 C   0  0  0  0  0  0  0  0  0  0  0  0
  183.6910  179.0410  144.9980 O   0  0  0  0  0  1  0  0  0  0  0  0
  188.2090  177.3390  144.0720 C   0  0  0  0  0  3  0  0  0  0  0  0
  194.9450  176.3110  141.2810 N   0  0  0  0  0  2  0  0  0  0  0  0
  194.5260  175.1490  139.2810 O   0  0  0  0  0  0  0  0  0  0  0  0
  197.9390  175.2920  137.8210 C   0  0  0  0  0  1  0  0  0  0  0  0
  195.4130  175.0620  138.2560 N   0  0  0  0  0  0  0  0  0  0  0  0
  195.3440  175.1900  140.4410 C   0  0  1  0  0  3  0  0  0  0  0  0
  196.7360  175.2490  138.7000 C   0  0  0  0  0  0  0  0  0  0  0  0
  196.7650  175.3570  139.9960 C   0  0  0  0  0  3  0  0  0  0  0  0
  195.0950  174.3040  137.0560 C   0  0  0  0  0  2  0  0  0  0  0  0
  194.8750  172.8460  137.4110 C   0  0  0  0  0  1  0  0  0  0  0  0
  1  6  1  0  0  0  0
  2  7  2  0  0  0  0
  3  2  1  0  0  0  0
  3  1  2  0  0  0  0
  4  5  1  0  0  0  0
  6  4  1  0  0  0  0
  6  8  2  0  0  0  0
  7  9  1  0  0  0  0
  7  4  1  0  0  0  0
 10  9  2  0  0  0  0
 10 17  1  0  0  0  0
 11 13  1  0  0  0  0
 11 18  2  0  0  0  0
 12 16  2  0  0  0  0
 13 15  1  0  0  0  0
 15 14  2  0  0  0  0
 15 16  1  0  0  0  0
 17 14  1  0  0  0  0
 18 12  1  0  0  0  0
 19 18  1  0  0  0  0
 20 13  2  0  0  0  0
 20 17  1  0  0  0  0
 21  3  1  0  0  0  0
 22 25  1  0  0  0  0
 23 26  1  0  0  0  0
 24 26  1  0  0  0  0
 24 22  1  0  0  0  0
 25 21  1  1  0  0  0
 26 27  2  0  0  0  0
 27 25  1  0  0  0  0
 28 29  1  0  0  0  0
 28 24  1  0  0  0  0
M  END
>  <MODEL>
5

>  <REMARK>
 VINA RESULT:      -6.7      2.743      4.242
  Name = 
  5 active torsions:
  status: ('A' for Active; 'I' for Inactive)
    1  A    between atoms: C_2  and  C_22
    2  A    between atoms: C_7  and  N_18
    3  A    between atoms: C_10  and  N_17
    4  A    between atoms: C_11  and  N_26
    5  A    between atoms: C_24  and  N_26
                            x       y       z     vdW  Elec       q    Type
                         _______ _______ _______ _____ _____    ______ ____

>  <TORSDO>
F 5

$$$$
=
 OpenBabel11042416493D

 29 32  0  0  1  0  0  0  0  0999 V2000
  193.0690  172.7520  141.7460 C   0  0  0  0  0  3  0  0  0  0  0  0
  192.0830  174.8340  142.4370 C   0  0  0  0  0  3  0  0  0  0  0  0
  193.1680  174.1300  141.9090 C   0  0  0  0  0  0  0  0  0  0  0  0
  190.8370  172.7940  142.6220 N   0  0  0  0  0  0  0  0  0  0  0  0
  189.3830  171.9260  143.0700 Cl  0  0  0  0  0  0  0  0  0  0  0  0
  191.8940  172.0930  142.1080 C   0  0  0  0  0  0  0  0  0  0  0  0
  190.9100  174.1530  142.7930 C   0  0  0  0  0  0  0  0  0  0  0  0
  191.8200  170.8440  141.9570 O   0  0  0  0  0  0  0  0  0  0  0  0
  189.7650  174.9000  143.3500 C   0  0  0  0  0  3  0  0  0  0  0  0
  189.6140  175.1310  144.6530 C   0  0  0  0  0  3  0  0  0  0  0  0
  185.5170  177.8010  144.9250 C   0  0  0  0  0  3  0  0  0  0  0  0
  185.1640  178.0390  147.3350 C   0  0  0  0  0  3  0  0  0  0  0  0
  186.6570  177.0590  145.2220 C   0  0  0  0  0  0  0  0  0  0  0  0
  188.1970  176.0620  146.4720 C   0  0  0  0  0  3  0  0  0  0  0  0
  187.0450  176.8120  146.5120 C   0  0  0  0  0  0  0  0  0  0  0  0
  186.3220  177.2870  147.6020 C   0  0  0  0  0  3  0  0  0  0  0  0
  188.4970  175.8620  145.1640 N   0  0  0  0  0  0  0  0  0  0  0  0
  184.7630  178.2960  146.0050 C   0  0  0  0  0  0  0  0  0  0  0  0
  183.6180  179.0420  145.7600 O   0  0  0  0  0  1  0  0  0  0  0  0
  187.5700  176.4620  144.3820 C   0  0  0  0  0  3  0  0  0  0  0  0
  194.3800  174.7970  141.5460 N   0  0  0  0  0  2  0  0  0  0  0  0
  194.4250  176.2860  143.3630 O   0  0  0  0  0  0  0  0  0  0  0  0
  196.3240  174.1840  145.7670 C   0  0  0  0  0  1  0  0  0  0  0  0
  194.8520  175.9480  144.6080 N   0  0  0  0  0  0  0  0  0  0  0  0
  195.2290  175.4990  142.4990 C   0  0  1  0  0  3  0  0  0  0  0  0
  195.7350  174.8510  144.5720 C   0  0  0  0  0  0  0  0  0  0  0  0
  195.9850  174.5160  143.3410 C   0  0  0  0  0  3  0  0  0  0  0  0
  194.8750  176.9300  145.6810 C   0  0  0  0  0  2  0  0  0  0  0  0
  193.7050  176.6970  146.6170 C   0  0  0  0  0  1  0  0  0  0  0  0
  1  3  2  0  0  0  0
  1  6  1  0  0  0  0
  2  7  2  0  0  0  0
  3  2  1  0  0  0  0
  4  7  1  0  0  0  0
  4  5  1  0  0  0  0
  6  4  1  0  0  0  0
  7  9  1  0  0  0  0
  8  6  2  0  0  0  0
  9 10  2  0  0  0  0
 10 17  1  0  0  0  0
 11 13  1  0  0  0  0
 11 18  2  0  0  0  0
 12 16  2  0  0  0  0
 13 15  1  0  0  0  0
 14 15  2  0  0  0  0
 15 16  1  0  0  0  0
 17 14  1  0  0  0  0
 18 12  1  0  0  0  0
 19 18  1  0  0  0  0
 20 17  1  0  0  0  0
 20 13  2  0  0  0  0
 21  3  1  0  0  0  0
 22 24  1  0  0  0  0
 24 28  1  0  0  0  0
 25 21  1  6  0  0  0
 25 27  1  0  0  0  0
 25 22  1  0  0  0  0
 26 24  1  0  0  0  0
 26 23  1  0  0  0  0
 27 26  2  0  0  0  0
 28 29  1  0  0  0  0
M  END
>  <MODEL>
6

>  <REMARK>
 VINA RESULT:      -6.7      3.077      4.364
  Name = 
  5 active torsions:
  status: ('A' for Active; 'I' for Inactive)
    1  A    between atoms: C_2  and  C_22
    2  A    between atoms: C_7  and  N_18
    3  A    between atoms: C_10  and  N_17
    4  A    between atoms: C_11  and  N_26
    5  A    between atoms: C_24  and  N_26
                            x       y       z     vdW  Elec       q    Type
                         _______ _______ _______ _____ _____    ______ ____

>  <TORSDO>
F 5

$$$$
=
 OpenBabel11042416493D

 29 32  0  0  1  0  0  0  0  0999 V2000
  194.4850  173.2070  145.1300 C   0  0  0  0  0  3  0  0  0  0  0  0
  192.0910  173.3940  144.9920 C   0  0  0  0  0  3  0  0  0  0  0  0
  193.2600  172.6710  144.7460 C   0  0  0  0  0  0  0  0  0  0  0  0
  193.3780  175.1520  145.9930 N   0  0  0  0  0  0  0  0  0  0  0  0
  193.4820  176.7160  146.7750 Cl  0  0  0  0  0  0  0  0  0  0  0  0
  194.5300  174.4540  145.7550 C   0  0  0  0  0  0  0  0  0  0  0  0
  192.1590  174.6440  145.6230 C   0  0  0  0  0  0  0  0  0  0  0  0
  195.6470  174.9280  146.0960 O   0  0  0  0  0  0  0  0  0  0  0  0
  190.9210  175.4060  145.8830 C   0  0  0  0  0  3  0  0  0  0  0  0
  189.7430  175.0780  145.3550 C   0  0  0  0  0  3  0  0  0  0  0  0
  185.7000  177.7820  144.7810 C   0  0  0  0  0  3  0  0  0  0  0  0
  184.9060  178.0950  147.0740 C   0  0  0  0  0  3  0  0  0  0  0  0
  186.7560  177.0420  145.3060 C   0  0  0  0  0  0  0  0  0  0  0  0
  188.0230  176.0730  146.8510 C   0  0  0  0  0  3  0  0  0  0  0  0
  186.8920  176.8310  146.6530 C   0  0  0  0  0  0  0  0  0  0  0  0
  185.9840  177.3440  147.5750 C   0  0  0  0  0  3  0  0  0  0  0  0
  188.5590  175.8320  145.6280 N   0  0  0  0  0  0  0  0  0  0  0  0
  184.7640  178.3150  145.6860 C   0  0  0  0  0  0  0  0  0  0  0  0
  183.6940  179.0600  145.2110 O   0  0  0  0  0  1  0  0  0  0  0  0
  187.8020  176.4140  144.6700 C   0  0  0  0  0  3  0  0  0  0  0  0
  193.2230  171.3970  144.0950 N   0  0  0  0  0  2  0  0  0  0  0  0
  191.2950  171.3300  142.7530 O   0  0  0  0  0  0  0  0  0  0  0  0
  192.3020  173.8300  140.1950 C   0  0  0  0  0  1  0  0  0  0  0  0
  191.0430  172.2060  141.7450 N   0  0  0  0  0  0  0  0  0  0  0  0
  192.7080  171.1970  142.7470 C   0  0  1  0  0  3  0  0  0  0  0  0
  192.2300  172.7770  141.2480 C   0  0  0  0  0  0  0  0  0  0  0  0
  193.2640  172.2350  141.8210 C   0  0  0  0  0  3  0  0  0  0  0  0
  189.8380  172.0890  140.9380 C   0  0  0  0  0  2  0  0  0  0  0  0
  188.7660  173.0170  141.4760 C   0  0  0  0  0  1  0  0  0  0  0  0
  1  6  1  0  0  0  0
  2  7  2  0  0  0  0
  3  2  1  0  0  0  0
  3  1  2  0  0  0  0
  4  5  1  0  0  0  0
  6  4  1  0  0  0  0
  6  8  2  0  0  0  0
  7  9  1  0  0  0  0
  7  4  1  0  0  0  0
 10 17  1  0  0  0  0
 10  9  2  0  0  0  0
 11 13  1  0  0  0  0
 11 18  2  0  0  0  0
 12 16  2  0  0  0  0
 13 15  1  0  0  0  0
 15 14  2  0  0  0  0
 15 16  1  0  0  0  0
 17 14  1  0  0  0  0
 18 12  1  0  0  0  0
 19 18  1  0  0  0  0
 20 13  2  0  0  0  0
 20 17  1  0  0  0  0
 21  3  1  0  0  0  0
 23 26  1  0  0  0  0
 24 22  1  0  0  0  0
 25 22  1  0  0  0  0
 25 21  1  1  0  0  0
 26 24  1  0  0  0  0
 26 27  2  0  0  0  0
 27 25  1  0  0  0  0
 28 29  1  0  0  0  0
 28 24  1  0  0  0  0
M  END
>  <MODEL>
7

>  <REMARK>
 VINA RESULT:      -6.7      3.597      5.043
  Name = 
  5 active torsions:
  status: ('A' for Active; 'I' for Inactive)
    1  A    between atoms: C_2  and  C_22
    2  A    between atoms: C_7  and  N_18
    3  A    between atoms: C_10  and  N_17
    4  A    between atoms: C_11  and  N_26
    5  A    between atoms: C_24  and  N_26
                            x       y       z     vdW  Elec       q    Type
                         _______ _______ _______ _____ _____    ______ ____

>  <TORSDO>
F 5

$$$$
=
 OpenBabel11042416493D

 29 32  0  0  1  0  0  0  0  0999 V2000
  188.4270  177.5740  145.0980 C   0  0  0  0  0  3  0  0  0  0  0  0
  186.8550  177.7520  143.2870 C   0  0  0  0  0  3  0  0  0  0  0  0
  188.1640  177.5600  143.7320 C   0  0  0  0  0  0  0  0  0  0  0  0
  186.1040  177.9630  145.5540 N   0  0  0  0  0  0  0  0  0  0  0  0
  184.8260  178.2230  146.7230 Cl  0  0  0  0  0  0  0  0  0  0  0  0
  187.3830  177.7780  146.0020 C   0  0  0  0  0  0  0  0  0  0  0  0
  185.8200  177.9540  144.2120 C   0  0  0  0  0  0  0  0  0  0  0  0
  187.6360  177.7910  147.2360 O   0  0  0  0  0  0  0  0  0  0  0  0
  184.4370  178.1570  143.7380 C   0  0  0  0  0  3  0  0  0  0  0  0
  184.1040  178.1530  142.4480 C   0  0  0  0  0  3  0  0  0  0  0  0
  180.0130  178.0900  139.7570 C   0  0  0  0  0  3  0  0  0  0  0  0
  178.3870  179.2330  141.1840 C   0  0  0  0  0  3  0  0  0  0  0  0
  180.9530  178.2870  140.7650 C   0  0  0  0  0  0  0  0  0  0  0  0
  181.7680  178.9630  142.7160 C   0  0  0  0  0  3  0  0  0  0  0  0
  180.6370  178.9260  141.9340 C   0  0  0  0  0  0  0  0  0  0  0  0
  179.3590  179.4170  142.1830 C   0  0  0  0  0  3  0  0  0  0  0  0
  182.7550  178.3470  142.0170 N   0  0  0  0  0  0  0  0  0  0  0  0
  178.7110  178.5740  139.9770 C   0  0  0  0  0  0  0  0  0  0  0  0
  177.7380  178.4030  139.0010 O   0  0  0  0  0  1  0  0  0  0  0  0
  182.2800  177.9260  140.8220 C   0  0  0  0  0  3  0  0  0  0  0  0
  189.2410  177.3610  142.8110 N   0  0  0  0  0  2  0  0  0  0  0  0
  191.2050  176.3250  143.5820 O   0  0  0  0  0  0  0  0  0  0  0  0
  189.6920  173.2540  145.0260 C   0  0  0  0  0  1  0  0  0  0  0  0
  191.2170  175.2220  144.3750 N   0  0  0  0  0  0  0  0  0  0  0  0
  190.0520  176.1520  142.7710 C   0  0  1  0  0  3  0  0  0  0  0  0
  190.0310  174.4750  144.2410 C   0  0  0  0  0  0  0  0  0  0  0  0
  189.2770  174.9900  143.3150 C   0  0  0  0  0  3  0  0  0  0  0  0
  192.4730  174.6190  144.7950 C   0  0  0  0  0  2  0  0  0  0  0  0
  192.9070  175.2050  146.1240 C   0  0  0  0  0  1  0  0  0  0  0  0
  1  6  1  0  0  0  0
  2  3  1  0  0  0  0
  2  7  2  0  0  0  0
  3  1  2  0  0  0  0
  4  6  1  0  0  0  0
  4  5  1  0  0  0  0
  6  8  2  0  0  0  0
  7  4  1  0  0  0  0
  9  7  1  0  0  0  0
 10  9  2  0  0  0  0
 11 18  2  0  0  0  0
 11 13  1  0  0  0  0
 12 16  2  0  0  0  0
 13 20  2  0  0  0  0
 13 15  1  0  0  0  0
 15 16  1  0  0  0  0
 15 14  2  0  0  0  0
 17 10  1  0  0  0  0
 17 14  1  0  0  0  0
 18 12  1  0  0  0  0
 19 18  1  0  0  0  0
 20 17  1  0  0  0  0
 21  3  1  0  0  0  0
 22 24  1  0  0  0  0
 24 28  1  0  0  0  0
 25 21  1  1  0  0  0
 25 27  1  0  0  0  0
 25 22  1  0  0  0  0
 26 24  1  0  0  0  0
 26 23  1  0  0  0  0
 27 26  2  0  0  0  0
 28 29  1  0  0  0  0
M  END
>  <MODEL>
8

>  <REMARK>
 VINA RESULT:      -6.6      3.287      5.427
  Name = 
  5 active torsions:
  status: ('A' for Active; 'I' for Inactive)
    1  A    between atoms: C_2  and  C_22
    2  A    between atoms: C_7  and  N_18
    3  A    between atoms: C_10  and  N_17
    4  A    between atoms: C_11  and  N_26
    5  A    between atoms: C_24  and  N_26
                            x       y       z     vdW  Elec       q    Type
                         _______ _______ _______ _____ _____    ______ ____

>  <TORSDO>
F 5

$$$$
=
 OpenBabel11042416493D

 29 32  0  0  1  0  0  0  0  0999 V2000
  192.1580  172.4810  140.4260 C   0  0  0  0  0  3  0  0  0  0  0  0
  191.6160  174.0140  142.1980 C   0  0  0  0  0  3  0  0  0  0  0  0
  192.5690  173.2850  141.4850 C   0  0  0  0  0  0  0  0  0  0  0  0
  189.8800  173.1350  140.7970 N   0  0  0  0  0  0  0  0  0  0  0  0
  188.1910  173.0160  140.3470 Cl  0  0  0  0  0  0  0  0  0  0  0  0
  190.8050  172.4140  140.0920 C   0  0  0  0  0  0  0  0  0  0  0  0
  190.2610  173.9340  141.8440 C   0  0  0  0  0  0  0  0  0  0  0  0
  190.4470  171.6790  139.1320 O   0  0  0  0  0  0  0  0  0  0  0  0
  189.2560  174.7070  142.6000 C   0  0  0  0  0  3  0  0  0  0  0  0
  189.2120  176.0380  142.5980 C   0  0  0  0  0  3  0  0  0  0  0  0
  186.1660  177.4620  146.1580 C   0  0  0  0  0  3  0  0  0  0  0  0
  185.0500  179.4150  145.1920 C   0  0  0  0  0  3  0  0  0  0  0  0
  186.8800  177.3510  144.9680 C   0  0  0  0  0  0  0  0  0  0  0  0
  187.5410  177.8530  142.9090 C   0  0  0  0  0  3  0  0  0  0  0  0
  186.6980  178.2260  143.9300 C   0  0  0  0  0  0  0  0  0  0  0  0
  185.7870  179.2760  144.0020 C   0  0  0  0  0  3  0  0  0  0  0  0
  188.2240  176.7620  143.3360 N   0  0  0  0  0  0  0  0  0  0  0  0
  185.2360  178.5140  146.2640 C   0  0  0  0  0  0  0  0  0  0  0  0
  184.4990  178.6660  147.4300 O   0  0  0  0  0  1  0  0  0  0  0  0
  187.8370  176.4370  144.5910 C   0  0  0  0  0  3  0  0  0  0  0  0
  193.9570  173.3390  141.8280 N   0  0  0  0  0  2  0  0  0  0  0  0
  195.6090  173.2810  143.5000 O   0  0  0  0  0  0  0  0  0  0  0  0
  196.8960  176.7480  143.1390 C   0  0  0  0  0  1  0  0  0  0  0  0
  196.5350  174.2580  143.6830 N   0  0  0  0  0  0  0  0  0  0  0  0
  194.4620  173.9780  143.0370 C   0  0  1  0  0  3  0  0  0  0  0  0
  196.0930  175.4930  143.1690 C   0  0  0  0  0  0  0  0  0  0  0  0
  194.8680  175.3900  142.7440 C   0  0  0  0  0  3  0  0  0  0  0  0
  197.5140  174.1670  144.7550 C   0  0  0  0  0  2  0  0  0  0  0  0
  196.8230  173.7920  146.0520 C   0  0  0  0  0  1  0  0  0  0  0  0
  1  3  2  0  0  0  0
  3 21  1  0  0  0  0
  3  2  1  0  0  0  0
  4  7  1  0  0  0  0
  5  4  1  0  0  0  0
  6  1  1  0  0  0  0
  6  4  1  0  0  0  0
  7  2  2  0  0  0  0
  7  9  1  0  0  0  0
  8  6  2  0  0  0  0
 10  9  2  0  0  0  0
 10 17  1  0  0  0  0
 11 18  2  0  0  0  0
 12 18  1  0  0  0  0
 13 11  1  0  0  0  0
 14 17  1  0  0  0  0
 14 15  2  0  0  0  0
 15 16  1  0  0  0  0
 15 13  1  0  0  0  0
 16 12  2  0  0  0  0
 17 20  1  0  0  0  0
 18 19  1  0  0  0  0
 20 13  2  0  0  0  0
 22 24  1  0  0  0  0
 23 26  1  0  0  0  0
 24 28  1  0  0  0  0
 25 21  1  6  0  0  0
 25 22  1  0  0  0  0
 26 24  1  0  0  0  0
 27 25  1  0  0  0  0
 27 26  2  0  0  0  0
 28 29  1  0  0  0  0
M  END
>  <MODEL>
9

>  <REMARK>
 VINA RESULT:      -6.6      3.635      4.559
  Name = 
  5 active torsions:
  status: ('A' for Active; 'I' for Inactive)
    1  A    between atoms: C_2  and  C_22
    2  A    between atoms: C_7  and  N_18
    3  A    between atoms: C_10  and  N_17
    4  A    between atoms: C_11  and  N_26
    5  A    between atoms: C_24  and  N_26
                            x       y       z     vdW  Elec       q    Type
                         _______ _______ _______ _____ _____    ______ ____

>  <TORSDO>
F 5

$$$$
