=
 OpenBabel11042414463D

 36 40  0  0  1  0  0  0  0  0999 V2000
  188.4770  174.9120  140.7500 C   0  0  0  0  0  0  0  0  0  0  0  0
  189.5950  174.3890  141.3290 N   0  0  0  0  0  0  0  0  0  0  0  0
  190.1320  173.5840  140.3970 C   0  0  0  0  0  0  0  0  0  0  0  0
  188.3060  174.4240  139.4440 C   0  0  0  0  0  3  0  0  0  0  0  0
  189.7860  172.8140  138.1750 C   0  0  0  0  0  0  0  0  0  0  0  0
  191.6790  172.1120  139.4420 C   0  0  0  0  0  3  0  0  0  0  0  0
  190.9350  172.0870  138.2900 N   0  0  0  0  0  2  0  0  0  0  0  0
  189.3830  173.5780  139.2630 C   0  0  0  0  0  0  0  0  0  0  0  0
  189.1200  172.7910  137.1080 O   0  0  0  0  0  0  0  0  0  0  0  0
  191.2790  172.8680  140.5070 N   0  0  0  0  0  0  0  0  0  0  0  0
  187.5580  175.8910  141.3800 C   0  0  0  0  0  0  0  0  0  0  0  0
  186.4700  178.0680  141.4160 C   0  0  0  0  0  3  0  0  0  0  0  0
  186.8990  175.5630  142.5750 C   0  0  0  0  0  3  0  0  0  0  0  0
  187.3390  177.1560  140.8120 C   0  0  0  0  0  3  0  0  0  0  0  0
  186.0270  176.4730  143.1810 C   0  0  0  0  0  3  0  0  0  0  0  0
  185.8060  177.7240  142.5970 C   0  0  0  0  0  0  0  0  0  0  0  0
  184.8870  178.7000  143.2400 C   0  0  0  0  0  2  0  0  0  0  0  0
  185.6490  179.6290  144.0720 N   0  0  0  0  0  2  0  0  0  0  0  0
  185.4370  179.3530  145.4970 C   0  0  0  0  0  3  0  0  0  0  0  0
  185.9090  177.6200  147.1020 C   0  0  0  0  0  2  0  0  0  0  0  0
  184.1410  178.5940  145.7560 C   0  0  0  0  0  2  0  0  0  0  0  0
  184.5250  177.3550  146.5470 C   0  0  0  0  0  2  0  0  0  0  0  0
  186.5740  178.5470  146.1080 C   0  0  0  0  0  2  0  0  0  0  0  0
  190.1650  173.5150  143.5680 C   0  0  0  0  0  2  0  0  0  0  0  0
  190.7520  173.8980  144.9230 C   0  0  0  0  0  2  0  0  0  0  0  0
  191.5750  175.2970  142.4710 C   0  0  0  0  0  2  0  0  0  0  0  0
  190.1650  174.7270  142.6330 C   0  0  1  0  0  3  0  0  0  0  0  0
  192.1510  175.6650  143.8350 C   0  0  0  0  0  2  0  0  0  0  0  0
  192.1690  174.4390  144.7490 C   0  0  1  0  0  3  0  0  0  0  0  0
  192.7390  174.8100  146.1080 C   0  0  0  0  0  2  0  0  0  0  0  0
  191.6630  175.0950  147.0430 N   0  0  0  0  0  2  0  0  0  0  0  0
  191.5810  176.5420  147.1680 C   0  0  0  0  0  2  0  0  0  0  0  0
  189.8430  178.0270  147.8330 F   0  0  0  0  0  0  0  0  0  0  0  0
  190.0030  177.5530  145.5180 C   0  0  0  0  0  1  0  0  0  0  0  0
  189.2050  175.8670  147.1310 C   0  0  0  0  0  1  0  0  0  0  0  0
  190.1570  177.0270  146.9320 C   0  0  0  0  0  0  0  0  0  0  0  0
  1  2  1  0  0  0  0
  1 11  1  0  0  0  0
  3 10  1  0  0  0  0
  3  2  1  0  0  0  0
  4  1  2  0  0  0  0
  5  7  1  0  0  0  0
  5  8  1  0  0  0  0
  6 10  2  0  0  0  0
  7  6  1  0  0  0  0
  8  4  1  0  0  0  0
  8  3  2  0  0  0  0
  9  5  2  0  0  0  0
 11 13  1  0  0  0  0
 12 16  2  0  0  0  0
 13 15  2  0  0  0  0
 14 11  2  0  0  0  0
 14 12  1  0  0  0  0
 16 15  1  0  0  0  0
 16 17  1  0  0  0  0
 17 18  1  0  0  0  0
 18 19  1  0  0  0  0
 19 21  1  0  0  0  0
 19 23  1  0  0  0  0
 21 22  1  0  0  0  0
 22 20  1  0  0  0  0
 23 20  1  0  0  0  0
 24 25  1  0  0  0  0
 26 27  1  0  0  0  0
 26 28  1  0  0  0  0
 27  2  1  6  0  0  0
 27 24  1  0  0  0  0
 28 29  1  0  0  0  0
 29 25  1  0  0  0  0
 29 30  1  1  0  0  0
 30 31  1  0  0  0  0
 31 32  1  0  0  0  0
 34 36  1  0  0  0  0
 36 35  1  0  0  0  0
 36 32  1  0  0  0  0
 36 33  1  0  0  0  0
M  END
>  <MODEL>
1

>  <REMARK>
 VINA RESULT:      -7.7      0.000      0.000
  Name = 
  9 active torsions:
  status: ('A' for Active; 'I' for Inactive)
    1  A    between atoms: C_1  and  C_3
    2  A    between atoms: N_2  and  C_20
    3  A    between atoms: N_4  and  C_10
    4  A    between atoms: N_4  and  C_15
    5  A    between atoms: C_8  and  N_27
    6  A    between atoms: C_8  and  C_33
    7  A    between atoms: C_10  and  C_34
    8  A    between atoms: C_24  and  N_27
    9  A    between atoms: C_24  and  C_36
                            x       y       z     vdW  Elec       q    Type
                         _______ _______ _______ _____ _____    ______ ____

>  <TORSDO>
F 9

$$$$
=
 OpenBabel11042414463D

 36 40  0  0  1  0  0  0  0  0999 V2000
  188.5090  175.0380  140.9440 C   0  0  0  0  0  0  0  0  0  0  0  0
  189.6680  174.5260  141.4480 N   0  0  0  0  0  0  0  0  0  0  0  0
  190.1470  173.7210  140.4840 C   0  0  0  0  0  0  0  0  0  0  0  0
  188.2540  174.5420  139.6540 C   0  0  0  0  0  3  0  0  0  0  0  0
  189.6570  172.9380  138.2950 C   0  0  0  0  0  0  0  0  0  0  0  0
  191.6370  172.2570  139.4320 C   0  0  0  0  0  3  0  0  0  0  0  0
  190.8170  172.2210  138.3340 N   0  0  0  0  0  2  0  0  0  0  0  0
  189.3220  173.7040  139.4040 C   0  0  0  0  0  0  0  0  0  0  0  0
  188.9200  172.9050  137.2760 O   0  0  0  0  0  0  0  0  0  0  0  0
  191.3050  173.0150  140.5200 N   0  0  0  0  0  0  0  0  0  0  0  0
  187.6270  176.0130  141.6310 C   0  0  0  0  0  0  0  0  0  0  0  0
  186.8240  178.2860  141.9640 C   0  0  0  0  0  3  0  0  0  0  0  0
  186.7470  175.5750  142.6320 C   0  0  0  0  0  3  0  0  0  0  0  0
  187.6610  177.3790  141.3100 C   0  0  0  0  0  3  0  0  0  0  0  0
  185.9060  176.4800  143.2870 C   0  0  0  0  0  3  0  0  0  0  0  0
  185.9400  177.8360  142.9480 C   0  0  0  0  0  0  0  0  0  0  0  0
  185.0550  178.8060  143.6470 C   0  0  0  0  0  2  0  0  0  0  0  0
  185.8340  179.5960  144.5990 N   0  0  0  0  0  2  0  0  0  0  0  0
  185.6840  179.0750  145.9610 C   0  0  0  0  0  3  0  0  0  0  0  0
  186.1700  177.0700  147.2050 C   0  0  0  0  0  2  0  0  0  0  0  0
  184.3740  178.3190  146.1540 C   0  0  0  0  0  2  0  0  0  0  0  0
  184.7500  176.9480  146.6900 C   0  0  0  0  0  2  0  0  0  0  0  0
  186.8180  178.1410  146.3550 C   0  0  0  0  0  2  0  0  0  0  0  0
  190.4860  176.3910  142.8440 C   0  0  0  0  0  2  0  0  0  0  0  0
  191.1830  176.7270  144.1600 C   0  0  0  0  0  2  0  0  0  0  0  0
  189.5500  174.2960  143.8940 C   0  0  0  0  0  2  0  0  0  0  0  0
  190.3230  174.8760  142.7080 C   0  0  1  0  0  3  0  0  0  0  0  0
  190.2540  174.6490  145.2000 C   0  0  0  0  0  2  0  0  0  0  0  0
  190.3870  176.1670  145.3350 C   0  0  1  0  0  3  0  0  0  0  0  0
  191.0930  176.5150  146.6360 C   0  0  0  0  0  2  0  0  0  0  0  0
  192.1640  175.5670  146.8960 N   0  0  0  0  0  2  0  0  0  0  0  0
  193.4180  176.2860  146.7280 C   0  0  0  0  0  2  0  0  0  0  0  0
  195.5160  175.1640  146.6570 F   0  0  0  0  0  0  0  0  0  0  0  0
  193.7530  174.1910  145.4100 C   0  0  0  0  0  1  0  0  0  0  0  0
  194.8320  176.2930  144.7020 C   0  0  0  0  0  1  0  0  0  0  0  0
  194.4020  175.4720  145.8990 C   0  0  0  0  0  0  0  0  0  0  0  0
  1  2  1  0  0  0  0
  1 11  1  0  0  0  0
  3 10  1  0  0  0  0
  3  2  1  0  0  0  0
  4  1  2  0  0  0  0
  5  7  1  0  0  0  0
  5  8  1  0  0  0  0
  6 10  2  0  0  0  0
  7  6  1  0  0  0  0
  8  4  1  0  0  0  0
  8  3  2  0  0  0  0
  9  5  2  0  0  0  0
 11 13  1  0  0  0  0
 12 16  2  0  0  0  0
 13 15  2  0  0  0  0
 14 11  2  0  0  0  0
 14 12  1  0  0  0  0
 16 15  1  0  0  0  0
 16 17  1  0  0  0  0
 17 18  1  0  0  0  0
 18 19  1  0  0  0  0
 19 21  1  0  0  0  0
 19 23  1  0  0  0  0
 21 22  1  0  0  0  0
 22 20  1  0  0  0  0
 23 20  1  0  0  0  0
 24 25  1  0  0  0  0
 25 29  1  0  0  0  0
 26 28  1  0  0  0  0
 27  2  1  6  0  0  0
 27 24  1  0  0  0  0
 27 26  1  0  0  0  0
 28 29  1  0  0  0  0
 29 30  1  1  0  0  0
 30 31  1  0  0  0  0
 32 31  1  0  0  0  0
 34 36  1  0  0  0  0
 35 36  1  0  0  0  0
 36 33  1  0  0  0  0
 36 32  1  0  0  0  0
M  END
>  <MODEL>
2

>  <REMARK>
 VINA RESULT:      -7.6      1.412      2.223
  Name = 
  9 active torsions:
  status: ('A' for Active; 'I' for Inactive)
    1  A    between atoms: C_1  and  C_3
    2  A    between atoms: N_2  and  C_20
    3  A    between atoms: N_4  and  C_10
    4  A    between atoms: N_4  and  C_15
    5  A    between atoms: C_8  and  N_27
    6  A    between atoms: C_8  and  C_33
    7  A    between atoms: C_10  and  C_34
    8  A    between atoms: C_24  and  N_27
    9  A    between atoms: C_24  and  C_36
                            x       y       z     vdW  Elec       q    Type
                         _______ _______ _______ _____ _____    ______ ____

>  <TORSDO>
F 9

$$$$
=
 OpenBabel11042414463D

 36 40  0  0  1  0  0  0  0  0999 V2000
  191.6780  176.2670  143.3720 C   0  0  0  0  0  0  0  0  0  0  0  0
  191.8940  175.9580  144.6810 N   0  0  0  0  0  0  0  0  0  0  0  0
  193.2250  175.8110  144.7950 C   0  0  0  0  0  0  0  0  0  0  0  0
  192.8850  176.3060  142.6530 C   0  0  0  0  0  3  0  0  0  0  0  0
  195.2270  175.9110  143.5190 C   0  0  0  0  0  0  0  0  0  0  0  0
  195.2770  175.4320  145.8520 C   0  0  0  0  0  3  0  0  0  0  0  0
  195.9210  175.6200  144.6570 N   0  0  0  0  0  2  0  0  0  0  0  0
  193.8440  176.0050  143.6010 C   0  0  0  0  0  0  0  0  0  0  0  0
  195.8320  176.0920  142.4300 O   0  0  0  0  0  0  0  0  0  0  0  0
  193.9160  175.5300  145.9280 N   0  0  0  0  0  0  0  0  0  0  0  0
  190.3570  176.5570  142.7610 C   0  0  0  0  0  0  0  0  0  0  0  0
  188.6430  178.1320  142.0530 C   0  0  0  0  0  3  0  0  0  0  0  0
  189.5470  175.5030  142.3140 C   0  0  0  0  0  3  0  0  0  0  0  0
  189.8880  177.8740  142.6300 C   0  0  0  0  0  3  0  0  0  0  0  0
  188.3010  175.7580  141.7330 C   0  0  0  0  0  3  0  0  0  0  0  0
  187.8510  177.0750  141.5960 C   0  0  0  0  0  0  0  0  0  0  0  0
  186.5230  177.3540  140.9870 C   0  0  0  0  0  2  0  0  0  0  0  0
  185.5230  177.5400  142.0370 N   0  0  0  0  0  2  0  0  0  0  0  0
  184.4310  178.4030  141.5750 C   0  0  0  0  0  3  0  0  0  0  0  0
  182.0230  178.4160  141.5180 C   0  0  0  0  0  2  0  0  0  0  0  0
  183.9980  178.0810  140.1490 C   0  0  0  0  0  2  0  0  0  0  0  0
  182.5010  177.8270  140.2070 C   0  0  0  0  0  2  0  0  0  0  0  0
  183.2000  178.3090  142.4640 C   0  0  0  0  0  2  0  0  0  0  0  0
  190.0690  177.2010  145.7860 C   0  0  0  0  0  2  0  0  0  0  0  0
  189.0610  177.1450  146.9310 C   0  0  0  0  0  2  0  0  0  0  0  0
  190.0240  174.6830  145.6440 C   0  0  0  0  0  2  0  0  0  0  0  0
  190.9100  175.9230  145.7640 C   0  0  1  0  0  3  0  0  0  0  0  0
  189.0170  174.6470  146.7890 C   0  0  0  0  0  2  0  0  0  0  0  0
  188.1660  175.9170  146.7840 C   0  0  1  0  0  3  0  0  0  0  0  0
  187.1660  175.8810  147.9280 C   0  0  0  0  0  2  0  0  0  0  0  0
  186.3230  177.0650  147.8970 N   0  0  0  0  0  2  0  0  0  0  0  0
  185.6500  177.0730  146.6060 C   0  0  0  0  0  2  0  0  0  0  0  0
  186.2190  178.7100  144.9740 F   0  0  0  0  0  0  0  0  0  0  0  0
  183.9940  178.7520  145.7850 C   0  0  0  0  0  1  0  0  0  0  0  0
  185.8950  179.4620  147.1860 C   0  0  0  0  0  1  0  0  0  0  0  0
  185.4550  178.4980  146.1060 C   0  0  0  0  0  0  0  0  0  0  0  0
  1  2  1  0  0  0  0
  2  3  1  0  0  0  0
  3 10  1  0  0  0  0
  4  1  2  0  0  0  0
  4  8  1  0  0  0  0
  5  8  1  0  0  0  0
  5  7  1  0  0  0  0
  6 10  2  0  0  0  0
  7  6  1  0  0  0  0
  8  3  2  0  0  0  0
  9  5  2  0  0  0  0
 11  1  1  0  0  0  0
 12 14  2  0  0  0  0
 13 11  2  0  0  0  0
 14 11  1  0  0  0  0
 15 13  1  0  0  0  0
 16 15  2  0  0  0  0
 16 12  1  0  0  0  0
 17 16  1  0  0  0  0
 17 18  1  0  0  0  0
 19 18  1  0  0  0  0
 19 23  1  0  0  0  0
 20 23  1  0  0  0  0
 21 22  1  0  0  0  0
 21 19  1  0  0  0  0
 22 20  1  0  0  0  0
 24 25  1  0  0  0  0
 26 27  1  0  0  0  0
 26 28  1  0  0  0  0
 27  2  1  6  0  0  0
 27 24  1  0  0  0  0
 29 28  1  0  0  0  0
 29 25  1  0  0  0  0
 29 30  1  1  0  0  0
 31 30  1  0  0  0  0
 32 31  1  0  0  0  0
 33 36  1  0  0  0  0
 34 36  1  0  0  0  0
 36 32  1  0  0  0  0
 36 35  1  0  0  0  0
M  END
>  <MODEL>
3

>  <REMARK>
 VINA RESULT:      -7.4      3.091      5.360
  Name = 
  9 active torsions:
  status: ('A' for Active; 'I' for Inactive)
    1  A    between atoms: C_1  and  C_3
    2  A    between atoms: N_2  and  C_20
    3  A    between atoms: N_4  and  C_10
    4  A    between atoms: N_4  and  C_15
    5  A    between atoms: C_8  and  N_27
    6  A    between atoms: C_8  and  C_33
    7  A    between atoms: C_10  and  C_34
    8  A    between atoms: C_24  and  N_27
    9  A    between atoms: C_24  and  C_36
                            x       y       z     vdW  Elec       q    Type
                         _______ _______ _______ _____ _____    ______ ____

>  <TORSDO>
F 9

$$$$
=
 OpenBabel11042414463D

 36 40  0  0  1  0  0  0  0  0999 V2000
  187.2010  176.3210  143.1800 C   0  0  0  0  0  0  0  0  0  0  0  0
  187.3360  176.9210  144.3960 N   0  0  0  0  0  0  0  0  0  0  0  0
  186.2490  177.7010  144.5280 C   0  0  0  0  0  0  0  0  0  0  0  0
  186.0220  176.7350  142.5370 C   0  0  0  0  0  3  0  0  0  0  0  0
  184.2650  178.3410  143.3880 C   0  0  0  0  0  0  0  0  0  0  0  0
  184.7670  179.1880  145.5580 C   0  0  0  0  0  3  0  0  0  0  0  0
  183.9470  179.1230  144.4610 N   0  0  0  0  0  2  0  0  0  0  0  0
  185.4490  177.6170  143.4330 C   0  0  0  0  0  0  0  0  0  0  0  0
  183.4980  178.2810  142.3920 O   0  0  0  0  0  0  0  0  0  0  0  0
  185.9290  178.4710  145.5980 N   0  0  0  0  0  0  0  0  0  0  0  0
  188.1440  175.3360  142.5960 C   0  0  0  0  0  0  0  0  0  0  0  0
  190.3350  174.7590  141.7080 C   0  0  0  0  0  3  0  0  0  0  0  0
  187.7220  174.0180  142.3600 C   0  0  0  0  0  3  0  0  0  0  0  0
  189.4570  175.6970  142.2570 C   0  0  0  0  0  3  0  0  0  0  0  0
  188.5980  173.0770  141.8130 C   0  0  0  0  0  3  0  0  0  0  0  0
  189.9090  173.4450  141.4930 C   0  0  0  0  0  0  0  0  0  0  0  0
  190.8440  172.4510  140.9020 C   0  0  0  0  0  2  0  0  0  0  0  0
  190.8420  171.2280  141.7030 N   0  0  0  0  0  2  0  0  0  0  0  0
  191.8710  171.2820  142.7460 C   0  0  0  0  0  3  0  0  0  0  0  0
  192.4510  172.6240  144.6600 C   0  0  0  0  0  2  0  0  0  0  0  0
  193.0510  172.1650  142.3550 C   0  0  0  0  0  2  0  0  0  0  0  0
  193.2120  173.1790  143.4740 C   0  0  0  0  0  2  0  0  0  0  0  0
  191.3300  171.7960  144.0720 C   0  0  0  0  0  2  0  0  0  0  0  0
  188.5830  175.1740  145.6170 C   0  0  0  0  0  2  0  0  0  0  0  0
  189.6550  174.9450  146.6790 C   0  0  0  0  0  2  0  0  0  0  0  0
  189.6740  177.3680  145.0140 C   0  0  0  0  0  2  0  0  0  0  0  0
  188.3680  176.6740  145.4030 C   0  0  1  0  0  3  0  0  0  0  0  0
  190.7360  177.1210  146.0810 C   0  0  0  0  0  2  0  0  0  0  0  0
  190.9600  175.6190  146.2660 C   0  0  1  0  0  3  0  0  0  0  0  0
  192.0150  175.3760  147.3330 C   0  0  0  0  0  2  0  0  0  0  0  0
  193.1450  176.2670  147.1330 N   0  0  0  0  0  2  0  0  0  0  0  0
  194.0990  175.5630  146.2890 C   0  0  0  0  0  2  0  0  0  0  0  0
  193.4720  176.5130  144.1980 F   0  0  0  0  0  0  0  0  0  0  0  0
  194.8990  177.8160  145.5680 C   0  0  0  0  0  1  0  0  0  0  0  0
  195.7040  175.7850  144.4240 C   0  0  0  0  0  1  0  0  0  0  0  0
  194.5120  176.4240  145.1040 C   0  0  0  0  0  0  0  0  0  0  0  0
  1  2  1  0  0  0  0
  2  3  1  0  0  0  0
  3 10  1  0  0  0  0
  4  1  2  0  0  0  0
  4  8  1  0  0  0  0
  5  8  1  0  0  0  0
  5  7  1  0  0  0  0
  6 10  2  0  0  0  0
  7  6  1  0  0  0  0
  8  3  2  0  0  0  0
  9  5  2  0  0  0  0
 11  1  1  0  0  0  0
 12 14  1  0  0  0  0
 13 11  1  0  0  0  0
 14 11  2  0  0  0  0
 15 13  2  0  0  0  0
 16 12  2  0  0  0  0
 16 15  1  0  0  0  0
 17 16  1  0  0  0  0
 17 18  1  0  0  0  0
 18 19  1  0  0  0  0
 19 23  1  0  0  0  0
 21 19  1  0  0  0  0
 21 22  1  0  0  0  0
 22 20  1  0  0  0  0
 23 20  1  0  0  0  0
 24 25  1  0  0  0  0
 26 27  1  0  0  0  0
 26 28  1  0  0  0  0
 27  2  1  6  0  0  0
 27 24  1  0  0  0  0
 28 29  1  0  0  0  0
 29 25  1  0  0  0  0
 29 30  1  1  0  0  0
 31 30  1  0  0  0  0
 32 31  1  0  0  0  0
 33 36  1  0  0  0  0
 35 36  1  0  0  0  0
 36 34  1  0  0  0  0
 36 32  1  0  0  0  0
M  END
>  <MODEL>
4

>  <REMARK>
 VINA RESULT:      -7.1      2.610      6.782
  Name = 
  9 active torsions:
  status: ('A' for Active; 'I' for Inactive)
    1  A    between atoms: C_1  and  C_3
    2  A    between atoms: N_2  and  C_20
    3  A    between atoms: N_4  and  C_10
    4  A    between atoms: N_4  and  C_15
    5  A    between atoms: C_8  and  N_27
    6  A    between atoms: C_8  and  C_33
    7  A    between atoms: C_10  and  C_34
    8  A    between atoms: C_24  and  N_27
    9  A    between atoms: C_24  and  C_36
                            x       y       z     vdW  Elec       q    Type
                         _______ _______ _______ _____ _____    ______ ____

>  <TORSDO>
F 9

$$$$
=
 OpenBabel11042414463D

 36 40  0  0  1  0  0  0  0  0999 V2000
  193.2950  174.6720  145.3690 C   0  0  0  0  0  0  0  0  0  0  0  0
  193.4640  173.9210  144.2450 N   0  0  0  0  0  0  0  0  0  0  0  0
  194.7150  173.4380  144.3280 C   0  0  0  0  0  0  0  0  0  0  0  0
  194.4540  174.6680  146.1630 C   0  0  0  0  0  3  0  0  0  0  0  0
  196.6340  173.4620  145.7310 C   0  0  0  0  0  0  0  0  0  0  0  0
  196.6030  172.2040  143.7070 C   0  0  0  0  0  3  0  0  0  0  0  0
  197.2480  172.6320  144.8390 N   0  0  0  0  0  0  0  0  0  0  0  0
  195.3350  173.8700  145.4580 C   0  0  0  0  0  0  0  0  0  0  0  0
  197.2340  173.8390  146.7710 O   0  0  0  0  0  0  0  0  0  0  0  0
  195.3230  172.6050  143.4460 N   0  0  0  0  0  2  0  0  0  0  0  0
  192.0530  175.3900  145.7470 C   0  0  0  0  0  0  0  0  0  0  0  0
  190.4780  177.2200  145.4390 C   0  0  0  0  0  3  0  0  0  0  0  0
  191.2630  174.9130  146.8040 C   0  0  0  0  0  3  0  0  0  0  0  0
  191.6510  176.5550  145.0730 C   0  0  0  0  0  3  0  0  0  0  0  0
  190.0870  175.5760  147.1710 C   0  0  0  0  0  3  0  0  0  0  0  0
  189.6910  176.7270  146.4830 C   0  0  0  0  0  0  0  0  0  0  0  0
  188.4460  177.4420  146.8730 C   0  0  0  0  0  2  0  0  0  0  0  0
  187.3050  176.5310  146.8040 N   0  0  0  0  0  2  0  0  0  0  0  0
  186.2940  177.0260  145.8650 C   0  0  0  0  0  3  0  0  0  0  0  0
  185.2390  179.1040  145.2580 C   0  0  0  0  0  2  0  0  0  0  0  0
  184.8930  177.0290  146.4660 C   0  0  0  0  0  2  0  0  0  0  0  0
  184.3640  178.4440  146.3030 C   0  0  0  0  0  2  0  0  0  0  0  0
  186.5920  178.4370  145.3800 C   0  0  0  0  0  2  0  0  0  0  0  0
  191.1680  173.0940  143.8700 C   0  0  0  0  0  2  0  0  0  0  0  0
  190.1460  172.7520  142.7890 C   0  0  0  0  0  2  0  0  0  0  0  0
  192.1980  174.8070  142.3310 C   0  0  0  0  0  2  0  0  0  0  0  0
  192.4630  173.5980  143.2280 C   0  0  1  0  0  3  0  0  0  0  0  0
  191.1690  174.4520  141.2630 C   0  0  0  0  0  2  0  0  0  0  0  0
  189.8720  173.9750  141.9180 C   0  0  1  0  0  3  0  0  0  0  0  0
  188.8490  173.6170  140.8520 C   0  0  0  0  0  2  0  0  0  0  0  0
  188.1510  174.8110  140.4050 N   0  0  0  0  0  2  0  0  0  0  0  0
  187.6230  175.4650  141.5930 C   0  0  0  0  0  2  0  0  0  0  0  0
  187.1750  177.1260  139.9470 F   0  0  0  0  0  0  0  0  0  0  0  0
  186.0120  177.3290  142.0010 C   0  0  0  0  0  1  0  0  0  0  0  0
  188.4290  177.7880  141.8330 C   0  0  0  0  0  1  0  0  0  0  0  0
  187.3010  176.9260  141.3090 C   0  0  0  0  0  0  0  0  0  0  0  0
  1 11  1  0  0  0  0
  1  4  2  0  0  0  0
  2  3  1  0  0  0  0
  2  1  1  0  0  0  0
  3  8  2  0  0  0  0
  5  9  2  0  0  0  0
  6  7  2  0  0  0  0
  7  5  1  0  0  0  0
  8  5  1  0  0  0  0
  8  4  1  0  0  0  0
 10  6  1  0  0  0  0
 10  3  1  0  0  0  0
 11 13  1  0  0  0  0
 12 16  2  0  0  0  0
 13 15  2  0  0  0  0
 14 12  1  0  0  0  0
 14 11  2  0  0  0  0
 16 17  1  0  0  0  0
 16 15  1  0  0  0  0
 18 17  1  0  0  0  0
 19 21  1  0  0  0  0
 19 18  1  0  0  0  0
 20 23  1  0  0  0  0
 20 22  1  0  0  0  0
 22 21  1  0  0  0  0
 23 19  1  0  0  0  0
 25 24  1  0  0  0  0
 27 26  1  1  0  0  0
 27 24  1  0  0  0  0
 27  2  1  0  0  0  0
 28 29  1  0  0  0  0
 28 26  1  0  0  0  0
 29 30  1  6  0  0  0
 29 25  1  0  0  0  0
 31 30  1  0  0  0  0
 31 32  1  0  0  0  0
 33 36  1  0  0  0  0
 36 32  1  0  0  0  0
 36 35  1  0  0  0  0
 36 34  1  0  0  0  0
M  END
>  <MODEL>
5

>  <REMARK>
 VINA RESULT:      -7.0      3.436      6.032
  Name = 
  9 active torsions:
  status: ('A' for Active; 'I' for Inactive)
    1  A    between atoms: C_1  and  C_3
    2  A    between atoms: N_2  and  C_20
    3  A    between atoms: N_4  and  C_10
    4  A    between atoms: N_4  and  C_15
    5  A    between atoms: C_8  and  N_27
    6  A    between atoms: C_8  and  C_33
    7  A    between atoms: C_10  and  C_34
    8  A    between atoms: C_24  and  N_27
    9  A    between atoms: C_24  and  C_36
                            x       y       z     vdW  Elec       q    Type
                         _______ _______ _______ _____ _____    ______ ____

>  <TORSDO>
F 9

$$$$
=
 OpenBabel11042414463D

 36 40  0  0  1  0  0  0  0  0999 V2000
  189.6130  176.7070  146.0150 C   0  0  0  0  0  0  0  0  0  0  0  0
  188.5700  176.1700  145.3220 N   0  0  0  0  0  0  0  0  0  0  0  0
  187.4670  176.7160  145.8630 C   0  0  0  0  0  0  0  0  0  0  0  0
  189.1610  177.5930  147.0080 C   0  0  0  0  0  3  0  0  0  0  0  0
  186.7780  178.2400  147.5510 C   0  0  0  0  0  0  0  0  0  0  0  0
  185.1880  177.1650  146.1390 C   0  0  0  0  0  3  0  0  0  0  0  0
  185.4870  178.0210  147.1680 N   0  0  0  0  0  0  0  0  0  0  0  0
  187.7860  177.5650  146.8760 C   0  0  0  0  0  0  0  0  0  0  0  0
  187.0390  179.0380  148.4890 O   0  0  0  0  0  0  0  0  0  0  0  0
  186.1840  176.5060  145.4760 N   0  0  0  0  0  2  0  0  0  0  0  0
  191.0490  176.4330  145.7610 C   0  0  0  0  0  0  0  0  0  0  0  0
  193.1390  175.3340  146.3470 C   0  0  0  0  0  3  0  0  0  0  0  0
  191.6940  177.0400  144.6730 C   0  0  0  0  0  3  0  0  0  0  0  0
  191.7880  175.5830  146.5990 C   0  0  0  0  0  3  0  0  0  0  0  0
  193.0460  176.7900  144.4170 C   0  0  0  0  0  3  0  0  0  0  0  0
  193.7680  175.9310  145.2510 C   0  0  0  0  0  0  0  0  0  0  0  0
  195.2080  175.6670  144.9900 C   0  0  0  0  0  2  0  0  0  0  0  0
  195.7970  176.7910  144.2640 N   0  0  0  0  0  2  0  0  0  0  0  0
  196.8590  176.3350  143.3620 C   0  0  0  0  0  3  0  0  0  0  0  0
  197.0880  175.2080  141.2460 C   0  0  0  0  0  2  0  0  0  0  0  0
  197.2850  174.8980  143.6440 C   0  0  0  0  0  2  0  0  0  0  0  0
  197.1530  174.1510  142.3280 C   0  0  0  0  0  2  0  0  0  0  0  0
  196.4550  176.4180  141.8980 C   0  0  0  0  0  2  0  0  0  0  0  0
  188.9660  176.0820  142.8860 C   0  0  0  0  0  2  0  0  0  0  0  0
  189.0130  175.1460  141.6820 C   0  0  0  0  0  2  0  0  0  0  0  0
  189.6420  174.1660  144.3820 C   0  0  0  0  0  2  0  0  0  0  0  0
  188.6330  175.2920  144.1540 C   0  0  1  0  0  3  0  0  0  0  0  0
  189.6840  173.2460  143.1660 C   0  0  0  0  0  2  0  0  0  0  0  0
  190.0430  174.0430  141.9120 C   0  0  1  0  0  3  0  0  0  0  0  0
  190.0790  173.1250  140.7010 C   0  0  0  0  0  2  0  0  0  0  0  0
  191.3320  173.2910  139.9820 N   0  0  0  0  0  2  0  0  0  0  0  0
  192.3140  172.4410  140.6380 C   0  0  0  0  0  2  0  0  0  0  0  0
  194.6860  172.6500  140.6370 F   0  0  0  0  0  0  0  0  0  0  0  0
  193.4450  174.6650  140.5350 C   0  0  0  0  0  1  0  0  0  0  0  0
  193.5460  173.3110  142.5940 C   0  0  0  0  0  1  0  0  0  0  0  0
  193.5230  173.2520  141.0820 C   0  0  0  0  0  0  0  0  0  0  0  0
  1  4  2  0  0  0  0
  2  3  1  0  0  0  0
  2  1  1  0  0  0  0
  3  8  2  0  0  0  0
  5  9  2  0  0  0  0
  6  7  2  0  0  0  0
  7  5  1  0  0  0  0
  8  4  1  0  0  0  0
  8  5  1  0  0  0  0
 10  3  1  0  0  0  0
 10  6  1  0  0  0  0
 11  1  1  0  0  0  0
 11 14  1  0  0  0  0
 12 14  2  0  0  0  0
 13 11  2  0  0  0  0
 15 13  1  0  0  0  0
 15 16  2  0  0  0  0
 16 12  1  0  0  0  0
 17 16  1  0  0  0  0
 18 17  1  0  0  0  0
 19 21  1  0  0  0  0
 19 18  1  0  0  0  0
 20 23  1  0  0  0  0
 20 22  1  0  0  0  0
 22 21  1  0  0  0  0
 23 19  1  0  0  0  0
 25 29  1  0  0  0  0
 25 24  1  0  0  0  0
 27 24  1  6  0  0  0
 27 26  1  0  0  0  0
 27  2  1  0  0  0  0
 28 26  1  0  0  0  0
 29 30  1  6  0  0  0
 29 28  1  0  0  0  0
 31 32  1  0  0  0  0
 31 30  1  0  0  0  0
 32 36  1  0  0  0  0
 33 36  1  0  0  0  0
 34 36  1  0  0  0  0
 36 35  1  0  0  0  0
M  END
>  <MODEL>
6

>  <REMARK>
 VINA RESULT:      -6.8      3.894      8.641
  Name = 
  9 active torsions:
  status: ('A' for Active; 'I' for Inactive)
    1  A    between atoms: C_1  and  C_3
    2  A    between atoms: N_2  and  C_20
    3  A    between atoms: N_4  and  C_10
    4  A    between atoms: N_4  and  C_15
    5  A    between atoms: C_8  and  N_27
    6  A    between atoms: C_8  and  C_33
    7  A    between atoms: C_10  and  C_34
    8  A    between atoms: C_24  and  N_27
    9  A    between atoms: C_24  and  C_36
                            x       y       z     vdW  Elec       q    Type
                         _______ _______ _______ _____ _____    ______ ____

>  <TORSDO>
F 9

$$$$
=
 OpenBabel11042414463D

 36 40  0  0  1  0  0  0  0  0999 V2000
  190.3530  174.4050  141.5130 C   0  0  0  0  0  0  0  0  0  0  0  0
  189.1850  174.9510  141.0700 N   0  0  0  0  0  0  0  0  0  0  0  0
  188.9600  174.3820  139.8740 C   0  0  0  0  0  0  0  0  0  0  0  0
  190.8710  173.4890  140.5820 C   0  0  0  0  0  3  0  0  0  0  0  0
  189.8880  172.8080  138.3540 C   0  0  0  0  0  0  0  0  0  0  0  0
  187.8270  173.9060  137.8840 C   0  0  0  0  0  3  0  0  0  0  0  0
  188.8190  173.0260  137.5360 N   0  0  0  0  0  2  0  0  0  0  0  0
  189.9520  173.5100  139.5510 C   0  0  0  0  0  0  0  0  0  0  0  0
  190.7860  171.9880  138.0280 O   0  0  0  0  0  0  0  0  0  0  0  0
  187.8920  174.5910  139.0640 N   0  0  0  0  0  0  0  0  0  0  0  0
  191.0020  174.6970  142.8150 C   0  0  0  0  0  0  0  0  0  0  0  0
  191.7350  174.0010  145.0280 C   0  0  0  0  0  3  0  0  0  0  0  0
  191.4990  175.9830  143.0750 C   0  0  0  0  0  3  0  0  0  0  0  0
  191.1210  173.7120  143.8070 C   0  0  0  0  0  3  0  0  0  0  0  0
  192.1160  176.2750  144.2950 C   0  0  0  0  0  3  0  0  0  0  0  0
  192.2410  175.2810  145.2700 C   0  0  0  0  0  0  0  0  0  0  0  0
  192.8880  175.5870  146.5740 C   0  0  0  0  0  2  0  0  0  0  0  0
  192.3290  176.8160  147.1320 N   0  0  0  0  0  2  0  0  0  0  0  0
  191.0060  176.5730  147.7170 C   0  0  0  0  0  3  0  0  0  0  0  0
  189.2610  174.9150  147.6380 C   0  0  0  0  0  2  0  0  0  0  0  0
  189.8780  177.1260  146.8530 C   0  0  0  0  0  2  0  0  0  0  0  0
  188.9290  175.9660  146.6000 C   0  0  0  0  0  2  0  0  0  0  0  0
  190.7330  175.0930  147.9410 C   0  0  0  0  0  2  0  0  0  0  0  0
  187.8170  176.9980  140.8880 C   0  0  0  0  0  2  0  0  0  0  0  0
  186.9020  177.9380  141.6680 C   0  0  0  0  0  2  0  0  0  0  0  0
  187.1130  175.0950  142.3870 C   0  0  0  0  0  2  0  0  0  0  0  0
  188.2950  175.8600  141.7920 C   0  0  1  0  0  3  0  0  0  0  0  0
  186.2040  176.0490  143.1540 C   0  0  0  0  0  2  0  0  0  0  0  0
  185.7120  177.1660  142.2320 C   0  0  1  0  0  3  0  0  0  0  0  0
  184.8100  178.1190  143.0010 C   0  0  0  0  0  2  0  0  0  0  0  0
  185.6100  179.0500  143.7780 N   0  0  0  0  0  2  0  0  0  0  0  0
  184.9950  179.1450  145.0930 C   0  0  0  0  0  2  0  0  0  0  0  0
  187.1420  178.2830  145.6520 F   0  0  0  0  0  0  0  0  0  0  0  0
  185.9410  179.3470  147.3960 C   0  0  0  0  0  1  0  0  0  0  0  0
  185.2660  177.1440  146.5170 C   0  0  0  0  0  1  0  0  0  0  0  0
  185.8680  178.4840  146.1500 C   0  0  0  0  0  0  0  0  0  0  0  0
  1 11  1  0  0  0  0
  2  1  1  0  0  0  0
  2 27  1  0  0  0  0
  3  2  1  0  0  0  0
  4  1  2  0  0  0  0
  5  8  1  0  0  0  0
  6 10  2  0  0  0  0
  7  6  1  0  0  0  0
  7  5  1  0  0  0  0
  8  3  2  0  0  0  0
  8  4  1  0  0  0  0
  9  5  2  0  0  0  0
 10  3  1  0  0  0  0
 11 13  2  0  0  0  0
 11 14  1  0  0  0  0
 12 16  1  0  0  0  0
 13 15  1  0  0  0  0
 14 12  2  0  0  0  0
 15 16  2  0  0  0  0
 16 17  1  0  0  0  0
 17 18  1  0  0  0  0
 18 19  1  0  0  0  0
 19 23  1  0  0  0  0
 20 23  1  0  0  0  0
 21 19  1  0  0  0  0
 22 21  1  0  0  0  0
 22 20  1  0  0  0  0
 24 25  1  0  0  0  0
 25 29  1  0  0  0  0
 26 28  1  0  0  0  0
 27 24  1  6  0  0  0
 27 26  1  0  0  0  0
 29 30  1  1  0  0  0
 29 28  1  0  0  0  0
 30 31  1  0  0  0  0
 31 32  1  0  0  0  0
 32 36  1  0  0  0  0
 33 36  1  0  0  0  0
 36 35  1  0  0  0  0
 36 34  1  0  0  0  0
M  END
>  <MODEL>
7

>  <REMARK>
 VINA RESULT:      -6.8      1.277      5.384
  Name = 
  9 active torsions:
  status: ('A' for Active; 'I' for Inactive)
    1  A    between atoms: C_1  and  C_3
    2  A    between atoms: N_2  and  C_20
    3  A    between atoms: N_4  and  C_10
    4  A    between atoms: N_4  and  C_15
    5  A    between atoms: C_8  and  N_27
    6  A    between atoms: C_8  and  C_33
    7  A    between atoms: C_10  and  C_34
    8  A    between atoms: C_24  and  N_27
    9  A    between atoms: C_24  and  C_36
                            x       y       z     vdW  Elec       q    Type
                         _______ _______ _______ _____ _____    ______ ____

>  <TORSDO>
F 9

$$$$
=
 OpenBabel11042414463D

 36 40  0  0  1  0  0  0  0  0999 V2000
  186.9000  176.7650  143.9140 C   0  0  0  0  0  0  0  0  0  0  0  0
  187.6800  176.8730  145.0260 N   0  0  0  0  0  0  0  0  0  0  0  0
  186.9120  177.4930  145.9380 C   0  0  0  0  0  0  0  0  0  0  0  0
  185.6310  177.3300  144.1270 C   0  0  0  0  0  3  0  0  0  0  0  0
  184.7420  178.4150  146.2310 C   0  0  0  0  0  0  0  0  0  0  0  0
  186.3290  178.4140  148.0080 C   0  0  0  0  0  3  0  0  0  0  0  0
  185.0880  178.7230  147.5150 N   0  0  0  0  0  0  0  0  0  0  0  0
  185.6860  177.7850  145.4310 C   0  0  0  0  0  0  0  0  0  0  0  0
  183.5950  178.6940  145.7950 O   0  0  0  0  0  0  0  0  0  0  0  0
  187.2530  177.7900  147.2180 N   0  0  0  0  0  2  0  0  0  0  0  0
  187.2980  176.1170  142.6410 C   0  0  0  0  0  0  0  0  0  0  0  0
  187.4430  176.1140  140.2120 C   0  0  0  0  0  3  0  0  0  0  0  0
  187.9130  174.8560  142.6600 C   0  0  0  0  0  3  0  0  0  0  0  0
  187.0620  176.7360  141.4030 C   0  0  0  0  0  3  0  0  0  0  0  0
  188.2980  174.2320  141.4700 C   0  0  0  0  0  3  0  0  0  0  0  0
  188.0690  174.8650  140.2440 C   0  0  0  0  0  0  0  0  0  0  0  0
  188.4680  174.2040  138.9730 C   0  0  0  0  0  2  0  0  0  0  0  0
  188.4300  172.7520  139.1330 N   0  0  0  0  0  2  0  0  0  0  0  0
  189.7790  172.1800  139.0660 C   0  0  0  0  0  3  0  0  0  0  0  0
  191.6650  171.7990  140.5150 C   0  0  0  0  0  2  0  0  0  0  0  0
  190.8380  173.2260  138.7350 C   0  0  0  0  0  2  0  0  0  0  0  0
  191.8830  173.1350  139.8340 C   0  0  0  0  0  2  0  0  0  0  0  0
  190.1880  171.5040  140.3660 C   0  0  0  0  0  2  0  0  0  0  0  0
  190.0840  177.4170  145.1890 C   0  0  0  0  0  2  0  0  0  0  0  0
  191.4690  176.8120  145.3950 C   0  0  0  0  0  2  0  0  0  0  0  0
  189.0810  175.5450  146.5510 C   0  0  0  0  0  2  0  0  0  0  0  0
  189.0180  176.3190  145.2340 C   0  0  1  0  0  3  0  0  0  0  0  0
  190.4740  174.9550  146.7460 C   0  0  0  0  0  2  0  0  0  0  0  0
  191.5250  176.0650  146.7250 C   0  0  1  0  0  3  0  0  0  0  0  0
  192.9130  175.4740  146.9150 C   0  0  0  0  0  2  0  0  0  0  0  0
  193.5530  175.2720  145.6260 N   0  0  0  0  0  2  0  0  0  0  0  0
  193.6400  173.8350  145.4150 C   0  0  0  0  0  2  0  0  0  0  0  0
  192.7790  174.5880  143.3270 F   0  0  0  0  0  0  0  0  0  0  0  0
  194.0450  172.5860  143.2900 C   0  0  0  0  0  1  0  0  0  0  0  0
  191.7850  172.6700  144.2730 C   0  0  0  0  0  1  0  0  0  0  0  0
  193.0630  173.4510  144.0590 C   0  0  0  0  0  0  0  0  0  0  0  0
  1  4  2  0  0  0  0
  1  2  1  0  0  0  0
  2  3  1  0  0  0  0
  3 10  1  0  0  0  0
  4  8  1  0  0  0  0
  5  7  1  0  0  0  0
  7  6  2  0  0  0  0
  8  3  2  0  0  0  0
  8  5  1  0  0  0  0
  9  5  2  0  0  0  0
 10  6  1  0  0  0  0
 11 13  1  0  0  0  0
 11  1  1  0  0  0  0
 12 16  2  0  0  0  0
 12 14  1  0  0  0  0
 14 11  2  0  0  0  0
 15 13  2  0  0  0  0
 16 15  1  0  0  0  0
 17 18  1  0  0  0  0
 17 16  1  0  0  0  0
 19 18  1  0  0  0  0
 19 23  1  0  0  0  0
 21 19  1  0  0  0  0
 21 22  1  0  0  0  0
 22 20  1  0  0  0  0
 23 20  1  0  0  0  0
 24 27  1  0  0  0  0
 24 25  1  0  0  0  0
 25 29  1  0  0  0  0
 26 28  1  0  0  0  0
 27  2  1  1  0  0  0
 27 26  1  0  0  0  0
 29 28  1  0  0  0  0
 29 30  1  6  0  0  0
 31 30  1  0  0  0  0
 32 31  1  0  0  0  0
 33 36  1  0  0  0  0
 34 36  1  0  0  0  0
 36 35  1  0  0  0  0
 36 32  1  0  0  0  0
M  END
>  <MODEL>
8

>  <REMARK>
 VINA RESULT:      -6.8      2.817      7.126
  Name = 
  9 active torsions:
  status: ('A' for Active; 'I' for Inactive)
    1  A    between atoms: C_1  and  C_3
    2  A    between atoms: N_2  and  C_20
    3  A    between atoms: N_4  and  C_10
    4  A    between atoms: N_4  and  C_15
    5  A    between atoms: C_8  and  N_27
    6  A    between atoms: C_8  and  C_33
    7  A    between atoms: C_10  and  C_34
    8  A    between atoms: C_24  and  N_27
    9  A    between atoms: C_24  and  C_36
                            x       y       z     vdW  Elec       q    Type
                         _______ _______ _______ _____ _____    ______ ____

>  <TORSDO>
F 9

$$$$
=
 OpenBabel11042414463D

 36 40  0  0  1  0  0  0  0  0999 V2000
  188.7710  177.1680  145.3430 C   0  0  0  0  0  0  0  0  0  0  0  0
  187.5990  176.7930  144.7560 N   0  0  0  0  0  0  0  0  0  0  0  0
  186.6340  177.2540  145.5700 C   0  0  0  0  0  0  0  0  0  0  0  0
  188.5390  177.8630  146.5420 C   0  0  0  0  0  3  0  0  0  0  0  0
  186.3190  178.4520  147.5980 C   0  0  0  0  0  0  0  0  0  0  0  0
  184.4600  177.6950  146.3130 C   0  0  0  0  0  3  0  0  0  0  0  0
  184.9720  178.3380  147.4110 N   0  0  0  0  0  0  0  0  0  0  0  0
  187.1620  177.8910  146.6480 C   0  0  0  0  0  0  0  0  0  0  0  0
  186.7750  179.0540  148.6040 O   0  0  0  0  0  0  0  0  0  0  0  0
  185.2940  177.1490  145.3790 N   0  0  0  0  0  2  0  0  0  0  0  0
  190.1270  176.9130  144.7990 C   0  0  0  0  0  0  0  0  0  0  0  0
  191.9300  177.4410  143.2510 C   0  0  0  0  0  3  0  0  0  0  0  0
  190.9060  175.8690  145.3210 C   0  0  0  0  0  3  0  0  0  0  0  0
  190.6510  177.6920  143.7540 C   0  0  0  0  0  3  0  0  0  0  0  0
  192.1870  175.6180  144.8210 C   0  0  0  0  0  3  0  0  0  0  0  0
  192.7030  176.4090  143.7900 C   0  0  0  0  0  0  0  0  0  0  0  0
  194.0620  176.1420  143.2480 C   0  0  0  0  0  2  0  0  0  0  0  0
  194.5540  174.8590  143.7470 N   0  0  0  0  0  2  0  0  0  0  0  0
  195.8020  175.0320  144.4990 C   0  0  0  0  0  3  0  0  0  0  0  0
  197.8010  173.7920  145.0130 C   0  0  0  0  0  2  0  0  0  0  0  0
  195.6870  174.5410  145.9380 C   0  0  0  0  0  2  0  0  0  0  0  0
  196.8170  173.5460  146.1380 C   0  0  0  0  0  2  0  0  0  0  0  0
  196.9740  174.3070  143.8550 C   0  0  0  0  0  2  0  0  0  0  0  0
  187.7420  177.1110  142.3120 C   0  0  0  0  0  2  0  0  0  0  0  0
  187.5350  176.4170  140.9680 C   0  0  0  0  0  2  0  0  0  0  0  0
  188.2680  174.8790  143.3640 C   0  0  0  0  0  2  0  0  0  0  0  0
  187.4190  176.1470  143.4560 C   0  0  1  0  0  3  0  0  0  0  0  0
  188.0560  174.2040  142.0130 C   0  0  0  0  0  2  0  0  0  0  0  0
  188.4080  175.1680  140.8800 C   0  0  1  0  0  3  0  0  0  0  0  0
  188.1910  174.4940  139.5340 C   0  0  0  0  0  2  0  0  0  0  0  0
  188.8520  173.2000  139.5090 N   0  0  0  0  0  2  0  0  0  0  0  0
  190.2390  173.4370  139.1400 C   0  0  0  0  0  2  0  0  0  0  0  0
  192.2580  172.2070  139.4190 F   0  0  0  0  0  0  0  0  0  0  0  0
  191.6910  173.7180  141.1520 C   0  0  0  0  0  1  0  0  0  0  0  0
  190.4400  171.6220  140.8040 C   0  0  0  0  0  1  0  0  0  0  0  0
  191.1850  172.7410  140.1080 C   0  0  0  0  0  0  0  0  0  0  0  0
  1  4  2  0  0  0  0
  2  1  1  0  0  0  0
  2  3  1  0  0  0  0
  3  8  2  0  0  0  0
  4  8  1  0  0  0  0
  5  9  2  0  0  0  0
  6  7  2  0  0  0  0
  7  5  1  0  0  0  0
  8  5  1  0  0  0  0
 10  3  1  0  0  0  0
 10  6  1  0  0  0  0
 11 13  1  0  0  0  0
 11  1  1  0  0  0  0
 12 14  1  0  0  0  0
 12 16  2  0  0  0  0
 14 11  2  0  0  0  0
 15 13  2  0  0  0  0
 16 15  1  0  0  0  0
 17 18  1  0  0  0  0
 17 16  1  0  0  0  0
 18 19  1  0  0  0  0
 19 21  1  0  0  0  0
 20 22  1  0  0  0  0
 21 22  1  0  0  0  0
 23 19  1  0  0  0  0
 23 20  1  0  0  0  0
 25 24  1  0  0  0  0
 26 27  1  0  0  0  0
 27 24  1  6  0  0  0
 27  2  1  0  0  0  0
 28 26  1  0  0  0  0
 29 30  1  6  0  0  0
 29 25  1  0  0  0  0
 29 28  1  0  0  0  0
 31 30  1  0  0  0  0
 32 31  1  0  0  0  0
 32 36  1  0  0  0  0
 33 36  1  0  0  0  0
 36 35  1  0  0  0  0
 36 34  1  0  0  0  0
M  END
>  <MODEL>
9

>  <REMARK>
 VINA RESULT:      -6.7      3.655      8.563
  Name = 
  9 active torsions:
  status: ('A' for Active; 'I' for Inactive)
    1  A    between atoms: C_1  and  C_3
    2  A    between atoms: N_2  and  C_20
    3  A    between atoms: N_4  and  C_10
    4  A    between atoms: N_4  and  C_15
    5  A    between atoms: C_8  and  N_27
    6  A    between atoms: C_8  and  C_33
    7  A    between atoms: C_10  and  C_34
    8  A    between atoms: C_24  and  N_27
    9  A    between atoms: C_24  and  C_36
                            x       y       z     vdW  Elec       q    Type
                         _______ _______ _______ _____ _____    ______ ____

>  <TORSDO>
F 9

$$$$
