=
 OpenBabel11042419303D

 40 41  0  0  1  0  0  0  0  0999 V2000
  192.5290  176.2530  146.1810 C   0  0  2  0  0  3  0  0  0  0  0  0
  190.2430  176.9230  146.4510 C   0  0  0  0  0  3  0  0  0  0  0  0
  191.1600  176.3940  145.7080 N   0  0  0  0  0  0  0  0  0  0  0  0
  188.4920  177.7360  144.8070 C   0  0  0  0  0  0  0  0  0  0  0  0
  186.1890  177.2560  145.2430 N   0  0  0  0  0  0  0  0  0  0  0  0
  186.5130  176.5950  146.3850 C   0  0  0  0  0  3  0  0  0  0  0  0
  187.8480  176.4890  146.7790 C   0  0  0  0  0  3  0  0  0  0  0  0
  188.8490  177.0620  145.9930 C   0  0  0  0  0  0  0  0  0  0  0  0
  187.1380  177.8280  144.4470 C   0  0  0  0  0  0  0  0  0  0  0  0
  189.4350  178.3120  144.0160 F   0  0  0  0  0  0  0  0  0  0  0  0
  185.3290  178.9790  143.1760 C   0  0  0  0  0  0  0  0  0  0  0  0
  186.7360  177.5780  142.0230 C   0  0  0  0  0  3  0  0  0  0  0  0
  185.5280  177.5100  141.4670 C   0  0  0  0  0  3  0  0  0  0  0  0
  186.7510  178.5420  143.1800 C   0  0  2  0  0  3  0  0  0  0  0  0
  183.1680  178.3070  141.9880 C   0  0  0  0  0  1  0  0  0  0  0  0
  184.6120  178.3700  142.1210 N   0  0  0  0  0  0  0  0  0  0  0  0
  184.8140  179.7840  143.9980 O   0  0  0  0  0  0  0  0  0  0  0  0
  193.4980  176.8650  145.1800 C   0  0  0  0  0  2  0  0  0  0  0  0
  196.3870  175.8310  143.3220 C   0  0  0  0  0  0  0  0  0  0  0  0
  194.8620  176.3000  145.3830 C   0  0  0  0  0  3  0  0  0  0  0  0
  197.6150  176.4660  143.1990 O   0  0  0  0  0  1  0  0  0  0  0  0
  195.6320  176.0700  144.3580 C   0  0  0  0  0  0  0  0  0  0  0  0
  195.9310  174.8640  142.2800 C   0  0  0  0  0  2  0  0  0  0  0  0
  195.0280  176.6250  140.9450 O   0  0  0  0  0  1  0  0  0  0  0  0
  195.8870  175.5270  140.9120 C   0  0  0  0  0  2  0  0  0  0  0  0
  192.8510  174.7750  146.3460 C   0  0  0  0  0  2  0  0  0  0  0  0
  192.2980  173.9560  145.1890 C   0  0  0  0  0  2  0  0  0  0  0  0
  193.3700  173.0620  144.5780 C   0  0  0  0  0  2  0  0  0  0  0  0
  192.9000  171.6150  144.4710 C   0  0  0  0  0  2  0  0  0  0  0  0
  192.7350  171.2310  143.0770 N   0  0  0  0  0  2  0  0  0  0  0  0
  191.4740  170.7520  142.9500 O   0  0  0  0  0  0  0  0  0  0  0  0
  190.8840  171.5710  141.9830 C   0  0  2  0  0  3  0  0  0  0  0  0
  191.9790  172.3010  141.2250 C   0  0  0  0  0  1  0  0  0  0  0  0
  189.9290  172.5710  142.6350 C   0  0  2  0  0  3  0  0  0  0  0  0
  189.2980  171.9910  143.7400 O   0  0  0  0  0  1  0  0  0  0  0  0
  188.6540  173.1090  141.4460 P   0  0  2  0  0  0  0  0  0  0  0  0
  187.2860  172.7110  141.9540 O   0  0  0  0  0  1  0  0  0  0  0  0
  188.9350  172.3410  139.9650 O   0  0  0  0  0  0  0  0  0  0  0  0
  189.6050  175.2720  142.1810 C   0  0  0  0  0  1  0  0  0  0  0  0
  188.7210  174.7910  141.2130 O   0  0  0  0  0  0  0  0  0  0  0  0
  1 18  1  6  0  0  0
  1 26  1  0  0  0  0
  3  1  1  0  0  0  0
  3  2  2  0  0  0  0
  4  8  1  0  0  0  0
  5  6  2  0  0  0  0
  6  7  1  0  0  0  0
  8  2  1  0  0  0  0
  8  7  2  0  0  0  0
  9  4  2  0  0  0  0
  9  5  1  0  0  0  0
 10  4  1  0  0  0  0
 11 14  1  0  0  0  0
 11 17  2  0  0  0  0
 12 14  1  0  0  0  0
 13 12  2  0  0  0  0
 13 16  1  0  0  0  0
 14  9  1  1  0  0  0
 15 16  1  0  0  0  0
 16 11  1  0  0  0  0
 18 20  1  0  0  0  0
 19 22  2  0  0  0  0
 21 19  1  0  0  0  0
 22 20  2  0  0  0  0
 23 19  1  0  0  0  0
 25 24  1  0  0  0  0
 25 23  1  0  0  0  0
 27 26  1  0  0  0  0
 28 27  1  0  0  0  0
 29 28  1  0  0  0  0
 30 29  1  0  0  0  0
 31 30  1  0  0  0  0
 32 33  1  1  0  0  0
 32 34  1  0  0  0  0
 32 31  1  0  0  0  0
 34 35  1  1  0  0  0
 36 38  2  6  0  0  0
 36 37  1  0  0  0  0
 36 34  1  0  0  0  0
 40 36  1  0  0  0  0
 40 39  1  0  0  0  0
M  END
>  <MODEL>
1

>  <REMARK>
 VINA RESULT:      -6.0      0.000      0.000
  Name = 
  17 active torsions:
  status: ('A' for Active; 'I' for Inactive)
    1  A    between atoms: C_3  and  C_37
    2  A    between atoms: C_3  and  C_40
    3  A    between atoms: P_5  and  C_6
    4  A    between atoms: P_5  and  O_29
    5  A    between atoms: C_6  and  C_33
    6  A    between atoms: C_8  and  C_19
    7  A    between atoms: C_13  and  C_23
    8  A    between atoms: C_14  and  C_22
    9  A    between atoms: C_18  and  C_25
   10  A    between atoms: C_19  and  C_32
   11  A    between atoms: N_20  and  C_40
   12  A    between atoms: C_22  and  C_40
   13  A    between atoms: C_24  and  C_27
   14  A    between atoms: C_24  and  N_36
   15  A    between atoms: C_27  and  C_37
   16  A    between atoms: C_33  and  O_34
   17  A    between atoms: O_34  and  N_36
                            x       y       z     vdW  Elec       q    Type
                         _______ _______ _______ _____ _____    ______ ____

>  <TORSDO>
F 17

$$$$
=
 OpenBabel11042419303D

 40 41  0  0  1  0  0  0  0  0999 V2000
  190.8600  176.0840  146.4350 C   0  0  2  0  0  3  0  0  0  0  0  0
  191.0160  174.8600  144.3790 C   0  0  0  0  0  3  0  0  0  0  0  0
  190.4490  175.0200  145.5310 N   0  0  0  0  0  0  0  0  0  0  0  0
  190.9470  173.7970  142.0770 C   0  0  0  0  0  0  0  0  0  0  0  0
  189.7680  171.7350  141.7940 N   0  0  0  0  0  0  0  0  0  0  0  0
  189.4350  171.7110  143.1120 C   0  0  0  0  0  3  0  0  0  0  0  0
  189.8470  172.7410  143.9580 C   0  0  0  0  0  3  0  0  0  0  0  0
  190.6050  173.7950  143.4460 C   0  0  0  0  0  0  0  0  0  0  0  0
  190.5080  172.7460  141.2560 C   0  0  0  0  0  0  0  0  0  0  0  0
  191.6790  174.8070  141.5380 F   0  0  0  0  0  0  0  0  0  0  0  0
  189.8700  172.0340  138.9540 C   0  0  0  0  0  0  0  0  0  0  0  0
  192.0770  171.8660  139.5640 C   0  0  0  0  0  3  0  0  0  0  0  0
  191.7960  170.8680  138.7290 C   0  0  0  0  0  3  0  0  0  0  0  0
  190.8730  172.7390  139.7960 C   0  0  2  0  0  3  0  0  0  0  0  0
  189.7320  169.8380  137.6550 C   0  0  0  0  0  1  0  0  0  0  0  0
  190.4480  170.9240  138.2960 N   0  0  0  0  0  0  0  0  0  0  0  0
  188.6610  172.3660  138.8340 O   0  0  0  0  0  0  0  0  0  0  0  0
  192.0960  175.6630  147.2170 C   0  0  0  0  0  2  0  0  0  0  0  0
  195.0960  175.3300  145.2790 C   0  0  0  0  0  0  0  0  0  0  0  0
  193.2750  176.4540  146.7680 C   0  0  0  0  0  3  0  0  0  0  0  0
  195.3740  175.8290  144.0150 O   0  0  0  0  0  1  0  0  0  0  0  0
  194.1850  175.9010  146.0180 C   0  0  0  0  0  0  0  0  0  0  0  0
  195.8430  174.1500  145.8060 C   0  0  0  0  0  2  0  0  0  0  0  0
  197.6130  172.8080  144.9320 O   0  0  0  0  0  1  0  0  0  0  0  0
  197.2590  174.1180  145.2520 C   0  0  0  0  0  2  0  0  0  0  0  0
  189.7280  176.3750  147.4110 C   0  0  0  0  0  2  0  0  0  0  0  0
  188.4420  175.6810  146.9870 C   0  0  0  0  0  2  0  0  0  0  0  0
  187.2760  176.6610  146.9280 C   0  0  0  0  0  2  0  0  0  0  0  0
  186.7510  176.8220  145.5050 C   0  0  0  0  0  2  0  0  0  0  0  0
  185.4060  177.3780  145.5140 N   0  0  0  0  0  2  0  0  0  0  0  0
  185.0400  177.5400  144.2200 O   0  0  0  0  0  0  0  0  0  0  0  0
  185.9320  178.4910  143.7200 C   0  0  2  0  0  3  0  0  0  0  0  0
  185.4860  179.8690  144.1760 C   0  0  0  0  0  1  0  0  0  0  0  0
  185.9880  178.4280  142.1930 C   0  0  2  0  0  3  0  0  0  0  0  0
  184.8320  177.8210  141.6900 O   0  0  0  0  0  1  0  0  0  0  0  0
  187.4400  177.4730  141.6430 P   0  0  2  0  0  0  0  0  0  0  0  0
  188.6400  178.3880  141.5410 O   0  0  0  0  0  1  0  0  0  0  0  0
  187.1150  176.8210  140.1160 O   0  0  0  0  0  0  0  0  0  0  0  0
  187.4810  175.0280  142.0270 C   0  0  0  0  0  1  0  0  0  0  0  0
  187.7690  176.2030  142.7240 O   0  0  0  0  0  0  0  0  0  0  0  0
  1 18  1  1  0  0  0
  1 26  1  0  0  0  0
  2  3  2  0  0  0  0
  3  1  1  0  0  0  0
  4  8  1  0  0  0  0
  5  6  2  0  0  0  0
  6  7  1  0  0  0  0
  8  7  2  0  0  0  0
  8  2  1  0  0  0  0
  9  5  1  0  0  0  0
  9  4  2  0  0  0  0
 10  4  1  0  0  0  0
 11 14  1  0  0  0  0
 12 14  1  0  0  0  0
 13 12  2  0  0  0  0
 14  9  1  1  0  0  0
 15 16  1  0  0  0  0
 16 13  1  0  0  0  0
 16 11  1  0  0  0  0
 17 11  2  0  0  0  0
 19 23  1  0  0  0  0
 19 22  2  0  0  0  0
 20 18  1  0  0  0  0
 21 19  1  0  0  0  0
 22 20  2  0  0  0  0
 24 25  1  0  0  0  0
 25 23  1  0  0  0  0
 27 26  1  0  0  0  0
 28 27  1  0  0  0  0
 29 30  1  0  0  0  0
 29 28  1  0  0  0  0
 31 30  1  0  0  0  0
 32 33  1  6  0  0  0
 32 31  1  0  0  0  0
 34 35  1  1  0  0  0
 34 32  1  0  0  0  0
 36 38  2  6  0  0  0
 36 34  1  0  0  0  0
 36 40  1  0  0  0  0
 37 36  1  0  0  0  0
 39 40  1  0  0  0  0
M  END
>  <MODEL>
2

>  <REMARK>
 VINA RESULT:      -5.9      2.547      6.565
  Name = 
  17 active torsions:
  status: ('A' for Active; 'I' for Inactive)
    1  A    between atoms: C_3  and  C_37
    2  A    between atoms: C_3  and  C_40
    3  A    between atoms: P_5  and  C_6
    4  A    between atoms: P_5  and  O_29
    5  A    between atoms: C_6  and  C_33
    6  A    between atoms: C_8  and  C_19
    7  A    between atoms: C_13  and  C_23
    8  A    between atoms: C_14  and  C_22
    9  A    between atoms: C_18  and  C_25
   10  A    between atoms: C_19  and  C_32
   11  A    between atoms: N_20  and  C_40
   12  A    between atoms: C_22  and  C_40
   13  A    between atoms: C_24  and  C_27
   14  A    between atoms: C_24  and  N_36
   15  A    between atoms: C_27  and  C_37
   16  A    between atoms: C_33  and  O_34
   17  A    between atoms: O_34  and  N_36
                            x       y       z     vdW  Elec       q    Type
                         _______ _______ _______ _____ _____    ______ ____

>  <TORSDO>
F 17

$$$$
=
 OpenBabel11042419303D

 40 41  0  0  1  0  0  0  0  0999 V2000
  187.1900  176.2150  142.6830 C   0  0  2  0  0  3  0  0  0  0  0  0
  188.3010  174.5170  141.4050 C   0  0  0  0  0  3  0  0  0  0  0  0
  187.4770  175.5140  141.4400 N   0  0  0  0  0  0  0  0  0  0  0  0
  189.2680  172.5550  140.1220 C   0  0  0  0  0  0  0  0  0  0  0  0
  189.1440  172.5650  137.7340 N   0  0  0  0  0  0  0  0  0  0  0  0
  188.5030  173.7640  137.7430 C   0  0  0  0  0  3  0  0  0  0  0  0
  188.2290  174.4020  138.9530 C   0  0  0  0  0  3  0  0  0  0  0  0
  188.6130  173.8030  140.1540 C   0  0  0  0  0  0  0  0  0  0  0  0
  189.5330  171.9460  138.8850 C   0  0  0  0  0  0  0  0  0  0  0  0
  189.6620  171.9400  141.2690 F   0  0  0  0  0  0  0  0  0  0  0  0
  191.6760  170.7260  138.5240 C   0  0  0  0  0  0  0  0  0  0  0  0
  189.7540  169.8130  137.6590 C   0  0  0  0  0  3  0  0  0  0  0  0
  190.7610  169.5220  136.8400 C   0  0  0  0  0  3  0  0  0  0  0  0
  190.2280  170.6120  138.8450 C   0  0  2  0  0  3  0  0  0  0  0  0
  193.2010  170.1850  136.5450 C   0  0  0  0  0  1  0  0  0  0  0  0
  191.9870  170.0400  137.3270 N   0  0  0  0  0  0  0  0  0  0  0  0
  192.5260  171.3480  139.2140 O   0  0  0  0  0  0  0  0  0  0  0  0
  186.6270  177.5980  142.3900 C   0  0  0  0  0  2  0  0  0  0  0  0
  184.7650  177.8470  145.4450 C   0  0  0  0  0  0  0  0  0  0  0  0
  185.2250  177.6910  142.8850 C   0  0  0  0  0  3  0  0  0  0  0  0
  184.1030  178.9460  145.9730 O   0  0  0  0  0  1  0  0  0  0  0  0
  184.9880  177.7760  144.1620 C   0  0  0  0  0  0  0  0  0  0  0  0
  185.2110  176.7350  146.3370 C   0  0  0  0  0  2  0  0  0  0  0  0
  187.0310  178.0870  147.0840 O   0  0  0  0  0  1  0  0  0  0  0  0
  186.7060  176.8210  146.5970 C   0  0  0  0  0  2  0  0  0  0  0  0
  188.4770  176.3610  143.4830 C   0  0  0  0  0  2  0  0  0  0  0  0
  189.0180  177.7810  143.4040 C   0  0  0  0  0  2  0  0  0  0  0  0
  190.4440  177.8030  142.8640 C   0  0  0  0  0  2  0  0  0  0  0  0
  191.1400  176.4610  143.0640 C   0  0  0  0  0  2  0  0  0  0  0  0
  192.5620  176.6510  143.3070 N   0  0  0  0  0  2  0  0  0  0  0  0
  192.9590  175.6440  144.1220 O   0  0  0  0  0  0  0  0  0  0  0  0
  192.7720  176.1430  145.4130 C   0  0  2  0  0  3  0  0  0  0  0  0
  194.1180  176.5690  145.9740 C   0  0  0  0  0  1  0  0  0  0  0  0
  192.1310  175.0860  146.3120 C   0  0  2  0  0  3  0  0  0  0  0  0
  191.5600  174.0720  145.5360 O   0  0  0  0  0  1  0  0  0  0  0  0
  190.8320  175.8320  147.3530 P   0  0  2  0  0  0  0  0  0  0  0  0
  189.6980  174.8470  147.5320 O   0  0  0  0  0  1  0  0  0  0  0  0
  190.2430  177.2150  146.5780 O   0  0  0  0  0  0  0  0  0  0  0  0
  191.5030  177.6720  148.8660 C   0  0  0  0  0  1  0  0  0  0  0  0
  191.4590  176.2760  148.8690 O   0  0  0  0  0  0  0  0  0  0  0  0
  1 18  1  6  0  0  0
  1 26  1  0  0  0  0
  2  3  2  0  0  0  0
  3  1  1  0  0  0  0
  4  8  1  0  0  0  0
  4 10  1  0  0  0  0
  5  6  2  0  0  0  0
  5  9  1  0  0  0  0
  6  7  1  0  0  0  0
  7  8  2  0  0  0  0
  8  2  1  0  0  0  0
  9  4  2  0  0  0  0
 11 14  1  0  0  0  0
 11 17  2  0  0  0  0
 12 14  1  0  0  0  0
 13 16  1  0  0  0  0
 13 12  2  0  0  0  0
 14  9  1  6  0  0  0
 15 16  1  0  0  0  0
 16 11  1  0  0  0  0
 18 20  1  0  0  0  0
 19 21  1  0  0  0  0
 19 23  1  0  0  0  0
 20 22  2  0  0  0  0
 22 19  2  0  0  0  0
 23 25  1  0  0  0  0
 25 24  1  0  0  0  0
 27 26  1  0  0  0  0
 28 29  1  0  0  0  0
 28 27  1  0  0  0  0
 29 30  1  0  0  0  0
 30 31  1  0  0  0  0
 31 32  1  0  0  0  0
 32 33  1  1  0  0  0
 32 34  1  0  0  0  0
 34 35  1  6  0  0  0
 34 36  1  0  0  0  0
 36 38  2  6  0  0  0
 36 37  1  0  0  0  0
 36 40  1  0  0  0  0
 39 40  1  0  0  0  0
M  END
>  <MODEL>
3

>  <REMARK>
 VINA RESULT:      -5.9      3.805      8.703
  Name = 
  17 active torsions:
  status: ('A' for Active; 'I' for Inactive)
    1  A    between atoms: C_3  and  C_37
    2  A    between atoms: C_3  and  C_40
    3  A    between atoms: P_5  and  C_6
    4  A    between atoms: P_5  and  O_29
    5  A    between atoms: C_6  and  C_33
    6  A    between atoms: C_8  and  C_19
    7  A    between atoms: C_13  and  C_23
    8  A    between atoms: C_14  and  C_22
    9  A    between atoms: C_18  and  C_25
   10  A    between atoms: C_19  and  C_32
   11  A    between atoms: N_20  and  C_40
   12  A    between atoms: C_22  and  C_40
   13  A    between atoms: C_24  and  C_27
   14  A    between atoms: C_24  and  N_36
   15  A    between atoms: C_27  and  C_37
   16  A    between atoms: C_33  and  O_34
   17  A    between atoms: O_34  and  N_36
                            x       y       z     vdW  Elec       q    Type
                         _______ _______ _______ _____ _____    ______ ____

>  <TORSDO>
F 17

$$$$
=
 OpenBabel11042419303D

 40 41  0  0  1  0  0  0  0  0999 V2000
  188.3520  176.8620  143.2490 C   0  0  2  0  0  3  0  0  0  0  0  0
  188.4540  174.5800  142.5210 C   0  0  0  0  0  3  0  0  0  0  0  0
  189.0530  175.7130  142.6960 N   0  0  0  0  0  0  0  0  0  0  0  0
  189.5340  173.2960  140.6200 C   0  0  0  0  0  0  0  0  0  0  0  0
  190.4580  171.1350  141.0660 N   0  0  0  0  0  0  0  0  0  0  0  0
  190.1060  171.2220  142.3760 C   0  0  0  0  0  3  0  0  0  0  0  0
  189.4460  172.3570  142.8490 C   0  0  0  0  0  3  0  0  0  0  0  0
  189.1520  173.4030  141.9730 C   0  0  0  0  0  0  0  0  0  0  0  0
  190.1910  172.1360  140.1790 C   0  0  0  0  0  0  0  0  0  0  0  0
  189.2630  174.2890  139.7330 F   0  0  0  0  0  0  0  0  0  0  0  0
  190.5270  170.6210  138.2280 C   0  0  0  0  0  0  0  0  0  0  0  0
  192.0830  172.2690  138.5970 C   0  0  0  0  0  3  0  0  0  0  0  0
  192.7080  171.2110  138.0850 C   0  0  0  0  0  3  0  0  0  0  0  0
  190.6050  172.0170  138.7370 C   0  0  2  0  0  3  0  0  0  0  0  0
  192.1690  168.7790  137.5600 C   0  0  0  0  0  1  0  0  0  0  0  0
  191.7980  170.1590  137.8130 N   0  0  0  0  0  0  0  0  0  0  0  0
  189.4780  169.9270  138.1690 O   0  0  0  0  0  0  0  0  0  0  0  0
  188.2630  177.9750  142.2150 C   0  0  0  0  0  2  0  0  0  0  0  0
  185.4070  178.9850  144.1350 C   0  0  0  0  0  0  0  0  0  0  0  0
  186.8440  178.3960  142.0420 C   0  0  0  0  0  3  0  0  0  0  0  0
  184.8550  180.2500  144.2730 O   0  0  0  0  0  1  0  0  0  0  0  0
  186.1220  178.6980  143.0830 C   0  0  0  0  0  0  0  0  0  0  0  0
  185.1730  177.9420  145.1780 C   0  0  0  0  0  2  0  0  0  0  0  0
  184.7730  178.4930  147.4660 O   0  0  0  0  0  1  0  0  0  0  0  0
  184.1690  178.4290  146.2100 C   0  0  0  0  0  2  0  0  0  0  0  0
  189.1120  177.3730  144.4650 C   0  0  0  0  0  2  0  0  0  0  0  0
  188.6580  176.6710  145.7360 C   0  0  0  0  0  2  0  0  0  0  0  0
  189.7370  176.7160  146.8120 C   0  0  0  0  0  2  0  0  0  0  0  0
  190.2980  175.3280  147.1020 C   0  0  0  0  0  2  0  0  0  0  0  0
  191.7480  175.3250  146.9840 N   0  0  0  0  0  2  0  0  0  0  0  0
  192.0800  176.3830  146.2040 O   0  0  0  0  0  0  0  0  0  0  0  0
  193.3980  176.1320  145.8140 C   0  0  2  0  0  3  0  0  0  0  0  0
  194.3250  177.0310  146.6140 C   0  0  0  0  0  1  0  0  0  0  0  0
  193.5730  176.3830  144.3160 C   0  0  2  0  0  3  0  0  0  0  0  0
  192.3300  176.3870  143.6760 O   0  0  0  0  0  1  0  0  0  0  0  0
  194.6170  175.0880  143.5670 P   0  0  2  0  0  0  0  0  0  0  0  0
  193.7540  174.1530  142.7480 O   0  0  0  0  0  0  0  0  0  0  0  0
  195.3600  174.2070  144.8050 O   0  0  0  0  0  1  0  0  0  0  0  0
  196.5290  176.6510  143.4120 C   0  0  0  0  0  1  0  0  0  0  0  0
  195.8190  175.7790  142.5850 O   0  0  0  0  0  0  0  0  0  0  0  0
  1 18  1  6  0  0  0
  1 26  1  0  0  0  0
  2  3  2  0  0  0  0
  3  1  1  0  0  0  0
  4  8  1  0  0  0  0
  5  6  2  0  0  0  0
  6  7  1  0  0  0  0
  8  2  1  0  0  0  0
  8  7  2  0  0  0  0
  9  4  2  0  0  0  0
  9  5  1  0  0  0  0
 10  4  1  0  0  0  0
 11 14  1  0  0  0  0
 12 14  1  0  0  0  0
 13 12  2  0  0  0  0
 14  9  1  1  0  0  0
 15 16  1  0  0  0  0
 16 13  1  0  0  0  0
 16 11  1  0  0  0  0
 17 11  2  0  0  0  0
 19 21  1  0  0  0  0
 19 23  1  0  0  0  0
 20 18  1  0  0  0  0
 20 22  2  0  0  0  0
 22 19  2  0  0  0  0
 23 25  1  0  0  0  0
 25 24  1  0  0  0  0
 26 27  1  0  0  0  0
 27 28  1  0  0  0  0
 28 29  1  0  0  0  0
 30 29  1  0  0  0  0
 31 30  1  0  0  0  0
 32 31  1  0  0  0  0
 32 33  1  1  0  0  0
 34 35  1  6  0  0  0
 34 32  1  0  0  0  0
 36 37  2  6  0  0  0
 36 34  1  0  0  0  0
 36 38  1  0  0  0  0
 40 39  1  0  0  0  0
 40 36  1  0  0  0  0
M  END
>  <MODEL>
4

>  <REMARK>
 VINA RESULT:      -5.7      2.932      8.408
  Name = 
  17 active torsions:
  status: ('A' for Active; 'I' for Inactive)
    1  A    between atoms: C_3  and  C_37
    2  A    between atoms: C_3  and  C_40
    3  A    between atoms: P_5  and  C_6
    4  A    between atoms: P_5  and  O_29
    5  A    between atoms: C_6  and  C_33
    6  A    between atoms: C_8  and  C_19
    7  A    between atoms: C_13  and  C_23
    8  A    between atoms: C_14  and  C_22
    9  A    between atoms: C_18  and  C_25
   10  A    between atoms: C_19  and  C_32
   11  A    between atoms: N_20  and  C_40
   12  A    between atoms: C_22  and  C_40
   13  A    between atoms: C_24  and  C_27
   14  A    between atoms: C_24  and  N_36
   15  A    between atoms: C_27  and  C_37
   16  A    between atoms: C_33  and  O_34
   17  A    between atoms: O_34  and  N_36
                            x       y       z     vdW  Elec       q    Type
                         _______ _______ _______ _____ _____    ______ ____

>  <TORSDO>
F 17

$$$$
=
 OpenBabel11042419303D

 40 41  0  0  1  0  0  0  0  0999 V2000
  193.7390  174.2970  146.1340 C   0  0  2  0  0  3  0  0  0  0  0  0
  191.4730  175.0790  146.1040 C   0  0  0  0  0  3  0  0  0  0  0  0
  192.7030  175.2380  145.7360 N   0  0  0  0  0  0  0  0  0  0  0  0
  189.0860  175.9320  146.1860 C   0  0  0  0  0  0  0  0  0  0  0  0
  188.4960  177.8360  144.8620 N   0  0  0  0  0  0  0  0  0  0  0  0
  189.7670  177.9380  144.3900 C   0  0  0  0  0  3  0  0  0  0  0  0
  190.7420  177.0280  144.8010 C   0  0  0  0  0  3  0  0  0  0  0  0
  190.4080  176.0150  145.7010 C   0  0  0  0  0  0  0  0  0  0  0  0
  188.1310  176.8620  145.7440 C   0  0  0  0  0  0  0  0  0  0  0  0
  188.7190  174.9580  147.0590 F   0  0  0  0  0  0  0  0  0  0  0  0
  185.7070  177.1360  145.2290 C   0  0  0  0  0  0  0  0  0  0  0  0
  186.4700  177.8750  147.2650 C   0  0  0  0  0  3  0  0  0  0  0  0
  185.4840  178.6780  146.8700 C   0  0  0  0  0  3  0  0  0  0  0  0
  186.7200  176.7820  146.2600 C   0  0  2  0  0  3  0  0  0  0  0  0
  184.1090  179.0750  144.7660 C   0  0  0  0  0  1  0  0  0  0  0  0
  184.9520  178.2640  145.6240 N   0  0  0  0  0  0  0  0  0  0  0  0
  185.5330  176.5240  144.1420 O   0  0  0  0  0  0  0  0  0  0  0  0
  195.1150  174.8500  145.7860 C   0  0  0  0  0  2  0  0  0  0  0  0
  196.0920  176.4340  142.7200 C   0  0  0  0  0  0  0  0  0  0  0  0
  194.9740  176.1410  145.0560 C   0  0  0  0  0  3  0  0  0  0  0  0
  195.3190  176.7190  141.6030 O   0  0  0  0  0  1  0  0  0  0  0  0
  195.5240  176.2920  143.8850 C   0  0  0  0  0  0  0  0  0  0  0  0
  197.5740  176.3030  142.5980 C   0  0  0  0  0  2  0  0  0  0  0  0
  197.5560  173.9210  142.4550 O   0  0  0  0  0  1  0  0  0  0  0  0
  197.9410  175.0770  141.7770 C   0  0  0  0  0  2  0  0  0  0  0  0
  193.5300  172.9820  145.3960 C   0  0  0  0  0  2  0  0  0  0  0  0
  193.7350  173.1510  143.8980 C   0  0  0  0  0  2  0  0  0  0  0  0
  194.6720  172.0840  143.3420 C   0  0  0  0  0  2  0  0  0  0  0  0
  194.0080  171.2790  142.2300 C   0  0  0  0  0  2  0  0  0  0  0  0
  192.5760  171.5400  142.1930 N   0  0  0  0  0  2  0  0  0  0  0  0
  192.2330  171.6590  140.8870 O   0  0  0  0  0  0  0  0  0  0  0  0
  190.9250  171.1710  140.8220 C   0  0  2  0  0  3  0  0  0  0  0  0
  190.8370  170.1540  139.6970 C   0  0  0  0  0  1  0  0  0  0  0  0
  189.9350  172.3120  140.5880 C   0  0  2  0  0  3  0  0  0  0  0  0
  190.6110  173.4600  140.1600 O   0  0  0  0  0  1  0  0  0  0  0  0
  189.0300  172.7010  142.1230 P   0  0  2  0  0  0  0  0  0  0  0  0
  189.2840  171.6180  143.1490 O   0  0  0  0  0  1  0  0  0  0  0  0
  187.3750  172.7530  141.7780 O   0  0  0  0  0  0  0  0  0  0  0  0
  188.4300  175.0670  142.5260 C   0  0  0  0  0  1  0  0  0  0  0  0
  189.5110  174.2100  142.7390 O   0  0  0  0  0  0  0  0  0  0  0  0
  1 26  1  6  0  0  0
  3  2  2  0  0  0  0
  3  1  1  0  0  0  0
  4 10  1  0  0  0  0
  5  9  2  0  0  0  0
  6  7  2  0  0  0  0
  6  5  1  0  0  0  0
  7  8  1  0  0  0  0
  8  2  1  0  0  0  0
  8  4  2  0  0  0  0
  9  4  1  0  0  0  0
 11 16  1  0  0  0  0
 11 14  1  0  0  0  0
 13 12  2  0  0  0  0
 14  9  1  6  0  0  0
 14 12  1  0  0  0  0
 15 16  1  0  0  0  0
 16 13  1  0  0  0  0
 17 11  2  0  0  0  0
 18  1  1  0  0  0  0
 19 22  2  0  0  0  0
 20 18  1  0  0  0  0
 21 19  1  0  0  0  0
 22 20  2  0  0  0  0
 23 19  1  0  0  0  0
 25 24  1  0  0  0  0
 25 23  1  0  0  0  0
 27 26  1  0  0  0  0
 28 27  1  0  0  0  0
 29 28  1  0  0  0  0
 30 29  1  0  0  0  0
 31 30  1  0  0  0  0
 32 33  1  6  0  0  0
 32 31  1  0  0  0  0
 34 35  1  1  0  0  0
 34 32  1  0  0  0  0
 34 36  1  0  0  0  0
 36 38  2  6  0  0  0
 36 40  1  0  0  0  0
 36 37  1  0  0  0  0
 39 40  1  0  0  0  0
M  END
>  <MODEL>
5

>  <REMARK>
 VINA RESULT:      -5.7      1.979      2.788
  Name = 
  17 active torsions:
  status: ('A' for Active; 'I' for Inactive)
    1  A    between atoms: C_3  and  C_37
    2  A    between atoms: C_3  and  C_40
    3  A    between atoms: P_5  and  C_6
    4  A    between atoms: P_5  and  O_29
    5  A    between atoms: C_6  and  C_33
    6  A    between atoms: C_8  and  C_19
    7  A    between atoms: C_13  and  C_23
    8  A    between atoms: C_14  and  C_22
    9  A    between atoms: C_18  and  C_25
   10  A    between atoms: C_19  and  C_32
   11  A    between atoms: N_20  and  C_40
   12  A    between atoms: C_22  and  C_40
   13  A    between atoms: C_24  and  C_27
   14  A    between atoms: C_24  and  N_36
   15  A    between atoms: C_27  and  C_37
   16  A    between atoms: C_33  and  O_34
   17  A    between atoms: O_34  and  N_36
                            x       y       z     vdW  Elec       q    Type
                         _______ _______ _______ _____ _____    ______ ____

>  <TORSDO>
F 17

$$$$
=
 OpenBabel11042419303D

 40 41  0  0  1  0  0  0  0  0999 V2000
  187.8480  177.9570  141.7690 C   0  0  2  0  0  3  0  0  0  0  0  0
  189.0540  177.9240  143.8410 C   0  0  0  0  0  3  0  0  0  0  0  0
  188.8580  177.4170  142.6680 N   0  0  0  0  0  0  0  0  0  0  0  0
  191.4300  177.2270  144.3880 C   0  0  0  0  0  0  0  0  0  0  0  0
  191.9140  176.3960  146.5780 N   0  0  0  0  0  0  0  0  0  0  0  0
  190.6200  176.5620  146.9590 C   0  0  0  0  0  3  0  0  0  0  0  0
  189.6820  177.0640  146.0540 C   0  0  0  0  0  3  0  0  0  0  0  0
  190.0800  177.3980  144.7590 C   0  0  0  0  0  0  0  0  0  0  0  0
  192.3430  176.7130  145.3230 C   0  0  0  0  0  0  0  0  0  0  0  0
  191.8580  177.5350  143.1350 F   0  0  0  0  0  0  0  0  0  0  0  0
  194.0370  175.2430  144.2350 C   0  0  0  0  0  0  0  0  0  0  0  0
  194.6350  176.3390  146.1620 C   0  0  0  0  0  3  0  0  0  0  0  0
  195.2600  175.1640  146.1380 C   0  0  0  0  0  3  0  0  0  0  0  0
  193.7850  176.5320  144.9350 C   0  0  2  0  0  3  0  0  0  0  0  0
  195.1900  173.0240  144.7610 C   0  0  0  0  0  1  0  0  0  0  0  0
  194.9480  174.4410  144.9600 N   0  0  0  0  0  0  0  0  0  0  0  0
  193.5140  174.8950  143.1430 O   0  0  0  0  0  0  0  0  0  0  0  0
  186.8840  178.8510  142.5360 C   0  0  0  0  0  2  0  0  0  0  0  0
  185.0830  177.8540  145.4730 C   0  0  0  0  0  0  0  0  0  0  0  0
  185.6830  178.0700  142.9460 C   0  0  0  0  0  3  0  0  0  0  0  0
  183.8650  178.3210  145.9470 O   0  0  0  0  0  1  0  0  0  0  0  0
  185.3740  177.9640  144.2070 C   0  0  0  0  0  0  0  0  0  0  0  0
  186.0580  177.2120  146.4040 C   0  0  0  0  0  2  0  0  0  0  0  0
  187.0460  178.6460  148.0370 O   0  0  0  0  0  1  0  0  0  0  0  0
  185.9520  177.8150  147.7950 C   0  0  0  0  0  2  0  0  0  0  0  0
  187.0700  176.8080  141.1440 C   0  0  0  0  0  2  0  0  0  0  0  0
  187.9360  175.5640  141.0070 C   0  0  0  0  0  2  0  0  0  0  0  0
  187.5100  174.4800  141.9910 C   0  0  0  0  0  2  0  0  0  0  0  0
  188.4130  173.2540  141.8990 C   0  0  0  0  0  2  0  0  0  0  0  0
  188.5830  172.8450  140.5120 N   0  0  0  0  0  2  0  0  0  0  0  0
  189.9090  172.6420  140.3230 O   0  0  0  0  0  0  0  0  0  0  0  0
  190.0550  172.5360  138.9380 C   0  0  2  0  0  3  0  0  0  0  0  0
  189.0620  173.4700  138.2680 C   0  0  0  0  0  1  0  0  0  0  0  0
  189.8230  171.0960  138.4810 C   0  0  2  0  0  3  0  0  0  0  0  0
  190.4460  170.2020  139.3580 O   0  0  0  0  0  1  0  0  0  0  0  0
  190.4950  170.8390  136.8050 P   0  0  2  0  0  0  0  0  0  0  0  0
  190.9720  169.4100  136.6640 O   0  0  0  0  0  1  0  0  0  0  0  0
  191.8090  171.8810  136.5810 O   0  0  0  0  0  0  0  0  0  0  0  0
  189.8740  172.1620  134.8080 C   0  0  0  0  0  1  0  0  0  0  0  0
  189.3180  171.1770  135.6270 O   0  0  0  0  0  0  0  0  0  0  0  0
  1 26  1  1  0  0  0
  1 18  1  0  0  0  0
  1  3  1  0  0  0  0
  2  8  1  0  0  0  0
  3  2  2  0  0  0  0
  4  8  2  0  0  0  0
  4  9  1  0  0  0  0
  5  6  1  0  0  0  0
  7  6  2  0  0  0  0
  8  7  1  0  0  0  0
  9  5  2  0  0  0  0
 10  4  1  0  0  0  0
 11 14  1  0  0  0  0
 11 16  1  0  0  0  0
 13 12  2  0  0  0  0
 14  9  1  1  0  0  0
 14 12  1  0  0  0  0
 15 16  1  0  0  0  0
 16 13  1  0  0  0  0
 17 11  2  0  0  0  0
 18 20  1  0  0  0  0
 19 21  1  0  0  0  0
 19 23  1  0  0  0  0
 20 22  2  0  0  0  0
 22 19  2  0  0  0  0
 23 25  1  0  0  0  0
 25 24  1  0  0  0  0
 27 26  1  0  0  0  0
 27 28  1  0  0  0  0
 29 28  1  0  0  0  0
 30 29  1  0  0  0  0
 31 30  1  0  0  0  0
 32 33  1  6  0  0  0
 32 31  1  0  0  0  0
 34 32  1  0  0  0  0
 34 35  1  1  0  0  0
 36 38  2  6  0  0  0
 36 34  1  0  0  0  0
 37 36  1  0  0  0  0
 39 40  1  0  0  0  0
 40 36  1  0  0  0  0
M  END
>  <MODEL>
6

>  <REMARK>
 VINA RESULT:      -5.7      2.935      7.775
  Name = 
  17 active torsions:
  status: ('A' for Active; 'I' for Inactive)
    1  A    between atoms: C_3  and  C_37
    2  A    between atoms: C_3  and  C_40
    3  A    between atoms: P_5  and  C_6
    4  A    between atoms: P_5  and  O_29
    5  A    between atoms: C_6  and  C_33
    6  A    between atoms: C_8  and  C_19
    7  A    between atoms: C_13  and  C_23
    8  A    between atoms: C_14  and  C_22
    9  A    between atoms: C_18  and  C_25
   10  A    between atoms: C_19  and  C_32
   11  A    between atoms: N_20  and  C_40
   12  A    between atoms: C_22  and  C_40
   13  A    between atoms: C_24  and  C_27
   14  A    between atoms: C_24  and  N_36
   15  A    between atoms: C_27  and  C_37
   16  A    between atoms: C_33  and  O_34
   17  A    between atoms: O_34  and  N_36
                            x       y       z     vdW  Elec       q    Type
                         _______ _______ _______ _____ _____    ______ ____

>  <TORSDO>
F 17

$$$$
=
 OpenBabel11042419303D

 40 41  0  0  1  0  0  0  0  0999 V2000
  192.7640  176.0010  145.0880 C   0  0  2  0  0  3  0  0  0  0  0  0
  191.4220  174.6200  143.6600 C   0  0  0  0  0  3  0  0  0  0  0  0
  191.9150  175.7860  143.9260 N   0  0  0  0  0  0  0  0  0  0  0  0
  190.9910  173.6250  141.3680 C   0  0  0  0  0  0  0  0  0  0  0  0
  188.8730  174.0070  140.3240 N   0  0  0  0  0  0  0  0  0  0  0  0
  188.4450  174.7320  141.3910 C   0  0  0  0  0  3  0  0  0  0  0  0
  189.2880  174.9320  142.4860 C   0  0  0  0  0  3  0  0  0  0  0  0
  190.5700  174.3810  142.4810 C   0  0  0  0  0  0  0  0  0  0  0  0
  190.1170  173.4510  140.2820 C   0  0  0  0  0  0  0  0  0  0  0  0
  192.2330  173.0760  141.3220 F   0  0  0  0  0  0  0  0  0  0  0  0
  191.1880  173.4730  138.0310 C   0  0  0  0  0  0  0  0  0  0  0  0
  189.3610  172.1170  138.3460 C   0  0  0  0  0  3  0  0  0  0  0  0
  189.3410  172.5620  137.0920 C   0  0  0  0  0  3  0  0  0  0  0  0
  190.5590  172.6420  139.0930 C   0  0  2  0  0  3  0  0  0  0  0  0
  190.5780  174.2860  135.6860 C   0  0  0  0  0  1  0  0  0  0  0  0
  190.4570  173.3930  136.8230 N   0  0  0  0  0  0  0  0  0  0  0  0
  192.2310  174.1640  138.1720 O   0  0  0  0  0  0  0  0  0  0  0  0
  193.4930  174.7160  145.4540 C   0  0  0  0  0  2  0  0  0  0  0  0
  196.1690  175.9670  143.4210 C   0  0  0  0  0  0  0  0  0  0  0  0
  194.9620  174.9590  145.4990 C   0  0  0  0  0  3  0  0  0  0  0  0
  196.8450  177.1750  143.5190 O   0  0  0  0  0  1  0  0  0  0  0  0
  195.5700  175.4690  144.4670 C   0  0  0  0  0  0  0  0  0  0  0  0
  196.1360  175.2260  142.1250 C   0  0  0  0  0  2  0  0  0  0  0  0
  194.5560  176.0170  140.5200 O   0  0  0  0  0  1  0  0  0  0  0  0
  194.7150  175.1380  141.5910 C   0  0  0  0  0  2  0  0  0  0  0  0
  191.9010  176.4350  146.2650 C   0  0  0  0  0  2  0  0  0  0  0  0
  191.6740  175.2870  147.2370 C   0  0  0  0  0  2  0  0  0  0  0  0
  190.2090  175.1880  147.6470 C   0  0  0  0  0  2  0  0  0  0  0  0
  189.2810  175.2860  146.4410 C   0  0  0  0  0  2  0  0  0  0  0  0
  188.0690  176.0150  146.7840 N   0  0  0  0  0  2  0  0  0  0  0  0
  187.5610  176.4980  145.6240 O   0  0  0  0  0  0  0  0  0  0  0  0
  187.1990  177.8150  145.9200 C   0  0  2  0  0  3  0  0  0  0  0  0
  186.9290  177.9260  147.4110 C   0  0  0  0  0  1  0  0  0  0  0  0
  185.9620  178.2260  145.1220 C   0  0  2  0  0  3  0  0  0  0  0  0
  184.8370  177.5310  145.5790 O   0  0  0  0  0  1  0  0  0  0  0  0
  186.1940  177.8700  143.3490 P   0  0  2  0  0  0  0  0  0  0  0  0
  185.8150  176.4320  143.0670 O   0  0  0  0  0  1  0  0  0  0  0  0
  187.8250  178.0950  142.9590 O   0  0  0  0  0  0  0  0  0  0  0  0
  184.0490  178.2430  142.1720 C   0  0  0  0  0  1  0  0  0  0  0  0
  185.2520  178.9160  142.3970 O   0  0  0  0  0  0  0  0  0  0  0  0
  1 18  1  1  0  0  0
  1 26  1  0  0  0  0
  2  3  2  0  0  0  0
  3  1  1  0  0  0  0
  4  8  1  0  0  0  0
  5  6  2  0  0  0  0
  6  7  1  0  0  0  0
  8  7  2  0  0  0  0
  8  2  1  0  0  0  0
  9  5  1  0  0  0  0
  9  4  2  0  0  0  0
 10  4  1  0  0  0  0
 11 17  2  0  0  0  0
 11 14  1  0  0  0  0
 12 14  1  0  0  0  0
 13 12  2  0  0  0  0
 14  9  1  1  0  0  0
 15 16  1  0  0  0  0
 16 13  1  0  0  0  0
 16 11  1  0  0  0  0
 18 20  1  0  0  0  0
 19 21  1  0  0  0  0
 19 22  2  0  0  0  0
 22 20  2  0  0  0  0
 23 19  1  0  0  0  0
 24 25  1  0  0  0  0
 25 23  1  0  0  0  0
 26 27  1  0  0  0  0
 27 28  1  0  0  0  0
 29 30  1  0  0  0  0
 29 28  1  0  0  0  0
 31 32  1  0  0  0  0
 31 30  1  0  0  0  0
 32 33  1  1  0  0  0
 34 35  1  1  0  0  0
 34 32  1  0  0  0  0
 36 38  2  6  0  0  0
 36 34  1  0  0  0  0
 37 36  1  0  0  0  0
 39 40  1  0  0  0  0
 40 36  1  0  0  0  0
M  END
>  <MODEL>
7

>  <REMARK>
 VINA RESULT:      -5.7      3.082      6.062
  Name = 
  17 active torsions:
  status: ('A' for Active; 'I' for Inactive)
    1  A    between atoms: C_3  and  C_37
    2  A    between atoms: C_3  and  C_40
    3  A    between atoms: P_5  and  C_6
    4  A    between atoms: P_5  and  O_29
    5  A    between atoms: C_6  and  C_33
    6  A    between atoms: C_8  and  C_19
    7  A    between atoms: C_13  and  C_23
    8  A    between atoms: C_14  and  C_22
    9  A    between atoms: C_18  and  C_25
   10  A    between atoms: C_19  and  C_32
   11  A    between atoms: N_20  and  C_40
   12  A    between atoms: C_22  and  C_40
   13  A    between atoms: C_24  and  C_27
   14  A    between atoms: C_24  and  N_36
   15  A    between atoms: C_27  and  C_37
   16  A    between atoms: C_33  and  O_34
   17  A    between atoms: O_34  and  N_36
                            x       y       z     vdW  Elec       q    Type
                         _______ _______ _______ _____ _____    ______ ____

>  <TORSDO>
F 17

$$$$
=
 OpenBabel11042419303D

 40 41  0  0  1  0  0  0  0  0999 V2000
  193.5700  175.5180  144.6100 C   0  0  2  0  0  3  0  0  0  0  0  0
  191.6130  176.3350  143.4910 C   0  0  0  0  0  3  0  0  0  0  0  0
  192.2450  175.3450  144.0330 N   0  0  0  0  0  0  0  0  0  0  0  0
  189.4600  177.2760  142.5390 C   0  0  0  0  0  0  0  0  0  0  0  0
  187.7470  175.7580  141.8410 N   0  0  0  0  0  0  0  0  0  0  0  0
  188.5120  174.6900  142.1880 C   0  0  0  0  0  3  0  0  0  0  0  0
  189.7830  174.8840  142.7320 C   0  0  0  0  0  3  0  0  0  0  0  0
  190.2660  176.1810  142.9140 C   0  0  0  0  0  0  0  0  0  0  0  0
  188.1840  177.0400  142.0010 C   0  0  0  0  0  0  0  0  0  0  0  0
  189.8910  178.5540  142.7040 F   0  0  0  0  0  0  0  0  0  0  0  0
  186.2640  178.5150  142.5950 C   0  0  0  0  0  0  0  0  0  0  0  0
  186.4660  177.8300  140.4120 C   0  0  0  0  0  3  0  0  0  0  0  0
  185.1710  177.9340  140.7000 C   0  0  0  0  0  3  0  0  0  0  0  0
  187.3210  178.2030  141.5940 C   0  0  2  0  0  3  0  0  0  0  0  0
  183.7240  178.2890  142.7650 C   0  0  0  0  0  1  0  0  0  0  0  0
  184.9750  178.3740  142.0330 N   0  0  0  0  0  0  0  0  0  0  0  0
  186.4730  178.8570  143.7890 O   0  0  0  0  0  0  0  0  0  0  0  0
  193.6130  176.7760  145.4650 C   0  0  0  0  0  2  0  0  0  0  0  0
  190.4710  176.1140  147.0630 C   0  0  0  0  0  0  0  0  0  0  0  0
  193.0370  176.4950  146.8100 C   0  0  0  0  0  3  0  0  0  0  0  0
  189.9860  174.9150  147.5650 O   0  0  0  0  0  1  0  0  0  0  0  0
  191.7570  176.2970  146.9430 C   0  0  0  0  0  0  0  0  0  0  0  0
  189.5280  177.2030  146.6720 C   0  0  0  0  0  2  0  0  0  0  0  0
  187.2750  176.6290  147.2140 O   0  0  0  0  0  1  0  0  0  0  0  0
  188.2110  176.6250  146.1790 C   0  0  0  0  0  2  0  0  0  0  0  0
  194.5910  175.6450  143.4870 C   0  0  0  0  0  2  0  0  0  0  0  0
  195.9400  175.0750  143.8990 C   0  0  0  0  0  2  0  0  0  0  0  0
  195.9080  174.5550  145.3320 C   0  0  0  0  0  2  0  0  0  0  0  0
  197.1820  173.7910  145.6790 C   0  0  0  0  0  2  0  0  0  0  0  0
  196.8630  172.4650  146.1880 N   0  0  0  0  0  2  0  0  0  0  0  0
  196.7090  171.6580  145.1100 O   0  0  0  0  0  0  0  0  0  0  0  0
  195.8580  170.6420  145.5510 C   0  0  2  0  0  3  0  0  0  0  0  0
  196.6980  169.5140  146.1250 C   0  0  0  0  0  1  0  0  0  0  0  0
  194.9910  170.1290  144.4010 C   0  0  2  0  0  3  0  0  0  0  0  0
  195.7670  169.9490  143.2510 O   0  0  0  0  0  1  0  0  0  0  0  0
  193.6540  171.3120  144.0290 P   0  0  2  0  0  0  0  0  0  0  0  0
  194.0660  172.1940  142.8720 O   0  0  0  0  0  0  0  0  0  0  0  0
  193.3900  172.2790  145.3910 O   0  0  0  0  0  1  0  0  0  0  0  0
  191.3550  171.4580  143.1250 C   0  0  0  0  0  1  0  0  0  0  0  0
  192.2140  170.4910  143.6500 O   0  0  0  0  0  0  0  0  0  0  0  0
  1 26  1  6  0  0  0
  1 18  1  0  0  0  0
  2  3  2  0  0  0  0
  3  1  1  0  0  0  0
  4 10  1  0  0  0  0
  4  8  1  0  0  0  0
  5  9  1  0  0  0  0
  5  6  2  0  0  0  0
  6  7  1  0  0  0  0
  7  8  2  0  0  0  0
  8  2  1  0  0  0  0
  9  4  2  0  0  0  0
 11 17  2  0  0  0  0
 12 13  2  0  0  0  0
 12 14  1  0  0  0  0
 13 16  1  0  0  0  0
 14  9  1  1  0  0  0
 14 11  1  0  0  0  0
 16 11  1  0  0  0  0
 16 15  1  0  0  0  0
 18 20  1  0  0  0  0
 19 21  1  0  0  0  0
 20 22  2  0  0  0  0
 22 19  2  0  0  0  0
 23 19  1  0  0  0  0
 25 23  1  0  0  0  0
 25 24  1  0  0  0  0
 26 27  1  0  0  0  0
 27 28  1  0  0  0  0
 28 29  1  0  0  0  0
 29 30  1  0  0  0  0
 31 32  1  0  0  0  0
 31 30  1  0  0  0  0
 32 33  1  6  0  0  0
 34 35  1  6  0  0  0
 34 32  1  0  0  0  0
 36 37  2  6  0  0  0
 36 34  1  0  0  0  0
 36 38  1  0  0  0  0
 39 40  1  0  0  0  0
 40 36  1  0  0  0  0
M  END
>  <MODEL>
8

>  <REMARK>
 VINA RESULT:      -5.7      2.711      5.043
  Name = 
  17 active torsions:
  status: ('A' for Active; 'I' for Inactive)
    1  A    between atoms: C_3  and  C_37
    2  A    between atoms: C_3  and  C_40
    3  A    between atoms: P_5  and  C_6
    4  A    between atoms: P_5  and  O_29
    5  A    between atoms: C_6  and  C_33
    6  A    between atoms: C_8  and  C_19
    7  A    between atoms: C_13  and  C_23
    8  A    between atoms: C_14  and  C_22
    9  A    between atoms: C_18  and  C_25
   10  A    between atoms: C_19  and  C_32
   11  A    between atoms: N_20  and  C_40
   12  A    between atoms: C_22  and  C_40
   13  A    between atoms: C_24  and  C_27
   14  A    between atoms: C_24  and  N_36
   15  A    between atoms: C_27  and  C_37
   16  A    between atoms: C_33  and  O_34
   17  A    between atoms: O_34  and  N_36
                            x       y       z     vdW  Elec       q    Type
                         _______ _______ _______ _____ _____    ______ ____

>  <TORSDO>
F 17

$$$$
=
 OpenBabel11042419303D

 40 41  0  0  1  0  0  0  0  0999 V2000
  188.7340  176.5520  145.5320 C   0  0  2  0  0  3  0  0  0  0  0  0
  189.9600  175.2170  143.9630 C   0  0  0  0  0  3  0  0  0  0  0  0
  188.9850  175.3150  144.8070 N   0  0  0  0  0  0  0  0  0  0  0  0
  191.0480  173.9290  142.0680 C   0  0  0  0  0  0  0  0  0  0  0  0
  190.6330  171.5810  141.8830 N   0  0  0  0  0  0  0  0  0  0  0  0
  189.8410  171.6040  142.9870 C   0  0  0  0  0  3  0  0  0  0  0  0
  189.6210  172.8030  143.6670 C   0  0  0  0  0  3  0  0  0  0  0  0
  190.2220  173.9770  143.2100 C   0  0  0  0  0  0  0  0  0  0  0  0
  191.2400  172.7060  141.4070 C   0  0  0  0  0  0  0  0  0  0  0  0
  191.6480  175.0500  141.5890 F   0  0  0  0  0  0  0  0  0  0  0  0
  191.3600  172.7570  138.9170 C   0  0  0  0  0  0  0  0  0  0  0  0
  192.7040  171.2660  140.0340 C   0  0  0  0  0  3  0  0  0  0  0  0
  192.3440  170.7180  138.8760 C   0  0  0  0  0  3  0  0  0  0  0  0
  192.1230  172.6470  140.1900 C   0  0  2  0  0  3  0  0  0  0  0  0
  190.7090  171.2120  136.9890 C   0  0  0  0  0  1  0  0  0  0  0  0
  191.5250  171.5980  138.1240 N   0  0  0  0  0  0  0  0  0  0  0  0
  190.6540  173.7420  138.5770 O   0  0  0  0  0  0  0  0  0  0  0  0
  188.1930  177.6160  144.5880 C   0  0  0  0  0  2  0  0  0  0  0  0
  184.6880  178.2890  144.9470 C   0  0  0  0  0  0  0  0  0  0  0  0
  186.8730  177.1910  144.0450 C   0  0  0  0  0  3  0  0  0  0  0  0
  183.8420  178.9760  144.0890 O   0  0  0  0  0  1  0  0  0  0  0  0
  185.7780  177.7400  144.4860 C   0  0  0  0  0  0  0  0  0  0  0  0
  184.3510  178.1620  146.3960 C   0  0  0  0  0  2  0  0  0  0  0  0
  186.0510  177.6500  147.9920 O   0  0  0  0  0  1  0  0  0  0  0  0
  185.4830  178.6940  147.2610 C   0  0  0  0  0  2  0  0  0  0  0  0
  190.0370  177.0460  146.1440 C   0  0  0  0  0  2  0  0  0  0  0  0
  190.4140  176.2310  147.3730 C   0  0  0  0  0  2  0  0  0  0  0  0
  191.7370  175.5010  147.1710 C   0  0  0  0  0  2  0  0  0  0  0  0
  192.8640  176.4700  146.8290 C   0  0  0  0  0  2  0  0  0  0  0  0
  193.4050  176.1820  145.5090 N   0  0  0  0  0  2  0  0  0  0  0  0
  194.2630  175.1440  145.6540 O   0  0  0  0  0  0  0  0  0  0  0  0
  194.3380  174.5700  144.3820 C   0  0  2  0  0  3  0  0  0  0  0  0
  193.7420  173.1740  144.4380 C   0  0  0  0  0  1  0  0  0  0  0  0
  195.7890  174.5110  143.9030 C   0  0  2  0  0  3  0  0  0  0  0  0
  196.6640  174.6390  144.9870 O   0  0  0  0  0  1  0  0  0  0  0  0
  196.1260  175.8520  142.7130 P   0  0  2  0  0  0  0  0  0  0  0  0
  196.7010  177.0460  143.4450 O   0  0  0  0  0  1  0  0  0  0  0  0
  194.6710  176.3060  141.9800 O   0  0  0  0  0  0  0  0  0  0  0  0
  196.6470  175.7310  140.2970 C   0  0  0  0  0  1  0  0  0  0  0  0
  197.2090  175.3310  141.5110 O   0  0  0  0  0  0  0  0  0  0  0  0
  1 18  1  6  0  0  0
  1 26  1  0  0  0  0
  2  3  2  0  0  0  0
  3  1  1  0  0  0  0
  4  8  1  0  0  0  0
  5  6  2  0  0  0  0
  6  7  1  0  0  0  0
  8  7  2  0  0  0  0
  8  2  1  0  0  0  0
  9  5  1  0  0  0  0
  9  4  2  0  0  0  0
 10  4  1  0  0  0  0
 11 14  1  0  0  0  0
 12 14  1  0  0  0  0
 13 12  2  0  0  0  0
 14  9  1  1  0  0  0
 15 16  1  0  0  0  0
 16 13  1  0  0  0  0
 16 11  1  0  0  0  0
 17 11  2  0  0  0  0
 19 23  1  0  0  0  0
 20 22  2  0  0  0  0
 20 18  1  0  0  0  0
 21 19  1  0  0  0  0
 22 19  2  0  0  0  0
 23 25  1  0  0  0  0
 25 24  1  0  0  0  0
 26 27  1  0  0  0  0
 28 27  1  0  0  0  0
 29 28  1  0  0  0  0
 30 31  1  0  0  0  0
 30 29  1  0  0  0  0
 32 33  1  1  0  0  0
 32 31  1  0  0  0  0
 34 32  1  0  0  0  0
 34 35  1  1  0  0  0
 36 38  2  6  0  0  0
 36 37  1  0  0  0  0
 36 34  1  0  0  0  0
 39 40  1  0  0  0  0
 40 36  1  0  0  0  0
M  END
>  <MODEL>
9

>  <REMARK>
 VINA RESULT:      -5.7      2.845      8.059
  Name = 
  17 active torsions:
  status: ('A' for Active; 'I' for Inactive)
    1  A    between atoms: C_3  and  C_37
    2  A    between atoms: C_3  and  C_40
    3  A    between atoms: P_5  and  C_6
    4  A    between atoms: P_5  and  O_29
    5  A    between atoms: C_6  and  C_33
    6  A    between atoms: C_8  and  C_19
    7  A    between atoms: C_13  and  C_23
    8  A    between atoms: C_14  and  C_22
    9  A    between atoms: C_18  and  C_25
   10  A    between atoms: C_19  and  C_32
   11  A    between atoms: N_20  and  C_40
   12  A    between atoms: C_22  and  C_40
   13  A    between atoms: C_24  and  C_27
   14  A    between atoms: C_24  and  N_36
   15  A    between atoms: C_27  and  C_37
   16  A    between atoms: C_33  and  O_34
   17  A    between atoms: O_34  and  N_36
                            x       y       z     vdW  Elec       q    Type
                         _______ _______ _______ _____ _____    ______ ____

>  <TORSDO>
F 17

$$$$
