=
 OpenBabel11042418373D

 37 42  0  0  1  0  0  0  0  0999 V2000
  184.4570  179.7210  144.6660 N   0  0  0  0  0  2  0  0  0  0  0  0
  186.1230  178.0330  144.2140 C   0  0  1  0  0  0  0  0  0  0  0  0
  185.0890  177.4650  145.1690 C   0  0  0  0  0  2  0  0  0  0  0  0
  184.2700  178.6550  145.6340 C   0  0  0  0  0  2  0  0  0  0  0  0
  185.7920  179.5170  144.1270 C   0  0  0  0  0  2  0  0  0  0  0  0
  191.6690  177.1180  143.7210 C   0  0  0  0  0  3  0  0  0  0  0  0
  192.1690  175.6070  146.1270 C   0  0  0  0  0  0  0  0  0  0  0  0
  193.1400  175.5100  144.9700 C   0  0  1  0  0  3  0  0  0  0  0  0
  189.0190  177.3170  146.1470 C   0  0  0  0  0  0  0  0  0  0  0  0
  192.7610  176.3250  143.7390 C   0  0  0  0  0  0  0  0  0  0  0  0
  189.5670  177.7640  145.0230 C   0  0  0  0  0  0  0  0  0  0  0  0
  187.4950  177.8180  144.8110 C   0  0  0  0  0  0  0  0  0  0  0  0
  187.6820  177.3000  146.0650 N   0  0  0  0  0  0  0  0  0  0  0  0
  190.8070  177.2120  144.9100 C   0  0  0  0  0  0  0  0  0  0  0  0
  188.6450  178.0650  144.1110 N   0  0  0  0  0  2  0  0  0  0  0  0
  191.0170  176.4570  146.0110 N   0  0  0  0  0  0  0  0  0  0  0  0
  189.8920  176.4540  146.7810 C   0  0  0  0  0  3  0  0  0  0  0  0
  192.3670  174.9210  147.1610 O   0  0  0  0  0  0  0  0  0  0  0  0
  194.4880  175.8700  145.4000 N   0  0  0  0  0  1  0  0  0  0  0  0
  193.5760  176.2040  142.6010 O   0  0  0  0  0  0  0  0  0  0  0  0
  193.8940  174.9620  141.9940 C   0  0  0  0  0  1  0  0  0  0  0  0
  185.9940  176.2290  142.6750 O   0  0  0  0  0  0  0  0  0  0  0  0
  186.0030  177.4430  142.8190 C   0  0  0  0  0  0  0  0  0  0  0  0
  186.0470  178.3490  141.6000 C   0  0  2  0  0  3  0  0  0  0  0  0
  184.6840  178.6680  140.9790 C   0  0  1  0  0  3  0  0  0  0  0  0
  185.6050  177.6580  140.3210 C   0  0  0  0  0  2  0  0  0  0  0  0
  183.5710  177.9640  141.6130 N   0  0  0  0  0  2  0  0  0  0  0  0
  182.4680  178.0160  140.6680 C   0  0  0  0  0  2  0  0  0  0  0  0
  181.3520  178.8780  141.2380 C   0  0  0  0  0  2  0  0  0  0  0  0
  179.9590  181.0840  140.1630 O   0  0  0  0  0  0  0  0  0  0  0  0
  178.4230  179.5180  138.9040 O   0  0  0  0  0  0  0  0  0  0  0  0
  179.1750  179.8000  140.1730 S   0  0  0  0  0  0  0  0  0  0  0  0
  180.0680  178.4280  140.7190 N   0  0  0  0  0  0  0  0  0  0  0  0
  179.1690  178.2470  141.8720 C   0  0  1  0  0  3  0  0  0  0  0  0
  178.2570  179.4570  141.6290 C   0  0  0  0  0  2  0  0  0  0  0  0
  178.2060  176.6030  143.0120 C   0  0  0  0  0  1  0  0  0  0  0  0
  178.4390  177.0700  141.7020 O   0  0  0  0  0  0  0  0  0  0  0  0
  1  4  1  0  0  0  0
  2 23  1  6  0  0  0
  2 12  1  0  0  0  0
  2  3  1  0  0  0  0
  3  4  1  0  0  0  0
  5  2  1  0  0  0  0
  5  1  1  0  0  0  0
  6 10  2  0  0  0  0
  6 14  1  0  0  0  0
  7 18  2  0  0  0  0
  8 19  1  1  0  0  0
  8  7  1  0  0  0  0
  9 17  2  0  0  0  0
 10  8  1  0  0  0  0
 11  9  1  0  0  0  0
 12 13  2  0  0  0  0
 13  9  1  0  0  0  0
 14 11  2  0  0  0  0
 14 16  1  0  0  0  0
 15 12  1  0  0  0  0
 15 11  1  0  0  0  0
 16  7  1  0  0  0  0
 16 17  1  0  0  0  0
 20 10  1  0  0  0  0
 21 20  1  0  0  0  0
 22 23  2  0  0  0  0
 24 23  1  1  0  0  0
 25 24  1  0  0  0  0
 25 27  1  1  0  0  0
 26 25  1  0  0  0  0
 26 24  1  0  0  0  0
 28 29  1  0  0  0  0
 28 27  1  0  0  0  0
 30 32  2  0  0  0  0
 31 32  2  0  0  0  0
 32 33  1  0  0  0  0
 32 35  1  0  0  0  0
 33 29  1  0  0  0  0
 33 34  1  0  0  0  0
 34 37  1  6  0  0  0
 35 34  1  0  0  0  0
 37 36  1  0  0  0  0
M  END
>  <MODEL>
1

>  <REMARK>
 VINA RESULT:      -8.1      0.000      0.000
  Name = 
  9 active torsions:
  status: ('A' for Active; 'I' for Inactive)
    1  A    between atoms: C_6  and  C_35
    2  A    between atoms: C_7  and  N_14
    3  A    between atoms: C_7  and  C_22
    4  A    between atoms: C_8  and  C_18
    5  A    between atoms: C_8  and  C_35
    6  A    between atoms: C_9  and  N_33
    7  A    between atoms: C_13  and  O_17
    8  A    between atoms: C_20  and  O_28
    9  A    between atoms: C_22  and  N_33
                            x       y       z     vdW  Elec       q    Type
                         _______ _______ _______ _____ _____    ______ ____

>  <TORSDO>
F 9

$$$$
=
 OpenBabel11042418373D

 37 42  0  0  1  0  0  0  0  0999 V2000
  194.0870  176.7280  146.8730 N   0  0  0  0  0  2  0  0  0  0  0  0
  192.5190  176.0370  145.1730 C   0  0  1  0  0  0  0  0  0  0  0  0
  193.7820  176.5460  144.5040 C   0  0  0  0  0  2  0  0  0  0  0  0
  194.5740  177.2310  145.6010 C   0  0  0  0  0  2  0  0  0  0  0  0
  192.6900  176.3980  146.6430 C   0  0  0  0  0  2  0  0  0  0  0  0
  187.1150  177.6620  145.2760 C   0  0  0  0  0  3  0  0  0  0  0  0
  186.5420  177.7610  142.4500 C   0  0  0  0  0  0  0  0  0  0  0  0
  185.4030  177.6310  143.4380 C   0  0  1  0  0  3  0  0  0  0  0  0
  190.0480  177.6490  143.1900 C   0  0  0  0  0  0  0  0  0  0  0  0
  185.8230  177.5560  144.9020 C   0  0  0  0  0  0  0  0  0  0  0  0
  189.5150  177.7610  144.4010 C   0  0  0  0  0  0  0  0  0  0  0  0
  191.3330  176.7600  144.5740 C   0  0  0  0  0  0  0  0  0  0  0  0
  191.2120  176.9870  143.2280 N   0  0  0  0  0  0  0  0  0  0  0  0
  188.1630  177.8540  144.2600 C   0  0  0  0  0  0  0  0  0  0  0  0
  190.2710  177.1770  145.3280 N   0  0  0  0  0  2  0  0  0  0  0  0
  187.8910  177.8420  142.9360 N   0  0  0  0  0  0  0  0  0  0  0  0
  189.0470  177.6560  142.2380 C   0  0  0  0  0  3  0  0  0  0  0  0
  186.2950  177.7690  141.2190 O   0  0  0  0  0  0  0  0  0  0  0  0
  184.4420  178.7160  143.2590 N   0  0  0  0  0  1  0  0  0  0  0  0
  184.8160  177.3440  145.8580 O   0  0  0  0  0  0  0  0  0  0  0  0
  184.5400  178.2460  146.9180 C   0  0  0  0  0  1  0  0  0  0  0  0
  191.3380  173.9900  145.4170 O   0  0  0  0  0  0  0  0  0  0  0  0
  192.3820  174.5270  145.0730 C   0  0  0  0  0  0  0  0  0  0  0  0
  193.5810  173.6750  144.6920 C   0  0  2  0  0  3  0  0  0  0  0  0
  193.6760  173.3160  143.2060 C   0  0  1  0  0  3  0  0  0  0  0  0
  193.2010  172.2840  144.2130 C   0  0  0  0  0  2  0  0  0  0  0  0
  192.5360  173.7780  142.4160 N   0  0  0  0  0  2  0  0  0  0  0  0
  192.4320  172.8700  141.2870 C   0  0  0  0  0  2  0  0  0  0  0  0
  191.0050  172.3500  141.1840 C   0  0  0  0  0  2  0  0  0  0  0  0
  189.5160  171.9720  143.5490 O   0  0  0  0  0  0  0  0  0  0  0  0
  188.8150  174.4010  143.5140 O   0  0  0  0  0  0  0  0  0  0  0  0
  189.0800  173.1510  142.7240 S   0  0  0  0  0  0  0  0  0  0  0  0
  190.0670  173.4530  141.3410 N   0  0  0  0  0  0  0  0  0  0  0  0
  188.9400  173.2010  140.4280 C   0  0  1  0  0  3  0  0  0  0  0  0
  187.8840  172.8350  141.4790 C   0  0  0  0  0  2  0  0  0  0  0  0
  188.4460  174.0620  138.4410 C   0  0  0  0  0  1  0  0  0  0  0  0
  188.5810  174.3980  139.8040 O   0  0  0  0  0  0  0  0  0  0  0  0
  2 23  1  6  0  0  0
  2  5  1  0  0  0  0
  3  2  1  0  0  0  0
  3  4  1  0  0  0  0
  4  1  1  0  0  0  0
  5  1  1  0  0  0  0
  7 16  1  0  0  0  0
  7  8  1  0  0  0  0
  8 19  1  1  0  0  0
  8 10  1  0  0  0  0
  9 13  1  0  0  0  0
  9 11  1  0  0  0  0
 10  6  2  0  0  0  0
 10 20  1  0  0  0  0
 11 15  1  0  0  0  0
 12  2  1  0  0  0  0
 12 15  1  0  0  0  0
 13 12  2  0  0  0  0
 14 11  2  0  0  0  0
 14  6  1  0  0  0  0
 16 14  1  0  0  0  0
 17 16  1  0  0  0  0
 17  9  2  0  0  0  0
 18  7  2  0  0  0  0
 20 21  1  0  0  0  0
 23 22  2  0  0  0  0
 24 23  1  6  0  0  0
 25 27  1  6  0  0  0
 25 26  1  0  0  0  0
 25 24  1  0  0  0  0
 26 24  1  0  0  0  0
 28 27  1  0  0  0  0
 29 28  1  0  0  0  0
 29 33  1  0  0  0  0
 32 31  2  0  0  0  0
 32 30  2  0  0  0  0
 33 32  1  0  0  0  0
 34 37  1  1  0  0  0
 34 33  1  0  0  0  0
 34 35  1  0  0  0  0
 35 32  1  0  0  0  0
 36 37  1  0  0  0  0
M  END
>  <MODEL>
2

>  <REMARK>
 VINA RESULT:      -7.8      4.149      8.977
  Name = 
  9 active torsions:
  status: ('A' for Active; 'I' for Inactive)
    1  A    between atoms: C_6  and  C_35
    2  A    between atoms: C_7  and  N_14
    3  A    between atoms: C_7  and  C_22
    4  A    between atoms: C_8  and  C_18
    5  A    between atoms: C_8  and  C_35
    6  A    between atoms: C_9  and  N_33
    7  A    between atoms: C_13  and  O_17
    8  A    between atoms: C_20  and  O_28
    9  A    between atoms: C_22  and  N_33
                            x       y       z     vdW  Elec       q    Type
                         _______ _______ _______ _____ _____    ______ ____

>  <TORSDO>
F 9

$$$$
=
 OpenBabel11042418373D

 37 42  0  0  1  0  0  0  0  0999 V2000
  194.7350  176.2590  146.3080 N   0  0  0  0  0  2  0  0  0  0  0  0
  192.8740  175.3560  145.0650 C   0  0  1  0  0  0  0  0  0  0  0  0
  193.2580  176.6990  144.4740 C   0  0  0  0  0  2  0  0  0  0  0  0
  194.2070  177.3270  145.4780 C   0  0  0  0  0  2  0  0  0  0  0  0
  193.6860  175.2540  146.3490 C   0  0  0  0  0  2  0  0  0  0  0  0
  187.6750  177.4260  144.3370 C   0  0  0  0  0  3  0  0  0  0  0  0
  186.5450  176.9400  146.9460 C   0  0  0  0  0  0  0  0  0  0  0  0
  185.9250  177.9900  146.0490 C   0  0  1  0  0  3  0  0  0  0  0  0
  189.5640  175.1060  146.3370 C   0  0  0  0  0  0  0  0  0  0  0  0
  186.6220  178.1850  144.7070 C   0  0  0  0  0  0  0  0  0  0  0  0
  189.3400  175.6680  145.1540 C   0  0  0  0  0  0  0  0  0  0  0  0
  191.3920  175.3680  145.3620 C   0  0  0  0  0  0  0  0  0  0  0  0
  190.8730  174.9110  146.5440 N   0  0  0  0  0  0  0  0  0  0  0  0
  188.1800  176.3770  145.2370 C   0  0  0  0  0  0  0  0  0  0  0  0
  190.4740  175.8990  144.4960 N   0  0  0  0  0  2  0  0  0  0  0  0
  187.6810  176.1950  146.4800 N   0  0  0  0  0  0  0  0  0  0  0  0
  188.5540  175.4500  147.2150 C   0  0  0  0  0  3  0  0  0  0  0  0
  186.0750  176.7530  148.0960 O   0  0  0  0  0  0  0  0  0  0  0  0
  184.5110  177.7080  145.8300 N   0  0  0  0  0  1  0  0  0  0  0  0
  186.1480  179.2080  143.8700 O   0  0  0  0  0  0  0  0  0  0  0  0
  185.9400  179.0460  142.4760 C   0  0  0  0  0  1  0  0  0  0  0  0
  192.8350  173.0780  144.3940 O   0  0  0  0  0  0  0  0  0  0  0  0
  193.2700  174.1970  144.1650 C   0  0  0  0  0  0  0  0  0  0  0  0
  194.3160  174.3950  143.0800 C   0  0  2  0  0  3  0  0  0  0  0  0
  193.7570  174.6240  141.6730 C   0  0  1  0  0  3  0  0  0  0  0  0
  194.3370  173.2740  142.0550 C   0  0  0  0  0  2  0  0  0  0  0  0
  192.3010  174.5160  141.5960 N   0  0  0  0  0  2  0  0  0  0  0  0
  192.0140  173.7710  140.3830 C   0  0  0  0  0  2  0  0  0  0  0  0
  190.6780  173.0570  140.5300 C   0  0  0  0  0  2  0  0  0  0  0  0
  190.0300  170.8420  142.1520 O   0  0  0  0  0  0  0  0  0  0  0  0
  189.6840  172.3760  144.1330 O   0  0  0  0  0  0  0  0  0  0  0  0
  189.5020  172.1570  142.6580 S   0  0  0  0  0  0  0  0  0  0  0  0
  190.0000  173.5250  141.7320 N   0  0  0  0  0  0  0  0  0  0  0  0
  188.6090  173.8320  141.3570 C   0  0  1  0  0  3  0  0  0  0  0  0
  187.9280  172.6500  142.0590 C   0  0  0  0  0  2  0  0  0  0  0  0
  187.8140  175.8570  140.9090 C   0  0  0  0  0  1  0  0  0  0  0  0
  188.2230  175.0250  141.9720 O   0  0  0  0  0  0  0  0  0  0  0  0
  1  5  1  0  0  0  0
  2 23  1  6  0  0  0
  2 12  1  0  0  0  0
  2  5  1  0  0  0  0
  3  2  1  0  0  0  0
  3  4  1  0  0  0  0
  4  1  1  0  0  0  0
  6 10  2  0  0  0  0
  6 14  1  0  0  0  0
  7 18  2  0  0  0  0
  8 19  1  6  0  0  0
  8  7  1  0  0  0  0
  9 13  1  0  0  0  0
  9 17  2  0  0  0  0
 10  8  1  0  0  0  0
 11 14  2  0  0  0  0
 11  9  1  0  0  0  0
 12 13  2  0  0  0  0
 14 16  1  0  0  0  0
 15 11  1  0  0  0  0
 15 12  1  0  0  0  0
 16  7  1  0  0  0  0
 16 17  1  0  0  0  0
 20 10  1  0  0  0  0
 21 20  1  0  0  0  0
 23 22  2  0  0  0  0
 24 23  1  1  0  0  0
 25 27  1  1  0  0  0
 25 26  1  0  0  0  0
 25 24  1  0  0  0  0
 26 24  1  0  0  0  0
 28 29  1  0  0  0  0
 28 27  1  0  0  0  0
 29 33  1  0  0  0  0
 30 32  2  0  0  0  0
 32 31  2  0  0  0  0
 33 32  1  0  0  0  0
 34 33  1  0  0  0  0
 34 37  1  1  0  0  0
 34 35  1  0  0  0  0
 35 32  1  0  0  0  0
 36 37  1  0  0  0  0
M  END
>  <MODEL>
3

>  <REMARK>
 VINA RESULT:      -7.6      4.499      8.752
  Name = 
  9 active torsions:
  status: ('A' for Active; 'I' for Inactive)
    1  A    between atoms: C_6  and  C_35
    2  A    between atoms: C_7  and  N_14
    3  A    between atoms: C_7  and  C_22
    4  A    between atoms: C_8  and  C_18
    5  A    between atoms: C_8  and  C_35
    6  A    between atoms: C_9  and  N_33
    7  A    between atoms: C_13  and  O_17
    8  A    between atoms: C_20  and  O_28
    9  A    between atoms: C_22  and  N_33
                            x       y       z     vdW  Elec       q    Type
                         _______ _______ _______ _____ _____    ______ ____

>  <TORSDO>
F 9

$$$$
=
 OpenBabel11042418373D

 37 42  0  0  1  0  0  0  0  0999 V2000
  194.0900  176.7530  146.8570 N   0  0  0  0  0  2  0  0  0  0  0  0
  192.4660  176.0030  145.2360 C   0  0  1  0  0  0  0  0  0  0  0  0
  193.7210  176.4500  144.5100 C   0  0  0  0  0  2  0  0  0  0  0  0
  194.5530  177.1780  145.5490 C   0  0  0  0  0  2  0  0  0  0  0  0
  192.6810  176.4380  146.6790 C   0  0  0  0  0  2  0  0  0  0  0  0
  187.0700  177.6500  145.3370 C   0  0  0  0  0  3  0  0  0  0  0  0
  186.4770  177.6820  142.5140 C   0  0  0  0  0  0  0  0  0  0  0  0
  185.3440  177.5810  143.5130 C   0  0  1  0  0  3  0  0  0  0  0  0
  189.9870  177.5750  143.2310 C   0  0  0  0  0  0  0  0  0  0  0  0
  185.7750  177.5400  144.9740 C   0  0  0  0  0  0  0  0  0  0  0  0
  189.4640  177.7190  144.4430 C   0  0  0  0  0  0  0  0  0  0  0  0
  191.2800  176.7150  144.6270 C   0  0  0  0  0  0  0  0  0  0  0  0
  191.1490  176.9090  143.2780 N   0  0  0  0  0  0  0  0  0  0  0  0
  188.1110  177.8130  144.3090 C   0  0  0  0  0  0  0  0  0  0  0  0
  190.2240  177.1540  145.3790 N   0  0  0  0  0  2  0  0  0  0  0  0
  187.8300  177.7690  142.9880 N   0  0  0  0  0  0  0  0  0  0  0  0
  188.9800  177.5620  142.2860 C   0  0  0  0  0  3  0  0  0  0  0  0
  186.2220  177.6600  141.2840 O   0  0  0  0  0  0  0  0  0  0  0  0
  184.3870  178.6640  143.3140 N   0  0  0  0  0  1  0  0  0  0  0  0
  184.7740  177.3560  145.9430 O   0  0  0  0  0  0  0  0  0  0  0  0
  184.4080  178.3470  146.8890 C   0  0  0  0  0  1  0  0  0  0  0  0
  191.2350  173.9980  145.5630 O   0  0  0  0  0  0  0  0  0  0  0  0
  192.3000  174.4920  145.2210 C   0  0  0  0  0  0  0  0  0  0  0  0
  193.4910  173.5950  144.9280 C   0  0  2  0  0  3  0  0  0  0  0  0
  193.5660  173.0610  143.4950 C   0  0  1  0  0  3  0  0  0  0  0  0
  193.1010  172.1590  144.6230 C   0  0  0  0  0  2  0  0  0  0  0  0
  192.4170  173.4310  142.6700 N   0  0  0  0  0  2  0  0  0  0  0  0
  191.6920  172.2000  142.4090 C   0  0  0  0  0  2  0  0  0  0  0  0
  191.7220  171.9010  140.9170 C   0  0  0  0  0  2  0  0  0  0  0  0
  191.7850  171.4630  138.1310 O   0  0  0  0  0  0  0  0  0  0  0  0
  189.5030  170.3800  138.2340 O   0  0  0  0  0  0  0  0  0  0  0  0
  190.4040  171.4770  138.7250 S   0  0  0  0  0  0  0  0  0  0  0  0
  190.3720  171.6240  140.4440 N   0  0  0  0  0  0  0  0  0  0  0  0
  189.6640  172.9130  140.3640 C   0  0  1  0  0  3  0  0  0  0  0  0
  189.6160  173.0410  138.8360 C   0  0  0  0  0  2  0  0  0  0  0  0
  188.2240  173.7830  141.8140 C   0  0  0  0  0  1  0  0  0  0  0  0
  188.3690  172.7550  140.8600 O   0  0  0  0  0  0  0  0  0  0  0  0
  2 23  1  6  0  0  0
  2  5  1  0  0  0  0
  3  2  1  0  0  0  0
  3  4  1  0  0  0  0
  4  1  1  0  0  0  0
  5  1  1  0  0  0  0
  7 16  1  0  0  0  0
  7  8  1  0  0  0  0
  8 19  1  1  0  0  0
  8 10  1  0  0  0  0
  9 13  1  0  0  0  0
  9 11  1  0  0  0  0
 10  6  2  0  0  0  0
 10 20  1  0  0  0  0
 11 15  1  0  0  0  0
 12  2  1  0  0  0  0
 12 15  1  0  0  0  0
 13 12  2  0  0  0  0
 14 11  2  0  0  0  0
 14  6  1  0  0  0  0
 16 14  1  0  0  0  0
 17 16  1  0  0  0  0
 17  9  2  0  0  0  0
 18  7  2  0  0  0  0
 20 21  1  0  0  0  0
 23 22  2  0  0  0  0
 24 23  1  6  0  0  0
 25 27  1  6  0  0  0
 25 26  1  0  0  0  0
 25 24  1  0  0  0  0
 26 24  1  0  0  0  0
 28 27  1  0  0  0  0
 29 28  1  0  0  0  0
 30 32  2  0  0  0  0
 31 32  2  0  0  0  0
 32 35  1  0  0  0  0
 32 33  1  0  0  0  0
 33 29  1  0  0  0  0
 34 33  1  0  0  0  0
 34 37  1  6  0  0  0
 35 34  1  0  0  0  0
 37 36  1  0  0  0  0
M  END
>  <MODEL>
4

>  <REMARK>
 VINA RESULT:      -7.2      4.302      9.338
  Name = 
  9 active torsions:
  status: ('A' for Active; 'I' for Inactive)
    1  A    between atoms: C_6  and  C_35
    2  A    between atoms: C_7  and  N_14
    3  A    between atoms: C_7  and  C_22
    4  A    between atoms: C_8  and  C_18
    5  A    between atoms: C_8  and  C_35
    6  A    between atoms: C_9  and  N_33
    7  A    between atoms: C_13  and  O_17
    8  A    between atoms: C_20  and  O_28
    9  A    between atoms: C_22  and  N_33
                            x       y       z     vdW  Elec       q    Type
                         _______ _______ _______ _____ _____    ______ ____

>  <TORSDO>
F 9

$$$$
=
 OpenBabel11042418373D

 37 42  0  0  1  0  0  0  0  0999 V2000
  189.6040  171.2510  142.5480 N   0  0  0  0  0  2  0  0  0  0  0  0
  190.1160  173.5950  142.2830 C   0  0  1  0  0  0  0  0  0  0  0  0
  190.4110  173.1820  143.7130 C   0  0  0  0  0  2  0  0  0  0  0  0
  189.7860  171.8100  143.8760 C   0  0  0  0  0  2  0  0  0  0  0  0
  189.3970  172.3980  141.6770 C   0  0  0  0  0  2  0  0  0  0  0  0
  186.6490  177.1560  144.9560 C   0  0  0  0  0  3  0  0  0  0  0  0
  184.9160  177.9310  142.7840 C   0  0  0  0  0  0  0  0  0  0  0  0
  184.4410  178.0960  144.2130 C   0  0  1  0  0  3  0  0  0  0  0  0
  187.9390  176.3430  141.6960 C   0  0  0  0  0  0  0  0  0  0  0  0
  185.4250  177.6250  145.2780 C   0  0  0  0  0  0  0  0  0  0  0  0
  188.1420  176.4550  143.0040 C   0  0  0  0  0  0  0  0  0  0  0  0
  189.2170  174.8100  142.3100 C   0  0  0  0  0  0  0  0  0  0  0  0
  188.5840  175.2830  141.1910 N   0  0  0  0  0  0  0  0  0  0  0  0
  187.0650  177.0880  143.5460 C   0  0  0  0  0  0  0  0  0  0  0  0
  188.9210  175.4780  143.4670 N   0  0  0  0  0  2  0  0  0  0  0  0
  186.2260  177.3990  142.5340 N   0  0  0  0  0  0  0  0  0  0  0  0
  186.7160  176.8950  141.3660 C   0  0  0  0  0  3  0  0  0  0  0  0
  184.1470  178.2360  141.8380 O   0  0  0  0  0  0  0  0  0  0  0  0
  184.0650  179.4820  144.4720 N   0  0  0  0  0  1  0  0  0  0  0  0
  185.0050  177.6690  146.6180 O   0  0  0  0  0  0  0  0  0  0  0  0
  185.7110  178.3560  147.6380 C   0  0  0  0  0  1  0  0  0  0  0  0
  191.3140  173.9860  140.2690 O   0  0  0  0  0  0  0  0  0  0  0  0
  191.3840  173.8360  141.4810 C   0  0  0  0  0  0  0  0  0  0  0  0
  192.7440  173.7430  142.1540 C   0  0  2  0  0  3  0  0  0  0  0  0
  193.2510  175.0470  142.7770 C   0  0  1  0  0  3  0  0  0  0  0  0
  193.8170  174.5610  141.4550 C   0  0  0  0  0  2  0  0  0  0  0  0
  192.3760  176.1930  142.5330 N   0  0  0  0  0  2  0  0  0  0  0  0
  192.6720  177.1570  143.5780 C   0  0  0  0  0  2  0  0  0  0  0  0
  191.5130  177.2080  144.5630 C   0  0  0  0  0  2  0  0  0  0  0  0
  189.5960  177.5410  146.6060 O   0  0  0  0  0  0  0  0  0  0  0  0
  189.8530  175.1130  147.2630 O   0  0  0  0  0  0  0  0  0  0  0  0
  190.5260  176.3780  146.8120 S   0  0  0  0  0  0  0  0  0  0  0  0
  191.6190  176.1020  145.5050 N   0  0  0  0  0  0  0  0  0  0  0  0
  192.7840  176.3710  146.3650 C   0  0  1  0  0  3  0  0  0  0  0  0
  192.0280  176.7160  147.6550 C   0  0  0  0  0  2  0  0  0  0  0  0
  194.8130  175.4970  146.1380 C   0  0  0  0  0  1  0  0  0  0  0  0
  193.5000  175.1870  146.5480 O   0  0  0  0  0  0  0  0  0  0  0  0
  1  4  1  0  0  0  0
  2 23  1  6  0  0  0
  2 12  1  0  0  0  0
  2  3  1  0  0  0  0
  3  4  1  0  0  0  0
  5  2  1  0  0  0  0
  5  1  1  0  0  0  0
  6 10  2  0  0  0  0
  7  8  1  0  0  0  0
  8 19  1  1  0  0  0
  8 10  1  0  0  0  0
  9 11  1  0  0  0  0
 10 20  1  0  0  0  0
 11 15  1  0  0  0  0
 11 14  2  0  0  0  0
 12 15  1  0  0  0  0
 13  9  1  0  0  0  0
 13 12  2  0  0  0  0
 14  6  1  0  0  0  0
 16  7  1  0  0  0  0
 16 14  1  0  0  0  0
 17  9  2  0  0  0  0
 17 16  1  0  0  0  0
 18  7  2  0  0  0  0
 20 21  1  0  0  0  0
 22 23  2  0  0  0  0
 24 23  1  6  0  0  0
 24 25  1  0  0  0  0
 25 27  1  6  0  0  0
 26 24  1  0  0  0  0
 26 25  1  0  0  0  0
 27 28  1  0  0  0  0
 28 29  1  0  0  0  0
 29 33  1  0  0  0  0
 30 32  2  0  0  0  0
 32 31  2  0  0  0  0
 32 35  1  0  0  0  0
 33 34  1  0  0  0  0
 33 32  1  0  0  0  0
 34 37  1  1  0  0  0
 34 35  1  0  0  0  0
 36 37  1  0  0  0  0
M  END
>  <MODEL>
5

>  <REMARK>
 VINA RESULT:      -7.1      3.942      9.740
  Name = 
  9 active torsions:
  status: ('A' for Active; 'I' for Inactive)
    1  A    between atoms: C_6  and  C_35
    2  A    between atoms: C_7  and  N_14
    3  A    between atoms: C_7  and  C_22
    4  A    between atoms: C_8  and  C_18
    5  A    between atoms: C_8  and  C_35
    6  A    between atoms: C_9  and  N_33
    7  A    between atoms: C_13  and  O_17
    8  A    between atoms: C_20  and  O_28
    9  A    between atoms: C_22  and  N_33
                            x       y       z     vdW  Elec       q    Type
                         _______ _______ _______ _____ _____    ______ ____

>  <TORSDO>
F 9

$$$$
=
 OpenBabel11042418373D

 37 42  0  0  1  0  0  0  0  0999 V2000
  196.5520  176.3240  143.3000 N   0  0  0  0  0  2  0  0  0  0  0  0
  194.2720  175.7350  143.8340 C   0  0  1  0  0  0  0  0  0  0  0  0
  194.6140  175.1950  142.4580 C   0  0  0  0  0  2  0  0  0  0  0  0
  195.9250  175.8560  142.0770 C   0  0  0  0  0  2  0  0  0  0  0  0
  195.4510  176.6270  144.2010 C   0  0  0  0  0  2  0  0  0  0  0  0
  189.3560  177.5480  145.9290 C   0  0  0  0  0  3  0  0  0  0  0  0
  187.8320  177.8580  143.4990 C   0  0  0  0  0  0  0  0  0  0  0  0
  187.1070  177.7040  144.8200 C   0  0  1  0  0  3  0  0  0  0  0  0
  191.3600  177.5670  142.9390 C   0  0  0  0  0  0  0  0  0  0  0  0
  188.0110  177.5160  146.0330 C   0  0  0  0  0  0  0  0  0  0  0  0
  191.2950  177.6170  144.2650 C   0  0  0  0  0  0  0  0  0  0  0  0
  192.9960  176.5390  143.7310 C   0  0  0  0  0  0  0  0  0  0  0  0
  192.4220  176.8600  142.5300 N   0  0  0  0  0  0  0  0  0  0  0  0
  189.9880  177.7680  144.6180 C   0  0  0  0  0  0  0  0  0  0  0  0
  192.2940  176.9440  144.8330 N   0  0  0  0  0  2  0  0  0  0  0  0
  189.2680  177.8550  143.4780 N   0  0  0  0  0  0  0  0  0  0  0  0
  190.0900  177.6740  142.4060 C   0  0  0  0  0  3  0  0  0  0  0  0
  187.1680  177.9570  142.4370 O   0  0  0  0  0  0  0  0  0  0  0  0
  186.2110  178.8330  145.0470 N   0  0  0  0  0  1  0  0  0  0  0  0
  187.3950  177.2780  147.2730 O   0  0  0  0  0  0  0  0  0  0  0  0
  186.1050  176.7030  147.4090 C   0  0  0  0  0  1  0  0  0  0  0  0
  194.1600  174.9250  146.0640 O   0  0  0  0  0  0  0  0  0  0  0  0
  194.1750  174.6340  144.8770 C   0  0  0  0  0  0  0  0  0  0  0  0
  194.2470  173.1750  144.4570 C   0  0  2  0  0  3  0  0  0  0  0  0
  192.8980  172.4540  144.3800 C   0  0  1  0  0  3  0  0  0  0  0  0
  193.8280  172.2120  145.5550 C   0  0  0  0  0  2  0  0  0  0  0  0
  191.7690  173.2720  144.8200 N   0  0  0  0  0  2  0  0  0  0  0  0
  190.6390  172.8780  143.9980 C   0  0  0  0  0  2  0  0  0  0  0  0
  189.8840  174.1200  143.5450 C   0  0  0  0  0  2  0  0  0  0  0  0
  187.2670  174.6160  142.6170 O   0  0  0  0  0  0  0  0  0  0  0  0
  188.1850  175.3460  140.3760 O   0  0  0  0  0  0  0  0  0  0  0  0
  188.2780  174.3860  141.5270 S   0  0  0  0  0  0  0  0  0  0  0  0
  189.8990  174.2020  142.0910 N   0  0  0  0  0  0  0  0  0  0  0  0
  189.9680  172.8240  141.5760 C   0  0  1  0  0  3  0  0  0  0  0  0
  188.5340  172.7190  141.0380 C   0  0  0  0  0  2  0  0  0  0  0  0
  191.7690  171.7460  140.8510 C   0  0  0  0  0  1  0  0  0  0  0  0
  190.8690  172.7780  140.5120 O   0  0  0  0  0  0  0  0  0  0  0  0
  1  5  1  0  0  0  0
  2  5  1  0  0  0  0
  2 23  1  1  0  0  0
  3  2  1  0  0  0  0
  4  3  1  0  0  0  0
  4  1  1  0  0  0  0
  6 10  2  0  0  0  0
  7  8  1  0  0  0  0
  8 19  1  1  0  0  0
  8 10  1  0  0  0  0
  9 11  1  0  0  0  0
 10 20  1  0  0  0  0
 11 14  2  0  0  0  0
 11 15  1  0  0  0  0
 12  2  1  0  0  0  0
 12 15  1  0  0  0  0
 13  9  1  0  0  0  0
 13 12  2  0  0  0  0
 14  6  1  0  0  0  0
 16  7  1  0  0  0  0
 16 14  1  0  0  0  0
 17  9  2  0  0  0  0
 17 16  1  0  0  0  0
 18  7  2  0  0  0  0
 20 21  1  0  0  0  0
 23 22  2  0  0  0  0
 24 23  1  1  0  0  0
 24 26  1  0  0  0  0
 25 24  1  0  0  0  0
 25 27  1  1  0  0  0
 25 26  1  0  0  0  0
 28 27  1  0  0  0  0
 29 28  1  0  0  0  0
 31 32  2  0  0  0  0
 32 33  1  0  0  0  0
 32 30  2  0  0  0  0
 33 29  1  0  0  0  0
 34 37  1  6  0  0  0
 34 33  1  0  0  0  0
 35 32  1  0  0  0  0
 35 34  1  0  0  0  0
 37 36  1  0  0  0  0
M  END
>  <MODEL>
6

>  <REMARK>
 VINA RESULT:      -6.9      4.865      9.107
  Name = 
  9 active torsions:
  status: ('A' for Active; 'I' for Inactive)
    1  A    between atoms: C_6  and  C_35
    2  A    between atoms: C_7  and  N_14
    3  A    between atoms: C_7  and  C_22
    4  A    between atoms: C_8  and  C_18
    5  A    between atoms: C_8  and  C_35
    6  A    between atoms: C_9  and  N_33
    7  A    between atoms: C_13  and  O_17
    8  A    between atoms: C_20  and  O_28
    9  A    between atoms: C_22  and  N_33
                            x       y       z     vdW  Elec       q    Type
                         _______ _______ _______ _____ _____    ______ ____

>  <TORSDO>
F 9

$$$$
=
 OpenBabel11042418373D

 37 42  0  0  1  0  0  0  0  0999 V2000
  192.1160  173.4690  139.9920 N   0  0  0  0  0  2  0  0  0  0  0  0
  190.0480  173.7110  141.2140 C   0  0  1  0  0  0  0  0  0  0  0  0
  189.7450  173.1640  139.8320 C   0  0  0  0  0  2  0  0  0  0  0  0
  191.0290  173.3290  139.0410 C   0  0  0  0  0  2  0  0  0  0  0  0
  191.5200  174.0970  141.1610 C   0  0  0  0  0  2  0  0  0  0  0  0
  187.6550  177.5260  144.6150 C   0  0  0  0  0  3  0  0  0  0  0  0
  185.2360  178.0930  143.1490 C   0  0  0  0  0  0  0  0  0  0  0  0
  185.2990  178.3980  144.6310 C   0  0  1  0  0  3  0  0  0  0  0  0
  187.7190  176.3970  141.1990 C   0  0  0  0  0  0  0  0  0  0  0  0
  186.6130  178.0280  145.3100 C   0  0  0  0  0  0  0  0  0  0  0  0
  188.3730  176.6330  142.3300 C   0  0  0  0  0  0  0  0  0  0  0  0
  189.1790  174.9260  141.4500 C   0  0  0  0  0  0  0  0  0  0  0  0
  188.1730  175.2900  140.5950 N   0  0  0  0  0  0  0  0  0  0  0  0
  187.5410  177.3200  143.1620 C   0  0  0  0  0  0  0  0  0  0  0  0
  189.2960  175.7040  142.5690 N   0  0  0  0  0  2  0  0  0  0  0  0
  186.3860  177.5350  142.4950 N   0  0  0  0  0  0  0  0  0  0  0  0
  186.4420  176.9180  141.2800 C   0  0  0  0  0  3  0  0  0  0  0  0
  184.1710  178.3070  142.5190 O   0  0  0  0  0  0  0  0  0  0  0  0
  184.9980  179.8040  144.8800 N   0  0  0  0  0  1  0  0  0  0  0  0
  186.6990  178.2030  146.7020 O   0  0  0  0  0  0  0  0  0  0  0  0
  185.9430  177.4470  147.6340 C   0  0  0  0  0  1  0  0  0  0  0  0
  189.7600  171.4840  141.9900 O   0  0  0  0  0  0  0  0  0  0  0  0
  189.8760  172.6610  142.3000 C   0  0  0  0  0  0  0  0  0  0  0  0
  189.6990  173.0830  143.7490 C   0  0  2  0  0  3  0  0  0  0  0  0
  190.9170  172.8470  144.6470 C   0  0  1  0  0  3  0  0  0  0  0  0
  189.7210  171.9160  144.7210 C   0  0  0  0  0  2  0  0  0  0  0  0
  192.0190  172.1630  143.9740 N   0  0  0  0  0  2  0  0  0  0  0  0
  193.2330  172.8380  144.3960 C   0  0  0  0  0  2  0  0  0  0  0  0
  192.8890  173.9010  145.4300 C   0  0  0  0  0  2  0  0  0  0  0  0
  191.8960  176.0960  146.8970 O   0  0  0  0  0  0  0  0  0  0  0  0
  194.1910  177.1590  146.8880 O   0  0  0  0  0  0  0  0  0  0  0  0
  193.1540  176.3850  146.1250 S   0  0  0  0  0  0  0  0  0  0  0  0
  193.8270  175.0110  145.3250 N   0  0  0  0  0  0  0  0  0  0  0  0
  193.6270  175.6280  144.0030 C   0  0  1  0  0  3  0  0  0  0  0  0
  192.9480  176.9240  144.4670 C   0  0  0  0  0  2  0  0  0  0  0  0
  194.8110  175.4090  142.1370 C   0  0  0  0  0  1  0  0  0  0  0  0
  194.8720  175.9280  143.4470 O   0  0  0  0  0  0  0  0  0  0  0  0
  1  5  1  0  0  0  0
  2 12  1  0  0  0  0
  2 23  1  1  0  0  0
  3  2  1  0  0  0  0
  4  3  1  0  0  0  0
  4  1  1  0  0  0  0
  5  2  1  0  0  0  0
  6 10  2  0  0  0  0
  7  8  1  0  0  0  0
  8 19  1  6  0  0  0
  8 10  1  0  0  0  0
  9 17  2  0  0  0  0
  9 11  1  0  0  0  0
 10 20  1  0  0  0  0
 11 15  1  0  0  0  0
 11 14  2  0  0  0  0
 12 15  1  0  0  0  0
 13  9  1  0  0  0  0
 13 12  2  0  0  0  0
 14  6  1  0  0  0  0
 16  7  1  0  0  0  0
 16 14  1  0  0  0  0
 17 16  1  0  0  0  0
 18  7  2  0  0  0  0
 20 21  1  0  0  0  0
 22 23  2  0  0  0  0
 24 23  1  6  0  0  0
 24 25  1  0  0  0  0
 24 26  1  0  0  0  0
 25 27  1  6  0  0  0
 25 26  1  0  0  0  0
 27 28  1  0  0  0  0
 28 29  1  0  0  0  0
 32 31  2  0  0  0  0
 32 30  2  0  0  0  0
 33 29  1  0  0  0  0
 33 32  1  0  0  0  0
 34 37  1  1  0  0  0
 34 35  1  0  0  0  0
 34 33  1  0  0  0  0
 35 32  1  0  0  0  0
 36 37  1  0  0  0  0
M  END
>  <MODEL>
7

>  <REMARK>
 VINA RESULT:      -6.9      4.291     10.265
  Name = 
  9 active torsions:
  status: ('A' for Active; 'I' for Inactive)
    1  A    between atoms: C_6  and  C_35
    2  A    between atoms: C_7  and  N_14
    3  A    between atoms: C_7  and  C_22
    4  A    between atoms: C_8  and  C_18
    5  A    between atoms: C_8  and  C_35
    6  A    between atoms: C_9  and  N_33
    7  A    between atoms: C_13  and  O_17
    8  A    between atoms: C_20  and  O_28
    9  A    between atoms: C_22  and  N_33
                            x       y       z     vdW  Elec       q    Type
                         _______ _______ _______ _____ _____    ______ ____

>  <TORSDO>
F 9

$$$$
=
 OpenBabel11042418373D

 37 42  0  0  1  0  0  0  0  0999 V2000
  194.0770  176.2940  146.5310 N   0  0  0  0  0  2  0  0  0  0  0  0
  192.3240  175.7390  144.9670 C   0  0  1  0  0  0  0  0  0  0  0  0
  193.5760  176.1120  144.1950 C   0  0  0  0  0  2  0  0  0  0  0  0
  194.5120  176.7300  145.2160 C   0  0  0  0  0  2  0  0  0  0  0  0
  192.6400  176.1000  146.4120 C   0  0  0  0  0  2  0  0  0  0  0  0
  187.0210  177.6430  145.2820 C   0  0  0  0  0  3  0  0  0  0  0  0
  186.4170  177.9820  142.4810 C   0  0  0  0  0  0  0  0  0  0  0  0
  185.2850  177.8420  143.4770 C   0  0  1  0  0  3  0  0  0  0  0  0
  189.9200  177.6260  143.1500 C   0  0  0  0  0  0  0  0  0  0  0  0
  185.7200  177.6360  144.9230 C   0  0  0  0  0  0  0  0  0  0  0  0
  189.4100  177.6770  144.3750 C   0  0  0  0  0  0  0  0  0  0  0  0
  191.1730  176.5680  144.4420 C   0  0  0  0  0  0  0  0  0  0  0  0
  191.0460  176.9000  143.1200 N   0  0  0  0  0  0  0  0  0  0  0  0
  188.0640  177.8520  144.2650 C   0  0  0  0  0  0  0  0  0  0  0  0
  190.1450  176.9850  145.2440 N   0  0  0  0  0  2  0  0  0  0  0  0
  187.7740  177.9530  142.9490 N   0  0  0  0  0  0  0  0  0  0  0  0
  188.9080  177.7570  142.2180 C   0  0  0  0  0  3  0  0  0  0  0  0
  186.1540  178.0940  141.2580 O   0  0  0  0  0  0  0  0  0  0  0  0
  184.3840  178.9870  143.3950 N   0  0  0  0  0  1  0  0  0  0  0  0
  184.7150  177.4090  145.8790 O   0  0  0  0  0  0  0  0  0  0  0  0
  184.4420  178.2940  146.9540 C   0  0  0  0  0  1  0  0  0  0  0  0
  191.0210  173.8090  145.4340 O   0  0  0  0  0  0  0  0  0  0  0  0
  192.0330  174.2490  144.9080 C   0  0  0  0  0  0  0  0  0  0  0  0
  193.0640  173.2920  144.3330 C   0  0  2  0  0  3  0  0  0  0  0  0
  192.8410  172.9000  142.8690 C   0  0  1  0  0  3  0  0  0  0  0  0
  192.4890  171.9300  143.9820 C   0  0  0  0  0  2  0  0  0  0  0  0
  191.6100  173.4430  142.2970 N   0  0  0  0  0  2  0  0  0  0  0  0
  191.9230  173.7930  140.9220 C   0  0  0  0  0  2  0  0  0  0  0  0
  193.4280  173.7170  140.7100 C   0  0  0  0  0  2  0  0  0  0  0  0
  193.8180  173.1850  137.9660 O   0  0  0  0  0  0  0  0  0  0  0  0
  193.8180  175.6650  137.4710 O   0  0  0  0  0  0  0  0  0  0  0  0
  194.2430  174.5620  138.3980 S   0  0  0  0  0  0  0  0  0  0  0  0
  193.8930  174.9280  140.0480 N   0  0  0  0  0  0  0  0  0  0  0  0
  195.3240  175.0760  140.3630 C   0  0  1  0  0  3  0  0  0  0  0  0
  195.8900  174.7250  138.9810 C   0  0  0  0  0  2  0  0  0  0  0  0
  196.3540  176.3800  141.8370 C   0  0  0  0  0  1  0  0  0  0  0  0
  195.5920  176.4160  140.6500 O   0  0  0  0  0  0  0  0  0  0  0  0
  2 23  1  6  0  0  0
  2  5  1  0  0  0  0
  3  2  1  0  0  0  0
  3  4  1  0  0  0  0
  4  1  1  0  0  0  0
  5  1  1  0  0  0  0
  7 16  1  0  0  0  0
  7  8  1  0  0  0  0
  8 19  1  1  0  0  0
  8 10  1  0  0  0  0
  9 11  1  0  0  0  0
 10  6  2  0  0  0  0
 10 20  1  0  0  0  0
 11 15  1  0  0  0  0
 12  2  1  0  0  0  0
 12 15  1  0  0  0  0
 13  9  1  0  0  0  0
 13 12  2  0  0  0  0
 14 11  2  0  0  0  0
 14  6  1  0  0  0  0
 16 14  1  0  0  0  0
 17 16  1  0  0  0  0
 17  9  2  0  0  0  0
 18  7  2  0  0  0  0
 20 21  1  0  0  0  0
 23 22  2  0  0  0  0
 24 23  1  1  0  0  0
 25 27  1  1  0  0  0
 25 26  1  0  0  0  0
 25 24  1  0  0  0  0
 26 24  1  0  0  0  0
 28 27  1  0  0  0  0
 29 28  1  0  0  0  0
 30 32  2  0  0  0  0
 31 32  2  0  0  0  0
 32 35  1  0  0  0  0
 32 33  1  0  0  0  0
 33 34  1  0  0  0  0
 33 29  1  0  0  0  0
 34 37  1  6  0  0  0
 35 34  1  0  0  0  0
 37 36  1  0  0  0  0
M  END
>  <MODEL>
8

>  <REMARK>
 VINA RESULT:      -6.9      4.407     10.484
  Name = 
  9 active torsions:
  status: ('A' for Active; 'I' for Inactive)
    1  A    between atoms: C_6  and  C_35
    2  A    between atoms: C_7  and  N_14
    3  A    between atoms: C_7  and  C_22
    4  A    between atoms: C_8  and  C_18
    5  A    between atoms: C_8  and  C_35
    6  A    between atoms: C_9  and  N_33
    7  A    between atoms: C_13  and  O_17
    8  A    between atoms: C_20  and  O_28
    9  A    between atoms: C_22  and  N_33
                            x       y       z     vdW  Elec       q    Type
                         _______ _______ _______ _____ _____    ______ ____

>  <TORSDO>
F 9

$$$$
=
 OpenBabel11042418373D

 37 42  0  0  1  0  0  0  0  0999 V2000
  192.1380  172.8480  143.3790 N   0  0  0  0  0  2  0  0  0  0  0  0
  191.3300  174.8140  144.5250 C   0  0  1  0  0  0  0  0  0  0  0  0
  190.5960  173.5960  145.0530 C   0  0  0  0  0  2  0  0  0  0  0  0
  190.9300  172.4720  144.0900 C   0  0  0  0  0  2  0  0  0  0  0  0
  192.1080  174.3010  143.3200 C   0  0  0  0  0  2  0  0  0  0  0  0
  186.6140  177.7830  145.4160 C   0  0  0  0  0  3  0  0  0  0  0  0
  185.7100  178.1590  142.7020 C   0  0  0  0  0  0  0  0  0  0  0  0
  184.7210  178.2850  143.8420 C   0  0  1  0  0  3  0  0  0  0  0  0
  189.1270  177.1040  142.9300 C   0  0  0  0  0  0  0  0  0  0  0  0
  185.3020  178.0350  145.2290 C   0  0  0  0  0  0  0  0  0  0  0  0
  188.8130  177.2950  144.2070 C   0  0  0  0  0  0  0  0  0  0  0  0
  190.3080  175.8470  144.1080 C   0  0  0  0  0  0  0  0  0  0  0  0
  190.0690  176.1600  142.7960 N   0  0  0  0  0  0  0  0  0  0  0  0
  187.5270  177.7420  144.2620 C   0  0  0  0  0  0  0  0  0  0  0  0
  189.5060  176.4910  145.0100 N   0  0  0  0  0  2  0  0  0  0  0  0
  187.0850  177.8630  142.9910 N   0  0  0  0  0  0  0  0  0  0  0  0
  188.0440  177.4150  142.1320 C   0  0  0  0  0  3  0  0  0  0  0  0
  185.3080  178.2870  141.5190 O   0  0  0  0  0  0  0  0  0  0  0  0
  184.0670  179.5890  143.8120 N   0  0  0  0  0  1  0  0  0  0  0  0
  184.4140  178.0480  146.3190 O   0  0  0  0  0  0  0  0  0  0  0  0
  184.7900  178.4400  147.6290 C   0  0  0  0  0  1  0  0  0  0  0  0
  192.2710  175.0080  146.6970 O   0  0  0  0  0  0  0  0  0  0  0  0
  192.3290  175.3650  145.5290 C   0  0  0  0  0  0  0  0  0  0  0  0
  193.2960  176.4640  145.1200 C   0  0  2  0  0  3  0  0  0  0  0  0
  194.7510  176.0170  144.9490 C   0  0  1  0  0  3  0  0  0  0  0  0
  194.3280  176.7840  146.1890 C   0  0  0  0  0  2  0  0  0  0  0  0
  194.9810  174.6180  145.3030 N   0  0  0  0  0  2  0  0  0  0  0  0
  196.1370  174.1910  144.5350 C   0  0  0  0  0  2  0  0  0  0  0  0
  196.4910  175.2620  143.5140 C   0  0  0  0  0  2  0  0  0  0  0  0
  196.1220  177.1260  141.4280 O   0  0  0  0  0  0  0  0  0  0  0  0
  197.5420  175.7070  139.8900 O   0  0  0  0  0  0  0  0  0  0  0  0
  196.4950  175.7440  140.9660 S   0  0  0  0  0  0  0  0  0  0  0  0
  196.8380  174.6360  142.2450 N   0  0  0  0  0  0  0  0  0  0  0  0
  195.7070  173.7740  141.8600 C   0  0  1  0  0  3  0  0  0  0  0  0
  195.1700  174.6240  140.7010 C   0  0  0  0  0  2  0  0  0  0  0  0
  195.4290  171.5760  142.0010 C   0  0  0  0  0  1  0  0  0  0  0  0
  196.2020  172.5680  141.3630 O   0  0  0  0  0  0  0  0  0  0  0  0
  1  4  1  0  0  0  0
  2  3  1  0  0  0  0
  2 23  1  1  0  0  0
  4  3  1  0  0  0  0
  5  1  1  0  0  0  0
  5  2  1  0  0  0  0
  7 16  1  0  0  0  0
  7  8  1  0  0  0  0
  8 19  1  1  0  0  0
  8 10  1  0  0  0  0
  9 11  1  0  0  0  0
 10  6  2  0  0  0  0
 10 20  1  0  0  0  0
 11 14  2  0  0  0  0
 11 15  1  0  0  0  0
 12  2  1  0  0  0  0
 12 15  1  0  0  0  0
 13  9  1  0  0  0  0
 13 12  2  0  0  0  0
 14  6  1  0  0  0  0
 16 14  1  0  0  0  0
 17  9  2  0  0  0  0
 17 16  1  0  0  0  0
 18  7  2  0  0  0  0
 20 21  1  0  0  0  0
 23 22  2  0  0  0  0
 24 23  1  1  0  0  0
 24 26  1  0  0  0  0
 25 24  1  0  0  0  0
 25 27  1  1  0  0  0
 25 26  1  0  0  0  0
 28 27  1  0  0  0  0
 29 28  1  0  0  0  0
 31 32  2  0  0  0  0
 32 30  2  0  0  0  0
 32 33  1  0  0  0  0
 33 29  1  0  0  0  0
 34 37  1  6  0  0  0
 34 33  1  0  0  0  0
 35 32  1  0  0  0  0
 35 34  1  0  0  0  0
 37 36  1  0  0  0  0
M  END
>  <MODEL>
9

>  <REMARK>
 VINA RESULT:      -6.9      4.446     11.267
  Name = 
  9 active torsions:
  status: ('A' for Active; 'I' for Inactive)
    1  A    between atoms: C_6  and  C_35
    2  A    between atoms: C_7  and  N_14
    3  A    between atoms: C_7  and  C_22
    4  A    between atoms: C_8  and  C_18
    5  A    between atoms: C_8  and  C_35
    6  A    between atoms: C_9  and  N_33
    7  A    between atoms: C_13  and  O_17
    8  A    between atoms: C_20  and  O_28
    9  A    between atoms: C_22  and  N_33
                            x       y       z     vdW  Elec       q    Type
                         _______ _______ _______ _____ _____    ______ ____

>  <TORSDO>
F 9

$$$$
