=
 OpenBabel11042417383D

 33 37  0  0  1  0  0  0  0  0999 V2000
  188.6400  175.8880  144.6220 C   0  0  0  0  0  0  0  0  0  0  0  0
  185.6790  179.4350  143.0440 N   0  0  0  0  0  0  0  0  0  0  0  0
  187.2670  177.2300  146.3630 C   0  0  2  0  0  0  0  0  0  0  0  0
  188.2600  176.3960  145.8770 N   0  0  0  0  0  0  0  0  0  0  0  0
  188.4970  177.4800  146.9350 C   0  0  0  0  0  0  0  0  0  0  0  0
  188.3410  176.1030  142.2390 C   0  0  0  0  0  3  0  0  0  0  0  0
  186.3510  176.5220  147.1410 O   0  0  0  0  0  1  0  0  0  0  0  0
  189.5570  174.8540  144.4480 C   0  0  0  0  0  3  0  0  0  0  0  0
  185.8750  179.0900  145.4010 C   0  0  0  0  0  3  0  0  0  0  0  0
  186.7370  178.0160  145.1760 C   0  0  0  0  0  0  0  0  0  0  0  0
  185.3540  179.7930  144.3140 C   0  0  0  0  0  3  0  0  0  0  0  0
  189.2580  175.0620  142.0460 C   0  0  0  0  0  3  0  0  0  0  0  0
  188.0260  176.5240  143.5390 C   0  0  0  0  0  0  0  0  0  0  0  0
  189.2600  178.1530  147.6760 O   0  0  0  0  0  0  0  0  0  0  0  0
  189.8720  174.4390  143.1440 C   0  0  0  0  0  0  0  0  0  0  0  0
  186.5150  178.3960  142.7830 C   0  0  0  0  0  3  0  0  0  0  0  0
  187.0730  177.6510  143.8290 C   0  0  0  0  0  0  0  0  0  0  0  0
  190.8530  173.3290  142.9040 C   0  0  1  0  0  3  0  0  0  0  0  0
  193.1380  174.4500  143.3170 C   0  0  0  0  0  0  0  0  0  0  0  0
  192.0700  173.5540  143.6750 N   0  0  0  0  0  2  0  0  0  0  0  0
  193.4260  174.7430  142.0820 N   0  0  0  0  0  0  0  0  0  0  0  0
  193.9450  175.0140  144.3500 N   0  0  0  0  0  2  0  0  0  0  0  0
  193.6350  174.4330  139.6910 C   0  0  0  0  0  2  0  0  0  0  0  0
  192.7580  174.2070  140.9060 C   0  0  0  0  0  3  0  0  0  0  0  0
  193.5840  173.0690  140.3420 C   0  0  0  0  0  2  0  0  0  0  0  0
  193.6970  174.7420  145.7570 C   0  0  0  0  0  2  0  0  0  0  0  0
  194.3450  176.7720  146.7470 O   0  0  0  0  0  0  0  0  0  0  0  0
  193.4240  176.0190  146.4740 C   0  0  0  0  0  0  0  0  0  0  0  0
  192.0230  176.3750  146.8490 C   0  0  0  0  0  2  0  0  0  0  0  0
  191.4230  175.2980  147.7300 C   0  0  0  0  0  1  0  0  0  0  0  0
  190.2550  171.9820  143.2830 C   0  0  0  0  0  2  0  0  0  0  0  0
  190.1960  171.5360  140.8500 C   0  0  0  0  0  1  0  0  0  0  0  0
  190.5370  170.9540  142.2050 C   0  0  0  0  0  2  0  0  0  0  0  0
  1  4  1  0  0  0  0
  2 11  1  0  0  0  0
  3  5  1  0  0  0  0
  3  7  1  1  0  0  0
  4  3  1  0  0  0  0
  4  5  1  0  0  0  0
  5 14  2  0  0  0  0
  6 13  1  0  0  0  0
  8  1  1  0  0  0  0
 10  9  1  0  0  0  0
 10  3  1  0  0  0  0
 11  9  2  0  0  0  0
 12  6  2  0  0  0  0
 12 15  1  0  0  0  0
 13 17  1  0  0  0  0
 13  1  2  0  0  0  0
 15  8  2  0  0  0  0
 16  2  2  0  0  0  0
 16 17  1  0  0  0  0
 17 10  2  0  0  0  0
 18 15  1  0  0  0  0
 18 31  1  1  0  0  0
 18 20  1  0  0  0  0
 19 20  1  0  0  0  0
 19 22  1  0  0  0  0
 21 19  2  0  0  0  0
 22 26  1  0  0  0  0
 23 25  1  0  0  0  0
 23 24  1  0  0  0  0
 24 21  1  0  0  0  0
 25 24  1  0  0  0  0
 26 28  1  0  0  0  0
 28 27  2  0  0  0  0
 28 29  1  0  0  0  0
 29 30  1  0  0  0  0
 32 33  1  0  0  0  0
 33 31  1  0  0  0  0
M  END
>  <MODEL>
1

>  <REMARK>
 VINA RESULT:      -6.7      0.000      0.000
  Name = 
  8 active torsions:
  status: ('A' for Active; 'I' for Inactive)
    1  A    between atoms: C_2  and  C_10
    2  A    between atoms: C_2  and  C_30
    3  A    between atoms: N_5  and  C_30
    4  A    between atoms: N_8  and  C_20
    5  A    between atoms: N_13  and  C_14
    6  A    between atoms: C_14  and  C_19
    7  A    between atoms: C_19  and  C_27
    8  A    between atoms: C_29  and  C_30
                            x       y       z     vdW  Elec       q    Type
                         _______ _______ _______ _____ _____    ______ ____

>  <TORSDO>
F 8

$$$$
=
 OpenBabel11042417383D

 33 37  0  0  1  0  0  0  0  0999 V2000
  188.7160  177.2760  144.3730 C   0  0  0  0  0  0  0  0  0  0  0  0
  185.1210  177.8790  147.6220 N   0  0  0  0  0  0  0  0  0  0  0  0
  186.5230  178.4240  143.6050 C   0  0  2  0  0  0  0  0  0  0  0  0
  187.7380  177.7690  143.4920 N   0  0  0  0  0  0  0  0  0  0  0  0
  186.5050  177.4350  142.6430 C   0  0  0  0  0  0  0  0  0  0  0  0
  189.1960  176.7280  146.6720 C   0  0  0  0  0  3  0  0  0  0  0  0
  186.6150  179.7370  143.1450 O   0  0  0  0  0  1  0  0  0  0  0  0
  189.9850  176.8630  143.9750 C   0  0  0  0  0  3  0  0  0  0  0  0
  184.7330  178.5620  145.3650 C   0  0  0  0  0  3  0  0  0  0  0  0
  186.0370  178.1970  145.0250 C   0  0  0  0  0  0  0  0  0  0  0  0
  184.2900  178.3920  146.6770 C   0  0  0  0  0  3  0  0  0  0  0  0
  190.4790  176.3120  146.2880 C   0  0  0  0  0  3  0  0  0  0  0  0
  188.3030  177.2150  145.7080 C   0  0  0  0  0  0  0  0  0  0  0  0
  185.9090  176.7230  141.7940 O   0  0  0  0  0  0  0  0  0  0  0  0
  190.8750  176.3720  144.9440 C   0  0  0  0  0  0  0  0  0  0  0  0
  186.3980  177.5120  147.3330 C   0  0  0  0  0  3  0  0  0  0  0  0
  186.9020  177.6550  146.0340 C   0  0  0  0  0  0  0  0  0  0  0  0
  192.2530  175.9160  144.5640 C   0  0  1  0  0  3  0  0  0  0  0  0
  192.1520  173.7750  143.1310 C   0  0  0  0  0  0  0  0  0  0  0  0
  192.2180  175.2030  143.2920 N   0  0  0  0  0  2  0  0  0  0  0  0
  192.6450  172.9450  144.0030 N   0  0  0  0  0  0  0  0  0  0  0  0
  191.5570  173.2380  141.9490 N   0  0  0  0  0  2  0  0  0  0  0  0
  194.1430  172.1250  145.7180 C   0  0  0  0  0  2  0  0  0  0  0  0
  193.3460  173.3150  145.2240 C   0  0  0  0  0  3  0  0  0  0  0  0
  194.8390  173.2450  144.9770 C   0  0  0  0  0  2  0  0  0  0  0  0
  190.9810  174.0900  140.9220 C   0  0  0  0  0  2  0  0  0  0  0  0
  189.5610  172.5300  139.8850 O   0  0  0  0  0  0  0  0  0  0  0  0
  189.6440  173.5650  140.5270 C   0  0  0  0  0  0  0  0  0  0  0  0
  188.4090  174.3040  140.9260 C   0  0  0  0  0  2  0  0  0  0  0  0
  188.1350  174.1140  142.4050 C   0  0  0  0  0  1  0  0  0  0  0  0
  193.2080  177.0950  144.4570 C   0  0  0  0  0  2  0  0  0  0  0  0
  194.1310  176.7640  146.7290 C   0  0  0  0  0  1  0  0  0  0  0  0
  194.4700  176.8320  145.2550 C   0  0  0  0  0  2  0  0  0  0  0  0
  1 13  1  0  0  0  0
  3  7  1  6  0  0  0
  3 10  1  0  0  0  0
  4  3  1  0  0  0  0
  4  1  1  0  0  0  0
  5  4  1  0  0  0  0
  5  3  1  0  0  0  0
  8  1  2  0  0  0  0
  8 15  1  0  0  0  0
  9 11  1  0  0  0  0
 10  9  2  0  0  0  0
 10 17  1  0  0  0  0
 11  2  2  0  0  0  0
 12  6  1  0  0  0  0
 13 17  1  0  0  0  0
 13  6  2  0  0  0  0
 14  5  2  0  0  0  0
 15 12  2  0  0  0  0
 16  2  1  0  0  0  0
 17 16  2  0  0  0  0
 18 31  1  6  0  0  0
 18 15  1  0  0  0  0
 19 20  1  0  0  0  0
 19 21  2  0  0  0  0
 20 18  1  0  0  0  0
 21 24  1  0  0  0  0
 22 19  1  0  0  0  0
 24 23  1  0  0  0  0
 25 24  1  0  0  0  0
 25 23  1  0  0  0  0
 26 22  1  0  0  0  0
 27 28  2  0  0  0  0
 28 26  1  0  0  0  0
 28 29  1  0  0  0  0
 29 30  1  0  0  0  0
 31 33  1  0  0  0  0
 33 32  1  0  0  0  0
M  END
>  <MODEL>
2

>  <REMARK>
 VINA RESULT:      -6.6      2.709      4.923
  Name = 
  8 active torsions:
  status: ('A' for Active; 'I' for Inactive)
    1  A    between atoms: C_2  and  C_10
    2  A    between atoms: C_2  and  C_30
    3  A    between atoms: N_5  and  C_30
    4  A    between atoms: N_8  and  C_20
    5  A    between atoms: N_13  and  C_14
    6  A    between atoms: C_14  and  C_19
    7  A    between atoms: C_19  and  C_27
    8  A    between atoms: C_29  and  C_30
                            x       y       z     vdW  Elec       q    Type
                         _______ _______ _______ _____ _____    ______ ____

>  <TORSDO>
F 8

$$$$
=
 OpenBabel11042417383D

 33 37  0  0  1  0  0  0  0  0999 V2000
  188.5740  175.7760  144.4400 C   0  0  0  0  0  0  0  0  0  0  0  0
  185.5530  179.4160  143.2270 N   0  0  0  0  0  0  0  0  0  0  0  0
  187.3810  177.0860  146.3310 C   0  0  2  0  0  0  0  0  0  0  0  0
  188.3120  176.2520  145.7370 N   0  0  0  0  0  0  0  0  0  0  0  0
  188.6600  177.3000  146.8010 C   0  0  0  0  0  0  0  0  0  0  0  0
  188.0740  176.0680  142.0990 C   0  0  0  0  0  3  0  0  0  0  0  0
  186.5220  176.3690  147.1640 O   0  0  0  0  0  1  0  0  0  0  0  0
  189.4530  174.7340  144.1570 C   0  0  0  0  0  3  0  0  0  0  0  0
  185.9450  178.9960  145.5470 C   0  0  0  0  0  3  0  0  0  0  0  0
  186.7650  177.9160  145.2170 C   0  0  0  0  0  0  0  0  0  0  0  0
  185.3460  179.7400  144.5300 C   0  0  0  0  0  3  0  0  0  0  0  0
  188.9530  175.0180  141.7970 C   0  0  0  0  0  3  0  0  0  0  0  0
  187.8800  176.4540  143.4320 C   0  0  0  0  0  0  0  0  0  0  0  0
  189.4960  177.9380  147.4910 O   0  0  0  0  0  0  0  0  0  0  0  0
  189.6470  174.3530  142.8190 C   0  0  0  0  0  0  0  0  0  0  0  0
  186.3450  178.3710  142.8640 C   0  0  0  0  0  3  0  0  0  0  0  0
  186.9770  177.5870  143.8360 C   0  0  0  0  0  0  0  0  0  0  0  0
  190.5830  173.2350  142.4640 C   0  0  1  0  0  3  0  0  0  0  0  0
  192.8920  174.3440  142.1710 C   0  0  0  0  0  0  0  0  0  0  0  0
  191.9380  173.5510  142.9000 N   0  0  0  0  0  2  0  0  0  0  0  0
  192.8980  174.4180  140.8720 N   0  0  0  0  0  0  0  0  0  0  0  0
  193.9010  175.0500  142.8920 N   0  0  0  0  0  2  0  0  0  0  0  0
  192.5310  173.7890  138.5640 C   0  0  0  0  0  2  0  0  0  0  0  0
  191.9920  173.7130  139.9780 C   0  0  0  0  0  3  0  0  0  0  0  0
  192.7170  172.5270  139.3740 C   0  0  0  0  0  2  0  0  0  0  0  0
  193.9720  175.0240  144.3440 C   0  0  0  0  0  2  0  0  0  0  0  0
  194.5810  177.1670  145.0920 O   0  0  0  0  0  0  0  0  0  0  0  0
  193.6720  176.3800  144.8850 C   0  0  0  0  0  0  0  0  0  0  0  0
  192.2580  176.7720  145.1630 C   0  0  0  0  0  2  0  0  0  0  0  0
  191.7090  177.6080  144.0240 C   0  0  0  0  0  1  0  0  0  0  0  0
  190.1380  171.9280  143.1010 C   0  0  0  0  0  2  0  0  0  0  0  0
  190.8160  170.1660  141.5010 C   0  0  0  0  0  1  0  0  0  0  0  0
  191.1450  170.8300  142.8210 C   0  0  0  0  0  2  0  0  0  0  0  0
  1  4  1  0  0  0  0
  2 11  1  0  0  0  0
  3  5  1  0  0  0  0
  3  7  1  1  0  0  0
  4  3  1  0  0  0  0
  4  5  1  0  0  0  0
  5 14  2  0  0  0  0
  6 13  1  0  0  0  0
  8  1  1  0  0  0  0
 10  9  1  0  0  0  0
 10  3  1  0  0  0  0
 11  9  2  0  0  0  0
 12  6  2  0  0  0  0
 12 15  1  0  0  0  0
 13 17  1  0  0  0  0
 13  1  2  0  0  0  0
 15  8  2  0  0  0  0
 16  2  2  0  0  0  0
 16 17  1  0  0  0  0
 17 10  2  0  0  0  0
 18 15  1  0  0  0  0
 18 20  1  0  0  0  0
 18 31  1  1  0  0  0
 19 22  1  0  0  0  0
 19 20  1  0  0  0  0
 21 19  2  0  0  0  0
 22 26  1  0  0  0  0
 23 25  1  0  0  0  0
 23 24  1  0  0  0  0
 24 21  1  0  0  0  0
 25 24  1  0  0  0  0
 26 28  1  0  0  0  0
 28 27  2  0  0  0  0
 28 29  1  0  0  0  0
 30 29  1  0  0  0  0
 32 33  1  0  0  0  0
 33 31  1  0  0  0  0
M  END
>  <MODEL>
3

>  <REMARK>
 VINA RESULT:      -6.5      1.057      1.200
  Name = 
  8 active torsions:
  status: ('A' for Active; 'I' for Inactive)
    1  A    between atoms: C_2  and  C_10
    2  A    between atoms: C_2  and  C_30
    3  A    between atoms: N_5  and  C_30
    4  A    between atoms: N_8  and  C_20
    5  A    between atoms: N_13  and  C_14
    6  A    between atoms: C_14  and  C_19
    7  A    between atoms: C_19  and  C_27
    8  A    between atoms: C_29  and  C_30
                            x       y       z     vdW  Elec       q    Type
                         _______ _______ _______ _____ _____    ______ ____

>  <TORSDO>
F 8

$$$$
=
 OpenBabel11042417383D

 33 37  0  0  1  0  0  0  0  0999 V2000
  188.3080  176.9260  145.3850 C   0  0  0  0  0  0  0  0  0  0  0  0
  184.6010  179.0710  143.0390 N   0  0  0  0  0  0  0  0  0  0  0  0
  186.1560  177.4930  146.7130 C   0  0  2  0  0  0  0  0  0  0  0  0
  187.4830  177.1610  146.4990 N   0  0  0  0  0  0  0  0  0  0  0  0
  187.0150  178.1820  147.5430 C   0  0  0  0  0  0  0  0  0  0  0  0
  188.4910  177.1480  142.9910 C   0  0  0  0  0  3  0  0  0  0  0  0
  185.4570  176.4300  147.2850 O   0  0  0  0  0  1  0  0  0  0  0  0
  189.5790  176.3610  145.4640 C   0  0  0  0  0  3  0  0  0  0  0  0
  184.3850  178.6900  145.3890 C   0  0  0  0  0  3  0  0  0  0  0  0
  185.6350  178.0700  145.4080 C   0  0  0  0  0  0  0  0  0  0  0  0
  183.8830  179.1890  144.1870 C   0  0  0  0  0  3  0  0  0  0  0  0
  189.7700  176.5770  143.0520 C   0  0  0  0  0  3  0  0  0  0  0  0
  187.7500  177.3260  144.1670 C   0  0  0  0  0  0  0  0  0  0  0  0
  187.2530  179.0580  148.4140 O   0  0  0  0  0  0  0  0  0  0  0  0
  190.3190  176.1890  144.2830 C   0  0  0  0  0  0  0  0  0  0  0  0
  185.8220  178.4740  143.0160 C   0  0  0  0  0  3  0  0  0  0  0  0
  186.3830  177.9540  144.1890 C   0  0  0  0  0  0  0  0  0  0  0  0
  191.6920  175.5840  144.3160 C   0  0  1  0  0  3  0  0  0  0  0  0
  192.2280  173.5310  142.8510 C   0  0  0  0  0  0  0  0  0  0  0  0
  191.9920  174.9380  143.0440 N   0  0  0  0  0  2  0  0  0  0  0  0
  192.7310  172.7690  143.7780 N   0  0  0  0  0  0  0  0  0  0  0  0
  191.9370  172.9480  141.5810 N   0  0  0  0  0  2  0  0  0  0  0  0
  194.0810  172.1680  145.6940 C   0  0  0  0  0  2  0  0  0  0  0  0
  193.1500  173.2060  145.1000 C   0  0  0  0  0  3  0  0  0  0  0  0
  194.6480  173.4350  145.0940 C   0  0  0  0  0  2  0  0  0  0  0  0
  191.3730  173.7230  140.4880 C   0  0  0  0  0  2  0  0  0  0  0  0
  189.8470  172.2150  139.5290 O   0  0  0  0  0  0  0  0  0  0  0  0
  189.9990  173.2350  140.1830 C   0  0  0  0  0  0  0  0  0  0  0  0
  188.8140  173.9900  140.6860 C   0  0  0  0  0  2  0  0  0  0  0  0
  188.2810  173.3520  141.9540 C   0  0  0  0  0  1  0  0  0  0  0  0
  192.7470  176.6400  144.6080 C   0  0  0  0  0  2  0  0  0  0  0  0
  194.5620  177.0540  146.2380 C   0  0  0  0  0  1  0  0  0  0  0  0
  193.1180  176.6300  146.0780 C   0  0  0  0  0  2  0  0  0  0  0  0
  1  8  1  0  0  0  0
  1  4  1  0  0  0  0
  2 11  1  0  0  0  0
  3  7  1  1  0  0  0
  3  5  1  0  0  0  0
  4  3  1  0  0  0  0
  4  5  1  0  0  0  0
  5 14  2  0  0  0  0
  6 12  2  0  0  0  0
  6 13  1  0  0  0  0
  9 10  1  0  0  0  0
 10  3  1  0  0  0  0
 11  9  2  0  0  0  0
 12 15  1  0  0  0  0
 13 17  1  0  0  0  0
 13  1  2  0  0  0  0
 15 18  1  0  0  0  0
 15  8  2  0  0  0  0
 16  2  2  0  0  0  0
 16 17  1  0  0  0  0
 17 10  2  0  0  0  0
 18 31  1  6  0  0  0
 19 20  1  0  0  0  0
 19 21  2  0  0  0  0
 20 18  1  0  0  0  0
 21 24  1  0  0  0  0
 22 19  1  0  0  0  0
 24 23  1  0  0  0  0
 25 24  1  0  0  0  0
 25 23  1  0  0  0  0
 26 22  1  0  0  0  0
 27 28  2  0  0  0  0
 28 26  1  0  0  0  0
 28 29  1  0  0  0  0
 29 30  1  0  0  0  0
 31 33  1  0  0  0  0
 33 32  1  0  0  0  0
M  END
>  <MODEL>
4

>  <REMARK>
 VINA RESULT:      -6.5      2.248      4.284
  Name = 
  8 active torsions:
  status: ('A' for Active; 'I' for Inactive)
    1  A    between atoms: C_2  and  C_10
    2  A    between atoms: C_2  and  C_30
    3  A    between atoms: N_5  and  C_30
    4  A    between atoms: N_8  and  C_20
    5  A    between atoms: N_13  and  C_14
    6  A    between atoms: C_14  and  C_19
    7  A    between atoms: C_19  and  C_27
    8  A    between atoms: C_29  and  C_30
                            x       y       z     vdW  Elec       q    Type
                         _______ _______ _______ _____ _____    ______ ____

>  <TORSDO>
F 8

$$$$
=
 OpenBabel11042417383D

 33 37  0  0  1  0  0  0  0  0999 V2000
  189.9720  175.5240  144.6880 C   0  0  0  0  0  0  0  0  0  0  0  0
  186.1170  176.9400  147.3300 N   0  0  0  0  0  0  0  0  0  0  0  0
  187.9300  176.5450  143.4620 C   0  0  2  0  0  0  0  0  0  0  0  0
  189.1130  175.8430  143.6220 N   0  0  0  0  0  0  0  0  0  0  0  0
  187.9510  175.3710  142.7390 C   0  0  0  0  0  0  0  0  0  0  0  0
  190.1960  175.4790  147.0890 C   0  0  0  0  0  3  0  0  0  0  0  0
  188.1370  177.7220  142.7430 O   0  0  0  0  0  1  0  0  0  0  0  0
  191.2490  174.9940  144.5250 C   0  0  0  0  0  3  0  0  0  0  0  0
  185.9870  177.1230  144.9500 C   0  0  0  0  0  3  0  0  0  0  0  0
  187.2960  176.6510  144.8380 C   0  0  0  0  0  0  0  0  0  0  0  0
  185.4110  177.2590  146.2140 C   0  0  0  0  0  3  0  0  0  0  0  0
  191.4850  174.9480  146.9420 C   0  0  0  0  0  3  0  0  0  0  0  0
  189.4280  175.7710  145.9530 C   0  0  0  0  0  0  0  0  0  0  0  0
  187.4020  174.5090  142.0040 O   0  0  0  0  0  0  0  0  0  0  0  0
  192.0130  174.6990  145.6660 C   0  0  0  0  0  0  0  0  0  0  0  0
  187.3940  176.4780  147.2640 C   0  0  0  0  0  3  0  0  0  0  0  0
  188.0290  176.3160  146.0260 C   0  0  0  0  0  0  0  0  0  0  0  0
  193.3950  174.1270  145.5420 C   0  0  1  0  0  3  0  0  0  0  0  0
  193.8700  172.4770  143.6190 C   0  0  0  0  0  0  0  0  0  0  0  0
  193.6850  173.8020  144.1510 N   0  0  0  0  0  2  0  0  0  0  0  0
  194.3330  171.4920  144.3310 N   0  0  0  0  0  0  0  0  0  0  0  0
  193.5720  172.2360  142.2440 N   0  0  0  0  0  2  0  0  0  0  0  0
  195.6160  170.3730  146.0510 C   0  0  0  0  0  2  0  0  0  0  0  0
  194.7530  171.5750  145.7210 C   0  0  0  0  0  3  0  0  0  0  0  0
  196.2610  171.7130  145.7760 C   0  0  0  0  0  2  0  0  0  0  0  0
  193.0510  173.2770  141.3730 C   0  0  0  0  0  2  0  0  0  0  0  0
  190.9060  174.1890  141.0750 O   0  0  0  0  0  0  0  0  0  0  0  0
  191.5640  173.1920  141.3230 C   0  0  0  0  0  0  0  0  0  0  0  0
  190.8870  171.8840  141.5700 C   0  0  0  0  0  2  0  0  0  0  0  0
  189.8960  172.0110  142.7110 C   0  0  0  0  0  1  0  0  0  0  0  0
  194.4380  175.1050  146.0610 C   0  0  0  0  0  2  0  0  0  0  0  0
  194.6290  177.5510  145.7420 C   0  0  0  0  0  1  0  0  0  0  0  0
  194.6850  176.2060  145.0490 C   0  0  0  0  0  2  0  0  0  0  0  0
  1 13  1  0  0  0  0
  3  7  1  6  0  0  0
  3  4  1  0  0  0  0
  3 10  1  0  0  0  0
  4  1  1  0  0  0  0
  5  3  1  0  0  0  0
  5  4  1  0  0  0  0
  8  1  2  0  0  0  0
  8 15  1  0  0  0  0
  9 11  1  0  0  0  0
 10  9  2  0  0  0  0
 10 17  1  0  0  0  0
 11  2  2  0  0  0  0
 12  6  1  0  0  0  0
 13 17  1  0  0  0  0
 13  6  2  0  0  0  0
 14  5  2  0  0  0  0
 15 12  2  0  0  0  0
 16  2  1  0  0  0  0
 17 16  2  0  0  0  0
 18 15  1  0  0  0  0
 18 31  1  6  0  0  0
 19 20  1  0  0  0  0
 19 21  2  0  0  0  0
 20 18  1  0  0  0  0
 21 24  1  0  0  0  0
 22 19  1  0  0  0  0
 24 25  1  0  0  0  0
 24 23  1  0  0  0  0
 25 23  1  0  0  0  0
 26 22  1  0  0  0  0
 27 28  2  0  0  0  0
 28 26  1  0  0  0  0
 28 29  1  0  0  0  0
 29 30  1  0  0  0  0
 33 32  1  0  0  0  0
 33 31  1  0  0  0  0
M  END
>  <MODEL>
5

>  <REMARK>
 VINA RESULT:      -6.4      2.628      4.966
  Name = 
  8 active torsions:
  status: ('A' for Active; 'I' for Inactive)
    1  A    between atoms: C_2  and  C_10
    2  A    between atoms: C_2  and  C_30
    3  A    between atoms: N_5  and  C_30
    4  A    between atoms: N_8  and  C_20
    5  A    between atoms: N_13  and  C_14
    6  A    between atoms: C_14  and  C_19
    7  A    between atoms: C_19  and  C_27
    8  A    between atoms: C_29  and  C_30
                            x       y       z     vdW  Elec       q    Type
                         _______ _______ _______ _____ _____    ______ ____

>  <TORSDO>
F 8

$$$$
=
 OpenBabel11042417383D

 33 37  0  0  1  0  0  0  0  0999 V2000
  190.1900  175.5390  144.4600 C   0  0  0  0  0  0  0  0  0  0  0  0
  186.1710  176.8600  146.8990 N   0  0  0  0  0  0  0  0  0  0  0  0
  188.0890  176.2370  143.1130 C   0  0  2  0  0  0  0  0  0  0  0  0
  189.3270  175.6670  143.3580 N   0  0  0  0  0  0  0  0  0  0  0  0
  188.2310  175.0020  142.5160 C   0  0  0  0  0  0  0  0  0  0  0  0
  190.3690  175.7610  146.8550 C   0  0  0  0  0  3  0  0  0  0  0  0
  188.2040  177.3480  142.2770 O   0  0  0  0  0  1  0  0  0  0  0  0
  191.5120  175.1130  144.3670 C   0  0  0  0  0  3  0  0  0  0  0  0
  186.0730  176.7850  144.5120 C   0  0  0  0  0  3  0  0  0  0  0  0
  187.4210  176.4260  144.4630 C   0  0  0  0  0  0  0  0  0  0  0  0
  185.4610  176.9970  145.7480 C   0  0  0  0  0  3  0  0  0  0  0  0
  191.7030  175.3380  146.7780 C   0  0  0  0  0  3  0  0  0  0  0  0
  189.6010  175.8630  145.6860 C   0  0  0  0  0  0  0  0  0  0  0  0
  187.7760  174.0230  141.8700 O   0  0  0  0  0  0  0  0  0  0  0  0
  192.2770  175.0080  145.5410 C   0  0  0  0  0  0  0  0  0  0  0  0
  187.4850  176.5120  146.8950 C   0  0  0  0  0  3  0  0  0  0  0  0
  188.1570  176.2830  145.6870 C   0  0  0  0  0  0  0  0  0  0  0  0
  193.7060  174.5560  145.4920 C   0  0  1  0  0  3  0  0  0  0  0  0
  194.6460  173.3100  143.4390 C   0  0  0  0  0  0  0  0  0  0  0  0
  194.1700  174.4900  144.1100 N   0  0  0  0  0  2  0  0  0  0  0  0
  195.2250  172.3290  144.0670 N   0  0  0  0  0  0  0  0  0  0  0  0
  194.5170  173.2210  142.0200 N   0  0  0  0  0  2  0  0  0  0  0  0
  196.5550  171.2260  145.7610 C   0  0  0  0  0  2  0  0  0  0  0  0
  195.5020  172.2820  145.4950 C   0  0  0  0  0  3  0  0  0  0  0  0
  196.9430  172.6870  145.7320 C   0  0  0  0  0  2  0  0  0  0  0  0
  193.8840  174.2690  141.2360 C   0  0  0  0  0  2  0  0  0  0  0  0
  195.4780  174.7780  139.5870 O   0  0  0  0  0  0  0  0  0  0  0  0
  194.9280  175.1330  140.6180 C   0  0  0  0  0  0  0  0  0  0  0  0
  195.2910  176.4320  141.2560 C   0  0  0  0  0  2  0  0  0  0  0  0
  196.6250  176.3160  141.9670 C   0  0  0  0  0  1  0  0  0  0  0  0
  194.6040  175.4950  146.2820 C   0  0  0  0  0  2  0  0  0  0  0  0
  194.6200  177.9140  145.7640 C   0  0  0  0  0  1  0  0  0  0  0  0
  195.1840  176.5640  145.3770 C   0  0  0  0  0  2  0  0  0  0  0  0
  1 13  1  0  0  0  0
  3  7  1  6  0  0  0
  3  4  1  0  0  0  0
  3 10  1  0  0  0  0
  4  1  1  0  0  0  0
  5  3  1  0  0  0  0
  5  4  1  0  0  0  0
  8  1  2  0  0  0  0
  8 15  1  0  0  0  0
  9 11  1  0  0  0  0
 10  9  2  0  0  0  0
 10 17  1  0  0  0  0
 11  2  2  0  0  0  0
 12  6  1  0  0  0  0
 13 17  1  0  0  0  0
 13  6  2  0  0  0  0
 14  5  2  0  0  0  0
 15 12  2  0  0  0  0
 16  2  1  0  0  0  0
 17 16  2  0  0  0  0
 18 15  1  0  0  0  0
 18 31  1  1  0  0  0
 19 21  2  0  0  0  0
 19 20  1  0  0  0  0
 20 18  1  0  0  0  0
 21 24  1  0  0  0  0
 22 19  1  0  0  0  0
 24 25  1  0  0  0  0
 24 23  1  0  0  0  0
 25 23  1  0  0  0  0
 26 22  1  0  0  0  0
 27 28  2  0  0  0  0
 28 26  1  0  0  0  0
 28 29  1  0  0  0  0
 29 30  1  0  0  0  0
 33 32  1  0  0  0  0
 33 31  1  0  0  0  0
M  END
>  <MODEL>
6

>  <REMARK>
 VINA RESULT:      -6.4      2.809      5.096
  Name = 
  8 active torsions:
  status: ('A' for Active; 'I' for Inactive)
    1  A    between atoms: C_2  and  C_10
    2  A    between atoms: C_2  and  C_30
    3  A    between atoms: N_5  and  C_30
    4  A    between atoms: N_8  and  C_20
    5  A    between atoms: N_13  and  C_14
    6  A    between atoms: C_14  and  C_19
    7  A    between atoms: C_19  and  C_27
    8  A    between atoms: C_29  and  C_30
                            x       y       z     vdW  Elec       q    Type
                         _______ _______ _______ _____ _____    ______ ____

>  <TORSDO>
F 8

$$$$
=
 OpenBabel11042417383D

 33 37  0  0  1  0  0  0  0  0999 V2000
  187.8210  177.0630  143.5930 C   0  0  0  0  0  0  0  0  0  0  0  0
  185.2720  177.7730  147.6960 N   0  0  0  0  0  0  0  0  0  0  0  0
  185.9150  178.8190  143.5860 C   0  0  2  0  0  0  0  0  0  0  0  0
  186.8550  177.9420  143.0720 N   0  0  0  0  0  0  0  0  0  0  0  0
  185.4310  178.0880  142.5220 C   0  0  0  0  0  0  0  0  0  0  0  0
  188.5940  175.9460  145.5850 C   0  0  0  0  0  3  0  0  0  0  0  0
  186.2650  180.1430  143.3240 O   0  0  0  0  0  1  0  0  0  0  0  0
  188.8190  176.4640  142.8290 C   0  0  0  0  0  3  0  0  0  0  0  0
  184.6300  178.9880  145.7410 C   0  0  0  0  0  3  0  0  0  0  0  0
  185.6870  178.4150  145.0320 C   0  0  0  0  0  0  0  0  0  0  0  0
  184.4370  178.6510  147.0810 C   0  0  0  0  0  3  0  0  0  0  0  0
  189.6070  175.3380  144.8310 C   0  0  0  0  0  3  0  0  0  0  0  0
  187.6890  176.8170  144.9630 C   0  0  0  0  0  0  0  0  0  0  0  0
  184.5030  177.7280  141.7530 O   0  0  0  0  0  0  0  0  0  0  0  0
  189.7210  175.5880  143.4550 C   0  0  0  0  0  0  0  0  0  0  0  0
  186.3120  177.1930  147.0420 C   0  0  0  0  0  3  0  0  0  0  0  0
  186.5590  177.4880  145.6950 C   0  0  0  0  0  0  0  0  0  0  0  0
  190.8140  174.9190  142.6750 C   0  0  1  0  0  3  0  0  0  0  0  0
  193.2880  174.8080  143.3920 C   0  0  0  0  0  0  0  0  0  0  0  0
  191.8920  174.5060  143.5660 N   0  0  0  0  0  2  0  0  0  0  0  0
  193.8280  174.9900  142.2220 N   0  0  0  0  0  0  0  0  0  0  0  0
  194.1310  174.8740  144.5420 N   0  0  0  0  0  2  0  0  0  0  0  0
  194.1590  174.9170  139.8260 C   0  0  0  0  0  2  0  0  0  0  0  0
  193.1380  174.8900  140.9460 C   0  0  0  0  0  3  0  0  0  0  0  0
  193.5500  173.6030  140.2600 C   0  0  0  0  0  2  0  0  0  0  0  0
  193.6150  174.6840  145.8880 C   0  0  0  0  0  2  0  0  0  0  0  0
  194.3810  176.7570  146.6880 O   0  0  0  0  0  0  0  0  0  0  0  0
  193.4270  176.0080  146.5450 C   0  0  0  0  0  0  0  0  0  0  0  0
  192.0710  176.4170  147.0180 C   0  0  0  0  0  2  0  0  0  0  0  0
  191.5240  175.3960  147.9960 C   0  0  0  0  0  1  0  0  0  0  0  0
  190.2850  173.7070  141.9240 C   0  0  0  0  0  2  0  0  0  0  0  0
  189.0980  171.9020  143.1290 C   0  0  0  0  0  1  0  0  0  0  0  0
  190.4580  172.4500  142.7540 C   0  0  0  0  0  2  0  0  0  0  0  0
  1 13  1  0  0  0  0
  3  7  1  6  0  0  0
  3 10  1  0  0  0  0
  4  3  1  0  0  0  0
  4  1  1  0  0  0  0
  5  4  1  0  0  0  0
  5  3  1  0  0  0  0
  8 15  1  0  0  0  0
  8  1  2  0  0  0  0
  9 11  2  0  0  0  0
 10 17  2  0  0  0  0
 10  9  1  0  0  0  0
 11  2  1  0  0  0  0
 12  6  1  0  0  0  0
 13  6  2  0  0  0  0
 13 17  1  0  0  0  0
 14  5  2  0  0  0  0
 15 12  2  0  0  0  0
 16  2  2  0  0  0  0
 17 16  1  0  0  0  0
 18 31  1  1  0  0  0
 18 15  1  0  0  0  0
 18 20  1  0  0  0  0
 19 20  1  0  0  0  0
 19 22  1  0  0  0  0
 21 19  2  0  0  0  0
 22 26  1  0  0  0  0
 23 25  1  0  0  0  0
 23 24  1  0  0  0  0
 24 21  1  0  0  0  0
 25 24  1  0  0  0  0
 26 28  1  0  0  0  0
 28 27  2  0  0  0  0
 28 29  1  0  0  0  0
 29 30  1  0  0  0  0
 31 33  1  0  0  0  0
 33 32  1  0  0  0  0
M  END
>  <MODEL>
7

>  <REMARK>
 VINA RESULT:      -6.3      1.780      2.759
  Name = 
  8 active torsions:
  status: ('A' for Active; 'I' for Inactive)
    1  A    between atoms: C_2  and  C_10
    2  A    between atoms: C_2  and  C_30
    3  A    between atoms: N_5  and  C_30
    4  A    between atoms: N_8  and  C_20
    5  A    between atoms: N_13  and  C_14
    6  A    between atoms: C_14  and  C_19
    7  A    between atoms: C_19  and  C_27
    8  A    between atoms: C_29  and  C_30
                            x       y       z     vdW  Elec       q    Type
                         _______ _______ _______ _____ _____    ______ ____

>  <TORSDO>
F 8

$$$$
=
 OpenBabel11042417383D

 33 37  0  0  1  0  0  0  0  0999 V2000
  190.5180  176.2880  143.8650 C   0  0  0  0  0  0  0  0  0  0  0  0
  187.3390  177.8420  147.2290 N   0  0  0  0  0  0  0  0  0  0  0  0
  188.2070  177.1630  143.0840 C   0  0  2  0  0  0  0  0  0  0  0  0
  189.4210  176.5000  143.0120 N   0  0  0  0  0  0  0  0  0  0  0  0
  188.1040  175.9330  142.4670 C   0  0  0  0  0  0  0  0  0  0  0  0
  191.3010  176.4470  146.1400 C   0  0  0  0  0  3  0  0  0  0  0  0
  188.1940  178.2800  142.2490 O   0  0  0  0  0  1  0  0  0  0  0  0
  191.7410  175.7710  143.4440 C   0  0  0  0  0  3  0  0  0  0  0  0
  186.6480  177.8240  144.9420 C   0  0  0  0  0  3  0  0  0  0  0  0
  187.9100  177.3710  144.5580 C   0  0  0  0  0  0  0  0  0  0  0  0
  186.3790  178.0540  146.2920 C   0  0  0  0  0  3  0  0  0  0  0  0
  192.5400  175.9310  145.7320 C   0  0  0  0  0  3  0  0  0  0  0  0
  190.2780  176.6280  145.2000 C   0  0  0  0  0  0  0  0  0  0  0  0
  187.4320  175.0030  141.9520 O   0  0  0  0  0  0  0  0  0  0  0  0
  192.7620  175.5870  144.3910 C   0  0  0  0  0  0  0  0  0  0  0  0
  188.5820  177.4010  146.8980 C   0  0  0  0  0  3  0  0  0  0  0  0
  188.9140  177.1500  145.5610 C   0  0  0  0  0  0  0  0  0  0  0  0
  194.0970  175.0340  143.9860 C   0  0  1  0  0  3  0  0  0  0  0  0
  194.0700  172.4720  143.6990 C   0  0  0  0  0  0  0  0  0  0  0  0
  193.9250  173.8160  143.2040 N   0  0  0  0  0  2  0  0  0  0  0  0
  194.8640  172.1670  144.6830 N   0  0  0  0  0  0  0  0  0  0  0  0
  193.3470  171.4190  143.0640 N   0  0  0  0  0  2  0  0  0  0  0  0
  196.8160  172.3200  146.1070 C   0  0  0  0  0  2  0  0  0  0  0  0
  195.7260  173.0980  145.3970 C   0  0  0  0  0  3  0  0  0  0  0  0
  197.1200  173.0310  144.8080 C   0  0  0  0  0  2  0  0  0  0  0  0
  192.4370  171.6660  141.9570 C   0  0  0  0  0  2  0  0  0  0  0  0
  190.5320  170.3470  142.3470 O   0  0  0  0  0  0  0  0  0  0  0  0
  191.0320  171.4590  142.4060 C   0  0  0  0  0  0  0  0  0  0  0  0
  190.2440  172.6120  142.9350 C   0  0  0  0  0  2  0  0  0  0  0  0
  190.1050  172.5090  144.4410 C   0  0  0  0  0  1  0  0  0  0  0  0
  194.8850  176.0510  143.1730 C   0  0  0  0  0  2  0  0  0  0  0  0
  197.3400  176.3570  143.1290 C   0  0  0  0  0  1  0  0  0  0  0  0
  196.0860  176.5430  143.9570 C   0  0  0  0  0  2  0  0  0  0  0  0
  1 13  1  0  0  0  0
  3  7  1  6  0  0  0
  3 10  1  0  0  0  0
  4  3  1  0  0  0  0
  4  1  1  0  0  0  0
  5  4  1  0  0  0  0
  5  3  1  0  0  0  0
  8  1  2  0  0  0  0
  8 15  1  0  0  0  0
  9 11  1  0  0  0  0
 10  9  2  0  0  0  0
 10 17  1  0  0  0  0
 11  2  2  0  0  0  0
 12  6  1  0  0  0  0
 13 17  1  0  0  0  0
 13  6  2  0  0  0  0
 14  5  2  0  0  0  0
 15 12  2  0  0  0  0
 16  2  1  0  0  0  0
 17 16  2  0  0  0  0
 18 31  1  6  0  0  0
 18 15  1  0  0  0  0
 19 21  2  0  0  0  0
 20 19  1  0  0  0  0
 20 18  1  0  0  0  0
 21 24  1  0  0  0  0
 22 19  1  0  0  0  0
 24 23  1  0  0  0  0
 25 24  1  0  0  0  0
 25 23  1  0  0  0  0
 26 28  1  0  0  0  0
 26 22  1  0  0  0  0
 27 28  2  0  0  0  0
 28 29  1  0  0  0  0
 29 30  1  0  0  0  0
 31 33  1  0  0  0  0
 32 33  1  0  0  0  0
M  END
>  <MODEL>
8

>  <REMARK>
 VINA RESULT:      -6.3      2.916      4.969
  Name = 
  8 active torsions:
  status: ('A' for Active; 'I' for Inactive)
    1  A    between atoms: C_2  and  C_10
    2  A    between atoms: C_2  and  C_30
    3  A    between atoms: N_5  and  C_30
    4  A    between atoms: N_8  and  C_20
    5  A    between atoms: N_13  and  C_14
    6  A    between atoms: C_14  and  C_19
    7  A    between atoms: C_19  and  C_27
    8  A    between atoms: C_29  and  C_30
                            x       y       z     vdW  Elec       q    Type
                         _______ _______ _______ _____ _____    ______ ____

>  <TORSDO>
F 8

$$$$
=
 OpenBabel11042417383D

 33 37  0  0  1  0  0  0  0  0999 V2000
  190.4810  174.9840  142.1750 C   0  0  0  0  0  0  0  0  0  0  0  0
  190.6080  170.7270  139.7860 N   0  0  0  0  0  0  0  0  0  0  0  0
  192.7560  174.1280  141.2740 C   0  0  2  0  0  0  0  0  0  0  0  0
  191.8760  174.8810  142.0340 N   0  0  0  0  0  0  0  0  0  0  0  0
  193.1690  174.2650  142.5830 C   0  0  0  0  0  0  0  0  0  0  0  0
  188.3700  173.9340  141.6680 C   0  0  0  0  0  3  0  0  0  0  0  0
  193.4100  174.9190  140.3290 O   0  0  0  0  0  1  0  0  0  0  0  0
  189.8430  176.0170  142.8550 C   0  0  0  0  0  3  0  0  0  0  0  0
  192.6700  171.8740  140.1640 C   0  0  0  0  0  3  0  0  0  0  0  0
  191.9810  172.9200  140.7790 C   0  0  0  0  0  0  0  0  0  0  0  0
  191.9610  170.7770  139.6720 C   0  0  0  0  0  3  0  0  0  0  0  0
  187.7120  174.9690  142.3470 C   0  0  0  0  0  3  0  0  0  0  0  0
  189.7690  173.9370  141.5800 C   0  0  0  0  0  0  0  0  0  0  0  0
  193.9480  173.9990  143.5340 O   0  0  0  0  0  0  0  0  0  0  0  0
  188.4410  176.0070  142.9450 C   0  0  0  0  0  0  0  0  0  0  0  0
  189.8990  171.7240  140.3780 C   0  0  0  0  0  3  0  0  0  0  0  0
  190.5510  172.8510  140.8940 C   0  0  0  0  0  0  0  0  0  0  0  0
  187.7070  177.0980  143.6670 C   0  0  1  0  0  3  0  0  0  0  0  0
  187.9780  177.3680  146.2170 C   0  0  0  0  0  0  0  0  0  0  0  0
  188.4420  177.4990  144.8610 N   0  0  0  0  0  2  0  0  0  0  0  0
  186.7160  177.4000  146.5340 N   0  0  0  0  0  0  0  0  0  0  0  0
  188.9350  177.2380  147.2670 N   0  0  0  0  0  2  0  0  0  0  0  0
  184.3650  177.9530  146.3870 C   0  0  0  0  0  2  0  0  0  0  0  0
  185.6130  177.5980  145.6060 C   0  0  0  0  0  3  0  0  0  0  0  0
  185.1500  179.0380  145.6860 C   0  0  0  0  0  2  0  0  0  0  0  0
  190.3640  177.1930  147.0060 C   0  0  0  0  0  2  0  0  0  0  0  0
  191.1890  175.3910  148.2700 O   0  0  0  0  0  0  0  0  0  0  0  0
  190.8600  175.7970  147.1660 C   0  0  0  0  0  0  0  0  0  0  0  0
  190.9440  174.8980  145.9780 C   0  0  0  0  0  2  0  0  0  0  0  0
  189.7110  174.0190  145.8920 C   0  0  0  0  0  1  0  0  0  0  0  0
  187.5060  178.3080  142.7670 C   0  0  0  0  0  2  0  0  0  0  0  0
  186.3290  177.9130  140.6270 C   0  0  0  0  0  1  0  0  0  0  0  0
  186.1500  178.2490  142.0920 C   0  0  0  0  0  2  0  0  0  0  0  0
  1  8  1  0  0  0  0
  2 16  1  0  0  0  0
  3  7  1  6  0  0  0
  3  4  1  0  0  0  0
  3  5  1  0  0  0  0
  4  1  1  0  0  0  0
  4  5  1  0  0  0  0
  5 14  2  0  0  0  0
  6 12  2  0  0  0  0
  8 15  2  0  0  0  0
  9 10  2  0  0  0  0
 10 17  1  0  0  0  0
 10  3  1  0  0  0  0
 11  2  2  0  0  0  0
 11  9  1  0  0  0  0
 12 15  1  0  0  0  0
 13  6  1  0  0  0  0
 13  1  2  0  0  0  0
 15 18  1  0  0  0  0
 16 17  2  0  0  0  0
 17 13  1  0  0  0  0
 18 31  1  6  0  0  0
 18 20  1  0  0  0  0
 19 21  2  0  0  0  0
 19 22  1  0  0  0  0
 20 19  1  0  0  0  0
 24 25  1  0  0  0  0
 24 23  1  0  0  0  0
 24 21  1  0  0  0  0
 25 23  1  0  0  0  0
 26 28  1  0  0  0  0
 26 22  1  0  0  0  0
 28 27  2  0  0  0  0
 29 28  1  0  0  0  0
 30 29  1  0  0  0  0
 32 33  1  0  0  0  0
 33 31  1  0  0  0  0
M  END
>  <MODEL>
9

>  <REMARK>
 VINA RESULT:      -6.3      2.197      7.184
  Name = 
  8 active torsions:
  status: ('A' for Active; 'I' for Inactive)
    1  A    between atoms: C_2  and  C_10
    2  A    between atoms: C_2  and  C_30
    3  A    between atoms: N_5  and  C_30
    4  A    between atoms: N_8  and  C_20
    5  A    between atoms: N_13  and  C_14
    6  A    between atoms: C_14  and  C_19
    7  A    between atoms: C_19  and  C_27
    8  A    between atoms: C_29  and  C_30
                            x       y       z     vdW  Elec       q    Type
                         _______ _______ _______ _____ _____    ______ ____

>  <TORSDO>
F 8

$$$$
