=
 OpenBabel11042417083D

 38 40  0  0  1  0  0  0  0  0999 V2000
  194.5070  175.6090  143.2390 C   0  0  1  0  0  3  0  0  0  0  0  0
  191.9370  175.5810  142.9270 N   0  0  0  0  0  0  0  0  0  0  0  0
  195.1850  174.7940  145.6450 C   0  0  0  0  0  3  0  0  0  0  0  0
  192.8130  176.4900  144.8100 C   0  0  2  0  0  3  0  0  0  0  0  0
  191.3400  176.6160  144.9980 C   0  0  1  0  0  3  0  0  0  0  0  0
  193.1000  175.9150  143.6650 C   0  0  0  0  0  0  0  0  0  0  0  0
  190.7780  175.9980  143.7080 C   0  0  1  0  0  3  0  0  0  0  0  0
  195.1580  174.6110  144.1760 C   0  0  0  0  0  0  0  0  0  0  0  0
  194.6180  175.7830  146.3510 C   0  0  0  0  0  3  0  0  0  0  0  0
  193.8560  176.9440  145.7790 C   0  0  0  0  0  2  0  0  0  0  0  0
  195.7180  173.5820  143.7090 O   0  0  0  0  0  0  0  0  0  0  0  0
  189.9650  177.0080  142.9530 C   0  0  0  0  0  0  0  0  0  0  0  0
  188.7920  176.6020  142.2240 N   0  0  0  0  0  0  0  0  0  0  0  0
  190.2890  178.2270  143.0020 O   0  0  0  0  0  0  0  0  0  0  0  0
  187.9070  177.5910  141.6240 C   0  0  0  0  0  2  0  0  0  0  0  0
  186.4590  177.2080  141.8550 C   0  0  0  0  0  2  0  0  0  0  0  0
  185.5660  178.3750  141.4860 C   0  0  0  0  0  2  0  0  0  0  0  0
  183.3320  177.8730  142.1360 O   0  0  0  0  0  0  0  0  0  0  0  0
  185.6850  179.8350  144.0270 N   0  0  0  0  0  1  0  0  0  0  0  0
  184.5050  179.1810  143.6500 N   0  0  0  0  0  2  0  0  0  0  0  0
  184.4120  178.4510  142.4280 C   0  0  0  0  0  0  0  0  0  0  0  0
  188.3640  175.2090  142.2090 C   0  0  0  0  0  2  0  0  0  0  0  0
  188.2320  174.5980  139.9060 O   0  0  0  0  0  1  0  0  0  0  0  0
  189.0160  174.4680  141.0520 C   0  0  2  0  0  3  0  0  0  0  0  0
  188.9010  172.6220  142.5500 O   0  0  0  0  0  1  0  0  0  0  0  0
  189.1770  173.0260  141.3900 C   0  0  0  0  0  0  0  0  0  0  0  0
  189.6620  172.1280  140.4430 O   0  0  0  0  0  0  0  0  0  0  0  0
  194.5750  175.1980  141.8230 C   0  0  0  0  0  0  0  0  0  0  0  0
  194.6280  174.8740  140.7130 N   0  0  0  0  0  0  0  0  0  0  0  0
  190.8970  175.7930  146.2010 C   0  0  0  0  0  2  0  0  0  0  0  0
  190.0930  176.6440  147.1760 C   0  0  0  0  0  2  0  0  0  0  0  0
  189.2380  177.5450  146.4780 O   0  0  0  0  0  0  0  0  0  0  0  0
  186.8760  177.9310  147.2120 C   0  0  0  0  0  0  0  0  0  0  0  0
  187.3290  176.5860  145.4580 N   0  0  0  0  0  0  0  0  0  0  0  0
  187.1130  178.7120  148.1680 O   0  0  0  0  0  0  0  0  0  0  0  0
  185.8720  176.5620  145.5990 C   0  0  0  0  0  3  0  0  0  0  0  0
  185.5330  177.4840  146.7820 C   0  0  0  0  0  3  0  0  0  0  0  0
  187.8620  177.3370  146.3570 C   0  0  0  0  0  0  0  0  0  0  0  0
  1 28  1  6  0  0  0
  1  6  1  0  0  0  0
  1  8  1  0  0  0  0
  2  6  2  0  0  0  0
  2  7  1  0  0  0  0
  3  9  2  0  0  0  0
  4  5  1  0  0  0  0
  4 10  1  1  0  0  0
  5 30  1  1  0  0  0
  6  4  1  0  0  0  0
  7 12  1  6  0  0  0
  7  5  1  0  0  0  0
  8  3  1  0  0  0  0
 10  9  1  0  0  0  0
 11  8  2  0  0  0  0
 12 14  2  0  0  0  0
 13 12  1  0  0  0  0
 15 16  1  0  0  0  0
 15 13  1  0  0  0  0
 17 16  1  0  0  0  0
 17 21  1  0  0  0  0
 18 21  2  0  0  0  0
 20 19  1  0  0  0  0
 21 20  1  0  0  0  0
 22 13  1  0  0  0  0
 24 23  1  6  0  0  0
 24 26  1  0  0  0  0
 24 22  1  0  0  0  0
 26 25  1  0  0  0  0
 27 26  2  0  0  0  0
 29 28  3  0  0  0  0
 30 31  1  0  0  0  0
 32 31  1  0  0  0  0
 33 35  2  0  0  0  0
 34 36  1  0  0  0  0
 34 38  2  0  0  0  0
 36 37  2  0  0  0  0
 37 33  1  0  0  0  0
 38 32  1  0  0  0  0
 38 33  1  0  0  0  0
M  END
>  <MODEL>
1

>  <REMARK>
 VINA RESULT:      -6.7      0.000      0.000
  Name = 
  13 active torsions:
  status: ('A' for Active; 'I' for Inactive)
    1  A    between atoms: C_1  and  C_26
    2  A    between atoms: N_2  and  C_6
    3  A    between atoms: N_2  and  C_12
    4  A    between atoms: C_5  and  C_7
    5  A    between atoms: C_6  and  C_30
    6  A    between atoms: C_12  and  C_36
    7  A    between atoms: C_16  and  C_22
    8  A    between atoms: C_18  and  C_24
    9  A    between atoms: C_18  and  C_30
   10  A    between atoms: C_20  and  C_22
   11  A    between atoms: C_20  and  O_32
   12  A    between atoms: C_23  and  C_36
   13  A    between atoms: C_27  and  O_32
                            x       y       z     vdW  Elec       q    Type
                         _______ _______ _______ _____ _____    ______ ____

>  <TORSDO>
F 13

$$$$
=
 OpenBabel11042417083D

 38 40  0  0  1  0  0  0  0  0999 V2000
  185.8740  177.3770  144.4310 C   0  0  1  0  0  3  0  0  0  0  0  0
  188.2710  176.4840  144.0260 N   0  0  0  0  0  0  0  0  0  0  0  0
  185.8080  179.0440  146.4640 C   0  0  0  0  0  3  0  0  0  0  0  0
  187.4410  176.5080  146.1360 C   0  0  2  0  0  3  0  0  0  0  0  0
  188.8240  175.9780  146.2960 C   0  0  1  0  0  3  0  0  0  0  0  0
  187.1760  176.7770  144.8780 C   0  0  0  0  0  0  0  0  0  0  0  0
  189.3550  175.9700  144.8540 C   0  0  1  0  0  3  0  0  0  0  0  0
  185.6810  178.7630  145.0160 C   0  0  0  0  0  0  0  0  0  0  0  0
  186.1560  178.1830  147.4310 C   0  0  0  0  0  3  0  0  0  0  0  0
  186.4580  176.7240  147.2410 C   0  0  0  0  0  2  0  0  0  0  0  0
  185.3850  179.7280  144.2610 O   0  0  0  0  0  0  0  0  0  0  0  0
  189.7240  174.5760  144.4390 C   0  0  0  0  0  0  0  0  0  0  0  0
  190.5770  174.3560  143.3000 N   0  0  0  0  0  0  0  0  0  0  0  0
  189.3210  173.5970  145.1260 O   0  0  0  0  0  0  0  0  0  0  0  0
  191.0720  173.0220  142.9870 C   0  0  0  0  0  2  0  0  0  0  0  0
  190.7190  172.6550  141.5590 C   0  0  0  0  0  2  0  0  0  0  0  0
  189.2110  172.5990  141.4140 C   0  0  0  0  0  2  0  0  0  0  0  0
  188.9490  172.0280  139.1170 O   0  0  0  0  0  0  0  0  0  0  0  0
  188.1630  175.2130  140.5990 N   0  0  0  0  0  1  0  0  0  0  0  0
  188.3280  174.1990  139.6480 N   0  0  0  0  0  2  0  0  0  0  0  0
  188.8240  172.9100  140.0070 C   0  0  0  0  0  0  0  0  0  0  0  0
  191.1070  175.4750  142.5330 C   0  0  0  0  0  2  0  0  0  0  0  0
  192.4960  177.1610  143.4910 O   0  0  0  0  0  1  0  0  0  0  0  0
  192.4950  175.8450  143.0290 C   0  0  2  0  0  3  0  0  0  0  0  0
  193.1990  175.0210  140.9100 O   0  0  0  0  0  0  0  0  0  0  0  0
  193.4910  175.6990  141.9300 C   0  0  0  0  0  0  0  0  0  0  0  0
  194.7530  176.2770  142.0370 O   0  0  0  0  0  1  0  0  0  0  0  0
  185.7310  177.3470  142.9620 C   0  0  0  0  0  0  0  0  0  0  0  0
  185.6200  177.3240  141.8110 N   0  0  0  0  0  0  0  0  0  0  0  0
  189.6520  176.9340  147.1460 C   0  0  0  0  0  2  0  0  0  0  0  0
  191.0920  176.9940  146.6520 C   0  0  0  0  0  2  0  0  0  0  0  0
  191.8750  175.9590  147.2410 O   0  0  0  0  0  0  0  0  0  0  0  0
  194.2320  176.0840  146.4060 C   0  0  0  0  0  0  0  0  0  0  0  0
  193.0130  174.2060  146.1290 N   0  0  0  0  0  0  0  0  0  0  0  0
  194.4880  177.2580  146.7770 O   0  0  0  0  0  0  0  0  0  0  0  0
  194.3120  173.9200  145.5170 C   0  0  0  0  0  3  0  0  0  0  0  0
  195.1700  175.1810  145.7040 C   0  0  0  0  0  3  0  0  0  0  0  0
  192.9870  175.4010  146.6060 C   0  0  0  0  0  0  0  0  0  0  0  0
  1 28  1  6  0  0  0
  1  6  1  0  0  0  0
  1  8  1  0  0  0  0
  2  7  1  0  0  0  0
  2  6  2  0  0  0  0
  3  9  2  0  0  0  0
  4  5  1  0  0  0  0
  4 10  1  1  0  0  0
  5 30  1  1  0  0  0
  6  4  1  0  0  0  0
  7 12  1  6  0  0  0
  7  5  1  0  0  0  0
  8  3  1  0  0  0  0
 10  9  1  0  0  0  0
 11  8  2  0  0  0  0
 12 14  2  0  0  0  0
 13 12  1  0  0  0  0
 15 13  1  0  0  0  0
 16 15  1  0  0  0  0
 17 16  1  0  0  0  0
 18 21  2  0  0  0  0
 20 21  1  0  0  0  0
 20 19  1  0  0  0  0
 21 17  1  0  0  0  0
 22 24  1  0  0  0  0
 22 13  1  0  0  0  0
 24 23  1  6  0  0  0
 25 26  2  0  0  0  0
 26 27  1  0  0  0  0
 26 24  1  0  0  0  0
 29 28  3  0  0  0  0
 31 30  1  0  0  0  0
 31 32  1  0  0  0  0
 33 38  1  0  0  0  0
 33 35  2  0  0  0  0
 34 38  2  0  0  0  0
 36 37  2  0  0  0  0
 36 34  1  0  0  0  0
 37 33  1  0  0  0  0
 38 32  1  0  0  0  0
M  END
>  <MODEL>
2

>  <REMARK>
 VINA RESULT:      -6.6      2.197      6.824
  Name = 
  13 active torsions:
  status: ('A' for Active; 'I' for Inactive)
    1  A    between atoms: C_1  and  C_26
    2  A    between atoms: N_2  and  C_6
    3  A    between atoms: N_2  and  C_12
    4  A    between atoms: C_5  and  C_7
    5  A    between atoms: C_6  and  C_30
    6  A    between atoms: C_12  and  C_36
    7  A    between atoms: C_16  and  C_22
    8  A    between atoms: C_18  and  C_24
    9  A    between atoms: C_18  and  C_30
   10  A    between atoms: C_20  and  C_22
   11  A    between atoms: C_20  and  O_32
   12  A    between atoms: C_23  and  C_36
   13  A    between atoms: C_27  and  O_32
                            x       y       z     vdW  Elec       q    Type
                         _______ _______ _______ _____ _____    ______ ____

>  <TORSDO>
F 13

$$$$
=
 OpenBabel11042417083D

 38 40  0  0  1  0  0  0  0  0999 V2000
  185.8160  179.1510  145.2050 C   0  0  1  0  0  3  0  0  0  0  0  0
  187.7080  177.4040  145.4740 N   0  0  0  0  0  2  0  0  0  0  0  0
  184.0580  178.3830  143.4060 C   0  0  0  0  0  3  0  0  0  0  0  0
  187.0710  178.0340  143.3920 C   0  0  0  0  0  0  0  0  0  0  0  0
  188.1300  177.0120  143.1540 C   0  0  1  0  0  3  0  0  0  0  0  0
  186.8660  178.2180  144.6760 C   0  0  0  0  0  0  0  0  0  0  0  0
  188.5420  176.6110  144.5790 C   0  0  1  0  0  3  0  0  0  0  0  0
  184.4260  178.6930  144.8070 C   0  0  0  0  0  0  0  0  0  0  0  0
  184.8620  178.3970  142.3330 C   0  0  0  0  0  3  0  0  0  0  0  0
  186.3160  178.7690  142.3310 C   0  0  0  0  0  2  0  0  0  0  0  0
  183.5260  178.5770  145.6830 O   0  0  0  0  0  0  0  0  0  0  0  0
  189.9960  176.9060  144.8070 C   0  0  0  0  0  0  0  0  0  0  0  0
  190.9350  175.8330  145.0040 N   0  0  0  0  0  0  0  0  0  0  0  0
  190.3980  178.1020  144.7760 O   0  0  0  0  0  0  0  0  0  0  0  0
  192.3660  176.0970  145.0640 C   0  0  0  0  0  2  0  0  0  0  0  0
  192.9300  175.6280  146.3910 C   0  0  0  0  0  2  0  0  0  0  0  0
  194.4380  175.7760  146.3750 C   0  0  0  0  0  2  0  0  0  0  0  0
  194.9020  173.5550  145.6530 O   0  0  0  0  0  0  0  0  0  0  0  0
  195.9430  176.5720  143.9870 N   0  0  0  0  0  1  0  0  0  0  0  0
  195.7710  175.2150  144.2850 N   0  0  0  0  0  2  0  0  0  0  0  0
  195.0360  174.7870  145.4310 C   0  0  0  0  0  0  0  0  0  0  0  0
  190.5010  174.4430  144.9770 C   0  0  0  0  0  2  0  0  0  0  0  0
  189.6940  173.0300  143.2320 O   0  0  0  0  0  1  0  0  0  0  0  0
  190.7710  173.8310  143.6120 C   0  0  2  0  0  3  0  0  0  0  0  0
  192.9660  173.2860  142.8700 O   0  0  0  0  0  0  0  0  0  0  0  0
  192.0160  173.0130  143.6500 C   0  0  0  0  0  0  0  0  0  0  0  0
  192.1250  171.9300  144.5180 O   0  0  0  0  0  1  0  0  0  0  0  0
  185.9550  179.3660  146.6590 C   0  0  0  0  0  0  0  0  0  0  0  0
  186.0650  179.5340  147.7990 N   0  0  0  0  0  0  0  0  0  0  0  0
  187.5380  175.8100  142.4290 C   0  0  0  0  0  2  0  0  0  0  0  0
  188.1070  175.6900  141.0200 C   0  0  0  0  0  2  0  0  0  0  0  0
  188.2570  174.3230  140.6470 O   0  0  0  0  0  0  0  0  0  0  0  0
  190.1580  173.5170  139.2320 C   0  0  0  0  0  0  0  0  0  0  0  0
  188.1310  173.9020  138.3200 N   0  0  0  0  0  0  0  0  0  0  0  0
  191.0310  173.4440  140.1350 O   0  0  0  0  0  0  0  0  0  0  0  0
  188.9790  173.4610  137.2120 C   0  0  0  0  0  3  0  0  0  0  0  0
  190.3670  173.1770  137.8090 C   0  0  0  0  0  3  0  0  0  0  0  0
  188.7990  173.9320  139.4210 C   0  0  0  0  0  0  0  0  0  0  0  0
  1 28  1  1  0  0  0
  3  8  1  0  0  0  0
  4  6  2  0  0  0  0
  5 30  1  6  0  0  0
  5  4  1  0  0  0  0
  5  7  1  0  0  0  0
  6  1  1  0  0  0  0
  6  2  1  0  0  0  0
  7 12  1  1  0  0  0
  7  2  1  0  0  0  0
  8  1  1  0  0  0  0
  8 11  2  0  0  0  0
  9  3  2  0  0  0  0
 10  9  1  0  0  0  0
 10  4  1  0  0  0  0
 12 13  1  0  0  0  0
 13 15  1  0  0  0  0
 14 12  2  0  0  0  0
 15 16  1  0  0  0  0
 17 16  1  0  0  0  0
 19 20  1  0  0  0  0
 20 21  1  0  0  0  0
 21 18  2  0  0  0  0
 21 17  1  0  0  0  0
 22 13  1  0  0  0  0
 24 23  1  1  0  0  0
 24 26  1  0  0  0  0
 24 22  1  0  0  0  0
 25 26  2  0  0  0  0
 26 27  1  0  0  0  0
 28 29  3  0  0  0  0
 31 30  1  0  0  0  0
 32 31  1  0  0  0  0
 33 38  1  0  0  0  0
 33 35  2  0  0  0  0
 34 38  2  0  0  0  0
 36 37  2  0  0  0  0
 36 34  1  0  0  0  0
 37 33  1  0  0  0  0
 38 32  1  0  0  0  0
M  END
>  <MODEL>
3

>  <REMARK>
 VINA RESULT:      -6.4      2.399      8.350
  Name = 
  13 active torsions:
  status: ('A' for Active; 'I' for Inactive)
    1  A    between atoms: C_1  and  C_26
    2  A    between atoms: N_2  and  C_6
    3  A    between atoms: N_2  and  C_12
    4  A    between atoms: C_5  and  C_7
    5  A    between atoms: C_6  and  C_30
    6  A    between atoms: C_12  and  C_36
    7  A    between atoms: C_16  and  C_22
    8  A    between atoms: C_18  and  C_24
    9  A    between atoms: C_18  and  C_30
   10  A    between atoms: C_20  and  C_22
   11  A    between atoms: C_20  and  O_32
   12  A    between atoms: C_23  and  C_36
   13  A    between atoms: C_27  and  O_32
                            x       y       z     vdW  Elec       q    Type
                         _______ _______ _______ _____ _____    ______ ____

>  <TORSDO>
F 13

$$$$
=
 OpenBabel11042417083D

 38 40  0  0  1  0  0  0  0  0999 V2000
  195.6690  176.0540  143.4460 C   0  0  1  0  0  3  0  0  0  0  0  0
  193.2110  175.8320  142.6590 N   0  0  0  0  0  0  0  0  0  0  0  0
  196.1930  174.3910  145.4140 C   0  0  0  0  0  3  0  0  0  0  0  0
  193.6550  175.9630  144.8780 C   0  0  2  0  0  3  0  0  0  0  0  0
  192.1740  175.8070  144.8130 C   0  0  1  0  0  3  0  0  0  0  0  0
  194.1880  175.9680  143.6780 C   0  0  0  0  0  0  0  0  0  0  0  0
  191.9070  175.7270  143.3020 C   0  0  1  0  0  3  0  0  0  0  0  0
  196.3830  174.8450  144.0170 C   0  0  0  0  0  0  0  0  0  0  0  0
  195.3610  174.9070  146.3300 C   0  0  0  0  0  3  0  0  0  0  0  0
  194.4620  176.0920  146.1290 C   0  0  0  0  0  2  0  0  0  0  0  0
  197.1870  174.1910  143.2980 O   0  0  0  0  0  0  0  0  0  0  0  0
  191.0090  176.8480  142.8670 C   0  0  0  0  0  0  0  0  0  0  0  0
  189.6550  176.5820  142.4590 N   0  0  0  0  0  0  0  0  0  0  0  0
  191.4360  178.0360  142.9090 O   0  0  0  0  0  0  0  0  0  0  0  0
  188.7290  177.6740  142.1910 C   0  0  0  0  0  2  0  0  0  0  0  0
  187.3660  177.3610  142.7780 C   0  0  0  0  0  2  0  0  0  0  0  0
  186.4010  178.4740  142.4230 C   0  0  0  0  0  2  0  0  0  0  0  0
  184.7760  177.7310  143.9970 O   0  0  0  0  0  0  0  0  0  0  0  0
  184.1590  178.4910  140.5330 N   0  0  0  0  0  1  0  0  0  0  0  0
  183.9510  178.0970  141.8600 N   0  0  0  0  0  2  0  0  0  0  0  0
  185.0140  178.0870  142.8120 C   0  0  0  0  0  0  0  0  0  0  0  0
  189.1230  175.2260  142.4660 C   0  0  0  0  0  2  0  0  0  0  0  0
  188.2950  174.6880  140.2950 O   0  0  0  0  0  1  0  0  0  0  0  0
  189.3980  174.5430  141.1360 C   0  0  2  0  0  3  0  0  0  0  0  0
  189.3620  172.2610  140.4620 O   0  0  0  0  0  0  0  0  0  0  0  0
  189.6810  173.0960  141.3490 C   0  0  0  0  0  0  0  0  0  0  0  0
  190.2660  172.6550  142.5330 O   0  0  0  0  0  1  0  0  0  0  0  0
  195.9880  176.2930  142.0240 C   0  0  0  0  0  0  0  0  0  0  0  0
  196.2390  176.4790  140.9100 N   0  0  0  0  0  0  0  0  0  0  0  0
  191.7580  174.5040  145.4820 C   0  0  0  0  0  2  0  0  0  0  0  0
  190.2450  174.4380  145.6520 C   0  0  0  0  0  2  0  0  0  0  0  0
  189.8320  175.1660  146.8060 O   0  0  0  0  0  0  0  0  0  0  0  0
  188.6920  177.3260  146.2600 C   0  0  0  0  0  0  0  0  0  0  0  0
  187.5750  175.6710  147.3100 N   0  0  0  0  0  0  0  0  0  0  0  0
  189.6610  177.9020  145.7040 O   0  0  0  0  0  0  0  0  0  0  0  0
  186.6100  176.7630  147.1710 C   0  0  0  0  0  3  0  0  0  0  0  0
  187.3420  177.9020  146.4440 C   0  0  0  0  0  3  0  0  0  0  0  0
  188.7140  176.0020  146.8100 C   0  0  0  0  0  0  0  0  0  0  0  0
  1 28  1  6  0  0  0
  1  6  1  0  0  0  0
  1  8  1  0  0  0  0
  2  7  1  0  0  0  0
  2  6  2  0  0  0  0
  3  9  2  0  0  0  0
  4 10  1  1  0  0  0
  5  4  1  0  0  0  0
  5 30  1  1  0  0  0
  6  4  1  0  0  0  0
  7 12  1  6  0  0  0
  7  5  1  0  0  0  0
  8  3  1  0  0  0  0
 10  9  1  0  0  0  0
 11  8  2  0  0  0  0
 12 14  2  0  0  0  0
 13 22  1  0  0  0  0
 13 12  1  0  0  0  0
 15 13  1  0  0  0  0
 15 16  1  0  0  0  0
 17 16  1  0  0  0  0
 17 21  1  0  0  0  0
 19 20  1  0  0  0  0
 20 21  1  0  0  0  0
 21 18  2  0  0  0  0
 24 23  1  6  0  0  0
 24 26  1  0  0  0  0
 24 22  1  0  0  0  0
 25 26  2  0  0  0  0
 26 27  1  0  0  0  0
 29 28  3  0  0  0  0
 30 31  1  0  0  0  0
 31 32  1  0  0  0  0
 32 38  1  0  0  0  0
 33 37  1  0  0  0  0
 33 38  1  0  0  0  0
 35 33  2  0  0  0  0
 36 34  1  0  0  0  0
 37 36  2  0  0  0  0
 38 34  2  0  0  0  0
M  END
>  <MODEL>
4

>  <REMARK>
 VINA RESULT:      -6.3      1.486      1.765
  Name = 
  13 active torsions:
  status: ('A' for Active; 'I' for Inactive)
    1  A    between atoms: C_1  and  C_26
    2  A    between atoms: N_2  and  C_6
    3  A    between atoms: N_2  and  C_12
    4  A    between atoms: C_5  and  C_7
    5  A    between atoms: C_6  and  C_30
    6  A    between atoms: C_12  and  C_36
    7  A    between atoms: C_16  and  C_22
    8  A    between atoms: C_18  and  C_24
    9  A    between atoms: C_18  and  C_30
   10  A    between atoms: C_20  and  C_22
   11  A    between atoms: C_20  and  O_32
   12  A    between atoms: C_23  and  C_36
   13  A    between atoms: C_27  and  O_32
                            x       y       z     vdW  Elec       q    Type
                         _______ _______ _______ _____ _____    ______ ____

>  <TORSDO>
F 13

$$$$
=
 OpenBabel11042417083D

 38 40  0  0  1  0  0  0  0  0999 V2000
  195.1100  175.4640  141.4820 C   0  0  1  0  0  3  0  0  0  0  0  0
  192.6150  175.5600  142.1730 N   0  0  0  0  0  0  0  0  0  0  0  0
  196.5620  174.2700  143.3200 C   0  0  0  0  0  3  0  0  0  0  0  0
  194.2040  176.1440  143.6810 C   0  0  2  0  0  3  0  0  0  0  0  0
  192.9240  176.2830  144.4300 C   0  0  1  0  0  3  0  0  0  0  0  0
  193.9940  175.7420  142.4480 C   0  0  0  0  0  0  0  0  0  0  0  0
  191.8720  175.8870  143.3830 C   0  0  1  0  0  3  0  0  0  0  0  0
  195.9750  174.3140  141.9620 C   0  0  0  0  0  0  0  0  0  0  0  0
  196.3860  175.1550  144.3110 C   0  0  0  0  0  3  0  0  0  0  0  0
  195.5690  176.4120  144.2290 C   0  0  0  0  0  2  0  0  0  0  0  0
  196.2300  173.3530  141.1860 O   0  0  0  0  0  0  0  0  0  0  0  0
  190.9250  177.0240  143.1340 C   0  0  0  0  0  0  0  0  0  0  0  0
  189.5260  176.7730  142.9090 N   0  0  0  0  0  0  0  0  0  0  0  0
  191.3570  178.2100  143.1720 O   0  0  0  0  0  0  0  0  0  0  0  0
  188.5750  177.8730  142.8280 C   0  0  0  0  0  2  0  0  0  0  0  0
  187.1900  177.3990  143.2260 C   0  0  0  0  0  2  0  0  0  0  0  0
  186.4560  178.5270  143.9230 C   0  0  0  0  0  2  0  0  0  0  0  0
  184.3490  177.8470  143.0490 O   0  0  0  0  0  0  0  0  0  0  0  0
  185.0550  178.5990  146.4980 N   0  0  0  0  0  1  0  0  0  0  0  0
  184.3630  178.2400  145.3350 N   0  0  0  0  0  2  0  0  0  0  0  0
  185.0120  178.1820  144.0660 C   0  0  0  0  0  0  0  0  0  0  0  0
  188.9960  175.4160  142.9270 C   0  0  0  0  0  2  0  0  0  0  0  0
  188.1470  174.9940  140.7380 O   0  0  0  0  0  1  0  0  0  0  0  0
  189.2260  174.7410  141.5840 C   0  0  2  0  0  3  0  0  0  0  0  0
  188.4680  172.6060  142.3120 O   0  0  0  0  0  1  0  0  0  0  0  0
  189.3880  173.2710  141.7670 C   0  0  0  0  0  0  0  0  0  0  0  0
  190.5600  172.6330  141.3700 O   0  0  0  0  0  0  0  0  0  0  0  0
  194.6090  175.2720  140.1070 C   0  0  0  0  0  0  0  0  0  0  0  0
  194.2170  175.1210  139.0280 N   0  0  0  0  0  0  0  0  0  0  0  0
  192.8930  175.2990  145.5930 C   0  0  0  0  0  2  0  0  0  0  0  0
  192.7540  176.0310  146.9220 C   0  0  0  0  0  2  0  0  0  0  0  0
  191.5650  175.6340  147.6000 O   0  0  0  0  0  0  0  0  0  0  0  0
  189.2260  175.2370  146.8040 C   0  0  0  0  0  0  0  0  0  0  0  0
  189.9550  177.3290  147.2260 N   0  0  0  0  0  0  0  0  0  0  0  0
  189.2790  173.9830  146.7170 O   0  0  0  0  0  0  0  0  0  0  0  0
  188.5700  177.4840  146.7770 C   0  0  0  0  0  3  0  0  0  0  0  0
  188.0430  176.0680  146.4940 C   0  0  0  0  0  3  0  0  0  0  0  0
  190.2980  176.0880  147.2280 C   0  0  0  0  0  0  0  0  0  0  0  0
  1 28  1  6  0  0  0
  1  8  1  0  0  0  0
  1  6  1  0  0  0  0
  2  6  2  0  0  0  0
  2  7  1  0  0  0  0
  3  9  2  0  0  0  0
  4 10  1  1  0  0  0
  4  5  1  0  0  0  0
  5 30  1  1  0  0  0
  6  4  1  0  0  0  0
  7 12  1  6  0  0  0
  7  5  1  0  0  0  0
  8  3  1  0  0  0  0
 10  9  1  0  0  0  0
 11  8  2  0  0  0  0
 12 14  2  0  0  0  0
 13 22  1  0  0  0  0
 13 12  1  0  0  0  0
 15 13  1  0  0  0  0
 15 16  1  0  0  0  0
 16 17  1  0  0  0  0
 17 21  1  0  0  0  0
 18 21  2  0  0  0  0
 20 19  1  0  0  0  0
 21 20  1  0  0  0  0
 24 23  1  6  0  0  0
 24 26  1  0  0  0  0
 24 22  1  0  0  0  0
 26 25  1  0  0  0  0
 27 26  2  0  0  0  0
 29 28  3  0  0  0  0
 30 31  1  0  0  0  0
 31 32  1  0  0  0  0
 33 38  1  0  0  0  0
 34 38  2  0  0  0  0
 35 33  2  0  0  0  0
 36 34  1  0  0  0  0
 37 36  2  0  0  0  0
 37 33  1  0  0  0  0
 38 32  1  0  0  0  0
M  END
>  <MODEL>
5

>  <REMARK>
 VINA RESULT:      -6.2      1.865      2.240
  Name = 
  13 active torsions:
  status: ('A' for Active; 'I' for Inactive)
    1  A    between atoms: C_1  and  C_26
    2  A    between atoms: N_2  and  C_6
    3  A    between atoms: N_2  and  C_12
    4  A    between atoms: C_5  and  C_7
    5  A    between atoms: C_6  and  C_30
    6  A    between atoms: C_12  and  C_36
    7  A    between atoms: C_16  and  C_22
    8  A    between atoms: C_18  and  C_24
    9  A    between atoms: C_18  and  C_30
   10  A    between atoms: C_20  and  C_22
   11  A    between atoms: C_20  and  O_32
   12  A    between atoms: C_23  and  C_36
   13  A    between atoms: C_27  and  O_32
                            x       y       z     vdW  Elec       q    Type
                         _______ _______ _______ _____ _____    ______ ____

>  <TORSDO>
F 13

$$$$
=
 OpenBabel11042417083D

 38 40  0  0  1  0  0  0  0  0999 V2000
  193.9400  175.4600  145.1600 C   0  0  1  0  0  3  0  0  0  0  0  0
  191.8480  176.6520  144.2060 N   0  0  0  0  0  0  0  0  0  0  0  0
  194.5970  173.3740  143.7010 C   0  0  0  0  0  3  0  0  0  0  0  0
  191.8340  174.3960  144.4230 C   0  0  2  0  0  3  0  0  0  0  0  0
  190.5080  174.7110  143.8200 C   0  0  1  0  0  3  0  0  0  0  0  0
  192.5410  175.4850  144.6170 C   0  0  0  0  0  0  0  0  0  0  0  0
  190.5480  176.2420  143.6910 C   0  0  1  0  0  3  0  0  0  0  0  0
  194.8800  174.7310  144.2200 C   0  0  0  0  0  0  0  0  0  0  0  0
  193.4990  172.6340  143.9160 C   0  0  0  0  0  3  0  0  0  0  0  0
  192.3290  173.0290  144.7700 C   0  0  0  0  0  2  0  0  0  0  0  0
  195.9590  175.2770  143.8610 O   0  0  0  0  0  0  0  0  0  0  0  0
  189.4400  176.8650  144.4890 C   0  0  0  0  0  0  0  0  0  0  0  0
  188.3890  177.5950  143.8310 N   0  0  0  0  0  0  0  0  0  0  0  0
  189.4100  176.7010  145.7410 O   0  0  0  0  0  0  0  0  0  0  0  0
  187.2280  178.0630  144.5760 C   0  0  0  0  0  2  0  0  0  0  0  0
  186.2780  176.9120  144.8440 C   0  0  0  0  0  2  0  0  0  0  0  0
  185.9360  176.8770  146.3200 C   0  0  0  0  0  2  0  0  0  0  0  0
  184.0000  178.2490  146.1330 O   0  0  0  0  0  0  0  0  0  0  0  0
  186.8290  178.8790  148.2690 N   0  0  0  0  0  1  0  0  0  0  0  0
  185.5940  179.0300  147.6260 N   0  0  0  0  0  2  0  0  0  0  0  0
  185.1200  178.0730  146.6810 C   0  0  0  0  0  0  0  0  0  0  0  0
  188.3700  177.7390  142.3820 C   0  0  0  0  0  2  0  0  0  0  0  0
  187.9740  175.8460  140.9850 O   0  0  0  0  0  1  0  0  0  0  0  0
  187.3370  176.8050  141.7720 C   0  0  2  0  0  3  0  0  0  0  0  0
  186.4980  177.5870  139.6870 O   0  0  0  0  0  0  0  0  0  0  0  0
  186.3720  177.5770  140.9390 C   0  0  0  0  0  0  0  0  0  0  0  0
  185.3520  178.3130  141.5370 O   0  0  0  0  0  1  0  0  0  0  0  0
  194.4150  176.8120  145.5150 C   0  0  0  0  0  0  0  0  0  0  0  0
  194.7880  177.8720  145.7920 N   0  0  0  0  0  0  0  0  0  0  0  0
  190.4020  174.0790  142.4380 C   0  0  0  0  0  2  0  0  0  0  0  0
  189.4990  172.8520  142.4680 C   0  0  0  0  0  2  0  0  0  0  0  0
  189.5880  172.1240  141.2470 O   0  0  0  0  0  0  0  0  0  0  0  0
  190.3990  173.1230  139.0990 C   0  0  0  0  0  0  0  0  0  0  0  0
  188.1900  172.9510  139.5240 N   0  0  0  0  0  0  0  0  0  0  0  0
  191.6340  173.0050  139.3050 O   0  0  0  0  0  0  0  0  0  0  0  0
  188.2840  173.5820  138.2060 C   0  0  0  0  0  3  0  0  0  0  0  0
  189.7830  173.7000  137.8850 C   0  0  0  0  0  3  0  0  0  0  0  0
  189.3620  172.7130  140.0000 C   0  0  0  0  0  0  0  0  0  0  0  0
  1 28  1  6  0  0  0
  2  6  2  0  0  0  0
  3  9  2  0  0  0  0
  3  8  1  0  0  0  0
  4  6  1  0  0  0  0
  4 10  1  6  0  0  0
  5 30  1  6  0  0  0
  5  4  1  0  0  0  0
  6  1  1  0  0  0  0
  7  5  1  0  0  0  0
  7  2  1  0  0  0  0
  7 12  1  1  0  0  0
  8  1  1  0  0  0  0
  9 10  1  0  0  0  0
 11  8  2  0  0  0  0
 12 14  2  0  0  0  0
 13 12  1  0  0  0  0
 13 15  1  0  0  0  0
 15 16  1  0  0  0  0
 16 17  1  0  0  0  0
 17 21  1  0  0  0  0
 18 21  2  0  0  0  0
 20 19  1  0  0  0  0
 21 20  1  0  0  0  0
 22 13  1  0  0  0  0
 24 23  1  6  0  0  0
 24 22  1  0  0  0  0
 25 26  2  0  0  0  0
 26 27  1  0  0  0  0
 26 24  1  0  0  0  0
 28 29  3  0  0  0  0
 30 31  1  0  0  0  0
 32 31  1  0  0  0  0
 33 35  2  0  0  0  0
 33 38  1  0  0  0  0
 34 38  2  0  0  0  0
 36 34  1  0  0  0  0
 37 36  2  0  0  0  0
 37 33  1  0  0  0  0
 38 32  1  0  0  0  0
M  END
>  <MODEL>
6

>  <REMARK>
 VINA RESULT:      -6.1      2.265      5.208
  Name = 
  13 active torsions:
  status: ('A' for Active; 'I' for Inactive)
    1  A    between atoms: C_1  and  C_26
    2  A    between atoms: N_2  and  C_6
    3  A    between atoms: N_2  and  C_12
    4  A    between atoms: C_5  and  C_7
    5  A    between atoms: C_6  and  C_30
    6  A    between atoms: C_12  and  C_36
    7  A    between atoms: C_16  and  C_22
    8  A    between atoms: C_18  and  C_24
    9  A    between atoms: C_18  and  C_30
   10  A    between atoms: C_20  and  C_22
   11  A    between atoms: C_20  and  O_32
   12  A    between atoms: C_23  and  C_36
   13  A    between atoms: C_27  and  O_32
                            x       y       z     vdW  Elec       q    Type
                         _______ _______ _______ _____ _____    ______ ____

>  <TORSDO>
F 13

$$$$
=
 OpenBabel11042417083D

 38 40  0  0  1  0  0  0  0  0999 V2000
  186.2770  178.6700  145.3250 C   0  0  1  0  0  3  0  0  0  0  0  0
  188.4620  177.3200  144.9880 N   0  0  0  0  0  2  0  0  0  0  0  0
  184.4260  177.9300  143.6110 C   0  0  0  0  0  3  0  0  0  0  0  0
  187.4160  178.2030  143.1810 C   0  0  0  0  0  0  0  0  0  0  0  0
  188.5860  177.4810  142.6060 C   0  0  1  0  0  3  0  0  0  0  0  0
  187.3800  178.0890  144.4890 C   0  0  0  0  0  0  0  0  0  0  0  0
  189.2740  176.9020  143.8520 C   0  0  1  0  0  3  0  0  0  0  0  0
  184.9430  178.0280  144.9940 C   0  0  0  0  0  0  0  0  0  0  0  0
  185.0420  178.3130  142.4840 C   0  0  0  0  0  3  0  0  0  0  0  0
  186.3930  178.9630  142.4000 C   0  0  0  0  0  2  0  0  0  0  0  0
  184.2210  177.5650  145.9190 O   0  0  0  0  0  0  0  0  0  0  0  0
  190.6720  177.4320  143.9750 C   0  0  0  0  0  0  0  0  0  0  0  0
  191.7110  176.6230  144.5570 N   0  0  0  0  0  0  0  0  0  0  0  0
  190.9430  178.5770  143.5180 O   0  0  0  0  0  0  0  0  0  0  0  0
  193.0990  177.0630  144.5330 C   0  0  0  0  0  2  0  0  0  0  0  0
  193.9750  175.9980  143.9020 C   0  0  0  0  0  2  0  0  0  0  0  0
  195.4030  176.1790  144.3770 C   0  0  0  0  0  2  0  0  0  0  0  0
  195.6620  174.6030  146.1430 O   0  0  0  0  0  0  0  0  0  0  0  0
  197.0070  174.2820  142.8190 N   0  0  0  0  0  1  0  0  0  0  0  0
  196.7030  174.0060  144.1570 N   0  0  0  0  0  2  0  0  0  0  0  0
  195.9160  174.8980  144.9450 C   0  0  0  0  0  0  0  0  0  0  0  0
  191.4330  175.2740  145.0300 C   0  0  0  0  0  2  0  0  0  0  0  0
  191.9400  174.9270  147.3350 O   0  0  0  0  0  1  0  0  0  0  0  0
  190.9220  175.3100  146.4610 C   0  0  2  0  0  3  0  0  0  0  0  0
  188.9690  174.5480  147.5870 O   0  0  0  0  0  1  0  0  0  0  0  0
  189.7570  174.3950  146.6160 C   0  0  0  0  0  0  0  0  0  0  0  0
  189.5490  173.3540  145.7160 O   0  0  0  0  0  0  0  0  0  0  0  0
  186.5970  178.6210  146.7660 C   0  0  0  0  0  0  0  0  0  0  0  0
  186.8470  178.5830  147.8950 N   0  0  0  0  0  0  0  0  0  0  0  0
  188.1080  176.3490  141.7050 C   0  0  0  0  0  2  0  0  0  0  0  0
  187.5300  175.2060  142.5290 C   0  0  0  0  0  2  0  0  0  0  0  0
  188.3300  174.0330  142.4020 O   0  0  0  0  0  0  0  0  0  0  0  0
  190.3210  173.9010  140.8900 C   0  0  0  0  0  0  0  0  0  0  0  0
  188.3280  173.0670  140.2410 N   0  0  0  0  0  0  0  0  0  0  0  0
  191.1540  174.4600  141.6480 O   0  0  0  0  0  0  0  0  0  0  0  0
  189.2350  172.8260  139.1170 C   0  0  0  0  0  3  0  0  0  0  0  0
  190.6070  173.3740  139.5390 C   0  0  0  0  0  3  0  0  0  0  0  0
  188.9410  173.6640  141.2020 C   0  0  0  0  0  0  0  0  0  0  0  0
  1 28  1  1  0  0  0
  3  8  1  0  0  0  0
  4  6  2  0  0  0  0
  5 30  1  6  0  0  0
  5  4  1  0  0  0  0
  5  7  1  0  0  0  0
  6  2  1  0  0  0  0
  6  1  1  0  0  0  0
  7 12  1  1  0  0  0
  7  2  1  0  0  0  0
  8  1  1  0  0  0  0
  8 11  2  0  0  0  0
  9  3  2  0  0  0  0
 10  9  1  0  0  0  0
 10  4  1  0  0  0  0
 12 13  1  0  0  0  0
 13 22  1  0  0  0  0
 14 12  2  0  0  0  0
 15 13  1  0  0  0  0
 16 17  1  0  0  0  0
 16 15  1  0  0  0  0
 17 21  1  0  0  0  0
 19 20  1  0  0  0  0
 20 21  1  0  0  0  0
 21 18  2  0  0  0  0
 22 24  1  0  0  0  0
 24 26  1  0  0  0  0
 24 23  1  1  0  0  0
 26 25  1  0  0  0  0
 27 26  2  0  0  0  0
 28 29  3  0  0  0  0
 30 31  1  0  0  0  0
 32 31  1  0  0  0  0
 33 38  1  0  0  0  0
 33 35  2  0  0  0  0
 34 38  2  0  0  0  0
 36 37  2  0  0  0  0
 36 34  1  0  0  0  0
 37 33  1  0  0  0  0
 38 32  1  0  0  0  0
M  END
>  <MODEL>
7

>  <REMARK>
 VINA RESULT:      -6.1      2.177      8.234
  Name = 
  13 active torsions:
  status: ('A' for Active; 'I' for Inactive)
    1  A    between atoms: C_1  and  C_26
    2  A    between atoms: N_2  and  C_6
    3  A    between atoms: N_2  and  C_12
    4  A    between atoms: C_5  and  C_7
    5  A    between atoms: C_6  and  C_30
    6  A    between atoms: C_12  and  C_36
    7  A    between atoms: C_16  and  C_22
    8  A    between atoms: C_18  and  C_24
    9  A    between atoms: C_18  and  C_30
   10  A    between atoms: C_20  and  C_22
   11  A    between atoms: C_20  and  O_32
   12  A    between atoms: C_23  and  C_36
   13  A    between atoms: C_27  and  O_32
                            x       y       z     vdW  Elec       q    Type
                         _______ _______ _______ _____ _____    ______ ____

>  <TORSDO>
F 13

$$$$
=
 OpenBabel11042417083D

 38 40  0  0  1  0  0  0  0  0999 V2000
  186.1350  179.0250  145.9070 C   0  0  1  0  0  3  0  0  0  0  0  0
  188.0700  177.3770  145.4120 N   0  0  0  0  0  2  0  0  0  0  0  0
  184.0020  178.4450  144.4830 C   0  0  0  0  0  3  0  0  0  0  0  0
  186.9230  178.2870  143.6820 C   0  0  0  0  0  0  0  0  0  0  0  0
  187.9100  177.3830  143.0270 C   0  0  1  0  0  3  0  0  0  0  0  0
  187.0400  178.2540  144.9900 C   0  0  0  0  0  0  0  0  0  0  0  0
  188.6710  176.7880  144.2220 C   0  0  1  0  0  3  0  0  0  0  0  0
  184.6990  178.5520  145.7840 C   0  0  0  0  0  0  0  0  0  0  0  0
  184.5130  178.6760  143.2660 C   0  0  0  0  0  3  0  0  0  0  0  0
  185.9130  179.1330  142.9740 C   0  0  0  0  0  2  0  0  0  0  0  0
  184.0480  178.2440  146.8200 O   0  0  0  0  0  0  0  0  0  0  0  0
  190.1300  177.1320  144.1390 C   0  0  0  0  0  0  0  0  0  0  0  0
  191.0520  176.6440  145.1310 N   0  0  0  0  0  0  0  0  0  0  0  0
  190.5520  177.8120  143.1620 O   0  0  0  0  0  0  0  0  0  0  0  0
  192.4870  176.8350  144.9710 C   0  0  0  0  0  2  0  0  0  0  0  0
  193.1070  175.6200  144.3080 C   0  0  0  0  0  2  0  0  0  0  0  0
  193.6310  176.0080  142.9410 C   0  0  0  0  0  2  0  0  0  0  0  0
  194.6210  174.0540  142.0090 O   0  0  0  0  0  0  0  0  0  0  0  0
  196.3940  176.7880  143.5380 N   0  0  0  0  0  1  0  0  0  0  0  0
  196.1340  175.5670  142.9040 N   0  0  0  0  0  2  0  0  0  0  0  0
  194.8050  175.1580  142.5860 C   0  0  0  0  0  0  0  0  0  0  0  0
  190.5960  175.8030  146.2290 C   0  0  0  0  0  2  0  0  0  0  0  0
  191.4070  174.9100  148.2870 O   0  0  0  0  0  1  0  0  0  0  0  0
  191.4520  176.0350  147.4630 C   0  0  2  0  0  3  0  0  0  0  0  0
  190.0200  177.9150  147.7440 O   0  0  0  0  0  0  0  0  0  0  0  0
  190.9650  177.2270  148.2130 C   0  0  0  0  0  0  0  0  0  0  0  0
  191.5660  177.6050  149.4100 O   0  0  0  0  0  1  0  0  0  0  0  0
  186.6270  179.0170  147.2980 C   0  0  0  0  0  0  0  0  0  0  0  0
  187.0120  179.0100  148.3900 N   0  0  0  0  0  0  0  0  0  0  0  0
  187.1820  176.2760  142.2760 C   0  0  0  0  0  2  0  0  0  0  0  0
  187.6720  176.1820  140.8360 C   0  0  0  0  0  2  0  0  0  0  0  0
  188.1900  174.8840  140.5590 O   0  0  0  0  0  0  0  0  0  0  0  0
  188.4050  172.9850  142.1760 C   0  0  0  0  0  0  0  0  0  0  0  0
  190.1140  174.4230  141.8590 N   0  0  0  0  0  0  0  0  0  0  0  0
  187.2630  172.4840  142.0120 O   0  0  0  0  0  0  0  0  0  0  0  0
  190.5890  173.4700  142.8640 C   0  0  0  0  0  3  0  0  0  0  0  0
  189.4460  172.4680  143.0900 C   0  0  0  0  0  3  0  0  0  0  0  0
  188.9100  174.1430  141.4980 C   0  0  0  0  0  0  0  0  0  0  0  0
  1 28  1  1  0  0  0
  3  8  1  0  0  0  0
  4  6  2  0  0  0  0
  5 30  1  1  0  0  0
  5  4  1  0  0  0  0
  5  7  1  0  0  0  0
  6  2  1  0  0  0  0
  6  1  1  0  0  0  0
  7 12  1  6  0  0  0
  7  2  1  0  0  0  0
  8  1  1  0  0  0  0
  8 11  2  0  0  0  0
  9  3  2  0  0  0  0
 10  9  1  0  0  0  0
 10  4  1  0  0  0  0
 12 13  1  0  0  0  0
 13 22  1  0  0  0  0
 14 12  2  0  0  0  0
 15 13  1  0  0  0  0
 16 15  1  0  0  0  0
 17 16  1  0  0  0  0
 18 21  2  0  0  0  0
 20 19  1  0  0  0  0
 21 20  1  0  0  0  0
 21 17  1  0  0  0  0
 22 24  1  0  0  0  0
 24 26  1  0  0  0  0
 24 23  1  1  0  0  0
 25 26  2  0  0  0  0
 26 27  1  0  0  0  0
 28 29  3  0  0  0  0
 31 30  1  0  0  0  0
 32 31  1  0  0  0  0
 32 38  1  0  0  0  0
 33 37  1  0  0  0  0
 34 36  1  0  0  0  0
 35 33  2  0  0  0  0
 36 37  2  0  0  0  0
 38 34  2  0  0  0  0
 38 33  1  0  0  0  0
M  END
>  <MODEL>
8

>  <REMARK>
 VINA RESULT:      -6.0      2.019      8.253
  Name = 
  13 active torsions:
  status: ('A' for Active; 'I' for Inactive)
    1  A    between atoms: C_1  and  C_26
    2  A    between atoms: N_2  and  C_6
    3  A    between atoms: N_2  and  C_12
    4  A    between atoms: C_5  and  C_7
    5  A    between atoms: C_6  and  C_30
    6  A    between atoms: C_12  and  C_36
    7  A    between atoms: C_16  and  C_22
    8  A    between atoms: C_18  and  C_24
    9  A    between atoms: C_18  and  C_30
   10  A    between atoms: C_20  and  C_22
   11  A    between atoms: C_20  and  O_32
   12  A    between atoms: C_23  and  C_36
   13  A    between atoms: C_27  and  O_32
                            x       y       z     vdW  Elec       q    Type
                         _______ _______ _______ _____ _____    ______ ____

>  <TORSDO>
F 13

$$$$
=
 OpenBabel11042417083D

 38 40  0  0  1  0  0  0  0  0999 V2000
  184.9790  177.9100  143.9420 C   0  0  1  0  0  3  0  0  0  0  0  0
  187.0370  176.9150  142.7250 N   0  0  0  0  0  0  0  0  0  0  0  0
  185.6960  179.2450  146.0910 C   0  0  0  0  0  3  0  0  0  0  0  0
  186.8590  176.6760  144.9720 C   0  0  2  0  0  3  0  0  0  0  0  0
  188.1580  176.0270  144.6400 C   0  0  1  0  0  3  0  0  0  0  0  0
  186.2750  177.1540  143.8970 C   0  0  0  0  0  0  0  0  0  0  0  0
  188.2460  176.2000  143.1160 C   0  0  1  0  0  3  0  0  0  0  0  0
  185.1250  179.2000  144.7260 C   0  0  0  0  0  0  0  0  0  0  0  0
  186.2050  178.2230  146.7930 C   0  0  0  0  0  3  0  0  0  0  0  0
  186.2670  176.7930  146.3400 C   0  0  0  0  0  2  0  0  0  0  0  0
  184.7390  180.2890  144.2210 O   0  0  0  0  0  0  0  0  0  0  0  0
  188.3150  174.8630  142.4390 C   0  0  0  0  0  0  0  0  0  0  0  0
  189.5860  174.2310  142.2010 N   0  0  0  0  0  0  0  0  0  0  0  0
  187.2450  174.2720  142.1220 O   0  0  0  0  0  0  0  0  0  0  0  0
  189.6570  172.8670  141.6940 C   0  0  0  0  0  2  0  0  0  0  0  0
  189.7610  172.8760  140.1810 C   0  0  0  0  0  2  0  0  0  0  0  0
  190.1710  171.4990  139.6990 C   0  0  0  0  0  2  0  0  0  0  0  0
  192.5110  171.9360  139.7490 O   0  0  0  0  0  0  0  0  0  0  0  0
  190.8350  169.2410  141.4490 N   0  0  0  0  0  1  0  0  0  0  0  0
  191.8490  170.0860  140.9810 N   0  0  0  0  0  2  0  0  0  0  0  0
  191.5650  171.2010  140.1380 C   0  0  0  0  0  0  0  0  0  0  0  0
  190.8290  174.8660  142.6190 C   0  0  0  0  0  2  0  0  0  0  0  0
  192.0120  173.5900  144.2510 O   0  0  0  0  0  1  0  0  0  0  0  0
  191.8970  173.8170  142.8790 C   0  0  2  0  0  3  0  0  0  0  0  0
  194.2470  173.5980  142.5700 O   0  0  0  0  0  1  0  0  0  0  0  0
  193.2080  174.2690  142.3340 C   0  0  0  0  0  0  0  0  0  0  0  0
  193.2990  175.4450  141.5930 O   0  0  0  0  0  0  0  0  0  0  0  0
  184.4170  178.1160  142.5930 C   0  0  0  0  0  0  0  0  0  0  0  0
  183.9750  178.2780  141.5360 N   0  0  0  0  0  0  0  0  0  0  0  0
  189.3010  176.7770  145.3130 C   0  0  0  0  0  2  0  0  0  0  0  0
  190.1400  175.8360  146.1690 C   0  0  0  0  0  2  0  0  0  0  0  0
  191.2600  176.5190  146.7260 O   0  0  0  0  0  0  0  0  0  0  0  0
  193.0550  176.8610  145.0150 C   0  0  0  0  0  0  0  0  0  0  0  0
  193.4670  175.6780  146.8910 N   0  0  0  0  0  0  0  0  0  0  0  0
  192.3910  177.5480  144.1980 O   0  0  0  0  0  0  0  0  0  0  0  0
  194.7210  175.6580  146.1360 C   0  0  0  0  0  3  0  0  0  0  0  0
  194.4720  176.4710  144.8550 C   0  0  0  0  0  3  0  0  0  0  0  0
  192.5630  176.3380  146.2560 C   0  0  0  0  0  0  0  0  0  0  0  0
  1 28  1  6  0  0  0
  1  8  1  0  0  0  0
  2  7  1  0  0  0  0
  2  6  2  0  0  0  0
  3  9  2  0  0  0  0
  4 10  1  1  0  0  0
  5  4  1  0  0  0  0
  5 30  1  1  0  0  0
  6  1  1  0  0  0  0
  6  4  1  0  0  0  0
  7 12  1  6  0  0  0
  7  5  1  0  0  0  0
  8  3  1  0  0  0  0
 10  9  1  0  0  0  0
 11  8  2  0  0  0  0
 13 12  1  0  0  0  0
 13 22  1  0  0  0  0
 14 12  2  0  0  0  0
 15 13  1  0  0  0  0
 16 15  1  0  0  0  0
 17 21  1  0  0  0  0
 17 16  1  0  0  0  0
 18 21  2  0  0  0  0
 20 19  1  0  0  0  0
 21 20  1  0  0  0  0
 22 24  1  0  0  0  0
 24 23  1  1  0  0  0
 26 25  1  0  0  0  0
 26 24  1  0  0  0  0
 27 26  2  0  0  0  0
 29 28  3  0  0  0  0
 30 31  1  0  0  0  0
 31 32  1  0  0  0  0
 33 38  1  0  0  0  0
 35 33  2  0  0  0  0
 36 34  1  0  0  0  0
 37 33  1  0  0  0  0
 37 36  2  0  0  0  0
 38 32  1  0  0  0  0
 38 34  2  0  0  0  0
M  END
>  <MODEL>
9

>  <REMARK>
 VINA RESULT:      -6.0      2.520      7.506
  Name = 
  13 active torsions:
  status: ('A' for Active; 'I' for Inactive)
    1  A    between atoms: C_1  and  C_26
    2  A    between atoms: N_2  and  C_6
    3  A    between atoms: N_2  and  C_12
    4  A    between atoms: C_5  and  C_7
    5  A    between atoms: C_6  and  C_30
    6  A    between atoms: C_12  and  C_36
    7  A    between atoms: C_16  and  C_22
    8  A    between atoms: C_18  and  C_24
    9  A    between atoms: C_18  and  C_30
   10  A    between atoms: C_20  and  C_22
   11  A    between atoms: C_20  and  O_32
   12  A    between atoms: C_23  and  C_36
   13  A    between atoms: C_27  and  O_32
                            x       y       z     vdW  Elec       q    Type
                         _______ _______ _______ _____ _____    ______ ____

>  <TORSDO>
F 13

$$$$
