=
 OpenBabel11042419143D

 46 50  0  0  1  0  0  0  0  0999 V2000
  188.3260  175.2430  140.7310 O   0  0  0  0  0  0  0  0  0  0  0  0
  191.6250  172.5510  142.2670 C   0  0  0  0  0  0  0  0  0  0  0  0
  192.9920  172.8360  142.3020 C   0  0  0  0  0  3  0  0  0  0  0  0
  193.5580  173.5040  143.3830 C   0  0  0  0  0  0  0  0  0  0  0  0
  188.6410  174.1080  141.1800 C   0  0  0  0  0  0  0  0  0  0  0  0
  194.9310  173.7480  143.3650 C   0  0  0  0  0  3  0  0  0  0  0  0
  192.4180  170.6310  137.8680 C   0  0  0  0  0  0  0  0  0  0  0  0
  191.3540  173.6840  144.4170 C   0  0  0  0  0  0  0  0  0  0  0  0
  190.8020  172.9840  143.3220 C   0  0  0  0  0  0  0  0  0  0  0  0
  192.1470  171.0170  136.4540 C   0  0  0  0  0  1  0  0  0  0  0  0
  188.2060  173.1450  138.9170 C   0  0  0  0  0  1  0  0  0  0  0  0
  188.9680  172.9850  140.2300 C   0  0  1  0  0  3  0  0  0  0  0  0
  190.8460  172.3440  138.7190 N   0  0  0  0  0  2  0  0  0  0  0  0
  188.6910  173.9220  142.5990 N   0  0  0  0  0  2  0  0  0  0  0  0
  191.0200  171.8520  141.0790 C   0  0  2  0  0  3  0  0  0  0  0  0
  191.7590  171.3050  138.9440 N   0  0  0  0  0  0  0  0  0  0  0  0
  195.5440  174.4000  144.4310 C   0  0  0  0  0  3  0  0  0  0  0  0
  189.3150  172.7760  143.2430 C   0  0  0  0  0  2  0  0  0  0  0  0
  192.7560  173.9270  144.4770 C   0  0  0  0  0  0  0  0  0  0  0  0
  194.7840  174.8040  145.5250 C   0  0  0  0  0  3  0  0  0  0  0  0
  193.2370  169.7040  138.1020 O   0  0  0  0  0  0  0  0  0  0  0  0
  193.4040  174.5800  145.5670 C   0  0  0  0  0  0  0  0  0  0  0  0
  191.9830  170.9620  140.3300 C   0  0  0  0  0  2  0  0  0  0  0  0
  190.4870  172.8440  140.0490 C   0  0  2  0  0  3  0  0  0  0  0  0
  192.7090  174.9920  146.8230 C   0  0  0  0  0  2  0  0  0  0  0  0
  192.8310  176.3690  147.0000 O   0  0  0  0  0  1  0  0  0  0  0  0
  190.4620  174.1970  145.4160 N   0  0  0  0  0  2  0  0  0  0  0  0
  189.7680  175.4400  145.2690 C   0  0  0  0  0  0  0  0  0  0  0  0
  189.7120  177.7060  144.4150 C   0  0  0  0  0  3  0  0  0  0  0  0
  187.8090  176.8410  145.6600 C   0  0  0  0  0  0  0  0  0  0  0  0
  188.4360  177.8830  144.9570 C   0  0  0  0  0  3  0  0  0  0  0  0
  188.4860  175.6220  145.8080 C   0  0  0  0  0  3  0  0  0  0  0  0
  190.3760  176.4860  144.5710 C   0  0  0  0  0  3  0  0  0  0  0  0
  186.4880  177.0080  146.2150 N   0  0  0  0  0  0  0  0  0  0  0  0
  185.3010  176.9300  145.3710 C   0  0  0  0  0  2  0  0  0  0  0  0
  185.4100  177.9240  144.2280 C   0  0  0  0  0  2  0  0  0  0  0  0
  185.3310  177.1980  142.8970 C   0  0  2  0  0  3  0  0  0  0  0  0
  186.0390  176.0110  142.9590 F   0  0  0  0  0  0  0  0  0  0  0  0
  185.8790  178.0620  141.8120 C   0  0  0  0  0  0  0  0  0  0  0  0
  186.9910  178.6370  141.9550 O   0  0  0  0  0  0  0  0  0  0  0  0
  185.1290  178.2590  140.6190 N   0  0  0  0  0  1  0  0  0  0  0  0
  186.3040  177.0540  147.6070 N   0  0  0  0  0  2  0  0  0  0  0  0
  185.6530  178.3180  147.9220 C   0  0  0  0  0  2  0  0  0  0  0  0
  187.7580  179.1260  148.6810 F   0  0  0  0  0  0  0  0  0  0  0  0
  186.0840  180.6160  148.3740 F   0  0  0  0  0  0  0  0  0  0  0  0
  186.6630  179.4520  147.9030 C   0  0  0  0  0  3  0  0  0  0  0  0
  1  5  2  0  0  0  0
  2  3  2  0  0  0  0
  2  9  1  0  0  0  0
  3  4  1  0  0  0  0
  4 19  1  0  0  0  0
  5 14  1  0  0  0  0
  6  4  2  0  0  0  0
  6 17  1  0  0  0  0
  7 21  2  0  0  0  0
  7 16  1  0  0  0  0
  8 19  1  0  0  0  0
  8 27  1  0  0  0  0
  9  8  2  0  0  0  0
 10  7  1  0  0  0  0
 12 11  1  6  0  0  0
 12  5  1  0  0  0  0
 13 16  1  0  0  0  0
 14 18  1  0  0  0  0
 15 23  1  6  0  0  0
 15  2  1  0  0  0  0
 16 23  1  0  0  0  0
 17 20  2  0  0  0  0
 18  9  1  0  0  0  0
 19 22  2  0  0  0  0
 20 22  1  0  0  0  0
 22 25  1  0  0  0  0
 24 13  1  6  0  0  0
 24 12  1  0  0  0  0
 24 15  1  0  0  0  0
 25 26  1  0  0  0  0
 28 27  1  0  0  0  0
 28 32  1  0  0  0  0
 29 33  1  0  0  0  0
 29 31  2  0  0  0  0
 30 32  2  0  0  0  0
 30 34  1  0  0  0  0
 31 30  1  0  0  0  0
 33 28  2  0  0  0  0
 34 42  1  0  0  0  0
 35 34  1  0  0  0  0
 36 35  1  0  0  0  0
 37 38  1  1  0  0  0
 37 36  1  0  0  0  0
 39 40  2  0  0  0  0
 39 37  1  0  0  0  0
 41 39  1  0  0  0  0
 42 43  1  0  0  0  0
 46 43  1  0  0  0  0
 46 45  1  0  0  0  0
 46 44  1  0  0  0  0
M  END
>  <MODEL>
1

>  <REMARK>
 VINA RESULT:      -7.7      0.000      0.000
  Name = 
  11 active torsions:
  status: ('A' for Active; 'I' for Inactive)
    1  A    between atoms: C_1  and  C_9
    2  A    between atoms: C_1  and  C_34
    3  A    between atoms: N_2  and  C_18
    4  A    between atoms: N_2  and  N_19
    5  A    between atoms: N_2  and  C_28
    6  A    between atoms: C_4  and  N_40
    7  A    between atoms: C_6  and  C_43
    8  A    between atoms: C_12  and  N_19
    9  A    between atoms: C_12  and  C_33
   10  A    between atoms: C_18  and  C_34
   11  A    between atoms: C_20  and  N_40
                            x       y       z     vdW  Elec       q    Type
                         _______ _______ _______ _____ _____    ______ ____

>  <TORSDO>
F 11

$$$$
=
 OpenBabel11042419143D

 46 50  0  0  1  0  0  0  0  0999 V2000
  189.6990  172.8660  140.5440 O   0  0  0  0  0  0  0  0  0  0  0  0
  192.0560  172.2240  144.3530 C   0  0  0  0  0  0  0  0  0  0  0  0
  193.2470  172.8550  144.7200 C   0  0  0  0  0  3  0  0  0  0  0  0
  193.2360  174.0760  145.3870 C   0  0  0  0  0  0  0  0  0  0  0  0
  189.8230  172.2080  141.6110 C   0  0  0  0  0  0  0  0  0  0  0  0
  194.4580  174.6510  145.7370 C   0  0  0  0  0  3  0  0  0  0  0  0
  194.8290  168.7780  142.3260 C   0  0  0  0  0  0  0  0  0  0  0  0
  190.7970  174.1030  145.2810 C   0  0  0  0  0  0  0  0  0  0  0  0
  190.8280  172.8530  144.6260 C   0  0  0  0  0  0  0  0  0  0  0  0
  195.2090  168.3700  140.9440 C   0  0  0  0  0  1  0  0  0  0  0  0
  190.4970  170.2240  140.2510 C   0  0  0  0  0  1  0  0  0  0  0  0
  190.5890  170.9100  141.6110 C   0  0  1  0  0  3  0  0  0  0  0  0
  192.9730  170.1830  141.4840 N   0  0  0  0  0  2  0  0  0  0  0  0
  189.2350  172.7250  142.8090 N   0  0  0  0  0  2  0  0  0  0  0  0
  192.0820  170.9160  143.6080 C   0  0  2  0  0  3  0  0  0  0  0  0
  193.7270  169.6650  142.5450 N   0  0  0  0  0  0  0  0  0  0  0  0
  194.4950  175.8640  146.4180 C   0  0  0  0  0  3  0  0  0  0  0  0
  189.5470  172.2330  144.1430 C   0  0  0  0  0  2  0  0  0  0  0  0
  192.0100  174.7210  145.7020 C   0  0  0  0  0  0  0  0  0  0  0  0
  193.3080  176.5040  146.7590 C   0  0  0  0  0  3  0  0  0  0  0  0
  195.4900  168.3320  143.3000 O   0  0  0  0  0  0  0  0  0  0  0  0
  192.0680  175.9560  146.4130 C   0  0  0  0  0  0  0  0  0  0  0  0
  193.3150  170.0830  143.8650 C   0  0  0  0  0  2  0  0  0  0  0  0
  192.0310  171.1250  142.0970 C   0  0  2  0  0  3  0  0  0  0  0  0
  190.8640  176.6960  146.8960 C   0  0  0  0  0  2  0  0  0  0  0  0
  191.0520  177.0890  148.2210 O   0  0  0  0  0  1  0  0  0  0  0  0
  189.5290  174.7550  145.4440 N   0  0  0  0  0  2  0  0  0  0  0  0
  189.0800  175.7990  144.5740 C   0  0  0  0  0  0  0  0  0  0  0  0
  189.2340  176.9520  142.4490 C   0  0  0  0  0  3  0  0  0  0  0  0
  187.6240  177.7020  144.1120 C   0  0  0  0  0  0  0  0  0  0  0  0
  188.2200  177.8280  142.8470 C   0  0  0  0  0  3  0  0  0  0  0  0
  188.0620  176.6800  144.9670 C   0  0  0  0  0  3  0  0  0  0  0  0
  189.6620  175.9390  143.3120 C   0  0  0  0  0  3  0  0  0  0  0  0
  186.5700  178.5940  144.5300 N   0  0  0  0  0  0  0  0  0  0  0  0
  185.5490  179.0450  143.5920 C   0  0  0  0  0  2  0  0  0  0  0  0
  184.6860  177.8730  143.1580 C   0  0  0  0  0  2  0  0  0  0  0  0
  184.5230  177.8760  141.6490 C   0  0  2  0  0  3  0  0  0  0  0  0
  185.3210  178.8560  141.0850 F   0  0  0  0  0  0  0  0  0  0  0  0
  183.0950  178.1140  141.2910 C   0  0  0  0  0  0  0  0  0  0  0  0
  182.3050  178.6230  142.1280 O   0  0  0  0  0  0  0  0  0  0  0  0
  182.6190  177.7400  140.0040 N   0  0  0  0  0  1  0  0  0  0  0  0
  186.3910  178.8920  145.8910 N   0  0  0  0  0  2  0  0  0  0  0  0
  185.0130  178.5670  146.2340 C   0  0  0  0  0  2  0  0  0  0  0  0
  186.0000  177.1000  147.8250 F   0  0  0  0  0  0  0  0  0  0  0  0
  184.9840  176.1960  146.0170 F   0  0  0  0  0  0  0  0  0  0  0  0
  184.9450  177.2250  146.9400 C   0  0  0  0  0  3  0  0  0  0  0  0
  1  5  2  0  0  0  0
  2  9  2  0  0  0  0
  2  3  1  0  0  0  0
  3  4  2  0  0  0  0
  4 19  1  0  0  0  0
  4  6  1  0  0  0  0
  5 12  1  0  0  0  0
  5 14  1  0  0  0  0
  6 17  2  0  0  0  0
  7 16  1  0  0  0  0
  7 21  2  0  0  0  0
  8 27  1  0  0  0  0
  8 19  2  0  0  0  0
  9  8  1  0  0  0  0
 10  7  1  0  0  0  0
 12 11  1  6  0  0  0
 12 24  1  0  0  0  0
 13 16  1  0  0  0  0
 14 18  1  0  0  0  0
 15 23  1  6  0  0  0
 15  2  1  0  0  0  0
 16 23  1  0  0  0  0
 17 20  1  0  0  0  0
 18  9  1  0  0  0  0
 19 22  1  0  0  0  0
 22 20  2  0  0  0  0
 22 25  1  0  0  0  0
 24 13  1  6  0  0  0
 24 15  1  0  0  0  0
 25 26  1  0  0  0  0
 28 32  1  0  0  0  0
 28 27  1  0  0  0  0
 29 31  2  0  0  0  0
 29 33  1  0  0  0  0
 30 34  1  0  0  0  0
 30 32  2  0  0  0  0
 31 30  1  0  0  0  0
 33 28  2  0  0  0  0
 34 42  1  0  0  0  0
 35 34  1  0  0  0  0
 36 35  1  0  0  0  0
 37 38  1  6  0  0  0
 37 36  1  0  0  0  0
 39 37  1  0  0  0  0
 39 40  2  0  0  0  0
 41 39  1  0  0  0  0
 42 43  1  0  0  0  0
 43 46  1  0  0  0  0
 45 46  1  0  0  0  0
 46 44  1  0  0  0  0
M  END
>  <MODEL>
2

>  <REMARK>
 VINA RESULT:      -7.6      2.372      2.964
  Name = 
  11 active torsions:
  status: ('A' for Active; 'I' for Inactive)
    1  A    between atoms: C_1  and  C_9
    2  A    between atoms: C_1  and  C_34
    3  A    between atoms: N_2  and  C_18
    4  A    between atoms: N_2  and  N_19
    5  A    between atoms: N_2  and  C_28
    6  A    between atoms: C_4  and  N_40
    7  A    between atoms: C_6  and  C_43
    8  A    between atoms: C_12  and  N_19
    9  A    between atoms: C_12  and  C_33
   10  A    between atoms: C_18  and  C_34
   11  A    between atoms: C_20  and  N_40
                            x       y       z     vdW  Elec       q    Type
                         _______ _______ _______ _____ _____    ______ ____

>  <TORSDO>
F 11

$$$$
=
 OpenBabel11042419143D

 46 50  0  0  1  0  0  0  0  0999 V2000
  187.7460  174.2760  141.2260 O   0  0  0  0  0  0  0  0  0  0  0  0
  192.0970  173.2110  141.8720 C   0  0  0  0  0  0  0  0  0  0  0  0
  193.1860  174.0840  141.8520 C   0  0  0  0  0  3  0  0  0  0  0  0
  193.5810  174.7660  142.9990 C   0  0  0  0  0  0  0  0  0  0  0  0
  188.5950  173.3610  141.3960 C   0  0  0  0  0  0  0  0  0  0  0  0
  194.6850  175.6150  142.9180 C   0  0  0  0  0  3  0  0  0  0  0  0
  192.8810  172.5610  137.1150 C   0  0  0  0  0  0  0  0  0  0  0  0
  191.7320  173.7520  144.2290 C   0  0  0  0  0  0  0  0  0  0  0  0
  191.3620  173.0510  143.0610 C   0  0  0  0  0  0  0  0  0  0  0  0
  192.2300  172.9870  135.8430 C   0  0  0  0  0  1  0  0  0  0  0  0
  188.2440  172.6600  139.0240 C   0  0  0  0  0  1  0  0  0  0  0  0
  189.2110  172.6730  140.2050 C   0  0  1  0  0  3  0  0  0  0  0  0
  190.8910  173.2060  138.4390 N   0  0  0  0  0  2  0  0  0  0  0  0
  188.9640  173.0070  142.7330 N   0  0  0  0  0  2  0  0  0  0  0  0
  191.6640  172.5000  140.6180 C   0  0  2  0  0  3  0  0  0  0  0  0
  192.1890  172.6840  138.3610 N   0  0  0  0  0  0  0  0  0  0  0  0
  195.1240  176.3060  144.0420 C   0  0  0  0  0  3  0  0  0  0  0  0
  190.1260  172.1950  143.0650 C   0  0  0  0  0  2  0  0  0  0  0  0
  192.8760  174.6010  144.2210 C   0  0  0  0  0  0  0  0  0  0  0  0
  194.4650  176.1450  145.2570 C   0  0  0  0  0  3  0  0  0  0  0  0
  194.0480  172.0920  137.0780 O   0  0  0  0  0  0  0  0  0  0  0  0
  193.3500  175.3060  145.3660 C   0  0  0  0  0  0  0  0  0  0  0  0
  192.7730  172.2780  139.6190 C   0  0  0  0  0  2  0  0  0  0  0  0
  190.5840  173.2770  139.8710 C   0  0  2  0  0  3  0  0  0  0  0  0
  192.7720  175.1560  146.7340 C   0  0  0  0  0  2  0  0  0  0  0  0
  192.4180  176.4080  147.2380 O   0  0  0  0  0  1  0  0  0  0  0  0
  190.8920  173.6390  145.3860 N   0  0  0  0  0  2  0  0  0  0  0  0
  189.8360  174.5630  145.6680 C   0  0  0  0  0  0  0  0  0  0  0  0
  188.3200  175.5690  147.2670 C   0  0  0  0  0  3  0  0  0  0  0  0
  188.2540  176.2710  144.9380 C   0  0  0  0  0  0  0  0  0  0  0  0
  187.7760  176.3650  146.2550 C   0  0  0  0  0  3  0  0  0  0  0  0
  189.2880  175.3660  144.6570 C   0  0  0  0  0  3  0  0  0  0  0  0
  189.3490  174.6700  146.9730 C   0  0  0  0  0  3  0  0  0  0  0  0
  187.7070  177.0940  143.8880 N   0  0  0  0  0  0  0  0  0  0  0  0
  186.3480  176.8900  143.4000 C   0  0  0  0  0  2  0  0  0  0  0  0
  185.6580  178.2290  143.2040 C   0  0  0  0  0  2  0  0  0  0  0  0
  184.4420  178.3270  144.1070 C   0  0  2  0  0  3  0  0  0  0  0  0
  183.6530  179.3990  143.7280 F   0  0  0  0  0  0  0  0  0  0  0  0
  184.8720  178.4870  145.5260 C   0  0  0  0  0  0  0  0  0  0  0  0
  185.6700  179.4050  145.8510 O   0  0  0  0  0  0  0  0  0  0  0  0
  184.3960  177.5810  146.5130 N   0  0  0  0  0  1  0  0  0  0  0  0
  188.4000  178.2340  143.4470 N   0  0  0  0  0  2  0  0  0  0  0  0
  189.5370  177.7790  142.6600 C   0  0  0  0  0  2  0  0  0  0  0  0
  191.8980  177.5300  142.8140 F   0  0  0  0  0  0  0  0  0  0  0  0
  190.7750  178.2490  144.6400 F   0  0  0  0  0  0  0  0  0  0  0  0
  190.8350  178.2920  143.2600 C   0  0  0  0  0  3  0  0  0  0  0  0
  1  5  2  0  0  0  0
  2  9  1  0  0  0  0
  3  2  2  0  0  0  0
  3  4  1  0  0  0  0
  4 19  1  0  0  0  0
  5 14  1  0  0  0  0
  6  4  2  0  0  0  0
  6 17  1  0  0  0  0
  7 16  1  0  0  0  0
  8 27  1  0  0  0  0
  9 18  1  0  0  0  0
  9  8  2  0  0  0  0
 10  7  1  0  0  0  0
 12 11  1  6  0  0  0
 12  5  1  0  0  0  0
 14 18  1  0  0  0  0
 15 23  1  6  0  0  0
 15  2  1  0  0  0  0
 16 13  1  0  0  0  0
 16 23  1  0  0  0  0
 17 20  2  0  0  0  0
 19  8  1  0  0  0  0
 19 22  2  0  0  0  0
 20 22  1  0  0  0  0
 21  7  2  0  0  0  0
 22 25  1  0  0  0  0
 24 13  1  6  0  0  0
 24 12  1  0  0  0  0
 24 15  1  0  0  0  0
 25 26  1  0  0  0  0
 27 28  1  0  0  0  0
 28 33  1  0  0  0  0
 30 31  2  0  0  0  0
 31 29  1  0  0  0  0
 32 30  1  0  0  0  0
 32 28  2  0  0  0  0
 33 29  2  0  0  0  0
 34 30  1  0  0  0  0
 35 34  1  0  0  0  0
 36 35  1  0  0  0  0
 36 37  1  0  0  0  0
 37 38  1  6  0  0  0
 37 39  1  0  0  0  0
 39 40  2  0  0  0  0
 39 41  1  0  0  0  0
 42 34  1  0  0  0  0
 43 46  1  0  0  0  0
 43 42  1  0  0  0  0
 44 46  1  0  0  0  0
 46 45  1  0  0  0  0
M  END
>  <MODEL>
3

>  <REMARK>
 VINA RESULT:      -7.5      2.057      2.883
  Name = 
  11 active torsions:
  status: ('A' for Active; 'I' for Inactive)
    1  A    between atoms: C_1  and  C_9
    2  A    between atoms: C_1  and  C_34
    3  A    between atoms: N_2  and  C_18
    4  A    between atoms: N_2  and  N_19
    5  A    between atoms: N_2  and  C_28
    6  A    between atoms: C_4  and  N_40
    7  A    between atoms: C_6  and  C_43
    8  A    between atoms: C_12  and  N_19
    9  A    between atoms: C_12  and  C_33
   10  A    between atoms: C_18  and  C_34
   11  A    between atoms: C_20  and  N_40
                            x       y       z     vdW  Elec       q    Type
                         _______ _______ _______ _____ _____    ______ ____

>  <TORSDO>
F 11

$$$$
=
 OpenBabel11042419143D

 46 50  0  0  1  0  0  0  0  0999 V2000
  189.7600  173.6910  140.2520 O   0  0  0  0  0  0  0  0  0  0  0  0
  192.0700  172.4400  143.9380 C   0  0  0  0  0  0  0  0  0  0  0  0
  193.3050  172.9350  144.3610 C   0  0  0  0  0  3  0  0  0  0  0  0
  193.3870  174.0680  145.1640 C   0  0  0  0  0  0  0  0  0  0  0  0
  189.8360  172.9060  141.2350 C   0  0  0  0  0  0  0  0  0  0  0  0
  194.6490  174.5060  145.5650 C   0  0  0  0  0  3  0  0  0  0  0  0
  194.5720  169.0550  141.4990 C   0  0  0  0  0  0  0  0  0  0  0  0
  190.9570  174.2880  145.0890 C   0  0  0  0  0  0  0  0  0  0  0  0
  190.8930  173.1240  144.2940 C   0  0  0  0  0  0  0  0  0  0  0  0
  194.9180  168.7810  140.0750 C   0  0  0  0  0  1  0  0  0  0  0  0
  190.3570  171.0480  139.6490 C   0  0  0  0  0  1  0  0  0  0  0  0
  190.5030  171.5640  141.0780 C   0  0  1  0  0  3  0  0  0  0  0  0
  192.8250  170.6810  140.8440 N   0  0  0  0  0  2  0  0  0  0  0  0
  189.2910  173.3250  142.4910 N   0  0  0  0  0  2  0  0  0  0  0  0
  191.9960  171.2290  143.0470 C   0  0  2  0  0  3  0  0  0  0  0  0
  193.5410  169.9900  141.8300 N   0  0  0  0  0  0  0  0  0  0  0  0
  194.7790  175.6260  146.3800 C   0  0  0  0  0  3  0  0  0  0  0  0
  189.5680  172.6590  143.7560 C   0  0  0  0  0  2  0  0  0  0  0  0
  192.2140  174.7610  145.5640 C   0  0  0  0  0  0  0  0  0  0  0  0
  193.6440  176.3100  146.8050 C   0  0  0  0  0  3  0  0  0  0  0  0
  195.2000  168.4520  142.4080 O   0  0  0  0  0  0  0  0  0  0  0  0
  192.3660  175.8990  146.4120 C   0  0  0  0  0  0  0  0  0  0  0  0
  193.1630  170.2820  143.1930 C   0  0  0  0  0  2  0  0  0  0  0  0
  191.9580  171.6140  141.5710 C   0  0  2  0  0  3  0  0  0  0  0  0
  191.2220  176.6650  146.9900 C   0  0  0  0  0  2  0  0  0  0  0  0
  191.3960  176.8090  148.3660 O   0  0  0  0  0  1  0  0  0  0  0  0
  189.7420  175.0100  145.3380 N   0  0  0  0  0  2  0  0  0  0  0  0
  189.2220  175.9850  144.4300 C   0  0  0  0  0  0  0  0  0  0  0  0
  189.6150  177.7040  142.7690 C   0  0  0  0  0  3  0  0  0  0  0  0
  187.3340  177.1410  143.4030 C   0  0  0  0  0  0  0  0  0  0  0  0
  188.2370  177.8990  142.6400 C   0  0  0  0  0  3  0  0  0  0  0  0
  187.8400  176.1840  144.2950 C   0  0  0  0  0  3  0  0  0  0  0  0
  190.1060  176.7480  143.6620 C   0  0  0  0  0  3  0  0  0  0  0  0
  185.9100  177.3260  143.2710 N   0  0  0  0  0  0  0  0  0  0  0  0
  185.1080  177.8200  144.3850 C   0  0  0  0  0  2  0  0  0  0  0  0
  185.8560  178.9200  145.1180 C   0  0  0  0  0  2  0  0  0  0  0  0
  185.6320  178.7970  146.6140 C   0  0  2  0  0  3  0  0  0  0  0  0
  185.9260  179.9950  147.2400 F   0  0  0  0  0  0  0  0  0  0  0  0
  186.4850  177.7080  147.1700 C   0  0  0  0  0  0  0  0  0  0  0  0
  185.9690  176.6250  147.5530 O   0  0  0  0  0  0  0  0  0  0  0  0
  187.8890  177.9050  147.2910 N   0  0  0  0  0  1  0  0  0  0  0  0
  185.2950  177.2220  142.0130 N   0  0  0  0  0  2  0  0  0  0  0  0
  184.1870  178.1670  141.9860 C   0  0  0  0  0  2  0  0  0  0  0  0
  182.4070  178.2360  140.4090 F   0  0  0  0  0  0  0  0  0  0  0  0
  184.4620  177.6350  139.6820 F   0  0  0  0  0  0  0  0  0  0  0  0
  183.7650  178.4480  140.5550 C   0  0  0  0  0  3  0  0  0  0  0  0
  1  5  2  0  0  0  0
  2  9  2  0  0  0  0
  2  3  1  0  0  0  0
  3  4  2  0  0  0  0
  4 19  1  0  0  0  0
  4  6  1  0  0  0  0
  5 14  1  0  0  0  0
  6 17  2  0  0  0  0
  7 16  1  0  0  0  0
  7 21  2  0  0  0  0
  8 27  1  0  0  0  0
  8 19  2  0  0  0  0
  9  8  1  0  0  0  0
 10  7  1  0  0  0  0
 12 11  1  6  0  0  0
 12  5  1  0  0  0  0
 12 24  1  0  0  0  0
 13 16  1  0  0  0  0
 14 18  1  0  0  0  0
 15 23  1  6  0  0  0
 15  2  1  0  0  0  0
 16 23  1  0  0  0  0
 17 20  1  0  0  0  0
 18  9  1  0  0  0  0
 19 22  1  0  0  0  0
 22 20  2  0  0  0  0
 22 25  1  0  0  0  0
 24 13  1  6  0  0  0
 24 15  1  0  0  0  0
 25 26  1  0  0  0  0
 28 27  1  0  0  0  0
 29 33  1  0  0  0  0
 30 32  2  0  0  0  0
 31 29  2  0  0  0  0
 31 30  1  0  0  0  0
 32 28  1  0  0  0  0
 33 28  2  0  0  0  0
 34 30  1  0  0  0  0
 34 35  1  0  0  0  0
 35 36  1  0  0  0  0
 36 37  1  0  0  0  0
 37 39  1  0  0  0  0
 37 38  1  1  0  0  0
 39 41  1  0  0  0  0
 39 40  2  0  0  0  0
 42 34  1  0  0  0  0
 43 42  1  0  0  0  0
 44 46  1  0  0  0  0
 45 46  1  0  0  0  0
 46 43  1  0  0  0  0
M  END
>  <MODEL>
4

>  <REMARK>
 VINA RESULT:      -7.5      2.271      3.909
  Name = 
  11 active torsions:
  status: ('A' for Active; 'I' for Inactive)
    1  A    between atoms: C_1  and  C_9
    2  A    between atoms: C_1  and  C_34
    3  A    between atoms: N_2  and  C_18
    4  A    between atoms: N_2  and  N_19
    5  A    between atoms: N_2  and  C_28
    6  A    between atoms: C_4  and  N_40
    7  A    between atoms: C_6  and  C_43
    8  A    between atoms: C_12  and  N_19
    9  A    between atoms: C_12  and  C_33
   10  A    between atoms: C_18  and  C_34
   11  A    between atoms: C_20  and  N_40
                            x       y       z     vdW  Elec       q    Type
                         _______ _______ _______ _____ _____    ______ ____

>  <TORSDO>
F 11

$$$$
=
 OpenBabel11042419143D

 46 50  0  0  1  0  0  0  0  0999 V2000
  188.3920  173.9410  141.3070 O   0  0  0  0  0  0  0  0  0  0  0  0
  192.3920  173.2730  143.3170 C   0  0  0  0  0  0  0  0  0  0  0  0
  193.4160  174.2080  143.4800 C   0  0  0  0  0  3  0  0  0  0  0  0
  193.4400  175.0630  144.5770 C   0  0  0  0  0  0  0  0  0  0  0  0
  189.1790  173.1170  141.8460 C   0  0  0  0  0  0  0  0  0  0  0  0
  194.4960  175.9680  144.6890 C   0  0  0  0  0  3  0  0  0  0  0  0
  194.5480  172.0470  139.1320 C   0  0  0  0  0  0  0  0  0  0  0  0
  191.3400  174.0980  145.3650 C   0  0  0  0  0  0  0  0  0  0  0  0
  191.3460  173.2240  144.2570 C   0  0  0  0  0  0  0  0  0  0  0  0
  194.2860  172.2530  137.6800 C   0  0  0  0  0  1  0  0  0  0  0  0
  189.5550  172.0820  139.6030 C   0  0  0  0  0  1  0  0  0  0  0  0
  190.1340  172.3200  140.9950 C   0  0  1  0  0  3  0  0  0  0  0  0
  192.2420  172.7250  139.7240 N   0  0  0  0  0  2  0  0  0  0  0  0
  189.1510  172.9720  143.2690 N   0  0  0  0  0  2  0  0  0  0  0  0
  192.3630  172.3720  142.1120 C   0  0  2  0  0  3  0  0  0  0  0  0
  193.5200  172.2880  140.0970 N   0  0  0  0  0  0  0  0  0  0  0  0
  194.5690  176.8320  145.7770 C   0  0  0  0  0  3  0  0  0  0  0  0
  190.1860  172.2930  144.0350 C   0  0  0  0  0  2  0  0  0  0  0  0
  192.4130  175.0160  145.5570 C   0  0  0  0  0  0  0  0  0  0  0  0
  193.5880  176.7900  146.7630 C   0  0  0  0  0  3  0  0  0  0  0  0
  195.6870  171.6580  139.5000 O   0  0  0  0  0  0  0  0  0  0  0  0
  192.5130  175.8990  146.6730 C   0  0  0  0  0  0  0  0  0  0  0  0
  193.7220  172.0950  141.5150 C   0  0  0  0  0  2  0  0  0  0  0  0
  191.5280  172.9670  140.9810 C   0  0  2  0  0  3  0  0  0  0  0  0
  191.5640  175.8940  147.8260 C   0  0  0  0  0  2  0  0  0  0  0  0
  191.1910  177.2020  148.1360 O   0  0  0  0  0  1  0  0  0  0  0  0
  190.2020  174.0840  146.2380 N   0  0  0  0  0  2  0  0  0  0  0  0
  189.1490  175.0500  146.1520 C   0  0  0  0  0  0  0  0  0  0  0  0
  187.3140  176.2310  147.2030 C   0  0  0  0  0  3  0  0  0  0  0  0
  187.8840  176.7090  144.8870 C   0  0  0  0  0  0  0  0  0  0  0  0
  187.0850  176.9370  146.0190 C   0  0  0  0  0  3  0  0  0  0  0  0
  188.9160  175.7630  144.9670 C   0  0  0  0  0  3  0  0  0  0  0  0
  188.3450  175.2890  147.2690 C   0  0  0  0  0  3  0  0  0  0  0  0
  187.6640  177.4390  143.6620 N   0  0  0  0  0  0  0  0  0  0  0  0
  186.8020  178.6140  143.6300 C   0  0  0  0  0  2  0  0  0  0  0  0
  185.3460  178.1900  143.5360 C   0  0  0  0  0  2  0  0  0  0  0  0
  184.9780  177.9050  142.0910 C   0  0  2  0  0  3  0  0  0  0  0  0
  185.8170  178.6010  141.2400 F   0  0  0  0  0  0  0  0  0  0  0  0
  183.5610  178.2930  141.8400 C   0  0  0  0  0  0  0  0  0  0  0  0
  182.8110  178.6220  142.7970 O   0  0  0  0  0  0  0  0  0  0  0  0
  183.0460  178.2670  140.5150 N   0  0  0  0  0  1  0  0  0  0  0  0
  188.4270  177.1510  142.5180 N   0  0  0  0  0  2  0  0  0  0  0  0
  189.4370  178.1920  142.3910 C   0  0  0  0  0  2  0  0  0  0  0  0
  190.8200  178.6870  144.2630 F   0  0  0  0  0  0  0  0  0  0  0  0
  191.7990  177.8910  142.3860 F   0  0  0  0  0  0  0  0  0  0  0  0
  190.6770  177.8270  143.1900 C   0  0  0  0  0  3  0  0  0  0  0  0
  1  5  2  0  0  0  0
  2  3  2  0  0  0  0
  2  9  1  0  0  0  0
  3  4  1  0  0  0  0
  4  6  2  0  0  0  0
  4 19  1  0  0  0  0
  5 14  1  0  0  0  0
  6 17  1  0  0  0  0
  7 21  2  0  0  0  0
  7 16  1  0  0  0  0
  8 19  1  0  0  0  0
  8 27  1  0  0  0  0
  9  8  2  0  0  0  0
 10  7  1  0  0  0  0
 12 11  1  6  0  0  0
 12  5  1  0  0  0  0
 13 16  1  0  0  0  0
 14 18  1  0  0  0  0
 15 23  1  6  0  0  0
 15  2  1  0  0  0  0
 16 23  1  0  0  0  0
 17 20  2  0  0  0  0
 18  9  1  0  0  0  0
 19 22  2  0  0  0  0
 22 20  1  0  0  0  0
 22 25  1  0  0  0  0
 24 13  1  6  0  0  0
 24 12  1  0  0  0  0
 24 15  1  0  0  0  0
 25 26  1  0  0  0  0
 28 27  1  0  0  0  0
 28 33  1  0  0  0  0
 29 33  2  0  0  0  0
 30 32  1  0  0  0  0
 30 31  2  0  0  0  0
 31 29  1  0  0  0  0
 32 28  2  0  0  0  0
 34 30  1  0  0  0  0
 35 34  1  0  0  0  0
 36 35  1  0  0  0  0
 37 38  1  6  0  0  0
 37 36  1  0  0  0  0
 39 37  1  0  0  0  0
 39 40  2  0  0  0  0
 41 39  1  0  0  0  0
 42 34  1  0  0  0  0
 43 42  1  0  0  0  0
 43 46  1  0  0  0  0
 45 46  1  0  0  0  0
 46 44  1  0  0  0  0
M  END
>  <MODEL>
5

>  <REMARK>
 VINA RESULT:      -7.2      2.257      3.025
  Name = 
  11 active torsions:
  status: ('A' for Active; 'I' for Inactive)
    1  A    between atoms: C_1  and  C_9
    2  A    between atoms: C_1  and  C_34
    3  A    between atoms: N_2  and  C_18
    4  A    between atoms: N_2  and  N_19
    5  A    between atoms: N_2  and  C_28
    6  A    between atoms: C_4  and  N_40
    7  A    between atoms: C_6  and  C_43
    8  A    between atoms: C_12  and  N_19
    9  A    between atoms: C_12  and  C_33
   10  A    between atoms: C_18  and  C_34
   11  A    between atoms: C_20  and  N_40
                            x       y       z     vdW  Elec       q    Type
                         _______ _______ _______ _____ _____    ______ ____

>  <TORSDO>
F 11

$$$$
=
 OpenBabel11042419143D

 46 50  0  0  1  0  0  0  0  0999 V2000
  191.8780  176.1670  144.7810 O   0  0  0  0  0  0  0  0  0  0  0  0
  188.4500  174.5030  142.3380 C   0  0  0  0  0  0  0  0  0  0  0  0
  188.2040  174.7210  140.9810 C   0  0  0  0  0  3  0  0  0  0  0  0
  188.7840  173.9140  140.0080 C   0  0  0  0  0  0  0  0  0  0  0  0
  190.8020  175.5100  144.7810 C   0  0  0  0  0  0  0  0  0  0  0  0
  188.4900  174.1750  138.6700 C   0  0  0  0  0  3  0  0  0  0  0  0
  185.6550  178.3920  143.1890 C   0  0  0  0  0  0  0  0  0  0  0  0
  189.9500  172.6630  141.7500 C   0  0  0  0  0  0  0  0  0  0  0  0
  189.3330  173.4770  142.7240 C   0  0  0  0  0  0  0  0  0  0  0  0
  185.8680  179.8070  143.6080 C   0  0  0  0  0  1  0  0  0  0  0  0
  189.7020  177.4030  145.9830 C   0  0  0  0  0  1  0  0  0  0  0  0
  189.4950  176.2050  145.0610 C   0  0  1  0  0  3  0  0  0  0  0  0
  187.9490  177.7630  143.8740 N   0  0  0  0  0  2  0  0  0  0  0  0
  190.8550  174.1080  144.4970 N   0  0  0  0  0  2  0  0  0  0  0  0
  187.8370  175.3990  143.3800 C   0  0  2  0  0  3  0  0  0  0  0  0
  186.6990  177.4250  143.3390 N   0  0  0  0  0  0  0  0  0  0  0  0
  189.0360  173.3850  137.6620 C   0  0  0  0  0  3  0  0  0  0  0  0
  189.6860  173.3020  144.1750 C   0  0  0  0  0  2  0  0  0  0  0  0
  189.6560  172.8520  140.3690 C   0  0  0  0  0  0  0  0  0  0  0  0
  189.8750  172.3240  137.9910 C   0  0  0  0  0  3  0  0  0  0  0  0
  184.5430  178.0590  142.7020 O   0  0  0  0  0  0  0  0  0  0  0  0
  190.1940  172.0440  139.3240 C   0  0  0  0  0  0  0  0  0  0  0  0
  186.5380  176.0410  142.9570 C   0  0  0  0  0  2  0  0  0  0  0  0
  188.7660  176.5520  143.7530 C   0  0  2  0  0  3  0  0  0  0  0  0
  191.0440  170.8390  139.5570 C   0  0  0  0  0  2  0  0  0  0  0  0
  190.3050  169.6840  139.3020 O   0  0  0  0  0  1  0  0  0  0  0  0
  190.9220  171.7010  142.1840 N   0  0  0  0  0  2  0  0  0  0  0  0
  192.3260  171.9740  142.2000 C   0  0  0  0  0  0  0  0  0  0  0  0
  194.5890  171.2290  142.6400 C   0  0  0  0  0  3  0  0  0  0  0  0
  194.2030  173.4840  141.8140 C   0  0  0  0  0  0  0  0  0  0  0  0
  195.0810  172.4740  142.2390 C   0  0  0  0  0  3  0  0  0  0  0  0
  192.8260  173.2210  141.7960 C   0  0  0  0  0  3  0  0  0  0  0  0
  193.2140  170.9800  142.6200 C   0  0  0  0  0  3  0  0  0  0  0  0
  194.7000  174.7700  141.3880 N   0  0  0  0  0  0  0  0  0  0  0  0
  195.8340  175.3990  142.0550 C   0  0  0  0  0  2  0  0  0  0  0  0
  195.3700  176.0960  143.3230 C   0  0  0  0  0  2  0  0  0  0  0  0
  196.0700  175.5010  144.5310 C   0  0  2  0  0  3  0  0  0  0  0  0
  196.8260  174.4060  144.1520 F   0  0  0  0  0  0  0  0  0  0  0  0
  195.0650  175.0960  145.5550 C   0  0  0  0  0  0  0  0  0  0  0  0
  194.7850  175.8650  146.5130 O   0  0  0  0  0  0  0  0  0  0  0  0
  194.4370  173.8230  145.4630 N   0  0  0  0  0  1  0  0  0  0  0  0
  194.2290  175.3540  140.2000 N   0  0  0  0  0  2  0  0  0  0  0  0
  194.7840  174.5950  139.0880 C   0  0  0  0  0  2  0  0  0  0  0  0
  192.4490  174.4600  138.6520 F   0  0  0  0  0  0  0  0  0  0  0  0
  193.6750  172.5630  138.5330 F   0  0  0  0  0  0  0  0  0  0  0  0
  193.6740  173.9250  138.2980 C   0  0  0  0  0  3  0  0  0  0  0  0
  2  9  1  0  0  0  0
  2 15  1  0  0  0  0
  3  2  2  0  0  0  0
  4 19  1  0  0  0  0
  4  3  1  0  0  0  0
  5  1  2  0  0  0  0
  5 12  1  0  0  0  0
  6  4  2  0  0  0  0
  7 16  1  0  0  0  0
  7 10  1  0  0  0  0
  8 27  1  0  0  0  0
  8  9  2  0  0  0  0
  9 18  1  0  0  0  0
 12 11  1  6  0  0  0
 14  5  1  0  0  0  0
 15 23  1  6  0  0  0
 15 24  1  0  0  0  0
 16 13  1  0  0  0  0
 17 20  2  0  0  0  0
 17  6  1  0  0  0  0
 18 14  1  0  0  0  0
 19  8  1  0  0  0  0
 20 22  1  0  0  0  0
 21  7  2  0  0  0  0
 22 25  1  0  0  0  0
 22 19  2  0  0  0  0
 23 16  1  0  0  0  0
 24 13  1  1  0  0  0
 24 12  1  0  0  0  0
 26 25  1  0  0  0  0
 27 28  1  0  0  0  0
 28 33  1  0  0  0  0
 30 31  2  0  0  0  0
 31 29  1  0  0  0  0
 32 30  1  0  0  0  0
 32 28  2  0  0  0  0
 33 29  2  0  0  0  0
 34 30  1  0  0  0  0
 34 35  1  0  0  0  0
 35 36  1  0  0  0  0
 36 37  1  0  0  0  0
 37 38  1  6  0  0  0
 37 39  1  0  0  0  0
 39 40  2  0  0  0  0
 41 39  1  0  0  0  0
 42 34  1  0  0  0  0
 43 42  1  0  0  0  0
 46 45  1  0  0  0  0
 46 44  1  0  0  0  0
 46 43  1  0  0  0  0
M  END
>  <MODEL>
6

>  <REMARK>
 VINA RESULT:      -7.1      3.581      8.800
  Name = 
  11 active torsions:
  status: ('A' for Active; 'I' for Inactive)
    1  A    between atoms: C_1  and  C_9
    2  A    between atoms: C_1  and  C_34
    3  A    between atoms: N_2  and  C_18
    4  A    between atoms: N_2  and  N_19
    5  A    between atoms: N_2  and  C_28
    6  A    between atoms: C_4  and  N_40
    7  A    between atoms: C_6  and  C_43
    8  A    between atoms: C_12  and  N_19
    9  A    between atoms: C_12  and  C_33
   10  A    between atoms: C_18  and  C_34
   11  A    between atoms: C_20  and  N_40
                            x       y       z     vdW  Elec       q    Type
                         _______ _______ _______ _____ _____    ______ ____

>  <TORSDO>
F 11

$$$$
=
 OpenBabel11042419143D

 46 50  0  0  1  0  0  0  0  0999 V2000
  187.6280  174.2070  141.5450 O   0  0  0  0  0  0  0  0  0  0  0  0
  192.0590  173.4620  142.0810 C   0  0  0  0  0  0  0  0  0  0  0  0
  193.0800  174.4150  142.0520 C   0  0  0  0  0  3  0  0  0  0  0  0
  193.4480  175.1070  143.2020 C   0  0  0  0  0  0  0  0  0  0  0  0
  188.5460  173.3560  141.6820 C   0  0  0  0  0  0  0  0  0  0  0  0
  194.4830  176.0380  143.1110 C   0  0  0  0  0  3  0  0  0  0  0  0
  192.7820  172.9450  137.2980 C   0  0  0  0  0  0  0  0  0  0  0  0
  191.7080  173.9380  144.4530 C   0  0  0  0  0  0  0  0  0  0  0  0
  191.3650  173.2290  143.2820 C   0  0  0  0  0  0  0  0  0  0  0  0
  192.0730  173.3390  136.0480 C   0  0  0  0  0  1  0  0  0  0  0  0
  188.1950  172.6660  139.3070 C   0  0  0  0  0  1  0  0  0  0  0  0
  189.1850  172.7340  140.4670 C   0  0  1  0  0  3  0  0  0  0  0  0
  190.7810  173.4180  138.6750 N   0  0  0  0  0  2  0  0  0  0  0  0
  188.9710  173.0110  143.0050 N   0  0  0  0  0  2  0  0  0  0  0  0
  191.6530  172.7390  140.8250 C   0  0  2  0  0  3  0  0  0  0  0  0
  192.1120  172.9960  138.5610 N   0  0  0  0  0  0  0  0  0  0  0  0
  194.8950  176.7430  144.2380 C   0  0  0  0  0  3  0  0  0  0  0  0
  190.1970  172.2830  143.2980 C   0  0  0  0  0  2  0  0  0  0  0  0
  192.7840  174.8710  144.4350 C   0  0  0  0  0  0  0  0  0  0  0  0
  194.2770  176.5140  145.4640 C   0  0  0  0  0  3  0  0  0  0  0  0
  193.9800  172.5650  137.2280 O   0  0  0  0  0  0  0  0  0  0  0  0
  193.2300  175.5930  145.5820 C   0  0  0  0  0  0  0  0  0  0  0  0
  192.7530  172.6160  139.7980 C   0  0  0  0  0  2  0  0  0  0  0  0
  190.5010  173.4450  140.1140 C   0  0  2  0  0  3  0  0  0  0  0  0
  192.6960  175.3790  146.9600 C   0  0  0  0  0  2  0  0  0  0  0  0
  192.1860  176.5770  147.4600 O   0  0  0  0  0  1  0  0  0  0  0  0
  190.9050  173.7450  145.6260 N   0  0  0  0  0  2  0  0  0  0  0  0
  189.8350  174.6250  145.9840 C   0  0  0  0  0  0  0  0  0  0  0  0
  188.2310  175.3940  147.6290 C   0  0  0  0  0  3  0  0  0  0  0  0
  188.2960  176.4360  145.4310 C   0  0  0  0  0  0  0  0  0  0  0  0
  187.7440  176.3370  146.7190 C   0  0  0  0  0  3  0  0  0  0  0  0
  189.3440  175.5750  145.0760 C   0  0  0  0  0  3  0  0  0  0  0  0
  189.2750  174.5410  147.2610 C   0  0  0  0  0  3  0  0  0  0  0  0
  187.8090  177.4110  144.4870 N   0  0  0  0  0  0  0  0  0  0  0  0
  188.2210  177.3770  143.0880 C   0  0  0  0  0  2  0  0  0  0  0  0
  187.3540  178.3160  142.2670 C   0  0  0  0  0  2  0  0  0  0  0  0
  186.5000  177.5230  141.2950 C   0  0  2  0  0  3  0  0  0  0  0  0
  187.0290  177.6080  140.0190 F   0  0  0  0  0  0  0  0  0  0  0  0
  185.1020  178.0410  141.3030 C   0  0  0  0  0  0  0  0  0  0  0  0
  184.3800  177.9100  142.3270 O   0  0  0  0  0  0  0  0  0  0  0  0
  184.5740  178.6630  140.1390 N   0  0  0  0  0  1  0  0  0  0  0  0
  186.7780  178.2950  144.8470 N   0  0  0  0  0  2  0  0  0  0  0  0
  185.6180  177.4920  145.2070 C   0  0  0  0  0  2  0  0  0  0  0  0
  184.1200  179.3390  145.2640 F   0  0  0  0  0  0  0  0  0  0  0  0
  185.2710  178.8340  147.1440 F   0  0  0  0  0  0  0  0  0  0  0  0
  184.6400  178.3130  146.0300 C   0  0  0  0  0  3  0  0  0  0  0  0
  1  5  2  0  0  0  0
  2  9  1  0  0  0  0
  3  2  2  0  0  0  0
  3  4  1  0  0  0  0
  4 19  1  0  0  0  0
  5 14  1  0  0  0  0
  6  4  2  0  0  0  0
  6 17  1  0  0  0  0
  7 16  1  0  0  0  0
  8 27  1  0  0  0  0
  9 18  1  0  0  0  0
  9  8  2  0  0  0  0
 10  7  1  0  0  0  0
 12 11  1  6  0  0  0
 12  5  1  0  0  0  0
 14 18  1  0  0  0  0
 15 23  1  6  0  0  0
 15  2  1  0  0  0  0
 16 13  1  0  0  0  0
 16 23  1  0  0  0  0
 17 20  2  0  0  0  0
 19  8  1  0  0  0  0
 19 22  2  0  0  0  0
 20 22  1  0  0  0  0
 21  7  2  0  0  0  0
 22 25  1  0  0  0  0
 24 13  1  6  0  0  0
 24 12  1  0  0  0  0
 24 15  1  0  0  0  0
 25 26  1  0  0  0  0
 27 28  1  0  0  0  0
 28 33  1  0  0  0  0
 30 31  2  0  0  0  0
 31 29  1  0  0  0  0
 32 30  1  0  0  0  0
 32 28  2  0  0  0  0
 33 29  2  0  0  0  0
 34 42  1  0  0  0  0
 34 30  1  0  0  0  0
 35 34  1  0  0  0  0
 36 35  1  0  0  0  0
 37 38  1  6  0  0  0
 37 39  1  0  0  0  0
 37 36  1  0  0  0  0
 39 40  2  0  0  0  0
 41 39  1  0  0  0  0
 42 43  1  0  0  0  0
 43 46  1  0  0  0  0
 44 46  1  0  0  0  0
 46 45  1  0  0  0  0
M  END
>  <MODEL>
7

>  <REMARK>
 VINA RESULT:      -7.1      1.703      2.128
  Name = 
  11 active torsions:
  status: ('A' for Active; 'I' for Inactive)
    1  A    between atoms: C_1  and  C_9
    2  A    between atoms: C_1  and  C_34
    3  A    between atoms: N_2  and  C_18
    4  A    between atoms: N_2  and  N_19
    5  A    between atoms: N_2  and  C_28
    6  A    between atoms: C_4  and  N_40
    7  A    between atoms: C_6  and  C_43
    8  A    between atoms: C_12  and  N_19
    9  A    between atoms: C_12  and  C_33
   10  A    between atoms: C_18  and  C_34
   11  A    between atoms: C_20  and  N_40
                            x       y       z     vdW  Elec       q    Type
                         _______ _______ _______ _____ _____    ______ ____

>  <TORSDO>
F 11

$$$$
=
 OpenBabel11042419143D

 46 50  0  0  1  0  0  0  0  0999 V2000
  191.5620  176.5150  145.7930 O   0  0  0  0  0  0  0  0  0  0  0  0
  188.5060  174.6050  143.0560 C   0  0  0  0  0  0  0  0  0  0  0  0
  188.3940  174.7740  141.6750 C   0  0  0  0  0  3  0  0  0  0  0  0
  189.1160  173.9760  140.7930 C   0  0  0  0  0  0  0  0  0  0  0  0
  190.5280  175.8010  145.7000 C   0  0  0  0  0  0  0  0  0  0  0  0
  188.9530  174.1860  139.4240 C   0  0  0  0  0  3  0  0  0  0  0  0
  185.4380  178.3560  143.4870 C   0  0  0  0  0  0  0  0  0  0  0  0
  190.1520  172.8350  142.6870 C   0  0  0  0  0  0  0  0  0  0  0  0
  189.3940  173.6390  143.5640 C   0  0  0  0  0  0  0  0  0  0  0  0
  185.5320  179.7900  143.8810 C   0  0  0  0  0  1  0  0  0  0  0  0
  189.2090  177.6610  146.7200 C   0  0  0  0  0  1  0  0  0  0  0  0
  189.1640  176.4300  145.8190 C   0  0  1  0  0  3  0  0  0  0  0  0
  187.6760  177.8700  144.4280 N   0  0  0  0  0  2  0  0  0  0  0  0
  190.6830  174.3970  145.4670 N   0  0  0  0  0  2  0  0  0  0  0  0
  187.7400  175.4930  144.0000 C   0  0  2  0  0  3  0  0  0  0  0  0
  186.5090  177.4520  143.7760 N   0  0  0  0  0  0  0  0  0  0  0  0
  189.6440  173.4020  138.5050 C   0  0  0  0  0  3  0  0  0  0  0  0
  189.5980  173.5210  145.0490 C   0  0  0  0  0  2  0  0  0  0  0  0
  189.9990  172.9730  141.2770 C   0  0  0  0  0  0  0  0  0  0  0  0
  190.4970  172.3980  138.9530 C   0  0  0  0  0  3  0  0  0  0  0  0
  184.4040  177.9500  142.8960 O   0  0  0  0  0  0  0  0  0  0  0  0
  190.6860  172.1700  140.3200 C   0  0  0  0  0  0  0  0  0  0  0  0
  186.4620  176.0520  143.4220 C   0  0  0  0  0  2  0  0  0  0  0  0
  188.5630  176.7030  144.4320 C   0  0  2  0  0  3  0  0  0  0  0  0
  191.5670  171.0180  140.6790 C   0  0  0  0  0  2  0  0  0  0  0  0
  192.8630  171.2560  140.2240 O   0  0  0  0  0  1  0  0  0  0  0  0
  191.1210  171.9390  143.2500 N   0  0  0  0  0  2  0  0  0  0  0  0
  192.4670  172.3340  143.5330 C   0  0  0  0  0  0  0  0  0  0  0  0
  194.6330  171.8170  144.4860 C   0  0  0  0  0  3  0  0  0  0  0  0
  194.2700  173.9740  143.4210 C   0  0  0  0  0  0  0  0  0  0  0  0
  195.1080  173.0720  144.0970 C   0  0  0  0  0  3  0  0  0  0  0  0
  192.9500  173.5910  143.1420 C   0  0  0  0  0  3  0  0  0  0  0  0
  193.3150  171.4490  144.2030 C   0  0  0  0  0  3  0  0  0  0  0  0
  194.7520  175.2680  143.0050 N   0  0  0  0  0  0  0  0  0  0  0  0
  194.2020  175.9360  141.8310 C   0  0  0  0  0  2  0  0  0  0  0  0
  195.1490  175.7820  140.6540 C   0  0  0  0  0  2  0  0  0  0  0  0
  194.5310  174.8800  139.6010 C   0  0  2  0  0  3  0  0  0  0  0  0
  193.2390  174.5410  139.9640 F   0  0  0  0  0  0  0  0  0  0  0  0
  195.3540  173.6470  139.4380 C   0  0  0  0  0  0  0  0  0  0  0  0
  195.1990  172.9060  138.4320 O   0  0  0  0  0  0  0  0  0  0  0  0
  196.3020  173.2950  140.4380 N   0  0  0  0  0  1  0  0  0  0  0  0
  195.6210  176.0010  143.8310 N   0  0  0  0  0  2  0  0  0  0  0  0
  194.8020  176.8450  144.6900 C   0  0  0  0  0  2  0  0  0  0  0  0
  194.1890  175.2790  146.3730 F   0  0  0  0  0  0  0  0  0  0  0  0
  194.5250  177.4310  146.9820 F   0  0  0  0  0  0  0  0  0  0  0  0
  194.9400  176.4160  146.1410 C   0  0  0  0  0  3  0  0  0  0  0  0
  2  9  1  0  0  0  0
  2 15  1  0  0  0  0
  3  2  2  0  0  0  0
  4 19  1  0  0  0  0
  4  3  1  0  0  0  0
  5  1  2  0  0  0  0
  5 12  1  0  0  0  0
  6  4  2  0  0  0  0
  7 16  1  0  0  0  0
  7 10  1  0  0  0  0
  8 27  1  0  0  0  0
  8  9  2  0  0  0  0
  9 18  1  0  0  0  0
 12 11  1  6  0  0  0
 14  5  1  0  0  0  0
 15 23  1  6  0  0  0
 15 24  1  0  0  0  0
 16 13  1  0  0  0  0
 17 20  2  0  0  0  0
 17  6  1  0  0  0  0
 18 14  1  0  0  0  0
 19  8  1  0  0  0  0
 20 22  1  0  0  0  0
 21  7  2  0  0  0  0
 22 25  1  0  0  0  0
 22 19  2  0  0  0  0
 23 16  1  0  0  0  0
 24 13  1  1  0  0  0
 24 12  1  0  0  0  0
 26 25  1  0  0  0  0
 27 28  1  0  0  0  0
 28 33  1  0  0  0  0
 30 31  2  0  0  0  0
 31 29  1  0  0  0  0
 32 30  1  0  0  0  0
 32 28  2  0  0  0  0
 33 29  2  0  0  0  0
 34 30  1  0  0  0  0
 34 42  1  0  0  0  0
 35 34  1  0  0  0  0
 36 35  1  0  0  0  0
 37 38  1  1  0  0  0
 37 36  1  0  0  0  0
 39 37  1  0  0  0  0
 39 41  1  0  0  0  0
 40 39  2  0  0  0  0
 42 43  1  0  0  0  0
 43 46  1  0  0  0  0
 46 44  1  0  0  0  0
 46 45  1  0  0  0  0
M  END
>  <MODEL>
8

>  <REMARK>
 VINA RESULT:      -7.1      3.037      8.034
  Name = 
  11 active torsions:
  status: ('A' for Active; 'I' for Inactive)
    1  A    between atoms: C_1  and  C_9
    2  A    between atoms: C_1  and  C_34
    3  A    between atoms: N_2  and  C_18
    4  A    between atoms: N_2  and  N_19
    5  A    between atoms: N_2  and  C_28
    6  A    between atoms: C_4  and  N_40
    7  A    between atoms: C_6  and  C_43
    8  A    between atoms: C_12  and  N_19
    9  A    between atoms: C_12  and  C_33
   10  A    between atoms: C_18  and  C_34
   11  A    between atoms: C_20  and  N_40
                            x       y       z     vdW  Elec       q    Type
                         _______ _______ _______ _____ _____    ______ ____

>  <TORSDO>
F 11

$$$$
=
 OpenBabel11042419143D

 46 50  0  0  1  0  0  0  0  0999 V2000
  191.8730  176.3470  145.0250 O   0  0  0  0  0  0  0  0  0  0  0  0
  188.5880  174.4760  142.5380 C   0  0  0  0  0  0  0  0  0  0  0  0
  188.3640  174.6560  141.1720 C   0  0  0  0  0  3  0  0  0  0  0  0
  189.0050  173.8590  140.2290 C   0  0  0  0  0  0  0  0  0  0  0  0
  190.8300  175.6400  145.0130 C   0  0  0  0  0  0  0  0  0  0  0  0
  188.7300  174.0790  138.8790 C   0  0  0  0  0  3  0  0  0  0  0  0
  185.5930  178.2440  143.2450 C   0  0  0  0  0  0  0  0  0  0  0  0
  190.1860  172.6980  142.0220 C   0  0  0  0  0  0  0  0  0  0  0  0
  189.5080  173.5010  142.9650 C   0  0  0  0  0  0  0  0  0  0  0  0
  185.7290  179.6750  143.6390 C   0  0  0  0  0  1  0  0  0  0  0  0
  189.6130  177.5020  146.1510 C   0  0  0  0  0  1  0  0  0  0  0  0
  189.4850  176.2770  145.2490 C   0  0  1  0  0  3  0  0  0  0  0  0
  187.8970  177.7370  143.9950 N   0  0  0  0  0  2  0  0  0  0  0  0
  190.9560  174.2370  144.7590 N   0  0  0  0  0  2  0  0  0  0  0  0
  187.9080  175.3620  143.5470 C   0  0  2  0  0  3  0  0  0  0  0  0
  186.6770  177.3300  143.4390 N   0  0  0  0  0  0  0  0  0  0  0  0
  189.3370  173.2970  137.9000 C   0  0  0  0  0  3  0  0  0  0  0  0
  189.8340  173.3710  144.4270 C   0  0  0  0  0  2  0  0  0  0  0  0
  189.9170  172.8470  140.6310 C   0  0  0  0  0  0  0  0  0  0  0  0
  190.2170  172.2840  138.2700 C   0  0  0  0  0  3  0  0  0  0  0  0
  184.5100  177.8490  142.7390 O   0  0  0  0  0  0  0  0  0  0  0  0
  190.5170  172.0450  139.6150 C   0  0  0  0  0  0  0  0  0  0  0  0
  186.5910  175.9330  143.0810 C   0  0  0  0  0  2  0  0  0  0  0  0
  188.7730  176.5640  143.9170 C   0  0  2  0  0  3  0  0  0  0  0  0
  191.4160  170.8860  139.8920 C   0  0  0  0  0  2  0  0  0  0  0  0
  192.6360  171.0670  139.2410 O   0  0  0  0  0  1  0  0  0  0  0  0
  191.1910  171.7920  142.4980 N   0  0  0  0  0  2  0  0  0  0  0  0
  192.5230  172.2100  142.8130 C   0  0  0  0  0  0  0  0  0  0  0  0
  194.4610  172.0780  144.2600 C   0  0  0  0  0  3  0  0  0  0  0  0
  194.5060  173.5430  142.3180 C   0  0  0  0  0  0  0  0  0  0  0  0
  195.1300  173.0030  143.4540 C   0  0  0  0  0  3  0  0  0  0  0  0
  193.2000  173.1360  142.0060 C   0  0  0  0  0  3  0  0  0  0  0  0
  193.1590  171.6820  143.9390 C   0  0  0  0  0  3  0  0  0  0  0  0
  195.1900  174.4910  141.4730 N   0  0  0  0  0  0  0  0  0  0  0  0
  196.1220  174.0460  140.4430 C   0  0  0  0  0  2  0  0  0  0  0  0
  195.3580  173.4650  139.2660 C   0  0  0  0  0  2  0  0  0  0  0  0
  195.2560  174.4910  138.1520 C   0  0  2  0  0  3  0  0  0  0  0  0
  196.0440  175.5910  138.4440 F   0  0  0  0  0  0  0  0  0  0  0  0
  193.8370  174.9140  137.9760 C   0  0  0  0  0  0  0  0  0  0  0  0
  192.9470  174.5000  138.7650 O   0  0  0  0  0  0  0  0  0  0  0  0
  193.4840  175.7680  136.8960 N   0  0  0  0  0  1  0  0  0  0  0  0
  194.8280  175.8480  141.4910 N   0  0  0  0  0  2  0  0  0  0  0  0
  196.0450  176.6240  141.6870 C   0  0  0  0  0  2  0  0  0  0  0  0
  195.4240  176.5930  143.9830 F   0  0  0  0  0  0  0  0  0  0  0  0
  197.3950  177.5480  143.4170 F   0  0  0  0  0  0  0  0  0  0  0  0
  196.5100  176.5260  143.1290 C   0  0  0  0  0  3  0  0  0  0  0  0
  2  9  1  0  0  0  0
  2 15  1  0  0  0  0
  3  2  2  0  0  0  0
  4 19  1  0  0  0  0
  4  3  1  0  0  0  0
  5  1  2  0  0  0  0
  5 12  1  0  0  0  0
  6  4  2  0  0  0  0
  7 16  1  0  0  0  0
  7 10  1  0  0  0  0
  8 27  1  0  0  0  0
  8  9  2  0  0  0  0
  9 18  1  0  0  0  0
 12 11  1  6  0  0  0
 14  5  1  0  0  0  0
 15 23  1  6  0  0  0
 15 24  1  0  0  0  0
 16 13  1  0  0  0  0
 17 20  2  0  0  0  0
 17  6  1  0  0  0  0
 18 14  1  0  0  0  0
 19  8  1  0  0  0  0
 20 22  1  0  0  0  0
 21  7  2  0  0  0  0
 22 25  1  0  0  0  0
 22 19  2  0  0  0  0
 23 16  1  0  0  0  0
 24 13  1  1  0  0  0
 24 12  1  0  0  0  0
 26 25  1  0  0  0  0
 27 28  1  0  0  0  0
 28 33  1  0  0  0  0
 30 31  2  0  0  0  0
 31 29  1  0  0  0  0
 32 30  1  0  0  0  0
 32 28  2  0  0  0  0
 33 29  2  0  0  0  0
 34 42  1  0  0  0  0
 34 30  1  0  0  0  0
 35 34  1  0  0  0  0
 36 35  1  0  0  0  0
 37 38  1  1  0  0  0
 37 36  1  0  0  0  0
 39 37  1  0  0  0  0
 39 40  2  0  0  0  0
 41 39  1  0  0  0  0
 42 43  1  0  0  0  0
 43 46  1  0  0  0  0
 46 45  1  0  0  0  0
 46 44  1  0  0  0  0
M  END
>  <MODEL>
9

>  <REMARK>
 VINA RESULT:      -7.0      3.668      8.432
  Name = 
  11 active torsions:
  status: ('A' for Active; 'I' for Inactive)
    1  A    between atoms: C_1  and  C_9
    2  A    between atoms: C_1  and  C_34
    3  A    between atoms: N_2  and  C_18
    4  A    between atoms: N_2  and  N_19
    5  A    between atoms: N_2  and  C_28
    6  A    between atoms: C_4  and  N_40
    7  A    between atoms: C_6  and  C_43
    8  A    between atoms: C_12  and  N_19
    9  A    between atoms: C_12  and  C_33
   10  A    between atoms: C_18  and  C_34
   11  A    between atoms: C_20  and  N_40
                            x       y       z     vdW  Elec       q    Type
                         _______ _______ _______ _____ _____    ______ ____

>  <TORSDO>
F 11

$$$$
