=
 OpenBabel11042419383D

 61 64  0  0  1  0  0  0  0  0999 V2000
  190.2560  173.1130  141.8290 C   0  0  2  0  0  3  0  0  0  0  0  0
  189.9750  171.9100  140.8950 C   0  0  1  0  0  3  0  0  0  0  0  0
  190.5600  172.0960  139.4830 C   0  0  0  0  0  2  0  0  0  0  0  0
  191.0920  173.5130  139.2760 C   0  0  0  0  0  1  0  0  0  0  0  0
  190.4300  170.5520  141.4930 C   0  0  0  0  0  2  0  0  0  0  0  0
  191.4860  169.8470  140.6520 C   0  0  0  0  0  2  0  0  0  0  0  0
  192.8950  169.8800  141.2520 C   0  0  1  0  0  3  0  0  0  0  0  0
  193.5410  168.5020  141.0890 C   0  0  0  0  0  1  0  0  0  0  0  0
  193.8050  170.9320  140.6140 C   0  0  0  0  0  2  0  0  0  0  0  0
  194.5670  170.3430  139.5310 N   0  0  0  0  0  2  0  0  0  0  0  0
  193.4880  170.0500  137.4230 N   0  0  0  0  0  2  0  0  0  0  0  0
  194.1190  171.0200  138.3210 C   0  0  2  0  0  3  0  0  0  0  0  0
  194.8580  170.5410  137.1460 C   0  0  2  0  0  3  0  0  0  0  0  0
  194.8340  171.5370  135.9920 C   0  0  0  0  0  0  0  0  0  0  0  0
  195.1300  171.0880  134.7230 O   0  0  0  0  0  1  0  0  0  0  0  0
  194.4970  172.8210  136.1950 C   0  0  0  0  0  3  0  0  0  0  0  0
  194.5240  173.9550  135.1980 C   0  0  2  0  0  3  0  0  0  0  0  0
  195.5750  175.3560  135.6000 S   0  0  0  0  0  0  0  0  0  0  0  0
  195.6080  175.4840  137.0940 O   0  0  0  0  0  0  0  0  0  0  0  0
  196.9760  175.0690  135.1160 O   0  0  0  0  0  0  0  0  0  0  0  0
  196.0940  177.7460  134.8270 C   0  0  0  0  0  1  0  0  0  0  0  0
  194.9740  176.8280  134.9110 N   0  0  0  0  0  2  0  0  0  0  0  0
  193.1030  174.3850  134.8300 C   0  0  0  0  0  2  0  0  0  0  0  0
  192.3010  174.7020  136.0810 C   0  0  0  0  0  2  0  0  0  0  0  0
  190.9010  175.1330  135.6850 C   0  0  0  0  0  1  0  0  0  0  0  0
  191.2010  172.7720  142.9990 C   0  0  0  0  0  2  0  0  0  0  0  0
  192.4840  173.5600  142.8390 C   0  0  0  0  0  2  0  0  0  0  0  0
  192.1830  175.0380  142.6800 C   0  0  0  0  0  2  0  0  0  0  0  0
  193.3250  175.6600  141.8890 C   0  0  0  0  0  2  0  0  0  0  0  0
  196.6670  174.2170  145.0840 C   0  0  0  0  0  2  0  0  0  0  0  0
  197.7950  174.1720  144.0330 C   0  0  1  0  0  3  0  0  0  0  0  0
  196.9600  176.2780  142.7990 C   0  0  0  0  0  0  0  0  0  0  0  0
  197.2530  173.9170  142.7600 O   0  0  0  0  0  0  0  0  0  0  0  0
  197.1610  177.3310  143.3830 O   0  0  0  0  0  0  0  0  0  0  0  0
  195.7280  176.1210  141.9620 C   0  0  0  0  0  2  0  0  0  0  0  0
  194.4770  175.9770  142.8250 C   0  0  2  0  0  3  0  0  0  0  0  0
  194.5950  174.8380  143.8430 C   0  0  0  0  0  2  0  0  0  0  0  0
  195.5220  175.2320  144.9730 C   0  0  1  0  0  3  0  0  0  0  0  0
  197.9410  175.1490  142.9020 C   0  0  2  0  0  3  0  0  0  0  0  0
  194.7160  175.2340  146.2710 C   0  0  0  0  0  2  0  0  0  0  0  0
  193.9580  176.5480  146.4640 C   0  0  0  0  0  2  0  0  0  0  0  0
  189.5540  175.2240  146.7590 C   0  0  0  0  0  2  0  0  0  0  0  0
  190.6720  174.6880  145.8800 C   0  0  0  0  0  2  0  0  0  0  0  0
  192.4400  176.3700  146.5360 C   0  0  2  0  0  3  0  0  0  0  0  0
  190.3980  176.8080  148.0410 C   0  0  0  0  0  2  0  0  0  0  0  0
  189.6620  176.6160  146.8680 O   0  0  0  0  0  0  0  0  0  0  0  0
  191.8460  177.1680  147.7100 C   0  0  0  0  0  2  0  0  0  0  0  0
  192.0390  174.8860  146.5180 C   0  0  0  0  0  2  0  0  0  0  0  0
  188.9020  173.6740  142.3090 C   0  0  0  0  0  2  0  0  0  0  0  0
  187.9720  175.2710  140.9080 C   0  0  0  0  0  1  0  0  0  0  0  0
  188.7420  175.1140  142.1390 N   0  0  0  0  0  0  0  0  0  0  0  0
  187.8980  175.5480  143.2550 C   0  0  0  0  0  2  0  0  0  0  0  0
  187.1600  176.8750  143.0510 C   0  0  0  0  0  2  0  0  0  0  0  0
  185.8630  177.0730  143.8380 C   0  0  2  0  0  3  0  0  0  0  0  0
  185.4840  178.5890  141.9150 C   0  0  0  0  0  1  0  0  0  0  0  0
  184.8120  177.6720  142.9160 C   0  0  0  0  0  2  0  0  0  0  0  0
  186.1070  178.0200  144.9190 N   0  0  0  0  0  2  0  0  0  0  0  0
  186.1850  177.2700  146.1690 C   0  0  0  0  0  2  0  0  0  0  0  0
  186.7600  178.6090  148.1970 O   0  0  0  0  0  1  0  0  0  0  0  0
  185.8060  178.1570  147.3080 C   0  0  0  0  0  0  0  0  0  0  0  0
  184.6030  178.5140  147.4350 O   0  0  0  0  0  0  0  0  0  0  0  0
  1 49  1  1  0  0  0
  1 26  1  0  0  0  0
  2  3  1  6  0  0  0
  2  5  1  0  0  0  0
  2  1  1  0  0  0  0
  4  3  1  0  0  0  0
  6  7  1  0  0  0  0
  6  5  1  0  0  0  0
  7  8  1  6  0  0  0
  9  7  1  0  0  0  0
 10  9  1  0  0  0  0
 11 12  1  0  0  0  0
 12 10  1  1  0  0  0
 13 14  1  6  0  0  0
 13 11  1  0  0  0  0
 13 12  1  0  0  0  0
 14 16  2  0  0  0  0
 15 14  1  0  0  0  0
 17 23  1  1  0  0  0
 17 18  1  0  0  0  0
 17 16  1  0  0  0  0
 18 19  2  0  0  0  0
 20 18  2  0  0  0  0
 21 22  1  0  0  0  0
 22 18  1  0  0  0  0
 23 24  1  0  0  0  0
 25 24  1  0  0  0  0
 27 26  1  0  0  0  0
 28 27  1  0  0  0  0
 29 28  1  0  0  0  0
 31 30  1  1  0  0  0
 32 39  1  0  0  0  0
 32 34  2  0  0  0  0
 33 31  1  0  0  0  0
 35 32  1  0  0  0  0
 35 36  1  0  0  0  0
 36 29  1  6  0  0  0
 36 37  1  0  0  0  0
 37 38  1  0  0  0  0
 38 30  1  0  0  0  0
 38 40  1  1  0  0  0
 39 33  1  6  0  0  0
 39 31  1  0  0  0  0
 40 41  1  0  0  0  0
 42 46  1  0  0  0  0
 43 48  1  0  0  0  0
 43 42  1  0  0  0  0
 44 41  1  1  0  0  0
 44 47  1  0  0  0  0
 46 45  1  0  0  0  0
 47 45  1  0  0  0  0
 48 44  1  0  0  0  0
 50 51  1  0  0  0  0
 51 49  1  0  0  0  0
 51 52  1  0  0  0  0
 53 52  1  0  0  0  0
 53 54  1  0  0  0  0
 54 56  1  6  0  0  0
 54 57  1  0  0  0  0
 55 56  1  0  0  0  0
 57 58  1  0  0  0  0
 58 60  1  0  0  0  0
 60 61  2  0  0  0  0
 60 59  1  0  0  0  0
M  END
>  <MODEL>
1

>  <REMARK>
 VINA RESULT:      -4.8      0.000      0.000
  Name = 
  31 active torsions:
  status: ('A' for Active; 'I' for Inactive)
    1  A    between atoms: C_1  and  N_8
    2  A    between atoms: C_1  and  C_21
    3  A    between atoms: C_1  and  C_28
    4  A    between atoms: C_4  and  S_15
    5  A    between atoms: C_4  and  C_46
    6  A    between atoms: C_4  and  C_51
    7  A    between atoms: C_7  and  N_8
    8  A    between atoms: C_7  and  C_42
    9  A    between atoms: C_9  and  C_34
   10  A    between atoms: C_9  and  C_39
   11  A    between atoms: C_10  and  C_53
   12  A    between atoms: C_11  and  C_29
   13  A    between atoms: C_11  and  C_39
   14  A    between atoms: C_14  and  C_36
   15  A    between atoms: C_14  and  C_43
   16  A    between atoms: S_15  and  N_38
   17  A    between atoms: C_19  and  C_45
   18  A    between atoms: C_23  and  N_41
   19  A    between atoms: C_23  and  C_43
   20  A    between atoms: C_25  and  C_58
   21  A    between atoms: C_26  and  C_28
   22  A    between atoms: C_26  and  N_59
   23  A    between atoms: C_32  and  C_55
   24  A    between atoms: C_32  and  N_59
   25  A    between atoms: C_33  and  C_51
   26  A    between atoms: C_34  and  C_55
   27  A    between atoms: C_35  and  N_41
   28  A    between atoms: C_36  and  C_53
   29  A    between atoms: C_47  and  C_49
   30  A    between atoms: C_47  and  C_58
   31  A    between atoms: C_53  and  C_55
                            x       y       z     vdW  Elec       q    Type
                         _______ _______ _______ _____ _____    ______ ____

>  <TORSDO>
F 31

$$$$
=
 OpenBabel11042419383D

 61 64  0  0  1  0  0  0  0  0999 V2000
  188.4840  175.9240  143.9390 C   0  0  2  0  0  3  0  0  0  0  0  0
  189.2100  176.8510  142.9330 C   0  0  1  0  0  3  0  0  0  0  0  0
  188.3530  178.0530  142.4960 C   0  0  0  0  0  2  0  0  0  0  0  0
  187.6780  177.8040  141.1490 C   0  0  0  0  0  1  0  0  0  0  0  0
  190.5980  177.3310  143.4360 C   0  0  0  0  0  2  0  0  0  0  0  0
  191.7020  177.1740  142.3980 C   0  0  0  0  0  2  0  0  0  0  0  0
  192.7480  176.1110  142.7470 C   0  0  1  0  0  3  0  0  0  0  0  0
  192.1480  174.7220  142.5100 C   0  0  0  0  0  1  0  0  0  0  0  0
  194.0390  176.2370  141.9360 C   0  0  0  0  0  2  0  0  0  0  0  0
  195.1730  176.4040  142.8230 N   0  0  0  0  0  2  0  0  0  0  0  0
  197.0950  175.2450  142.0170 N   0  0  0  0  0  2  0  0  0  0  0  0
  195.8730  175.1270  142.8140 C   0  0  2  0  0  3  0  0  0  0  0  0
  195.9070  174.5550  141.4620 C   0  0  2  0  0  3  0  0  0  0  0  0
  196.1260  173.0470  141.4690 C   0  0  0  0  0  0  0  0  0  0  0  0
  196.9100  172.4870  140.4820 O   0  0  0  0  0  1  0  0  0  0  0  0
  195.6000  172.2760  142.4340 C   0  0  0  0  0  3  0  0  0  0  0  0
  195.6270  170.7700  142.5360 C   0  0  2  0  0  3  0  0  0  0  0  0
  194.0340  169.9390  142.6100 S   0  0  0  0  0  0  0  0  0  0  0  0
  193.0880  170.6960  141.7260 O   0  0  0  0  0  0  0  0  0  0  0  0
  194.1880  168.5430  142.0580 O   0  0  0  0  0  0  0  0  0  0  0  0
  193.0050  171.2530  144.5570 C   0  0  0  0  0  1  0  0  0  0  0  0
  193.4050  169.8990  144.2240 N   0  0  0  0  0  2  0  0  0  0  0  0
  196.5650  170.3210  143.6570 C   0  0  0  0  0  2  0  0  0  0  0  0
  196.9070  171.4880  144.5670 C   0  0  0  0  0  2  0  0  0  0  0  0
  196.4710  171.1670  145.9840 C   0  0  0  0  0  1  0  0  0  0  0  0
  187.7990  174.7130  143.2730 C   0  0  0  0  0  2  0  0  0  0  0  0
  188.8510  173.8800  142.5730 C   0  0  0  0  0  2  0  0  0  0  0  0
  188.6850  173.9690  141.0680 C   0  0  0  0  0  2  0  0  0  0  0  0
  189.2950  172.7150  140.4580 C   0  0  0  0  0  2  0  0  0  0  0  0
  192.6640  171.7300  137.1210 C   0  0  0  0  0  2  0  0  0  0  0  0
  191.6470  171.1300  136.1280 C   0  0  1  0  0  3  0  0  0  0  0  0
  189.8170  172.8560  136.6990 C   0  0  0  0  0  0  0  0  0  0  0  0
  190.5510  170.5970  136.8300 O   0  0  0  0  0  0  0  0  0  0  0  0
  190.0110  173.9780  136.2590 O   0  0  0  0  0  0  0  0  0  0  0  0
  189.1240  172.6890  138.0160 C   0  0  0  0  0  2  0  0  0  0  0  0
  190.0310  173.0780  139.1820 C   0  0  2  0  0  3  0  0  0  0  0  0
  191.3640  172.3220  139.1640 C   0  0  0  0  0  2  0  0  0  0  0  0
  192.2650  172.8630  138.0750 C   0  0  1  0  0  3  0  0  0  0  0  0
  190.2520  171.6480  135.9260 C   0  0  2  0  0  3  0  0  0  0  0  0
  193.5180  173.4370  138.7350 C   0  0  0  0  0  2  0  0  0  0  0  0
  193.7270  174.9070  138.3690 C   0  0  0  0  0  2  0  0  0  0  0  0
  197.7440  174.8800  136.1110 C   0  0  0  0  0  2  0  0  0  0  0  0
  197.3860  174.2850  137.4620 C   0  0  0  0  0  2  0  0  0  0  0  0
  195.0210  175.1620  137.5920 C   0  0  2  0  0  3  0  0  0  0  0  0
  195.9170  175.7750  135.2580 C   0  0  0  0  0  2  0  0  0  0  0  0
  197.0890  176.1070  135.9430 O   0  0  0  0  0  0  0  0  0  0  0  0
  194.7230  175.7730  136.2110 C   0  0  0  0  0  2  0  0  0  0  0  0
  195.9140  173.9120  137.5460 C   0  0  0  0  0  2  0  0  0  0  0  0
  187.4970  176.7830  144.7560 C   0  0  0  0  0  2  0  0  0  0  0  0
  186.8540  176.8750  146.9820 C   0  0  0  0  0  1  0  0  0  0  0  0
  187.9700  177.1590  146.0850 N   0  0  0  0  0  0  0  0  0  0  0  0
  189.0480  176.2170  146.3960 C   0  0  0  0  0  2  0  0  0  0  0  0
  190.3630  176.8470  146.8660 C   0  0  0  0  0  2  0  0  0  0  0  0
  191.1730  176.0660  147.9020 C   0  0  2  0  0  3  0  0  0  0  0  0
  190.8000  178.2560  148.9980 C   0  0  0  0  0  1  0  0  0  0  0  0
  191.6910  177.0320  148.9560 C   0  0  0  0  0  2  0  0  0  0  0  0
  192.3240  175.4610  147.2420 N   0  0  0  0  0  2  0  0  0  0  0  0
  192.7920  176.3840  146.2120 C   0  0  0  0  0  2  0  0  0  0  0  0
  194.8940  177.7300  146.1470 O   0  0  0  0  0  0  0  0  0  0  0  0
  194.2780  176.5030  146.2850 C   0  0  0  0  0  0  0  0  0  0  0  0
  194.9670  175.4700  146.5040 O   0  0  0  0  0  1  0  0  0  0  0  0
  1 26  1  6  0  0  0
  1 49  1  0  0  0  0
  2  3  1  1  0  0  0
  2  5  1  0  0  0  0
  2  1  1  0  0  0  0
  4  3  1  0  0  0  0
  6  7  1  0  0  0  0
  6  5  1  0  0  0  0
  7  8  1  6  0  0  0
  9  7  1  0  0  0  0
  9 10  1  0  0  0  0
 11 12  1  0  0  0  0
 12 10  1  6  0  0  0
 13 14  1  1  0  0  0
 13 11  1  0  0  0  0
 13 12  1  0  0  0  0
 14 16  2  0  0  0  0
 15 14  1  0  0  0  0
 17 16  1  1  0  0  0
 17 18  1  0  0  0  0
 17 23  1  0  0  0  0
 18 22  1  0  0  0  0
 19 18  2  0  0  0  0
 20 18  2  0  0  0  0
 22 21  1  0  0  0  0
 23 24  1  0  0  0  0
 24 25  1  0  0  0  0
 27 26  1  0  0  0  0
 28 27  1  0  0  0  0
 29 28  1  0  0  0  0
 30 38  1  0  0  0  0
 31 33  1  0  0  0  0
 31 30  1  1  0  0  0
 32 35  1  0  0  0  0
 34 32  2  0  0  0  0
 35 36  1  0  0  0  0
 36 29  1  1  0  0  0
 37 36  1  0  0  0  0
 38 40  1  1  0  0  0
 38 37  1  0  0  0  0
 39 31  1  0  0  0  0
 39 32  1  1  0  0  0
 39 33  1  0  0  0  0
 41 40  1  0  0  0  0
 42 43  1  0  0  0  0
 43 48  1  0  0  0  0
 44 41  1  6  0  0  0
 45 46  1  0  0  0  0
 45 47  1  0  0  0  0
 46 42  1  0  0  0  0
 47 44  1  0  0  0  0
 48 44  1  0  0  0  0
 49 51  1  0  0  0  0
 51 52  1  0  0  0  0
 51 50  1  0  0  0  0
 52 53  1  0  0  0  0
 54 53  1  6  0  0  0
 54 56  1  0  0  0  0
 56 55  1  0  0  0  0
 57 54  1  0  0  0  0
 58 60  1  0  0  0  0
 58 57  1  0  0  0  0
 59 60  2  0  0  0  0
 60 61  1  0  0  0  0
M  END
>  <MODEL>
2

>  <REMARK>
 VINA RESULT:      -4.6      3.334      8.395
  Name = 
  31 active torsions:
  status: ('A' for Active; 'I' for Inactive)
    1  A    between atoms: C_1  and  N_8
    2  A    between atoms: C_1  and  C_21
    3  A    between atoms: C_1  and  C_28
    4  A    between atoms: C_4  and  S_15
    5  A    between atoms: C_4  and  C_46
    6  A    between atoms: C_4  and  C_51
    7  A    between atoms: C_7  and  N_8
    8  A    between atoms: C_7  and  C_42
    9  A    between atoms: C_9  and  C_34
   10  A    between atoms: C_9  and  C_39
   11  A    between atoms: C_10  and  C_53
   12  A    between atoms: C_11  and  C_29
   13  A    between atoms: C_11  and  C_39
   14  A    between atoms: C_14  and  C_36
   15  A    between atoms: C_14  and  C_43
   16  A    between atoms: S_15  and  N_38
   17  A    between atoms: C_19  and  C_45
   18  A    between atoms: C_23  and  N_41
   19  A    between atoms: C_23  and  C_43
   20  A    between atoms: C_25  and  C_58
   21  A    between atoms: C_26  and  C_28
   22  A    between atoms: C_26  and  N_59
   23  A    between atoms: C_32  and  C_55
   24  A    between atoms: C_32  and  N_59
   25  A    between atoms: C_33  and  C_51
   26  A    between atoms: C_34  and  C_55
   27  A    between atoms: C_35  and  N_41
   28  A    between atoms: C_36  and  C_53
   29  A    between atoms: C_47  and  C_49
   30  A    between atoms: C_47  and  C_58
   31  A    between atoms: C_53  and  C_55
                            x       y       z     vdW  Elec       q    Type
                         _______ _______ _______ _____ _____    ______ ____

>  <TORSDO>
F 31

$$$$
=
 OpenBabel11042419383D

 61 64  0  0  1  0  0  0  0  0999 V2000
  194.1080  171.3310  138.7090 C   0  0  2  0  0  3  0  0  0  0  0  0
  193.2390  172.1860  139.6640 C   0  0  1  0  0  3  0  0  0  0  0  0
  193.1020  173.6490  139.2030 C   0  0  0  0  0  2  0  0  0  0  0  0
  192.9880  174.6050  140.3900 C   0  0  0  0  0  1  0  0  0  0  0  0
  191.8390  171.5720  139.9330 C   0  0  0  0  0  2  0  0  0  0  0  0
  191.6790  171.0360  141.3490 C   0  0  0  0  0  2  0  0  0  0  0  0
  190.2630  171.1700  141.9170 C   0  0  1  0  0  3  0  0  0  0  0  0
  190.3460  171.3350  143.4370 C   0  0  0  0  0  1  0  0  0  0  0  0
  189.4800  172.3480  141.3340 C   0  0  0  0  0  2  0  0  0  0  0  0
  188.2540  172.5530  142.0790 N   0  0  0  0  0  2  0  0  0  0  0  0
  188.7370  174.5590  140.8820 N   0  0  0  0  0  2  0  0  0  0  0  0
  187.9690  173.9780  141.9860 C   0  0  2  0  0  3  0  0  0  0  0  0
  189.1660  174.7750  142.2840 C   0  0  2  0  0  3  0  0  0  0  0  0
  188.8300  176.1960  142.7210 C   0  0  0  0  0  0  0  0  0  0  0  0
  189.8480  177.1220  142.7990 O   0  0  0  0  0  1  0  0  0  0  0  0
  187.5650  176.5550  142.9910 C   0  0  0  0  0  3  0  0  0  0  0  0
  187.0720  177.8750  143.5340 C   0  0  2  0  0  3  0  0  0  0  0  0
  186.1970  177.8240  145.1040 S   0  0  0  0  0  0  0  0  0  0  0  0
  185.6690  176.4320  145.2830 O   0  0  0  0  0  0  0  0  0  0  0  0
  187.1760  178.1090  146.2170 O   0  0  0  0  0  0  0  0  0  0  0  0
  185.3640  180.1910  144.5740 C   0  0  0  0  0  1  0  0  0  0  0  0
  184.8780  178.9470  145.1400 N   0  0  0  0  0  2  0  0  0  0  0  0
  186.2950  178.6430  142.4640 C   0  0  0  0  0  2  0  0  0  0  0  0
  185.4220  177.6980  141.6570 C   0  0  0  0  0  2  0  0  0  0  0  0
  185.4700  178.0930  140.1930 C   0  0  0  0  0  1  0  0  0  0  0  0
  194.8310  170.1670  139.4170 C   0  0  0  0  0  2  0  0  0  0  0  0
  195.4080  170.6700  140.7230 C   0  0  0  0  0  2  0  0  0  0  0  0
  195.9920  169.5210  141.5240 C   0  0  0  0  0  2  0  0  0  0  0  0
  195.9990  169.9340  142.9890 C   0  0  0  0  0  2  0  0  0  0  0  0
  195.1570  173.9420  145.5750 C   0  0  0  0  0  2  0  0  0  0  0  0
  196.6520  174.1890  145.8630 C   0  0  1  0  0  3  0  0  0  0  0  0
  197.4050  173.4220  143.5180 C   0  0  0  0  0  0  0  0  0  0  0  0
  197.3490  172.9680  145.8530 O   0  0  0  0  0  0  0  0  0  0  0  0
  197.1600  174.2060  142.6160 O   0  0  0  0  0  0  0  0  0  0  0  0
  197.3640  171.9490  143.2480 C   0  0  0  0  0  2  0  0  0  0  0  0
  195.9310  171.4460  143.0900 C   0  0  2  0  0  3  0  0  0  0  0  0
  195.0490  171.8080  144.2890 C   0  0  0  0  0  2  0  0  0  0  0  0
  194.7020  173.2820  144.2670 C   0  0  1  0  0  3  0  0  0  0  0  0
  197.7610  173.9200  144.8870 C   0  0  2  0  0  3  0  0  0  0  0  0
  193.1860  173.4120  144.1320 C   0  0  0  0  0  2  0  0  0  0  0  0
  192.7390  174.8750  144.1620 C   0  0  0  0  0  2  0  0  0  0  0  0
  189.3890  174.9500  147.3250 C   0  0  0  0  0  2  0  0  0  0  0  0
  189.4030  174.3220  145.9410 C   0  0  0  0  0  2  0  0  0  0  0  0
  191.6740  175.1640  145.2230 C   0  0  2  0  0  3  0  0  0  0  0  0
  191.3750  175.8370  147.6890 C   0  0  0  0  0  2  0  0  0  0  0  0
  190.0750  176.1720  147.3000 O   0  0  0  0  0  0  0  0  0  0  0  0
  192.3030  175.8000  146.4750 C   0  0  0  0  0  2  0  0  0  0  0  0
  190.8080  173.9280  145.5120 C   0  0  0  0  0  2  0  0  0  0  0  0
  195.0840  172.2720  137.9760 C   0  0  0  0  0  2  0  0  0  0  0  0
  194.5750  171.2080  135.9790 C   0  0  0  0  0  1  0  0  0  0  0  0
  195.6920  171.7080  136.7750 N   0  0  0  0  0  0  0  0  0  0  0  0
  196.2780  172.8460  136.0620 C   0  0  0  0  0  2  0  0  0  0  0  0
  195.5650  174.1880  136.2580 C   0  0  0  0  0  2  0  0  0  0  0  0
  195.7140  175.2200  135.1390 C   0  0  2  0  0  3  0  0  0  0  0  0
  196.2770  177.6320  135.0950 C   0  0  0  0  0  1  0  0  0  0  0  0
  196.7340  176.2660  135.5620 C   0  0  0  0  0  2  0  0  0  0  0  0
  194.4350  175.8910  134.9430 N   0  0  0  0  0  2  0  0  0  0  0  0
  193.4860  175.3470  135.9100 C   0  0  0  0  0  2  0  0  0  0  0  0
  191.8610  177.1220  135.2410 O   0  0  0  0  0  0  0  0  0  0  0  0
  192.1060  175.8030  135.5660 C   0  0  0  0  0  0  0  0  0  0  0  0
  191.1680  174.9620  135.5470 O   0  0  0  0  0  1  0  0  0  0  0  0
  1 49  1  1  0  0  0
  1 26  1  0  0  0  0
  1  2  1  0  0  0  0
  2  3  1  6  0  0  0
  2  5  1  0  0  0  0
  3  4  1  0  0  0  0
  5  6  1  0  0  0  0
  6  7  1  0  0  0  0
  7  8  1  1  0  0  0
  9  7  1  0  0  0  0
  9 10  1  0  0  0  0
 11 12  1  0  0  0  0
 11 13  1  0  0  0  0
 12 10  1  6  0  0  0
 12 13  1  0  0  0  0
 13 14  1  1  0  0  0
 14 15  1  0  0  0  0
 14 16  2  0  0  0  0
 16 17  1  0  0  0  0
 17 23  1  6  0  0  0
 17 18  1  0  0  0  0
 18 22  1  0  0  0  0
 18 19  2  0  0  0  0
 18 20  2  0  0  0  0
 21 22  1  0  0  0  0
 24 23  1  0  0  0  0
 25 24  1  0  0  0  0
 26 27  1  0  0  0  0
 27 28  1  0  0  0  0
 28 29  1  0  0  0  0
 31 30  1  6  0  0  0
 33 31  1  0  0  0  0
 34 32  2  0  0  0  0
 35 32  1  0  0  0  0
 36 29  1  1  0  0  0
 36 35  1  0  0  0  0
 36 37  1  0  0  0  0
 38 40  1  1  0  0  0
 38 37  1  0  0  0  0
 38 30  1  0  0  0  0
 39 32  1  6  0  0  0
 39 33  1  0  0  0  0
 39 31  1  0  0  0  0
 40 41  1  0  0  0  0
 43 42  1  0  0  0  0
 44 41  1  6  0  0  0
 44 48  1  0  0  0  0
 44 47  1  0  0  0  0
 46 42  1  0  0  0  0
 46 45  1  0  0  0  0
 47 45  1  0  0  0  0
 48 43  1  0  0  0  0
 50 51  1  0  0  0  0
 51 49  1  0  0  0  0
 52 53  1  0  0  0  0
 52 51  1  0  0  0  0
 54 56  1  1  0  0  0
 54 53  1  0  0  0  0
 55 56  1  0  0  0  0
 57 54  1  0  0  0  0
 57 58  1  0  0  0  0
 59 60  2  0  0  0  0
 60 58  1  0  0  0  0
 61 60  1  0  0  0  0
M  END
>  <MODEL>
3

>  <REMARK>
 VINA RESULT:      -4.6      2.689      8.425
  Name = 
  31 active torsions:
  status: ('A' for Active; 'I' for Inactive)
    1  A    between atoms: C_1  and  N_8
    2  A    between atoms: C_1  and  C_21
    3  A    between atoms: C_1  and  C_28
    4  A    between atoms: C_4  and  S_15
    5  A    between atoms: C_4  and  C_46
    6  A    between atoms: C_4  and  C_51
    7  A    between atoms: C_7  and  N_8
    8  A    between atoms: C_7  and  C_42
    9  A    between atoms: C_9  and  C_34
   10  A    between atoms: C_9  and  C_39
   11  A    between atoms: C_10  and  C_53
   12  A    between atoms: C_11  and  C_29
   13  A    between atoms: C_11  and  C_39
   14  A    between atoms: C_14  and  C_36
   15  A    between atoms: C_14  and  C_43
   16  A    between atoms: S_15  and  N_38
   17  A    between atoms: C_19  and  C_45
   18  A    between atoms: C_23  and  N_41
   19  A    between atoms: C_23  and  C_43
   20  A    between atoms: C_25  and  C_58
   21  A    between atoms: C_26  and  C_28
   22  A    between atoms: C_26  and  N_59
   23  A    between atoms: C_32  and  C_55
   24  A    between atoms: C_32  and  N_59
   25  A    between atoms: C_33  and  C_51
   26  A    between atoms: C_34  and  C_55
   27  A    between atoms: C_35  and  N_41
   28  A    between atoms: C_36  and  C_53
   29  A    between atoms: C_47  and  C_49
   30  A    between atoms: C_47  and  C_58
   31  A    between atoms: C_53  and  C_55
                            x       y       z     vdW  Elec       q    Type
                         _______ _______ _______ _____ _____    ______ ____

>  <TORSDO>
F 31

$$$$
=
 OpenBabel11042419383D

 61 64  0  0  1  0  0  0  0  0999 V2000
  187.0390  176.0000  142.2130 C   0  0  2  0  0  3  0  0  0  0  0  0
  187.7040  176.3250  143.5740 C   0  0  1  0  0  3  0  0  0  0  0  0
  188.7290  177.4710  143.4840 C   0  0  0  0  0  2  0  0  0  0  0  0
  190.1580  176.9640  143.6760 C   0  0  0  0  0  1  0  0  0  0  0  0
  186.6780  176.6070  144.7050 C   0  0  0  0  0  2  0  0  0  0  0  0
  187.0440  177.8090  145.5640 C   0  0  0  0  0  2  0  0  0  0  0  0
  187.5000  177.4540  146.9820 C   0  0  1  0  0  3  0  0  0  0  0  0
  186.2680  177.2360  147.8650 C   0  0  0  0  0  1  0  0  0  0  0  0
  188.3820  176.2050  147.0450 C   0  0  0  0  0  2  0  0  0  0  0  0
  189.7150  176.5540  147.4930 N   0  0  0  0  0  2  0  0  0  0  0  0
  191.5560  175.1570  148.0840 N   0  0  0  0  0  2  0  0  0  0  0  0
  190.5790  175.4730  147.0400 C   0  0  2  0  0  3  0  0  0  0  0  0
  191.9650  175.9340  146.8910 C   0  0  2  0  0  3  0  0  0  0  0  0
  192.7770  175.0550  145.9470 C   0  0  0  0  0  0  0  0  0  0  0  0
  192.1470  174.0050  145.3140 O   0  0  0  0  0  1  0  0  0  0  0  0
  194.0720  175.3140  145.7030 C   0  0  0  0  0  3  0  0  0  0  0  0
  195.0450  174.4950  144.8890 C   0  0  2  0  0  3  0  0  0  0  0  0
  194.8210  174.5170  143.1060 S   0  0  0  0  0  0  0  0  0  0  0  0
  193.8950  175.6490  142.7790 O   0  0  0  0  0  0  0  0  0  0  0  0
  196.1540  174.7880  142.4510 O   0  0  0  0  0  0  0  0  0  0  0  0
  193.8700  173.2130  141.1130 C   0  0  0  0  0  1  0  0  0  0  0  0
  194.1400  173.0330  142.5260 N   0  0  0  0  0  2  0  0  0  0  0  0
  195.1480  173.0730  145.4420 C   0  0  0  0  0  2  0  0  0  0  0  0
  196.5670  172.7790  145.8970 C   0  0  0  0  0  2  0  0  0  0  0  0
  197.3940  172.3250  144.7090 C   0  0  0  0  0  1  0  0  0  0  0  0
  188.0110  175.3760  141.1910 C   0  0  0  0  0  2  0  0  0  0  0  0
  188.2030  173.9130  141.5270 C   0  0  0  0  0  2  0  0  0  0  0  0
  189.1550  173.2620  140.5410 C   0  0  0  0  0  2  0  0  0  0  0  0
  188.9370  173.9160  139.1840 C   0  0  0  0  0  2  0  0  0  0  0  0
  192.9240  171.9020  137.3110 C   0  0  0  0  0  2  0  0  0  0  0  0
  192.6230  170.5130  137.9110 C   0  0  1  0  0  3  0  0  0  0  0  0
  190.0820  170.7040  137.5120 C   0  0  0  0  0  0  0  0  0  0  0  0
  191.8650  170.6530  139.0870 O   0  0  0  0  0  0  0  0  0  0  0  0
  189.7320  170.5900  136.3490 O   0  0  0  0  0  0  0  0  0  0  0  0
  189.3270  171.6220  138.4240 C   0  0  0  0  0  2  0  0  0  0  0  0
  189.6140  173.0880  138.1080 C   0  0  2  0  0  3  0  0  0  0  0  0
  191.1120  173.4090  138.1260 C   0  0  0  0  0  2  0  0  0  0  0  0
  191.7890  172.8460  136.8940 C   0  0  1  0  0  3  0  0  0  0  0  0
  191.2480  169.9230  138.0390 C   0  0  2  0  0  3  0  0  0  0  0  0
  192.3660  174.0120  136.0940 C   0  0  0  0  0  2  0  0  0  0  0  0
  192.8930  175.1210  137.0080 C   0  0  0  0  0  2  0  0  0  0  0  0
  197.2880  176.0240  135.9610 C   0  0  0  0  0  2  0  0  0  0  0  0
  196.6920  175.4580  137.2390 C   0  0  0  0  0  2  0  0  0  0  0  0
  194.2600  175.6600  136.5830 C   0  0  2  0  0  3  0  0  0  0  0  0
  195.6480  176.3150  134.5160 C   0  0  0  0  0  2  0  0  0  0  0  0
  196.4410  177.0080  135.4360 O   0  0  0  0  0  0  0  0  0  0  0  0
  194.2580  176.0590  135.0970 C   0  0  0  0  0  2  0  0  0  0  0  0
  195.3980  174.7040  136.9750 C   0  0  0  0  0  2  0  0  0  0  0  0
  186.3750  177.2870  141.6860 C   0  0  0  0  0  2  0  0  0  0  0  0
  185.5790  179.1880  142.7500 C   0  0  0  0  0  1  0  0  0  0  0  0
  185.2700  177.7830  142.5010 N   0  0  0  0  0  0  0  0  0  0  0  0
  184.0900  177.7290  141.6340 C   0  0  0  0  0  2  0  0  0  0  0  0
  182.9470  178.6770  142.0110 C   0  0  0  0  0  2  0  0  0  0  0  0
  181.5330  178.2430  141.6240 C   0  0  2  0  0  3  0  0  0  0  0  0
  180.0650  177.8070  139.6770 C   0  0  0  0  0  1  0  0  0  0  0  0
  181.5030  177.9210  140.1380 C   0  0  0  0  0  2  0  0  0  0  0  0
  180.6170  179.3520  141.8630 N   0  0  0  0  0  2  0  0  0  0  0  0
  179.9870  179.1470  143.1640 C   0  0  0  0  0  2  0  0  0  0  0  0
  177.6980  179.4580  142.2180 O   0  0  0  0  0  0  0  0  0  0  0  0
  178.5750  178.7050  142.9710 C   0  0  0  0  0  0  0  0  0  0  0  0
  178.1960  177.6170  143.4830 O   0  0  0  0  0  1  0  0  0  0  0  0
  1 26  1  6  0  0  0
  1  2  1  0  0  0  0
  2  3  1  6  0  0  0
  2  5  1  0  0  0  0
  3  4  1  0  0  0  0
  5  6  1  0  0  0  0
  6  7  1  0  0  0  0
  7  9  1  0  0  0  0
  7  8  1  1  0  0  0
  9 10  1  0  0  0  0
 12 10  1  1  0  0  0
 12 11  1  0  0  0  0
 13 14  1  6  0  0  0
 13 12  1  0  0  0  0
 13 11  1  0  0  0  0
 15 14  1  0  0  0  0
 16 14  2  0  0  0  0
 17 23  1  1  0  0  0
 17 16  1  0  0  0  0
 18 17  1  0  0  0  0
 19 18  2  0  0  0  0
 20 18  2  0  0  0  0
 21 22  1  0  0  0  0
 22 18  1  0  0  0  0
 23 24  1  0  0  0  0
 25 24  1  0  0  0  0
 26 27  1  0  0  0  0
 28 27  1  0  0  0  0
 29 28  1  0  0  0  0
 31 30  1  6  0  0  0
 31 39  1  0  0  0  0
 31 33  1  0  0  0  0
 32 35  1  0  0  0  0
 34 32  2  0  0  0  0
 36 37  1  0  0  0  0
 36 35  1  0  0  0  0
 36 29  1  1  0  0  0
 38 40  1  1  0  0  0
 38 30  1  0  0  0  0
 38 37  1  0  0  0  0
 39 32  1  6  0  0  0
 39 33  1  0  0  0  0
 40 41  1  0  0  0  0
 42 43  1  0  0  0  0
 44 48  1  0  0  0  0
 44 41  1  6  0  0  0
 45 47  1  0  0  0  0
 45 46  1  0  0  0  0
 46 42  1  0  0  0  0
 47 44  1  0  0  0  0
 48 43  1  0  0  0  0
 49  1  1  0  0  0  0
 49 51  1  0  0  0  0
 51 50  1  0  0  0  0
 52 53  1  0  0  0  0
 52 51  1  0  0  0  0
 54 56  1  6  0  0  0
 54 57  1  0  0  0  0
 54 53  1  0  0  0  0
 55 56  1  0  0  0  0
 57 58  1  0  0  0  0
 59 60  2  0  0  0  0
 60 58  1  0  0  0  0
 60 61  1  0  0  0  0
M  END
>  <MODEL>
4

>  <REMARK>
 VINA RESULT:      -4.4      3.325      9.034
  Name = 
  31 active torsions:
  status: ('A' for Active; 'I' for Inactive)
    1  A    between atoms: C_1  and  N_8
    2  A    between atoms: C_1  and  C_21
    3  A    between atoms: C_1  and  C_28
    4  A    between atoms: C_4  and  S_15
    5  A    between atoms: C_4  and  C_46
    6  A    between atoms: C_4  and  C_51
    7  A    between atoms: C_7  and  N_8
    8  A    between atoms: C_7  and  C_42
    9  A    between atoms: C_9  and  C_34
   10  A    between atoms: C_9  and  C_39
   11  A    between atoms: C_10  and  C_53
   12  A    between atoms: C_11  and  C_29
   13  A    between atoms: C_11  and  C_39
   14  A    between atoms: C_14  and  C_36
   15  A    between atoms: C_14  and  C_43
   16  A    between atoms: S_15  and  N_38
   17  A    between atoms: C_19  and  C_45
   18  A    between atoms: C_23  and  N_41
   19  A    between atoms: C_23  and  C_43
   20  A    between atoms: C_25  and  C_58
   21  A    between atoms: C_26  and  C_28
   22  A    between atoms: C_26  and  N_59
   23  A    between atoms: C_32  and  C_55
   24  A    between atoms: C_32  and  N_59
   25  A    between atoms: C_33  and  C_51
   26  A    between atoms: C_34  and  C_55
   27  A    between atoms: C_35  and  N_41
   28  A    between atoms: C_36  and  C_53
   29  A    between atoms: C_47  and  C_49
   30  A    between atoms: C_47  and  C_58
   31  A    between atoms: C_53  and  C_55
                            x       y       z     vdW  Elec       q    Type
                         _______ _______ _______ _____ _____    ______ ____

>  <TORSDO>
F 31

$$$$
=
 OpenBabel11042419383D

 61 64  0  0  1  0  0  0  0  0999 V2000
  192.2460  173.6250  145.5030 C   0  0  2  0  0  3  0  0  0  0  0  0
  193.7730  173.3760  145.5750 C   0  0  1  0  0  3  0  0  0  0  0  0
  194.2030  172.0740  144.8740 C   0  0  0  0  0  2  0  0  0  0  0  0
  194.6930  171.0300  145.8760 C   0  0  0  0  0  1  0  0  0  0  0  0
  194.6130  174.5730  145.0530 C   0  0  0  0  0  2  0  0  0  0  0  0
  196.0810  174.4950  145.4500 C   0  0  0  0  0  2  0  0  0  0  0  0
  197.0590  174.7210  144.2920 C   0  0  1  0  0  3  0  0  0  0  0  0
  197.7350  173.3920  143.9430 C   0  0  0  0  0  1  0  0  0  0  0  0
  196.3950  175.2840  143.0330 C   0  0  0  0  0  2  0  0  0  0  0  0
  197.3730  175.9800  142.2210 N   0  0  0  0  0  2  0  0  0  0  0  0
  195.3520  176.2650  140.9850 N   0  0  0  0  0  2  0  0  0  0  0  0
  196.7970  176.0490  140.8840 C   0  0  2  0  0  3  0  0  0  0  0  0
  195.8840  174.9240  140.6460 C   0  0  2  0  0  3  0  0  0  0  0  0
  195.6800  174.6400  139.1620 C   0  0  0  0  0  0  0  0  0  0  0  0
  194.6550  173.7980  138.7850 O   0  0  0  0  0  1  0  0  0  0  0  0
  196.4540  175.2230  138.2340 C   0  0  0  0  0  3  0  0  0  0  0  0
  196.4620  174.9760  136.7440 C   0  0  2  0  0  3  0  0  0  0  0  0
  195.0550  175.6020  135.8170 S   0  0  0  0  0  0  0  0  0  0  0  0
  195.4830  176.8730  135.1480 O   0  0  0  0  0  0  0  0  0  0  0  0
  194.6910  174.6000  134.7470 O   0  0  0  0  0  0  0  0  0  0  0  0
  192.5260  175.9880  135.9960 C   0  0  0  0  0  1  0  0  0  0  0  0
  193.6990  175.9230  136.8470 N   0  0  0  0  0  2  0  0  0  0  0  0
  196.7450  173.5040  136.4420 C   0  0  0  0  0  2  0  0  0  0  0  0
  197.9370  173.0140  137.2450 C   0  0  0  0  0  2  0  0  0  0  0  0
  197.5190  171.8290  138.0960 C   0  0  0  0  0  1  0  0  0  0  0  0
  191.6370  173.2990  144.1240 C   0  0  0  0  0  2  0  0  0  0  0  0
  191.2460  174.5930  143.4430 C   0  0  0  0  0  2  0  0  0  0  0  0
  192.2960  174.9970  142.4250 C   0  0  0  0  0  2  0  0  0  0  0  0
  192.8630  173.7240  141.8140 C   0  0  0  0  0  2  0  0  0  0  0  0
  191.0440  171.4900  137.9200 C   0  0  0  0  0  2  0  0  0  0  0  0
  191.4650  170.0880  138.4060 C   0  0  1  0  0  3  0  0  0  0  0  0
  190.9240  170.5960  140.8760 C   0  0  0  0  0  0  0  0  0  0  0  0
  192.5970  170.1880  139.2340 O   0  0  0  0  0  0  0  0  0  0  0  0
  189.7350  170.6410  141.1450 O   0  0  0  0  0  0  0  0  0  0  0  0
  191.8800  171.4920  141.6020 C   0  0  0  0  0  2  0  0  0  0  0  0
  191.7480  172.9430  141.1440 C   0  0  2  0  0  3  0  0  0  0  0  0
  191.9000  173.0940  139.6270 C   0  0  0  0  0  2  0  0  0  0  0  0
  190.6610  172.5900  138.9170 C   0  0  1  0  0  3  0  0  0  0  0  0
  191.4370  169.6420  139.8390 C   0  0  2  0  0  3  0  0  0  0  0  0
  190.0340  173.7630  138.1650 C   0  0  0  0  0  2  0  0  0  0  0  0
  188.5310  173.8690  138.4330 C   0  0  0  0  0  2  0  0  0  0  0  0
  186.7030  177.4380  140.7020 C   0  0  0  0  0  2  0  0  0  0  0  0
  186.8100  177.1910  139.2070 C   0  0  0  0  0  2  0  0  0  0  0  0
  188.1550  175.0560  139.3230 C   0  0  2  0  0  3  0  0  0  0  0  0
  187.5410  175.6830  141.7430 C   0  0  0  0  0  2  0  0  0  0  0  0
  187.8620  176.9840  141.3440 O   0  0  0  0  0  0  0  0  0  0  0  0
  188.1930  174.6630  140.8100 C   0  0  0  0  0  2  0  0  0  0  0  0
  186.8360  175.7070  138.8780 C   0  0  0  0  0  2  0  0  0  0  0  0
  191.9770  175.0790  145.9380 C   0  0  0  0  0  2  0  0  0  0  0  0
  191.1890  176.6120  147.4910 C   0  0  0  0  0  1  0  0  0  0  0  0
  191.0660  175.2200  147.0700 N   0  0  0  0  0  0  0  0  0  0  0  0
  189.7220  175.0360  146.5150 C   0  0  0  0  0  2  0  0  0  0  0  0
  188.7890  176.2460  146.6230 C   0  0  0  0  0  2  0  0  0  0  0  0
  188.5000  177.0140  145.3330 C   0  0  2  0  0  3  0  0  0  0  0  0
  189.8580  177.9400  143.4800 C   0  0  0  0  0  1  0  0  0  0  0  0
  189.7080  177.8700  144.9850 C   0  0  0  0  0  2  0  0  0  0  0  0
  187.3670  177.9040  145.5580 N   0  0  0  0  0  2  0  0  0  0  0  0
  186.4950  177.2850  146.5520 C   0  0  0  0  0  2  0  0  0  0  0  0
  185.5290  179.3760  147.5150 O   0  0  0  0  0  1  0  0  0  0  0  0
  185.3420  178.1890  146.8370 C   0  0  0  0  0  0  0  0  0  0  0  0
  184.1940  177.8690  146.4260 O   0  0  0  0  0  0  0  0  0  0  0  0
  1 26  1  6  0  0  0
  1  2  1  0  0  0  0
  1 49  1  0  0  0  0
  2  3  1  6  0  0  0
  3  4  1  0  0  0  0
  5  6  1  0  0  0  0
  5  2  1  0  0  0  0
  7  8  1  6  0  0  0
  7  6  1  0  0  0  0
  9  7  1  0  0  0  0
 10  9  1  0  0  0  0
 12 11  1  0  0  0  0
 12 10  1  1  0  0  0
 13 14  1  6  0  0  0
 13 12  1  0  0  0  0
 13 11  1  0  0  0  0
 15 14  1  0  0  0  0
 16 14  2  0  0  0  0
 17 23  1  1  0  0  0
 17 16  1  0  0  0  0
 18 17  1  0  0  0  0
 18 22  1  0  0  0  0
 19 18  2  0  0  0  0
 20 18  2  0  0  0  0
 21 22  1  0  0  0  0
 23 24  1  0  0  0  0
 24 25  1  0  0  0  0
 27 26  1  0  0  0  0
 28 27  1  0  0  0  0
 29 28  1  0  0  0  0
 30 38  1  0  0  0  0
 31 30  1  1  0  0  0
 31 33  1  0  0  0  0
 31 39  1  0  0  0  0
 32 34  2  0  0  0  0
 32 35  1  0  0  0  0
 36 35  1  0  0  0  0
 36 29  1  1  0  0  0
 37 36  1  0  0  0  0
 38 40  1  6  0  0  0
 38 37  1  0  0  0  0
 39 33  1  1  0  0  0
 39 32  1  0  0  0  0
 40 41  1  0  0  0  0
 42 46  1  0  0  0  0
 43 42  1  0  0  0  0
 44 41  1  6  0  0  0
 44 47  1  0  0  0  0
 46 45  1  0  0  0  0
 47 45  1  0  0  0  0
 48 43  1  0  0  0  0
 48 44  1  0  0  0  0
 49 51  1  0  0  0  0
 51 50  1  0  0  0  0
 52 53  1  0  0  0  0
 52 51  1  0  0  0  0
 54 56  1  1  0  0  0
 54 57  1  0  0  0  0
 54 53  1  0  0  0  0
 55 56  1  0  0  0  0
 57 58  1  0  0  0  0
 58 60  1  0  0  0  0
 60 59  1  0  0  0  0
 61 60  2  0  0  0  0
M  END
>  <MODEL>
5

>  <REMARK>
 VINA RESULT:      -4.1      2.737      6.085
  Name = 
  31 active torsions:
  status: ('A' for Active; 'I' for Inactive)
    1  A    between atoms: C_1  and  N_8
    2  A    between atoms: C_1  and  C_21
    3  A    between atoms: C_1  and  C_28
    4  A    between atoms: C_4  and  S_15
    5  A    between atoms: C_4  and  C_46
    6  A    between atoms: C_4  and  C_51
    7  A    between atoms: C_7  and  N_8
    8  A    between atoms: C_7  and  C_42
    9  A    between atoms: C_9  and  C_34
   10  A    between atoms: C_9  and  C_39
   11  A    between atoms: C_10  and  C_53
   12  A    between atoms: C_11  and  C_29
   13  A    between atoms: C_11  and  C_39
   14  A    between atoms: C_14  and  C_36
   15  A    between atoms: C_14  and  C_43
   16  A    between atoms: S_15  and  N_38
   17  A    between atoms: C_19  and  C_45
   18  A    between atoms: C_23  and  N_41
   19  A    between atoms: C_23  and  C_43
   20  A    between atoms: C_25  and  C_58
   21  A    between atoms: C_26  and  C_28
   22  A    between atoms: C_26  and  N_59
   23  A    between atoms: C_32  and  C_55
   24  A    between atoms: C_32  and  N_59
   25  A    between atoms: C_33  and  C_51
   26  A    between atoms: C_34  and  C_55
   27  A    between atoms: C_35  and  N_41
   28  A    between atoms: C_36  and  C_53
   29  A    between atoms: C_47  and  C_49
   30  A    between atoms: C_47  and  C_58
   31  A    between atoms: C_53  and  C_55
                            x       y       z     vdW  Elec       q    Type
                         _______ _______ _______ _____ _____    ______ ____

>  <TORSDO>
F 31

$$$$
=
 OpenBabel11042419383D

 61 64  0  0  1  0  0  0  0  0999 V2000
  188.6100  176.4150  143.7290 C   0  0  2  0  0  3  0  0  0  0  0  0
  189.5470  177.1420  142.7330 C   0  0  1  0  0  3  0  0  0  0  0  0
  188.8680  178.3300  142.0260 C   0  0  0  0  0  2  0  0  0  0  0  0
  187.3550  178.1400  141.9340 C   0  0  0  0  0  1  0  0  0  0  0  0
  190.8890  177.5900  143.3710 C   0  0  0  0  0  2  0  0  0  0  0  0
  192.1110  177.1380  142.5830 C   0  0  0  0  0  2  0  0  0  0  0  0
  192.8940  175.9950  143.2350 C   0  0  1  0  0  3  0  0  0  0  0  0
  192.1690  174.6730  142.9640 C   0  0  0  0  0  1  0  0  0  0  0  0
  194.3360  175.8790  142.7360 C   0  0  0  0  0  2  0  0  0  0  0  0
  195.2490  176.4510  143.7060 N   0  0  0  0  0  2  0  0  0  0  0  0
  197.2380  175.1380  143.8120 N   0  0  0  0  0  2  0  0  0  0  0  0
  195.8910  175.3170  144.3580 C   0  0  2  0  0  3  0  0  0  0  0  0
  196.1390  174.2320  143.4020 C   0  0  2  0  0  3  0  0  0  0  0  0
  196.2970  172.8760  144.0810 C   0  0  0  0  0  0  0  0  0  0  0  0
  197.4560  172.6180  144.7820 O   0  0  0  0  0  1  0  0  0  0  0  0
  195.3160  171.9610  144.0340 C   0  0  0  0  0  3  0  0  0  0  0  0
  195.3440  170.5430  144.5530 C   0  0  2  0  0  3  0  0  0  0  0  0
  194.1790  169.3910  143.8160 S   0  0  0  0  0  0  0  0  0  0  0  0
  194.1290  168.1740  144.6900 O   0  0  0  0  0  0  0  0  0  0  0  0
  192.8080  170.0250  143.8040 O   0  0  0  0  0  0  0  0  0  0  0  0
  195.8960  168.1840  142.3420 C   0  0  0  0  0  1  0  0  0  0  0  0
  194.6580  168.9290  142.2160 N   0  0  0  0  0  2  0  0  0  0  0  0
  195.2850  170.5270  146.0810 C   0  0  0  0  0  2  0  0  0  0  0  0
  196.5370  169.8870  146.6570 C   0  0  0  0  0  2  0  0  0  0  0  0
  196.1440  168.7350  147.5630 C   0  0  0  0  0  1  0  0  0  0  0  0
  187.7850  175.2850  143.0790 C   0  0  0  0  0  2  0  0  0  0  0  0
  188.7330  174.2540  142.5050 C   0  0  0  0  0  2  0  0  0  0  0  0
  188.8330  174.4040  140.9990 C   0  0  0  0  0  2  0  0  0  0  0  0
  188.5180  173.0520  140.3760 C   0  0  0  0  0  2  0  0  0  0  0  0
  191.3760  169.6150  138.5120 C   0  0  0  0  0  2  0  0  0  0  0  0
  190.5530  169.4960  137.2120 C   0  0  1  0  0  3  0  0  0  0  0  0
  190.0910  172.0300  137.0740 C   0  0  0  0  0  0  0  0  0  0  0  0
  189.2150  169.8520  137.4600 O   0  0  0  0  0  0  0  0  0  0  0  0
  191.0470  172.7110  136.7390 O   0  0  0  0  0  0  0  0  0  0  0  0
  189.0920  172.5850  138.0430 C   0  0  0  0  0  2  0  0  0  0  0  0
  189.6550  172.6370  139.4610 C   0  0  2  0  0  3  0  0  0  0  0  0
  190.1800  171.2780  139.9340 C   0  0  0  0  0  2  0  0  0  0  0  0
  191.4940  170.9520  139.2540 C   0  0  1  0  0  3  0  0  0  0  0  0
  189.9010  170.6530  136.5120 C   0  0  2  0  0  3  0  0  0  0  0  0
  192.5720  170.8420  140.3310 C   0  0  0  0  0  2  0  0  0  0  0  0
  193.0520  172.2200  140.7930 C   0  0  0  0  0  2  0  0  0  0  0  0
  195.0490  175.1130  137.8140 C   0  0  0  0  0  2  0  0  0  0  0  0
  193.5740  174.8490  138.0700 C   0  0  0  0  0  2  0  0  0  0  0  0
  193.8620  172.9680  139.7320 C   0  0  2  0  0  3  0  0  0  0  0  0
  196.2150  173.8800  139.2220 C   0  0  0  0  0  2  0  0  0  0  0  0
  195.7680  173.9140  137.8980 O   0  0  0  0  0  0  0  0  0  0  0  0
  195.3670  172.9120  140.0470 C   0  0  0  0  0  2  0  0  0  0  0  0
  193.3210  174.3870  139.4970 C   0  0  0  0  0  2  0  0  0  0  0  0
  187.7230  177.4740  144.4130 C   0  0  0  0  0  2  0  0  0  0  0  0
  186.6770  177.2220  146.4670 C   0  0  0  0  0  1  0  0  0  0  0  0
  187.9390  177.6170  145.8490 N   0  0  0  0  0  0  0  0  0  0  0  0
  188.9440  176.6080  146.1950 C   0  0  0  0  0  2  0  0  0  0  0  0
  190.3690  177.1330  146.3950 C   0  0  0  0  0  2  0  0  0  0  0  0
  190.9480  177.0390  147.8070 C   0  0  2  0  0  3  0  0  0  0  0  0
  191.2820  178.3180  149.9030 C   0  0  0  0  0  1  0  0  0  0  0  0
  190.4990  178.2510  148.6090 C   0  0  0  0  0  2  0  0  0  0  0  0
  192.4030  177.0700  147.7230 N   0  0  0  0  0  2  0  0  0  0  0  0
  192.8060  176.2890  146.5570 C   0  0  0  0  0  2  0  0  0  0  0  0
  193.1610  173.8790  146.0080 O   0  0  0  0  0  0  0  0  0  0  0  0
  192.6140  174.8350  146.8390 C   0  0  0  0  0  0  0  0  0  0  0  0
  191.9690  174.4880  147.8650 O   0  0  0  0  0  1  0  0  0  0  0  0
  1 26  1  6  0  0  0
  1 49  1  0  0  0  0
  2  3  1  1  0  0  0
  2  5  1  0  0  0  0
  2  1  1  0  0  0  0
  4  3  1  0  0  0  0
  6  7  1  0  0  0  0
  6  5  1  0  0  0  0
  7  8  1  6  0  0  0
  9  7  1  0  0  0  0
  9 10  1  0  0  0  0
 11 12  1  0  0  0  0
 12 10  1  6  0  0  0
 13 11  1  0  0  0  0
 13 14  1  1  0  0  0
 13 12  1  0  0  0  0
 14 15  1  0  0  0  0
 16 14  2  0  0  0  0
 17 16  1  6  0  0  0
 17 23  1  0  0  0  0
 18 17  1  0  0  0  0
 18 19  2  0  0  0  0
 20 18  2  0  0  0  0
 22 21  1  0  0  0  0
 22 18  1  0  0  0  0
 23 24  1  0  0  0  0
 24 25  1  0  0  0  0
 27 26  1  0  0  0  0
 28 27  1  0  0  0  0
 29 28  1  0  0  0  0
 30 38  1  0  0  0  0
 31 33  1  0  0  0  0
 31 30  1  1  0  0  0
 32 35  1  0  0  0  0
 34 32  2  0  0  0  0
 35 36  1  0  0  0  0
 36 37  1  0  0  0  0
 36 29  1  1  0  0  0
 38 37  1  0  0  0  0
 38 40  1  1  0  0  0
 39 32  1  1  0  0  0
 39 31  1  0  0  0  0
 39 33  1  0  0  0  0
 40 41  1  0  0  0  0
 42 46  1  0  0  0  0
 42 43  1  0  0  0  0
 43 48  1  0  0  0  0
 44 47  1  0  0  0  0
 44 41  1  1  0  0  0
 45 47  1  0  0  0  0
 46 45  1  0  0  0  0
 48 44  1  0  0  0  0
 49 51  1  0  0  0  0
 51 52  1  0  0  0  0
 51 50  1  0  0  0  0
 52 53  1  0  0  0  0
 54 53  1  6  0  0  0
 54 56  1  0  0  0  0
 56 55  1  0  0  0  0
 57 54  1  0  0  0  0
 58 60  1  0  0  0  0
 58 57  1  0  0  0  0
 59 60  2  0  0  0  0
 60 61  1  0  0  0  0
M  END
>  <MODEL>
6

>  <REMARK>
 VINA RESULT:      -3.6      3.409      8.457
  Name = 
  31 active torsions:
  status: ('A' for Active; 'I' for Inactive)
    1  A    between atoms: C_1  and  N_8
    2  A    between atoms: C_1  and  C_21
    3  A    between atoms: C_1  and  C_28
    4  A    between atoms: C_4  and  S_15
    5  A    between atoms: C_4  and  C_46
    6  A    between atoms: C_4  and  C_51
    7  A    between atoms: C_7  and  N_8
    8  A    between atoms: C_7  and  C_42
    9  A    between atoms: C_9  and  C_34
   10  A    between atoms: C_9  and  C_39
   11  A    between atoms: C_10  and  C_53
   12  A    between atoms: C_11  and  C_29
   13  A    between atoms: C_11  and  C_39
   14  A    between atoms: C_14  and  C_36
   15  A    between atoms: C_14  and  C_43
   16  A    between atoms: S_15  and  N_38
   17  A    between atoms: C_19  and  C_45
   18  A    between atoms: C_23  and  N_41
   19  A    between atoms: C_23  and  C_43
   20  A    between atoms: C_25  and  C_58
   21  A    between atoms: C_26  and  C_28
   22  A    between atoms: C_26  and  N_59
   23  A    between atoms: C_32  and  C_55
   24  A    between atoms: C_32  and  N_59
   25  A    between atoms: C_33  and  C_51
   26  A    between atoms: C_34  and  C_55
   27  A    between atoms: C_35  and  N_41
   28  A    between atoms: C_36  and  C_53
   29  A    between atoms: C_47  and  C_49
   30  A    between atoms: C_47  and  C_58
   31  A    between atoms: C_53  and  C_55
                            x       y       z     vdW  Elec       q    Type
                         _______ _______ _______ _____ _____    ______ ____

>  <TORSDO>
F 31

$$$$
=
 OpenBabel11042419383D

 61 64  0  0  1  0  0  0  0  0999 V2000
  190.1170  175.2600  145.3980 C   0  0  2  0  0  3  0  0  0  0  0  0
  191.0780  176.4410  145.6840 C   0  0  1  0  0  3  0  0  0  0  0  0
  190.3520  177.7940  145.7950 C   0  0  0  0  0  2  0  0  0  0  0  0
  189.6640  177.9540  147.1500 C   0  0  0  0  0  1  0  0  0  0  0  0
  191.9800  176.2080  146.9260 C   0  0  0  0  0  2  0  0  0  0  0  0
  193.4680  176.2470  146.6050 C   0  0  0  0  0  2  0  0  0  0  0  0
  193.8070  176.9040  145.2640 C   0  0  1  0  0  3  0  0  0  0  0  0
  195.2760  177.3370  145.2750 C   0  0  0  0  0  1  0  0  0  0  0  0
  193.5700  175.9900  144.0590 C   0  0  0  0  0  2  0  0  0  0  0  0
  194.7380  175.9780  143.2020 N   0  0  0  0  0  2  0  0  0  0  0  0
  193.6390  175.9890  141.0850 N   0  0  0  0  0  2  0  0  0  0  0  0
  194.3730  175.1660  142.0490 C   0  0  2  0  0  3  0  0  0  0  0  0
  192.9150  175.0240  141.9460 C   0  0  2  0  0  3  0  0  0  0  0  0
  192.5020  173.8030  141.1320 C   0  0  0  0  0  0  0  0  0  0  0  0
  192.3110  172.6040  141.7860 O   0  0  0  0  0  1  0  0  0  0  0  0
  192.2890  173.8950  139.8100 C   0  0  0  0  0  3  0  0  0  0  0  0
  191.9820  172.7780  138.8400 C   0  0  2  0  0  3  0  0  0  0  0  0
  190.6320  171.6760  139.2820 S   0  0  0  0  0  0  0  0  0  0  0  0
  190.1790  170.9910  138.0270 O   0  0  0  0  0  0  0  0  0  0  0  0
  191.1520  170.6270  140.2350 O   0  0  0  0  0  0  0  0  0  0  0  0
  188.9980  173.6420  139.0890 C   0  0  0  0  0  1  0  0  0  0  0  0
  189.3010  172.5380  139.9790 N   0  0  0  0  0  2  0  0  0  0  0  0
  193.2560  172.0150  138.4740 C   0  0  0  0  0  2  0  0  0  0  0  0
  193.9350  172.6550  137.2760 C   0  0  0  0  0  2  0  0  0  0  0  0
  193.3430  172.0900  135.9990 C   0  0  0  0  0  1  0  0  0  0  0  0
  190.6920  173.8890  145.8110 C   0  0  0  0  0  2  0  0  0  0  0  0
  191.8700  173.5620  144.9190 C   0  0  0  0  0  2  0  0  0  0  0  0
  192.8690  172.6910  145.6560 C   0  0  0  0  0  2  0  0  0  0  0  0
  194.2350  172.9140  145.0230 C   0  0  0  0  0  2  0  0  0  0  0  0
  197.6620  170.3010  142.8120 C   0  0  0  0  0  2  0  0  0  0  0  0
  197.9410  169.4330  144.0570 C   0  0  1  0  0  3  0  0  0  0  0  0
  195.4590  169.3290  144.7510 C   0  0  0  0  0  0  0  0  0  0  0  0
  197.6390  170.1580  145.2230 O   0  0  0  0  0  0  0  0  0  0  0  0
  194.7590  168.6090  144.0580 O   0  0  0  0  0  0  0  0  0  0  0  0
  194.8770  170.5740  145.3470 C   0  0  0  0  0  2  0  0  0  0  0  0
  194.6660  171.6570  144.2910 C   0  0  2  0  0  3  0  0  0  0  0  0
  195.9460  171.9710  143.5110 C   0  0  0  0  0  2  0  0  0  0  0  0
  196.2590  170.8560  142.5350 C   0  0  1  0  0  3  0  0  0  0  0  0
  196.8900  168.9710  145.0240 C   0  0  2  0  0  3  0  0  0  0  0  0
  196.2120  171.4350  141.1220 C   0  0  0  0  0  2  0  0  0  0  0  0
  196.8710  172.8140  141.0520 C   0  0  0  0  0  2  0  0  0  0  0  0
  197.7580  174.9460  137.0640 C   0  0  0  0  0  2  0  0  0  0  0  0
  197.5300  175.5310  138.4480 C   0  0  0  0  0  2  0  0  0  0  0  0
  196.9670  173.3700  139.6300 C   0  0  2  0  0  3  0  0  0  0  0  0
  197.6760  172.7480  137.2340 C   0  0  0  0  0  2  0  0  0  0  0  0
  196.9040  173.8530  136.8630 O   0  0  0  0  0  0  0  0  0  0  0  0
  197.2620  172.2490  138.6180 C   0  0  0  0  0  2  0  0  0  0  0  0
  197.9350  174.5610  139.5480 C   0  0  0  0  0  2  0  0  0  0  0  0
  189.7260  175.3110  143.9080 C   0  0  0  0  0  2  0  0  0  0  0  0
  187.7610  176.0010  144.9290 C   0  0  0  0  0  1  0  0  0  0  0  0
  188.3060  175.5370  143.6560 N   0  0  0  0  0  0  0  0  0  0  0  0
  188.2510  176.6540  142.7100 C   0  0  0  0  0  2  0  0  0  0  0  0
  187.4840  177.8910  143.1880 C   0  0  0  0  0  2  0  0  0  0  0  0
  185.9580  177.7920  143.2140 C   0  0  2  0  0  3  0  0  0  0  0  0
  185.9540  178.4040  140.8120 C   0  0  0  0  0  1  0  0  0  0  0  0
  185.4650  177.3950  141.8310 C   0  0  0  0  0  2  0  0  0  0  0  0
  185.4050  179.1040  143.5280 N   0  0  0  0  0  2  0  0  0  0  0  0
  184.2260  178.9090  144.3670 C   0  0  0  0  0  2  0  0  0  0  0  0
  183.9260  178.0390  146.6880 O   0  0  0  0  0  1  0  0  0  0  0  0
  184.6410  178.8140  145.7980 C   0  0  0  0  0  0  0  0  0  0  0  0
  185.6720  179.4300  146.1810 O   0  0  0  0  0  0  0  0  0  0  0  0
  1 49  1  6  0  0  0
  1  2  1  0  0  0  0
  1 26  1  0  0  0  0
  2  3  1  1  0  0  0
  2  5  1  0  0  0  0
  3  4  1  0  0  0  0
  6  5  1  0  0  0  0
  7  8  1  1  0  0  0
  7  6  1  0  0  0  0
  9  7  1  0  0  0  0
 10  9  1  0  0  0  0
 11 13  1  0  0  0  0
 11 12  1  0  0  0  0
 12 10  1  1  0  0  0
 13 14  1  6  0  0  0
 13 12  1  0  0  0  0
 14 15  1  0  0  0  0
 16 14  2  0  0  0  0
 17 23  1  1  0  0  0
 17 18  1  0  0  0  0
 17 16  1  0  0  0  0
 18 22  1  0  0  0  0
 18 20  2  0  0  0  0
 19 18  2  0  0  0  0
 21 22  1  0  0  0  0
 24 23  1  0  0  0  0
 25 24  1  0  0  0  0
 27 28  1  0  0  0  0
 27 26  1  0  0  0  0
 29 28  1  0  0  0  0
 31 30  1  6  0  0  0
 31 39  1  0  0  0  0
 31 33  1  0  0  0  0
 32 35  1  0  0  0  0
 34 32  2  0  0  0  0
 36 29  1  1  0  0  0
 36 35  1  0  0  0  0
 37 36  1  0  0  0  0
 38 40  1  6  0  0  0
 38 30  1  0  0  0  0
 38 37  1  0  0  0  0
 39 32  1  6  0  0  0
 39 33  1  0  0  0  0
 41 40  1  0  0  0  0
 42 43  1  0  0  0  0
 43 48  1  0  0  0  0
 44 41  1  1  0  0  0
 45 47  1  0  0  0  0
 46 42  1  0  0  0  0
 46 45  1  0  0  0  0
 47 44  1  0  0  0  0
 48 44  1  0  0  0  0
 51 49  1  0  0  0  0
 51 50  1  0  0  0  0
 52 53  1  0  0  0  0
 52 51  1  0  0  0  0
 53 54  1  0  0  0  0
 54 56  1  6  0  0  0
 54 57  1  0  0  0  0
 55 56  1  0  0  0  0
 57 58  1  0  0  0  0
 58 60  1  0  0  0  0
 60 61  2  0  0  0  0
 60 59  1  0  0  0  0
M  END
>  <MODEL>
7

>  <REMARK>
 VINA RESULT:      -3.4      3.153      6.675
  Name = 
  31 active torsions:
  status: ('A' for Active; 'I' for Inactive)
    1  A    between atoms: C_1  and  N_8
    2  A    between atoms: C_1  and  C_21
    3  A    between atoms: C_1  and  C_28
    4  A    between atoms: C_4  and  S_15
    5  A    between atoms: C_4  and  C_46
    6  A    between atoms: C_4  and  C_51
    7  A    between atoms: C_7  and  N_8
    8  A    between atoms: C_7  and  C_42
    9  A    between atoms: C_9  and  C_34
   10  A    between atoms: C_9  and  C_39
   11  A    between atoms: C_10  and  C_53
   12  A    between atoms: C_11  and  C_29
   13  A    between atoms: C_11  and  C_39
   14  A    between atoms: C_14  and  C_36
   15  A    between atoms: C_14  and  C_43
   16  A    between atoms: S_15  and  N_38
   17  A    between atoms: C_19  and  C_45
   18  A    between atoms: C_23  and  N_41
   19  A    between atoms: C_23  and  C_43
   20  A    between atoms: C_25  and  C_58
   21  A    between atoms: C_26  and  C_28
   22  A    between atoms: C_26  and  N_59
   23  A    between atoms: C_32  and  C_55
   24  A    between atoms: C_32  and  N_59
   25  A    between atoms: C_33  and  C_51
   26  A    between atoms: C_34  and  C_55
   27  A    between atoms: C_35  and  N_41
   28  A    between atoms: C_36  and  C_53
   29  A    between atoms: C_47  and  C_49
   30  A    between atoms: C_47  and  C_58
   31  A    between atoms: C_53  and  C_55
                            x       y       z     vdW  Elec       q    Type
                         _______ _______ _______ _____ _____    ______ ____

>  <TORSDO>
F 31

$$$$
=
 OpenBabel11042419383D

 61 64  0  0  1  0  0  0  0  0999 V2000
  192.0790  173.9240  145.8310 C   0  0  2  0  0  3  0  0  0  0  0  0
  193.5880  173.6390  146.0350 C   0  0  1  0  0  3  0  0  0  0  0  0
  193.9580  172.1620  145.8050 C   0  0  0  0  0  2  0  0  0  0  0  0
  194.2930  171.8880  144.3390 C   0  0  0  0  0  1  0  0  0  0  0  0
  194.5050  174.5630  145.1890 C   0  0  0  0  0  2  0  0  0  0  0  0
  195.8780  174.7800  145.8100 C   0  0  0  0  0  2  0  0  0  0  0  0
  197.0260  174.8340  144.7970 C   0  0  1  0  0  3  0  0  0  0  0  0
  197.8780  173.5700  144.9390 C   0  0  0  0  0  1  0  0  0  0  0  0
  196.5540  174.9520  143.3460 C   0  0  0  0  0  2  0  0  0  0  0  0
  197.6170  175.4830  142.5160 N   0  0  0  0  0  2  0  0  0  0  0  0
  196.7530  176.3960  140.4880 N   0  0  0  0  0  2  0  0  0  0  0  0
  197.2350  175.1780  141.1440 C   0  0  2  0  0  3  0  0  0  0  0  0
  195.7920  175.3650  140.9460 C   0  0  2  0  0  3  0  0  0  0  0  0
  195.2580  174.5810  139.7520 C   0  0  0  0  0  0  0  0  0  0  0  0
  194.7080  175.2760  138.6960 O   0  0  0  0  0  1  0  0  0  0  0  0
  195.3520  173.2430  139.7060 C   0  0  0  0  0  3  0  0  0  0  0  0
  194.7870  172.3080  138.6630 C   0  0  2  0  0  3  0  0  0  0  0  0
  195.6920  170.7830  138.3730 S   0  0  0  0  0  0  0  0  0  0  0  0
  196.9630  170.8530  139.1640 O   0  0  0  0  0  0  0  0  0  0  0  0
  194.8730  169.6250  138.8890 O   0  0  0  0  0  0  0  0  0  0  0  0
  195.0380  169.7260  136.1300 C   0  0  0  0  0  1  0  0  0  0  0  0
  196.0710  170.5720  136.6950 N   0  0  0  0  0  2  0  0  0  0  0  0
  194.4920  173.0620  137.3660 C   0  0  0  0  0  2  0  0  0  0  0  0
  193.0730  172.7850  136.8980 C   0  0  0  0  0  2  0  0  0  0  0  0
  192.9790  173.0280  135.4040 C   0  0  0  0  0  1  0  0  0  0  0  0
  191.5820  173.5980  144.4080 C   0  0  0  0  0  2  0  0  0  0  0  0
  191.2090  174.8890  143.7110 C   0  0  0  0  0  2  0  0  0  0  0  0
  192.1660  175.1720  142.5690 C   0  0  0  0  0  2  0  0  0  0  0  0
  192.5600  173.8370  141.9520 C   0  0  0  0  0  2  0  0  0  0  0  0
  189.4230  172.3220  138.5870 C   0  0  0  0  0  2  0  0  0  0  0  0
  190.0770  170.9310  138.4620 C   0  0  1  0  0  3  0  0  0  0  0  0
  190.5710  170.7490  140.9870 C   0  0  0  0  0  0  0  0  0  0  0  0
  191.4420  171.0130  138.7890 O   0  0  0  0  0  0  0  0  0  0  0  0
  189.5950  170.5390  141.6900 O   0  0  0  0  0  0  0  0  0  0  0  0
  191.6930  171.5900  141.5140 C   0  0  0  0  0  2  0  0  0  0  0  0
  191.3100  173.0680  141.5670 C   0  0  2  0  0  3  0  0  0  0  0  0
  190.8190  173.5940  140.2150 C   0  0  0  0  0  2  0  0  0  0  0  0
  189.4250  173.0810  139.9200 C   0  0  1  0  0  3  0  0  0  0  0  0
  190.6620  170.1610  139.6110 C   0  0  2  0  0  3  0  0  0  0  0  0
  188.4860  174.2810  139.8250 C   0  0  0  0  0  2  0  0  0  0  0  0
  188.4260  175.0590  141.1410 C   0  0  0  0  0  2  0  0  0  0  0  0
  185.3820  178.4050  140.2630 C   0  0  0  0  0  2  0  0  0  0  0  0
  186.5570  177.9200  139.4310 C   0  0  0  0  0  2  0  0  0  0  0  0
  187.4730  176.2560  141.0970 C   0  0  2  0  0  3  0  0  0  0  0  0
  185.2620  177.1460  142.0700 C   0  0  0  0  0  2  0  0  0  0  0  0
  185.7210  178.3880  141.6210 O   0  0  0  0  0  0  0  0  0  0  0  0
  186.4280  176.1700  142.2230 C   0  0  0  0  0  2  0  0  0  0  0  0
  186.8730  176.4560  139.6960 C   0  0  0  0  0  2  0  0  0  0  0  0
  191.8100  175.3890  146.2290 C   0  0  0  0  0  2  0  0  0  0  0  0
  190.7210  177.0050  147.4870 C   0  0  0  0  0  1  0  0  0  0  0  0
  190.8500  175.5610  147.3150 N   0  0  0  0  0  0  0  0  0  0  0  0
  189.5770  175.0550  146.7940 C   0  0  0  0  0  2  0  0  0  0  0  0
  188.4310  176.0710  146.7430 C   0  0  0  0  0  2  0  0  0  0  0  0
  187.7980  176.3310  145.3760 C   0  0  2  0  0  3  0  0  0  0  0  0
  188.5230  178.0710  143.7670 C   0  0  0  0  0  1  0  0  0  0  0  0
  188.8870  176.7420  144.3960 C   0  0  0  0  0  2  0  0  0  0  0  0
  186.8590  177.4400  145.4940 N   0  0  0  0  0  2  0  0  0  0  0  0
  186.8720  177.8980  146.8810 C   0  0  0  0  0  2  0  0  0  0  0  0
  185.1630  178.6120  148.5550 O   0  0  0  0  0  1  0  0  0  0  0  0
  185.4810  177.8900  147.4230 C   0  0  0  0  0  0  0  0  0  0  0  0
  184.5900  177.2350  146.8180 O   0  0  0  0  0  0  0  0  0  0  0  0
  1 26  1  6  0  0  0
  1  2  1  0  0  0  0
  1 49  1  0  0  0  0
  2  5  1  6  0  0  0
  3  2  1  0  0  0  0
  4  3  1  0  0  0  0
  5  6  1  0  0  0  0
  7  8  1  6  0  0  0
  7  6  1  0  0  0  0
  9  7  1  0  0  0  0
 10  9  1  0  0  0  0
 11 13  1  0  0  0  0
 11 12  1  0  0  0  0
 12 10  1  1  0  0  0
 13 14  1  6  0  0  0
 13 12  1  0  0  0  0
 15 14  1  0  0  0  0
 16 14  2  0  0  0  0
 17 23  1  6  0  0  0
 17 16  1  0  0  0  0
 18 17  1  0  0  0  0
 18 20  2  0  0  0  0
 18 19  2  0  0  0  0
 21 22  1  0  0  0  0
 22 18  1  0  0  0  0
 24 23  1  0  0  0  0
 25 24  1  0  0  0  0
 27 26  1  0  0  0  0
 28 27  1  0  0  0  0
 29 28  1  0  0  0  0
 30 38  1  0  0  0  0
 31 30  1  1  0  0  0
 31 33  1  0  0  0  0
 31 39  1  0  0  0  0
 32 35  1  0  0  0  0
 32 34  2  0  0  0  0
 35 36  1  0  0  0  0
 36 29  1  6  0  0  0
 37 36  1  0  0  0  0
 38 40  1  6  0  0  0
 38 37  1  0  0  0  0
 39 33  1  6  0  0  0
 39 32  1  0  0  0  0
 40 41  1  0  0  0  0
 42 46  1  0  0  0  0
 43 48  1  0  0  0  0
 43 42  1  0  0  0  0
 44 41  1  6  0  0  0
 44 47  1  0  0  0  0
 45 47  1  0  0  0  0
 46 45  1  0  0  0  0
 48 44  1  0  0  0  0
 49 51  1  0  0  0  0
 51 50  1  0  0  0  0
 52 51  1  0  0  0  0
 53 52  1  0  0  0  0
 54 56  1  6  0  0  0
 54 57  1  0  0  0  0
 54 53  1  0  0  0  0
 55 56  1  0  0  0  0
 57 58  1  0  0  0  0
 58 60  1  0  0  0  0
 60 59  1  0  0  0  0
 61 60  2  0  0  0  0
M  END
>  <MODEL>
8

>  <REMARK>
 VINA RESULT:      -3.2      2.700      6.243
  Name = 
  31 active torsions:
  status: ('A' for Active; 'I' for Inactive)
    1  A    between atoms: C_1  and  N_8
    2  A    between atoms: C_1  and  C_21
    3  A    between atoms: C_1  and  C_28
    4  A    between atoms: C_4  and  S_15
    5  A    between atoms: C_4  and  C_46
    6  A    between atoms: C_4  and  C_51
    7  A    between atoms: C_7  and  N_8
    8  A    between atoms: C_7  and  C_42
    9  A    between atoms: C_9  and  C_34
   10  A    between atoms: C_9  and  C_39
   11  A    between atoms: C_10  and  C_53
   12  A    between atoms: C_11  and  C_29
   13  A    between atoms: C_11  and  C_39
   14  A    between atoms: C_14  and  C_36
   15  A    between atoms: C_14  and  C_43
   16  A    between atoms: S_15  and  N_38
   17  A    between atoms: C_19  and  C_45
   18  A    between atoms: C_23  and  N_41
   19  A    between atoms: C_23  and  C_43
   20  A    between atoms: C_25  and  C_58
   21  A    between atoms: C_26  and  C_28
   22  A    between atoms: C_26  and  N_59
   23  A    between atoms: C_32  and  C_55
   24  A    between atoms: C_32  and  N_59
   25  A    between atoms: C_33  and  C_51
   26  A    between atoms: C_34  and  C_55
   27  A    between atoms: C_35  and  N_41
   28  A    between atoms: C_36  and  C_53
   29  A    between atoms: C_47  and  C_49
   30  A    between atoms: C_47  and  C_58
   31  A    between atoms: C_53  and  C_55
                            x       y       z     vdW  Elec       q    Type
                         _______ _______ _______ _____ _____    ______ ____

>  <TORSDO>
F 31

$$$$
=
 OpenBabel11042419383D

 61 64  0  0  1  0  0  0  0  0999 V2000
  188.7170  175.6690  144.0290 C   0  0  2  0  0  3  0  0  0  0  0  0
  187.9090  176.9800  144.1900 C   0  0  1  0  0  3  0  0  0  0  0  0
  188.6140  178.2010  143.5690 C   0  0  0  0  0  2  0  0  0  0  0  0
  188.7480  178.0630  142.0530 C   0  0  0  0  0  1  0  0  0  0  0  0
  186.4540  176.8710  143.6600 C   0  0  0  0  0  2  0  0  0  0  0  0
  185.4410  177.6090  144.5250 C   0  0  0  0  0  2  0  0  0  0  0  0
  184.4580  178.4820  143.7380 C   0  0  1  0  0  3  0  0  0  0  0  0
  185.1970  179.7110  143.2030 C   0  0  0  0  0  1  0  0  0  0  0  0
  183.7970  177.7520  142.5660 C   0  0  0  0  0  2  0  0  0  0  0  0
  184.0050  178.4910  141.3370 N   0  0  0  0  0  2  0  0  0  0  0  0
  182.2000  179.9250  140.7230 N   0  0  0  0  0  2  0  0  0  0  0  0
  182.7010  178.5500  140.6890 C   0  0  2  0  0  3  0  0  0  0  0  0
  181.6510  178.9080  141.6500 C   0  0  2  0  0  3  0  0  0  0  0  0
  180.2630  178.4760  141.1910 C   0  0  0  0  0  0  0  0  0  0  0  0
  179.1820  178.7510  142.0010 O   0  0  0  0  0  1  0  0  0  0  0  0
  180.0850  177.8710  140.0050 C   0  0  0  0  0  3  0  0  0  0  0  0
  178.8110  177.2860  139.4450 C   0  0  2  0  0  3  0  0  0  0  0  0
  178.9450  176.4140  137.8790 S   0  0  0  0  0  0  0  0  0  0  0  0
  180.3950  176.1100  137.6530 O   0  0  0  0  0  0  0  0  0  0  0  0
  178.1940  175.1080  137.9830 O   0  0  0  0  0  0  0  0  0  0  0  0
  178.1590  176.4670  135.4390 C   0  0  0  0  0  1  0  0  0  0  0  0
  178.3460  177.3670  136.5610 N   0  0  0  0  0  2  0  0  0  0  0  0
  177.6960  178.3340  139.4300 C   0  0  0  0  0  2  0  0  0  0  0  0
  178.2720  179.7230  139.2170 C   0  0  0  0  0  2  0  0  0  0  0  0
  177.8660  180.2320  137.8460 C   0  0  0  0  0  1  0  0  0  0  0  0
  190.1460  175.7570  144.6040 C   0  0  0  0  0  2  0  0  0  0  0  0
  190.1430  175.2030  146.0120 C   0  0  0  0  0  2  0  0  0  0  0  0
  191.1000  174.0320  146.1260 C   0  0  0  0  0  2  0  0  0  0  0  0
  192.3580  174.5260  146.8260 C   0  0  0  0  0  2  0  0  0  0  0  0
  194.3960  173.6610  142.5180 C   0  0  0  0  0  2  0  0  0  0  0  0
  194.9700  175.0870  142.3930 C   0  0  1  0  0  3  0  0  0  0  0  0
  195.5490  175.2570  144.9010 C   0  0  0  0  0  0  0  0  0  0  0  0
  194.1660  175.9910  143.1100 O   0  0  0  0  0  0  0  0  0  0  0  0
  196.5130  174.5960  145.2540 O   0  0  0  0  0  0  0  0  0  0  0  0
  194.4010  175.4500  145.8430 C   0  0  0  0  0  2  0  0  0  0  0  0
  193.5750  174.1740  145.9910 C   0  0  2  0  0  3  0  0  0  0  0  0
  193.0920  173.6300  144.6430 C   0  0  0  0  0  2  0  0  0  0  0  0
  194.2370  172.9900  143.8880 C   0  0  1  0  0  3  0  0  0  0  0  0
  195.5130  175.8880  143.5410 C   0  0  2  0  0  3  0  0  0  0  0  0
  193.9120  171.5100  143.6950 C   0  0  0  0  0  2  0  0  0  0  0  0
  193.7840  170.7790  145.0330 C   0  0  0  0  0  2  0  0  0  0  0  0
  197.9400  169.0680  146.0490 C   0  0  0  0  0  2  0  0  0  0  0  0
  197.4950  169.8870  144.8490 C   0  0  0  0  0  2  0  0  0  0  0  0
  195.0330  169.9800  145.4110 C   0  0  2  0  0  3  0  0  0  0  0  0
  196.2100  168.8430  147.3980 C   0  0  0  0  0  2  0  0  0  0  0  0
  196.9310  168.1660  146.4100 O   0  0  0  0  0  0  0  0  0  0  0  0
  194.9020  169.3890  146.8250 C   0  0  0  0  0  2  0  0  0  0  0  0
  196.3190  170.7920  145.1850 C   0  0  0  0  0  2  0  0  0  0  0  0
  188.7040  175.2770  142.5380 C   0  0  0  0  0  2  0  0  0  0  0  0
  189.4450  173.0890  142.7440 C   0  0  0  0  0  1  0  0  0  0  0  0
  189.7760  174.3730  142.1340 N   0  0  0  0  0  0  0  0  0  0  0  0
  189.6390  174.2290  140.6820 C   0  0  0  0  0  2  0  0  0  0  0  0
  190.8320  173.5900  139.9640 C   0  0  0  0  0  2  0  0  0  0  0  0
  190.5200  172.4900  138.9500 C   0  0  2  0  0  3  0  0  0  0  0  0
  191.4190  170.8260  140.5500 C   0  0  0  0  0  1  0  0  0  0  0  0
  191.5120  171.3520  139.1330 C   0  0  0  0  0  2  0  0  0  0  0  0
  190.6930  173.0250  137.6050 N   0  0  0  0  0  2  0  0  0  0  0  0
  191.7310  174.0510  137.6560 C   0  0  0  0  0  2  0  0  0  0  0  0
  192.5550  175.4130  135.7320 O   0  0  0  0  0  1  0  0  0  0  0  0
  192.3770  174.1750  136.3160 C   0  0  0  0  0  0  0  0  0  0  0  0
  192.7850  173.1350  135.7320 O   0  0  0  0  0  0  0  0  0  0  0  0
  1 49  1  6  0  0  0
  1  2  1  0  0  0  0
  1 26  1  0  0  0  0
  2  3  1  6  0  0  0
  4  3  1  0  0  0  0
  5  2  1  0  0  0  0
  5  6  1  0  0  0  0
  7  8  1  6  0  0  0
  7  6  1  0  0  0  0
  9  7  1  0  0  0  0
 10  9  1  0  0  0  0
 11 13  1  0  0  0  0
 12 11  1  0  0  0  0
 12 10  1  1  0  0  0
 12 13  1  0  0  0  0
 13 14  1  6  0  0  0
 14 15  1  0  0  0  0
 16 14  2  0  0  0  0
 17 23  1  6  0  0  0
 17 16  1  0  0  0  0
 18 20  2  0  0  0  0
 18 17  1  0  0  0  0
 19 18  2  0  0  0  0
 21 22  1  0  0  0  0
 22 18  1  0  0  0  0
 24 23  1  0  0  0  0
 25 24  1  0  0  0  0
 26 27  1  0  0  0  0
 27 28  1  0  0  0  0
 28 29  1  0  0  0  0
 30 38  1  0  0  0  0
 31 30  1  1  0  0  0
 31 33  1  0  0  0  0
 31 39  1  0  0  0  0
 32 34  2  0  0  0  0
 32 35  1  0  0  0  0
 35 36  1  0  0  0  0
 36 29  1  1  0  0  0
 37 36  1  0  0  0  0
 38 40  1  6  0  0  0
 38 37  1  0  0  0  0
 39 33  1  1  0  0  0
 39 32  1  0  0  0  0
 40 41  1  0  0  0  0
 42 46  1  0  0  0  0
 43 48  1  0  0  0  0
 43 42  1  0  0  0  0
 44 41  1  1  0  0  0
 44 47  1  0  0  0  0
 46 45  1  0  0  0  0
 47 45  1  0  0  0  0
 48 44  1  0  0  0  0
 51 49  1  0  0  0  0
 51 50  1  0  0  0  0
 52 51  1  0  0  0  0
 53 52  1  0  0  0  0
 54 56  1  1  0  0  0
 54 53  1  0  0  0  0
 56 55  1  0  0  0  0
 57 58  1  0  0  0  0
 57 54  1  0  0  0  0
 59 60  1  0  0  0  0
 60 58  1  0  0  0  0
 61 60  2  0  0  0  0
M  END
>  <MODEL>
9

>  <REMARK>
 VINA RESULT:      -3.0      5.020     10.711
  Name = 
  31 active torsions:
  status: ('A' for Active; 'I' for Inactive)
    1  A    between atoms: C_1  and  N_8
    2  A    between atoms: C_1  and  C_21
    3  A    between atoms: C_1  and  C_28
    4  A    between atoms: C_4  and  S_15
    5  A    between atoms: C_4  and  C_46
    6  A    between atoms: C_4  and  C_51
    7  A    between atoms: C_7  and  N_8
    8  A    between atoms: C_7  and  C_42
    9  A    between atoms: C_9  and  C_34
   10  A    between atoms: C_9  and  C_39
   11  A    between atoms: C_10  and  C_53
   12  A    between atoms: C_11  and  C_29
   13  A    between atoms: C_11  and  C_39
   14  A    between atoms: C_14  and  C_36
   15  A    between atoms: C_14  and  C_43
   16  A    between atoms: S_15  and  N_38
   17  A    between atoms: C_19  and  C_45
   18  A    between atoms: C_23  and  N_41
   19  A    between atoms: C_23  and  C_43
   20  A    between atoms: C_25  and  C_58
   21  A    between atoms: C_26  and  C_28
   22  A    between atoms: C_26  and  N_59
   23  A    between atoms: C_32  and  C_55
   24  A    between atoms: C_32  and  N_59
   25  A    between atoms: C_33  and  C_51
   26  A    between atoms: C_34  and  C_55
   27  A    between atoms: C_35  and  N_41
   28  A    between atoms: C_36  and  C_53
   29  A    between atoms: C_47  and  C_49
   30  A    between atoms: C_47  and  C_58
   31  A    between atoms: C_53  and  C_55
                            x       y       z     vdW  Elec       q    Type
                         _______ _______ _______ _____ _____    ______ ____

>  <TORSDO>
F 31

$$$$
