=
 OpenBabel11042414373D

 46 51  0  0  1  0  0  0  0  0999 V2000
  193.5010  175.9860  143.7970 C   0  0  0  0  0  1  0  0  0  0  0  0
  190.6940  170.0280  138.8750 C   0  0  0  0  0  0  0  0  0  0  0  0
  193.1120  172.8150  143.4640 O   0  0  0  0  0  0  0  0  0  0  0  0
  193.4970  170.0430  144.0100 O   0  0  0  0  0  0  0  0  0  0  0  0
  188.5410  176.5290  143.4970 C   0  0  0  0  0  3  0  0  0  0  0  0
  191.5740  168.8720  139.0130 C   0  0  2  0  0  3  0  0  0  0  0  0
  192.6060  173.8000  145.5240 N   0  0  0  0  0  2  0  0  0  0  0  0
  190.1810  173.4910  141.4500 S   0  0  0  0  0  0  0  0  0  0  0  0
  191.2750  177.0790  144.0360 C   0  0  1  0  0  3  0  0  0  0  0  0
  193.5480  168.6960  143.5510 C   0  0  0  0  0  2  0  0  0  0  0  0
  193.3170  172.8630  144.7090 C   0  0  0  0  0  0  0  0  0  0  0  0
  197.9410  169.8910  145.8780 F   0  0  0  0  0  0  0  0  0  0  0  0
  188.6640  175.3210  140.6540 C   0  0  0  0  0  3  0  0  0  0  0  0
  191.6390  174.7320  144.9630 C   0  0  0  0  0  2  0  0  0  0  0  0
  188.9190  172.0400  138.0380 O   0  0  0  0  0  0  0  0  0  0  0  0
  196.8740  170.6440  145.5230 C   0  0  0  0  0  0  0  0  0  0  0  0
  188.6690  174.3970  139.6530 N   0  0  0  0  0  0  0  0  0  0  0  0
  189.4400  174.9640  141.7540 C   0  0  0  0  0  0  0  0  0  0  0  0
  192.3140  168.3560  142.7330 C   0  0  0  0  0  2  0  0  0  0  0  0
  195.7440  170.0190  144.8130 C   0  0  0  0  0  3  0  0  0  0  0  0
  189.4570  173.3350  139.9410 C   0  0  0  0  0  0  0  0  0  0  0  0
  189.7180  175.7740  142.9690 C   0  0  1  0  0  3  0  0  0  0  0  0
  192.4110  168.9830  141.3540 C   0  0  0  0  0  2  0  0  0  0  0  0
  190.7710  168.1660  138.1210 N   0  0  0  0  0  2  0  0  0  0  0  0
  190.8040  176.6470  142.7670 O   0  0  0  0  0  0  0  0  0  0  0  0
  190.1790  177.5900  145.0080 C   0  0  0  0  0  2  0  0  0  0  0  0
  188.7780  177.4290  144.4630 C   0  0  0  0  0  0  0  0  0  0  0  0
  195.6890  172.8070  145.4110 C   0  0  0  0  0  2  0  0  0  0  0  0
  194.5660  170.6560  144.6800 C   0  0  0  0  0  0  0  0  0  0  0  0
  194.3750  172.0170  145.3420 C   0  0  2  0  0  3  0  0  0  0  0  0
  189.6390  172.1790  139.0630 C   0  0  0  0  0  0  0  0  0  0  0  0
  192.2710  176.1020  144.6830 C   0  0  1  0  0  3  0  0  0  0  0  0
  196.8260  171.9320  145.8630 C   0  0  0  0  0  3  0  0  0  0  0  0
  189.9220  169.2460  137.9280 O   0  0  0  0  0  0  0  0  0  0  0  0
  190.6360  171.2130  139.3950 N   0  0  0  0  0  0  0  0  0  0  0  0
  191.4540  168.2810  140.4080 C   0  0  0  0  0  2  0  0  0  0  0  0
  184.9180  179.5480  146.1220 C   0  0  0  0  0  1  0  0  0  0  0  0
  185.5520  176.0100  144.6510 C   0  0  0  0  0  1  0  0  0  0  0  0
  185.6430  177.1660  145.6500 C   0  0  0  0  0  0  0  0  0  0  0  0
  186.5240  179.0190  143.9880 S   0  0  0  0  0  0  0  0  0  0  0  0
  187.6560  178.1640  145.1440 C   0  0  1  0  0  3  0  0  0  0  0  0
  186.9820  177.3150  146.0530 O   0  0  0  0  0  0  0  0  0  0  0  0
  185.1440  178.4870  145.0320 C   0  0  2  0  0  0  0  0  0  0  0  0
  184.8070  176.7610  146.8630 C   0  0  0  0  0  1  0  0  0  0  0  0
  183.9560  178.2500  144.2940 O   0  0  0  0  0  0  0  0  0  0  0  0
  184.1040  178.7170  142.9740 C   0  0  0  0  0  1  0  0  0  0  0  0
  2  6  1  0  0  0  0
  2 35  2  0  0  0  0
  3 11  2  0  0  0  0
  4 29  1  0  0  0  0
  5 27  2  0  0  0  0
  6 36  1  1  0  0  0
  8 18  1  0  0  0  0
  9 32  1  0  0  0  0
  9 26  1  1  0  0  0
 10  4  1  0  0  0  0
 11 30  1  0  0  0  0
 11  7  1  0  0  0  0
 13 18  2  0  0  0  0
 14  7  1  0  0  0  0
 15 31  2  0  0  0  0
 16 33  2  0  0  0  0
 16 12  1  0  0  0  0
 17 21  2  0  0  0  0
 17 13  1  0  0  0  0
 18 22  1  0  0  0  0
 19 10  1  0  0  0  0
 20 16  1  0  0  0  0
 21  8  1  0  0  0  0
 22  5  1  6  0  0  0
 23 19  1  0  0  0  0
 24  6  1  0  0  0  0
 25 22  1  0  0  0  0
 25  9  1  0  0  0  0
 27 26  1  0  0  0  0
 28 33  1  0  0  0  0
 29 20  2  0  0  0  0
 29 30  1  0  0  0  0
 30 28  1  6  0  0  0
 31 35  1  0  0  0  0
 31 21  1  0  0  0  0
 32  1  1  6  0  0  0
 32 14  1  0  0  0  0
 34 24  1  0  0  0  0
 34  2  1  0  0  0  0
 36 23  1  0  0  0  0
 38 39  1  0  0  0  0
 39 42  1  0  0  0  0
 39 44  1  0  0  0  0
 40 43  1  0  0  0  0
 40 41  1  0  0  0  0
 41 27  1  6  0  0  0
 41 42  1  0  0  0  0
 43 39  1  0  0  0  0
 43 37  1  1  0  0  0
 45 43  1  0  0  0  0
 46 45  1  0  0  0  0
M  END
>  <MODEL>
1

>  <REMARK>
 VINA RESULT:      -8.5      0.000      0.000
  Name = 
  2 active torsions:
  status: ('A' for Active; 'I' for Inactive)
    1  A    between atoms: O_17  and  C_27
    2  A    between atoms: C_19  and  C_35
                            x       y       z     vdW  Elec       q    Type
                         _______ _______ _______ _____ _____    ______ ____

>  <TORSDO>
F 2

$$$$
=
 OpenBabel11042414373D

 46 51  0  0  1  0  0  0  0  0999 V2000
  188.1660  172.2270  141.0610 C   0  0  0  0  0  1  0  0  0  0  0  0
  196.0320  171.7260  143.4050 C   0  0  0  0  0  0  0  0  0  0  0  0
  191.2160  172.2340  140.0540 O   0  0  0  0  0  0  0  0  0  0  0  0
  193.3780  172.0690  138.2030 O   0  0  0  0  0  0  0  0  0  0  0  0
  189.1580  176.2950  143.7900 C   0  0  0  0  0  3  0  0  0  0  0  0
  196.7670  171.0010  142.3750 C   0  0  2  0  0  3  0  0  0  0  0  0
  189.7300  173.7980  139.1510 N   0  0  0  0  0  2  0  0  0  0  0  0
  192.1550  173.6830  143.2350 S   0  0  0  0  0  0  0  0  0  0  0  0
  187.7200  174.2900  142.3840 C   0  0  1  0  0  3  0  0  0  0  0  0
  194.7300  171.7210  137.9200 C   0  0  0  0  0  2  0  0  0  0  0  0
  190.6640  172.7210  139.0280 C   0  0  0  0  0  0  0  0  0  0  0  0
  191.6100  169.2850  134.6830 F   0  0  0  0  0  0  0  0  0  0  0  0
  191.2330  174.6310  145.3660 C   0  0  0  0  0  3  0  0  0  0  0  0
  189.3710  174.3630  140.4430 C   0  0  0  0  0  2  0  0  0  0  0  0
  195.0340  172.8810  145.7660 O   0  0  0  0  0  0  0  0  0  0  0  0
  191.3630  170.0350  135.7820 C   0  0  0  0  0  0  0  0  0  0  0  0
  192.4180  174.0550  145.7110 N   0  0  0  0  0  0  0  0  0  0  0  0
  190.9370  174.5390  144.0080 C   0  0  0  0  0  0  0  0  0  0  0  0
  195.6700  172.3180  138.9530 C   0  0  0  0  0  2  0  0  0  0  0  0
  192.4890  170.5890  136.5560 C   0  0  0  0  0  3  0  0  0  0  0  0
  193.0410  173.4910  144.6510 C   0  0  0  0  0  0  0  0  0  0  0  0
  189.6970  174.9840  143.3170 C   0  0  1  0  0  3  0  0  0  0  0  0
  195.5860  171.5350  140.2510 C   0  0  0  0  0  2  0  0  0  0  0  0
  197.9410  171.1770  143.1030 N   0  0  0  0  0  2  0  0  0  0  0  0
  188.6960  173.9980  143.3750 O   0  0  0  0  0  0  0  0  0  0  0  0
  187.2140  175.7560  142.3690 C   0  0  0  0  0  2  0  0  0  0  0  0
  187.9410  176.6480  143.3500 C   0  0  0  0  0  0  0  0  0  0  0  0
  189.8050  171.0800  137.3870 C   0  0  0  0  0  2  0  0  0  0  0  0
  192.2950  171.5460  137.4820 C   0  0  0  0  0  0  0  0  0  0  0  0
  190.8960  172.1210  137.6780 C   0  0  2  0  0  3  0  0  0  0  0  0
  194.3390  172.8190  144.7170 C   0  0  0  0  0  0  0  0  0  0  0  0
  188.0800  173.7420  140.9930 C   0  0  1  0  0  3  0  0  0  0  0  0
  190.1060  170.3150  136.1280 C   0  0  0  0  0  3  0  0  0  0  0  0
  197.2840  171.8440  144.1270 O   0  0  0  0  0  0  0  0  0  0  0  0
  194.8040  172.1060  143.5710 N   0  0  0  0  0  0  0  0  0  0  0  0
  196.8190  171.8140  141.0920 C   0  0  0  0  0  2  0  0  0  0  0  0
  185.5390  180.5810  144.2970 C   0  0  0  0  0  1  0  0  0  0  0  0
  185.2000  176.9230  145.5570 C   0  0  0  0  0  1  0  0  0  0  0  0
  185.8310  178.3060  145.3750 C   0  0  0  0  0  0  0  0  0  0  0  0
  185.8220  178.3690  142.7350 S   0  0  0  0  0  0  0  0  0  0  0  0
  187.3480  177.9920  143.6710 C   0  0  1  0  0  3  0  0  0  0  0  0
  187.1940  178.1490  145.0680 O   0  0  0  0  0  0  0  0  0  0  0  0
  185.1400  179.0970  144.2460 C   0  0  2  0  0  0  0  0  0  0  0  0
  185.7080  179.0210  146.7200 C   0  0  0  0  0  1  0  0  0  0  0  0
  183.7340  178.9400  144.3450 O   0  0  0  0  0  0  0  0  0  0  0  0
  183.1860  178.6630  143.0780 C   0  0  0  0  0  1  0  0  0  0  0  0
  2 35  2  0  0  0  0
  2 34  1  0  0  0  0
  6 36  1  6  0  0  0
  6 24  1  0  0  0  0
  6  2  1  0  0  0  0
  7 14  1  0  0  0  0
  8 18  1  0  0  0  0
  8 21  1  0  0  0  0
  9 26  1  6  0  0  0
  9 25  1  0  0  0  0
 10  4  1  0  0  0  0
 10 19  1  0  0  0  0
 11  7  1  0  0  0  0
 11  3  2  0  0  0  0
 12 16  1  0  0  0  0
 13 17  1  0  0  0  0
 14 32  1  0  0  0  0
 16 33  2  0  0  0  0
 16 20  1  0  0  0  0
 18 13  2  0  0  0  0
 19 23  1  0  0  0  0
 20 29  2  0  0  0  0
 21 31  1  0  0  0  0
 21 17  2  0  0  0  0
 22 25  1  0  0  0  0
 22  5  1  1  0  0  0
 22 18  1  0  0  0  0
 23 36  1  0  0  0  0
 24 34  1  0  0  0  0
 26 27  1  0  0  0  0
 27  5  2  0  0  0  0
 29 30  1  0  0  0  0
 29  4  1  0  0  0  0
 30 28  1  1  0  0  0
 30 11  1  0  0  0  0
 31 15  2  0  0  0  0
 32  1  1  1  0  0  0
 32  9  1  0  0  0  0
 33 28  1  0  0  0  0
 35 31  1  0  0  0  0
 39 38  1  0  0  0  0
 39 44  1  0  0  0  0
 40 41  1  0  0  0  0
 40 43  1  0  0  0  0
 41 27  1  1  0  0  0
 41 42  1  0  0  0  0
 42 39  1  0  0  0  0
 43 37  1  1  0  0  0
 43 45  1  0  0  0  0
 43 39  1  0  0  0  0
 46 45  1  0  0  0  0
M  END
>  <MODEL>
2

>  <REMARK>
 VINA RESULT:      -7.7      3.197      6.288
  Name = 
  2 active torsions:
  status: ('A' for Active; 'I' for Inactive)
    1  A    between atoms: O_17  and  C_27
    2  A    between atoms: C_19  and  C_35
                            x       y       z     vdW  Elec       q    Type
                         _______ _______ _______ _____ _____    ______ ____

>  <TORSDO>
F 2

$$$$
=
 OpenBabel11042414373D

 46 51  0  0  1  0  0  0  0  0999 V2000
  193.0890  175.1650  144.1050 C   0  0  0  0  0  1  0  0  0  0  0  0
  190.7540  171.0770  137.3630 C   0  0  0  0  0  0  0  0  0  0  0  0
  192.9290  172.2790  142.7010 O   0  0  0  0  0  0  0  0  0  0  0  0
  193.5060  169.5180  142.2840 O   0  0  0  0  0  0  0  0  0  0  0  0
  188.1070  175.4600  143.8480 C   0  0  0  0  0  3  0  0  0  0  0  0
  191.7120  170.0030  137.1280 C   0  0  2  0  0  3  0  0  0  0  0  0
  192.3380  172.4680  144.9560 N   0  0  0  0  0  2  0  0  0  0  0  0
  189.9750  173.4130  140.9440 S   0  0  0  0  0  0  0  0  0  0  0  0
  190.7900  175.9650  144.6300 C   0  0  1  0  0  3  0  0  0  0  0  0
  193.6560  168.4150  141.3960 C   0  0  0  0  0  2  0  0  0  0  0  0
  193.1210  171.9130  143.8940 C   0  0  0  0  0  0  0  0  0  0  0  0
  197.9340  169.0220  144.1310 F   0  0  0  0  0  0  0  0  0  0  0  0
  188.3390  175.3050  140.7690 C   0  0  0  0  0  3  0  0  0  0  0  0
  191.3130  173.4710  144.7140 C   0  0  0  0  0  2  0  0  0  0  0  0
  188.8470  173.1370  137.2030 O   0  0  0  0  0  0  0  0  0  0  0  0
  196.8190  169.7810  144.0190 C   0  0  0  0  0  0  0  0  0  0  0  0
  188.4170  174.7800  139.5150 N   0  0  0  0  0  0  0  0  0  0  0  0
  189.1290  174.6440  141.7070 C   0  0  0  0  0  0  0  0  0  0  0  0
  192.4560  168.2960  140.4720 C   0  0  0  0  0  2  0  0  0  0  0  0
  195.7420  169.3650  143.1020 C   0  0  0  0  0  3  0  0  0  0  0  0
  189.2760  173.7370  139.4490 C   0  0  0  0  0  0  0  0  0  0  0  0
  189.3390  175.0070  143.1340 C   0  0  1  0  0  3  0  0  0  0  0  0
  192.5200  169.3620  139.3930 C   0  0  0  0  0  2  0  0  0  0  0  0
  190.9680  169.5940  136.0240 N   0  0  0  0  0  2  0  0  0  0  0  0
  190.3610  175.9630  143.2750 O   0  0  0  0  0  0  0  0  0  0  0  0
  189.6530  176.0430  145.6810 C   0  0  0  0  0  2  0  0  0  0  0  0
  188.2710  175.9880  145.0700 C   0  0  0  0  0  0  0  0  0  0  0  0
  195.4850  171.7720  144.6110 C   0  0  0  0  0  2  0  0  0  0  0  0
  194.5230  169.9330  143.1560 C   0  0  0  0  0  0  0  0  0  0  0  0
  194.2300  170.9710  144.2350 C   0  0  2  0  0  3  0  0  0  0  0  0
  189.5470  172.9640  138.2370 C   0  0  0  0  0  0  0  0  0  0  0  0
  191.8480  174.8920  144.9370 C   0  0  1  0  0  3  0  0  0  0  0  0
  196.6770  170.8700  144.7740 C   0  0  0  0  0  3  0  0  0  0  0  0
  190.0470  170.6190  136.1830 O   0  0  0  0  0  0  0  0  0  0  0  0
  190.6070  172.0080  138.2530 N   0  0  0  0  0  0  0  0  0  0  0  0
  191.6230  168.9650  138.2350 C   0  0  0  0  0  2  0  0  0  0  0  0
  184.8710  177.7350  147.8140 C   0  0  0  0  0  1  0  0  0  0  0  0
  186.8060  179.1860  144.7740 C   0  0  0  0  0  1  0  0  0  0  0  0
  185.8450  178.2690  145.5350 C   0  0  0  0  0  0  0  0  0  0  0  0
  187.5370  177.4050  147.3690 S   0  0  0  0  0  0  0  0  0  0  0  0
  187.0950  176.3730  145.9240 C   0  0  1  0  0  3  0  0  0  0  0  0
  186.0680  176.9390  145.1330 O   0  0  0  0  0  0  0  0  0  0  0  0
  186.0440  178.3830  147.0590 C   0  0  2  0  0  0  0  0  0  0  0  0
  184.4320  178.6780  145.1210 C   0  0  0  0  0  1  0  0  0  0  0  0
  186.1960  179.7460  147.4210 O   0  0  0  0  0  0  0  0  0  0  0  0
  187.1980  179.8790  148.4000 C   0  0  0  0  0  1  0  0  0  0  0  0
  2 35  2  0  0  0  0
  3 11  2  0  0  0  0
  4 29  1  0  0  0  0
  5 27  2  0  0  0  0
  6  2  1  0  0  0  0
  6 36  1  1  0  0  0
  8 18  1  0  0  0  0
  9 32  1  0  0  0  0
  9 26  1  1  0  0  0
 10  4  1  0  0  0  0
 11 30  1  0  0  0  0
 11  7  1  0  0  0  0
 13 18  2  0  0  0  0
 14 32  1  0  0  0  0
 14  7  1  0  0  0  0
 15 31  2  0  0  0  0
 16 12  1  0  0  0  0
 16 33  2  0  0  0  0
 17 13  1  0  0  0  0
 18 22  1  0  0  0  0
 19 10  1  0  0  0  0
 20 29  2  0  0  0  0
 20 16  1  0  0  0  0
 21 17  2  0  0  0  0
 21  8  1  0  0  0  0
 22 25  1  0  0  0  0
 22  5  1  6  0  0  0
 23 19  1  0  0  0  0
 24 34  1  0  0  0  0
 24  6  1  0  0  0  0
 25  9  1  0  0  0  0
 27 26  1  0  0  0  0
 28 33  1  0  0  0  0
 29 30  1  0  0  0  0
 30 28  1  6  0  0  0
 31 35  1  0  0  0  0
 31 21  1  0  0  0  0
 32  1  1  6  0  0  0
 34  2  1  0  0  0  0
 36 23  1  0  0  0  0
 38 39  1  0  0  0  0
 39 43  1  0  0  0  0
 41 27  1  6  0  0  0
 41 40  1  0  0  0  0
 42 39  1  0  0  0  0
 42 41  1  0  0  0  0
 43 40  1  0  0  0  0
 43 45  1  0  0  0  0
 43 37  1  1  0  0  0
 44 39  1  0  0  0  0
 45 46  1  0  0  0  0
M  END
>  <MODEL>
3

>  <REMARK>
 VINA RESULT:      -6.7      1.569      2.070
  Name = 
  2 active torsions:
  status: ('A' for Active; 'I' for Inactive)
    1  A    between atoms: O_17  and  C_27
    2  A    between atoms: C_19  and  C_35
                            x       y       z     vdW  Elec       q    Type
                         _______ _______ _______ _____ _____    ______ ____

>  <TORSDO>
F 2

$$$$
=
 OpenBabel11042414373D

 46 51  0  0  1  0  0  0  0  0999 V2000
  188.9100  172.4620  145.0020 C   0  0  0  0  0  1  0  0  0  0  0  0
  187.2380  175.1760  137.4230 C   0  0  0  0  0  0  0  0  0  0  0  0
  188.2180  175.0490  143.2280 O   0  0  0  0  0  0  0  0  0  0  0  0
  187.4190  177.7310  142.6820 O   0  0  0  0  0  0  0  0  0  0  0  0
  193.0290  171.7950  142.2500 C   0  0  0  0  0  3  0  0  0  0  0  0
  186.2630  176.2570  137.5320 C   0  0  2  0  0  3  0  0  0  0  0  0
  189.9070  175.2080  144.8370 N   0  0  0  0  0  2  0  0  0  0  0  0
  189.8510  173.4370  140.4280 S   0  0  0  0  0  0  0  0  0  0  0  0
  191.1690  171.6110  144.3890 C   0  0  1  0  0  3  0  0  0  0  0  0
  186.7900  178.6750  141.8210 C   0  0  0  0  0  2  0  0  0  0  0  0
  188.6670  175.6250  144.2580 C   0  0  0  0  0  0  0  0  0  0  0  0
  184.5980  178.8290  146.4380 F   0  0  0  0  0  0  0  0  0  0  0  0
  191.2150  171.4380  139.7720 C   0  0  0  0  0  3  0  0  0  0  0  0
  190.6870  174.1120  144.2830 C   0  0  0  0  0  2  0  0  0  0  0  0
  188.8450  172.9970  136.6690 O   0  0  0  0  0  0  0  0  0  0  0  0
  185.5130  177.9890  145.9010 C   0  0  0  0  0  0  0  0  0  0  0  0
  190.4740  171.7460  138.6710 N   0  0  0  0  0  0  0  0  0  0  0  0
  191.0110  172.3000  140.8470 C   0  0  0  0  0  0  0  0  0  0  0  0
  187.3240  178.5540  140.4040 C   0  0  0  0  0  2  0  0  0  0  0  0
  185.9380  178.1710  144.5000 C   0  0  0  0  0  3  0  0  0  0  0  0
  189.6740  172.8180  138.8750 C   0  0  0  0  0  0  0  0  0  0  0  0
  191.5910  172.2010  142.2120 C   0  0  1  0  0  3  0  0  0  0  0  0
  186.7400  177.3270  139.7270 C   0  0  0  0  0  2  0  0  0  0  0  0
  186.3060  176.4210  136.1490 N   0  0  0  0  0  2  0  0  0  0  0  0
  190.8250  171.3530  143.0350 O   0  0  0  0  0  0  0  0  0  0  0  0
  192.6900  171.6370  144.6900 C   0  0  0  0  0  2  0  0  0  0  0  0
  193.5450  171.4940  143.4510 C   0  0  0  0  0  0  0  0  0  0  0  0
  187.0240  176.0440  146.0600 C   0  0  0  0  0  2  0  0  0  0  0  0
  187.0220  177.5400  144.0140 C   0  0  0  0  0  0  0  0  0  0  0  0
  187.8700  176.6840  144.9500 C   0  0  2  0  0  3  0  0  0  0  0  0
  188.7840  173.3900  137.8640 C   0  0  0  0  0  0  0  0  0  0  0  0
  190.3940  172.7890  145.0020 C   0  0  1  0  0  3  0  0  0  0  0  0
  186.0650  177.0380  146.6540 C   0  0  0  0  0  3  0  0  0  0  0  0
  187.2070  175.3790  135.9870 O   0  0  0  0  0  0  0  0  0  0  0  0
  187.8590  174.4030  138.2570 N   0  0  0  0  0  0  0  0  0  0  0  0
  186.8850  177.4600  138.2220 C   0  0  0  0  0  2  0  0  0  0  0  0
  197.9410  170.1300  144.4270 C   0  0  0  0  0  1  0  0  0  0  0  0
  194.6310  168.1660  143.9000 C   0  0  0  0  0  1  0  0  0  0  0  0
  195.8370  169.0360  143.5330 C   0  0  0  0  0  0  0  0  0  0  0  0
  195.5060  170.9130  145.3610 S   0  0  0  0  0  0  0  0  0  0  0  0
  195.0060  171.1820  143.6210 C   0  0  1  0  0  3  0  0  0  0  0  0
  195.3950  170.1270  142.7630 O   0  0  0  0  0  0  0  0  0  0  0  0
  196.5610  169.5560  144.7900 C   0  0  2  0  0  0  0  0  0  0  0  0
  196.7550  168.1670  142.6730 C   0  0  0  0  0  1  0  0  0  0  0  0
  196.6750  168.5110  145.7420 O   0  0  0  0  0  0  0  0  0  0  0  0
  196.6470  169.0390  147.0470 C   0  0  0  0  0  1  0  0  0  0  0  0
  2  6  1  0  0  0  0
  2 35  2  0  0  0  0
  3 11  2  0  0  0  0
  4 29  1  0  0  0  0
  5 27  2  0  0  0  0
  6 36  1  1  0  0  0
  8 18  1  0  0  0  0
  9 26  1  6  0  0  0
  9 32  1  0  0  0  0
 10  4  1  0  0  0  0
 11  7  1  0  0  0  0
 11 30  1  0  0  0  0
 13 18  2  0  0  0  0
 14  7  1  0  0  0  0
 14 32  1  0  0  0  0
 15 31  2  0  0  0  0
 16 12  1  0  0  0  0
 16 33  2  0  0  0  0
 17 21  2  0  0  0  0
 17 13  1  0  0  0  0
 18 22  1  0  0  0  0
 19 10  1  0  0  0  0
 20 16  1  0  0  0  0
 21  8  1  0  0  0  0
 22  5  1  6  0  0  0
 22 25  1  0  0  0  0
 23 19  1  0  0  0  0
 24  6  1  0  0  0  0
 25  9  1  0  0  0  0
 27 26  1  0  0  0  0
 28 33  1  0  0  0  0
 29 20  2  0  0  0  0
 29 30  1  0  0  0  0
 30 28  1  1  0  0  0
 31 35  1  0  0  0  0
 31 21  1  0  0  0  0
 32  1  1  6  0  0  0
 34 24  1  0  0  0  0
 34  2  1  0  0  0  0
 36 23  1  0  0  0  0
 39 38  1  0  0  0  0
 39 43  1  0  0  0  0
 41 27  1  1  0  0  0
 41 40  1  0  0  0  0
 42 39  1  0  0  0  0
 42 41  1  0  0  0  0
 43 37  1  6  0  0  0
 43 40  1  0  0  0  0
 43 45  1  0  0  0  0
 44 39  1  0  0  0  0
 45 46  1  0  0  0  0
M  END
>  <MODEL>
4

>  <REMARK>
 VINA RESULT:      -6.2      3.555      9.569
  Name = 
  2 active torsions:
  status: ('A' for Active; 'I' for Inactive)
    1  A    between atoms: O_17  and  C_27
    2  A    between atoms: C_19  and  C_35
                            x       y       z     vdW  Elec       q    Type
                         _______ _______ _______ _____ _____    ______ ____

>  <TORSDO>
F 2

$$$$
=
 OpenBabel11042414373D

 46 51  0  0  1  0  0  0  0  0999 V2000
  189.5510  171.0160  141.6420 C   0  0  0  0  0  1  0  0  0  0  0  0
  196.3230  175.3900  140.0240 C   0  0  0  0  0  0  0  0  0  0  0  0
  191.4270  172.1960  139.3160 O   0  0  0  0  0  0  0  0  0  0  0  0
  192.4870  172.4970  136.6860 O   0  0  0  0  0  0  0  0  0  0  0  0
  188.6990  175.6900  143.1950 C   0  0  0  0  0  3  0  0  0  0  0  0
  196.9590  174.8220  138.8390 C   0  0  2  0  0  3  0  0  0  0  0  0
  189.1060  172.3680  139.0850 N   0  0  0  0  0  2  0  0  0  0  0  0
  192.2720  174.9330  141.5290 S   0  0  0  0  0  0  0  0  0  0  0  0
  188.4120  172.8890  142.8240 C   0  0  1  0  0  3  0  0  0  0  0  0
  193.5850  172.8000  135.8310 C   0  0  0  0  0  2  0  0  0  0  0  0
  190.3950  171.9430  138.6330 C   0  0  0  0  0  0  0  0  0  0  0  0
  191.7390  168.1700  134.6910 F   0  0  0  0  0  0  0  0  0  0  0  0
  191.7280  175.9710  143.7460 C   0  0  0  0  0  3  0  0  0  0  0  0
  188.9270  173.0900  140.3360 C   0  0  0  0  0  2  0  0  0  0  0  0
  195.6750  176.6340  142.4600 O   0  0  0  0  0  0  0  0  0  0  0  0
  191.4650  169.0260  135.7020 C   0  0  0  0  0  0  0  0  0  0  0  0
  193.0490  176.2310  143.5410 N   0  0  0  0  0  0  0  0  0  0  0  0
  191.1240  175.2710  142.7040 C   0  0  0  0  0  0  0  0  0  0  0  0
  194.2430  174.1070  136.2380 C   0  0  0  0  0  2  0  0  0  0  0  0
  192.2000  170.3020  135.7980 C   0  0  0  0  0  3  0  0  0  0  0  0
  193.4950  175.7240  142.3690 C   0  0  0  0  0  0  0  0  0  0  0  0
  189.7300  174.7580  142.6440 C   0  0  1  0  0  3  0  0  0  0  0  0
  195.0830  173.9040  137.4870 C   0  0  0  0  0  2  0  0  0  0  0  0
  197.9410  175.8070  138.9070 N   0  0  0  0  0  2  0  0  0  0  0  0
  189.6210  173.4960  143.2580 O   0  0  0  0  0  0  0  0  0  0  0  0
  187.1510  173.7880  142.9170 C   0  0  0  0  0  2  0  0  0  0  0  0
  187.4590  175.2030  143.3520 C   0  0  0  0  0  0  0  0  0  0  0  0
  190.2290  169.6370  137.7510 C   0  0  0  0  0  2  0  0  0  0  0  0
  191.7830  171.2870  136.6140 C   0  0  0  0  0  0  0  0  0  0  0  0
  190.4850  171.1090  137.3960 C   0  0  2  0  0  3  0  0  0  0  0  0
  194.8650  175.8670  141.8740 C   0  0  0  0  0  0  0  0  0  0  0  0
  188.5480  172.1460  141.4850 C   0  0  1  0  0  3  0  0  0  0  0  0
  190.4980  168.7400  136.5740 C   0  0  0  0  0  3  0  0  0  0  0  0
  197.3960  176.3650  140.0540 O   0  0  0  0  0  0  0  0  0  0  0  0
  195.2580  175.1330  140.7150 N   0  0  0  0  0  0  0  0  0  0  0  0
  196.0830  175.0380  137.6160 C   0  0  0  0  0  2  0  0  0  0  0  0
  184.2670  178.4250  144.6060 C   0  0  0  0  0  1  0  0  0  0  0  0
  186.6430  178.1240  141.5470 C   0  0  0  0  0  1  0  0  0  0  0  0
  185.4770  177.7730  142.4760 C   0  0  0  0  0  0  0  0  0  0  0  0
  186.8480  177.5650  144.7230 S   0  0  0  0  0  0  0  0  0  0  0  0
  186.3210  176.0810  143.7910 C   0  0  1  0  0  3  0  0  0  0  0  0
  185.4740  176.3850  142.6990 O   0  0  0  0  0  0  0  0  0  0  0  0
  185.5900  178.5090  143.8260 C   0  0  2  0  0  0  0  0  0  0  0  0
  184.1980  178.1550  141.7320 C   0  0  0  0  0  1  0  0  0  0  0  0
  185.9700  179.8580  143.6040 O   0  0  0  0  0  0  0  0  0  0  0  0
  185.0830  180.7260  144.2690 C   0  0  0  0  0  1  0  0  0  0  0  0
  2 34  1  0  0  0  0
  2 35  2  0  0  0  0
  5 27  2  0  0  0  0
  6 36  1  6  0  0  0
  6 24  1  0  0  0  0
  6  2  1  0  0  0  0
  7 14  1  0  0  0  0
  8 21  1  0  0  0  0
  8 18  1  0  0  0  0
  9 26  1  6  0  0  0
  9 25  1  0  0  0  0
 10 19  1  0  0  0  0
 10  4  1  0  0  0  0
 11  7  1  0  0  0  0
 11  3  2  0  0  0  0
 12 16  1  0  0  0  0
 14 32  1  0  0  0  0
 16 20  1  0  0  0  0
 16 33  2  0  0  0  0
 17 13  1  0  0  0  0
 18 13  2  0  0  0  0
 19 23  1  0  0  0  0
 20 29  2  0  0  0  0
 21 17  2  0  0  0  0
 22 18  1  0  0  0  0
 22  5  1  1  0  0  0
 22 25  1  0  0  0  0
 23 36  1  0  0  0  0
 24 34  1  0  0  0  0
 26 27  1  0  0  0  0
 29  4  1  0  0  0  0
 29 30  1  0  0  0  0
 30 28  1  1  0  0  0
 30 11  1  0  0  0  0
 31 21  1  0  0  0  0
 31 15  2  0  0  0  0
 32  1  1  1  0  0  0
 32  9  1  0  0  0  0
 33 28  1  0  0  0  0
 35 31  1  0  0  0  0
 38 39  1  0  0  0  0
 39 42  1  0  0  0  0
 39 43  1  0  0  0  0
 41 27  1  6  0  0  0
 41 40  1  0  0  0  0
 42 41  1  0  0  0  0
 43 37  1  1  0  0  0
 43 40  1  0  0  0  0
 44 39  1  0  0  0  0
 45 43  1  0  0  0  0
 45 46  1  0  0  0  0
M  END
>  <MODEL>
5

>  <REMARK>
 VINA RESULT:      -5.6      3.956      6.827
  Name = 
  2 active torsions:
  status: ('A' for Active; 'I' for Inactive)
    1  A    between atoms: O_17  and  C_27
    2  A    between atoms: C_19  and  C_35
                            x       y       z     vdW  Elec       q    Type
                         _______ _______ _______ _____ _____    ______ ____

>  <TORSDO>
F 2

$$$$
