=
 OpenBabel11042414173D

 45 51  0  0  1  0  0  0  0  0999 V2000
  192.9640  175.4020  144.9110 C   0  0  1  0  0  3  0  0  0  0  0  0
  191.8130  176.3840  146.9420 C   0  0  0  0  0  1  0  0  0  0  0  0
  192.1850  176.6050  145.4830 C   0  0  2  0  0  3  0  0  0  0  0  0
  185.4830  178.3590  147.3430 N   0  0  0  0  0  0  0  0  0  0  0  0
  186.5890  177.7090  140.3880 C   0  0  0  0  0  0  0  0  0  0  0  0
  185.6470  178.0900  143.9190 N   0  0  0  0  0  0  0  0  0  0  0  0
  185.2430  177.6760  141.3810 S   0  0  0  0  0  0  0  0  0  0  0  0
  186.4680  177.3830  147.6940 C   0  0  0  0  0  3  0  0  0  0  0  0
  187.5500  177.8510  142.4320 C   0  0  0  0  0  0  0  0  0  0  0  0
  188.5560  177.4240  144.6830 C   0  0  0  0  0  0  0  0  0  0  0  0
  187.7410  177.8040  141.0770 N   0  0  0  0  0  2  0  0  0  0  0  0
  189.7330  176.9880  145.3240 C   0  0  0  0  0  3  0  0  0  0  0  0
  186.3900  178.5650  145.0650 C   0  0  2  0  0  3  0  0  0  0  0  0
  186.1790  177.8380  142.7690 C   0  0  0  0  0  0  0  0  0  0  0  0
  191.0490  177.3390  143.3480 C   0  0  0  0  0  3  0  0  0  0  0  0
  187.4110  177.0190  146.8320 C   0  0  0  0  0  3  0  0  0  0  0  0
  188.6220  177.7260  143.2750 C   0  0  0  0  0  0  0  0  0  0  0  0
  189.8940  177.6990  142.6610 C   0  0  0  0  0  3  0  0  0  0  0  0
  187.4640  177.5940  145.4650 C   0  0  0  0  0  0  0  0  0  0  0  0
  185.4300  178.9140  146.1710 C   0  0  0  0  0  3  0  0  0  0  0  0
  190.9640  176.9460  144.6800 C   0  0  0  0  0  0  0  0  0  0  0  0
  186.5460  177.6420  139.1320 O   0  0  0  0  0  0  0  0  0  0  0  0
  194.3760  175.7130  144.6640 N   0  0  0  0  0  2  0  0  0  0  0  0
  196.7690  174.1920  142.3480 O   0  0  0  0  0  0  0  0  0  0  0  0
  196.8500  175.4120  141.6300 C   0  0  2  0  0  3  0  0  0  0  0  0
  195.9080  174.2160  143.4310 C   0  0  0  0  0  0  0  0  0  0  0  0
  195.2000  175.3350  143.5460 C   0  0  0  0  0  0  0  0  0  0  0  0
  195.4830  176.4850  142.2080 S   0  0  0  0  0  0  0  0  0  0  0  0
  195.7080  174.6170  139.7540 O   0  0  0  0  0  0  0  0  0  0  0  0
  196.7380  175.1600  140.2030 N   0  0  0  0  0  0  0  0  0  0  0  0
  197.6820  175.6530  139.3330 O   0  0  0  0  0  0  0  0  0  0  0  0
  195.8270  173.1220  144.3430 N   0  0  0  0  0  2  0  0  0  0  0  0
  197.0890  173.6950  146.3230 C   0  0  0  0  0  1  0  0  0  0  0  0
  196.9460  172.7150  145.1790 C   0  0  0  0  0  3  0  0  0  0  0  0
  196.6960  171.3250  145.7400 C   0  0  0  0  0  1  0  0  0  0  0  0
  192.8580  174.2280  145.7720 N   0  0  0  0  0  2  0  0  0  0  0  0
  192.0920  173.5600  143.6730 C   0  0  0  0  0  0  0  0  0  0  0  0
  189.6920  173.4590  144.4190 C   0  0  0  0  0  3  0  0  0  0  0  0
  191.0230  173.3080  144.6300 C   0  0  0  0  0  0  0  0  0  0  0  0
  192.3730  173.1100  144.9760 C   0  0  2  0  0  3  0  0  0  0  0  0
  189.4600  173.9210  143.0720 C   0  0  0  0  0  0  0  0  0  0  0  0
  190.5310  174.1790  142.1050 C   0  0  0  0  0  3  0  0  0  0  0  0
  188.1800  174.1160  142.6750 F   0  0  0  0  0  0  0  0  0  0  0  0
  191.9240  173.9970  142.4010 C   0  0  0  0  0  0  0  0  0  0  0  0
  192.9350  174.2420  141.5330 F   0  0  0  0  0  0  0  0  0  0  0  0
  1 23  1  1  0  0  0
  1  3  1  0  0  0  0
  1 36  1  0  0  0  0
  3  2  1  1  0  0  0
  4  8  1  0  0  0  0
  5 11  1  0  0  0  0
  5  7  1  0  0  0  0
  6 13  1  0  0  0  0
  7 14  1  0  0  0  0
  9 14  1  0  0  0  0
  9 17  2  0  0  0  0
 10 12  1  0  0  0  0
 10 19  2  0  0  0  0
 11  9  1  0  0  0  0
 13 19  1  0  0  0  0
 13 20  1  1  0  0  0
 14  6  2  0  0  0  0
 15 21  1  0  0  0  0
 16  8  2  0  0  0  0
 17 10  1  0  0  0  0
 18 17  1  0  0  0  0
 18 15  2  0  0  0  0
 19 16  1  0  0  0  0
 20  4  2  0  0  0  0
 21 12  2  0  0  0  0
 21  3  1  0  0  0  0
 22  5  2  0  0  0  0
 24 26  1  0  0  0  0
 25 30  1  6  0  0  0
 25 28  1  0  0  0  0
 25 24  1  0  0  0  0
 26 27  2  0  0  0  0
 26 32  1  0  0  0  0
 27 23  1  0  0  0  0
 28 27  1  0  0  0  0
 29 30  2  0  0  0  0
 31 30  2  0  0  0  0
 32 34  1  0  0  0  0
 34 35  1  0  0  0  0
 34 33  1  0  0  0  0
 37 39  1  0  0  0  0
 37 40  1  0  0  0  0
 38 39  2  0  0  0  0
 39 40  1  0  0  0  0
 40 36  1  1  0  0  0
 41 38  1  0  0  0  0
 42 44  1  0  0  0  0
 42 41  2  0  0  0  0
 43 41  1  0  0  0  0
 44 37  2  0  0  0  0
 45 44  1  0  0  0  0
M  END
>  <MODEL>
1

>  <REMARK>
 VINA RESULT:      -8.6      0.000      0.000
  Name = 
  9 active torsions:
  status: ('A' for Active; 'I' for Inactive)
    1  A    between atoms: C_10  and  N_41
    2  A    between atoms: C_12  and  C_18
    3  A    between atoms: C_12  and  C_40
    4  A    between atoms: C_13  and  N_44
    5  A    between atoms: C_14  and  N_33
    6  A    between atoms: C_18  and  N_25
    7  A    between atoms: C_18  and  N_41
    8  A    between atoms: C_19  and  N_44
    9  A    between atoms: N_25  and  C_26
                            x       y       z     vdW  Elec       q    Type
                         _______ _______ _______ _____ _____    ______ ____

>  <TORSDO>
F 9

$$$$
=
 OpenBabel11042414173D

 45 51  0  0  1  0  0  0  0  0999 V2000
  191.8610  174.5490  145.2270 C   0  0  1  0  0  3  0  0  0  0  0  0
  191.4550  176.4050  146.9020 C   0  0  0  0  0  1  0  0  0  0  0  0
  191.5970  176.0560  145.4280 C   0  0  2  0  0  3  0  0  0  0  0  0
  185.1990  178.5710  147.4740 N   0  0  0  0  0  0  0  0  0  0  0  0
  186.0470  177.8710  140.4880 C   0  0  0  0  0  0  0  0  0  0  0  0
  185.2450  178.3220  144.0450 N   0  0  0  0  0  0  0  0  0  0  0  0
  184.7320  177.9860  141.5150 S   0  0  0  0  0  0  0  0  0  0  0  0
  186.0690  177.4820  147.7920 C   0  0  0  0  0  3  0  0  0  0  0  0
  187.0690  177.8760  142.5070 C   0  0  0  0  0  0  0  0  0  0  0  0
  188.0720  177.3080  144.7280 C   0  0  0  0  0  0  0  0  0  0  0  0
  187.2190  177.8210  141.1480 N   0  0  0  0  0  2  0  0  0  0  0  0
  189.2050  176.7280  145.3360 C   0  0  0  0  0  3  0  0  0  0  0  0
  186.0670  178.6930  145.1740 C   0  0  2  0  0  3  0  0  0  0  0  0
  185.7150  178.0210  142.8790 C   0  0  0  0  0  0  0  0  0  0  0  0
  190.5040  176.9430  143.3290 C   0  0  0  0  0  3  0  0  0  0  0  0
  186.9410  177.0180  146.9030 C   0  0  0  0  0  3  0  0  0  0  0  0
  188.1380  177.6150  143.3220 C   0  0  0  0  0  0  0  0  0  0  0  0
  189.3830  177.4440  142.6740 C   0  0  0  0  0  3  0  0  0  0  0  0
  187.0280  177.5980  145.5400 C   0  0  0  0  0  0  0  0  0  0  0  0
  185.1830  179.1410  146.3080 C   0  0  0  0  0  3  0  0  0  0  0  0
  190.4060  176.5480  144.6600 C   0  0  0  0  0  0  0  0  0  0  0  0
  185.9660  177.8230  139.2330 O   0  0  0  0  0  0  0  0  0  0  0  0
  192.9940  174.0660  146.0230 N   0  0  0  0  0  2  0  0  0  0  0  0
  196.2450  173.0410  144.6870 O   0  0  0  0  0  0  0  0  0  0  0  0
  195.7200  171.7580  144.3930 C   0  0  2  0  0  3  0  0  0  0  0  0
  195.3430  173.9130  145.2720 C   0  0  0  0  0  0  0  0  0  0  0  0
  194.1730  173.3660  145.5830 C   0  0  0  0  0  0  0  0  0  0  0  0
  194.1040  171.6140  145.2420 S   0  0  0  0  0  0  0  0  0  0  0  0
  197.3680  170.1440  144.0270 O   0  0  0  0  0  0  0  0  0  0  0  0
  196.6350  170.7270  144.8520 N   0  0  0  0  0  0  0  0  0  0  0  0
  196.8100  170.4990  146.1970 O   0  0  0  0  0  0  0  0  0  0  0  0
  195.6680  175.2850  145.4920 N   0  0  0  0  0  2  0  0  0  0  0  0
  194.8360  177.5540  145.4590 C   0  0  0  0  0  1  0  0  0  0  0  0
  195.2000  176.3490  144.6180 C   0  0  0  0  0  3  0  0  0  0  0  0
  196.2950  176.7370  143.6380 C   0  0  0  0  0  1  0  0  0  0  0  0
  190.6750  173.7480  145.5160 N   0  0  0  0  0  2  0  0  0  0  0  0
  191.1750  173.1680  143.3130 C   0  0  0  0  0  0  0  0  0  0  0  0
  188.8300  173.5980  142.5130 C   0  0  0  0  0  3  0  0  0  0  0  0
  189.7240  173.1830  143.4430 C   0  0  0  0  0  0  0  0  0  0  0  0
  190.5460  172.7230  144.4900 C   0  0  2  0  0  3  0  0  0  0  0  0
  189.5250  174.0430  141.3290 C   0  0  0  0  0  0  0  0  0  0  0  0
  190.9840  174.0330  141.1930 C   0  0  0  0  0  3  0  0  0  0  0  0
  188.7880  174.4820  140.2830 F   0  0  0  0  0  0  0  0  0  0  0  0
  191.8720  173.5790  142.2250 C   0  0  0  0  0  0  0  0  0  0  0  0
  193.2240  173.5730  142.1320 F   0  0  0  0  0  0  0  0  0  0  0  0
  1  3  1  0  0  0  0
  1 36  1  1  0  0  0
  1 23  1  0  0  0  0
  3  2  1  1  0  0  0
  4  8  1  0  0  0  0
  5 11  1  0  0  0  0
  5  7  1  0  0  0  0
  6 13  1  0  0  0  0
  7 14  1  0  0  0  0
  9 14  1  0  0  0  0
  9 17  2  0  0  0  0
 10 12  1  0  0  0  0
 10 19  2  0  0  0  0
 11  9  1  0  0  0  0
 13 19  1  0  0  0  0
 13 20  1  1  0  0  0
 14  6  2  0  0  0  0
 15 21  1  0  0  0  0
 16  8  2  0  0  0  0
 17 10  1  0  0  0  0
 18 17  1  0  0  0  0
 18 15  2  0  0  0  0
 19 16  1  0  0  0  0
 20  4  2  0  0  0  0
 21 12  2  0  0  0  0
 21  3  1  0  0  0  0
 22  5  2  0  0  0  0
 24 26  1  0  0  0  0
 25 24  1  0  0  0  0
 25 30  1  1  0  0  0
 25 28  1  0  0  0  0
 26 32  1  0  0  0  0
 26 27  2  0  0  0  0
 27 23  1  0  0  0  0
 28 27  1  0  0  0  0
 29 30  2  0  0  0  0
 30 31  2  0  0  0  0
 34 33  1  0  0  0  0
 34 32  1  0  0  0  0
 35 34  1  0  0  0  0
 37 39  1  0  0  0  0
 37 40  1  0  0  0  0
 38 39  2  0  0  0  0
 39 40  1  0  0  0  0
 40 36  1  1  0  0  0
 41 38  1  0  0  0  0
 42 41  2  0  0  0  0
 42 44  1  0  0  0  0
 43 41  1  0  0  0  0
 44 37  2  0  0  0  0
 45 44  1  0  0  0  0
M  END
>  <MODEL>
2

>  <REMARK>
 VINA RESULT:      -8.4      2.049      2.806
  Name = 
  9 active torsions:
  status: ('A' for Active; 'I' for Inactive)
    1  A    between atoms: C_10  and  N_41
    2  A    between atoms: C_12  and  C_18
    3  A    between atoms: C_12  and  C_40
    4  A    between atoms: C_13  and  N_44
    5  A    between atoms: C_14  and  N_33
    6  A    between atoms: C_18  and  N_25
    7  A    between atoms: C_18  and  N_41
    8  A    between atoms: C_19  and  N_44
    9  A    between atoms: N_25  and  C_26
                            x       y       z     vdW  Elec       q    Type
                         _______ _______ _______ _____ _____    ______ ____

>  <TORSDO>
F 9

$$$$
=
 OpenBabel11042414173D

 45 51  0  0  1  0  0  0  0  0999 V2000
  192.1620  175.3920  144.8390 C   0  0  1  0  0  3  0  0  0  0  0  0
  191.2960  176.6730  146.8450 C   0  0  0  0  0  1  0  0  0  0  0  0
  191.5390  176.7110  145.3450 C   0  0  2  0  0  3  0  0  0  0  0  0
  184.9570  178.4230  147.6230 N   0  0  0  0  0  0  0  0  0  0  0  0
  185.6700  177.9610  140.6020 C   0  0  0  0  0  0  0  0  0  0  0  0
  184.9280  178.2470  144.1900 N   0  0  0  0  0  0  0  0  0  0  0  0
  184.3820  177.9020  141.6680 S   0  0  0  0  0  0  0  0  0  0  0  0
  185.9570  177.4370  147.8930 C   0  0  0  0  0  3  0  0  0  0  0  0
  186.7440  178.0460  142.5920 C   0  0  0  0  0  0  0  0  0  0  0  0
  187.8740  177.5560  144.7710 C   0  0  0  0  0  0  0  0  0  0  0  0
  186.8590  178.0350  141.2280 N   0  0  0  0  0  2  0  0  0  0  0  0
  189.0830  177.1010  145.3330 C   0  0  0  0  0  3  0  0  0  0  0  0
  185.7360  178.6890  145.3040 C   0  0  2  0  0  3  0  0  0  0  0  0
  185.3950  178.0260  143.0050 C   0  0  0  0  0  0  0  0  0  0  0  0
  190.2880  177.5040  143.2970 C   0  0  0  0  0  3  0  0  0  0  0  0
  186.8500  177.0950  146.9690 C   0  0  0  0  0  3  0  0  0  0  0  0
  187.8610  177.8960  143.3700 C   0  0  0  0  0  0  0  0  0  0  0  0
  189.0970  177.8840  142.6850 C   0  0  0  0  0  3  0  0  0  0  0  0
  186.8280  177.7070  145.6180 C   0  0  0  0  0  0  0  0  0  0  0  0
  184.8410  179.0100  146.4720 C   0  0  0  0  0  3  0  0  0  0  0  0
  190.2760  177.0750  144.6200 C   0  0  0  0  0  0  0  0  0  0  0  0
  185.5560  177.9280  139.3500 O   0  0  0  0  0  0  0  0  0  0  0  0
  191.1510  174.4060  144.4470 N   0  0  0  0  0  2  0  0  0  0  0  0
  191.6050  172.0570  141.6760 O   0  0  0  0  0  0  0  0  0  0  0  0
  190.9740  172.9720  140.7960 C   0  0  2  0  0  3  0  0  0  0  0  0
  191.6990  172.4890  142.9870 C   0  0  0  0  0  0  0  0  0  0  0  0
  191.0680  173.6320  143.2360 C   0  0  0  0  0  0  0  0  0  0  0  0
  190.1820  174.2670  141.8210 S   0  0  0  0  0  0  0  0  0  0  0  0
  190.3550  171.4080  139.1750 O   0  0  0  0  0  0  0  0  0  0  0  0
  189.9850  172.2830  139.9840 N   0  0  0  0  0  0  0  0  0  0  0  0
  188.6420  172.4760  140.2100 O   0  0  0  0  0  0  0  0  0  0  0  0
  192.4380  171.7550  143.9620 N   0  0  0  0  0  2  0  0  0  0  0  0
  194.2450  171.2300  145.4800 C   0  0  0  0  0  1  0  0  0  0  0  0
  193.8250  172.0530  144.2810 C   0  0  0  0  0  3  0  0  0  0  0  0
  194.7160  171.7040  143.0990 C   0  0  0  0  0  1  0  0  0  0  0  0
  193.0880  175.6190  143.7340 N   0  0  0  0  0  2  0  0  0  0  0  0
  195.4180  175.6180  143.8400 C   0  0  0  0  0  0  0  0  0  0  0  0
  195.4560  174.7880  146.2140 C   0  0  0  0  0  3  0  0  0  0  0  0
  194.9180  175.5160  145.2040 C   0  0  0  0  0  0  0  0  0  0  0  0
  194.2630  176.3110  144.2450 C   0  0  2  0  0  3  0  0  0  0  0  0
  196.6340  174.0990  145.7470 C   0  0  0  0  0  0  0  0  0  0  0  0
  197.1410  174.1960  144.3750 C   0  0  0  0  0  3  0  0  0  0  0  0
  197.3160  173.3300  146.6280 F   0  0  0  0  0  0  0  0  0  0  0  0
  196.5160  174.9880  143.3550 C   0  0  0  0  0  0  0  0  0  0  0  0
  196.9540  175.0830  142.0760 F   0  0  0  0  0  0  0  0  0  0  0  0
  1 36  1  6  0  0  0
  1  3  1  0  0  0  0
  3  2  1  1  0  0  0
  4  8  1  0  0  0  0
  5 11  1  0  0  0  0
  5  7  1  0  0  0  0
  6 13  1  0  0  0  0
  7 14  1  0  0  0  0
  9 14  1  0  0  0  0
  9 17  2  0  0  0  0
 10 12  1  0  0  0  0
 10 19  2  0  0  0  0
 11  9  1  0  0  0  0
 13 19  1  0  0  0  0
 13 20  1  1  0  0  0
 14  6  2  0  0  0  0
 15 21  1  0  0  0  0
 16  8  2  0  0  0  0
 17 10  1  0  0  0  0
 18 15  2  0  0  0  0
 18 17  1  0  0  0  0
 19 16  1  0  0  0  0
 20  4  2  0  0  0  0
 21 12  2  0  0  0  0
 21  3  1  0  0  0  0
 22  5  2  0  0  0  0
 23  1  1  0  0  0  0
 24 26  1  0  0  0  0
 25 30  1  1  0  0  0
 25 24  1  0  0  0  0
 25 28  1  0  0  0  0
 26 27  2  0  0  0  0
 26 32  1  0  0  0  0
 27 23  1  0  0  0  0
 28 27  1  0  0  0  0
 29 30  2  0  0  0  0
 30 31  2  0  0  0  0
 32 34  1  0  0  0  0
 34 33  1  0  0  0  0
 35 34  1  0  0  0  0
 37 40  1  0  0  0  0
 37 39  1  0  0  0  0
 39 38  2  0  0  0  0
 40 36  1  6  0  0  0
 40 39  1  0  0  0  0
 41 38  1  0  0  0  0
 41 43  1  0  0  0  0
 42 41  2  0  0  0  0
 44 37  2  0  0  0  0
 44 42  1  0  0  0  0
 45 44  1  0  0  0  0
M  END
>  <MODEL>
3

>  <REMARK>
 VINA RESULT:      -8.2      2.716      4.083
  Name = 
  9 active torsions:
  status: ('A' for Active; 'I' for Inactive)
    1  A    between atoms: C_10  and  N_41
    2  A    between atoms: C_12  and  C_18
    3  A    between atoms: C_12  and  C_40
    4  A    between atoms: C_13  and  N_44
    5  A    between atoms: C_14  and  N_33
    6  A    between atoms: C_18  and  N_25
    7  A    between atoms: C_18  and  N_41
    8  A    between atoms: C_19  and  N_44
    9  A    between atoms: N_25  and  C_26
                            x       y       z     vdW  Elec       q    Type
                         _______ _______ _______ _____ _____    ______ ____

>  <TORSDO>
F 9

$$$$
=
 OpenBabel11042414173D

 45 51  0  0  1  0  0  0  0  0999 V2000
  192.5390  175.6310  144.5950 C   0  0  1  0  0  3  0  0  0  0  0  0
  191.4670  176.4440  146.7400 C   0  0  0  0  0  1  0  0  0  0  0  0
  191.7520  176.7670  145.2810 C   0  0  2  0  0  3  0  0  0  0  0  0
  185.1730  178.4350  147.6010 N   0  0  0  0  0  0  0  0  0  0  0  0
  185.8290  177.9110  140.5790 C   0  0  0  0  0  0  0  0  0  0  0  0
  185.1160  178.2250  144.1700 N   0  0  0  0  0  0  0  0  0  0  0  0
  184.5510  177.8500  141.6570 S   0  0  0  0  0  0  0  0  0  0  0  0
  186.1850  177.4620  147.8710 C   0  0  0  0  0  3  0  0  0  0  0  0
  186.9200  178.0260  142.5580 C   0  0  0  0  0  0  0  0  0  0  0  0
  188.0730  177.5700  144.7320 C   0  0  0  0  0  0  0  0  0  0  0  0
  187.0230  178.0030  141.1930 N   0  0  0  0  0  2  0  0  0  0  0  0
  189.2920  177.1330  145.2880 C   0  0  0  0  0  3  0  0  0  0  0  0
  185.9280  178.6860  145.2720 C   0  0  2  0  0  3  0  0  0  0  0  0
  185.5740  177.9970  142.9830 C   0  0  0  0  0  0  0  0  0  0  0  0
  190.4750  177.5280  143.2370 C   0  0  0  0  0  3  0  0  0  0  0  0
  187.0730  177.1200  146.9430 C   0  0  0  0  0  3  0  0  0  0  0  0
  188.0450  177.8960  143.3280 C   0  0  0  0  0  0  0  0  0  0  0  0
  189.2750  177.8890  142.6320 C   0  0  0  0  0  3  0  0  0  0  0  0
  187.0330  177.7180  145.5860 C   0  0  0  0  0  0  0  0  0  0  0  0
  185.0400  179.0090  146.4450 C   0  0  0  0  0  3  0  0  0  0  0  0
  190.4790  177.1110  144.5650 C   0  0  0  0  0  0  0  0  0  0  0  0
  185.7050  177.8640  139.3270 O   0  0  0  0  0  0  0  0  0  0  0  0
  191.6770  174.7470  143.8040 N   0  0  0  0  0  2  0  0  0  0  0  0
  191.3790  171.2750  142.6810 O   0  0  0  0  0  0  0  0  0  0  0  0
  192.1220  170.8460  143.8100 C   0  0  2  0  0  3  0  0  0  0  0  0
  191.1850  172.6440  142.6040 C   0  0  0  0  0  0  0  0  0  0  0  0
  191.8360  173.3430  143.5270 C   0  0  0  0  0  0  0  0  0  0  0  0
  192.8690  172.3320  144.5770 S   0  0  0  0  0  0  0  0  0  0  0  0
  192.9120  169.0900  142.4880 O   0  0  0  0  0  0  0  0  0  0  0  0
  193.1510  169.9050  143.4020 N   0  0  0  0  0  0  0  0  0  0  0  0
  194.4280  170.0080  143.9030 O   0  0  0  0  0  0  0  0  0  0  0  0
  190.3340  173.2210  141.6150 N   0  0  0  0  0  2  0  0  0  0  0  0
  188.2860  174.3360  142.2520 C   0  0  0  0  0  1  0  0  0  0  0  0
  188.8870  173.0830  141.6520 C   0  0  0  0  0  3  0  0  0  0  0  0
  188.3470  172.8960  140.2430 C   0  0  0  0  0  1  0  0  0  0  0  0
  193.6180  176.1480  143.7580 N   0  0  0  0  0  2  0  0  0  0  0  0
  195.8960  175.9560  144.2190 C   0  0  0  0  0  0  0  0  0  0  0  0
  195.5160  174.5010  146.2350 C   0  0  0  0  0  3  0  0  0  0  0  0
  195.1720  175.5150  145.4030 C   0  0  0  0  0  0  0  0  0  0  0  0
  194.7050  176.5890  144.6210 C   0  0  2  0  0  3  0  0  0  0  0  0
  196.7400  173.8890  145.7790 C   0  0  0  0  0  0  0  0  0  0  0  0
  197.4730  174.3260  144.5880 C   0  0  0  0  0  3  0  0  0  0  0  0
  197.2470  172.8600  146.4990 F   0  0  0  0  0  0  0  0  0  0  0  0
  197.0460  175.4120  143.7510 C   0  0  0  0  0  0  0  0  0  0  0  0
  197.6950  175.8270  142.6360 F   0  0  0  0  0  0  0  0  0  0  0  0
  1 36  1  6  0  0  0
  1  3  1  0  0  0  0
  3  2  1  1  0  0  0
  4  8  1  0  0  0  0
  5 11  1  0  0  0  0
  5  7  1  0  0  0  0
  6 13  1  0  0  0  0
  7 14  1  0  0  0  0
  9 14  1  0  0  0  0
  9 17  2  0  0  0  0
 10 12  1  0  0  0  0
 10 19  2  0  0  0  0
 11  9  1  0  0  0  0
 13 19  1  0  0  0  0
 13 20  1  1  0  0  0
 14  6  2  0  0  0  0
 15 21  1  0  0  0  0
 16  8  2  0  0  0  0
 17 10  1  0  0  0  0
 18 15  2  0  0  0  0
 18 17  1  0  0  0  0
 19 16  1  0  0  0  0
 20  4  2  0  0  0  0
 21  3  1  0  0  0  0
 21 12  2  0  0  0  0
 22  5  2  0  0  0  0
 23  1  1  0  0  0  0
 24 25  1  0  0  0  0
 25 30  1  6  0  0  0
 25 28  1  0  0  0  0
 26 24  1  0  0  0  0
 26 27  2  0  0  0  0
 27 23  1  0  0  0  0
 27 28  1  0  0  0  0
 29 30  2  0  0  0  0
 30 31  2  0  0  0  0
 32 34  1  0  0  0  0
 32 26  1  0  0  0  0
 34 33  1  0  0  0  0
 35 34  1  0  0  0  0
 37 40  1  0  0  0  0
 37 39  1  0  0  0  0
 39 38  2  0  0  0  0
 40 36  1  6  0  0  0
 40 39  1  0  0  0  0
 41 38  1  0  0  0  0
 41 43  1  0  0  0  0
 42 41  2  0  0  0  0
 44 37  2  0  0  0  0
 44 42  1  0  0  0  0
 45 44  1  0  0  0  0
M  END
>  <MODEL>
4

>  <REMARK>
 VINA RESULT:      -8.1      2.842      4.765
  Name = 
  9 active torsions:
  status: ('A' for Active; 'I' for Inactive)
    1  A    between atoms: C_10  and  N_41
    2  A    between atoms: C_12  and  C_18
    3  A    between atoms: C_12  and  C_40
    4  A    between atoms: C_13  and  N_44
    5  A    between atoms: C_14  and  N_33
    6  A    between atoms: C_18  and  N_25
    7  A    between atoms: C_18  and  N_41
    8  A    between atoms: C_19  and  N_44
    9  A    between atoms: N_25  and  C_26
                            x       y       z     vdW  Elec       q    Type
                         _______ _______ _______ _____ _____    ______ ____

>  <TORSDO>
F 9

$$$$
=
 OpenBabel11042414173D

 45 51  0  0  1  0  0  0  0  0999 V2000
  189.8890  176.4480  145.0340 C   0  0  1  0  0  3  0  0  0  0  0  0
  190.9650  175.7500  147.2180 C   0  0  0  0  0  1  0  0  0  0  0  0
  190.1510  175.2880  146.0190 C   0  0  2  0  0  3  0  0  0  0  0  0
  196.8890  172.8310  146.0720 N   0  0  0  0  0  0  0  0  0  0  0  0
  192.4420  169.2900  141.8640 C   0  0  0  0  0  0  0  0  0  0  0  0
  195.0300  170.9150  143.9050 N   0  0  0  0  0  0  0  0  0  0  0  0
  194.1040  169.4520  141.9610 S   0  0  0  0  0  0  0  0  0  0  0  0
  196.2090  174.0790  145.9110 C   0  0  0  0  0  3  0  0  0  0  0  0
  192.6360  170.8300  143.5110 C   0  0  0  0  0  0  0  0  0  0  0  0
  192.8930  172.9070  144.8820 C   0  0  0  0  0  0  0  0  0  0  0  0
  191.7910  170.0770  142.7410 N   0  0  0  0  0  2  0  0  0  0  0  0
  192.1940  174.0380  145.3530 C   0  0  0  0  0  3  0  0  0  0  0  0
  194.9630  171.5810  145.1860 C   0  0  2  0  0  3  0  0  0  0  0  0
  193.9910  170.5550  143.2260 C   0  0  0  0  0  0  0  0  0  0  0  0
  190.0660  173.0270  144.8950 C   0  0  0  0  0  3  0  0  0  0  0  0
  194.9590  174.1260  145.4630 C   0  0  0  0  0  3  0  0  0  0  0  0
  192.1310  171.8360  144.2910 C   0  0  0  0  0  0  0  0  0  0  0  0
  190.7220  171.9280  144.3490 C   0  0  0  0  0  3  0  0  0  0  0  0
  194.2300  172.8880  145.0910 C   0  0  0  0  0  0  0  0  0  0  0  0
  196.3500  171.6920  145.7630 C   0  0  0  0  0  3  0  0  0  0  0  0
  190.8060  174.1060  145.3680 C   0  0  0  0  0  0  0  0  0  0  0  0
  191.8490  168.5280  141.0570 O   0  0  0  0  0  0  0  0  0  0  0  0
  188.7120  177.2420  145.4000 N   0  0  0  0  0  2  0  0  0  0  0  0
  185.1960  176.9780  144.4140 O   0  0  0  0  0  0  0  0  0  0  0  0
  185.5720  177.0670  143.0500 C   0  0  2  0  0  3  0  0  0  0  0  0
  186.2510  177.0390  145.3080 C   0  0  0  0  0  0  0  0  0  0  0  0
  187.4280  177.3020  144.7510 C   0  0  0  0  0  0  0  0  0  0  0  0
  187.3230  177.5990  142.9930 S   0  0  0  0  0  0  0  0  0  0  0  0
  183.8260  178.6170  142.9910 O   0  0  0  0  0  0  0  0  0  0  0  0
  184.7210  178.0210  142.3590 N   0  0  0  0  0  0  0  0  0  0  0  0
  184.9950  178.3860  141.0610 O   0  0  0  0  0  0  0  0  0  0  0  0
  186.0580  176.8140  146.7040 N   0  0  0  0  0  2  0  0  0  0  0  0
  186.6910  178.7460  148.0110 C   0  0  0  0  0  1  0  0  0  0  0  0
  185.5500  177.8410  147.5990 C   0  0  0  0  0  3  0  0  0  0  0  0
  184.4870  178.6660  146.8930 C   0  0  0  0  0  1  0  0  0  0  0  0
  191.0530  177.3200  144.9020 N   0  0  0  0  0  2  0  0  0  0  0  0
  191.0050  176.3940  142.7630 C   0  0  0  0  0  0  0  0  0  0  0  0
  193.5040  176.1370  142.6570 C   0  0  0  0  0  3  0  0  0  0  0  0
  192.3790  176.7920  143.0360 C   0  0  0  0  0  0  0  0  0  0  0  0
  191.2920  177.5650  143.4870 C   0  0  2  0  0  3  0  0  0  0  0  0
  193.1540  174.9480  141.9200 C   0  0  0  0  0  0  0  0  0  0  0  0
  191.7730  174.5410  141.6440 C   0  0  0  0  0  3  0  0  0  0  0  0
  194.1560  174.1710  141.4470 F   0  0  0  0  0  0  0  0  0  0  0  0
  190.6270  175.2860  142.0790 C   0  0  0  0  0  0  0  0  0  0  0  0
  189.3410  174.9250  141.8510 F   0  0  0  0  0  0  0  0  0  0  0  0
  1 36  1  1  0  0  0
  1 23  1  0  0  0  0
  1  3  1  0  0  0  0
  3  2  1  1  0  0  0
  5  7  1  0  0  0  0
  5 11  1  0  0  0  0
  6 13  1  0  0  0  0
  7 14  1  0  0  0  0
  8  4  1  0  0  0  0
  9 17  2  0  0  0  0
 10 19  2  0  0  0  0
 10 12  1  0  0  0  0
 11  9  1  0  0  0  0
 12 21  2  0  0  0  0
 13 20  1  6  0  0  0
 14  9  1  0  0  0  0
 14  6  2  0  0  0  0
 15 21  1  0  0  0  0
 16  8  2  0  0  0  0
 17 18  1  0  0  0  0
 17 10  1  0  0  0  0
 18 15  2  0  0  0  0
 19 13  1  0  0  0  0
 19 16  1  0  0  0  0
 20  4  2  0  0  0  0
 21  3  1  0  0  0  0
 22  5  2  0  0  0  0
 24 26  1  0  0  0  0
 25 30  1  6  0  0  0
 25 24  1  0  0  0  0
 26 32  1  0  0  0  0
 27 26  2  0  0  0  0
 27 23  1  0  0  0  0
 28 25  1  0  0  0  0
 28 27  1  0  0  0  0
 30 29  2  0  0  0  0
 31 30  2  0  0  0  0
 32 34  1  0  0  0  0
 34 33  1  0  0  0  0
 35 34  1  0  0  0  0
 37 39  1  0  0  0  0
 37 40  1  0  0  0  0
 38 39  2  0  0  0  0
 39 40  1  0  0  0  0
 40 36  1  1  0  0  0
 41 38  1  0  0  0  0
 42 41  2  0  0  0  0
 42 44  1  0  0  0  0
 43 41  1  0  0  0  0
 44 37  2  0  0  0  0
 45 44  1  0  0  0  0
M  END
>  <MODEL>
5

>  <REMARK>
 VINA RESULT:      -8.0      3.093      8.808
  Name = 
  9 active torsions:
  status: ('A' for Active; 'I' for Inactive)
    1  A    between atoms: C_10  and  N_41
    2  A    between atoms: C_12  and  C_18
    3  A    between atoms: C_12  and  C_40
    4  A    between atoms: C_13  and  N_44
    5  A    between atoms: C_14  and  N_33
    6  A    between atoms: C_18  and  N_25
    7  A    between atoms: C_18  and  N_41
    8  A    between atoms: C_19  and  N_44
    9  A    between atoms: N_25  and  C_26
                            x       y       z     vdW  Elec       q    Type
                         _______ _______ _______ _____ _____    ______ ____

>  <TORSDO>
F 9

$$$$
=
 OpenBabel11042414173D

 45 51  0  0  1  0  0  0  0  0999 V2000
  189.6610  176.6890  144.5020 C   0  0  1  0  0  3  0  0  0  0  0  0
  189.1090  175.3520  146.5810 C   0  0  0  0  0  1  0  0  0  0  0  0
  189.1130  175.3580  145.0600 C   0  0  2  0  0  3  0  0  0  0  0  0
  189.2000  172.1400  138.6510 N   0  0  0  0  0  0  0  0  0  0  0  0
  192.9830  168.9080  143.6770 C   0  0  0  0  0  0  0  0  0  0  0  0
  191.0940  170.2890  140.8440 N   0  0  0  0  0  0  0  0  0  0  0  0
  192.3160  168.4440  142.2140 S   0  0  0  0  0  0  0  0  0  0  0  0
  188.2370  172.6640  139.5700 C   0  0  0  0  0  3  0  0  0  0  0  0
  191.8630  170.7850  143.0920 C   0  0  0  0  0  0  0  0  0  0  0  0
  190.1660  172.5790  142.6840 C   0  0  0  0  0  0  0  0  0  0  0  0
  192.6620  170.1700  144.0180 N   0  0  0  0  0  2  0  0  0  0  0  0
  189.4560  173.6200  143.3160 C   0  0  0  0  0  3  0  0  0  0  0  0
  190.7820  171.6500  140.4710 C   0  0  0  0  0  0  0  0  0  0  0  0
  191.6140  169.9540  141.9790 C   0  0  1  0  0  3  0  0  0  0  0  0
  190.9770  173.6550  145.1720 C   0  0  0  0  0  3  0  0  0  0  0  0
  188.5010  172.7430  140.8700 C   0  0  0  0  0  3  0  0  0  0  0  0
  191.2710  171.9830  143.3930 C   0  0  0  0  0  0  0  0  0  0  0  0
  191.6560  172.5750  144.6170 C   0  0  0  0  0  3  0  0  0  0  0  0
  189.7950  172.2700  141.4190 C   0  0  0  0  0  0  0  0  0  0  0  0
  190.3560  171.6870  139.0270 C   0  0  0  0  0  3  0  0  0  0  0  0
  189.8470  174.1590  144.5360 C   0  0  0  0  0  0  0  0  0  0  0  0
  193.7000  168.1660  144.3970 O   0  0  0  0  0  0  0  0  0  0  0  0
  188.6300  177.7280  144.4110 N   0  0  0  0  0  2  0  0  0  0  0  0
  185.1760  177.1650  143.3340 O   0  0  0  0  0  0  0  0  0  0  0  0
  185.5750  177.3030  141.9810 C   0  0  2  0  0  3  0  0  0  0  0  0
  186.1990  177.3080  144.2550 C   0  0  0  0  0  0  0  0  0  0  0  0
  187.3620  177.6820  143.7310 C   0  0  0  0  0  0  0  0  0  0  0  0
  187.2730  177.9900  141.9730 S   0  0  0  0  0  0  0  0  0  0  0  0
  184.9130  178.5270  140.1050 O   0  0  0  0  0  0  0  0  0  0  0  0
  184.6600  178.1870  141.2780 N   0  0  0  0  0  0  0  0  0  0  0  0
  183.4500  178.5240  141.8380 O   0  0  0  0  0  0  0  0  0  0  0  0
  185.9940  177.0490  145.6430 N   0  0  0  0  0  2  0  0  0  0  0  0
  184.3950  178.6500  146.4940 C   0  0  0  0  0  1  0  0  0  0  0  0
  185.8050  178.1120  146.6170 C   0  0  0  0  0  3  0  0  0  0  0  0
  186.0120  177.5710  148.0230 C   0  0  0  0  0  1  0  0  0  0  0  0
  190.7910  177.1800  145.2850 N   0  0  0  0  0  2  0  0  0  0  0  0
  192.2550  176.6790  143.5400 C   0  0  0  0  0  0  0  0  0  0  0  0
  194.2790  176.7170  145.0320 C   0  0  0  0  0  3  0  0  0  0  0  0
  193.0550  177.1620  144.6570 C   0  0  0  0  0  0  0  0  0  0  0  0
  191.7920  177.7150  144.3730 C   0  0  2  0  0  3  0  0  0  0  0  0
  194.7060  175.6590  144.1480 C   0  0  0  0  0  0  0  0  0  0  0  0
  193.9050  175.1660  143.0240 C   0  0  0  0  0  3  0  0  0  0  0  0
  195.9190  175.0980  144.3630 F   0  0  0  0  0  0  0  0  0  0  0  0
  192.6110  175.6880  142.6870 C   0  0  0  0  0  0  0  0  0  0  0  0
  191.8420  175.2410  141.6640 F   0  0  0  0  0  0  0  0  0  0  0  0
  1 23  1  1  0  0  0
  1  3  1  0  0  0  0
  1 36  1  0  0  0  0
  3  2  1  1  0  0  0
  4 20  2  0  0  0  0
  4  8  1  0  0  0  0
  5 11  1  0  0  0  0
  5 22  2  0  0  0  0
  7  5  1  0  0  0  0
  8 16  2  0  0  0  0
  9 17  2  0  0  0  0
  9 11  1  0  0  0  0
 10 12  1  0  0  0  0
 10 17  1  0  0  0  0
 12 21  2  0  0  0  0
 13  6  2  0  0  0  0
 13 19  1  0  0  0  0
 14  6  1  6  0  0  0
 14  7  1  0  0  0  0
 14  9  1  0  0  0  0
 16 19  1  0  0  0  0
 17 18  1  0  0  0  0
 18 15  2  0  0  0  0
 19 10  2  0  0  0  0
 20 13  1  0  0  0  0
 21  3  1  0  0  0  0
 21 15  1  0  0  0  0
 24 26  1  0  0  0  0
 25 30  1  6  0  0  0
 25 24  1  0  0  0  0
 26 32  1  0  0  0  0
 27 26  2  0  0  0  0
 27 23  1  0  0  0  0
 28 25  1  0  0  0  0
 28 27  1  0  0  0  0
 29 30  2  0  0  0  0
 30 31  2  0  0  0  0
 32 34  1  0  0  0  0
 33 34  1  0  0  0  0
 34 35  1  0  0  0  0
 37 40  1  0  0  0  0
 37 39  1  0  0  0  0
 39 38  2  0  0  0  0
 40 39  1  0  0  0  0
 40 36  1  1  0  0  0
 41 43  1  0  0  0  0
 41 38  1  0  0  0  0
 42 41  2  0  0  0  0
 44 42  1  0  0  0  0
 44 37  2  0  0  0  0
 45 44  1  0  0  0  0
M  END
>  <MODEL>
6

>  <REMARK>
 VINA RESULT:      -8.0      3.507      8.674
  Name = 
  9 active torsions:
  status: ('A' for Active; 'I' for Inactive)
    1  A    between atoms: C_10  and  N_41
    2  A    between atoms: C_12  and  C_18
    3  A    between atoms: C_12  and  C_40
    4  A    between atoms: C_13  and  N_44
    5  A    between atoms: C_14  and  N_33
    6  A    between atoms: C_18  and  N_25
    7  A    between atoms: C_18  and  N_41
    8  A    between atoms: C_19  and  N_44
    9  A    between atoms: N_25  and  C_26
                            x       y       z     vdW  Elec       q    Type
                         _______ _______ _______ _____ _____    ______ ____

>  <TORSDO>
F 9

$$$$
=
 OpenBabel11042414173D

 45 51  0  0  1  0  0  0  0  0999 V2000
  190.8730  174.9500  142.2850 C   0  0  1  0  0  3  0  0  0  0  0  0
  189.3790  173.1920  143.3310 C   0  0  0  0  0  1  0  0  0  0  0  0
  189.7630  174.6640  143.3190 C   0  0  2  0  0  3  0  0  0  0  0  0
  185.9220  178.7510  147.7900 N   0  0  0  0  0  0  0  0  0  0  0  0
  183.3570  178.2760  141.2170 C   0  0  0  0  0  0  0  0  0  0  0  0
  184.3740  178.7130  144.7200 N   0  0  0  0  0  0  0  0  0  0  0  0
  182.7240  178.6940  142.7070 S   0  0  0  0  0  0  0  0  0  0  0  0
  186.4990  177.4430  147.7690 C   0  0  0  0  0  3  0  0  0  0  0  0
  185.1230  177.8660  142.5720 C   0  0  0  0  0  0  0  0  0  0  0  0
  186.8010  176.9010  144.1580 C   0  0  0  0  0  0  0  0  0  0  0  0
  184.6340  177.8560  141.2930 N   0  0  0  0  0  2  0  0  0  0  0  0
  187.8720  175.9890  144.2430 C   0  0  0  0  0  3  0  0  0  0  0  0
  185.6780  178.7650  145.3410 C   0  0  2  0  0  3  0  0  0  0  0  0
  184.1750  178.3650  143.4920 C   0  0  0  0  0  0  0  0  0  0  0  0
  188.1520  175.9520  141.8600 C   0  0  0  0  0  3  0  0  0  0  0  0
  186.7180  176.8080  146.6230 C   0  0  0  0  0  3  0  0  0  0  0  0
  186.3210  177.2640  142.8480 C   0  0  0  0  0  0  0  0  0  0  0  0
  187.0470  176.7890  141.7320 C   0  0  0  0  0  3  0  0  0  0  0  0
  186.3520  177.4230  145.3230 C   0  0  0  0  0  0  0  0  0  0  0  0
  185.5530  179.3740  146.7130 C   0  0  0  0  0  3  0  0  0  0  0  0
  188.5460  175.5190  143.1220 C   0  0  0  0  0  0  0  0  0  0  0  0
  182.7190  178.3310  140.1330 O   0  0  0  0  0  0  0  0  0  0  0  0
  191.7900  176.0070  142.7220 N   0  0  0  0  0  2  0  0  0  0  0  0
  194.3280  176.1870  145.3540 O   0  0  0  0  0  0  0  0  0  0  0  0
  195.3470  176.0180  144.3840 C   0  0  2  0  0  3  0  0  0  0  0  0
  193.0410  176.1870  144.8450 C   0  0  0  0  0  0  0  0  0  0  0  0
  192.9620  175.8990  143.5510 C   0  0  0  0  0  0  0  0  0  0  0  0
  194.5430  175.4950  142.8240 S   0  0  0  0  0  0  0  0  0  0  0  0
  197.4030  174.9160  144.2540 O   0  0  0  0  0  0  0  0  0  0  0  0
  196.3010  175.0170  144.8310 N   0  0  0  0  0  0  0  0  0  0  0  0
  196.0640  174.2910  145.9750 O   0  0  0  0  0  0  0  0  0  0  0  0
  191.9150  176.4960  145.6660 N   0  0  0  0  0  2  0  0  0  0  0  0
  191.3160  176.7580  147.9930 C   0  0  0  0  0  1  0  0  0  0  0  0
  191.6140  175.7680  146.8880 C   0  0  0  0  0  3  0  0  0  0  0  0
  190.4020  174.8760  146.6760 C   0  0  0  0  0  1  0  0  0  0  0  0
  191.6270  173.7450  141.9530 N   0  0  0  0  0  2  0  0  0  0  0  0
  190.5790  173.5240  139.8820 C   0  0  0  0  0  0  0  0  0  0  0  0
  191.3460  171.1480  139.5820 C   0  0  0  0  0  3  0  0  0  0  0  0
  191.5200  172.4200  140.0160 C   0  0  0  0  0  0  0  0  0  0  0  0
  191.8240  173.7030  140.5110 C   0  0  2  0  0  3  0  0  0  0  0  0
  190.0570  171.0190  138.9470 C   0  0  0  0  0  0  0  0  0  0  0  0
  189.1040  172.1250  138.8110 C   0  0  0  0  0  3  0  0  0  0  0  0
  189.7130  169.8130  138.4370 F   0  0  0  0  0  0  0  0  0  0  0  0
  189.3580  173.4510  139.2970 C   0  0  0  0  0  0  0  0  0  0  0  0
  188.4900  174.4870  139.1990 F   0  0  0  0  0  0  0  0  0  0  0  0
  1 36  1  1  0  0  0
  1 23  1  0  0  0  0
  1  3  1  0  0  0  0
  3  2  1  6  0  0  0
  5 11  1  0  0  0  0
  5  7  1  0  0  0  0
  6 13  1  0  0  0  0
  7 14  1  0  0  0  0
  8  4  1  0  0  0  0
  9 17  2  0  0  0  0
  9 14  1  0  0  0  0
 10 12  1  0  0  0  0
 10 19  2  0  0  0  0
 11  9  1  0  0  0  0
 13 20  1  1  0  0  0
 14  6  2  0  0  0  0
 15 21  1  0  0  0  0
 16  8  2  0  0  0  0
 17 10  1  0  0  0  0
 18 15  2  0  0  0  0
 18 17  1  0  0  0  0
 19 13  1  0  0  0  0
 19 16  1  0  0  0  0
 20  4  2  0  0  0  0
 21  3  1  0  0  0  0
 21 12  2  0  0  0  0
 22  5  2  0  0  0  0
 23 27  1  0  0  0  0
 25 30  1  1  0  0  0
 25 24  1  0  0  0  0
 26 24  1  0  0  0  0
 26 32  1  0  0  0  0
 27 26  2  0  0  0  0
 28 27  1  0  0  0  0
 28 25  1  0  0  0  0
 29 30  2  0  0  0  0
 30 31  2  0  0  0  0
 32 34  1  0  0  0  0
 34 33  1  0  0  0  0
 35 34  1  0  0  0  0
 37 39  1  0  0  0  0
 37 40  1  0  0  0  0
 38 39  2  0  0  0  0
 39 40  1  0  0  0  0
 40 36  1  1  0  0  0
 41 38  1  0  0  0  0
 42 41  2  0  0  0  0
 42 44  1  0  0  0  0
 43 41  1  0  0  0  0
 44 37  2  0  0  0  0
 45 44  1  0  0  0  0
M  END
>  <MODEL>
7

>  <REMARK>
 VINA RESULT:      -7.8      2.580      3.998
  Name = 
  9 active torsions:
  status: ('A' for Active; 'I' for Inactive)
    1  A    between atoms: C_10  and  N_41
    2  A    between atoms: C_12  and  C_18
    3  A    between atoms: C_12  and  C_40
    4  A    between atoms: C_13  and  N_44
    5  A    between atoms: C_14  and  N_33
    6  A    between atoms: C_18  and  N_25
    7  A    between atoms: C_18  and  N_41
    8  A    between atoms: C_19  and  N_44
    9  A    between atoms: N_25  and  C_26
                            x       y       z     vdW  Elec       q    Type
                         _______ _______ _______ _____ _____    ______ ____

>  <TORSDO>
F 9

$$$$
=
 OpenBabel11042414173D

 45 51  0  0  1  0  0  0  0  0999 V2000
  190.0260  176.2920  144.7110 C   0  0  1  0  0  3  0  0  0  0  0  0
  189.5260  174.5520  146.4820 C   0  0  0  0  0  1  0  0  0  0  0  0
  189.3390  174.9460  145.0250 C   0  0  2  0  0  3  0  0  0  0  0  0
  194.5660  170.0660  145.5680 N   0  0  0  0  0  0  0  0  0  0  0  0
  191.0030  169.9700  139.4600 C   0  0  0  0  0  0  0  0  0  0  0  0
  193.0850  169.7620  142.4800 N   0  0  0  0  0  0  0  0  0  0  0  0
  192.4950  169.4110  139.9700 S   0  0  0  0  0  0  0  0  0  0  0  0
  194.3940  171.4720  145.7650 C   0  0  0  0  0  3  0  0  0  0  0  0
  191.0690  170.7680  141.5770 C   0  0  0  0  0  0  0  0  0  0  0  0
  191.4500  172.0850  143.6710 C   0  0  0  0  0  0  0  0  0  0  0  0
  190.3580  170.6720  140.4120 N   0  0  0  0  0  2  0  0  0  0  0  0
  191.0070  173.2190  144.3820 C   0  0  0  0  0  3  0  0  0  0  0  0
  192.7840  170.0070  143.8720 C   0  0  2  0  0  3  0  0  0  0  0  0
  192.2890  170.0610  141.5070 C   0  0  0  0  0  0  0  0  0  0  0  0
  188.9700  173.3300  143.1180 C   0  0  0  0  0  3  0  0  0  0  0  0
  193.4520  172.1460  145.1120 C   0  0  0  0  0  3  0  0  0  0  0  0
  190.6540  171.6280  142.5590 C   0  0  0  0  0  0  0  0  0  0  0  0
  189.4100  172.2620  142.3420 C   0  0  0  0  0  3  0  0  0  0  0  0
  192.5610  171.4690  144.1390 C   0  0  0  0  0  0  0  0  0  0  0  0
  193.8500  169.3800  144.7310 C   0  0  0  0  0  3  0  0  0  0  0  0
  189.7890  173.8360  144.1220 C   0  0  0  0  0  0  0  0  0  0  0  0
  190.5250  169.7750  138.3120 O   0  0  0  0  0  0  0  0  0  0  0  0
  189.0700  177.3980  144.5910 N   0  0  0  0  0  2  0  0  0  0  0  0
  185.8260  177.8360  142.9510 O   0  0  0  0  0  0  0  0  0  0  0  0
  186.2970  177.1130  141.8260 C   0  0  2  0  0  3  0  0  0  0  0  0
  186.7520  177.9850  143.9700 C   0  0  0  0  0  0  0  0  0  0  0  0
  187.9690  177.5420  143.6750 C   0  0  0  0  0  0  0  0  0  0  0  0
  188.1130  176.9470  141.9960 S   0  0  0  0  0  0  0  0  0  0  0  0
  186.5770  177.5590  139.5510 O   0  0  0  0  0  0  0  0  0  0  0  0
  185.9570  177.8180  140.6020 N   0  0  0  0  0  0  0  0  0  0  0  0
  184.8620  178.6490  140.5580 O   0  0  0  0  0  0  0  0  0  0  0  0
  186.3910  178.5540  145.2270 N   0  0  0  0  0  2  0  0  0  0  0  0
  186.1770  178.7160  147.6300 C   0  0  0  0  0  1  0  0  0  0  0  0
  186.3540  177.7770  146.4560 C   0  0  0  0  0  3  0  0  0  0  0  0
  185.1910  176.8000  146.4180 C   0  0  0  0  0  1  0  0  0  0  0  0
  191.0450  176.6240  145.7030 N   0  0  0  0  0  2  0  0  0  0  0  0
  192.7690  176.4510  144.1420 C   0  0  0  0  0  0  0  0  0  0  0  0
  194.5560  176.3430  145.9080 C   0  0  0  0  0  3  0  0  0  0  0  0
  193.3720  176.7910  145.4230 C   0  0  0  0  0  0  0  0  0  0  0  0
  192.1300  177.3300  145.0360 C   0  0  2  0  0  3  0  0  0  0  0  0
  195.1680  175.4480  144.9550 C   0  0  0  0  0  0  0  0  0  0  0  0
  194.5650  175.1000  143.6660 C   0  0  0  0  0  3  0  0  0  0  0  0
  196.3700  174.9100  145.2660 F   0  0  0  0  0  0  0  0  0  0  0  0
  193.3030  175.6150  143.2170 C   0  0  0  0  0  0  0  0  0  0  0  0
  192.7160  175.2990  142.0380 F   0  0  0  0  0  0  0  0  0  0  0  0
  1 23  1  1  0  0  0
  1  3  1  0  0  0  0
  1 36  1  0  0  0  0
  3  2  1  1  0  0  0
  4  8  1  0  0  0  0
  5  7  1  0  0  0  0
  5 11  1  0  0  0  0
  6 13  1  0  0  0  0
  7 14  1  0  0  0  0
  9 17  2  0  0  0  0
 10 19  2  0  0  0  0
 10 12  1  0  0  0  0
 11  9  1  0  0  0  0
 13 19  1  0  0  0  0
 13 20  1  1  0  0  0
 14  9  1  0  0  0  0
 14  6  2  0  0  0  0
 15 21  1  0  0  0  0
 16  8  2  0  0  0  0
 17 10  1  0  0  0  0
 18 17  1  0  0  0  0
 18 15  2  0  0  0  0
 19 16  1  0  0  0  0
 20  4  2  0  0  0  0
 21 12  2  0  0  0  0
 21  3  1  0  0  0  0
 22  5  2  0  0  0  0
 24 26  1  0  0  0  0
 25 30  1  6  0  0  0
 25 28  1  0  0  0  0
 25 24  1  0  0  0  0
 26 32  1  0  0  0  0
 27 26  2  0  0  0  0
 27 23  1  0  0  0  0
 28 27  1  0  0  0  0
 29 30  2  0  0  0  0
 31 30  2  0  0  0  0
 32 34  1  0  0  0  0
 34 33  1  0  0  0  0
 35 34  1  0  0  0  0
 37 40  1  0  0  0  0
 37 39  1  0  0  0  0
 39 38  2  0  0  0  0
 40 39  1  0  0  0  0
 40 36  1  1  0  0  0
 41 43  1  0  0  0  0
 41 38  1  0  0  0  0
 42 41  2  0  0  0  0
 44 42  1  0  0  0  0
 44 37  2  0  0  0  0
 45 44  1  0  0  0  0
M  END
>  <MODEL>
8

>  <REMARK>
 VINA RESULT:      -7.8      3.265      8.373
  Name = 
  9 active torsions:
  status: ('A' for Active; 'I' for Inactive)
    1  A    between atoms: C_10  and  N_41
    2  A    between atoms: C_12  and  C_18
    3  A    between atoms: C_12  and  C_40
    4  A    between atoms: C_13  and  N_44
    5  A    between atoms: C_14  and  N_33
    6  A    between atoms: C_18  and  N_25
    7  A    between atoms: C_18  and  N_41
    8  A    between atoms: C_19  and  N_44
    9  A    between atoms: N_25  and  C_26
                            x       y       z     vdW  Elec       q    Type
                         _______ _______ _______ _____ _____    ______ ____

>  <TORSDO>
F 9

$$$$
=
 OpenBabel11042414173D

 45 51  0  0  1  0  0  0  0  0999 V2000
  188.7850  175.3580  142.8290 C   0  0  1  0  0  3  0  0  0  0  0  0
  190.2810  177.4010  142.7810 C   0  0  0  0  0  1  0  0  0  0  0  0
  189.8590  176.1750  143.5770 C   0  0  2  0  0  3  0  0  0  0  0  0
  196.8160  176.7290  141.9230 N   0  0  0  0  0  0  0  0  0  0  0  0
  195.0930  171.0410  145.7570 C   0  0  0  0  0  0  0  0  0  0  0  0
  196.3370  173.8500  143.7400 N   0  0  0  0  0  0  0  0  0  0  0  0
  196.3790  171.4600  144.7720 S   0  0  0  0  0  0  0  0  0  0  0  0
  195.5520  176.7890  141.2560 C   0  0  0  0  0  3  0  0  0  0  0  0
  194.4000  173.0440  144.9620 C   0  0  0  0  0  0  0  0  0  0  0  0
  193.4570  174.9370  143.6240 C   0  0  2  0  0  3  0  0  0  0  0  0
  194.1180  171.9700  145.7620 N   0  0  0  0  0  2  0  0  0  0  0  0
  192.2480  175.5620  143.2580 C   0  0  0  0  0  3  0  0  0  0  0  0
  195.9170  175.2300  143.6550 C   0  0  0  0  0  0  0  0  0  0  0  0
  195.6740  172.9320  144.3640 C   0  0  0  0  0  0  0  0  0  0  0  0
  191.0490  174.4980  145.0450 C   0  0  0  0  0  3  0  0  0  0  0  0
  194.4870  176.1630  141.7460 C   0  0  0  0  0  3  0  0  0  0  0  0
  193.4230  173.9630  144.6870 C   0  0  0  0  0  0  0  0  0  0  0  0
  192.2050  173.8020  145.3860 C   0  0  0  0  0  3  0  0  0  0  0  0
  194.5760  175.3590  142.9900 C   0  0  0  0  0  0  0  0  0  0  0  0
  197.0060  176.0440  143.0080 C   0  0  0  0  0  3  0  0  0  0  0  0
  191.0600  175.3570  143.9510 C   0  0  0  0  0  0  0  0  0  0  0  0
  195.0240  169.9730  146.4180 O   0  0  0  0  0  0  0  0  0  0  0  0
  187.4290  175.6330  143.3150 N   0  0  0  0  0  2  0  0  0  0  0  0
  186.5000  178.8430  144.8100 O   0  0  0  0  0  0  0  0  0  0  0  0
  186.6890  178.2960  146.1030 C   0  0  2  0  0  3  0  0  0  0  0  0
  186.7350  177.9610  143.7700 C   0  0  0  0  0  0  0  0  0  0  0  0
  186.9730  176.7110  144.1530 C   0  0  0  0  0  0  0  0  0  0  0  0
  186.8350  176.4800  145.9190 S   0  0  0  0  0  0  0  0  0  0  0  0
  185.6420  179.6340  147.7070 O   0  0  0  0  0  0  0  0  0  0  0  0
  185.5660  178.6380  146.9590 N   0  0  0  0  0  0  0  0  0  0  0  0
  184.3700  177.9690  146.8390 O   0  0  0  0  0  0  0  0  0  0  0  0
  186.7360  178.3940  142.4100 N   0  0  0  0  0  2  0  0  0  0  0  0
  185.6480  177.8460  140.3220 C   0  0  0  0  0  1  0  0  0  0  0  0
  185.5120  178.5690  141.6450 C   0  0  0  0  0  3  0  0  0  0  0  0
  184.3320  177.9920  142.4110 C   0  0  0  0  0  1  0  0  0  0  0  0
  188.8470  175.5740  141.3860 N   0  0  0  0  0  2  0  0  0  0  0  0
  189.2290  173.2900  141.6600 C   0  0  0  0  0  0  0  0  0  0  0  0
  191.4820  173.3830  140.5450 C   0  0  0  0  0  3  0  0  0  0  0  0
  190.1930  173.7800  140.6840 C   0  0  0  0  0  0  0  0  0  0  0  0
  188.8760  174.2780  140.7230 C   0  0  2  0  0  3  0  0  0  0  0  0
  191.7910  172.3720  141.5270 C   0  0  0  0  0  0  0  0  0  0  0  0
  190.8270  171.8760  142.5130 C   0  0  0  0  0  3  0  0  0  0  0  0
  193.0370  171.8450  141.5300 F   0  0  0  0  0  0  0  0  0  0  0  0
  189.4740  172.3460  142.6020 C   0  0  0  0  0  0  0  0  0  0  0  0
  188.5670  171.9160  143.5130 F   0  0  0  0  0  0  0  0  0  0  0  0
  1 36  1  6  0  0  0
  1 23  1  0  0  0  0
  1  3  1  0  0  0  0
  3  2  1  6  0  0  0
  3 21  1  0  0  0  0
  4 20  1  0  0  0  0
  5 11  1  0  0  0  0
  5 22  2  0  0  0  0
  6 14  2  0  0  0  0
  7  5  1  0  0  0  0
  8 16  1  0  0  0  0
  8  4  2  0  0  0  0
  9 11  1  0  0  0  0
 10 12  1  1  0  0  0
 10 17  1  0  0  0  0
 12 21  2  0  0  0  0
 13  6  1  0  0  0  0
 14  7  1  0  0  0  0
 14  9  1  0  0  0  0
 15 18  2  0  0  0  0
 16 19  2  0  0  0  0
 17  9  2  0  0  0  0
 17 18  1  0  0  0  0
 19 10  1  0  0  0  0
 19 13  1  0  0  0  0
 20 13  2  0  0  0  0
 21 15  1  0  0  0  0
 23 27  1  0  0  0  0
 24 25  1  0  0  0  0
 25 30  1  1  0  0  0
 26 27  2  0  0  0  0
 26 24  1  0  0  0  0
 27 28  1  0  0  0  0
 28 25  1  0  0  0  0
 30 29  2  0  0  0  0
 31 30  2  0  0  0  0
 32 26  1  0  0  0  0
 33 34  1  0  0  0  0
 34 32  1  0  0  0  0
 34 35  1  0  0  0  0
 37 44  1  0  0  0  0
 38 39  1  0  0  0  0
 38 41  2  0  0  0  0
 39 40  1  0  0  0  0
 39 37  2  0  0  0  0
 40 36  1  1  0  0  0
 40 37  1  0  0  0  0
 41 43  1  0  0  0  0
 41 42  1  0  0  0  0
 42 44  2  0  0  0  0
 44 45  1  0  0  0  0
M  END
>  <MODEL>
9

>  <REMARK>
 VINA RESULT:      -7.6      2.984      9.247
  Name = 
  9 active torsions:
  status: ('A' for Active; 'I' for Inactive)
    1  A    between atoms: C_10  and  N_41
    2  A    between atoms: C_12  and  C_18
    3  A    between atoms: C_12  and  C_40
    4  A    between atoms: C_13  and  N_44
    5  A    between atoms: C_14  and  N_33
    6  A    between atoms: C_18  and  N_25
    7  A    between atoms: C_18  and  N_41
    8  A    between atoms: C_19  and  N_44
    9  A    between atoms: N_25  and  C_26
                            x       y       z     vdW  Elec       q    Type
                         _______ _______ _______ _____ _____    ______ ____

>  <TORSDO>
F 9

$$$$
