=
 OpenBabel11042419313D

 32 34  0  0  1  0  0  0  0  0999 V2000
  189.3220  173.8740  143.1270 C   0  0  0  0  0  0  0  0  0  0  0  0
  190.7320  175.2300  144.7020 C   0  0  0  0  0  3  0  0  0  0  0  0
  190.7720  177.6410  144.5640 C   0  0  0  0  0  3  0  0  0  0  0  0
  188.4560  173.8610  141.9350 C   0  0  0  0  0  0  0  0  0  0  0  0
  188.5180  176.3170  141.8690 N   0  0  0  0  0  0  0  0  0  0  0  0
  189.4320  176.3630  142.9860 C   0  0  0  0  0  0  0  0  0  0  0  0
  189.8950  177.5930  143.4810 C   0  0  0  0  0  3  0  0  0  0  0  0
  187.8670  172.8060  141.5770 O   0  0  0  0  0  0  0  0  0  0  0  0
  189.5870  172.7380  143.7720 C   0  0  0  0  0  2  0  0  0  0  0  0
  191.1970  176.4570  145.1800 C   0  0  0  0  0  0  0  0  0  0  0  0
  189.8490  175.1690  143.6100 C   0  0  0  0  0  0  0  0  0  0  0  0
  188.3230  175.0910  141.0930 C   0  0  0  0  0  2  0  0  0  0  0  0
  187.9080  177.5410  141.3580 C   0  0  0  0  0  2  0  0  0  0  0  0
  186.4140  177.3530  141.1420 C   0  0  2  0  0  3  0  0  0  0  0  0
  186.0440  177.8720  139.9000 O   0  0  0  0  0  1  0  0  0  0  0  0
  185.6870  178.0430  142.1930 N   0  0  0  0  0  2  0  0  0  0  0  0
  185.4480  177.0760  143.2580 C   0  0  0  0  0  2  0  0  0  0  0  0
  187.3450  176.8010  146.4860 C   0  0  0  0  0  0  0  0  0  0  0  0
  184.4000  178.8680  146.4670 C   0  0  0  0  0  2  0  0  0  0  0  0
  184.4210  177.8500  145.3310 C   0  0  0  0  0  2  0  0  0  0  0  0
  186.6170  176.6420  145.3710 C   0  0  0  0  0  3  0  0  0  0  0  0
  188.1770  175.6530  146.9300 C   0  0  0  0  0  1  0  0  0  0  0  0
  185.0610  178.3210  147.7140 C   0  0  0  0  0  2  0  0  0  0  0  0
  187.4890  178.0680  147.2230 C   0  0  0  0  0  3  0  0  0  0  0  0
  186.4860  178.7570  147.7650 C   0  0  0  0  0  3  0  0  0  0  0  0
  186.5080  178.9810  144.4270 C   0  0  0  0  0  1  0  0  0  0  0  0
  185.7730  177.6550  144.6330 C   0  0  1  0  0  0  0  0  0  0  0  0
  192.1020  176.4760  146.2880 N   0  0  0  0  0  2  0  0  0  0  0  0
  193.4410  175.9020  146.2490 C   0  0  0  0  0  2  0  0  0  0  0  0
  194.7910  177.7490  145.6950 O   0  0  0  0  0  0  0  0  0  0  0  0
  194.6330  176.1620  143.9710 C   0  0  0  0  0  1  0  0  0  0  0  0
  194.3170  176.6870  145.3290 C   0  0  0  0  0  0  0  0  0  0  0  0
  1 11  1  0  0  0  0
  1  9  2  0  0  0  0
  2 10  1  0  0  0  0
  3 10  2  0  0  0  0
  4  1  1  0  0  0  0
  5  6  1  0  0  0  0
  6  7  2  0  0  0  0
  6 11  1  0  0  0  0
  7  3  1  0  0  0  0
  8  4  2  0  0  0  0
 10 28  1  0  0  0  0
 11  2  2  0  0  0  0
 12  5  1  0  0  0  0
 12  4  1  0  0  0  0
 13  5  1  0  0  0  0
 14 15  1  6  0  0  0
 14 13  1  0  0  0  0
 14 16  1  0  0  0  0
 16 17  1  0  0  0  0
 17 27  1  0  0  0  0
 18 22  1  0  0  0  0
 18 24  1  0  0  0  0
 19 23  1  0  0  0  0
 20 19  1  0  0  0  0
 21 18  2  0  0  0  0
 23 25  1  0  0  0  0
 24 25  2  0  0  0  0
 27 26  1  6  0  0  0
 27 20  1  0  0  0  0
 27 21  1  0  0  0  0
 29 28  1  0  0  0  0
 31 32  1  0  0  0  0
 32 30  2  0  0  0  0
 32 29  1  0  0  0  0
M  END
>  <MODEL>
1

>  <REMARK>
 VINA RESULT:      -7.9      0.000      0.000
  Name = 
  8 active torsions:
  status: ('A' for Active; 'I' for Inactive)
    1  A    between atoms: C_2  and  N_12
    2  A    between atoms: C_2  and  C_17
    3  A    between atoms: C_6  and  N_14
    4  A    between atoms: C_6  and  C_32
    5  A    between atoms: C_7  and  C_16
    6  A    between atoms: C_7  and  N_26
    7  A    between atoms: N_14  and  C_17
    8  A    between atoms: C_25  and  N_26
                            x       y       z     vdW  Elec       q    Type
                         _______ _______ _______ _____ _____    ______ ____

>  <TORSDO>
F 8

$$$$
=
 OpenBabel11042419313D

 32 34  0  0  1  0  0  0  0  0999 V2000
  185.2260  178.1490  144.5890 C   0  0  0  0  0  0  0  0  0  0  0  0
  183.5570  178.3670  142.7250 C   0  0  0  0  0  3  0  0  0  0  0  0
  184.2260  178.0770  140.4230 C   0  0  0  0  0  3  0  0  0  0  0  0
  186.6390  177.9910  144.9770 C   0  0  0  0  0  0  0  0  0  0  0  0
  187.2480  177.6780  142.6160 N   0  0  0  0  0  0  0  0  0  0  0  0
  185.8860  177.9070  142.1940 C   0  0  0  0  0  0  0  0  0  0  0  0
  185.5430  177.8630  140.8330 C   0  0  0  0  0  3  0  0  0  0  0  0
  186.9630  177.8330  146.1850 O   0  0  0  0  0  0  0  0  0  0  0  0
  184.2830  178.2450  145.5260 C   0  0  0  0  0  2  0  0  0  0  0  0
  183.2260  178.3320  141.3690 C   0  0  0  0  0  0  0  0  0  0  0  0
  184.8790  178.1540  143.1510 C   0  0  0  0  0  0  0  0  0  0  0  0
  187.7150  178.0890  143.9410 C   0  0  0  0  0  2  0  0  0  0  0  0
  188.2510  177.2060  141.6660 C   0  0  0  0  0  2  0  0  0  0  0  0
  188.3850  175.6920  141.7270 C   0  0  2  0  0  3  0  0  0  0  0  0
  187.3690  175.1560  142.5210 O   0  0  0  0  0  1  0  0  0  0  0  0
  189.6770  175.3470  142.2940 N   0  0  0  0  0  2  0  0  0  0  0  0
  189.4230  174.6010  143.5220 C   0  0  0  0  0  2  0  0  0  0  0  0
  192.5680  174.1740  145.5270 C   0  0  0  0  0  0  0  0  0  0  0  0
  189.8750  176.0150  147.0440 C   0  0  0  0  0  2  0  0  0  0  0  0
  189.4120  175.1080  145.9080 C   0  0  0  0  0  2  0  0  0  0  0  0
  191.4230  174.0650  144.8380 C   0  0  0  0  0  3  0  0  0  0  0  0
  193.5390  173.0540  145.4240 C   0  0  0  0  0  1  0  0  0  0  0  0
  191.0370  175.4060  147.8000 C   0  0  0  0  0  2  0  0  0  0  0  0
  192.9950  175.3760  146.2630 C   0  0  0  0  0  3  0  0  0  0  0  0
  192.3230  175.9380  147.2660 C   0  0  0  0  0  3  0  0  0  0  0  0
  190.8460  176.4640  144.3110 C   0  0  0  0  0  1  0  0  0  0  0  0
  190.3140  175.0750  144.6680 C   0  0  1  0  0  0  0  0  0  0  0  0
  181.8700  178.5630  140.9760 N   0  0  0  0  0  2  0  0  0  0  0  0
  180.8300  179.0200  141.8880 C   0  0  0  0  0  2  0  0  0  0  0  0
  179.3280  177.8440  140.5090 O   0  0  0  0  0  0  0  0  0  0  0  0
  178.5490  178.1230  142.7070 C   0  0  0  0  0  1  0  0  0  0  0  0
  179.5490  178.3020  141.6170 C   0  0  0  0  0  0  0  0  0  0  0  0
  1  4  1  0  0  0  0
  1  9  2  0  0  0  0
  2 11  1  0  0  0  0
  3  7  2  0  0  0  0
  3 10  1  0  0  0  0
  4  8  2  0  0  0  0
  5 12  1  0  0  0  0
  6  5  1  0  0  0  0
  6 11  2  0  0  0  0
  7  6  1  0  0  0  0
 10  2  2  0  0  0  0
 11  1  1  0  0  0  0
 12  4  1  0  0  0  0
 13 14  1  0  0  0  0
 13  5  1  0  0  0  0
 14 16  1  0  0  0  0
 14 15  1  1  0  0  0
 16 17  1  0  0  0  0
 17 27  1  0  0  0  0
 18 24  1  0  0  0  0
 19 23  1  0  0  0  0
 20 19  1  0  0  0  0
 21 18  2  0  0  0  0
 22 18  1  0  0  0  0
 24 25  2  0  0  0  0
 25 23  1  0  0  0  0
 27 26  1  6  0  0  0
 27 21  1  0  0  0  0
 27 20  1  0  0  0  0
 28 10  1  0  0  0  0
 28 29  1  0  0  0  0
 30 32  2  0  0  0  0
 32 29  1  0  0  0  0
 32 31  1  0  0  0  0
M  END
>  <MODEL>
2

>  <REMARK>
 VINA RESULT:      -6.6      2.977      7.884
  Name = 
  8 active torsions:
  status: ('A' for Active; 'I' for Inactive)
    1  A    between atoms: C_2  and  N_12
    2  A    between atoms: C_2  and  C_17
    3  A    between atoms: C_6  and  N_14
    4  A    between atoms: C_6  and  C_32
    5  A    between atoms: C_7  and  C_16
    6  A    between atoms: C_7  and  N_26
    7  A    between atoms: N_14  and  C_17
    8  A    between atoms: C_25  and  N_26
                            x       y       z     vdW  Elec       q    Type
                         _______ _______ _______ _____ _____    ______ ____

>  <TORSDO>
F 8

$$$$
=
 OpenBabel11042419313D

 32 34  0  0  1  0  0  0  0  0999 V2000
  187.9450  175.7610  141.8470 C   0  0  0  0  0  0  0  0  0  0  0  0
  187.8690  176.4940  144.2480 C   0  0  0  0  0  3  0  0  0  0  0  0
  189.0220  175.2430  145.9620 C   0  0  0  0  0  3  0  0  0  0  0  0
  188.3500  174.7290  140.8780 C   0  0  0  0  0  0  0  0  0  0  0  0
  189.5260  173.5180  142.6650 N   0  0  0  0  0  0  0  0  0  0  0  0
  189.0800  174.4690  143.6560 C   0  0  0  0  0  0  0  0  0  0  0  0
  189.4460  174.3220  145.0040 C   0  0  0  0  0  3  0  0  0  0  0  0
  188.2100  174.9160  139.6390 O   0  0  0  0  0  0  0  0  0  0  0  0
  187.3150  176.8590  141.4300 C   0  0  0  0  0  2  0  0  0  0  0  0
  188.2280  176.3340  145.5880 C   0  0  0  0  0  0  0  0  0  0  0  0
  188.2890  175.5730  143.2740 C   0  0  0  0  0  0  0  0  0  0  0  0
  188.8690  173.4110  141.3610 C   0  0  0  0  0  2  0  0  0  0  0  0
  190.5190  172.5040  143.0040 C   0  0  0  0  0  2  0  0  0  0  0  0
  191.6050  172.4310  141.9400 C   0  0  2  0  0  3  0  0  0  0  0  0
  192.3660  171.2740  142.1160 O   0  0  0  0  0  1  0  0  0  0  0  0
  192.4620  173.5980  142.0490 N   0  0  0  0  0  2  0  0  0  0  0  0
  193.5100  173.2740  143.0100 C   0  0  0  0  0  2  0  0  0  0  0  0
  192.2750  176.4770  144.5300 C   0  0  0  0  0  0  0  0  0  0  0  0
  195.3660  175.1320  145.7870 C   0  0  0  0  0  2  0  0  0  0  0  0
  195.0080  174.6060  144.4010 C   0  0  0  0  0  2  0  0  0  0  0  0
  192.7450  175.4780  143.7680 C   0  0  0  0  0  3  0  0  0  0  0  0
  191.4270  177.5020  143.8690 C   0  0  0  0  0  1  0  0  0  0  0  0
  194.9100  176.5630  145.9720 C   0  0  0  0  0  2  0  0  0  0  0  0
  192.4200  176.5590  145.9930 C   0  0  0  0  0  3  0  0  0  0  0  0
  193.5810  176.5890  146.6460 C   0  0  0  0  0  3  0  0  0  0  0  0
  192.9200  173.5570  145.3960 C   0  0  0  0  0  1  0  0  0  0  0  0
  193.5310  174.2560  144.1790 C   0  0  1  0  0  0  0  0  0  0  0  0
  187.7730  177.2890  146.5510 N   0  0  0  0  0  2  0  0  0  0  0  0
  186.5460  177.1370  147.3230 C   0  0  0  0  0  2  0  0  0  0  0  0
  185.8900  179.3860  147.5550 O   0  0  0  0  0  0  0  0  0  0  0  0
  184.4180  178.1190  146.2340 C   0  0  0  0  0  1  0  0  0  0  0  0
  185.6330  178.2930  147.0790 C   0  0  0  0  0  0  0  0  0  0  0  0
  1 11  1  0  0  0  0
  2 10  1  0  0  0  0
  4 12  1  0  0  0  0
  4  1  1  0  0  0  0
  5 13  1  0  0  0  0
  5  6  1  0  0  0  0
  6  7  2  0  0  0  0
  7  3  1  0  0  0  0
  8  4  2  0  0  0  0
  9  1  2  0  0  0  0
 10  3  2  0  0  0  0
 10 28  1  0  0  0  0
 11  6  1  0  0  0  0
 11  2  2  0  0  0  0
 12  5  1  0  0  0  0
 14 16  1  0  0  0  0
 14 15  1  1  0  0  0
 14 13  1  0  0  0  0
 16 17  1  0  0  0  0
 17 27  1  0  0  0  0
 18 24  1  0  0  0  0
 19 23  1  0  0  0  0
 20 19  1  0  0  0  0
 21 27  1  0  0  0  0
 21 18  2  0  0  0  0
 22 18  1  0  0  0  0
 23 25  1  0  0  0  0
 24 25  2  0  0  0  0
 27 20  1  0  0  0  0
 27 26  1  1  0  0  0
 28 29  1  0  0  0  0
 31 32  1  0  0  0  0
 32 29  1  0  0  0  0
 32 30  2  0  0  0  0
M  END
>  <MODEL>
3

>  <REMARK>
 VINA RESULT:      -6.6      2.552      6.753
  Name = 
  8 active torsions:
  status: ('A' for Active; 'I' for Inactive)
    1  A    between atoms: C_2  and  N_12
    2  A    between atoms: C_2  and  C_17
    3  A    between atoms: C_6  and  N_14
    4  A    between atoms: C_6  and  C_32
    5  A    between atoms: C_7  and  C_16
    6  A    between atoms: C_7  and  N_26
    7  A    between atoms: N_14  and  C_17
    8  A    between atoms: C_25  and  N_26
                            x       y       z     vdW  Elec       q    Type
                         _______ _______ _______ _____ _____    ______ ____

>  <TORSDO>
F 8

$$$$
=
 OpenBabel11042419313D

 32 34  0  0  1  0  0  0  0  0999 V2000
  186.3130  177.6250  140.9750 C   0  0  0  0  0  0  0  0  0  0  0  0
  183.8500  178.0720  140.7730 C   0  0  0  0  0  3  0  0  0  0  0  0
  182.5520  178.7470  142.6940 C   0  0  0  0  0  3  0  0  0  0  0  0
  187.4780  177.4780  141.8640 C   0  0  0  0  0  0  0  0  0  0  0  0
  186.1070  178.1970  143.7730 N   0  0  0  0  0  0  0  0  0  0  0  0
  184.9260  178.2750  142.9450 C   0  0  0  0  0  0  0  0  0  0  0  0
  183.6930  178.6640  143.4940 C   0  0  0  0  0  3  0  0  0  0  0  0
  188.6350  177.3200  141.3900 O   0  0  0  0  0  0  0  0  0  0  0  0
  186.4540  177.4740  139.6580 C   0  0  0  0  0  2  0  0  0  0  0  0
  182.6260  178.4490  141.3280 C   0  0  0  0  0  0  0  0  0  0  0  0
  185.0050  177.9840  141.5670 C   0  0  0  0  0  0  0  0  0  0  0  0
  187.2870  177.4430  143.3480 C   0  0  0  0  0  2  0  0  0  0  0  0
  186.0890  178.7050  145.1410 C   0  0  0  0  0  2  0  0  0  0  0  0
  186.0570  177.5610  146.1430 C   0  0  2  0  0  3  0  0  0  0  0  0
  184.9940  177.7360  147.0320 O   0  0  0  0  0  1  0  0  0  0  0  0
  187.3080  177.5350  146.8820 N   0  0  0  0  0  2  0  0  0  0  0  0
  187.7900  176.1590  146.8640 C   0  0  0  0  0  2  0  0  0  0  0  0
  190.2440  175.1760  144.1970 C   0  0  0  0  0  0  0  0  0  0  0  0
  191.4990  175.5410  147.5490 C   0  0  0  0  0  2  0  0  0  0  0  0
  189.9910  175.3190  147.4990 C   0  0  0  0  0  2  0  0  0  0  0  0
  189.2600  175.2900  145.1010 C   0  0  0  0  0  3  0  0  0  0  0  0
  189.9440  174.4270  142.9500 C   0  0  0  0  0  1  0  0  0  0  0  0
  192.2070  174.7930  146.4400 C   0  0  0  0  0  2  0  0  0  0  0  0
  191.5490  175.8520  144.2850 C   0  0  0  0  0  3  0  0  0  0  0  0
  192.4250  175.6990  145.2760 C   0  0  0  0  0  3  0  0  0  0  0  0
  189.7660  177.4980  146.2150 C   0  0  0  0  0  1  0  0  0  0  0  0
  189.2400  176.0730  146.3930 C   0  0  1  0  0  0  0  0  0  0  0  0
  181.4700  178.5180  140.4880 N   0  0  0  0  0  2  0  0  0  0  0  0
  180.2750  179.2840  140.8190 C   0  0  0  0  0  2  0  0  0  0  0  0
  178.7870  177.4660  140.6670 O   0  0  0  0  0  0  0  0  0  0  0  0
  178.6800  178.5870  142.7290 C   0  0  0  0  0  1  0  0  0  0  0  0
  179.2100  178.3830  141.3520 C   0  0  0  0  0  0  0  0  0  0  0  0
  1 11  1  0  0  0  0
  1  4  1  0  0  0  0
  2 10  2  0  0  0  0
  2 11  1  0  0  0  0
  3  7  2  0  0  0  0
  4 12  1  0  0  0  0
  5 13  1  0  0  0  0
  6  7  1  0  0  0  0
  6  5  1  0  0  0  0
  8  4  2  0  0  0  0
  9  1  2  0  0  0  0
 10  3  1  0  0  0  0
 11  6  2  0  0  0  0
 12  5  1  0  0  0  0
 13 14  1  0  0  0  0
 14 16  1  0  0  0  0
 14 15  1  1  0  0  0
 17 16  1  0  0  0  0
 18 24  1  0  0  0  0
 18 21  2  0  0  0  0
 20 19  1  0  0  0  0
 21 27  1  0  0  0  0
 22 18  1  0  0  0  0
 23 19  1  0  0  0  0
 24 25  2  0  0  0  0
 25 23  1  0  0  0  0
 27 26  1  6  0  0  0
 27 17  1  0  0  0  0
 27 20  1  0  0  0  0
 28 29  1  0  0  0  0
 28 10  1  0  0  0  0
 29 32  1  0  0  0  0
 30 32  2  0  0  0  0
 32 31  1  0  0  0  0
M  END
>  <MODEL>
4

>  <REMARK>
 VINA RESULT:      -6.4      3.346      8.095
  Name = 
  8 active torsions:
  status: ('A' for Active; 'I' for Inactive)
    1  A    between atoms: C_2  and  N_12
    2  A    between atoms: C_2  and  C_17
    3  A    between atoms: C_6  and  N_14
    4  A    between atoms: C_6  and  C_32
    5  A    between atoms: C_7  and  C_16
    6  A    between atoms: C_7  and  N_26
    7  A    between atoms: N_14  and  C_17
    8  A    between atoms: C_25  and  N_26
                            x       y       z     vdW  Elec       q    Type
                         _______ _______ _______ _____ _____    ______ ____

>  <TORSDO>
F 8

$$$$
=
 OpenBabel11042419313D

 32 34  0  0  1  0  0  0  0  0999 V2000
  185.3490  178.0130  144.7900 C   0  0  0  0  0  0  0  0  0  0  0  0
  183.7760  178.2990  142.8540 C   0  0  0  0  0  3  0  0  0  0  0  0
  184.5460  178.0240  140.5810 C   0  0  0  0  0  3  0  0  0  0  0  0
  186.7370  177.8160  145.2410 C   0  0  0  0  0  0  0  0  0  0  0  0
  187.4500  177.5200  142.9070 N   0  0  0  0  0  0  0  0  0  0  0  0
  186.1150  177.7880  142.4250 C   0  0  0  0  0  0  0  0  0  0  0  0
  185.8350  177.7720  141.0490 C   0  0  0  0  0  3  0  0  0  0  0  0
  187.0000  177.6330  146.4600 O   0  0  0  0  0  0  0  0  0  0  0  0
  184.3660  178.1200  145.6830 C   0  0  0  0  0  2  0  0  0  0  0  0
  183.5080  178.2910  141.4830 C   0  0  0  0  0  0  0  0  0  0  0  0
  185.0700  178.0470  143.3370 C   0  0  0  0  0  0  0  0  0  0  0  0
  187.8630  177.9010  144.2590 C   0  0  0  0  0  2  0  0  0  0  0  0
  188.4840  177.0360  141.9980 C   0  0  0  0  0  2  0  0  0  0  0  0
  188.5810  175.5190  142.0440 C   0  0  2  0  0  3  0  0  0  0  0  0
  187.3380  174.9730  142.3710 O   0  0  0  0  0  1  0  0  0  0  0  0
  189.5590  175.1310  143.0450 N   0  0  0  0  0  2  0  0  0  0  0  0
  190.7940  175.8440  142.7390 C   0  0  0  0  0  2  0  0  0  0  0  0
  191.5260  176.3130  146.3910 C   0  0  0  0  0  0  0  0  0  0  0  0
  194.3280  176.2600  144.1350 C   0  0  0  0  0  2  0  0  0  0  0  0
  193.0100  176.5860  143.4410 C   0  0  0  0  0  2  0  0  0  0  0  0
  191.1480  176.3820  145.1070 C   0  0  0  0  0  3  0  0  0  0  0  0
  190.6280  176.9270  147.4040 C   0  0  0  0  0  1  0  0  0  0  0  0
  194.3650  176.8140  145.5430 C   0  0  0  0  0  2  0  0  0  0  0  0
  192.6880  175.5560  146.8870 C   0  0  0  0  0  3  0  0  0  0  0  0
  193.9500  175.7610  146.5140 C   0  0  0  0  0  3  0  0  0  0  0  0
  192.1500  174.2920  144.1070 C   0  0  0  0  0  1  0  0  0  0  0  0
  191.7950  175.7640  143.8900 C   0  0  1  0  0  0  0  0  0  0  0  0
  182.1790  178.5610  141.0300 N   0  0  0  0  0  2  0  0  0  0  0  0
  181.1080  179.0320  141.8990 C   0  0  0  0  0  2  0  0  0  0  0  0
  180.1370  180.6190  140.4570 O   0  0  0  0  0  0  0  0  0  0  0  0
  178.6820  178.8640  141.0230 C   0  0  0  0  0  1  0  0  0  0  0  0
  179.9840  179.5860  141.0870 C   0  0  0  0  0  0  0  0  0  0  0  0
  1  4  1  0  0  0  0
  1  9  2  0  0  0  0
  2 11  1  0  0  0  0
  3  7  2  0  0  0  0
  3 10  1  0  0  0  0
  4  8  2  0  0  0  0
  5 12  1  0  0  0  0
  6  5  1  0  0  0  0
  6 11  2  0  0  0  0
  7  6  1  0  0  0  0
 10  2  2  0  0  0  0
 11  1  1  0  0  0  0
 12  4  1  0  0  0  0
 13 14  1  0  0  0  0
 13  5  1  0  0  0  0
 14 15  1  1  0  0  0
 14 16  1  0  0  0  0
 17 16  1  0  0  0  0
 17 27  1  0  0  0  0
 18 24  1  0  0  0  0
 18 22  1  0  0  0  0
 19 23  1  0  0  0  0
 20 27  1  0  0  0  0
 20 19  1  0  0  0  0
 21 18  2  0  0  0  0
 23 25  1  0  0  0  0
 25 24  2  0  0  0  0
 27 26  1  1  0  0  0
 27 21  1  0  0  0  0
 28 10  1  0  0  0  0
 28 29  1  0  0  0  0
 30 32  2  0  0  0  0
 31 32  1  0  0  0  0
 32 29  1  0  0  0  0
M  END
>  <MODEL>
5

>  <REMARK>
 VINA RESULT:      -6.4      2.947      8.143
  Name = 
  8 active torsions:
  status: ('A' for Active; 'I' for Inactive)
    1  A    between atoms: C_2  and  N_12
    2  A    between atoms: C_2  and  C_17
    3  A    between atoms: C_6  and  N_14
    4  A    between atoms: C_6  and  C_32
    5  A    between atoms: C_7  and  C_16
    6  A    between atoms: C_7  and  N_26
    7  A    between atoms: N_14  and  C_17
    8  A    between atoms: C_25  and  N_26
                            x       y       z     vdW  Elec       q    Type
                         _______ _______ _______ _____ _____    ______ ____

>  <TORSDO>
F 8

$$$$
=
 OpenBabel11042419313D

 32 34  0  0  1  0  0  0  0  0999 V2000
  185.0920  178.2370  145.6870 C   0  0  0  0  0  0  0  0  0  0  0  0
  184.2650  178.3620  143.3190 C   0  0  0  0  0  3  0  0  0  0  0  0
  185.6200  177.5550  141.4900 C   0  0  0  0  0  3  0  0  0  0  0  0
  186.2130  177.9390  146.5950 C   0  0  0  0  0  0  0  0  0  0  0  0
  187.5280  177.1080  144.6920 N   0  0  0  0  0  0  0  0  0  0  0  0
  186.4810  177.4610  143.7640 C   0  0  0  0  0  0  0  0  0  0  0  0
  186.6340  177.2210  142.3880 C   0  0  0  0  0  3  0  0  0  0  0  0
  186.0530  177.9570  147.8450 O   0  0  0  0  0  0  0  0  0  0  0  0
  183.9240  178.6470  146.1800 C   0  0  0  0  0  2  0  0  0  0  0  0
  184.4300  178.1300  141.9520 C   0  0  0  0  0  0  0  0  0  0  0  0
  185.2790  178.0310  144.2340 C   0  0  0  0  0  0  0  0  0  0  0  0
  187.5780  177.6790  146.0390 C   0  0  0  0  0  2  0  0  0  0  0  0
  188.6770  176.3210  144.2520 C   0  0  0  0  0  2  0  0  0  0  0  0
  189.9140  177.1970  144.1180 C   0  0  2  0  0  3  0  0  0  0  0  0
  190.4660  177.0490  142.8440 O   0  0  0  0  0  1  0  0  0  0  0  0
  190.8910  176.8030  145.1190 N   0  0  0  0  0  2  0  0  0  0  0  0
  192.2070  177.1460  144.5930 C   0  0  0  0  0  2  0  0  0  0  0  0
  195.6100  175.6630  144.0340 C   0  0  0  0  0  0  0  0  0  0  0  0
  193.1870  173.6430  145.7650 C   0  0  0  0  0  2  0  0  0  0  0  0
  192.5530  174.7560  144.9370 C   0  0  0  0  0  2  0  0  0  0  0  0
  194.3750  176.1800  143.9700 C   0  0  0  0  0  3  0  0  0  0  0  0
  196.5450  175.9830  142.9250 C   0  0  0  0  0  1  0  0  0  0  0  0
  194.4420  173.1100  145.1080 C   0  0  0  0  0  2  0  0  0  0  0  0
  196.1520  174.9190  145.1840 C   0  0  0  0  0  3  0  0  0  0  0  0
  195.6410  173.7920  145.6760 C   0  0  0  0  0  3  0  0  0  0  0  0
  193.7480  176.4530  146.4000 C   0  0  0  0  0  1  0  0  0  0  0  0
  193.2620  176.1160  144.9890 C   0  0  1  0  0  0  0  0  0  0  0  0
  183.3780  178.4900  141.0510 N   0  0  0  0  0  2  0  0  0  0  0  0
  182.0130  177.9910  141.1630 C   0  0  0  0  0  2  0  0  0  0  0  0
  180.9760  179.4150  142.7240 O   0  0  0  0  0  0  0  0  0  0  0  0
  180.3140  179.8260  140.5080 C   0  0  0  0  0  1  0  0  0  0  0  0
  181.0860  179.0960  141.5520 C   0  0  0  0  0  0  0  0  0  0  0  0
  1  9  2  0  0  0  0
  1  4  1  0  0  0  0
  2 11  1  0  0  0  0
  3 10  1  0  0  0  0
  3  7  2  0  0  0  0
  4  8  2  0  0  0  0
  5 12  1  0  0  0  0
  6 11  2  0  0  0  0
  6  5  1  0  0  0  0
  7  6  1  0  0  0  0
 10  2  2  0  0  0  0
 11  1  1  0  0  0  0
 12  4  1  0  0  0  0
 13  5  1  0  0  0  0
 14 15  1  6  0  0  0
 14 13  1  0  0  0  0
 14 16  1  0  0  0  0
 17 27  1  0  0  0  0
 17 16  1  0  0  0  0
 18 24  1  0  0  0  0
 20 27  1  0  0  0  0
 20 19  1  0  0  0  0
 21 18  2  0  0  0  0
 21 27  1  0  0  0  0
 22 18  1  0  0  0  0
 23 25  1  0  0  0  0
 23 19  1  0  0  0  0
 24 25  2  0  0  0  0
 27 26  1  1  0  0  0
 28 29  1  0  0  0  0
 28 10  1  0  0  0  0
 29 32  1  0  0  0  0
 31 32  1  0  0  0  0
 32 30  2  0  0  0  0
M  END
>  <MODEL>
6

>  <REMARK>
 VINA RESULT:      -6.4      3.017      8.592
  Name = 
  8 active torsions:
  status: ('A' for Active; 'I' for Inactive)
    1  A    between atoms: C_2  and  N_12
    2  A    between atoms: C_2  and  C_17
    3  A    between atoms: C_6  and  N_14
    4  A    between atoms: C_6  and  C_32
    5  A    between atoms: C_7  and  C_16
    6  A    between atoms: C_7  and  N_26
    7  A    between atoms: N_14  and  C_17
    8  A    between atoms: C_25  and  N_26
                            x       y       z     vdW  Elec       q    Type
                         _______ _______ _______ _____ _____    ______ ____

>  <TORSDO>
F 8

$$$$
=
 OpenBabel11042419313D

 32 34  0  0  1  0  0  0  0  0999 V2000
  191.4450  175.2010  146.3160 C   0  0  0  0  0  0  0  0  0  0  0  0
  193.5860  175.9450  145.2360 C   0  0  0  0  0  3  0  0  0  0  0  0
  193.7620  176.1310  142.8340 C   0  0  0  0  0  3  0  0  0  0  0  0
  190.0840  174.6670  146.1350 C   0  0  0  0  0  0  0  0  0  0  0  0
  190.3190  174.9070  143.7000 N   0  0  0  0  0  0  0  0  0  0  0  0
  191.6840  175.3590  143.8370 C   0  0  0  0  0  0  0  0  0  0  0  0
  192.4450  175.6880  142.7040 C   0  0  0  0  0  3  0  0  0  0  0  0
  189.3040  174.5410  147.1160 O   0  0  0  0  0  0  0  0  0  0  0  0
  191.9080  175.4460  147.5420 C   0  0  0  0  0  2  0  0  0  0  0  0
  194.3400  176.2600  144.1030 C   0  0  0  0  0  0  0  0  0  0  0  0
  192.2600  175.4970  145.1180 C   0  0  0  0  0  0  0  0  0  0  0  0
  189.6380  174.2000  144.7850 C   0  0  0  0  0  2  0  0  0  0  0  0
  189.6430  174.9700  142.4080 C   0  0  0  0  0  2  0  0  0  0  0  0
  188.4290  174.0530  142.3860 C   0  0  2  0  0  3  0  0  0  0  0  0
  188.4570  173.2550  141.2400 O   0  0  0  0  0  1  0  0  0  0  0  0
  187.2200  174.8570  142.3880 N   0  0  0  0  0  2  0  0  0  0  0  0
  187.6050  176.2150  142.0190 C   0  0  0  0  0  2  0  0  0  0  0  0
  186.3870  177.4790  145.3370 C   0  0  0  0  0  0  0  0  0  0  0  0
  184.6270  178.5810  142.3990 C   0  0  0  0  0  2  0  0  0  0  0  0
  185.4250  177.3020  142.1710 C   0  0  0  0  0  2  0  0  0  0  0  0
  186.7420  176.7920  144.2420 C   0  0  0  0  0  3  0  0  0  0  0  0
  186.5130  176.7920  146.6480 C   0  0  0  0  0  1  0  0  0  0  0  0
  184.0790  178.6480  143.8080 C   0  0  0  0  0  2  0  0  0  0  0  0
  186.0150  178.9040  145.3520 C   0  0  0  0  0  3  0  0  0  0  0  0
  185.0010  179.4380  144.6730 C   0  0  0  0  0  3  0  0  0  0  0  0
  187.5490  178.5990  142.6750 C   0  0  0  0  0  1  0  0  0  0  0  0
  186.8210  177.2600  142.8080 C   0  0  1  0  0  0  0  0  0  0  0  0
  195.6900  176.7040  144.2650 N   0  0  0  0  0  2  0  0  0  0  0  0
  196.7730  176.3470  143.3570 C   0  0  0  0  0  2  0  0  0  0  0  0
  197.5620  174.5410  144.6440 O   0  0  0  0  0  0  0  0  0  0  0  0
  197.0540  173.9520  142.4280 C   0  0  0  0  0  1  0  0  0  0  0  0
  197.1670  174.9200  143.5550 C   0  0  0  0  0  0  0  0  0  0  0  0
  1  9  2  0  0  0  0
  3 10  1  0  0  0  0
  4  1  1  0  0  0  0
  4  8  2  0  0  0  0
  5  6  1  0  0  0  0
  5 12  1  0  0  0  0
  6 11  2  0  0  0  0
  7  3  2  0  0  0  0
  7  6  1  0  0  0  0
 10 28  1  0  0  0  0
 10  2  2  0  0  0  0
 11  2  1  0  0  0  0
 11  1  1  0  0  0  0
 12  4  1  0  0  0  0
 13  5  1  0  0  0  0
 14 15  1  6  0  0  0
 14 16  1  0  0  0  0
 14 13  1  0  0  0  0
 17 16  1  0  0  0  0
 17 27  1  0  0  0  0
 18 24  1  0  0  0  0
 18 22  1  0  0  0  0
 19 23  1  0  0  0  0
 20 19  1  0  0  0  0
 20 27  1  0  0  0  0
 21 18  2  0  0  0  0
 23 25  1  0  0  0  0
 25 24  2  0  0  0  0
 27 26  1  6  0  0  0
 27 21  1  0  0  0  0
 29 32  1  0  0  0  0
 29 28  1  0  0  0  0
 31 32  1  0  0  0  0
 32 30  2  0  0  0  0
M  END
>  <MODEL>
7

>  <REMARK>
 VINA RESULT:      -6.3      2.242      3.638
  Name = 
  8 active torsions:
  status: ('A' for Active; 'I' for Inactive)
    1  A    between atoms: C_2  and  N_12
    2  A    between atoms: C_2  and  C_17
    3  A    between atoms: C_6  and  N_14
    4  A    between atoms: C_6  and  C_32
    5  A    between atoms: C_7  and  C_16
    6  A    between atoms: C_7  and  N_26
    7  A    between atoms: N_14  and  C_17
    8  A    between atoms: C_25  and  N_26
                            x       y       z     vdW  Elec       q    Type
                         _______ _______ _______ _____ _____    ______ ____

>  <TORSDO>
F 8

$$$$
=
 OpenBabel11042419313D

 32 34  0  0  1  0  0  0  0  0999 V2000
  189.6850  175.9180  146.7050 C   0  0  0  0  0  0  0  0  0  0  0  0
  188.3420  177.0000  144.8790 C   0  0  0  0  0  3  0  0  0  0  0  0
  189.4300  178.1330  143.0460 C   0  0  0  0  0  3  0  0  0  0  0  0
  191.0130  175.7010  147.3050 C   0  0  0  0  0  0  0  0  0  0  0  0
  192.0580  176.8430  145.3960 N   0  0  0  0  0  0  0  0  0  0  0  0
  190.7690  177.1430  144.8190 C   0  0  0  0  0  0  0  0  0  0  0  0
  190.6740  177.8480  143.6090 C   0  0  0  0  0  3  0  0  0  0  0  0
  191.1600  174.9160  148.2800 O   0  0  0  0  0  0  0  0  0  0  0  0
  188.6030  175.3760  147.2630 C   0  0  0  0  0  2  0  0  0  0  0  0
  188.2560  177.7110  143.6810 C   0  0  0  0  0  0  0  0  0  0  0  0
  189.5880  176.7070  145.4570 C   0  0  0  0  0  0  0  0  0  0  0  0
  192.1950  176.4700  146.8050 C   0  0  0  0  0  2  0  0  0  0  0  0
  193.2840  177.0920  144.6430 C   0  0  0  0  0  2  0  0  0  0  0  0
  193.9780  175.7840  144.2910 C   0  0  2  0  0  3  0  0  0  0  0  0
  195.3550  175.9890  144.1880 O   0  0  0  0  0  1  0  0  0  0  0  0
  193.4640  175.2950  143.0240 N   0  0  0  0  0  2  0  0  0  0  0  0
  193.2440  173.8610  143.1730 C   0  0  0  0  0  2  0  0  0  0  0  0
  190.6870  171.2760  142.2380 C   0  0  0  0  0  0  0  0  0  0  0  0
  189.6900  174.7290  142.0690 C   0  0  0  0  0  2  0  0  0  0  0  0
  191.2030  174.5430  142.0250 C   0  0  0  0  0  2  0  0  0  0  0  0
  191.7270  172.1140  142.3560 C   0  0  0  0  0  3  0  0  0  0  0  0
  190.9540  169.9270  141.6770 C   0  0  0  0  0  1  0  0  0  0  0  0
  188.9710  173.5890  141.3810 C   0  0  0  0  0  2  0  0  0  0  0  0
  189.3310  171.5410  142.7490 C   0  0  0  0  0  3  0  0  0  0  0  0
  188.5630  172.5660  142.3860 C   0  0  0  0  0  3  0  0  0  0  0  0
  191.0940  173.5270  144.3490 C   0  0  0  0  0  1  0  0  0  0  0  0
  191.7760  173.4890  142.9810 C   0  0  1  0  0  0  0  0  0  0  0  0
  186.9670  177.9960  143.1290 N   0  0  0  0  0  2  0  0  0  0  0  0
  185.7140  177.7400  143.8280 C   0  0  0  0  0  2  0  0  0  0  0  0
  185.5670  180.0690  144.1370 O   0  0  0  0  0  0  0  0  0  0  0  0
  184.4250  178.8390  145.7800 C   0  0  0  0  0  1  0  0  0  0  0  0
  185.2640  178.9640  144.5560 C   0  0  0  0  0  0  0  0  0  0  0  0
  1  9  2  0  0  0  0
  1  4  1  0  0  0  0
  2 11  1  0  0  0  0
  3  7  2  0  0  0  0
  3 10  1  0  0  0  0
  4  8  2  0  0  0  0
  5 12  1  0  0  0  0
  6  5  1  0  0  0  0
  6 11  2  0  0  0  0
  7  6  1  0  0  0  0
 10  2  2  0  0  0  0
 11  1  1  0  0  0  0
 12  4  1  0  0  0  0
 13  5  1  0  0  0  0
 14 15  1  6  0  0  0
 14 13  1  0  0  0  0
 16 17  1  0  0  0  0
 16 14  1  0  0  0  0
 18 21  2  0  0  0  0
 18 24  1  0  0  0  0
 20 19  1  0  0  0  0
 20 27  1  0  0  0  0
 21 27  1  0  0  0  0
 22 18  1  0  0  0  0
 23 19  1  0  0  0  0
 23 25  1  0  0  0  0
 25 24  2  0  0  0  0
 27 17  1  0  0  0  0
 27 26  1  1  0  0  0
 28 10  1  0  0  0  0
 28 29  1  0  0  0  0
 29 32  1  0  0  0  0
 30 32  2  0  0  0  0
 32 31  1  0  0  0  0
M  END
>  <MODEL>
8

>  <REMARK>
 VINA RESULT:      -6.3      2.289      7.176
  Name = 
  8 active torsions:
  status: ('A' for Active; 'I' for Inactive)
    1  A    between atoms: C_2  and  N_12
    2  A    between atoms: C_2  and  C_17
    3  A    between atoms: C_6  and  N_14
    4  A    between atoms: C_6  and  C_32
    5  A    between atoms: C_7  and  C_16
    6  A    between atoms: C_7  and  N_26
    7  A    between atoms: N_14  and  C_17
    8  A    between atoms: C_25  and  N_26
                            x       y       z     vdW  Elec       q    Type
                         _______ _______ _______ _____ _____    ______ ____

>  <TORSDO>
F 8

$$$$
=
 OpenBabel11042419313D

 32 34  0  0  1  0  0  0  0  0999 V2000
  191.9250  173.5240  143.8880 C   0  0  0  0  0  0  0  0  0  0  0  0
  194.1990  173.9490  144.8660 C   0  0  0  0  0  3  0  0  0  0  0  0
  194.5680  175.7850  146.3900 C   0  0  0  0  0  3  0  0  0  0  0  0
  190.5390  173.9940  143.7210 C   0  0  0  0  0  0  0  0  0  0  0  0
  190.9750  175.8260  145.3010 N   0  0  0  0  0  0  0  0  0  0  0  0
  192.3600  175.4400  145.4270 C   0  0  0  0  0  0  0  0  0  0  0  0
  193.2300  176.1600  146.2620 C   0  0  0  0  0  3  0  0  0  0  0  0
  189.6800  173.2780  143.1400 O   0  0  0  0  0  0  0  0  0  0  0  0
  192.3160  172.3830  143.3200 C   0  0  0  0  0  2  0  0  0  0  0  0
  195.0590  174.6770  145.6900 C   0  0  0  0  0  0  0  0  0  0  0  0
  192.8500  174.3170  144.7280 C   0  0  0  0  0  0  0  0  0  0  0  0
  190.1540  175.3650  144.1800 C   0  0  0  0  0  2  0  0  0  0  0  0
  190.4040  176.8420  146.1810 C   0  0  0  0  0  2  0  0  0  0  0  0
  189.5840  176.2000  147.2900 C   0  0  2  0  0  3  0  0  0  0  0  0
  190.0630  174.9140  147.5520 O   0  0  0  0  0  1  0  0  0  0  0  0
  188.1930  176.1250  146.8760 N   0  0  0  0  0  2  0  0  0  0  0  0
  187.6760  177.4880  146.8570 C   0  0  0  0  0  2  0  0  0  0  0  0
  186.8300  177.8650  143.2190 C   0  0  0  0  0  0  0  0  0  0  0  0
  184.4100  179.0330  145.6110 C   0  0  0  0  0  2  0  0  0  0  0  0
  185.8150  178.9190  146.1920 C   0  0  0  0  0  2  0  0  0  0  0  0
  187.3220  177.9060  144.4650 C   0  0  0  0  0  3  0  0  0  0  0  0
  187.7910  178.0200  142.0960 C   0  0  0  0  0  1  0  0  0  0  0  0
  184.4440  179.4360  144.1530 C   0  0  0  0  0  2  0  0  0  0  0  0
  185.4350  177.5420  142.8760 C   0  0  0  0  0  3  0  0  0  0  0  0
  184.3670  178.2230  143.2890 C   0  0  0  0  0  3  0  0  0  0  0  0
  185.7390  176.4200  145.7510 C   0  0  0  0  0  1  0  0  0  0  0  0
  186.6120  177.6750  145.7780 C   0  0  1  0  0  0  0  0  0  0  0  0
  196.4280  174.2750  145.7970 N   0  0  0  0  0  2  0  0  0  0  0  0
  197.2370  173.8470  144.6630 C   0  0  0  0  0  2  0  0  0  0  0  0
  197.8960  171.8000  143.7060 O   0  0  0  0  0  0  0  0  0  0  0  0
  196.9300  171.5640  145.8340 C   0  0  0  0  0  1  0  0  0  0  0  0
  197.3850  172.3610  144.6600 C   0  0  0  0  0  0  0  0  0  0  0  0
  1 11  1  0  0  0  0
  2 10  1  0  0  0  0
  4  1  1  0  0  0  0
  4 12  1  0  0  0  0
  5  6  1  0  0  0  0
  5 13  1  0  0  0  0
  6  7  2  0  0  0  0
  7  3  1  0  0  0  0
  8  4  2  0  0  0  0
  9  1  2  0  0  0  0
 10 28  1  0  0  0  0
 10  3  2  0  0  0  0
 11  2  2  0  0  0  0
 11  6  1  0  0  0  0
 12  5  1  0  0  0  0
 13 14  1  0  0  0  0
 14 15  1  6  0  0  0
 16 14  1  0  0  0  0
 17 16  1  0  0  0  0
 18 21  2  0  0  0  0
 19 20  1  0  0  0  0
 21 27  1  0  0  0  0
 22 18  1  0  0  0  0
 23 19  1  0  0  0  0
 24 18  1  0  0  0  0
 24 25  2  0  0  0  0
 25 23  1  0  0  0  0
 27 26  1  6  0  0  0
 27 20  1  0  0  0  0
 27 17  1  0  0  0  0
 29 28  1  0  0  0  0
 30 32  2  0  0  0  0
 32 29  1  0  0  0  0
 32 31  1  0  0  0  0
M  END
>  <MODEL>
9

>  <REMARK>
 VINA RESULT:      -6.3      2.804      4.498
  Name = 
  8 active torsions:
  status: ('A' for Active; 'I' for Inactive)
    1  A    between atoms: C_2  and  N_12
    2  A    between atoms: C_2  and  C_17
    3  A    between atoms: C_6  and  N_14
    4  A    between atoms: C_6  and  C_32
    5  A    between atoms: C_7  and  C_16
    6  A    between atoms: C_7  and  N_26
    7  A    between atoms: N_14  and  C_17
    8  A    between atoms: C_25  and  N_26
                            x       y       z     vdW  Elec       q    Type
                         _______ _______ _______ _____ _____    ______ ____

>  <TORSDO>
F 8

$$$$
