=
 OpenBabel11042416103D

 26 30  0  0  1  0  0  0  0  0999 V2000
  186.5380  177.8980  146.0400 C   0  0  1  0  0  0  0  0  0  0  0  0
  186.8030  178.4370  147.4460 C   0  0  1  0  0  3  0  0  0  0  0  0
  186.8980  176.4290  145.9400 C   0  0  2  0  0  3  0  0  0  0  0  0
  185.6860  179.2050  147.9710 N   0  0  0  0  0  1  0  0  0  0  0  0
  186.3820  176.9940  147.2530 C   0  0  2  0  0  3  0  0  0  0  0  0
  189.5840  174.1680  146.6450 C   0  0  2  0  0  3  0  0  0  0  0  0
  189.6040  174.2660  145.1160 C   0  0  1  0  0  3  0  0  0  0  0  0
  188.8940  175.5280  144.7750 C   0  0  0  0  0  0  0  0  0  0  0  0
  188.7270  175.9670  143.5250 C   0  0  0  0  0  2  0  0  0  0  0  0
  188.7900  175.3680  147.1660 C   0  0  2  0  0  3  0  0  0  0  0  0
  188.4130  176.2570  145.9800 C   0  0  2  0  0  3  0  0  0  0  0  0
  190.2950  175.3240  147.3390 C   0  0  0  0  0  2  0  0  0  0  0  0
  191.8100  175.1810  144.6450 N   0  0  0  0  0  2  0  0  0  0  0  0
  191.4670  172.9660  143.9520 N   0  0  0  0  0  2  0  0  0  0  0  0
  191.0010  174.1770  144.5500 C   0  0  0  0  0  0  0  0  0  0  0  0
  190.0150  171.6560  142.4990 C   0  0  0  0  0  1  0  0  0  0  0  0
  190.6630  171.7550  143.8670 C   0  0  0  0  0  2  0  0  0  0  0  0
  185.1480  178.1610  145.4720 C   0  0  0  0  0  2  0  0  0  0  0  0
  186.6060  178.5010  141.9790 C   0  0  0  0  0  3  0  0  0  0  0  0
  185.4870  178.4530  139.8890 O   0  0  0  0  0  0  0  0  0  0  0  0
  184.0750  178.0890  143.2780 C   0  0  0  0  0  3  0  0  0  0  0  0
  185.2070  178.2030  143.9860 C   0  0  0  0  0  0  0  0  0  0  0  0
  185.4010  178.3750  141.1430 C   0  0  0  0  0  0  0  0  0  0  0  0
  186.5110  178.4190  143.3110 C   0  0  0  0  0  3  0  0  0  0  0  0
  184.1060  178.1610  141.8090 C   0  0  0  0  0  0  0  0  0  0  0  0
  183.0150  178.0390  141.1280 N   0  0  0  0  0  2  0  0  0  0  0  0
  1 18  1  6  0  0  0
  1  5  1  0  0  0  0
  1  2  1  0  0  0  0
  2  4  1  1  0  0  0
  3 11  1  1  0  0  0
  3  1  1  0  0  0  0
  3  5  1  0  0  0  0
  5  2  1  0  0  0  0
  6 10  1  0  0  0  0
  6 12  1  0  0  0  0
  7  6  1  0  0  0  0
  8  7  1  0  0  0  0
  8 11  1  0  0  0  0
  9  8  2  0  0  0  0
 10 12  1  0  0  0  0
 11 10  1  0  0  0  0
 14 15  1  0  0  0  0
 15 13  2  0  0  0  0
 15  7  1  0  0  0  0
 16 17  1  0  0  0  0
 17 14  1  0  0  0  0
 19 24  2  0  0  0  0
 20 23  2  0  0  0  0
 21 22  2  0  0  0  0
 22 18  1  0  0  0  0
 23 25  1  0  0  0  0
 23 19  1  0  0  0  0
 24 22  1  0  0  0  0
 25 21  1  0  0  0  0
 26 25  2  0  0  0  0
M  END
>  <MODEL>
1

>  <REMARK>
 VINA RESULT:      -7.2      0.000      0.000
  Name = 
  5 active torsions:
  status: ('A' for Active; 'I' for Inactive)
    1  A    between atoms: C_3  and  C_26
    2  A    between atoms: C_4  and  C_6
    3  A    between atoms: C_4  and  C_16
    4  A    between atoms: C_11  and  C_12
    5  A    between atoms: N_13  and  C_25
                            x       y       z     vdW  Elec       q    Type
                         _______ _______ _______ _____ _____    ______ ____

>  <TORSDO>
F 5

$$$$
=
 OpenBabel11042416103D

 26 30  0  0  1  0  0  0  0  0999 V2000
  187.1110  177.1600  145.9730 C   0  0  1  0  0  0  0  0  0  0  0  0
  187.0250  178.0000  147.2470 C   0  0  1  0  0  3  0  0  0  0  0  0
  188.0750  176.0030  146.1450 C   0  0  2  0  0  3  0  0  0  0  0  0
  185.6530  178.2850  147.6390 N   0  0  0  0  0  1  0  0  0  0  0  0
  187.2800  176.5090  147.3370 C   0  0  2  0  0  3  0  0  0  0  0  0
  191.4750  175.1730  146.9030 C   0  0  2  0  0  3  0  0  0  0  0  0
  191.4650  175.2390  145.3720 C   0  0  1  0  0  3  0  0  0  0  0  0
  190.2750  176.0510  145.0010 C   0  0  0  0  0  0  0  0  0  0  0  0
  189.9450  176.3460  143.7420 C   0  0  0  0  0  2  0  0  0  0  0  0
  190.2280  175.9110  147.3960 C   0  0  2  0  0  3  0  0  0  0  0  0
  189.5100  176.5180  146.1890 C   0  0  2  0  0  3  0  0  0  0  0  0
  191.5960  176.5380  147.5700 C   0  0  0  0  0  2  0  0  0  0  0  0
  193.0240  177.0300  144.8350 N   0  0  0  0  0  2  0  0  0  0  0  0
  193.7470  174.8650  144.2890 N   0  0  0  0  0  2  0  0  0  0  0  0
  192.7640  175.7640  144.8080 C   0  0  0  0  0  0  0  0  0  0  0  0
  194.2650  172.8160  145.4990 C   0  0  0  0  0  1  0  0  0  0  0  0
  193.5850  173.4180  144.2860 C   0  0  0  0  0  2  0  0  0  0  0  0
  185.7840  176.6860  145.3910 C   0  0  0  0  0  2  0  0  0  0  0  0
  184.3590  178.4610  142.3470 C   0  0  0  0  0  3  0  0  0  0  0  0
  185.1190  178.4060  140.1030 O   0  0  0  0  0  0  0  0  0  0  0  0
  186.5240  176.7110  143.0620 C   0  0  0  0  0  3  0  0  0  0  0  0
  185.6540  177.1490  143.9830 C   0  0  0  0  0  0  0  0  0  0  0  0
  185.2830  178.0220  141.2910 C   0  0  0  0  0  0  0  0  0  0  0  0
  184.5360  178.0490  143.6090 C   0  0  0  0  0  3  0  0  0  0  0  0
  186.3940  177.1290  141.6580 C   0  0  0  0  0  0  0  0  0  0  0  0
  187.2410  176.7140  140.7740 N   0  0  0  0  0  2  0  0  0  0  0  0
  1 18  1  6  0  0  0
  1  3  1  0  0  0  0
  1  2  1  0  0  0  0
  1  5  1  0  0  0  0
  2  5  1  0  0  0  0
  2  4  1  1  0  0  0
  3 11  1  1  0  0  0
  3  5  1  0  0  0  0
  6 10  1  0  0  0  0
  6 12  1  0  0  0  0
  7  6  1  0  0  0  0
  8  7  1  0  0  0  0
  8 11  1  0  0  0  0
  9  8  2  0  0  0  0
 10 12  1  0  0  0  0
 11 10  1  0  0  0  0
 14 15  1  0  0  0  0
 15 13  2  0  0  0  0
 15  7  1  0  0  0  0
 17 14  1  0  0  0  0
 17 16  1  0  0  0  0
 19 24  2  0  0  0  0
 20 23  2  0  0  0  0
 21 22  2  0  0  0  0
 22 18  1  0  0  0  0
 23 25  1  0  0  0  0
 23 19  1  0  0  0  0
 24 22  1  0  0  0  0
 25 21  1  0  0  0  0
 26 25  2  0  0  0  0
M  END
>  <MODEL>
2

>  <REMARK>
 VINA RESULT:      -7.2      1.883      2.251
  Name = 
  5 active torsions:
  status: ('A' for Active; 'I' for Inactive)
    1  A    between atoms: C_3  and  C_26
    2  A    between atoms: C_4  and  C_6
    3  A    between atoms: C_4  and  C_16
    4  A    between atoms: C_11  and  C_12
    5  A    between atoms: N_13  and  C_25
                            x       y       z     vdW  Elec       q    Type
                         _______ _______ _______ _____ _____    ______ ____

>  <TORSDO>
F 5

$$$$
=
 OpenBabel11042416103D

 26 30  0  0  1  0  0  0  0  0999 V2000
  190.3430  174.8510  143.0700 C   0  0  1  0  0  0  0  0  0  0  0  0
  190.1540  174.4680  141.6020 C   0  0  1  0  0  3  0  0  0  0  0  0
  189.0090  174.9480  143.7840 C   0  0  2  0  0  3  0  0  0  0  0  0
  191.0410  173.3930  141.1850 N   0  0  0  0  0  1  0  0  0  0  0  0
  189.1890  173.9540  142.6500 C   0  0  2  0  0  3  0  0  0  0  0  0
  185.7820  176.4560  143.4240 C   0  0  2  0  0  3  0  0  0  0  0  0
  186.4070  177.2460  144.5790 C   0  0  1  0  0  3  0  0  0  0  0  0
  187.8770  177.0490  144.4640 C   0  0  0  0  0  0  0  0  0  0  0  0
  188.7650  177.6060  145.2910 C   0  0  0  0  0  2  0  0  0  0  0  0
  186.9220  175.7510  142.6870 C   0  0  2  0  0  3  0  0  0  0  0  0
  188.2500  176.1830  143.3120 C   0  0  2  0  0  3  0  0  0  0  0  0
  186.2260  176.9360  142.0470 C   0  0  0  0  0  2  0  0  0  0  0  0
  186.0590  179.4030  143.5060 N   0  0  0  0  0  2  0  0  0  0  0  0
  185.4390  179.2880  145.7660 N   0  0  0  0  0  2  0  0  0  0  0  0
  185.9830  178.6950  144.5850 C   0  0  0  0  0  0  0  0  0  0  0  0
  186.4350  178.7420  147.9210 C   0  0  0  0  0  1  0  0  0  0  0  0
  185.2380  178.5560  147.0080 C   0  0  0  0  0  2  0  0  0  0  0  0
  191.3290  174.0030  143.8630 C   0  0  0  0  0  2  0  0  0  0  0  0
  192.5580  176.1410  146.7550 C   0  0  0  0  0  3  0  0  0  0  0  0
  194.5600  177.3990  146.9280 O   0  0  0  0  0  0  0  0  0  0  0  0
  193.3840  175.2970  144.1340 C   0  0  0  0  0  3  0  0  0  0  0  0
  192.2250  174.8810  144.6630 C   0  0  0  0  0  0  0  0  0  0  0  0
  193.8460  176.6270  146.2350 C   0  0  0  0  0  0  0  0  0  0  0  0
  191.8010  175.3220  146.0150 C   0  0  0  0  0  3  0  0  0  0  0  0
  194.2700  176.1920  144.8940 C   0  0  0  0  0  0  0  0  0  0  0  0
  195.3920  176.5830  144.3870 N   0  0  0  0  0  2  0  0  0  0  0  0
  1  3  1  0  0  0  0
  1 18  1  1  0  0  0
  2  4  1  1  0  0  0
  2  5  1  0  0  0  0
  2  1  1  0  0  0  0
  3 11  1  6  0  0  0
  5  1  1  0  0  0  0
  5  3  1  0  0  0  0
  6  7  1  0  0  0  0
  7 15  1  0  0  0  0
  8  7  1  0  0  0  0
  8  9  2  0  0  0  0
 10 11  1  0  0  0  0
 10  6  1  0  0  0  0
 11  8  1  0  0  0  0
 12 10  1  0  0  0  0
 12  6  1  0  0  0  0
 13 15  2  0  0  0  0
 14 17  1  0  0  0  0
 15 14  1  0  0  0  0
 17 16  1  0  0  0  0
 18 22  1  0  0  0  0
 21 22  2  0  0  0  0
 21 25  1  0  0  0  0
 22 24  1  0  0  0  0
 23 19  1  0  0  0  0
 23 20  2  0  0  0  0
 24 19  2  0  0  0  0
 25 23  1  0  0  0  0
 26 25  2  0  0  0  0
M  END
>  <MODEL>
3

>  <REMARK>
 VINA RESULT:      -7.0      3.209      7.802
  Name = 
  5 active torsions:
  status: ('A' for Active; 'I' for Inactive)
    1  A    between atoms: C_3  and  C_26
    2  A    between atoms: C_4  and  C_6
    3  A    between atoms: C_4  and  C_16
    4  A    between atoms: C_11  and  C_12
    5  A    between atoms: N_13  and  C_25
                            x       y       z     vdW  Elec       q    Type
                         _______ _______ _______ _____ _____    ______ ____

>  <TORSDO>
F 5

$$$$
=
 OpenBabel11042416103D

 26 30  0  0  1  0  0  0  0  0999 V2000
  190.0430  176.2150  146.2800 C   0  0  1  0  0  0  0  0  0  0  0  0
  191.2720  176.0190  147.1670 C   0  0  1  0  0  3  0  0  0  0  0  0
  189.3890  174.8880  145.9500 C   0  0  2  0  0  3  0  0  0  0  0  0
  191.2890  176.9200  148.3080 N   0  0  0  0  0  1  0  0  0  0  0  0
  190.0930  175.0730  147.2830 C   0  0  2  0  0  3  0  0  0  0  0  0
  189.4540  172.2440  143.5360 C   0  0  2  0  0  3  0  0  0  0  0  0
  189.5790  173.5050  142.6740 C   0  0  1  0  0  3  0  0  0  0  0  0
  190.0630  174.5790  143.5830 C   0  0  0  0  0  0  0  0  0  0  0  0
  190.3120  175.8280  143.1840 C   0  0  0  0  0  2  0  0  0  0  0  0
  189.8160  172.6380  144.9700 C   0  0  2  0  0  3  0  0  0  0  0  0
  190.2620  174.1010  144.9780 C   0  0  2  0  0  3  0  0  0  0  0  0
  190.7740  171.7950  144.1520 C   0  0  0  0  0  2  0  0  0  0  0  0
  191.6310  172.7800  141.5850 N   0  0  0  0  0  2  0  0  0  0  0  0
  189.9620  173.5980  140.1520 N   0  0  0  0  0  2  0  0  0  0  0  0
  190.4500  173.2910  141.4600 C   0  0  0  0  0  0  0  0  0  0  0  0
  188.2470  173.8800  138.4450 C   0  0  0  0  0  1  0  0  0  0  0  0
  188.6200  174.1020  139.8980 C   0  0  0  0  0  2  0  0  0  0  0  0
  189.0140  177.2250  146.7730 C   0  0  0  0  0  2  0  0  0  0  0  0
  185.5260  176.8900  145.3010 C   0  0  0  0  0  3  0  0  0  0  0  0
  184.7640  177.4780  143.1350 O   0  0  0  0  0  0  0  0  0  0  0  0
  188.1410  177.8350  144.5740 C   0  0  0  0  0  3  0  0  0  0  0  0
  187.8990  177.3350  145.7930 C   0  0  0  0  0  0  0  0  0  0  0  0
  185.7230  177.4350  143.9490 C   0  0  0  0  0  0  0  0  0  0  0  0
  186.5490  176.8440  146.1630 C   0  0  0  0  0  3  0  0  0  0  0  0
  187.0620  177.9220  143.5780 C   0  0  0  0  0  0  0  0  0  0  0  0
  187.2950  178.4160  142.4070 N   0  0  0  0  0  2  0  0  0  0  0  0
  1 18  1  1  0  0  0
  1  2  1  0  0  0  0
  1  5  1  0  0  0  0
  2  5  1  0  0  0  0
  2  4  1  1  0  0  0
  3 11  1  6  0  0  0
  3  1  1  0  0  0  0
  3  5  1  0  0  0  0
  6 12  1  0  0  0  0
  6 10  1  0  0  0  0
  7  6  1  0  0  0  0
  7  8  1  0  0  0  0
  8 11  1  0  0  0  0
  9  8  2  0  0  0  0
 10 11  1  0  0  0  0
 12 10  1  0  0  0  0
 14 15  1  0  0  0  0
 15 13  2  0  0  0  0
 15  7  1  0  0  0  0
 16 17  1  0  0  0  0
 17 14  1  0  0  0  0
 19 24  2  0  0  0  0
 20 23  2  0  0  0  0
 21 22  2  0  0  0  0
 22 24  1  0  0  0  0
 22 18  1  0  0  0  0
 23 19  1  0  0  0  0
 25 23  1  0  0  0  0
 25 21  1  0  0  0  0
 26 25  2  0  0  0  0
M  END
>  <MODEL>
4

>  <REMARK>
 VINA RESULT:      -6.7      2.355      3.891
  Name = 
  5 active torsions:
  status: ('A' for Active; 'I' for Inactive)
    1  A    between atoms: C_3  and  C_26
    2  A    between atoms: C_4  and  C_6
    3  A    between atoms: C_4  and  C_16
    4  A    between atoms: C_11  and  C_12
    5  A    between atoms: N_13  and  C_25
                            x       y       z     vdW  Elec       q    Type
                         _______ _______ _______ _____ _____    ______ ____

>  <TORSDO>
F 5

$$$$
=
 OpenBabel11042416103D

 26 30  0  0  1  0  0  0  0  0999 V2000
  187.1400  177.1740  142.2650 C   0  0  1  0  0  0  0  0  0  0  0  0
  187.4780  176.8290  140.8140 C   0  0  1  0  0  3  0  0  0  0  0  0
  188.3690  177.6490  143.0140 C   0  0  2  0  0  3  0  0  0  0  0  0
  186.5410  177.4120  139.8670 N   0  0  0  0  0  1  0  0  0  0  0  0
  188.2330  177.9330  141.5270 C   0  0  2  0  0  3  0  0  0  0  0  0
  191.7620  176.6990  143.6510 C   0  0  2  0  0  3  0  0  0  0  0  0
  191.0770  176.4690  145.0030 C   0  0  1  0  0  3  0  0  0  0  0  0
  189.6230  176.3460  144.7110 C   0  0  0  0  0  0  0  0  0  0  0  0
  188.6990  176.1170  145.6470 C   0  0  0  0  0  2  0  0  0  0  0  0
  190.6610  176.7690  142.5910 C   0  0  2  0  0  3  0  0  0  0  0  0
  189.3170  176.4810  143.2610 C   0  0  2  0  0  3  0  0  0  0  0  0
  191.5640  175.5540  142.6650 C   0  0  0  0  0  2  0  0  0  0  0  0
  191.2180  174.0950  145.5210 N   0  0  0  0  0  2  0  0  0  0  0  0
  192.7260  175.4720  146.6770 N   0  0  0  0  0  2  0  0  0  0  0  0
  191.6540  175.2900  145.7490 C   0  0  0  0  0  0  0  0  0  0  0  0
  194.5720  176.9450  146.0820 C   0  0  0  0  0  1  0  0  0  0  0  0
  193.3390  176.7650  146.9460 C   0  0  0  0  0  2  0  0  0  0  0  0
  185.9690  178.1270  142.4720 C   0  0  0  0  0  2  0  0  0  0  0  0
  185.3890  179.7430  145.8620 C   0  0  0  0  0  3  0  0  0  0  0  0
  184.9420  178.7060  147.9470 O   0  0  0  0  0  0  0  0  0  0  0  0
  185.4710  177.1380  144.6500 C   0  0  0  0  0  3  0  0  0  0  0  0
  185.6630  178.2470  143.9230 C   0  0  0  0  0  0  0  0  0  0  0  0
  185.1610  178.5660  146.7150 C   0  0  0  0  0  0  0  0  0  0  0  0
  185.6240  179.5900  144.5540 C   0  0  0  0  0  3  0  0  0  0  0  0
  185.2000  177.2320  146.0930 C   0  0  0  0  0  0  0  0  0  0  0  0
  185.0040  176.1620  146.7900 N   0  0  0  0  0  2  0  0  0  0  0  0
  1 18  1  1  0  0  0
  1  3  1  0  0  0  0
  2  4  1  6  0  0  0
  2  5  1  0  0  0  0
  2  1  1  0  0  0  0
  3 11  1  6  0  0  0
  5  1  1  0  0  0  0
  5  3  1  0  0  0  0
  6  7  1  0  0  0  0
  7 15  1  0  0  0  0
  8  7  1  0  0  0  0
  8  9  2  0  0  0  0
 10 12  1  0  0  0  0
 10 11  1  0  0  0  0
 10  6  1  0  0  0  0
 11  8  1  0  0  0  0
 12  6  1  0  0  0  0
 13 15  2  0  0  0  0
 14 17  1  0  0  0  0
 15 14  1  0  0  0  0
 16 17  1  0  0  0  0
 18 22  1  0  0  0  0
 19 23  1  0  0  0  0
 21 25  1  0  0  0  0
 22 24  1  0  0  0  0
 22 21  2  0  0  0  0
 23 20  2  0  0  0  0
 24 19  2  0  0  0  0
 25 23  1  0  0  0  0
 25 26  2  0  0  0  0
M  END
>  <MODEL>
5

>  <REMARK>
 VINA RESULT:      -6.6      2.673      4.759
  Name = 
  5 active torsions:
  status: ('A' for Active; 'I' for Inactive)
    1  A    between atoms: C_3  and  C_26
    2  A    between atoms: C_4  and  C_6
    3  A    between atoms: C_4  and  C_16
    4  A    between atoms: C_11  and  C_12
    5  A    between atoms: N_13  and  C_25
                            x       y       z     vdW  Elec       q    Type
                         _______ _______ _______ _____ _____    ______ ____

>  <TORSDO>
F 5

$$$$
=
 OpenBabel11042416103D

 26 30  0  0  1  0  0  0  0  0999 V2000
  188.9090  176.2450  146.0220 C   0  0  1  0  0  0  0  0  0  0  0  0
  190.0370  177.1030  146.5940 C   0  0  1  0  0  3  0  0  0  0  0  0
  189.3530  174.8080  145.8410 C   0  0  2  0  0  3  0  0  0  0  0  0
  189.6020  177.9300  147.7080 N   0  0  0  0  0  1  0  0  0  0  0  0
  189.9290  175.6400  146.9730 C   0  0  2  0  0  3  0  0  0  0  0  0
  191.7250  172.7050  144.1740 C   0  0  2  0  0  3  0  0  0  0  0  0
  190.5400  172.7310  143.2030 C   0  0  1  0  0  3  0  0  0  0  0  0
  189.7490  173.9420  143.5500 C   0  0  0  0  0  0  0  0  0  0  0  0
  188.6440  174.3140  142.9010 C   0  0  0  0  0  2  0  0  0  0  0  0
  191.5570  173.8920  145.1260 C   0  0  2  0  0  3  0  0  0  0  0  0
  190.3400  174.7060  144.6830 C   0  0  2  0  0  3  0  0  0  0  0  0
  192.6340  173.9230  144.0600 C   0  0  0  0  0  2  0  0  0  0  0  0
  191.3290  173.7590  141.1420 N   0  0  0  0  0  2  0  0  0  0  0  0
  191.0620  171.4280  141.0700 N   0  0  0  0  0  2  0  0  0  0  0  0
  190.9770  172.6780  141.7580 C   0  0  0  0  0  0  0  0  0  0  0  0
  192.0520  169.4090  142.0050 C   0  0  0  0  0  1  0  0  0  0  0  0
  190.7650  170.1490  141.6980 C   0  0  0  0  0  2  0  0  0  0  0  0
  187.5740  176.3180  146.7540 C   0  0  0  0  0  2  0  0  0  0  0  0
  184.5920  178.4790  145.8140 C   0  0  0  0  0  3  0  0  0  0  0  0
  183.6530  178.8680  143.6720 O   0  0  0  0  0  0  0  0  0  0  0  0
  186.5690  176.7970  144.5790 C   0  0  0  0  0  3  0  0  0  0  0  0
  186.5650  177.0050  145.9020 C   0  0  0  0  0  0  0  0  0  0  0  0
  184.5450  178.2990  144.3550 C   0  0  0  0  0  0  0  0  0  0  0  0
  185.5400  177.8710  146.5370 C   0  0  0  0  0  3  0  0  0  0  0  0
  185.5600  177.4400  143.7220 C   0  0  0  0  0  0  0  0  0  0  0  0
  185.5730  177.2470  142.4450 N   0  0  0  0  0  2  0  0  0  0  0  0
  1  2  1  0  0  0  0
  1 18  1  1  0  0  0
  1  5  1  0  0  0  0
  2  5  1  0  0  0  0
  2  4  1  1  0  0  0
  3 11  1  6  0  0  0
  3  1  1  0  0  0  0
  3  5  1  0  0  0  0
  6 10  1  0  0  0  0
  7  8  1  0  0  0  0
  7  6  1  0  0  0  0
  8 11  1  0  0  0  0
  9  8  2  0  0  0  0
 11 10  1  0  0  0  0
 12  6  1  0  0  0  0
 12 10  1  0  0  0  0
 13 15  2  0  0  0  0
 14 17  1  0  0  0  0
 14 15  1  0  0  0  0
 15  7  1  0  0  0  0
 17 16  1  0  0  0  0
 19 24  2  0  0  0  0
 20 23  2  0  0  0  0
 21 22  2  0  0  0  0
 22 24  1  0  0  0  0
 22 18  1  0  0  0  0
 23 19  1  0  0  0  0
 25 23  1  0  0  0  0
 25 21  1  0  0  0  0
 26 25  2  0  0  0  0
M  END
>  <MODEL>
6

>  <REMARK>
 VINA RESULT:      -6.6      2.052      3.300
  Name = 
  5 active torsions:
  status: ('A' for Active; 'I' for Inactive)
    1  A    between atoms: C_3  and  C_26
    2  A    between atoms: C_4  and  C_6
    3  A    between atoms: C_4  and  C_16
    4  A    between atoms: C_11  and  C_12
    5  A    between atoms: N_13  and  C_25
                            x       y       z     vdW  Elec       q    Type
                         _______ _______ _______ _____ _____    ______ ____

>  <TORSDO>
F 5

$$$$
=
 OpenBabel11042416103D

 26 30  0  0  1  0  0  0  0  0999 V2000
  189.5560  176.5930  145.4940 C   0  0  1  0  0  0  0  0  0  0  0  0
  189.5920  177.5400  146.6930 C   0  0  1  0  0  3  0  0  0  0  0  0
  190.6370  175.5360  145.6000 C   0  0  2  0  0  3  0  0  0  0  0  0
  188.2780  177.7530  147.2780 N   0  0  0  0  0  1  0  0  0  0  0  0
  189.9940  176.0880  146.8600 C   0  0  2  0  0  3  0  0  0  0  0  0
  194.1300  175.3330  146.3630 C   0  0  2  0  0  3  0  0  0  0  0  0
  194.0640  174.8630  144.9050 C   0  0  1  0  0  3  0  0  0  0  0  0
  192.7820  175.3850  144.3620 C   0  0  0  0  0  0  0  0  0  0  0  0
  192.3810  175.1950  143.1030 C   0  0  0  0  0  2  0  0  0  0  0  0
  192.8260  176.0790  146.6580 C   0  0  2  0  0  3  0  0  0  0  0  0
  192.0080  176.1620  145.3680 C   0  0  2  0  0  3  0  0  0  0  0  0
  194.1230  176.8490  146.5150 C   0  0  0  0  0  2  0  0  0  0  0  0
  195.3050  176.4160  143.5000 N   0  0  0  0  0  2  0  0  0  0  0  0
  196.4390  174.4420  144.0680 N   0  0  0  0  0  2  0  0  0  0  0  0
  195.2800  175.2770  144.1100 C   0  0  0  0  0  0  0  0  0  0  0  0
  197.1920  173.3990  146.1370 C   0  0  0  0  0  1  0  0  0  0  0  0
  196.5410  173.1790  144.7850 C   0  0  0  0  0  2  0  0  0  0  0  0
  188.2050  175.9660  145.1750 C   0  0  0  0  0  2  0  0  0  0  0  0
  188.0710  176.0510  141.3770 C   0  0  0  0  0  3  0  0  0  0  0  0
  186.7540  177.4270  139.9660 O   0  0  0  0  0  0  0  0  0  0  0  0
  186.8570  177.3220  143.6520 C   0  0  0  0  0  3  0  0  0  0  0  0
  187.7740  176.3570  143.8050 C   0  0  0  0  0  0  0  0  0  0  0  0
  187.0660  177.0980  141.1410 C   0  0  0  0  0  0  0  0  0  0  0  0
  188.4010  175.7060  142.6280 C   0  0  0  0  0  3  0  0  0  0  0  0
  186.4420  177.7470  142.3070 C   0  0  0  0  0  0  0  0  0  0  0  0
  185.5490  178.6700  142.1620 N   0  0  0  0  0  2  0  0  0  0  0  0
  1 18  1  6  0  0  0
  1  3  1  0  0  0  0
  1  2  1  0  0  0  0
  1  5  1  0  0  0  0
  2  5  1  0  0  0  0
  2  4  1  1  0  0  0
  3 11  1  1  0  0  0
  3  5  1  0  0  0  0
  6 12  1  0  0  0  0
  6 10  1  0  0  0  0
  7  6  1  0  0  0  0
  8  7  1  0  0  0  0
  8 11  1  0  0  0  0
  9  8  2  0  0  0  0
 11 10  1  0  0  0  0
 12 10  1  0  0  0  0
 13 15  2  0  0  0  0
 14 15  1  0  0  0  0
 14 17  1  0  0  0  0
 15  7  1  0  0  0  0
 17 16  1  0  0  0  0
 19 24  2  0  0  0  0
 20 23  2  0  0  0  0
 21 22  2  0  0  0  0
 22 18  1  0  0  0  0
 23 19  1  0  0  0  0
 23 25  1  0  0  0  0
 24 22  1  0  0  0  0
 25 21  1  0  0  0  0
 26 25  2  0  0  0  0
M  END
>  <MODEL>
7

>  <REMARK>
 VINA RESULT:      -6.4      3.018      4.013
  Name = 
  5 active torsions:
  status: ('A' for Active; 'I' for Inactive)
    1  A    between atoms: C_3  and  C_26
    2  A    between atoms: C_4  and  C_6
    3  A    between atoms: C_4  and  C_16
    4  A    between atoms: C_11  and  C_12
    5  A    between atoms: N_13  and  C_25
                            x       y       z     vdW  Elec       q    Type
                         _______ _______ _______ _____ _____    ______ ____

>  <TORSDO>
F 5

$$$$
=
 OpenBabel11042416103D

 26 30  0  0  1  0  0  0  0  0999 V2000
  190.2640  176.0690  144.0590 C   0  0  1  0  0  0  0  0  0  0  0  0
  189.9660  177.5450  144.3220 C   0  0  1  0  0  3  0  0  0  0  0  0
  191.2130  175.5100  145.1000 C   0  0  2  0  0  3  0  0  0  0  0  0
  188.5450  177.8490  144.2590 N   0  0  0  0  0  1  0  0  0  0  0  0
  190.2340  176.6070  145.4810 C   0  0  2  0  0  3  0  0  0  0  0  0
  194.4980  175.8160  146.4920 C   0  0  2  0  0  3  0  0  0  0  0  0
  194.6980  174.8200  145.3450 C   0  0  1  0  0  3  0  0  0  0  0  0
  193.5480  175.0180  144.4230 C   0  0  0  0  0  0  0  0  0  0  0  0
  193.3870  174.3360  143.2860 C   0  0  0  0  0  2  0  0  0  0  0  0
  193.1750  176.5420  146.2370 C   0  0  2  0  0  3  0  0  0  0  0  0
  192.6140  176.0770  144.8930 C   0  0  2  0  0  3  0  0  0  0  0  0
  194.4880  177.2720  146.0400 C   0  0  0  0  0  2  0  0  0  0  0  0
  196.2160  175.8160  143.7240 N   0  0  0  0  0  2  0  0  0  0  0  0
  197.1680  174.2070  145.1420 N   0  0  0  0  0  2  0  0  0  0  0  0
  196.0470  174.9660  144.6830 C   0  0  0  0  0  0  0  0  0  0  0  0
  196.9420  171.8620  145.7600 C   0  0  0  0  0  1  0  0  0  0  0  0
  197.1010  173.2820  146.2650 C   0  0  0  0  0  2  0  0  0  0  0  0
  189.0530  175.1620  143.8770 C   0  0  0  0  0  2  0  0  0  0  0  0
  189.7600  171.6140  142.7120 C   0  0  0  0  0  3  0  0  0  0  0  0
  190.4290  170.8590  140.5670 O   0  0  0  0  0  0  0  0  0  0  0  0
  189.7100  174.2990  141.6870 C   0  0  0  0  0  3  0  0  0  0  0  0
  189.3940  174.0380  142.9630 C   0  0  0  0  0  0  0  0  0  0  0  0
  190.1100  171.8320  141.3000 C   0  0  0  0  0  0  0  0  0  0  0  0
  189.4240  172.6510  143.4890 C   0  0  0  0  0  3  0  0  0  0  0  0
  190.0820  173.2070  140.7740 C   0  0  0  0  0  0  0  0  0  0  0  0
  190.3750  173.4600  139.5420 N   0  0  0  0  0  2  0  0  0  0  0  0
  1 18  1  6  0  0  0
  1  2  1  0  0  0  0
  1  3  1  0  0  0  0
  1  5  1  0  0  0  0
  2  4  1  1  0  0  0
  2  5  1  0  0  0  0
  3 11  1  6  0  0  0
  3  5  1  0  0  0  0
  7  6  1  0  0  0  0
  8 11  1  0  0  0  0
  8  7  1  0  0  0  0
  9  8  2  0  0  0  0
 10  6  1  0  0  0  0
 11 10  1  0  0  0  0
 12 10  1  0  0  0  0
 12  6  1  0  0  0  0
 13 15  2  0  0  0  0
 14 17  1  0  0  0  0
 15 14  1  0  0  0  0
 15  7  1  0  0  0  0
 16 17  1  0  0  0  0
 19 24  2  0  0  0  0
 20 23  2  0  0  0  0
 21 22  2  0  0  0  0
 22 24  1  0  0  0  0
 22 18  1  0  0  0  0
 23 19  1  0  0  0  0
 25 23  1  0  0  0  0
 25 21  1  0  0  0  0
 26 25  2  0  0  0  0
M  END
>  <MODEL>
8

>  <REMARK>
 VINA RESULT:      -6.3      4.211      6.060
  Name = 
  5 active torsions:
  status: ('A' for Active; 'I' for Inactive)
    1  A    between atoms: C_3  and  C_26
    2  A    between atoms: C_4  and  C_6
    3  A    between atoms: C_4  and  C_16
    4  A    between atoms: C_11  and  C_12
    5  A    between atoms: N_13  and  C_25
                            x       y       z     vdW  Elec       q    Type
                         _______ _______ _______ _____ _____    ______ ____

>  <TORSDO>
F 5

$$$$
=
 OpenBabel11042416103D

 26 30  0  0  1  0  0  0  0  0999 V2000
  188.7130  174.8480  142.7760 C   0  0  1  0  0  0  0  0  0  0  0  0
  188.7470  173.3260  142.6400 C   0  0  1  0  0  3  0  0  0  0  0  0
  190.0550  175.4580  142.4250 C   0  0  2  0  0  3  0  0  0  0  0  0
  187.6100  172.8040  141.8990 N   0  0  0  0  0  1  0  0  0  0  0  0
  189.5960  174.1890  141.7280 C   0  0  2  0  0  3  0  0  0  0  0  0
  193.4880  174.7060  143.1090 C   0  0  2  0  0  3  0  0  0  0  0  0
  193.3380  176.1420  143.6210 C   0  0  1  0  0  3  0  0  0  0  0  0
  191.8830  176.3500  143.8460 C   0  0  0  0  0  0  0  0  0  0  0  0
  191.3620  177.4850  144.3150 C   0  0  0  0  0  2  0  0  0  0  0  0
  192.0800  174.1190  142.9840 C   0  0  2  0  0  3  0  0  0  0  0  0
  191.0760  175.1440  143.5140 C   0  0  2  0  0  3  0  0  0  0  0  0
  192.9980  173.6530  144.0960 C   0  0  0  0  0  2  0  0  0  0  0  0
  193.6810  176.3340  146.0230 N   0  0  0  0  0  2  0  0  0  0  0  0
  195.5830  176.7050  144.7000 N   0  0  0  0  0  2  0  0  0  0  0  0
  194.1910  176.4130  144.8380 C   0  0  0  0  0  0  0  0  0  0  0  0
  197.2160  175.5620  143.3010 C   0  0  0  0  0  1  0  0  0  0  0  0
  196.2680  176.7390  143.4160 C   0  0  0  0  0  2  0  0  0  0  0  0
  187.5790  175.5610  142.0500 C   0  0  0  0  0  2  0  0  0  0  0  0
  186.5840  177.2160  145.3230 C   0  0  0  0  0  3  0  0  0  0  0  0
  184.7380  178.6330  145.7720 O   0  0  0  0  0  0  0  0  0  0  0  0
  185.7210  177.0550  142.5860 C   0  0  0  0  0  3  0  0  0  0  0  0
  186.8180  176.4110  143.0060 C   0  0  0  0  0  0  0  0  0  0  0  0
  185.3760  177.9540  144.9250 C   0  0  0  0  0  0  0  0  0  0  0  0
  187.2580  176.4930  144.4200 C   0  0  0  0  0  3  0  0  0  0  0  0
  184.9350  177.8740  143.5220 C   0  0  0  0  0  0  0  0  0  0  0  0
  183.8840  178.5040  143.1130 N   0  0  0  0  0  2  0  0  0  0  0  0
  1 18  1  6  0  0  0
  2  4  1  6  0  0  0
  2  1  1  0  0  0  0
  3  1  1  0  0  0  0
  3 11  1  1  0  0  0
  5  3  1  0  0  0  0
  5  2  1  0  0  0  0
  5  1  1  0  0  0  0
  6  7  1  0  0  0  0
  6 12  1  0  0  0  0
  7  8  1  0  0  0  0
  7 15  1  0  0  0  0
  8  9  2  0  0  0  0
 10  6  1  0  0  0  0
 10 11  1  0  0  0  0
 10 12  1  0  0  0  0
 11  8  1  0  0  0  0
 14 15  1  0  0  0  0
 15 13  2  0  0  0  0
 16 17  1  0  0  0  0
 17 14  1  0  0  0  0
 18 22  1  0  0  0  0
 21 22  2  0  0  0  0
 21 25  1  0  0  0  0
 22 24  1  0  0  0  0
 23 19  1  0  0  0  0
 23 20  2  0  0  0  0
 24 19  2  0  0  0  0
 25 23  1  0  0  0  0
 26 25  2  0  0  0  0
M  END
>  <MODEL>
9

>  <REMARK>
 VINA RESULT:      -6.2      3.112      5.015
  Name = 
  5 active torsions:
  status: ('A' for Active; 'I' for Inactive)
    1  A    between atoms: C_3  and  C_26
    2  A    between atoms: C_4  and  C_6
    3  A    between atoms: C_4  and  C_16
    4  A    between atoms: C_11  and  C_12
    5  A    between atoms: N_13  and  C_25
                            x       y       z     vdW  Elec       q    Type
                         _______ _______ _______ _____ _____    ______ ____

>  <TORSDO>
F 5

$$$$
