=
 OpenBabel11042417573D

 36 40  0  0  1  0  0  0  0  0999 V2000
  192.0680  176.4440  146.7970 N   0  0  0  0  0  0  0  0  0  0  0  0
  188.2310  177.0350  142.9550 C   0  0  0  0  0  0  0  0  0  0  0  0
  187.1850  177.6540  142.2510 C   0  0  0  0  0  0  0  0  0  0  0  0
  189.6740  176.8540  144.9070 C   0  0  0  0  0  0  0  0  0  0  0  0
  193.8180  174.5270  144.3380 C   0  0  2  0  0  3  0  0  0  0  0  0
  189.8570  177.2750  146.1630 C   0  0  0  0  0  2  0  0  0  0  0  0
  192.4230  175.8160  145.7230 C   0  0  0  0  0  0  0  0  0  0  0  0
  194.8840  175.7050  146.3530 C   0  0  0  0  0  1  0  0  0  0  0  0
  192.3590  174.3070  143.8920 C   0  0  0  0  0  2  0  0  0  0  0  0
  188.8680  175.9080  142.4080 C   0  0  0  0  0  0  0  0  0  0  0  0
  191.5350  175.2580  144.7140 C   0  0  2  0  0  3  0  0  0  0  0  0
  188.6430  177.4880  144.2090 C   0  0  0  0  0  3  0  0  0  0  0  0
  188.4480  175.4220  141.1590 C   0  0  0  0  0  0  0  0  0  0  0  0
  187.4410  176.0500  140.4950 N   0  0  0  0  0  0  0  0  0  0  0  0
  189.9060  175.3320  143.0690 N   0  0  0  0  0  0  0  0  0  0  0  0
  186.8100  177.1400  141.0090 C   0  0  0  0  0  3  0  0  0  0  0  0
  193.7630  175.4500  145.4620 N   0  0  0  0  0  0  0  0  0  0  0  0
  190.6830  176.5960  147.2020 C   0  0  0  0  0  2  0  0  0  0  0  0
  190.3660  175.7760  144.2750 C   0  0  0  0  0  0  0  0  0  0  0  0
  194.5900  175.1100  143.2470 N   0  0  0  0  0  0  0  0  0  0  0  0
  195.8220  174.7250  142.8880 C   0  0  0  0  0  3  0  0  0  0  0  0
  195.1250  176.3360  141.5620 C   0  0  0  0  0  3  0  0  0  0  0  0
  196.2040  175.4970  141.8040 C   0  0  0  0  0  3  0  0  0  0  0  0
  194.1550  176.0750  142.4580 N   0  0  0  0  0  0  0  0  0  0  0  0
  186.3220  179.0940  142.8900 S   0  0  0  0  0  0  0  0  0  0  0  0
  185.0010  178.0920  143.6350 C   0  0  1  0  0  3  0  0  0  0  0  0
  185.1880  176.7500  143.3050 O   0  0  0  0  0  1  0  0  0  0  0  0
  186.0760  179.3110  145.8120 O   0  0  0  0  0  0  0  0  0  0  0  0
  185.0330  178.2830  145.4390 P   0  0  1  0  0  0  0  0  0  0  0  0
  183.5140  178.8000  145.9780 O   0  0  0  0  0  1  0  0  0  0  0  0
  186.2600  177.0190  147.3370 C   0  0  0  0  0  1  0  0  0  0  0  0
  185.4320  176.7430  146.1770 N   0  0  0  0  0  2  0  0  0  0  0  0
  189.1170  174.2450  140.5220 C   0  0  0  0  0  2  0  0  0  0  0  0
  188.2680  172.9920  140.6790 C   0  0  0  0  0  2  0  0  0  0  0  0
  189.3750  171.9320  142.2670 C   0  0  0  0  0  1  0  0  0  0  0  0
  188.1920  172.6290  142.0240 O   0  0  0  0  0  0  0  0  0  0  0  0
  1 18  1  0  0  0  0
  2 12  1  0  0  0  0
  3 25  1  0  0  0  0
  3  2  1  0  0  0  0
  4  6  1  0  0  0  0
  5 20  1  6  0  0  0
  5 17  1  0  0  0  0
  6 18  1  0  0  0  0
  7  1  2  0  0  0  0
  9  5  1  0  0  0  0
 10  2  2  0  0  0  0
 10 15  1  0  0  0  0
 11  9  1  6  0  0  0
 11  7  1  0  0  0  0
 12  4  2  0  0  0  0
 13 10  1  0  0  0  0
 14 16  1  0  0  0  0
 14 13  2  0  0  0  0
 15 19  2  0  0  0  0
 16  3  2  0  0  0  0
 17  7  1  0  0  0  0
 17  8  1  0  0  0  0
 19 11  1  0  0  0  0
 19  4  1  0  0  0  0
 21 20  1  0  0  0  0
 22 23  1  0  0  0  0
 22 24  2  0  0  0  0
 23 21  2  0  0  0  0
 24 20  1  0  0  0  0
 25 26  1  0  0  0  0
 26 27  1  1  0  0  0
 26 29  1  0  0  0  0
 29 28  2  1  0  0  0
 29 30  1  0  0  0  0
 29 32  1  0  0  0  0
 32 31  1  0  0  0  0
 33 34  1  0  0  0  0
 33 13  1  0  0  0  0
 34 36  1  0  0  0  0
 36 35  1  0  0  0  0
M  END
>  <MODEL>
1

>  <REMARK>
 VINA RESULT:      -7.2      0.000      0.000
  Name = 
  8 active torsions:
  status: ('A' for Active; 'I' for Inactive)
    1  A    between atoms: S_1  and  C_4
    2  A    between atoms: S_1  and  C_8
    3  A    between atoms: C_4  and  P_32
    4  A    between atoms: C_10  and  C_13
    5  A    between atoms: C_10  and  C_26
    6  A    between atoms: C_11  and  N_15
    7  A    between atoms: C_13  and  O_23
    8  A    between atoms: N_21  and  P_32
                            x       y       z     vdW  Elec       q    Type
                         _______ _______ _______ _____ _____    ______ ____

>  <TORSDO>
F 8

$$$$
=
 OpenBabel11042417573D

 36 40  0  0  1  0  0  0  0  0999 V2000
  194.5420  175.7560  145.5700 N   0  0  0  0  0  0  0  0  0  0  0  0
  189.3380  175.8980  143.9210 C   0  0  0  0  0  0  0  0  0  0  0  0
  188.0410  176.4150  143.7610 C   0  0  0  0  0  0  0  0  0  0  0  0
  191.5240  175.9180  144.9890 C   0  0  0  0  0  0  0  0  0  0  0  0
  195.1090  173.7820  142.6430 C   0  0  2  0  0  3  0  0  0  0  0  0
  192.2310  176.4270  146.0040 C   0  0  0  0  0  2  0  0  0  0  0  0
  194.4120  175.0810  144.4740 C   0  0  0  0  0  0  0  0  0  0  0  0
  196.8870  175.1400  143.8990 C   0  0  0  0  0  1  0  0  0  0  0  0
  193.6300  173.4580  142.9290 C   0  0  0  0  0  2  0  0  0  0  0  0
  189.7360  174.7740  143.1770 C   0  0  0  0  0  0  0  0  0  0  0  0
  193.2050  174.4140  144.0080 C   0  0  2  0  0  3  0  0  0  0  0  0
  190.2430  176.4510  144.8270 C   0  0  0  0  0  3  0  0  0  0  0  0
  188.8280  174.1890  142.2800 C   0  0  0  0  0  0  0  0  0  0  0  0
  187.5840  174.7190  142.1370 N   0  0  0  0  0  0  0  0  0  0  0  0
  191.0020  174.2980  143.3010 N   0  0  0  0  0  0  0  0  0  0  0  0
  187.1790  175.8040  142.8490 C   0  0  0  0  0  3  0  0  0  0  0  0
  195.5060  174.7710  143.6350 N   0  0  0  0  0  0  0  0  0  0  0  0
  193.4910  175.8600  146.5640 C   0  0  0  0  0  2  0  0  0  0  0  0
  191.9290  174.8410  144.1430 C   0  0  0  0  0  0  0  0  0  0  0  0
  195.2470  174.3360  141.3010 N   0  0  0  0  0  0  0  0  0  0  0  0
  194.2800  174.9830  140.6360 C   0  0  0  0  0  3  0  0  0  0  0  0
  196.1110  174.9190  139.4190 C   0  0  0  0  0  3  0  0  0  0  0  0
  194.8000  175.3730  139.4130 C   0  0  0  0  0  3  0  0  0  0  0  0
  196.3550  174.2920  140.5850 N   0  0  0  0  0  0  0  0  0  0  0  0
  187.4610  177.8450  144.6800 S   0  0  0  0  0  0  0  0  0  0  0  0
  185.7390  177.2650  144.6830 C   0  0  1  0  0  3  0  0  0  0  0  0
  185.4340  176.7080  145.9240 O   0  0  0  0  0  1  0  0  0  0  0  0
  183.6830  178.8290  145.5250 O   0  0  0  0  0  1  0  0  0  0  0  0
  184.6240  178.6590  144.3540 P   0  0  1  0  0  0  0  0  0  0  0  0
  185.5330  180.0720  144.1520 O   0  0  0  0  0  0  0  0  0  0  0  0
  184.6380  178.3210  141.7870 C   0  0  0  0  0  1  0  0  0  0  0  0
  183.7030  178.3320  142.8990 N   0  0  0  0  0  2  0  0  0  0  0  0
  189.2180  173.0110  141.4440 C   0  0  0  0  0  2  0  0  0  0  0  0
  188.5160  173.0500  140.0950 C   0  0  0  0  0  2  0  0  0  0  0  0
  190.5200  172.9950  139.1720 C   0  0  0  0  0  1  0  0  0  0  0  0
  189.3180  173.7010  139.1560 O   0  0  0  0  0  0  0  0  0  0  0  0
  1 18  1  0  0  0  0
  2 12  1  0  0  0  0
  3  2  1  0  0  0  0
  3 25  1  0  0  0  0
  4  6  1  0  0  0  0
  5 20  1  6  0  0  0
  5  9  1  0  0  0  0
  5 17  1  0  0  0  0
  6 18  1  0  0  0  0
  7  1  2  0  0  0  0
 10 15  1  0  0  0  0
 10  2  2  0  0  0  0
 11  9  1  6  0  0  0
 11 19  1  0  0  0  0
 11  7  1  0  0  0  0
 12  4  2  0  0  0  0
 13 10  1  0  0  0  0
 14 13  2  0  0  0  0
 14 16  1  0  0  0  0
 15 19  2  0  0  0  0
 16  3  2  0  0  0  0
 17  8  1  0  0  0  0
 17  7  1  0  0  0  0
 19  4  1  0  0  0  0
 21 20  1  0  0  0  0
 22 24  2  0  0  0  0
 23 22  1  0  0  0  0
 23 21  2  0  0  0  0
 24 20  1  0  0  0  0
 25 26  1  0  0  0  0
 26 27  1  1  0  0  0
 29 30  2  6  0  0  0
 29 26  1  0  0  0  0
 29 28  1  0  0  0  0
 31 32  1  0  0  0  0
 32 29  1  0  0  0  0
 33 13  1  0  0  0  0
 34 33  1  0  0  0  0
 36 35  1  0  0  0  0
 36 34  1  0  0  0  0
M  END
>  <MODEL>
2

>  <REMARK>
 VINA RESULT:      -6.9      1.828      2.604
  Name = 
  8 active torsions:
  status: ('A' for Active; 'I' for Inactive)
    1  A    between atoms: S_1  and  C_4
    2  A    between atoms: S_1  and  C_8
    3  A    between atoms: C_4  and  P_32
    4  A    between atoms: C_10  and  C_13
    5  A    between atoms: C_10  and  C_26
    6  A    between atoms: C_11  and  N_15
    7  A    between atoms: C_13  and  O_23
    8  A    between atoms: N_21  and  P_32
                            x       y       z     vdW  Elec       q    Type
                         _______ _______ _______ _____ _____    ______ ____

>  <TORSDO>
F 8

$$$$
=
 OpenBabel11042417573D

 36 40  0  0  1  0  0  0  0  0999 V2000
  191.3750  170.3490  142.7680 N   0  0  0  0  0  0  0  0  0  0  0  0
  190.7270  174.7510  145.9350 C   0  0  0  0  0  0  0  0  0  0  0  0
  190.0580  175.6610  146.7710 C   0  0  0  0  0  0  0  0  0  0  0  0
  190.7130  172.9060  144.3490 C   0  0  0  0  0  0  0  0  0  0  0  0
  194.7740  170.4140  143.8770 C   0  0  2  0  0  3  0  0  0  0  0  0
  189.9320  172.1560  143.5630 C   0  0  0  0  0  2  0  0  0  0  0  0
  192.4990  170.6500  143.3340 C   0  0  0  0  0  0  0  0  0  0  0  0
  193.5370  168.3590  142.9650 C   0  0  0  0  0  1  0  0  0  0  0  0
  194.4020  171.9050  143.9960 C   0  0  0  0  0  2  0  0  0  0  0  0
  192.1260  174.8170  145.8120 C   0  0  0  0  0  0  0  0  0  0  0  0
  192.9160  171.9720  143.7770 C   0  0  2  0  0  3  0  0  0  0  0  0
  190.0380  173.7940  145.1890 C   0  0  0  0  0  3  0  0  0  0  0  0
  192.8330  175.7910  146.5350 C   0  0  0  0  0  0  0  0  0  0  0  0
  192.1590  176.6500  147.3460 N   0  0  0  0  0  0  0  0  0  0  0  0
  192.7780  173.9120  145.0350 N   0  0  0  0  0  0  0  0  0  0  0  0
  190.8060  176.6050  147.4760 C   0  0  0  0  0  3  0  0  0  0  0  0
  193.5600  169.7260  143.4610 N   0  0  0  0  0  0  0  0  0  0  0  0
  190.3850  171.3430  142.3980 C   0  0  0  0  0  2  0  0  0  0  0  0
  192.1410  172.9340  144.3280 C   0  0  0  0  0  0  0  0  0  0  0  0
  195.2180  169.9070  145.1700 N   0  0  0  0  0  0  0  0  0  0  0  0
  196.4930  169.8760  145.5840 C   0  0  0  0  0  3  0  0  0  0  0  0
  195.1750  169.0890  147.1590 C   0  0  0  0  0  3  0  0  0  0  0  0
  196.5050  169.3500  146.8650 C   0  0  0  0  0  3  0  0  0  0  0  0
  194.4130  169.4420  146.1070 N   0  0  0  0  0  0  0  0  0  0  0  0
  188.2740  175.6400  146.9730 S   0  0  0  0  0  0  0  0  0  0  0  0
  188.0800  177.3120  146.2870 C   0  0  1  0  0  3  0  0  0  0  0  0
  188.3250  177.2870  144.9140 O   0  0  0  0  0  1  0  0  0  0  0  0
  185.4440  176.7280  146.5830 O   0  0  0  0  0  0  0  0  0  0  0  0
  186.3920  177.9050  146.5900 P   0  0  1  0  0  0  0  0  0  0  0  0
  186.3270  178.6740  148.0960 O   0  0  0  0  0  1  0  0  0  0  0  0
  184.5470  178.7880  145.0020 C   0  0  0  0  0  1  0  0  0  0  0  0
  185.9410  179.0350  145.3270 N   0  0  0  0  0  2  0  0  0  0  0  0
  194.3250  175.8790  146.4610 C   0  0  0  0  0  2  0  0  0  0  0  0
  194.7580  176.7050  145.2600 C   0  0  0  0  0  2  0  0  0  0  0  0
  195.0920  176.0540  143.1780 C   0  0  0  0  0  1  0  0  0  0  0  0
  195.6330  175.9670  144.4600 O   0  0  0  0  0  0  0  0  0  0  0  0
  1  7  2  0  0  0  0
  2  3  2  0  0  0  0
  3 25  1  0  0  0  0
  3 16  1  0  0  0  0
  4 12  2  0  0  0  0
  5  9  1  1  0  0  0
  5 20  1  0  0  0  0
  6  4  1  0  0  0  0
  7 17  1  0  0  0  0
  7 11  1  0  0  0  0
  8 17  1  0  0  0  0
 10  2  1  0  0  0  0
 10 13  2  0  0  0  0
 11  9  1  1  0  0  0
 11 19  1  0  0  0  0
 12  2  1  0  0  0  0
 13 14  1  0  0  0  0
 14 16  2  0  0  0  0
 15 10  1  0  0  0  0
 17  5  1  0  0  0  0
 18  1  1  0  0  0  0
 18  6  1  0  0  0  0
 19  4  1  0  0  0  0
 19 15  2  0  0  0  0
 20 21  1  0  0  0  0
 20 24  1  0  0  0  0
 21 23  2  0  0  0  0
 23 22  1  0  0  0  0
 24 22  2  0  0  0  0
 26 27  1  6  0  0  0
 26 29  1  0  0  0  0
 26 25  1  0  0  0  0
 29 28  2  6  0  0  0
 29 30  1  0  0  0  0
 31 32  1  0  0  0  0
 32 29  1  0  0  0  0
 33 13  1  0  0  0  0
 34 33  1  0  0  0  0
 35 36  1  0  0  0  0
 36 34  1  0  0  0  0
M  END
>  <MODEL>
3

>  <REMARK>
 VINA RESULT:      -6.9      3.662      5.921
  Name = 
  8 active torsions:
  status: ('A' for Active; 'I' for Inactive)
    1  A    between atoms: S_1  and  C_4
    2  A    between atoms: S_1  and  C_8
    3  A    between atoms: C_4  and  P_32
    4  A    between atoms: C_10  and  C_13
    5  A    between atoms: C_10  and  C_26
    6  A    between atoms: C_11  and  N_15
    7  A    between atoms: C_13  and  O_23
    8  A    between atoms: N_21  and  P_32
                            x       y       z     vdW  Elec       q    Type
                         _______ _______ _______ _____ _____    ______ ____

>  <TORSDO>
F 8

$$$$
=
 OpenBabel11042417573D

 36 40  0  0  1  0  0  0  0  0999 V2000
  190.3800  176.7870  146.8300 N   0  0  0  0  0  0  0  0  0  0  0  0
  195.0570  174.9010  144.7340 C   0  0  0  0  0  0  0  0  0  0  0  0
  196.2000  174.0890  144.6330 C   0  0  0  0  0  0  0  0  0  0  0  0
  193.1570  175.7600  145.9860 C   0  0  0  0  0  0  0  0  0  0  0  0
  189.5390  177.6060  143.4520 C   0  0  2  0  0  3  0  0  0  0  0  0
  192.6020  175.8340  147.2010 C   0  0  0  0  0  2  0  0  0  0  0  0
  190.3870  176.9610  145.5470 C   0  0  0  0  0  0  0  0  0  0  0  0
  187.8670  177.2390  145.3630 C   0  0  0  0  0  1  0  0  0  0  0  0
  191.0780  177.6800  143.3930 C   0  0  0  0  0  2  0  0  0  0  0  0
  194.6930  175.7270  143.6570 C   0  0  0  0  0  0  0  0  0  0  0  0
  191.5610  177.1240  144.7030 C   0  0  2  0  0  3  0  0  0  0  0  0
  194.2810  174.9370  145.8920 C   0  0  0  0  0  3  0  0  0  0  0  0
  195.4780  175.7220  142.4920 C   0  0  0  0  0  0  0  0  0  0  0  0
  196.5720  174.9170  142.4190 N   0  0  0  0  0  0  0  0  0  0  0  0
  193.5660  176.4810  143.7370 N   0  0  0  0  0  0  0  0  0  0  0  0
  196.9430  174.1130  143.4510 C   0  0  0  0  0  3  0  0  0  0  0  0
  189.2060  177.1700  144.8000 N   0  0  0  0  0  0  0  0  0  0  0  0
  191.5830  176.8300  147.6390 C   0  0  0  0  0  2  0  0  0  0  0  0
  192.7580  176.5080  144.8360 C   0  0  0  0  0  0  0  0  0  0  0  0
  189.0490  176.6400  142.4770 N   0  0  0  0  0  0  0  0  0  0  0  0
  189.5350  175.4010  142.3140 C   0  0  0  0  0  3  0  0  0  0  0  0
  187.8660  175.7390  140.9220 C   0  0  0  0  0  3  0  0  0  0  0  0
  188.7970  174.7890  141.3150 C   0  0  0  0  0  3  0  0  0  0  0  0
  188.0430  176.8570  141.6510 N   0  0  0  0  0  0  0  0  0  0  0  0
  196.7290  173.0130  145.9700 S   0  0  0  0  0  0  0  0  0  0  0  0
  196.7640  171.5430  144.9010 C   0  0  1  0  0  3  0  0  0  0  0  0
  197.6150  170.5840  145.4500 O   0  0  0  0  0  1  0  0  0  0  0  0
  194.2060  171.4700  145.8160 O   0  0  0  0  0  1  0  0  0  0  0  0
  195.0910  170.8550  144.7550 P   0  0  1  0  0  0  0  0  0  0  0  0
  194.4660  171.2140  143.2230 O   0  0  0  0  0  0  0  0  0  0  0  0
  194.5880  168.8230  146.2790 C   0  0  0  0  0  1  0  0  0  0  0  0
  195.1580  169.1170  144.9760 N   0  0  0  0  0  2  0  0  0  0  0  0
  195.1120  176.5610  141.3090 C   0  0  0  0  0  2  0  0  0  0  0  0
  194.8550  175.6900  140.0890 C   0  0  0  0  0  2  0  0  0  0  0  0
  193.4710  174.2910  139.0900 C   0  0  0  0  0  1  0  0  0  0  0  0
  193.8030  174.8080  140.3410 O   0  0  0  0  0  0  0  0  0  0  0  0
  1 18  1  0  0  0  0
  2 12  1  0  0  0  0
  3  2  1  0  0  0  0
  3 25  1  0  0  0  0
  4  6  1  0  0  0  0
  5 20  1  6  0  0  0
  5 17  1  0  0  0  0
  6 18  1  0  0  0  0
  7  1  2  0  0  0  0
  9  5  1  0  0  0  0
 10 15  1  0  0  0  0
 10  2  2  0  0  0  0
 11  9  1  6  0  0  0
 11 19  1  0  0  0  0
 11  7  1  0  0  0  0
 12  4  2  0  0  0  0
 13 10  1  0  0  0  0
 14 13  2  0  0  0  0
 14 16  1  0  0  0  0
 15 19  2  0  0  0  0
 16  3  2  0  0  0  0
 17  8  1  0  0  0  0
 17  7  1  0  0  0  0
 19  4  1  0  0  0  0
 21 20  1  0  0  0  0
 22 23  1  0  0  0  0
 22 24  2  0  0  0  0
 23 21  2  0  0  0  0
 24 20  1  0  0  0  0
 26 27  1  1  0  0  0
 26 25  1  0  0  0  0
 29 30  2  6  0  0  0
 29 26  1  0  0  0  0
 29 32  1  0  0  0  0
 29 28  1  0  0  0  0
 32 31  1  0  0  0  0
 33 13  1  0  0  0  0
 34 36  1  0  0  0  0
 34 33  1  0  0  0  0
 35 36  1  0  0  0  0
M  END
>  <MODEL>
4

>  <REMARK>
 VINA RESULT:      -6.7      4.720      8.077
  Name = 
  8 active torsions:
  status: ('A' for Active; 'I' for Inactive)
    1  A    between atoms: S_1  and  C_4
    2  A    between atoms: S_1  and  C_8
    3  A    between atoms: C_4  and  P_32
    4  A    between atoms: C_10  and  C_13
    5  A    between atoms: C_10  and  C_26
    6  A    between atoms: C_11  and  N_15
    7  A    between atoms: C_13  and  O_23
    8  A    between atoms: N_21  and  P_32
                            x       y       z     vdW  Elec       q    Type
                         _______ _______ _______ _____ _____    ______ ____

>  <TORSDO>
F 8

$$$$
=
 OpenBabel11042417573D

 36 40  0  0  1  0  0  0  0  0999 V2000
  190.4750  170.8580  140.6380 N   0  0  0  0  0  0  0  0  0  0  0  0
  190.7650  175.4550  143.5730 C   0  0  0  0  0  0  0  0  0  0  0  0
  191.2620  176.3510  144.5340 C   0  0  0  0  0  0  0  0  0  0  0  0
  190.6500  173.2320  142.5890 C   0  0  0  0  0  0  0  0  0  0  0  0
  189.1160  172.9360  138.0640 C   0  0  2  0  0  3  0  0  0  0  0  0
  190.9770  171.9480  142.7680 C   0  0  0  0  0  2  0  0  0  0  0  0
  190.0180  171.8510  139.9440 C   0  0  0  0  0  0  0  0  0  0  0  0
  190.2640  170.6700  137.7060 C   0  0  0  0  0  1  0  0  0  0  0  0
  188.6960  173.7220  139.3220 C   0  0  0  0  0  2  0  0  0  0  0  0
  189.8170  175.8950  142.6340 C   0  0  0  0  0  0  0  0  0  0  0  0
  189.4140  173.0660  140.4680 C   0  0  2  0  0  3  0  0  0  0  0  0
  191.1630  174.1180  143.5390 C   0  0  0  0  0  3  0  0  0  0  0  0
  189.3850  177.2310  142.6710 C   0  0  0  0  0  0  0  0  0  0  0  0
  189.8930  178.0790  143.6050 N   0  0  0  0  0  0  0  0  0  0  0  0
  189.3660  175.0410  141.6790 N   0  0  0  0  0  0  0  0  0  0  0  0
  190.8090  177.6710  144.5230 C   0  0  0  0  0  3  0  0  0  0  0  0
  189.9090  171.8100  138.5360 N   0  0  0  0  0  0  0  0  0  0  0  0
  190.3540  170.7810  142.0810 C   0  0  0  0  0  2  0  0  0  0  0  0
  189.7670  173.7390  141.5870 C   0  0  0  0  0  0  0  0  0  0  0  0
  189.9200  173.7840  137.1920 N   0  0  0  0  0  0  0  0  0  0  0  0
  189.4600  174.4220  136.1060 C   0  0  0  0  0  3  0  0  0  0  0  0
  191.5920  174.8810  136.3980 C   0  0  0  0  0  3  0  0  0  0  0  0
  190.5130  175.1390  135.5640 C   0  0  0  0  0  3  0  0  0  0  0  0
  191.1980  174.0530  137.3830 N   0  0  0  0  0  0  0  0  0  0  0  0
  192.4710  175.8580  145.7680 S   0  0  0  0  0  0  0  0  0  0  0  0
  193.7640  176.9250  145.0660 C   0  0  1  0  0  3  0  0  0  0  0  0
  194.5570  177.4370  146.0930 O   0  0  0  0  0  1  0  0  0  0  0  0
  194.1260  175.9090  142.5730 O   0  0  0  0  0  0  0  0  0  0  0  0
  194.7980  175.9630  143.9260 P   0  0  1  0  0  0  0  0  0  0  0  0
  196.3110  176.7060  143.7740 O   0  0  0  0  0  1  0  0  0  0  0  0
  196.1220  174.3590  145.4680 C   0  0  0  0  0  1  0  0  0  0  0  0
  194.9940  174.3380  144.5530 N   0  0  0  0  0  2  0  0  0  0  0  0
  188.4020  177.7540  141.6720 C   0  0  0  0  0  2  0  0  0  0  0  0
  187.1000  178.1480  142.3510 C   0  0  0  0  0  2  0  0  0  0  0  0
  186.4930  177.5950  140.3030 C   0  0  0  0  0  1  0  0  0  0  0  0
  186.1080  178.3710  141.3960 O   0  0  0  0  0  0  0  0  0  0  0  0
  1 18  1  0  0  0  0
  2  3  2  0  0  0  0
  3 25  1  0  0  0  0
  4  6  1  0  0  0  0
  4 12  2  0  0  0  0
  5 20  1  6  0  0  0
  5 17  1  0  0  0  0
  5  9  1  0  0  0  0
  7 11  1  0  0  0  0
  7  1  2  0  0  0  0
  8 17  1  0  0  0  0
 10 13  2  0  0  0  0
 10  2  1  0  0  0  0
 11  9  1  6  0  0  0
 11 19  1  0  0  0  0
 12  2  1  0  0  0  0
 13 14  1  0  0  0  0
 14 16  2  0  0  0  0
 15 10  1  0  0  0  0
 16  3  1  0  0  0  0
 17  7  1  0  0  0  0
 18  6  1  0  0  0  0
 19 15  2  0  0  0  0
 19  4  1  0  0  0  0
 20 24  1  0  0  0  0
 21 20  1  0  0  0  0
 22 24  2  0  0  0  0
 23 21  2  0  0  0  0
 23 22  1  0  0  0  0
 26 25  1  0  0  0  0
 26 27  1  1  0  0  0
 29 28  2  6  0  0  0
 29 32  1  0  0  0  0
 29 26  1  0  0  0  0
 30 29  1  0  0  0  0
 32 31  1  0  0  0  0
 33 34  1  0  0  0  0
 33 13  1  0  0  0  0
 35 36  1  0  0  0  0
 36 34  1  0  0  0  0
M  END
>  <MODEL>
5

>  <REMARK>
 VINA RESULT:      -6.6      4.164      7.303
  Name = 
  8 active torsions:
  status: ('A' for Active; 'I' for Inactive)
    1  A    between atoms: S_1  and  C_4
    2  A    between atoms: S_1  and  C_8
    3  A    between atoms: C_4  and  P_32
    4  A    between atoms: C_10  and  C_13
    5  A    between atoms: C_10  and  C_26
    6  A    between atoms: C_11  and  N_15
    7  A    between atoms: C_13  and  O_23
    8  A    between atoms: N_21  and  P_32
                            x       y       z     vdW  Elec       q    Type
                         _______ _______ _______ _____ _____    ______ ____

>  <TORSDO>
F 8

$$$$
=
 OpenBabel11042417573D

 36 40  0  0  1  0  0  0  0  0999 V2000
  193.2880  175.4380  146.4290 N   0  0  0  0  0  0  0  0  0  0  0  0
  189.2510  176.0140  142.7970 C   0  0  0  0  0  0  0  0  0  0  0  0
  188.2010  176.6510  142.1150 C   0  0  0  0  0  0  0  0  0  0  0  0
  190.8050  175.8740  144.6640 C   0  0  0  0  0  0  0  0  0  0  0  0
  194.7490  173.2400  144.0170 C   0  0  2  0  0  3  0  0  0  0  0  0
  191.0970  176.3680  145.8720 C   0  0  0  0  0  2  0  0  0  0  0  0
  193.5320  174.7130  145.3850 C   0  0  0  0  0  0  0  0  0  0  0  0
  196.0170  174.4820  145.8690 C   0  0  0  0  0  1  0  0  0  0  0  0
  193.2530  173.0870  143.6780 C   0  0  0  0  0  2  0  0  0  0  0  0
  189.7780  174.8110  142.2970 C   0  0  0  0  0  0  0  0  0  0  0  0
  192.5460  174.1470  144.4770 C   0  0  2  0  0  3  0  0  0  0  0  0
  189.7720  176.5250  143.9860 C   0  0  0  0  0  3  0  0  0  0  0  0
  189.2470  174.2690  141.1150 C   0  0  0  0  0  0  0  0  0  0  0  0
  188.2390  174.9140  140.4700 N   0  0  0  0  0  0  0  0  0  0  0  0
  190.8200  174.2150  142.9340 N   0  0  0  0  0  0  0  0  0  0  0  0
  187.7140  176.0770  140.9390 C   0  0  0  0  0  3  0  0  0  0  0  0
  194.8260  174.2410  145.0700 N   0  0  0  0  0  0  0  0  0  0  0  0
  191.9460  175.7100  146.9060 C   0  0  0  0  0  2  0  0  0  0  0  0
  191.3850  174.7100  144.0730 C   0  0  0  0  0  0  0  0  0  0  0  0
  195.4820  173.6930  142.8400 N   0  0  0  0  0  0  0  0  0  0  0  0
  196.3650  172.9530  142.1550 C   0  0  0  0  0  3  0  0  0  0  0  0
  196.1580  174.9310  141.2160 C   0  0  0  0  0  3  0  0  0  0  0  0
  196.8260  173.7210  141.0990 C   0  0  0  0  0  3  0  0  0  0  0  0
  195.3430  174.8830  142.2860 N   0  0  0  0  0  0  0  0  0  0  0  0
  187.4740  178.1870  142.6970 S   0  0  0  0  0  0  0  0  0  0  0  0
  185.9080  177.3850  143.1530 C   0  0  1  0  0  3  0  0  0  0  0  0
  186.1560  176.3530  144.0580 O   0  0  0  0  0  1  0  0  0  0  0  0
  185.4710  179.9550  143.9170 O   0  0  0  0  0  1  0  0  0  0  0  0
  184.7970  178.6020  143.9120 P   0  0  1  0  0  0  0  0  0  0  0  0
  183.3630  178.6900  143.0180 O   0  0  0  0  0  0  0  0  0  0  0  0
  185.2600  178.9280  146.4390 C   0  0  0  0  0  1  0  0  0  0  0  0
  184.4410  178.1140  145.5580 N   0  0  0  0  0  2  0  0  0  0  0  0
  189.7980  173.0070  140.5280 C   0  0  0  0  0  2  0  0  0  0  0  0
  190.6120  173.3040  139.2790 C   0  0  0  0  0  2  0  0  0  0  0  0
  189.5510  171.4770  138.6410 C   0  0  0  0  0  1  0  0  0  0  0  0
  190.0220  172.7010  138.1670 O   0  0  0  0  0  0  0  0  0  0  0  0
  1 18  1  0  0  0  0
  2 12  1  0  0  0  0
  3 25  1  0  0  0  0
  3  2  1  0  0  0  0
  4  6  1  0  0  0  0
  5 20  1  6  0  0  0
  5 17  1  0  0  0  0
  6 18  1  0  0  0  0
  7  1  2  0  0  0  0
  9  5  1  0  0  0  0
 10  2  2  0  0  0  0
 10 15  1  0  0  0  0
 11  9  1  6  0  0  0
 11  7  1  0  0  0  0
 12  4  2  0  0  0  0
 13 10  1  0  0  0  0
 14 16  1  0  0  0  0
 14 13  2  0  0  0  0
 15 19  2  0  0  0  0
 16  3  2  0  0  0  0
 17  7  1  0  0  0  0
 17  8  1  0  0  0  0
 19 11  1  0  0  0  0
 19  4  1  0  0  0  0
 21 20  1  0  0  0  0
 22 24  2  0  0  0  0
 23 22  1  0  0  0  0
 23 21  2  0  0  0  0
 24 20  1  0  0  0  0
 25 26  1  0  0  0  0
 26 29  1  0  0  0  0
 26 27  1  1  0  0  0
 29 30  2  6  0  0  0
 29 28  1  0  0  0  0
 29 32  1  0  0  0  0
 32 31  1  0  0  0  0
 33 13  1  0  0  0  0
 34 33  1  0  0  0  0
 36 35  1  0  0  0  0
 36 34  1  0  0  0  0
M  END
>  <MODEL>
6

>  <REMARK>
 VINA RESULT:      -6.6      1.684      1.915
  Name = 
  8 active torsions:
  status: ('A' for Active; 'I' for Inactive)
    1  A    between atoms: S_1  and  C_4
    2  A    between atoms: S_1  and  C_8
    3  A    between atoms: C_4  and  P_32
    4  A    between atoms: C_10  and  C_13
    5  A    between atoms: C_10  and  C_26
    6  A    between atoms: C_11  and  N_15
    7  A    between atoms: C_13  and  O_23
    8  A    between atoms: N_21  and  P_32
                            x       y       z     vdW  Elec       q    Type
                         _______ _______ _______ _____ _____    ______ ____

>  <TORSDO>
F 8

$$$$
=
 OpenBabel11042417573D

 36 40  0  0  1  0  0  0  0  0999 V2000
  189.6430  171.7630  139.3770 N   0  0  0  0  0  0  0  0  0  0  0  0
  188.7380  175.8880  142.8390 C   0  0  0  0  0  0  0  0  0  0  0  0
  187.9960  176.7530  143.6610 C   0  0  0  0  0  0  0  0  0  0  0  0
  188.8710  174.1970  141.0950 C   0  0  0  0  0  0  0  0  0  0  0  0
  192.8540  171.5450  140.9370 C   0  0  2  0  0  3  0  0  0  0  0  0
  188.1780  173.5650  140.1420 C   0  0  0  0  0  2  0  0  0  0  0  0
  190.6890  171.9510  140.1170 C   0  0  0  0  0  0  0  0  0  0  0  0
  191.6750  169.6510  139.6710 C   0  0  0  0  0  1  0  0  0  0  0  0
  192.5290  173.0370  141.1490 C   0  0  0  0  0  2  0  0  0  0  0  0
  190.1410  175.8900  142.9140 C   0  0  0  0  0  0  0  0  0  0  0  0
  191.0930  173.2030  140.7380 C   0  0  2  0  0  3  0  0  0  0  0  0
  188.1220  175.0400  141.9190 C   0  0  0  0  0  3  0  0  0  0  0  0
  190.7790  176.7560  143.8170 C   0  0  0  0  0  0  0  0  0  0  0  0
  190.0340  177.5730  144.6090 N   0  0  0  0  0  0  0  0  0  0  0  0
  190.8580  175.0260  142.1480 N   0  0  0  0  0  0  0  0  0  0  0  0
  188.6760  177.5880  144.5500 C   0  0  0  0  0  3  0  0  0  0  0  0
  191.6830  170.9640  140.2950 N   0  0  0  0  0  0  0  0  0  0  0  0
  188.7550  172.8370  138.9760 C   0  0  0  0  0  2  0  0  0  0  0  0
  190.2880  174.1510  141.2700 C   0  0  0  0  0  0  0  0  0  0  0  0
  193.0930  170.9010  142.2220 N   0  0  0  0  0  0  0  0  0  0  0  0
  194.1340  170.1030  142.4990 C   0  0  0  0  0  3  0  0  0  0  0  0
  192.8680  170.3250  144.2830 C   0  0  0  0  0  3  0  0  0  0  0  0
  194.0220  169.7090  143.8210 C   0  0  0  0  0  3  0  0  0  0  0  0
  192.3250  171.0480  143.2860 N   0  0  0  0  0  0  0  0  0  0  0  0
  186.2010  176.8090  143.6170 S   0  0  0  0  0  0  0  0  0  0  0  0
  186.1380  178.4550  144.3870 C   0  0  1  0  0  3  0  0  0  0  0  0
  185.6230  179.3780  143.4770 O   0  0  0  0  0  1  0  0  0  0  0  0
  183.7270  178.9820  145.5210 O   0  0  0  0  0  0  0  0  0  0  0  0
  185.0800  178.4010  145.8600 P   0  0  1  0  0  0  0  0  0  0  0  0
  184.8950  176.7950  146.3620 O   0  0  0  0  0  1  0  0  0  0  0  0
  186.5130  178.4110  148.0170 C   0  0  0  0  0  1  0  0  0  0  0  0
  185.8230  179.3410  147.1400 N   0  0  0  0  0  2  0  0  0  0  0  0
  192.2690  176.7700  143.9530 C   0  0  0  0  0  2  0  0  0  0  0  0
  192.7050  176.0030  145.1920 C   0  0  0  0  0  2  0  0  0  0  0  0
  194.1900  176.7980  146.6160 C   0  0  0  0  0  1  0  0  0  0  0  0
  194.0790  176.1480  145.3880 O   0  0  0  0  0  0  0  0  0  0  0  0
  1  7  2  0  0  0  0
  2 10  1  0  0  0  0
  2  3  2  0  0  0  0
  3 16  1  0  0  0  0
  4 19  1  0  0  0  0
  4 12  2  0  0  0  0
  5  9  1  1  0  0  0
  5 20  1  0  0  0  0
  6  4  1  0  0  0  0
  7 17  1  0  0  0  0
  7 11  1  0  0  0  0
  8 17  1  0  0  0  0
 10 13  2  0  0  0  0
 11  9  1  1  0  0  0
 11 19  1  0  0  0  0
 12  2  1  0  0  0  0
 13 33  1  0  0  0  0
 13 14  1  0  0  0  0
 15 10  1  0  0  0  0
 16 14  2  0  0  0  0
 17  5  1  0  0  0  0
 18  1  1  0  0  0  0
 18  6  1  0  0  0  0
 19 15  2  0  0  0  0
 20 21  1  0  0  0  0
 20 24  1  0  0  0  0
 21 23  2  0  0  0  0
 23 22  1  0  0  0  0
 24 22  2  0  0  0  0
 25  3  1  0  0  0  0
 25 26  1  0  0  0  0
 26 27  1  6  0  0  0
 26 29  1  0  0  0  0
 29 28  2  6  0  0  0
 29 30  1  0  0  0  0
 29 32  1  0  0  0  0
 32 31  1  0  0  0  0
 33 34  1  0  0  0  0
 34 36  1  0  0  0  0
 36 35  1  0  0  0  0
M  END
>  <MODEL>
7

>  <REMARK>
 VINA RESULT:      -6.6      3.009      5.215
  Name = 
  8 active torsions:
  status: ('A' for Active; 'I' for Inactive)
    1  A    between atoms: S_1  and  C_4
    2  A    between atoms: S_1  and  C_8
    3  A    between atoms: C_4  and  P_32
    4  A    between atoms: C_10  and  C_13
    5  A    between atoms: C_10  and  C_26
    6  A    between atoms: C_11  and  N_15
    7  A    between atoms: C_13  and  O_23
    8  A    between atoms: N_21  and  P_32
                            x       y       z     vdW  Elec       q    Type
                         _______ _______ _______ _____ _____    ______ ____

>  <TORSDO>
F 8

$$$$
=
 OpenBabel11042417573D

 36 40  0  0  1  0  0  0  0  0999 V2000
  195.3000  176.1700  144.9720 N   0  0  0  0  0  0  0  0  0  0  0  0
  189.9940  175.8710  143.7170 C   0  0  0  0  0  0  0  0  0  0  0  0
  188.6590  176.2970  143.6140 C   0  0  0  0  0  0  0  0  0  0  0  0
  192.2440  176.1080  144.6110 C   0  0  0  0  0  0  0  0  0  0  0  0
  195.7830  173.9860  142.1820 C   0  0  2  0  0  3  0  0  0  0  0  0
  192.9880  176.7420  145.5240 C   0  0  0  0  0  2  0  0  0  0  0  0
  195.1360  175.3960  143.9480 C   0  0  0  0  0  0  0  0  0  0  0  0
  197.5550  175.5470  143.1830 C   0  0  0  0  0  1  0  0  0  0  0  0
  194.3510  173.6030  142.6050 C   0  0  0  0  0  2  0  0  0  0  0  0
  190.4090  174.7110  143.0400 C   0  0  0  0  0  0  0  0  0  0  0  0
  193.9440  174.6230  143.6320 C   0  0  2  0  0  3  0  0  0  0  0  0
  190.9240  176.5510  144.5030 C   0  0  0  0  0  3  0  0  0  0  0  0
  189.4780  173.9990  142.2660 C   0  0  0  0  0  0  0  0  0  0  0  0
  188.1960  174.4420  142.1750 N   0  0  0  0  0  0  0  0  0  0  0  0
  191.7080  174.3200  143.1060 N   0  0  0  0  0  0  0  0  0  0  0  0
  187.7740  175.5600  142.8240 C   0  0  0  0  0  3  0  0  0  0  0  0
  196.1850  175.0780  143.0570 N   0  0  0  0  0  0  0  0  0  0  0  0
  194.3180  176.2990  146.0310 C   0  0  0  0  0  2  0  0  0  0  0  0
  192.6560  174.9860  143.8280 C   0  0  0  0  0  0  0  0  0  0  0  0
  195.7890  174.4280  140.7930 N   0  0  0  0  0  0  0  0  0  0  0  0
  194.7490  174.9920  140.1620 C   0  0  0  0  0  3  0  0  0  0  0  0
  196.4740  174.8730  138.8030 C   0  0  0  0  0  3  0  0  0  0  0  0
  195.1530  175.2900  138.8720 C   0  0  0  0  0  3  0  0  0  0  0  0
  196.8350  174.3530  139.9900 N   0  0  0  0  0  0  0  0  0  0  0  0
  188.0560  177.7650  144.4540 S   0  0  0  0  0  0  0  0  0  0  0  0
  186.9760  176.8070  145.5590 C   0  0  1  0  0  3  0  0  0  0  0  0
  187.7480  176.1660  146.5270 O   0  0  0  0  0  1  0  0  0  0  0  0
  184.4680  177.2000  146.5260 O   0  0  0  0  0  0  0  0  0  0  0  0
  185.7900  177.9170  146.3660 P   0  0  1  0  0  0  0  0  0  0  0  0
  186.3780  178.3600  147.8900 O   0  0  0  0  0  1  0  0  0  0  0  0
  184.4340  179.1010  144.5040 C   0  0  0  0  0  1  0  0  0  0  0  0
  185.5690  179.3470  145.3770 N   0  0  0  0  0  2  0  0  0  0  0  0
  189.8820  172.7770  141.5020 C   0  0  0  0  0  2  0  0  0  0  0  0
  189.8040  171.5400  142.3830 C   0  0  0  0  0  2  0  0  0  0  0  0
  190.8080  170.9540  140.5070 C   0  0  0  0  0  1  0  0  0  0  0  0
  190.4500  170.4680  141.7640 O   0  0  0  0  0  0  0  0  0  0  0  0
  1 18  1  0  0  0  0
  2 12  1  0  0  0  0
  3  2  1  0  0  0  0
  3 25  1  0  0  0  0
  4  6  1  0  0  0  0
  5 20  1  6  0  0  0
  5  9  1  0  0  0  0
  5 17  1  0  0  0  0
  6 18  1  0  0  0  0
  7  1  2  0  0  0  0
 10 15  1  0  0  0  0
 10  2  2  0  0  0  0
 11  9  1  6  0  0  0
 11 19  1  0  0  0  0
 11  7  1  0  0  0  0
 12  4  2  0  0  0  0
 13 10  1  0  0  0  0
 14 13  2  0  0  0  0
 14 16  1  0  0  0  0
 15 19  2  0  0  0  0
 16  3  2  0  0  0  0
 17  8  1  0  0  0  0
 17  7  1  0  0  0  0
 19  4  1  0  0  0  0
 21 20  1  0  0  0  0
 22 23  1  0  0  0  0
 22 24  2  0  0  0  0
 23 21  2  0  0  0  0
 24 20  1  0  0  0  0
 25 26  1  0  0  0  0
 26 29  1  0  0  0  0
 26 27  1  1  0  0  0
 29 28  2  1  0  0  0
 29 30  1  0  0  0  0
 31 32  1  0  0  0  0
 32 29  1  0  0  0  0
 33 13  1  0  0  0  0
 33 34  1  0  0  0  0
 35 36  1  0  0  0  0
 36 34  1  0  0  0  0
M  END
>  <MODEL>
8

>  <REMARK>
 VINA RESULT:      -6.6      2.022      2.963
  Name = 
  8 active torsions:
  status: ('A' for Active; 'I' for Inactive)
    1  A    between atoms: S_1  and  C_4
    2  A    between atoms: S_1  and  C_8
    3  A    between atoms: C_4  and  P_32
    4  A    between atoms: C_10  and  C_13
    5  A    between atoms: C_10  and  C_26
    6  A    between atoms: C_11  and  N_15
    7  A    between atoms: C_13  and  O_23
    8  A    between atoms: N_21  and  P_32
                            x       y       z     vdW  Elec       q    Type
                         _______ _______ _______ _____ _____    ______ ____

>  <TORSDO>
F 8

$$$$
=
 OpenBabel11042417573D

 36 40  0  0  1  0  0  0  0  0999 V2000
  195.2770  175.9220  143.5730 N   0  0  0  0  0  0  0  0  0  0  0  0
  189.8280  175.7820  143.2390 C   0  0  0  0  0  0  0  0  0  0  0  0
  188.5080  176.2470  143.3660 C   0  0  0  0  0  0  0  0  0  0  0  0
  192.2040  175.9490  143.7370 C   0  0  0  0  0  0  0  0  0  0  0  0
  195.2140  173.7420  140.7390 C   0  0  2  0  0  3  0  0  0  0  0  0
  193.1100  176.5560  144.5110 C   0  0  0  0  0  2  0  0  0  0  0  0
  194.9180  175.1590  142.5900 C   0  0  0  0  0  0  0  0  0  0  0  0
  197.1760  175.2450  141.4250 C   0  0  0  0  0  1  0  0  0  0  0  0
  193.8640  173.3970  141.3990 C   0  0  0  0  0  2  0  0  0  0  0  0
  190.0880  174.6150  142.5000 C   0  0  0  0  0  0  0  0  0  0  0  0
  193.6680  174.4220  142.4810 C   0  0  2  0  0  3  0  0  0  0  0  0
  190.8980  176.4300  143.8560 C   0  0  0  0  0  3  0  0  0  0  0  0
  189.0190  173.9350  141.8950 C   0  0  0  0  0  0  0  0  0  0  0  0
  187.7530  174.4150  142.0240 N   0  0  0  0  0  0  0  0  0  0  0  0
  191.3680  174.1870  142.3440 N   0  0  0  0  0  0  0  0  0  0  0  0
  187.4810  175.5410  142.7370 C   0  0  0  0  0  3  0  0  0  0  0  0
  195.7910  174.8160  141.5340 N   0  0  0  0  0  0  0  0  0  0  0  0
  194.4930  176.0730  144.7840 C   0  0  0  0  0  2  0  0  0  0  0  0
  192.4430  174.8210  142.8940 C   0  0  0  0  0  0  0  0  0  0  0  0
  194.9970  174.1920  139.3690 N   0  0  0  0  0  0  0  0  0  0  0  0
  195.5500  173.6360  138.2820 C   0  0  0  0  0  3  0  0  0  0  0  0
  194.2380  175.2970  137.6870 C   0  0  0  0  0  3  0  0  0  0  0  0
  195.0850  174.3250  137.1750 C   0  0  0  0  0  3  0  0  0  0  0  0
  194.2020  175.1890  139.0280 N   0  0  0  0  0  0  0  0  0  0  0  0
  188.1000  177.7270  144.2980 S   0  0  0  0  0  0  0  0  0  0  0  0
  187.3030  176.7830  145.6310 C   0  0  1  0  0  3  0  0  0  0  0  0
  188.2480  176.4510  146.6010 O   0  0  0  0  0  1  0  0  0  0  0  0
  184.7380  176.9410  146.5120 O   0  0  0  0  0  0  0  0  0  0  0  0
  185.9880  177.7820  146.3840 P   0  0  1  0  0  0  0  0  0  0  0  0
  186.4800  178.2970  147.9190 O   0  0  0  0  0  1  0  0  0  0  0  0
  184.3100  179.0320  144.8600 C   0  0  0  0  0  1  0  0  0  0  0  0
  185.6630  179.1720  145.3670 N   0  0  0  0  0  2  0  0  0  0  0  0
  189.2500  172.7060  141.0720 C   0  0  0  0  0  2  0  0  0  0  0  0
  188.6030  172.8440  139.7030 C   0  0  0  0  0  2  0  0  0  0  0  0
  188.5420  173.8990  137.7660 C   0  0  0  0  0  1  0  0  0  0  0  0
  189.1600  173.9230  139.0150 O   0  0  0  0  0  0  0  0  0  0  0  0
  1 18  1  0  0  0  0
  2  3  1  0  0  0  0
  2 12  1  0  0  0  0
  3 25  1  0  0  0  0
  4 12  2  0  0  0  0
  4  6  1  0  0  0  0
  5 20  1  6  0  0  0
  5  9  1  0  0  0  0
  5 17  1  0  0  0  0
  6 18  1  0  0  0  0
  7  1  2  0  0  0  0
  8 17  1  0  0  0  0
 10  2  2  0  0  0  0
 11  9  1  6  0  0  0
 11  7  1  0  0  0  0
 11 19  1  0  0  0  0
 13 14  2  0  0  0  0
 13 10  1  0  0  0  0
 14 16  1  0  0  0  0
 15 10  1  0  0  0  0
 15 19  2  0  0  0  0
 16  3  2  0  0  0  0
 17  7  1  0  0  0  0
 19  4  1  0  0  0  0
 21 20  1  0  0  0  0
 22 24  2  0  0  0  0
 23 22  1  0  0  0  0
 23 21  2  0  0  0  0
 24 20  1  0  0  0  0
 25 26  1  0  0  0  0
 26 29  1  0  0  0  0
 26 27  1  1  0  0  0
 29 28  2  1  0  0  0
 29 30  1  0  0  0  0
 31 32  1  0  0  0  0
 32 29  1  0  0  0  0
 33 13  1  0  0  0  0
 34 33  1  0  0  0  0
 35 36  1  0  0  0  0
 36 34  1  0  0  0  0
M  END
>  <MODEL>
9

>  <REMARK>
 VINA RESULT:      -6.4      2.381      3.429
  Name = 
  8 active torsions:
  status: ('A' for Active; 'I' for Inactive)
    1  A    between atoms: S_1  and  C_4
    2  A    between atoms: S_1  and  C_8
    3  A    between atoms: C_4  and  P_32
    4  A    between atoms: C_10  and  C_13
    5  A    between atoms: C_10  and  C_26
    6  A    between atoms: C_11  and  N_15
    7  A    between atoms: C_13  and  O_23
    8  A    between atoms: N_21  and  P_32
                            x       y       z     vdW  Elec       q    Type
                         _______ _______ _______ _____ _____    ______ ____

>  <TORSDO>
F 8

$$$$
