=
 OpenBabel11042415143D

 45 49  0  0  1  0  0  0  0  0999 V2000
  189.1810  174.2300  142.0680 C   0  0  0  0  0  0  0  0  0  0  0  0
  192.6660  175.4120  142.1020 C   0  0  0  0  0  0  0  0  0  0  0  0
  188.1950  173.5230  141.3770 C   0  0  0  0  0  3  0  0  0  0  0  0
  193.9940  175.6920  141.5740 C   0  0  2  0  0  3  0  0  0  0  0  0
  189.7800  172.6060  139.8430 C   0  0  0  0  0  0  0  0  0  0  0  0
  190.5110  174.1110  141.6120 C   0  0  0  0  0  0  0  0  0  0  0  0
  188.5090  172.7490  140.3070 N   0  0  0  0  0  0  0  0  0  0  0  0
  193.0390  174.3090  139.5620 C   0  0  0  0  0  2  0  0  0  0  0  0
  190.8340  173.2920  140.4960 C   0  0  0  0  0  0  0  0  0  0  0  0
  191.5830  174.9150  142.1080 C   0  0  0  0  0  0  0  0  0  0  0  0
  194.2680  174.6660  140.4430 C   0  0  0  0  0  2  0  0  0  0  0  0
  192.2970  173.0650  140.0990 C   0  0  0  0  0  2  0  0  0  0  0  0
  188.7730  175.0650  143.2300 C   0  0  0  0  0  0  0  0  0  0  0  0
  188.8770  177.0790  145.5290 C   0  0  0  0  0  2  0  0  0  0  0  0
  186.8120  176.4100  144.1480 C   0  0  0  0  0  2  0  0  0  0  0  0
  189.0740  175.5810  145.7150 C   0  0  0  0  0  2  0  0  0  0  0  0
  187.4360  177.4130  145.1230 C   0  0  1  0  0  3  0  0  0  0  0  0
  187.7460  176.1470  142.9760 C   0  0  0  0  0  2  0  0  0  0  0  0
  189.3730  174.8780  144.4220 C   0  0  0  0  0  3  0  0  0  0  0  0
  186.5370  177.6790  146.3320 C   0  0  0  0  0  2  0  0  0  0  0  0
  184.2020  178.5340  146.0910 C   0  0  0  0  0  2  0  0  0  0  0  0
  185.9460  179.5620  144.8570 C   0  0  0  0  0  2  0  0  0  0  0  0
  185.6630  178.9210  146.1810 C   0  0  2  0  0  3  0  0  0  0  0  0
  183.8020  178.5870  144.7480 O   0  0  0  0  0  0  0  0  0  0  0  0
  184.6030  179.5810  144.1680 C   0  0  0  0  0  2  0  0  0  0  0  0
  189.9190  170.3840  138.7400 N   0  0  0  0  0  0  0  0  0  0  0  0
  190.2000  172.1210  137.3520 C   0  0  0  0  0  3  0  0  0  0  0  0
  190.2730  170.9160  136.6850 C   0  0  0  0  0  0  0  0  0  0  0  0
  189.9730  171.7280  138.6620 C   0  0  1  0  0  3  0  0  0  0  0  0
  190.1100  169.8860  137.5310 N   0  0  0  0  0  0  0  0  0  0  0  0
  190.5470  170.7550  135.2300 C   0  0  0  0  0  2  0  0  0  0  0  0
  191.5040  169.5990  135.0100 C   0  0  0  0  0  1  0  0  0  0  0  0
  196.0590  176.5930  142.4830 O   0  0  0  0  0  1  0  0  0  0  0  0
  195.0810  175.6050  142.6460 C   0  0  2  0  0  3  0  0  0  0  0  0
  195.6580  174.1840  142.7690 C   0  0  0  0  0  2  0  0  0  0  0  0
  195.6530  173.5380  144.1630 C   0  0  1  0  0  3  0  0  0  0  0  0
  196.5120  174.2990  145.1560 C   0  0  0  0  0  1  0  0  0  0  0  0
  194.3000  173.3860  144.6780 N   0  0  0  0  0  2  0  0  0  0  0  0
  194.2030  174.1830  145.8930 C   0  0  0  0  0  2  0  0  0  0  0  0
  192.1940  174.7200  147.0880 O   0  0  0  0  0  1  0  0  0  0  0  0
  192.9030  174.9790  145.9110 C   0  0  1  0  0  3  0  0  0  0  0  0
  192.4240  177.1050  145.0100 O   0  0  0  0  0  0  0  0  0  0  0  0
  193.1590  176.4510  145.7320 C   0  0  0  0  0  0  0  0  0  0  0  0
  194.9880  177.9420  145.5490 O   0  0  0  0  0  1  0  0  0  0  0  0
  194.2840  177.1360  146.4430 C   0  0  0  0  0  2  0  0  0  0  0  0
  1 13  1  0  0  0  0
  2 10  3  0  0  0  0
  3  1  2  0  0  0  0
  4  2  1  0  0  0  0
  4 34  1  1  0  0  0
  5  7  2  0  0  0  0
  5  9  1  0  0  0  0
  6  1  1  0  0  0  0
  6 10  1  0  0  0  0
  7  3  1  0  0  0  0
  8 12  1  0  0  0  0
  8 11  1  0  0  0  0
  9  6  2  0  0  0  0
 11  4  1  0  0  0  0
 12  9  1  0  0  0  0
 13 19  2  0  0  0  0
 14 16  1  0  0  0  0
 15 17  1  0  0  0  0
 17 14  1  0  0  0  0
 17 20  1  1  0  0  0
 18 13  1  0  0  0  0
 18 15  1  0  0  0  0
 19 16  1  0  0  0  0
 21 23  1  0  0  0  0
 22 23  1  0  0  0  0
 23 20  1  6  0  0  0
 24 21  1  0  0  0  0
 25 24  1  0  0  0  0
 25 22  1  0  0  0  0
 27 29  1  0  0  0  0
 28 27  2  0  0  0  0
 28 30  1  0  0  0  0
 29 26  1  0  0  0  0
 29  5  1  6  0  0  0
 30 26  2  0  0  0  0
 31 28  1  0  0  0  0
 32 31  1  0  0  0  0
 34 33  1  6  0  0  0
 34 35  1  0  0  0  0
 35 36  1  0  0  0  0
 36 38  1  0  0  0  0
 36 37  1  1  0  0  0
 38 39  1  0  0  0  0
 39 41  1  0  0  0  0
 41 40  1  1  0  0  0
 42 43  2  0  0  0  0
 43 41  1  0  0  0  0
 43 45  1  0  0  0  0
 44 45  1  0  0  0  0
M  END
>  <MODEL>
1

>  <REMARK>
 VINA RESULT:      -7.2      0.000      0.000
  Name = 
  13 active torsions:
  status: ('A' for Active; 'I' for Inactive)
    1  A    between atoms: C_1  and  C_14
    2  A    between atoms: C_4  and  C_21
    3  A    between atoms: C_4  and  N_33
    4  A    between atoms: C_8  and  C_28
    5  A    between atoms: C_8  and  C_45
    6  A    between atoms: C_9  and  C_18
    7  A    between atoms: C_12  and  C_38
    8  A    between atoms: C_13  and  C_26
    9  A    between atoms: C_17  and  C_34
   10  A    between atoms: C_17  and  C_35
   11  A    between atoms: C_21  and  C_38
   12  A    between atoms: C_28  and  C_41
   13  A    between atoms: N_33  and  C_41
                            x       y       z     vdW  Elec       q    Type
                         _______ _______ _______ _____ _____    ______ ____

>  <TORSDO>
F 13

$$$$
=
 OpenBabel11042415143D

 45 49  0  0  1  0  0  0  0  0999 V2000
  192.3580  174.4500  145.2920 C   0  0  0  0  0  0  0  0  0  0  0  0
  190.6420  172.4910  142.6920 C   0  0  0  0  0  0  0  0  0  0  0  0
  193.4440  174.5300  146.1660 C   0  0  0  0  0  3  0  0  0  0  0  0
  190.3500  171.3360  141.8540 C   0  0  2  0  0  3  0  0  0  0  0  0
  194.5760  172.7200  145.0940 C   0  0  0  0  0  0  0  0  0  0  0  0
  192.4000  173.4580  144.2890 C   0  0  0  0  0  0  0  0  0  0  0  0
  194.4990  173.6850  146.0520 N   0  0  0  0  0  0  0  0  0  0  0  0
  192.5500  170.4720  142.9880 C   0  0  0  0  0  2  0  0  0  0  0  0
  193.5120  172.5810  144.1690 C   0  0  0  0  0  0  0  0  0  0  0  0
  191.2860  173.1470  143.4500 C   0  0  0  0  0  0  0  0  0  0  0  0
  191.6640  170.5230  141.7120 C   0  0  0  0  0  2  0  0  0  0  0  0
  193.6040  171.6020  142.9940 C   0  0  0  0  0  2  0  0  0  0  0  0
  191.2300  175.4030  145.4720 C   0  0  0  0  0  0  0  0  0  0  0  0
  188.8820  177.2620  144.8530 C   0  0  0  0  0  2  0  0  0  0  0  0
  189.2800  175.9390  147.0230 C   0  0  0  0  0  2  0  0  0  0  0  0
  190.3110  177.7490  145.0430 C   0  0  0  0  0  2  0  0  0  0  0  0
  188.2880  176.7270  146.1620 C   0  0  1  0  0  3  0  0  0  0  0  0
  190.0000  174.8890  146.1890 C   0  0  0  0  0  2  0  0  0  0  0  0
  191.3150  176.6360  144.9370 C   0  0  0  0  0  3  0  0  0  0  0  0
  187.5650  177.8130  146.9620 C   0  0  0  0  0  2  0  0  0  0  0  0
  185.4910  176.7040  146.1220 C   0  0  0  0  0  2  0  0  0  0  0  0
  185.3120  178.7460  147.3140 C   0  0  0  0  0  2  0  0  0  0  0  0
  186.1090  177.4780  147.2680 C   0  0  2  0  0  3  0  0  0  0  0  0
  184.7040  177.5780  145.3580 O   0  0  0  0  0  0  0  0  0  0  0  0
  184.2460  178.5430  146.2650 C   0  0  0  0  0  2  0  0  0  0  0  0
  196.9540  172.2620  144.5400 N   0  0  0  0  0  0  0  0  0  0  0  0
  195.9300  170.6050  145.6480 C   0  0  0  0  0  3  0  0  0  0  0  0
  197.2490  170.3020  145.3790 C   0  0  0  0  0  0  0  0  0  0  0  0
  195.7900  171.8670  145.0910 C   0  0  1  0  0  3  0  0  0  0  0  0
  197.8460  171.3020  144.7100 N   0  0  0  0  0  0  0  0  0  0  0  0
  197.9250  169.0230  145.7300 C   0  0  0  0  0  2  0  0  0  0  0  0
  197.4580  168.5490  147.0930 C   0  0  0  0  0  1  0  0  0  0  0  0
  190.8300  172.2230  139.6450 O   0  0  0  0  0  1  0  0  0  0  0  0
  189.8180  171.7320  140.4760 C   0  0  2  0  0  3  0  0  0  0  0  0
  188.5970  172.6630  140.5740 C   0  0  0  0  0  2  0  0  0  0  0  0
  188.8380  174.1670  140.3700 C   0  0  1  0  0  3  0  0  0  0  0  0
  188.1500  174.6990  139.1270 C   0  0  0  0  0  1  0  0  0  0  0  0
  188.4370  174.9370  141.5380 N   0  0  0  0  0  2  0  0  0  0  0  0
  187.8790  176.1950  141.0620 C   0  0  0  0  0  2  0  0  0  0  0  0
  186.4180  175.7850  142.9190 O   0  0  0  0  0  1  0  0  0  0  0  0
  186.5160  176.4520  141.6950 C   0  0  1  0  0  3  0  0  0  0  0  0
  187.1890  178.6880  142.0290 O   0  0  0  0  0  0  0  0  0  0  0  0
  186.2530  177.9260  141.8450 C   0  0  0  0  0  0  0  0  0  0  0  0
  184.4470  178.4770  140.4170 O   0  0  0  0  0  1  0  0  0  0  0  0
  184.8670  178.4820  141.7480 C   0  0  0  0  0  2  0  0  0  0  0  0
  1 13  1  0  0  0  0
  1  3  1  0  0  0  0
  2 10  3  0  0  0  0
  4 34  1  6  0  0  0
  4  2  1  0  0  0  0
  5  7  1  0  0  0  0
  6  1  2  0  0  0  0
  7  3  2  0  0  0  0
  8 12  1  0  0  0  0
  9  6  1  0  0  0  0
  9  5  2  0  0  0  0
 10  6  1  0  0  0  0
 11  4  1  0  0  0  0
 11  8  1  0  0  0  0
 12  9  1  0  0  0  0
 13 18  1  0  0  0  0
 14 16  1  0  0  0  0
 14 17  1  0  0  0  0
 17 20  1  1  0  0  0
 17 15  1  0  0  0  0
 18 15  1  0  0  0  0
 19 16  1  0  0  0  0
 19 13  2  0  0  0  0
 21 23  1  0  0  0  0
 23 20  1  6  0  0  0
 23 22  1  0  0  0  0
 24 21  1  0  0  0  0
 24 25  1  0  0  0  0
 25 22  1  0  0  0  0
 26 30  2  0  0  0  0
 26 29  1  0  0  0  0
 28 27  2  0  0  0  0
 28 31  1  0  0  0  0
 29  5  1  1  0  0  0
 29 27  1  0  0  0  0
 30 28  1  0  0  0  0
 31 32  1  0  0  0  0
 34 33  1  6  0  0  0
 34 35  1  0  0  0  0
 36 37  1  6  0  0  0
 36 35  1  0  0  0  0
 36 38  1  0  0  0  0
 39 38  1  0  0  0  0
 39 41  1  0  0  0  0
 41 43  1  0  0  0  0
 41 40  1  1  0  0  0
 43 42  2  0  0  0  0
 44 45  1  0  0  0  0
 45 43  1  0  0  0  0
M  END
>  <MODEL>
2

>  <REMARK>
 VINA RESULT:      -7.1      3.544      6.968
  Name = 
  13 active torsions:
  status: ('A' for Active; 'I' for Inactive)
    1  A    between atoms: C_1  and  C_14
    2  A    between atoms: C_4  and  C_21
    3  A    between atoms: C_4  and  N_33
    4  A    between atoms: C_8  and  C_28
    5  A    between atoms: C_8  and  C_45
    6  A    between atoms: C_9  and  C_18
    7  A    between atoms: C_12  and  C_38
    8  A    between atoms: C_13  and  C_26
    9  A    between atoms: C_17  and  C_34
   10  A    between atoms: C_17  and  C_35
   11  A    between atoms: C_21  and  C_38
   12  A    between atoms: C_28  and  C_41
   13  A    between atoms: N_33  and  C_41
                            x       y       z     vdW  Elec       q    Type
                         _______ _______ _______ _____ _____    ______ ____

>  <TORSDO>
F 13

$$$$
=
 OpenBabel11042415143D

 45 49  0  0  1  0  0  0  0  0999 V2000
  189.3700  173.9820  142.4610 C   0  0  0  0  0  0  0  0  0  0  0  0
  191.8010  174.5480  145.1660 C   0  0  0  0  0  0  0  0  0  0  0  0
  188.0970  174.2580  141.9600 C   0  0  0  0  0  3  0  0  0  0  0  0
  192.2860  175.0000  146.4620 C   0  0  2  0  0  3  0  0  0  0  0  0
  187.7560  176.0380  143.5160 C   0  0  0  0  0  0  0  0  0  0  0  0
  189.8360  174.7720  143.5330 C   0  0  0  0  0  0  0  0  0  0  0  0
  187.3380  175.2530  142.4860 N   0  0  0  0  0  0  0  0  0  0  0  0
  189.9050  176.0960  146.5120 C   0  0  0  0  0  2  0  0  0  0  0  0
  189.0390  175.8180  144.0750 C   0  0  0  0  0  0  0  0  0  0  0  0
  191.0330  174.4820  144.2560 C   0  0  0  0  0  0  0  0  0  0  0  0
  191.4080  176.2060  146.8890 C   0  0  0  0  0  2  0  0  0  0  0  0
  189.6120  176.7530  145.1450 C   0  0  0  0  0  2  0  0  0  0  0  0
  190.1510  172.8760  141.8430 C   0  0  0  0  0  0  0  0  0  0  0  0
  190.8430  170.3410  140.2790 C   0  0  0  0  0  2  0  0  0  0  0  0
  192.3520  172.3910  140.6520 C   0  0  0  0  0  2  0  0  0  0  0  0
  190.6530  170.3710  141.7890 C   0  0  0  0  0  2  0  0  0  0  0  0
  192.1010  171.1090  139.8530 C   0  0  1  0  0  3  0  0  0  0  0  0
  191.0920  173.2420  140.7150 C   0  0  0  0  0  2  0  0  0  0  0  0
  189.9420  171.6100  142.2520 C   0  0  0  0  0  3  0  0  0  0  0  0
  193.3400  170.2130  139.7940 C   0  0  0  0  0  2  0  0  0  0  0  0
  195.7730  170.4370  140.3140 C   0  0  0  0  0  2  0  0  0  0  0  0
  194.3320  169.4450  141.9150 C   0  0  0  0  0  2  0  0  0  0  0  0
  194.3690  170.5240  140.8770 C   0  0  2  0  0  3  0  0  0  0  0  0
  196.3390  169.2130  140.6990 O   0  0  0  0  0  0  0  0  0  0  0  0
  195.7420  168.9070  141.9300 C   0  0  0  0  0  2  0  0  0  0  0  0
  186.7900  178.3270  143.4670 N   0  0  0  0  0  0  0  0  0  0  0  0
  185.8500  176.9620  144.9750 C   0  0  0  0  0  3  0  0  0  0  0  0
  185.2660  178.2120  144.9820 C   0  0  0  0  0  0  0  0  0  0  0  0
  186.8180  177.0860  143.9900 C   0  0  0  0  0  0  0  0  0  0  0  0
  185.8460  179.0190  144.0780 N   0  0  0  0  0  2  0  0  0  0  0  0
  184.1750  178.6450  145.8970 C   0  0  0  0  0  2  0  0  0  0  0  0
  184.6400  178.5510  147.3380 C   0  0  0  0  0  1  0  0  0  0  0  0
  193.9260  176.7730  146.2020 O   0  0  0  0  0  1  0  0  0  0  0  0
  193.7610  175.4010  146.4280 C   0  0  2  0  0  3  0  0  0  0  0  0
  194.5780  174.5180  145.4690 C   0  0  0  0  0  2  0  0  0  0  0  0
  196.1080  174.6500  145.5170 C   0  0  1  0  0  3  0  0  0  0  0  0
  196.7710  173.4560  146.1780 C   0  0  0  0  0  1  0  0  0  0  0  0
  196.6680  174.8710  144.1920 N   0  0  0  0  0  2  0  0  0  0  0  0
  195.5570  175.1200  143.2840 C   0  0  0  0  0  2  0  0  0  0  0  0
  196.9210  177.0560  142.9020 O   0  0  0  0  0  1  0  0  0  0  0  0
  195.8580  176.3120  142.3820 C   0  0  1  0  0  3  0  0  0  0  0  0
  197.2650  175.9300  140.5290 O   0  0  0  0  0  0  0  0  0  0  0  0
  196.1280  175.8740  140.9680 C   0  0  0  0  0  0  0  0  0  0  0  0
  195.3500  174.0550  139.6680 O   0  0  0  0  0  1  0  0  0  0  0  0
  195.0330  175.3440  140.0960 C   0  0  0  0  0  2  0  0  0  0  0  0
  1  6  1  0  0  0  0
  2  4  1  0  0  0  0
  3  1  2  0  0  0  0
  3  7  1  0  0  0  0
  4 34  1  6  0  0  0
  4 11  1  0  0  0  0
  5 29  1  0  0  0  0
  5  9  1  0  0  0  0
  6  9  2  0  0  0  0
  6 10  1  0  0  0  0
  7  5  2  0  0  0  0
  8 11  1  0  0  0  0
  9 12  1  0  0  0  0
 10  2  3  0  0  0  0
 12  8  1  0  0  0  0
 13 19  2  0  0  0  0
 13  1  1  0  0  0  0
 14 16  1  0  0  0  0
 15 18  1  0  0  0  0
 16 19  1  0  0  0  0
 17 20  1  1  0  0  0
 17 14  1  0  0  0  0
 17 15  1  0  0  0  0
 18 13  1  0  0  0  0
 21 24  1  0  0  0  0
 21 23  1  0  0  0  0
 22 25  1  0  0  0  0
 23 20  1  6  0  0  0
 23 22  1  0  0  0  0
 24 25  1  0  0  0  0
 26 29  2  0  0  0  0
 26 30  1  0  0  0  0
 27 28  2  0  0  0  0
 28 31  1  0  0  0  0
 29 27  1  0  0  0  0
 30 28  1  0  0  0  0
 31 32  1  0  0  0  0
 34 33  1  6  0  0  0
 35 36  1  0  0  0  0
 35 34  1  0  0  0  0
 36 37  1  6  0  0  0
 38 36  1  0  0  0  0
 39 38  1  0  0  0  0
 41 40  1  1  0  0  0
 41 39  1  0  0  0  0
 42 43  2  0  0  0  0
 43 41  1  0  0  0  0
 44 45  1  0  0  0  0
 45 43  1  0  0  0  0
M  END
>  <MODEL>
3

>  <REMARK>
 VINA RESULT:      -7.0      2.938      8.413
  Name = 
  13 active torsions:
  status: ('A' for Active; 'I' for Inactive)
    1  A    between atoms: C_1  and  C_14
    2  A    between atoms: C_4  and  C_21
    3  A    between atoms: C_4  and  N_33
    4  A    between atoms: C_8  and  C_28
    5  A    between atoms: C_8  and  C_45
    6  A    between atoms: C_9  and  C_18
    7  A    between atoms: C_12  and  C_38
    8  A    between atoms: C_13  and  C_26
    9  A    between atoms: C_17  and  C_34
   10  A    between atoms: C_17  and  C_35
   11  A    between atoms: C_21  and  C_38
   12  A    between atoms: C_28  and  C_41
   13  A    between atoms: N_33  and  C_41
                            x       y       z     vdW  Elec       q    Type
                         _______ _______ _______ _____ _____    ______ ____

>  <TORSDO>
F 13

$$$$
=
 OpenBabel11042415143D

 45 49  0  0  1  0  0  0  0  0999 V2000
  189.6860  173.6540  142.2620 C   0  0  0  0  0  0  0  0  0  0  0  0
  190.3100  174.5200  145.7830 C   0  0  0  0  0  0  0  0  0  0  0  0
  188.8680  173.8290  141.1440 C   0  0  0  0  0  3  0  0  0  0  0  0
  190.0310  175.0800  147.0990 C   0  0  2  0  0  3  0  0  0  0  0  0
  187.7360  175.6860  142.1340 C   0  0  0  0  0  0  0  0  0  0  0  0
  189.5050  174.5340  143.3490 C   0  0  0  0  0  0  0  0  0  0  0  0
  187.9350  174.8140  141.1070 N   0  0  0  0  0  0  0  0  0  0  0  0
  187.9730  176.0500  145.7960 C   0  0  0  0  0  2  0  0  0  0  0  0
  188.5320  175.5690  143.3010 C   0  0  0  0  0  0  0  0  0  0  0  0
  190.1410  174.3560  144.6150 C   0  0  0  0  0  0  0  0  0  0  0  0
  189.0470  176.2630  146.8980 C   0  0  0  0  0  2  0  0  0  0  0  0
  188.4410  176.6010  144.4310 C   0  0  0  0  0  2  0  0  0  0  0  0
  190.6870  172.5530  142.2420 C   0  0  0  0  0  0  0  0  0  0  0  0
  192.3980  170.2110  141.2730 C   0  0  0  0  0  2  0  0  0  0  0  0
  193.0180  171.9400  143.0740 C   0  0  0  0  0  2  0  0  0  0  0  0
  191.1120  170.0390  142.0680 C   0  0  0  0  0  2  0  0  0  0  0  0
  193.5070  170.8450  142.1230 C   0  0  1  0  0  3  0  0  0  0  0  0
  192.1460  172.9460  142.3340 C   0  0  0  0  0  2  0  0  0  0  0  0
  190.2710  171.2830  142.0730 C   0  0  0  0  0  3  0  0  0  0  0  0
  194.3630  169.7980  142.8390 C   0  0  0  0  0  2  0  0  0  0  0  0
  195.7750  169.8470  144.8990 C   0  0  0  0  0  2  0  0  0  0  0  0
  193.6620  168.7720  144.9670 C   0  0  0  0  0  2  0  0  0  0  0  0
  194.3640  169.9470  144.3570 C   0  0  2  0  0  3  0  0  0  0  0  0
  195.9640  168.5630  145.4330 O   0  0  0  0  0  0  0  0  0  0  0  0
  194.6980  168.1660  145.8820 C   0  0  0  0  0  2  0  0  0  0  0  0
  186.6670  177.5690  140.9160 N   0  0  0  0  0  0  0  0  0  0  0  0
  185.5720  176.9260  142.7620 C   0  0  0  0  0  3  0  0  0  0  0  0
  184.9280  177.9630  142.1200 C   0  0  0  0  0  0  0  0  0  0  0  0
  186.6780  176.7100  141.9550 C   0  0  1  0  0  3  0  0  0  0  0  0
  185.6000  178.3400  141.0200 N   0  0  0  0  0  0  0  0  0  0  0  0
  183.6810  178.6240  142.5940 C   0  0  0  0  0  2  0  0  0  0  0  0
  182.5330  178.2920  141.6610 C   0  0  0  0  0  1  0  0  0  0  0  0
  191.1810  176.8770  148.2600 O   0  0  0  0  0  1  0  0  0  0  0  0
  191.2960  175.5550  147.8140 C   0  0  2  0  0  3  0  0  0  0  0  0
  192.5620  175.2970  146.9790 C   0  0  0  0  0  2  0  0  0  0  0  0
  193.0900  176.4570  146.1200 C   0  0  1  0  0  3  0  0  0  0  0  0
  194.3200  177.1090  146.7220 C   0  0  0  0  0  1  0  0  0  0  0  0
  193.3610  176.0320  144.7540 N   0  0  0  0  0  2  0  0  0  0  0  0
  194.8060  176.0320  144.5750 C   0  0  0  0  0  2  0  0  0  0  0  0
  196.0220  175.6270  142.5480 O   0  0  0  0  0  1  0  0  0  0  0  0
  195.2160  175.0170  143.5140 C   0  0  1  0  0  3  0  0  0  0  0  0
  196.4950  173.0380  143.4150 O   0  0  0  0  0  0  0  0  0  0  0  0
  195.8970  173.8250  144.1310 C   0  0  0  0  0  0  0  0  0  0  0  0
  197.1770  173.6620  146.1160 O   0  0  0  0  0  1  0  0  0  0  0  0
  195.8780  173.6000  145.6110 C   0  0  0  0  0  2  0  0  0  0  0  0
  1  6  1  0  0  0  0
  2  4  1  0  0  0  0
  3  1  2  0  0  0  0
  4 34  1  6  0  0  0
  5  9  1  0  0  0  0
  6 10  1  0  0  0  0
  7  3  1  0  0  0  0
  7  5  2  0  0  0  0
  8 11  1  0  0  0  0
  9  6  2  0  0  0  0
  9 12  1  0  0  0  0
 10  2  3  0  0  0  0
 11  4  1  0  0  0  0
 12  8  1  0  0  0  0
 13  1  1  0  0  0  0
 13 18  1  0  0  0  0
 14 16  1  0  0  0  0
 14 17  1  0  0  0  0
 16 19  1  0  0  0  0
 17 20  1  1  0  0  0
 17 15  1  0  0  0  0
 18 15  1  0  0  0  0
 19 13  2  0  0  0  0
 21 24  1  0  0  0  0
 22 25  1  0  0  0  0
 23 20  1  6  0  0  0
 23 21  1  0  0  0  0
 23 22  1  0  0  0  0
 24 25  1  0  0  0  0
 26 30  2  0  0  0  0
 26 29  1  0  0  0  0
 28 31  1  0  0  0  0
 28 27  2  0  0  0  0
 29  5  1  6  0  0  0
 29 27  1  0  0  0  0
 30 28  1  0  0  0  0
 32 31  1  0  0  0  0
 34 33  1  6  0  0  0
 35 34  1  0  0  0  0
 36 37  1  1  0  0  0
 36 35  1  0  0  0  0
 38 36  1  0  0  0  0
 39 38  1  0  0  0  0
 41 40  1  6  0  0  0
 41 43  1  0  0  0  0
 41 39  1  0  0  0  0
 42 43  2  0  0  0  0
 43 45  1  0  0  0  0
 45 44  1  0  0  0  0
M  END
>  <MODEL>
4

>  <REMARK>
 VINA RESULT:      -7.0      3.143      8.007
  Name = 
  13 active torsions:
  status: ('A' for Active; 'I' for Inactive)
    1  A    between atoms: C_1  and  C_14
    2  A    between atoms: C_4  and  C_21
    3  A    between atoms: C_4  and  N_33
    4  A    between atoms: C_8  and  C_28
    5  A    between atoms: C_8  and  C_45
    6  A    between atoms: C_9  and  C_18
    7  A    between atoms: C_12  and  C_38
    8  A    between atoms: C_13  and  C_26
    9  A    between atoms: C_17  and  C_34
   10  A    between atoms: C_17  and  C_35
   11  A    between atoms: C_21  and  C_38
   12  A    between atoms: C_28  and  C_41
   13  A    between atoms: N_33  and  C_41
                            x       y       z     vdW  Elec       q    Type
                         _______ _______ _______ _____ _____    ______ ____

>  <TORSDO>
F 13

$$$$
=
 OpenBabel11042415143D

 45 49  0  0  1  0  0  0  0  0999 V2000
  189.4100  174.0550  142.4760 C   0  0  0  0  0  0  0  0  0  0  0  0
  191.9180  174.8380  145.0530 C   0  0  0  0  0  0  0  0  0  0  0  0
  188.1070  174.2560  142.0170 C   0  0  0  0  0  3  0  0  0  0  0  0
  192.4340  175.3650  146.3090 C   0  0  2  0  0  3  0  0  0  0  0  0
  187.7500  176.0850  143.5120 C   0  0  0  0  0  0  0  0  0  0  0  0
  189.8820  174.9090  143.4950 C   0  0  0  0  0  0  0  0  0  0  0  0
  187.3270  175.2390  142.5330 N   0  0  0  0  0  0  0  0  0  0  0  0
  190.0110  176.3610  146.4120 C   0  0  0  0  0  2  0  0  0  0  0  0
  189.0630  175.9420  144.0260 C   0  0  0  0  0  0  0  0  0  0  0  0
  191.1190  174.7010  144.1790 C   0  0  0  0  0  0  0  0  0  0  0  0
  191.5220  176.5500  146.7220 C   0  0  0  0  0  2  0  0  0  0  0  0
  189.6360  176.9460  145.0320 C   0  0  0  0  0  2  0  0  0  0  0  0
  190.2140  172.9580  141.8720 C   0  0  0  0  0  0  0  0  0  0  0  0
  190.9570  170.4020  140.3660 C   0  0  0  0  0  2  0  0  0  0  0  0
  192.4030  172.5110  140.6450 C   0  0  0  0  0  2  0  0  0  0  0  0
  190.7990  170.4700  141.8780 C   0  0  0  0  0  2  0  0  0  0  0  0
  192.1780  171.1990  139.8890 C   0  0  1  0  0  3  0  0  0  0  0  0
  191.1170  173.3220  140.7130 C   0  0  0  0  0  2  0  0  0  0  0  0
  190.0570  171.6980  142.3220 C   0  0  0  0  0  3  0  0  0  0  0  0
  193.4450  170.3430  139.8270 C   0  0  0  0  0  2  0  0  0  0  0  0
  195.8940  170.5810  140.2510 C   0  0  0  0  0  2  0  0  0  0  0  0
  194.4880  169.8020  141.9930 C   0  0  0  0  0  2  0  0  0  0  0  0
  194.5100  170.7560  140.8380 C   0  0  2  0  0  3  0  0  0  0  0  0
  196.4540  169.3990  140.7570 O   0  0  0  0  0  0  0  0  0  0  0  0
  195.8900  169.2450  142.0300 C   0  0  0  0  0  2  0  0  0  0  0  0
  186.6310  178.2980  143.3630 N   0  0  0  0  0  0  0  0  0  0  0  0
  185.9150  177.0150  145.0550 C   0  0  0  0  0  3  0  0  0  0  0  0
  185.2510  178.2230  145.0130 C   0  0  0  0  0  0  0  0  0  0  0  0
  186.7870  177.1100  143.9810 C   0  0  0  0  0  0  0  0  0  0  0  0
  185.6960  178.9820  143.9980 N   0  0  0  0  0  2  0  0  0  0  0  0
  184.2130  178.6670  145.9830 C   0  0  0  0  0  2  0  0  0  0  0  0
  184.7820  178.6570  147.3890 C   0  0  0  0  0  1  0  0  0  0  0  0
  194.0330  176.8880  145.2970 O   0  0  0  0  0  1  0  0  0  0  0  0
  193.8880  175.8260  146.1980 C   0  0  2  0  0  3  0  0  0  0  0  0
  194.8460  174.6540  145.9250 C   0  0  0  0  0  2  0  0  0  0  0  0
  195.3360  174.4640  144.4810 C   0  0  1  0  0  3  0  0  0  0  0  0
  196.7800  174.8930  144.2990 C   0  0  0  0  0  1  0  0  0  0  0  0
  195.1560  173.0910  144.0320 N   0  0  0  0  0  2  0  0  0  0  0  0
  194.7850  172.2960  145.1940 C   0  0  0  0  0  2  0  0  0  0  0  0
  196.8170  171.4400  146.1360 O   0  0  0  0  0  1  0  0  0  0  0  0
  195.7160  171.0980  145.3460 C   0  0  1  0  0  3  0  0  0  0  0  0
  193.9020  169.5950  145.4320 O   0  0  0  0  0  0  0  0  0  0  0  0
  194.9860  169.9040  145.8990 C   0  0  0  0  0  0  0  0  0  0  0  0
  194.5590  168.5470  147.7900 O   0  0  0  0  0  1  0  0  0  0  0  0
  195.5770  169.0710  146.9930 C   0  0  0  0  0  2  0  0  0  0  0  0
  1  6  1  0  0  0  0
  2  4  1  0  0  0  0
  3  1  2  0  0  0  0
  3  7  1  0  0  0  0
  4 34  1  6  0  0  0
  4 11  1  0  0  0  0
  5 29  1  0  0  0  0
  5  9  1  0  0  0  0
  6  9  2  0  0  0  0
  6 10  1  0  0  0  0
  7  5  2  0  0  0  0
  8 11  1  0  0  0  0
  9 12  1  0  0  0  0
 10  2  3  0  0  0  0
 12  8  1  0  0  0  0
 13 19  2  0  0  0  0
 13  1  1  0  0  0  0
 14 16  1  0  0  0  0
 15 18  1  0  0  0  0
 16 19  1  0  0  0  0
 17 20  1  1  0  0  0
 17 14  1  0  0  0  0
 17 15  1  0  0  0  0
 18 13  1  0  0  0  0
 21 24  1  0  0  0  0
 21 23  1  0  0  0  0
 22 25  1  0  0  0  0
 23 20  1  6  0  0  0
 23 22  1  0  0  0  0
 24 25  1  0  0  0  0
 26 29  2  0  0  0  0
 26 30  1  0  0  0  0
 28 27  2  0  0  0  0
 28 31  1  0  0  0  0
 29 27  1  0  0  0  0
 30 28  1  0  0  0  0
 31 32  1  0  0  0  0
 34 33  1  6  0  0  0
 35 34  1  0  0  0  0
 36 37  1  1  0  0  0
 36 35  1  0  0  0  0
 38 36  1  0  0  0  0
 38 39  1  0  0  0  0
 39 41  1  0  0  0  0
 41 43  1  0  0  0  0
 41 40  1  1  0  0  0
 42 43  2  0  0  0  0
 43 45  1  0  0  0  0
 45 44  1  0  0  0  0
M  END
>  <MODEL>
5

>  <REMARK>
 VINA RESULT:      -6.8      3.246      8.472
  Name = 
  13 active torsions:
  status: ('A' for Active; 'I' for Inactive)
    1  A    between atoms: C_1  and  C_14
    2  A    between atoms: C_4  and  C_21
    3  A    between atoms: C_4  and  N_33
    4  A    between atoms: C_8  and  C_28
    5  A    between atoms: C_8  and  C_45
    6  A    between atoms: C_9  and  C_18
    7  A    between atoms: C_12  and  C_38
    8  A    between atoms: C_13  and  C_26
    9  A    between atoms: C_17  and  C_34
   10  A    between atoms: C_17  and  C_35
   11  A    between atoms: C_21  and  C_38
   12  A    between atoms: C_28  and  C_41
   13  A    between atoms: N_33  and  C_41
                            x       y       z     vdW  Elec       q    Type
                         _______ _______ _______ _____ _____    ______ ____

>  <TORSDO>
F 13

$$$$
=
 OpenBabel11042415143D

 45 49  0  0  1  0  0  0  0  0999 V2000
  192.1630  174.9670  145.4570 C   0  0  0  0  0  0  0  0  0  0  0  0
  191.3250  173.8260  142.0600 C   0  0  0  0  0  0  0  0  0  0  0  0
  191.7880  175.7500  146.5510 C   0  0  0  0  0  3  0  0  0  0  0  0
  190.6100  173.7960  140.7920 C   0  0  2  0  0  3  0  0  0  0  0  0
  189.5850  176.0850  145.6900 C   0  0  0  0  0  0  0  0  0  0  0  0
  191.1990  174.7490  144.4500 C   0  0  0  0  0  0  0  0  0  0  0  0
  190.5420  176.2790  146.6390 N   0  0  0  0  0  0  0  0  0  0  0  0
  189.0680  175.4720  142.0910 C   0  0  0  0  0  2  0  0  0  0  0  0
  189.8930  175.2990  144.5520 C   0  0  0  0  0  0  0  0  0  0  0  0
  191.5020  174.1260  143.2000 C   0  0  0  0  0  0  0  0  0  0  0  0
  189.1720  174.3150  141.0590 C   0  0  0  0  0  2  0  0  0  0  0  0
  188.8180  174.9410  143.5190 C   0  0  0  0  0  2  0  0  0  0  0  0
  193.5460  174.4190  145.4180 C   0  0  0  0  0  0  0  0  0  0  0  0
  196.4680  173.8760  146.1370 C   0  0  0  0  0  2  0  0  0  0  0  0
  194.8480  172.2820  144.9330 C   0  0  0  0  0  2  0  0  0  0  0  0
  196.0360  174.8940  145.0920 C   0  0  0  0  0  2  0  0  0  0  0  0
  196.1720  172.4400  145.6840 C   0  0  1  0  0  3  0  0  0  0  0  0
  193.7110  172.9410  145.7000 C   0  0  0  0  0  2  0  0  0  0  0  0
  194.5820  175.2540  145.2090 C   0  0  0  0  0  3  0  0  0  0  0  0
  197.3450  171.8150  144.9260 C   0  0  0  0  0  2  0  0  0  0  0  0
  197.1370  169.4190  144.2540 C   0  0  0  0  0  2  0  0  0  0  0  0
  196.7980  170.0190  146.5220 C   0  0  0  0  0  2  0  0  0  0  0  0
  197.6270  170.3700  145.3250 C   0  0  2  0  0  3  0  0  0  0  0  0
  195.9160  168.8650  144.6650 O   0  0  0  0  0  0  0  0  0  0  0  0
  195.9830  168.8340  146.0650 C   0  0  0  0  0  2  0  0  0  0  0  0
  187.4290  176.3360  146.8990 N   0  0  0  0  0  0  0  0  0  0  0  0
  187.7200  177.7930  145.2210 C   0  0  0  0  0  3  0  0  0  0  0  0
  186.5150  177.9870  145.8640 C   0  0  0  0  0  0  0  0  0  0  0  0
  188.2670  176.7270  145.9180 C   0  0  0  0  0  0  0  0  0  0  0  0
  186.3540  177.1020  146.8620 N   0  0  0  0  0  2  0  0  0  0  0  0
  185.4930  179.0010  145.4850 C   0  0  0  0  0  2  0  0  0  0  0  0
  184.1640  178.6640  146.1350 C   0  0  0  0  0  1  0  0  0  0  0  0
  190.2410  171.4190  141.1250 O   0  0  0  0  0  1  0  0  0  0  0  0
  190.5650  172.3970  140.1780 C   0  0  2  0  0  3  0  0  0  0  0  0
  191.8380  172.0770  139.3760 C   0  0  0  0  0  2  0  0  0  0  0  0
  192.9320  171.2610  140.0820 C   0  0  1  0  0  3  0  0  0  0  0  0
  192.8730  169.7870  139.7260 C   0  0  0  0  0  1  0  0  0  0  0  0
  194.2580  171.7940  139.8100 N   0  0  0  0  0  2  0  0  0  0  0  0
  194.2100  173.2290  140.0540 C   0  0  0  0  0  2  0  0  0  0  0  0
  196.0460  172.8130  141.5390 O   0  0  0  0  0  1  0  0  0  0  0  0
  194.8850  173.5730  141.3770 C   0  0  1  0  0  3  0  0  0  0  0  0
  194.2470  175.8240  141.6690 O   0  0  0  0  0  0  0  0  0  0  0  0
  195.1690  175.0470  141.4800 C   0  0  0  0  0  0  0  0  0  0  0  0
  196.9450  175.6690  140.0440 O   0  0  0  0  0  1  0  0  0  0  0  0
  196.5650  175.5780  141.3830 C   0  0  0  0  0  2  0  0  0  0  0  0
  1  3  1  0  0  0  0
  2 10  3  0  0  0  0
  3  7  2  0  0  0  0
  4 34  1  1  0  0  0
  4 11  1  0  0  0  0
  4  2  1  0  0  0  0
  5 29  1  0  0  0  0
  5  7  1  0  0  0  0
  6  9  1  0  0  0  0
  6  1  2  0  0  0  0
  8 12  1  0  0  0  0
  9  5  2  0  0  0  0
 10  6  1  0  0  0  0
 11  8  1  0  0  0  0
 12  9  1  0  0  0  0
 13  1  1  0  0  0  0
 13 18  1  0  0  0  0
 15 17  1  0  0  0  0
 15 18  1  0  0  0  0
 16 19  1  0  0  0  0
 16 14  1  0  0  0  0
 17 20  1  6  0  0  0
 17 14  1  0  0  0  0
 19 13  2  0  0  0  0
 21 24  1  0  0  0  0
 21 23  1  0  0  0  0
 23 20  1  6  0  0  0
 23 22  1  0  0  0  0
 24 25  1  0  0  0  0
 25 22  1  0  0  0  0
 27 28  2  0  0  0  0
 27 29  1  0  0  0  0
 28 30  1  0  0  0  0
 29 26  2  0  0  0  0
 30 26  1  0  0  0  0
 31 28  1  0  0  0  0
 31 32  1  0  0  0  0
 34 33  1  1  0  0  0
 35 36  1  0  0  0  0
 35 34  1  0  0  0  0
 36 37  1  6  0  0  0
 38 39  1  0  0  0  0
 38 36  1  0  0  0  0
 39 41  1  0  0  0  0
 41 43  1  0  0  0  0
 41 40  1  6  0  0  0
 43 42  2  0  0  0  0
 44 45  1  0  0  0  0
 45 43  1  0  0  0  0
M  END
>  <MODEL>
6

>  <REMARK>
 VINA RESULT:      -6.7      3.144      8.888
  Name = 
  13 active torsions:
  status: ('A' for Active; 'I' for Inactive)
    1  A    between atoms: C_1  and  C_14
    2  A    between atoms: C_4  and  C_21
    3  A    between atoms: C_4  and  N_33
    4  A    between atoms: C_8  and  C_28
    5  A    between atoms: C_8  and  C_45
    6  A    between atoms: C_9  and  C_18
    7  A    between atoms: C_12  and  C_38
    8  A    between atoms: C_13  and  C_26
    9  A    between atoms: C_17  and  C_34
   10  A    between atoms: C_17  and  C_35
   11  A    between atoms: C_21  and  C_38
   12  A    between atoms: C_28  and  C_41
   13  A    between atoms: N_33  and  C_41
                            x       y       z     vdW  Elec       q    Type
                         _______ _______ _______ _____ _____    ______ ____

>  <TORSDO>
F 13

$$$$
=
 OpenBabel11042415143D

 45 49  0  0  1  0  0  0  0  0999 V2000
  189.3720  174.4230  142.5470 C   0  0  0  0  0  0  0  0  0  0  0  0
  192.8460  175.5770  142.9210 C   0  0  0  0  0  0  0  0  0  0  0  0
  188.4470  173.7440  141.7510 C   0  0  0  0  0  3  0  0  0  0  0  0
  194.2170  175.8630  142.5200 C   0  0  2  0  0  3  0  0  0  0  0  0
  190.1560  172.8610  140.3350 C   0  0  0  0  0  0  0  0  0  0  0  0
  190.7360  174.3080  142.2060 C   0  0  0  0  0  0  0  0  0  0  0  0
  188.8490  173.0000  140.6900 N   0  0  0  0  0  0  0  0  0  0  0  0
  193.4350  174.5480  140.3920 C   0  0  0  0  0  2  0  0  0  0  0  0
  191.1520  173.5200  141.0980 C   0  0  0  0  0  0  0  0  0  0  0  0
  191.7640  175.0890  142.8170 C   0  0  0  0  0  0  0  0  0  0  0  0
  194.5840  174.8700  141.3870 C   0  0  0  0  0  2  0  0  0  0  0  0
  192.6430  173.2940  140.8240 C   0  0  0  0  0  2  0  0  0  0  0  0
  188.8670  175.2260  143.6940 C   0  0  0  0  0  0  0  0  0  0  0  0
  188.7900  177.1310  146.0850 C   0  0  0  0  0  2  0  0  0  0  0  0
  186.8740  176.6260  144.4440 C   0  0  0  0  0  2  0  0  0  0  0  0
  188.8970  175.6180  146.2190 C   0  0  0  0  0  2  0  0  0  0  0  0
  187.4230  177.5530  145.5320 C   0  0  1  0  0  3  0  0  0  0  0  0
  187.9270  176.3680  143.3750 C   0  0  0  0  0  2  0  0  0  0  0  0
  189.3140  174.9570  144.9360 C   0  0  0  0  0  3  0  0  0  0  0  0
  186.4000  177.8110  146.6410 C   0  0  0  0  0  2  0  0  0  0  0  0
  184.0910  178.6150  146.1300 C   0  0  0  0  0  2  0  0  0  0  0  0
  185.9440  179.6840  145.1060 C   0  0  0  0  0  2  0  0  0  0  0  0
  185.5230  179.0340  146.3890 C   0  0  2  0  0  3  0  0  0  0  0  0
  183.8490  178.6630  144.7490 O   0  0  0  0  0  0  0  0  0  0  0  0
  184.6890  179.6750  144.2670 C   0  0  0  0  0  2  0  0  0  0  0  0
  190.6970  172.5380  137.9320 N   0  0  0  0  0  0  0  0  0  0  0  0
  190.5360  170.6350  139.1040 C   0  0  0  0  0  3  0  0  0  0  0  0
  190.8510  170.3960  137.7820 C   0  0  0  0  0  0  0  0  0  0  0  0
  190.4480  172.0180  139.1500 C   0  0  1  0  0  3  0  0  0  0  0  0
  190.9370  171.5460  137.0930 N   0  0  0  0  0  0  0  0  0  0  0  0
  191.0250  169.0510  137.1700 C   0  0  0  0  0  2  0  0  0  0  0  0
  191.5370  169.1920  135.7490 C   0  0  0  0  0  1  0  0  0  0  0  0
  195.9250  176.9180  143.8870 O   0  0  0  0  0  1  0  0  0  0  0  0
  195.2050  175.7360  143.6800 C   0  0  2  0  0  3  0  0  0  0  0  0
  196.0960  174.4890  143.5460 C   0  0  0  0  0  2  0  0  0  0  0  0
  195.9410  173.3930  144.6110 C   0  0  1  0  0  3  0  0  0  0  0  0
  196.5560  173.7880  145.9400 C   0  0  0  0  0  1  0  0  0  0  0  0
  194.5470  173.0150  144.7910 N   0  0  0  0  0  2  0  0  0  0  0  0
  194.2750  171.9050  143.8890 C   0  0  0  0  0  2  0  0  0  0  0  0
  192.0140  172.1850  144.6380 O   0  0  0  0  0  1  0  0  0  0  0  0
  192.9570  171.2290  144.2500 C   0  0  1  0  0  3  0  0  0  0  0  0
  191.2820  170.4730  142.7720 O   0  0  0  0  0  0  0  0  0  0  0  0
  192.4500  170.3790  143.1170 C   0  0  0  0  0  0  0  0  0  0  0  0
  193.4070  169.7850  141.0350 O   0  0  0  0  0  1  0  0  0  0  0  0
  193.3550  169.4380  142.3850 C   0  0  0  0  0  2  0  0  0  0  0  0
  1 13  1  0  0  0  0
  3  1  2  0  0  0  0
  4  2  1  0  0  0  0
  4 34  1  1  0  0  0
  5  7  2  0  0  0  0
  5  9  1  0  0  0  0
  6  1  1  0  0  0  0
  6 10  1  0  0  0  0
  7  3  1  0  0  0  0
  8 12  1  0  0  0  0
  8 11  1  0  0  0  0
  9  6  2  0  0  0  0
 10  2  3  0  0  0  0
 11  4  1  0  0  0  0
 12  9  1  0  0  0  0
 13 19  2  0  0  0  0
 14 16  1  0  0  0  0
 15 17  1  0  0  0  0
 17 14  1  0  0  0  0
 17 20  1  1  0  0  0
 18 13  1  0  0  0  0
 18 15  1  0  0  0  0
 19 16  1  0  0  0  0
 21 23  1  0  0  0  0
 22 23  1  0  0  0  0
 23 20  1  6  0  0  0
 24 21  1  0  0  0  0
 25 24  1  0  0  0  0
 25 22  1  0  0  0  0
 26 29  1  0  0  0  0
 27 29  1  0  0  0  0
 28 27  2  0  0  0  0
 29  5  1  1  0  0  0
 30 28  1  0  0  0  0
 30 26  2  0  0  0  0
 31 28  1  0  0  0  0
 32 31  1  0  0  0  0
 34 33  1  6  0  0  0
 35 34  1  0  0  0  0
 35 36  1  0  0  0  0
 36 38  1  0  0  0  0
 36 37  1  1  0  0  0
 39 41  1  0  0  0  0
 39 38  1  0  0  0  0
 41 40  1  6  0  0  0
 42 43  2  0  0  0  0
 43 41  1  0  0  0  0
 44 45  1  0  0  0  0
 45 43  1  0  0  0  0
M  END
>  <MODEL>
7

>  <REMARK>
 VINA RESULT:      -6.6      2.063      2.743
  Name = 
  13 active torsions:
  status: ('A' for Active; 'I' for Inactive)
    1  A    between atoms: C_1  and  C_14
    2  A    between atoms: C_4  and  C_21
    3  A    between atoms: C_4  and  N_33
    4  A    between atoms: C_8  and  C_28
    5  A    between atoms: C_8  and  C_45
    6  A    between atoms: C_9  and  C_18
    7  A    between atoms: C_12  and  C_38
    8  A    between atoms: C_13  and  C_26
    9  A    between atoms: C_17  and  C_34
   10  A    between atoms: C_17  and  C_35
   11  A    between atoms: C_21  and  C_38
   12  A    between atoms: C_28  and  C_41
   13  A    between atoms: N_33  and  C_41
                            x       y       z     vdW  Elec       q    Type
                         _______ _______ _______ _____ _____    ______ ____

>  <TORSDO>
F 13

$$$$
=
 OpenBabel11042415143D

 45 49  0  0  1  0  0  0  0  0999 V2000
  189.0760  173.8580  140.8730 C   0  0  0  0  0  0  0  0  0  0  0  0
  192.4800  174.9720  141.7190 C   0  0  0  0  0  0  0  0  0  0  0  0
  188.2860  173.0000  140.1060 C   0  0  0  0  0  3  0  0  0  0  0  0
  193.9270  175.0870  141.5900 C   0  0  2  0  0  3  0  0  0  0  0  0
  190.1690  171.6870  139.4450 C   0  0  0  0  0  0  0  0  0  0  0  0
  190.4640  173.6080  140.9120 C   0  0  0  0  0  0  0  0  0  0  0  0
  188.8360  171.9630  139.4260 N   0  0  0  0  0  0  0  0  0  0  0  0
  193.5040  173.2200  139.7990 C   0  0  0  0  0  2  0  0  0  0  0  0
  191.0340  172.5140  140.2040 C   0  0  0  0  0  0  0  0  0  0  0  0
  191.4050  174.5060  141.5040 C   0  0  0  0  0  0  0  0  0  0  0  0
  194.4340  173.7910  140.9050 C   0  0  0  0  0  2  0  0  0  0  0  0
  192.5190  172.1750  140.3670 C   0  0  0  0  0  2  0  0  0  0  0  0
  188.4140  174.9800  141.5920 C   0  0  0  0  0  0  0  0  0  0  0  0
  186.2530  176.8680  142.6500 C   0  0  0  0  0  2  0  0  0  0  0  0
  188.4960  176.2970  143.7730 C   0  0  0  0  0  2  0  0  0  0  0  0
  187.0950  177.1620  141.4170 C   0  0  0  0  0  2  0  0  0  0  0  0
  187.0960  176.8970  143.9310 C   0  0  1  0  0  3  0  0  0  0  0  0
  188.4240  174.9310  143.1050 C   0  0  0  0  0  2  0  0  0  0  0  0
  187.7800  175.9360  140.8850 C   0  0  0  0  0  3  0  0  0  0  0  0
  187.1330  178.2860  144.5730 C   0  0  0  0  0  2  0  0  0  0  0  0
  185.8280  177.0160  146.2830 C   0  0  0  0  0  2  0  0  0  0  0  0
  185.3850  179.3240  145.9660 C   0  0  0  0  0  2  0  0  0  0  0  0
  186.5070  178.3320  145.9640 C   0  0  2  0  0  3  0  0  0  0  0  0
  184.4450  177.1660  146.1020 O   0  0  0  0  0  0  0  0  0  0  0  0
  184.1840  178.5130  146.3880 C   0  0  0  0  0  2  0  0  0  0  0  0
  190.5890  169.2600  139.1230 N   0  0  0  0  0  0  0  0  0  0  0  0
  191.1230  170.5290  137.3550 C   0  0  0  0  0  3  0  0  0  0  0  0
  191.3630  169.1920  137.1160 C   0  0  0  0  0  0  0  0  0  0  0  0
  190.6290  170.5210  138.6510 C   0  0  1  0  0  3  0  0  0  0  0  0
  191.0440  168.4460  138.1870 N   0  0  0  0  0  0  0  0  0  0  0  0
  191.9450  168.6350  135.8640 C   0  0  0  0  0  2  0  0  0  0  0  0
  191.5690  169.5110  134.6850 C   0  0  0  0  0  1  0  0  0  0  0  0
  195.6240  176.2560  142.8760 O   0  0  0  0  0  1  0  0  0  0  0  0
  194.6200  175.2820  142.9390 C   0  0  2  0  0  3  0  0  0  0  0  0
  195.0950  173.9490  143.5430 C   0  0  0  0  0  2  0  0  0  0  0  0
  194.8540  173.7290  145.0450 C   0  0  1  0  0  3  0  0  0  0  0  0
  195.3790  174.8760  145.8880 C   0  0  0  0  0  1  0  0  0  0  0  0
  193.4460  173.4940  145.3320 N   0  0  0  0  0  2  0  0  0  0  0  0
  192.9650  174.6240  146.1130 C   0  0  0  0  0  2  0  0  0  0  0  0
  190.9570  173.8490  145.0530 O   0  0  0  0  0  1  0  0  0  0  0  0
  191.4880  174.8820  145.8310 C   0  0  1  0  0  3  0  0  0  0  0  0
  191.2160  175.6900  148.0300 O   0  0  0  0  0  0  0  0  0  0  0  0
  190.7120  175.0710  147.1060 C   0  0  0  0  0  0  0  0  0  0  0  0
  188.4040  175.5850  147.1950 O   0  0  0  0  0  1  0  0  0  0  0  0
  189.3220  174.5370  147.2560 C   0  0  0  0  0  2  0  0  0  0  0  0
  1  6  1  0  0  0  0
  1 13  1  0  0  0  0
  3  1  2  0  0  0  0
  4  2  1  0  0  0  0
  4 34  1  1  0  0  0
  5  9  1  0  0  0  0
  6 10  1  0  0  0  0
  7  5  2  0  0  0  0
  7  3  1  0  0  0  0
  8 12  1  0  0  0  0
  8 11  1  0  0  0  0
  9 12  1  0  0  0  0
  9  6  2  0  0  0  0
 10  2  3  0  0  0  0
 11  4  1  0  0  0  0
 13 18  1  0  0  0  0
 14 17  1  0  0  0  0
 15 17  1  0  0  0  0
 16 14  1  0  0  0  0
 17 20  1  6  0  0  0
 18 15  1  0  0  0  0
 19 16  1  0  0  0  0
 19 13  2  0  0  0  0
 22 25  1  0  0  0  0
 23 20  1  6  0  0  0
 23 22  1  0  0  0  0
 23 21  1  0  0  0  0
 24 21  1  0  0  0  0
 24 25  1  0  0  0  0
 27 29  1  0  0  0  0
 28 27  2  0  0  0  0
 28 30  1  0  0  0  0
 29 26  1  0  0  0  0
 29  5  1  6  0  0  0
 30 26  2  0  0  0  0
 31 28  1  0  0  0  0
 32 31  1  0  0  0  0
 34 33  1  6  0  0  0
 34 35  1  0  0  0  0
 35 36  1  0  0  0  0
 36 38  1  0  0  0  0
 36 37  1  1  0  0  0
 38 39  1  0  0  0  0
 41 40  1  1  0  0  0
 41 39  1  0  0  0  0
 41 43  1  0  0  0  0
 43 45  1  0  0  0  0
 43 42  2  0  0  0  0
 44 45  1  0  0  0  0
M  END
>  <MODEL>
8

>  <REMARK>
 VINA RESULT:      -6.6      1.426      2.333
  Name = 
  13 active torsions:
  status: ('A' for Active; 'I' for Inactive)
    1  A    between atoms: C_1  and  C_14
    2  A    between atoms: C_4  and  C_21
    3  A    between atoms: C_4  and  N_33
    4  A    between atoms: C_8  and  C_28
    5  A    between atoms: C_8  and  C_45
    6  A    between atoms: C_9  and  C_18
    7  A    between atoms: C_12  and  C_38
    8  A    between atoms: C_13  and  C_26
    9  A    between atoms: C_17  and  C_34
   10  A    between atoms: C_17  and  C_35
   11  A    between atoms: C_21  and  C_38
   12  A    between atoms: C_28  and  C_41
   13  A    between atoms: N_33  and  C_41
                            x       y       z     vdW  Elec       q    Type
                         _______ _______ _______ _____ _____    ______ ____

>  <TORSDO>
F 13

$$$$
=
 OpenBabel11042415143D

 45 49  0  0  1  0  0  0  0  0999 V2000
  191.8690  174.4750  144.4820 C   0  0  0  0  0  0  0  0  0  0  0  0
  190.9000  172.4090  141.5940 C   0  0  0  0  0  0  0  0  0  0  0  0
  192.6590  174.5810  145.6280 C   0  0  0  0  0  3  0  0  0  0  0  0
  190.8180  171.2160  140.7640 C   0  0  2  0  0  3  0  0  0  0  0  0
  193.9840  172.6900  145.0160 C   0  0  0  0  0  0  0  0  0  0  0  0
  192.1590  173.4270  143.5830 C   0  0  0  0  0  0  0  0  0  0  0  0
  193.6710  173.7080  145.8630 N   0  0  0  0  0  0  0  0  0  0  0  0
  192.5670  170.3700  142.5240 C   0  0  0  0  0  2  0  0  0  0  0  0
  193.2260  172.5210  143.8310 C   0  0  0  0  0  0  0  0  0  0  0  0
  191.3230  173.0930  142.4730 C   0  0  0  0  0  0  0  0  0  0  0  0
  192.0870  170.3690  141.0460 C   0  0  0  0  0  2  0  0  0  0  0  0
  193.6160  171.4760  142.7800 C   0  0  0  0  0  2  0  0  0  0  0  0
  190.7720  175.4610  144.2830 C   0  0  0  0  0  0  0  0  0  0  0  0
  188.8230  177.3910  142.9310 C   0  0  0  0  0  2  0  0  0  0  0  0
  188.4270  176.0490  145.0900 C   0  0  0  0  0  2  0  0  0  0  0  0
  190.1160  177.8350  143.6000 C   0  0  0  0  0  2  0  0  0  0  0  0
  187.8070  176.8690  143.9550 C   0  0  1  0  0  3  0  0  0  0  0  0
  189.3590  174.9810  144.5350 C   0  0  0  0  0  2  0  0  0  0  0  0
  191.0660  176.6930  143.8250 C   0  0  0  0  0  3  0  0  0  0  0  0
  186.8860  177.9740  144.4780 C   0  0  0  0  0  2  0  0  0  0  0  0
  184.4690  178.5860  144.3300 C   0  0  0  0  0  2  0  0  0  0  0  0
  185.2390  177.3500  146.2020 C   0  0  0  0  0  2  0  0  0  0  0  0
  185.4550  177.5070  144.7270 C   0  0  2  0  0  3  0  0  0  0  0  0
  184.0240  179.2410  145.4880 O   0  0  0  0  0  0  0  0  0  0  0  0
  184.0810  178.2720  146.4990 C   0  0  0  0  0  2  0  0  0  0  0  0
  196.4040  172.1700  145.2390 N   0  0  0  0  0  0  0  0  0  0  0  0
  195.0420  170.5590  145.9950 C   0  0  0  0  0  3  0  0  0  0  0  0
  196.3700  170.2230  146.1560 C   0  0  0  0  0  0  0  0  0  0  0  0
  195.1150  171.8110  145.4050 C   0  0  0  0  0  0  0  0  0  0  0  0
  197.1720  171.1960  145.6920 N   0  0  0  0  0  2  0  0  0  0  0  0
  196.8690  168.9390  146.7190 C   0  0  0  0  0  2  0  0  0  0  0  0
  195.8310  168.3460  147.6520 C   0  0  0  0  0  1  0  0  0  0  0  0
  189.6730  170.8530  138.6520 O   0  0  0  0  0  1  0  0  0  0  0  0
  190.7190  171.5440  139.2730 C   0  0  2  0  0  3  0  0  0  0  0  0
  192.0710  171.3860  138.5560 C   0  0  0  0  0  2  0  0  0  0  0  0
  192.8990  172.6590  138.3210 C   0  0  1  0  0  3  0  0  0  0  0  0
  192.0620  173.9200  138.4230 C   0  0  0  0  0  1  0  0  0  0  0  0
  194.0360  172.7330  139.2280 N   0  0  0  0  0  2  0  0  0  0  0  0
  193.9620  174.0140  139.9170 C   0  0  0  0  0  2  0  0  0  0  0  0
  195.4610  175.2820  138.5380 O   0  0  0  0  0  1  0  0  0  0  0  0
  195.2930  174.7530  139.8210 C   0  0  1  0  0  3  0  0  0  0  0  0
  196.4040  176.5170  140.9220 O   0  0  0  0  0  0  0  0  0  0  0  0
  195.4040  175.8190  140.8770 C   0  0  0  0  0  0  0  0  0  0  0  0
  194.7630  175.8370  143.1560 O   0  0  0  0  0  1  0  0  0  0  0  0
  194.3000  176.0580  141.8590 C   0  0  0  0  0  2  0  0  0  0  0  0
  1  3  1  0  0  0  0
  2 10  3  0  0  0  0
  3  7  2  0  0  0  0
  4 34  1  6  0  0  0
  4 11  1  0  0  0  0
  4  2  1  0  0  0  0
  5 29  1  0  0  0  0
  5  7  1  0  0  0  0
  6  9  1  0  0  0  0
  6  1  2  0  0  0  0
  8 12  1  0  0  0  0
  9  5  2  0  0  0  0
 10  6  1  0  0  0  0
 11  8  1  0  0  0  0
 12  9  1  0  0  0  0
 13  1  1  0  0  0  0
 13 18  1  0  0  0  0
 14 16  1  0  0  0  0
 14 17  1  0  0  0  0
 16 19  1  0  0  0  0
 17 20  1  1  0  0  0
 17 15  1  0  0  0  0
 18 15  1  0  0  0  0
 19 13  2  0  0  0  0
 21 23  1  0  0  0  0
 21 24  1  0  0  0  0
 22 25  1  0  0  0  0
 23 20  1  1  0  0  0
 23 22  1  0  0  0  0
 24 25  1  0  0  0  0
 26 29  2  0  0  0  0
 26 30  1  0  0  0  0
 27 28  2  0  0  0  0
 28 31  1  0  0  0  0
 29 27  1  0  0  0  0
 30 28  1  0  0  0  0
 31 32  1  0  0  0  0
 34 33  1  6  0  0  0
 35 34  1  0  0  0  0
 36 37  1  1  0  0  0
 36 35  1  0  0  0  0
 36 38  1  0  0  0  0
 38 39  1  0  0  0  0
 41 40  1  6  0  0  0
 41 39  1  0  0  0  0
 41 43  1  0  0  0  0
 43 42  2  0  0  0  0
 43 45  1  0  0  0  0
 45 44  1  0  0  0  0
M  END
>  <MODEL>
9

>  <REMARK>
 VINA RESULT:      -6.6      2.825      6.295
  Name = 
  13 active torsions:
  status: ('A' for Active; 'I' for Inactive)
    1  A    between atoms: C_1  and  C_14
    2  A    between atoms: C_4  and  C_21
    3  A    between atoms: C_4  and  N_33
    4  A    between atoms: C_8  and  C_28
    5  A    between atoms: C_8  and  C_45
    6  A    between atoms: C_9  and  C_18
    7  A    between atoms: C_12  and  C_38
    8  A    between atoms: C_13  and  C_26
    9  A    between atoms: C_17  and  C_34
   10  A    between atoms: C_17  and  C_35
   11  A    between atoms: C_21  and  C_38
   12  A    between atoms: C_28  and  C_41
   13  A    between atoms: N_33  and  C_41
                            x       y       z     vdW  Elec       q    Type
                         _______ _______ _______ _____ _____    ______ ____

>  <TORSDO>
F 13

$$$$
