=
 OpenBabel11042414223D

 27 28  0  0  1  0  0  0  0  0999 V2000
  187.5900  176.3700  147.2650 C   0  0  0  0  0  2  0  0  0  0  0  0
  186.1100  178.3410  145.3490 C   0  0  0  0  0  0  0  0  0  0  0  0
  188.2280  176.2770  145.8770 C   0  0  1  0  0  3  0  0  0  0  0  0
  185.1170  179.0970  144.9020 C   0  0  0  0  0  3  0  0  0  0  0  0
  185.5450  177.5980  146.4640 C   0  0  0  0  0  0  0  0  0  0  0  0
  183.9670  178.9080  145.7330 N   0  0  0  0  0  0  0  0  0  0  0  0
  188.4620  177.6430  145.3580 N   0  0  0  0  0  0  0  0  0  0  0  0
  187.3150  178.0020  144.5340 C   0  0  0  0  0  2  0  0  0  0  0  0
  184.2060  178.0320  146.6230 N   0  0  0  0  0  0  0  0  0  0  0  0
  186.1300  176.7110  147.2670 C   0  0  0  0  0  3  0  0  0  0  0  0
  189.4880  175.3850  145.9430 C   0  0  2  0  0  3  0  0  0  0  0  0
  189.2680  174.1950  145.2470 O   0  0  0  0  0  1  0  0  0  0  0  0
  189.9230  175.0870  147.3760 C   0  0  0  0  0  2  0  0  0  0  0  0
  191.2430  175.7140  147.6630 C   0  0  0  0  0  0  0  0  0  0  0  0
  192.3960  175.1990  147.0860 O   0  0  0  0  0  0  0  0  0  0  0  0
  191.3110  176.7300  148.4030 O   0  0  0  0  0  1  0  0  0  0  0  0
  189.5970  177.7010  144.4430 C   0  0  0  0  0  2  0  0  0  0  0  0
  189.0990  177.6200  143.0140 C   0  0  0  0  0  2  0  0  0  0  0  0
  189.4940  176.2830  142.4180 C   0  0  0  0  0  2  0  0  0  0  0  0
  188.6640  176.0020  141.2590 N   0  0  0  0  0  0  0  0  0  0  0  0
  188.7840  174.5760  140.9920 C   0  0  0  0  0  2  0  0  0  0  0  0
  188.4830  172.6050  142.3030 O   0  0  0  0  0  1  0  0  0  0  0  0
  187.8640  173.7920  141.9100 C   0  0  0  0  0  2  0  0  0  0  0  0
  187.2890  176.2410  141.6660 C   0  0  0  0  0  2  0  0  0  0  0  0
  185.9650  178.3120  141.2490 O   0  0  0  0  0  1  0  0  0  0  0  0
  186.6480  177.2160  140.7400 C   0  0  0  0  0  0  0  0  0  0  0  0
  186.6920  177.0240  139.4970 O   0  0  0  0  0  0  0  0  0  0  0  0
  1 10  1  0  0  0  0
  2  5  1  0  0  0  0
  3 11  1  1  0  0  0
  3  1  1  0  0  0  0
  4  2  2  0  0  0  0
  4  6  1  0  0  0  0
  5  9  1  0  0  0  0
  5 10  2  0  0  0  0
  6  9  2  0  0  0  0
  7  3  1  0  0  0  0
  8  2  1  0  0  0  0
  8  7  1  0  0  0  0
 11 12  1  1  0  0  0
 11 13  1  0  0  0  0
 13 14  1  0  0  0  0
 14 16  1  0  0  0  0
 15 14  2  0  0  0  0
 17  7  1  0  0  0  0
 18 17  1  0  0  0  0
 19 18  1  0  0  0  0
 20 24  1  0  0  0  0
 20 19  1  0  0  0  0
 21 20  1  0  0  0  0
 21 23  1  0  0  0  0
 23 22  1  0  0  0  0
 26 25  1  0  0  0  0
 26 24  1  0  0  0  0
 27 26  2  0  0  0  0
M  END
>  <MODEL>
1

>  <REMARK>
 VINA RESULT:      -5.9      0.000      0.000
  Name = 
  11 active torsions:
  status: ('A' for Active; 'I' for Inactive)
    1  A    between atoms: C_1  and  C_4
    2  A    between atoms: C_1  and  C_22
    3  A    between atoms: C_6  and  C_15
    4  A    between atoms: C_6  and  N_20
    5  A    between atoms: C_7  and  C_14
    6  A    between atoms: C_7  and  C_27
    7  A    between atoms: C_9  and  C_22
    8  A    between atoms: C_14  and  N_20
    9  A    between atoms: N_17  and  C_27
   10  A    between atoms: C_18  and  C_19
   11  A    between atoms: C_19  and  N_20
                            x       y       z     vdW  Elec       q    Type
                         _______ _______ _______ _____ _____    ______ ____

>  <TORSDO>
F 11

$$$$
=
 OpenBabel11042414223D

 27 28  0  0  1  0  0  0  0  0999 V2000
  187.5000  176.7210  146.8420 C   0  0  0  0  0  2  0  0  0  0  0  0
  186.0360  178.3190  144.5950 C   0  0  0  0  0  0  0  0  0  0  0  0
  188.0860  176.3130  145.4880 C   0  0  1  0  0  3  0  0  0  0  0  0
  185.0590  179.0120  144.0260 C   0  0  0  0  0  3  0  0  0  0  0  0
  185.4800  177.8510  145.8540 C   0  0  0  0  0  0  0  0  0  0  0  0
  183.9320  179.0530  144.9070 N   0  0  0  0  0  0  0  0  0  0  0  0
  188.3570  177.5300  144.6920 N   0  0  0  0  0  0  0  0  0  0  0  0
  187.1980  177.7640  143.8390 C   0  0  0  0  0  2  0  0  0  0  0  0
  184.1660  178.3690  145.9530 N   0  0  0  0  0  0  0  0  0  0  0  0
  186.0560  177.1230  146.8090 C   0  0  0  0  0  3  0  0  0  0  0  0
  189.3100  175.3970  145.7080 C   0  0  2  0  0  3  0  0  0  0  0  0
  189.1510  174.2080  144.9940 O   0  0  0  0  0  1  0  0  0  0  0  0
  189.5650  175.0970  147.1830 C   0  0  0  0  0  2  0  0  0  0  0  0
  190.8810  175.6490  147.6090 C   0  0  0  0  0  0  0  0  0  0  0  0
  192.0120  174.8450  147.5820 O   0  0  0  0  0  0  0  0  0  0  0  0
  190.9750  176.8530  147.9650 O   0  0  0  0  0  1  0  0  0  0  0  0
  189.4620  177.3450  143.7560 C   0  0  0  0  0  2  0  0  0  0  0  0
  190.7090  178.0010  144.3110 C   0  0  0  0  0  2  0  0  0  0  0  0
  191.9330  177.4070  143.6430 C   0  0  0  0  0  2  0  0  0  0  0  0
  192.5350  176.4150  144.5180 N   0  0  0  0  0  0  0  0  0  0  0  0
  192.4410  175.1350  143.8310 C   0  0  0  0  0  2  0  0  0  0  0  0
  191.3330  174.5540  141.7980 O   0  0  0  0  0  1  0  0  0  0  0  0
  192.3460  175.3530  142.3320 C   0  0  0  0  0  2  0  0  0  0  0  0
  193.9480  176.7450  144.6080 C   0  0  0  0  0  2  0  0  0  0  0  0
  194.2070  177.3450  147.0140 O   0  0  0  0  0  1  0  0  0  0  0  0
  194.4510  176.4520  145.9790 C   0  0  0  0  0  0  0  0  0  0  0  0
  195.1280  175.4130  146.1920 O   0  0  0  0  0  0  0  0  0  0  0  0
  2  5  1  0  0  0  0
  3 11  1  1  0  0  0
  3  1  1  0  0  0  0
  4  2  2  0  0  0  0
  4  6  1  0  0  0  0
  5  9  1  0  0  0  0
  5 10  2  0  0  0  0
  6  9  2  0  0  0  0
  7  3  1  0  0  0  0
  8  2  1  0  0  0  0
  8  7  1  0  0  0  0
 10  1  1  0  0  0  0
 11 12  1  6  0  0  0
 11 13  1  0  0  0  0
 13 14  1  0  0  0  0
 14 16  1  0  0  0  0
 15 14  2  0  0  0  0
 17 18  1  0  0  0  0
 17  7  1  0  0  0  0
 19 18  1  0  0  0  0
 19 20  1  0  0  0  0
 20 24  1  0  0  0  0
 21 20  1  0  0  0  0
 22 23  1  0  0  0  0
 23 21  1  0  0  0  0
 24 26  1  0  0  0  0
 26 27  2  0  0  0  0
 26 25  1  0  0  0  0
M  END
>  <MODEL>
2

>  <REMARK>
 VINA RESULT:      -5.8      2.431      4.151
  Name = 
  11 active torsions:
  status: ('A' for Active; 'I' for Inactive)
    1  A    between atoms: C_1  and  C_4
    2  A    between atoms: C_1  and  C_22
    3  A    between atoms: C_6  and  C_15
    4  A    between atoms: C_6  and  N_20
    5  A    between atoms: C_7  and  C_14
    6  A    between atoms: C_7  and  C_27
    7  A    between atoms: C_9  and  C_22
    8  A    between atoms: C_14  and  N_20
    9  A    between atoms: N_17  and  C_27
   10  A    between atoms: C_18  and  C_19
   11  A    between atoms: C_19  and  N_20
                            x       y       z     vdW  Elec       q    Type
                         _______ _______ _______ _____ _____    ______ ____

>  <TORSDO>
F 11

$$$$
=
 OpenBabel11042414223D

 27 28  0  0  1  0  0  0  0  0999 V2000
  186.0050  177.0800  143.0820 C   0  0  0  0  0  2  0  0  0  0  0  0
  186.2170  177.6290  146.1480 C   0  0  0  0  0  0  0  0  0  0  0  0
  187.4710  177.3390  143.4340 C   0  0  1  0  0  3  0  0  0  0  0  0
  185.8070  177.9850  147.3570 C   0  0  0  0  0  2  0  0  0  0  0  0
  185.1160  177.9680  145.2620 C   0  0  0  0  0  0  0  0  0  0  0  0
  184.4650  178.4760  147.2760 N   0  0  0  0  0  0  0  0  0  0  0  0
  187.8270  176.5570  144.6380 N   0  0  0  0  0  0  0  0  0  0  0  0
  187.6550  177.4280  145.7940 C   0  0  0  0  0  2  0  0  0  0  0  0
  184.0710  178.4840  146.0670 N   0  0  0  0  0  0  0  0  0  0  0  0
  185.0120  177.7990  143.9450 C   0  0  0  0  0  2  0  0  0  0  0  0
  188.3580  177.0640  142.1980 C   0  0  2  0  0  3  0  0  0  0  0  0
  188.8280  178.2680  141.6700 O   0  0  0  0  0  1  0  0  0  0  0  0
  187.6330  176.2620  141.1210 C   0  0  0  0  0  2  0  0  0  0  0  0
  188.2110  174.8940  141.0090 C   0  0  0  0  0  0  0  0  0  0  0  0
  188.2800  174.0760  142.1280 O   0  0  0  0  0  1  0  0  0  0  0  0
  188.6100  174.4670  139.8940 O   0  0  0  0  0  0  0  0  0  0  0  0
  189.2410  176.1950  144.6670 C   0  0  0  0  0  2  0  0  0  0  0  0
  190.0410  177.3290  145.2740 C   0  0  0  0  0  2  0  0  0  0  0  0
  191.2110  177.6620  144.3710 C   0  0  0  0  0  2  0  0  0  0  0  0
  192.1120  176.5240  144.2990 N   0  0  0  0  0  0  0  0  0  0  0  0
  192.5450  176.4160  142.9140 C   0  0  0  0  0  2  0  0  0  0  0  0
  191.8280  174.1450  143.0800 O   0  0  0  0  0  1  0  0  0  0  0  0
  191.8390  175.2560  142.2350 C   0  0  0  0  0  2  0  0  0  0  0  0
  193.2860  176.8760  145.0830 C   0  0  0  0  0  2  0  0  0  0  0  0
  194.8700  175.4810  146.4090 O   0  0  0  0  0  0  0  0  0  0  0  0
  193.5600  175.8130  146.0900 C   0  0  0  0  0  0  0  0  0  0  0  0
  192.6050  175.1910  146.6230 O   0  0  0  0  0  1  0  0  0  0  0  0
  1  3  1  0  0  0  0
  1 10  1  0  0  0  0
  2  4  1  0  0  0  0
  3 11  1  6  0  0  0
  3  7  1  0  0  0  0
  5  9  1  0  0  0  0
  5  2  2  0  0  0  0
  6  4  1  0  0  0  0
  7 17  1  0  0  0  0
  7  8  1  0  0  0  0
  8  2  1  0  0  0  0
  9  6  2  0  0  0  0
 10  5  1  0  0  0  0
 11 12  1  6  0  0  0
 13 11  1  0  0  0  0
 14 13  1  0  0  0  0
 14 15  1  0  0  0  0
 16 14  2  0  0  0  0
 17 18  1  0  0  0  0
 19 18  1  0  0  0  0
 20 19  1  0  0  0  0
 20 24  1  0  0  0  0
 21 20  1  0  0  0  0
 23 21  1  0  0  0  0
 23 22  1  0  0  0  0
 24 26  1  0  0  0  0
 26 25  2  0  0  0  0
 26 27  1  0  0  0  0
M  END
>  <MODEL>
3

>  <REMARK>
 VINA RESULT:      -5.8      2.059      5.293
  Name = 
  11 active torsions:
  status: ('A' for Active; 'I' for Inactive)
    1  A    between atoms: C_1  and  C_4
    2  A    between atoms: C_1  and  C_22
    3  A    between atoms: C_6  and  C_15
    4  A    between atoms: C_6  and  N_20
    5  A    between atoms: C_7  and  C_14
    6  A    between atoms: C_7  and  C_27
    7  A    between atoms: C_9  and  C_22
    8  A    between atoms: C_14  and  N_20
    9  A    between atoms: N_17  and  C_27
   10  A    between atoms: C_18  and  C_19
   11  A    between atoms: C_19  and  N_20
                            x       y       z     vdW  Elec       q    Type
                         _______ _______ _______ _____ _____    ______ ____

>  <TORSDO>
F 11

$$$$
=
 OpenBabel11042414223D

 27 28  0  0  1  0  0  0  0  0999 V2000
  185.3160  178.7460  144.0660 C   0  0  0  0  0  2  0  0  0  0  0  0
  187.0140  177.3280  141.8630 C   0  0  0  0  0  0  0  0  0  0  0  0
  185.9910  177.5180  144.6810 C   0  0  1  0  0  3  0  0  0  0  0  0
  187.3850  176.9870  140.6360 C   0  0  0  0  0  3  0  0  0  0  0  0
  185.7650  178.0520  141.6890 C   0  0  0  0  0  0  0  0  0  0  0  0
  186.4530  177.5240  139.6930 N   0  0  0  0  0  0  0  0  0  0  0  0
  187.4140  177.4940  144.2770 N   0  0  0  0  0  0  0  0  0  0  0  0
  187.5210  176.6500  143.0930 C   0  0  0  0  0  2  0  0  0  0  0  0
  185.5090  178.1230  140.2980 N   0  0  0  0  0  0  0  0  0  0  0  0
  184.9880  178.6220  142.6090 C   0  0  0  0  0  3  0  0  0  0  0  0
  185.7510  177.5030  146.2070 C   0  0  2  0  0  3  0  0  0  0  0  0
  184.7460  176.5870  146.5240 O   0  0  0  0  0  1  0  0  0  0  0  0
  185.4020  178.8820  146.7610 C   0  0  0  0  0  2  0  0  0  0  0  0
  186.3820  179.2900  147.8060 C   0  0  0  0  0  0  0  0  0  0  0  0
  186.3090  180.5560  148.3700 O   0  0  0  0  0  1  0  0  0  0  0  0
  187.2560  178.4760  148.2020 O   0  0  0  0  0  0  0  0  0  0  0  0
  188.2610  176.8350  145.2680 C   0  0  0  0  0  2  0  0  0  0  0  0
  189.5970  177.5460  145.3430 C   0  0  0  0  0  2  0  0  0  0  0  0
  190.6860  176.6300  144.8220 C   0  0  0  0  0  2  0  0  0  0  0  0
  191.7330  176.4990  145.8220 N   0  0  0  0  0  0  0  0  0  0  0  0
  191.5100  175.2300  146.5000 C   0  0  0  0  0  2  0  0  0  0  0  0
  191.3670  176.8180  148.2750 O   0  0  0  0  0  1  0  0  0  0  0  0
  191.1960  175.4680  147.9660 C   0  0  0  0  0  2  0  0  0  0  0  0
  192.9860  176.3750  145.0950 C   0  0  0  0  0  2  0  0  0  0  0  0
  194.2920  177.4810  146.9080 O   0  0  0  0  0  1  0  0  0  0  0  0
  194.1300  176.4020  146.0490 C   0  0  0  0  0  0  0  0  0  0  0  0
  194.9700  175.4660  146.0490 O   0  0  0  0  0  0  0  0  0  0  0  0
  1  3  1  0  0  0  0
  2  8  1  0  0  0  0
  3 11  1  1  0  0  0
  4  2  2  0  0  0  0
  5  2  1  0  0  0  0
  5 10  2  0  0  0  0
  6  9  2  0  0  0  0
  6  4  1  0  0  0  0
  7  3  1  0  0  0  0
  7 17  1  0  0  0  0
  8  7  1  0  0  0  0
  9  5  1  0  0  0  0
 10  1  1  0  0  0  0
 11 12  1  6  0  0  0
 11 13  1  0  0  0  0
 13 14  1  0  0  0  0
 14 16  2  0  0  0  0
 14 15  1  0  0  0  0
 17 18  1  0  0  0  0
 19 18  1  0  0  0  0
 19 20  1  0  0  0  0
 20 21  1  0  0  0  0
 21 23  1  0  0  0  0
 23 22  1  0  0  0  0
 24 20  1  0  0  0  0
 24 26  1  0  0  0  0
 26 25  1  0  0  0  0
 27 26  2  0  0  0  0
M  END
>  <MODEL>
4

>  <REMARK>
 VINA RESULT:      -5.8      3.036      5.963
  Name = 
  11 active torsions:
  status: ('A' for Active; 'I' for Inactive)
    1  A    between atoms: C_1  and  C_4
    2  A    between atoms: C_1  and  C_22
    3  A    between atoms: C_6  and  C_15
    4  A    between atoms: C_6  and  N_20
    5  A    between atoms: C_7  and  C_14
    6  A    between atoms: C_7  and  C_27
    7  A    between atoms: C_9  and  C_22
    8  A    between atoms: C_14  and  N_20
    9  A    between atoms: N_17  and  C_27
   10  A    between atoms: C_18  and  C_19
   11  A    between atoms: C_19  and  N_20
                            x       y       z     vdW  Elec       q    Type
                         _______ _______ _______ _____ _____    ______ ____

>  <TORSDO>
F 11

$$$$
=
 OpenBabel11042414223D

 27 28  0  0  1  0  0  0  0  0999 V2000
  186.0250  177.0870  143.0330 C   0  0  0  0  0  2  0  0  0  0  0  0
  186.2030  177.5590  146.1150 C   0  0  0  0  0  0  0  0  0  0  0  0
  187.4910  177.3100  143.4120 C   0  0  1  0  0  3  0  0  0  0  0  0
  185.7810  177.8950  147.3260 C   0  0  0  0  0  2  0  0  0  0  0  0
  185.1210  177.9400  145.2210 C   0  0  0  0  0  0  0  0  0  0  0  0
  184.4500  178.4120  147.2380 N   0  0  0  0  0  0  0  0  0  0  0  0
  187.8140  176.4930  144.6030 N   0  0  0  0  0  0  0  0  0  0  0  0
  187.6410  177.3390  145.7760 C   0  0  0  0  0  2  0  0  0  0  0  0
  184.0740  178.4560  146.0240 N   0  0  0  0  0  0  0  0  0  0  0  0
  185.0330  177.8040  143.8990 C   0  0  0  0  0  2  0  0  0  0  0  0
  188.3900  177.0470  142.1830 C   0  0  2  0  0  3  0  0  0  0  0  0
  188.7970  178.2580  141.6220 O   0  0  0  0  0  1  0  0  0  0  0  0
  187.7070  176.1790  141.1290 C   0  0  0  0  0  2  0  0  0  0  0  0
  188.2160  174.7810  141.1920 C   0  0  0  0  0  0  0  0  0  0  0  0
  189.0760  174.3110  140.2080 O   0  0  0  0  0  0  0  0  0  0  0  0
  187.8940  174.0350  142.1530 O   0  0  0  0  0  1  0  0  0  0  0  0
  189.2200  176.1030  144.6430 C   0  0  0  0  0  2  0  0  0  0  0  0
  189.3780  174.8730  145.5130 C   0  0  0  0  0  2  0  0  0  0  0  0
  190.8460  174.5050  145.6050 C   0  0  0  0  0  2  0  0  0  0  0  0
  191.5820  175.5870  146.2370 N   0  0  0  0  0  0  0  0  0  0  0  0
  191.3460  175.4750  147.6700 C   0  0  0  0  0  2  0  0  0  0  0  0
  190.3080  177.6200  147.7930 O   0  0  0  0  0  1  0  0  0  0  0  0
  191.3510  176.8510  148.3100 C   0  0  0  0  0  2  0  0  0  0  0  0
  192.9920  175.3120  146.0180 C   0  0  0  0  0  2  0  0  0  0  0  0
  193.1410  176.7800  144.0090 O   0  0  0  0  0  0  0  0  0  0  0  0
  193.6170  176.4370  145.2670 C   0  0  0  0  0  0  0  0  0  0  0  0
  194.6000  177.0500  145.7560 O   0  0  0  0  0  1  0  0  0  0  0  0
  1  3  1  0  0  0  0
  1 10  1  0  0  0  0
  2  4  1  0  0  0  0
  3 11  1  6  0  0  0
  3  7  1  0  0  0  0
  5  9  1  0  0  0  0
  5  2  2  0  0  0  0
  6  4  1  0  0  0  0
  7 17  1  0  0  0  0
  7  8  1  0  0  0  0
  8  2  1  0  0  0  0
  9  6  2  0  0  0  0
 10  5  1  0  0  0  0
 11 12  1  6  0  0  0
 13 14  1  0  0  0  0
 13 11  1  0  0  0  0
 14 16  1  0  0  0  0
 15 14  2  0  0  0  0
 17 18  1  0  0  0  0
 18 19  1  0  0  0  0
 19 20  1  0  0  0  0
 20 21  1  0  0  0  0
 21 23  1  0  0  0  0
 22 23  1  0  0  0  0
 24 20  1  0  0  0  0
 25 26  2  0  0  0  0
 26 27  1  0  0  0  0
 26 24  1  0  0  0  0
M  END
>  <MODEL>
5

>  <REMARK>
 VINA RESULT:      -5.8      1.935      5.599
  Name = 
  11 active torsions:
  status: ('A' for Active; 'I' for Inactive)
    1  A    between atoms: C_1  and  C_4
    2  A    between atoms: C_1  and  C_22
    3  A    between atoms: C_6  and  C_15
    4  A    between atoms: C_6  and  N_20
    5  A    between atoms: C_7  and  C_14
    6  A    between atoms: C_7  and  C_27
    7  A    between atoms: C_9  and  C_22
    8  A    between atoms: C_14  and  N_20
    9  A    between atoms: N_17  and  C_27
   10  A    between atoms: C_18  and  C_19
   11  A    between atoms: C_19  and  N_20
                            x       y       z     vdW  Elec       q    Type
                         _______ _______ _______ _____ _____    ______ ____

>  <TORSDO>
F 11

$$$$
=
 OpenBabel11042414223D

 27 28  0  0  1  0  0  0  0  0999 V2000
  185.9730  177.0930  143.0780 C   0  0  0  0  0  2  0  0  0  0  0  0
  186.2580  177.6440  146.1380 C   0  0  0  0  0  0  0  0  0  0  0  0
  187.4470  177.3570  143.3940 C   0  0  1  0  0  3  0  0  0  0  0  0
  185.8760  177.9990  147.3570 C   0  0  0  0  0  2  0  0  0  0  0  0
  185.1340  177.9790  145.2790 C   0  0  0  0  0  0  0  0  0  0  0  0
  184.5310  178.4850  147.3080 N   0  0  0  0  0  0  0  0  0  0  0  0
  187.8340  176.5770  144.5900 N   0  0  0  0  0  0  0  0  0  0  0  0
  187.6870  177.4470  145.7500 C   0  0  0  0  0  2  0  0  0  0  0  0
  184.1080  178.4920  146.1100 N   0  0  0  0  0  0  0  0  0  0  0  0
  184.9990  177.8090  143.9650 C   0  0  0  0  0  2  0  0  0  0  0  0
  188.3040  177.0840  142.1380 C   0  0  2  0  0  3  0  0  0  0  0  0
  188.6970  178.2910  141.5560 O   0  0  0  0  0  1  0  0  0  0  0  0
  187.5830  176.2130  141.1120 C   0  0  0  0  0  2  0  0  0  0  0  0
  188.1480  174.8350  141.1070 C   0  0  0  0  0  0  0  0  0  0  0  0
  188.8990  174.3970  140.0240 O   0  0  0  0  0  0  0  0  0  0  0  0
  187.9710  174.0770  142.0960 O   0  0  0  0  0  1  0  0  0  0  0  0
  189.2490  176.2190  144.5840 C   0  0  0  0  0  2  0  0  0  0  0  0
  190.0760  177.4230  144.9840 C   0  0  0  0  0  2  0  0  0  0  0  0
  191.5470  177.1130  144.7900 C   0  0  0  0  0  2  0  0  0  0  0  0
  191.8750  175.8650  145.4580 N   0  0  0  0  0  0  0  0  0  0  0  0
  192.9000  175.2150  144.6540 C   0  0  0  0  0  2  0  0  0  0  0  0
  195.1080  176.0500  144.3050 O   0  0  0  0  0  1  0  0  0  0  0  0
  193.7690  176.2560  143.9720 C   0  0  0  0  0  2  0  0  0  0  0  0
  192.4940  176.2220  146.7240 C   0  0  0  0  0  2  0  0  0  0  0  0
  191.4060  177.2540  148.7160 O   0  0  0  0  0  1  0  0  0  0  0  0
  191.4740  176.2040  147.8100 C   0  0  0  0  0  0  0  0  0  0  0  0
  190.7000  175.2190  147.9290 O   0  0  0  0  0  0  0  0  0  0  0  0
  1  3  1  0  0  0  0
  1 10  1  0  0  0  0
  2  4  1  0  0  0  0
  3 11  1  6  0  0  0
  3  7  1  0  0  0  0
  5  9  1  0  0  0  0
  5  2  2  0  0  0  0
  6  4  1  0  0  0  0
  7  8  1  0  0  0  0
  8  2  1  0  0  0  0
  9  6  2  0  0  0  0
 10  5  1  0  0  0  0
 11 12  1  6  0  0  0
 13 11  1  0  0  0  0
 14 13  1  0  0  0  0
 14 16  1  0  0  0  0
 15 14  2  0  0  0  0
 17  7  1  0  0  0  0
 17 18  1  0  0  0  0
 19 18  1  0  0  0  0
 19 20  1  0  0  0  0
 20 24  1  0  0  0  0
 21 20  1  0  0  0  0
 23 22  1  0  0  0  0
 23 21  1  0  0  0  0
 24 26  1  0  0  0  0
 26 27  2  0  0  0  0
 26 25  1  0  0  0  0
M  END
>  <MODEL>
6

>  <REMARK>
 VINA RESULT:      -5.8      2.050      5.494
  Name = 
  11 active torsions:
  status: ('A' for Active; 'I' for Inactive)
    1  A    between atoms: C_1  and  C_4
    2  A    between atoms: C_1  and  C_22
    3  A    between atoms: C_6  and  C_15
    4  A    between atoms: C_6  and  N_20
    5  A    between atoms: C_7  and  C_14
    6  A    between atoms: C_7  and  C_27
    7  A    between atoms: C_9  and  C_22
    8  A    between atoms: C_14  and  N_20
    9  A    between atoms: N_17  and  C_27
   10  A    between atoms: C_18  and  C_19
   11  A    between atoms: C_19  and  N_20
                            x       y       z     vdW  Elec       q    Type
                         _______ _______ _______ _____ _____    ______ ____

>  <TORSDO>
F 11

$$$$
=
 OpenBabel11042414223D

 27 28  0  0  1  0  0  0  0  0999 V2000
  186.2600  176.9570  143.1950 C   0  0  0  0  0  2  0  0  0  0  0  0
  186.2590  177.5860  146.2530 C   0  0  0  0  0  0  0  0  0  0  0  0
  187.6940  177.2650  143.6340 C   0  0  1  0  0  3  0  0  0  0  0  0
  185.7620  177.9600  147.4240 C   0  0  0  0  0  2  0  0  0  0  0  0
  185.2090  177.8730  145.2900 C   0  0  0  0  0  0  0  0  0  0  0  0
  184.4160  178.4110  147.2440 N   0  0  0  0  0  0  0  0  0  0  0  0
  187.9910  176.5230  144.8780 N   0  0  0  0  0  0  0  0  0  0  0  0
  187.7210  177.4170  145.9980 C   0  0  0  0  0  2  0  0  0  0  0  0
  184.1010  178.3790  146.0130 N   0  0  0  0  0  0  0  0  0  0  0  0
  185.1950  177.6690  143.9740 C   0  0  0  0  0  2  0  0  0  0  0  0
  188.6650  176.9850  142.4650 C   0  0  2  0  0  3  0  0  0  0  0  0
  188.9490  178.1700  141.7850 O   0  0  0  0  0  1  0  0  0  0  0  0
  188.1310  175.9340  141.4950 C   0  0  0  0  0  2  0  0  0  0  0  0
  188.8150  174.6280  141.7100 C   0  0  0  0  0  0  0  0  0  0  0  0
  188.0940  173.5360  142.1740 O   0  0  0  0  0  1  0  0  0  0  0  0
  190.0380  174.5050  141.4430 O   0  0  0  0  0  0  0  0  0  0  0  0
  189.4090  176.2010  145.0070 C   0  0  0  0  0  2  0  0  0  0  0  0
  189.5610  174.7730  145.4910 C   0  0  0  0  0  2  0  0  0  0  0  0
  190.8110  174.1660  144.8870 C   0  0  0  0  0  2  0  0  0  0  0  0
  191.8800  175.1500  144.8830 N   0  0  0  0  0  0  0  0  0  0  0  0
  192.6630  174.9260  146.0900 C   0  0  0  0  0  2  0  0  0  0  0  0
  194.2600  176.6540  146.4890 O   0  0  0  0  0  1  0  0  0  0  0  0
  192.9560  176.2480  146.7760 C   0  0  0  0  0  2  0  0  0  0  0  0
  192.7380  174.8250  143.7550 C   0  0  0  0  0  2  0  0  0  0  0  0
  192.1220  177.0610  142.8410 O   0  0  0  0  0  1  0  0  0  0  0  0
  193.0750  176.0650  143.0010 C   0  0  0  0  0  0  0  0  0  0  0  0
  194.2120  176.1920  142.4780 O   0  0  0  0  0  0  0  0  0  0  0  0
  1  3  1  0  0  0  0
  1 10  1  0  0  0  0
  2  4  1  0  0  0  0
  3 11  1  6  0  0  0
  3  7  1  0  0  0  0
  5  9  1  0  0  0  0
  5  2  2  0  0  0  0
  6  4  1  0  0  0  0
  7 17  1  0  0  0  0
  7  8  1  0  0  0  0
  8  2  1  0  0  0  0
  9  6  2  0  0  0  0
 10  5  1  0  0  0  0
 11 12  1  6  0  0  0
 13 14  1  0  0  0  0
 13 11  1  0  0  0  0
 14 15  1  0  0  0  0
 16 14  2  0  0  0  0
 17 18  1  0  0  0  0
 19 18  1  0  0  0  0
 20 19  1  0  0  0  0
 20 21  1  0  0  0  0
 21 23  1  0  0  0  0
 22 23  1  0  0  0  0
 24 20  1  0  0  0  0
 25 26  1  0  0  0  0
 26 24  1  0  0  0  0
 27 26  2  0  0  0  0
M  END
>  <MODEL>
7

>  <REMARK>
 VINA RESULT:      -5.7      2.348      5.057
  Name = 
  11 active torsions:
  status: ('A' for Active; 'I' for Inactive)
    1  A    between atoms: C_1  and  C_4
    2  A    between atoms: C_1  and  C_22
    3  A    between atoms: C_6  and  C_15
    4  A    between atoms: C_6  and  N_20
    5  A    between atoms: C_7  and  C_14
    6  A    between atoms: C_7  and  C_27
    7  A    between atoms: C_9  and  C_22
    8  A    between atoms: C_14  and  N_20
    9  A    between atoms: N_17  and  C_27
   10  A    between atoms: C_18  and  C_19
   11  A    between atoms: C_19  and  N_20
                            x       y       z     vdW  Elec       q    Type
                         _______ _______ _______ _____ _____    ______ ____

>  <TORSDO>
F 11

$$$$
=
 OpenBabel11042414223D

 27 28  0  0  1  0  0  0  0  0999 V2000
  186.5990  177.5880  145.3870 C   0  0  0  0  0  2  0  0  0  0  0  0
  189.6620  177.0290  145.1570 C   0  0  0  0  0  0  0  0  0  0  0  0
  187.1360  178.2980  144.1420 C   0  0  1  0  0  3  0  0  0  0  0  0
  190.8820  176.7150  145.5710 C   0  0  0  0  0  3  0  0  0  0  0  0
  188.8760  177.1640  146.3720 C   0  0  0  0  0  0  0  0  0  0  0  0
  190.8790  176.5840  146.9960 N   0  0  0  0  0  0  0  0  0  0  0  0
  187.9980  177.3650  143.3850 N   0  0  0  0  0  0  0  0  0  0  0  0
  189.3740  177.5990  143.8060 C   0  0  0  0  0  2  0  0  0  0  0  0
  189.7280  176.8590  147.4610 N   0  0  0  0  0  0  0  0  0  0  0  0
  187.5830  177.4540  146.5100 C   0  0  0  0  0  3  0  0  0  0  0  0
  185.9580  178.8900  143.3350 C   0  0  2  0  0  3  0  0  0  0  0  0
  185.5560  180.1040  143.8980 O   0  0  0  0  0  1  0  0  0  0  0  0
  184.7720  177.9350  143.2380 C   0  0  0  0  0  2  0  0  0  0  0  0
  184.0090  178.1750  141.9810 C   0  0  0  0  0  0  0  0  0  0  0  0
  184.6760  178.2330  140.7650 O   0  0  0  0  0  0  0  0  0  0  0  0
  182.7570  178.2940  142.0170 O   0  0  0  0  0  1  0  0  0  0  0  0
  188.0050  177.6530  141.9540 C   0  0  0  0  0  2  0  0  0  0  0  0
  187.8540  176.3600  141.1780 C   0  0  0  0  0  2  0  0  0  0  0  0
  187.4490  175.2480  142.1250 C   0  0  0  0  0  2  0  0  0  0  0  0
  188.2720  174.0760  141.8800 N   0  0  0  0  0  0  0  0  0  0  0  0
  188.8650  174.2460  140.5610 C   0  0  0  0  0  2  0  0  0  0  0  0
  188.1630  173.6410  138.3620 O   0  0  0  0  0  1  0  0  0  0  0  0
  188.4110  173.1310  139.6360 C   0  0  0  0  0  2  0  0  0  0  0  0
  189.3610  174.1250  142.8430 C   0  0  0  0  0  2  0  0  0  0  0  0
  189.8260  172.8350  144.9240 O   0  0  0  0  0  1  0  0  0  0  0  0
  189.4340  172.8400  143.5920 C   0  0  0  0  0  0  0  0  0  0  0  0
  189.1770  171.7560  143.0080 O   0  0  0  0  0  0  0  0  0  0  0  0
  1 10  1  0  0  0  0
  2  4  2  0  0  0  0
  2  5  1  0  0  0  0
  3 11  1  6  0  0  0
  3  1  1  0  0  0  0
  4  6  1  0  0  0  0
  5 10  2  0  0  0  0
  5  9  1  0  0  0  0
  6  9  2  0  0  0  0
  7  8  1  0  0  0  0
  7  3  1  0  0  0  0
  8  2  1  0  0  0  0
 11 12  1  1  0  0  0
 13 11  1  0  0  0  0
 14 16  1  0  0  0  0
 14 13  1  0  0  0  0
 15 14  2  0  0  0  0
 17  7  1  0  0  0  0
 18 17  1  0  0  0  0
 18 19  1  0  0  0  0
 20 19  1  0  0  0  0
 20 24  1  0  0  0  0
 21 20  1  0  0  0  0
 22 23  1  0  0  0  0
 23 21  1  0  0  0  0
 24 26  1  0  0  0  0
 26 25  1  0  0  0  0
 27 26  2  0  0  0  0
M  END
>  <MODEL>
8

>  <REMARK>
 VINA RESULT:      -5.7      2.403      5.532
  Name = 
  11 active torsions:
  status: ('A' for Active; 'I' for Inactive)
    1  A    between atoms: C_1  and  C_4
    2  A    between atoms: C_1  and  C_22
    3  A    between atoms: C_6  and  C_15
    4  A    between atoms: C_6  and  N_20
    5  A    between atoms: C_7  and  C_14
    6  A    between atoms: C_7  and  C_27
    7  A    between atoms: C_9  and  C_22
    8  A    between atoms: C_14  and  N_20
    9  A    between atoms: N_17  and  C_27
   10  A    between atoms: C_18  and  C_19
   11  A    between atoms: C_19  and  N_20
                            x       y       z     vdW  Elec       q    Type
                         _______ _______ _______ _____ _____    ______ ____

>  <TORSDO>
F 11

$$$$
=
 OpenBabel11042414223D

 27 28  0  0  1  0  0  0  0  0999 V2000
  187.5390  176.6310  146.8970 C   0  0  0  0  0  2  0  0  0  0  0  0
  186.4820  178.3730  144.5310 C   0  0  0  0  0  0  0  0  0  0  0  0
  188.4030  176.3610  145.6640 C   0  0  1  0  0  3  0  0  0  0  0  0
  185.6080  179.0830  143.8310 C   0  0  0  0  0  3  0  0  0  0  0  0
  185.7080  177.7810  145.6100 C   0  0  0  0  0  0  0  0  0  0  0  0
  184.3270  179.0130  144.4640 N   0  0  0  0  0  0  0  0  0  0  0  0
  188.7710  177.6490  145.0370 N   0  0  0  0  0  0  0  0  0  0  0  0
  187.7980  177.9210  143.9870 C   0  0  0  0  0  2  0  0  0  0  0  0
  184.3770  178.2490  145.4790 N   0  0  0  0  0  0  0  0  0  0  0  0
  186.1140  176.9910  146.6020 C   0  0  0  0  0  3  0  0  0  0  0  0
  189.6010  175.4660  146.0560 C   0  0  2  0  0  3  0  0  0  0  0  0
  189.3190  174.1320  145.7560 O   0  0  0  0  0  1  0  0  0  0  0  0
  189.9830  175.6070  147.5270 C   0  0  0  0  0  2  0  0  0  0  0  0
  191.2550  176.3690  147.6670 C   0  0  0  0  0  0  0  0  0  0  0  0
  191.4480  177.2030  148.7600 O   0  0  0  0  0  1  0  0  0  0  0  0
  192.1680  176.2340  146.8110 O   0  0  0  0  0  0  0  0  0  0  0  0
  190.0490  177.5790  144.3350 C   0  0  0  0  0  2  0  0  0  0  0  0
  189.8520  176.9050  142.9930 C   0  0  0  0  0  2  0  0  0  0  0  0
  191.0580  176.0420  142.6800 C   0  0  0  0  0  2  0  0  0  0  0  0
  190.6210  174.7810  142.1050 N   0  0  0  0  0  0  0  0  0  0  0  0
  191.1660  173.7240  142.9440 C   0  0  0  0  0  2  0  0  0  0  0  0
  192.5540  173.4390  144.8650 O   0  0  0  0  0  1  0  0  0  0  0  0
  192.3420  174.2490  143.7480 C   0  0  0  0  0  2  0  0  0  0  0  0
  189.1750  174.7370  142.2540 C   0  0  0  0  0  2  0  0  0  0  0  0
  188.7230  174.2300  139.8560 O   0  0  0  0  0  0  0  0  0  0  0  0
  188.5820  173.8790  141.1920 C   0  0  0  0  0  0  0  0  0  0  0  0
  187.9200  172.8560  141.5070 O   0  0  0  0  0  1  0  0  0  0  0  0
  2  5  1  0  0  0  0
  3 11  1  1  0  0  0
  3  1  1  0  0  0  0
  4  6  1  0  0  0  0
  4  2  2  0  0  0  0
  5 10  2  0  0  0  0
  6  9  2  0  0  0  0
  7  3  1  0  0  0  0
  8  2  1  0  0  0  0
  8  7  1  0  0  0  0
  9  5  1  0  0  0  0
 10  1  1  0  0  0  0
 11 12  1  1  0  0  0
 11 13  1  0  0  0  0
 13 14  1  0  0  0  0
 14 15  1  0  0  0  0
 16 14  2  0  0  0  0
 17  7  1  0  0  0  0
 18 17  1  0  0  0  0
 19 18  1  0  0  0  0
 20 24  1  0  0  0  0
 20 19  1  0  0  0  0
 20 21  1  0  0  0  0
 21 23  1  0  0  0  0
 23 22  1  0  0  0  0
 25 26  2  0  0  0  0
 26 27  1  0  0  0  0
 26 24  1  0  0  0  0
M  END
>  <MODEL>
9

>  <REMARK>
 VINA RESULT:      -5.7      1.683      2.418
  Name = 
  11 active torsions:
  status: ('A' for Active; 'I' for Inactive)
    1  A    between atoms: C_1  and  C_4
    2  A    between atoms: C_1  and  C_22
    3  A    between atoms: C_6  and  C_15
    4  A    between atoms: C_6  and  N_20
    5  A    between atoms: C_7  and  C_14
    6  A    between atoms: C_7  and  C_27
    7  A    between atoms: C_9  and  C_22
    8  A    between atoms: C_14  and  N_20
    9  A    between atoms: N_17  and  C_27
   10  A    between atoms: C_18  and  C_19
   11  A    between atoms: C_19  and  N_20
                            x       y       z     vdW  Elec       q    Type
                         _______ _______ _______ _____ _____    ______ ____

>  <TORSDO>
F 11

$$$$
