=
 OpenBabel11042419213D

 42 45  0  0  1  0  0  0  0  0999 V2000
  190.9940  176.1280  142.8110 C   0  0  0  0  0  0  0  0  0  0  0  0
  187.7490  178.1350  142.3070 N   0  0  0  0  0  0  0  0  0  0  0  0
  186.8350  177.2510  142.0210 C   0  0  0  0  0  0  0  0  0  0  0  0
  189.9000  175.2870  142.5040 C   0  0  0  0  0  0  0  0  0  0  0  0
  187.3220  175.8060  142.0050 C   0  0  0  0  0  2  0  0  0  0  0  0
  188.9160  177.3670  142.5110 C   0  0  0  0  0  0  0  0  0  0  0  0
  190.5040  177.7650  142.8530 S   0  0  0  0  0  0  0  0  0  0  0  0
  188.7410  176.0510  142.3510 C   0  0  0  0  0  0  0  0  0  0  0  0
  189.3190  173.0720  143.1470 O   0  0  0  0  0  0  0  0  0  0  0  0
  189.9560  173.8180  142.3530 C   0  0  0  0  0  0  0  0  0  0  0  0
  190.7360  173.2350  141.3030 N   0  0  0  0  0  2  0  0  0  0  0  0
  190.8150  171.7980  141.0900 C   0  0  0  0  0  2  0  0  0  0  0  0
  192.0750  171.2480  141.7350 C   0  0  0  0  0  2  0  0  0  0  0  0
  192.3170  169.3890  142.9880 O   0  0  0  0  0  1  0  0  0  0  0  0
  191.7440  170.6150  143.0000 N   0  0  0  0  0  0  0  0  0  0  0  0
  192.4190  171.3760  144.0390 C   0  0  0  0  0  2  0  0  0  0  0  0
  193.7240  170.6980  144.4170 C   0  0  0  0  0  2  0  0  0  0  0  0
  194.2510  171.2760  145.6410 N   0  0  0  0  0  2  0  0  0  0  0  0
  194.4690  172.6880  145.3790 C   0  0  0  0  0  2  0  0  0  0  0  0
  195.9480  172.9510  145.1610 C   0  0  0  0  0  2  0  0  0  0  0  0
  196.1420  174.2590  144.7130 O   0  0  0  0  0  0  0  0  0  0  0  0
  196.8170  174.1190  143.4990 C   0  0  0  0  0  2  0  0  0  0  0  0
  196.5220  175.3040  142.5980 C   0  0  0  0  0  2  0  0  0  0  0  0
  196.5140  176.5880  143.4010 C   0  0  0  0  0  1  0  0  0  0  0  0
  185.5220  177.6340  141.7550 O   0  0  0  0  0  0  0  0  0  0  0  0
  185.1230  178.1030  140.4750 C   0  0  0  0  0  1  0  0  0  0  0  0
  192.4070  175.6940  143.0060 C   0  0  0  0  0  2  0  0  0  0  0  0
  192.9470  176.2620  144.3030 C   0  0  0  0  0  2  0  0  0  0  0  0
  192.3790  175.5320  145.4220 N   0  0  0  0  0  2  0  0  0  0  0  0
  193.6360  176.5540  147.0930 O   0  0  0  0  0  1  0  0  0  0  0  0
  192.3530  176.4380  146.5570 C   0  0  2  0  0  3  0  0  0  0  0  0
  191.2250  175.7850  147.8200 S   0  0  0  0  0  0  0  0  0  0  0  0
  189.9420  174.9020  146.3700 S   0  0  0  0  0  0  0  0  0  0  0  0
  188.4530  175.3570  147.3030 C   0  0  0  0  0  2  0  0  0  0  0  0
  186.6810  176.2310  145.9520 O   0  0  0  0  0  0  0  0  0  0  0  0
  186.5690  178.4160  147.0440 O   0  0  0  0  0  0  0  0  0  0  0  0
  185.3300  177.9560  146.6710 C   0  0  2  0  0  3  0  0  0  0  0  0
  187.8000  176.5680  146.6680 C   0  0  2  0  0  0  0  0  0  0  0  0
  188.6110  177.4460  145.9360 O   0  0  0  0  0  1  0  0  0  0  0  0
  186.4270  176.9990  147.1370 C   0  0  1  0  0  0  0  0  0  0  0  0
  185.4210  179.6500  144.8520 C   0  0  0  0  0  1  0  0  0  0  0  0
  185.1600  178.1920  145.1690 C   0  0  0  0  0  2  0  0  0  0  0  0
  1  7  1  0  0  0  0
  1 27  1  0  0  0  0
  2  6  1  0  0  0  0
  3  2  2  0  0  0  0
  4  1  2  0  0  0  0
  5  3  1  0  0  0  0
  5  8  1  0  0  0  0
  6  7  1  0  0  0  0
  8  4  1  0  0  0  0
  8  6  2  0  0  0  0
 10  4  1  0  0  0  0
 10  9  2  0  0  0  0
 11 10  1  0  0  0  0
 12 11  1  0  0  0  0
 12 13  1  0  0  0  0
 13 15  1  0  0  0  0
 14 15  1  0  0  0  0
 15 16  1  0  0  0  0
 16 17  1  0  0  0  0
 17 18  1  0  0  0  0
 19 18  1  0  0  0  0
 20 19  1  0  0  0  0
 21 20  1  0  0  0  0
 22 21  1  0  0  0  0
 23 24  1  0  0  0  0
 23 22  1  0  0  0  0
 25  3  1  0  0  0  0
 26 25  1  0  0  0  0
 27 28  1  0  0  0  0
 28 29  1  0  0  0  0
 29 31  1  0  0  0  0
 31 30  1  1  0  0  0
 31 32  1  0  0  0  0
 33 34  1  0  0  0  0
 33 32  1  0  0  0  0
 35 38  1  0  0  0  0
 36 40  1  0  0  0  0
 37 42  1  6  0  0  0
 37 36  1  0  0  0  0
 37 40  1  0  0  0  0
 38 39  1  6  0  0  0
 38 40  1  0  0  0  0
 38 34  1  0  0  0  0
 40 35  1  6  0  0  0
 41 42  1  0  0  0  0
M  END
>  <MODEL>
1

>  <REMARK>
 VINA RESULT:      -5.2      0.000      0.000
  Name = 
  22 active torsions:
  status: ('A' for Active; 'I' for Inactive)
    1  A    between atoms: C_1  and  C_19
    2  A    between atoms: C_2  and  C_22
    3  A    between atoms: C_3  and  N_27
    4  A    between atoms: C_3  and  C_28
    5  A    between atoms: S_7  and  S_12
    6  A    between atoms: S_7  and  C_20
    7  A    between atoms: O_8  and  C_11
    8  A    between atoms: C_10  and  C_22
    9  A    between atoms: C_10  and  N_38
   10  A    between atoms: S_12  and  C_32
   11  A    between atoms: C_16  and  C_24
   12  A    between atoms: C_19  and  O_39
   13  A    between atoms: C_20  and  C_29
   14  A    between atoms: C_21  and  C_23
   15  A    between atoms: C_25  and  N_33
   16  A    between atoms: C_25  and  C_41
   17  A    between atoms: N_27  and  C_34
   18  A    between atoms: C_28  and  N_35
   19  A    between atoms: C_30  and  N_33
   20  A    between atoms: C_30  and  C_34
   21  A    between atoms: C_32  and  N_38
   22  A    between atoms: O_39  and  C_41
                            x       y       z     vdW  Elec       q    Type
                         _______ _______ _______ _____ _____    ______ ____

>  <TORSDO>
F 22

$$$$
=
 OpenBabel11042419213D

 42 45  0  0  1  0  0  0  0  0999 V2000
  189.9690  175.4760  146.3990 C   0  0  0  0  0  0  0  0  0  0  0  0
  193.7490  176.1210  146.7250 N   0  0  0  0  0  0  0  0  0  0  0  0
  194.3220  175.2070  145.9940 C   0  0  0  0  0  0  0  0  0  0  0  0
  190.7250  174.5560  145.6380 C   0  0  0  0  0  0  0  0  0  0  0  0
  193.3620  174.2610  145.2800 C   0  0  0  0  0  2  0  0  0  0  0  0
  192.3690  175.8740  146.5630 C   0  0  0  0  0  0  0  0  0  0  0  0
  190.9960  176.5710  147.2160 S   0  0  0  0  0  0  0  0  0  0  0  0
  192.0860  174.8380  145.7650 C   0  0  0  0  0  0  0  0  0  0  0  0
  189.6460  172.4510  145.3910 O   0  0  0  0  0  0  0  0  0  0  0  0
  190.1770  173.4470  144.8280 C   0  0  0  0  0  0  0  0  0  0  0  0
  190.2500  173.5010  143.3990 N   0  0  0  0  0  2  0  0  0  0  0  0
  189.7110  172.4510  142.5470 C   0  0  0  0  0  2  0  0  0  0  0  0
  190.3580  172.5160  141.1750 C   0  0  0  0  0  2  0  0  0  0  0  0
  190.2960  170.6670  139.8850 O   0  0  0  0  0  1  0  0  0  0  0  0
  191.0080  171.2520  140.8780 N   0  0  0  0  0  0  0  0  0  0  0  0
  192.3110  171.5710  140.3180 C   0  0  0  0  0  2  0  0  0  0  0  0
  192.8440  172.8530  140.9350 C   0  0  0  0  0  2  0  0  0  0  0  0
  194.2700  172.7330  141.1810 N   0  0  0  0  0  2  0  0  0  0  0  0
  194.4650  171.5060  141.9340 C   0  0  0  0  0  2  0  0  0  0  0  0
  195.2530  171.7950  143.1990 C   0  0  0  0  0  2  0  0  0  0  0  0
  195.5000  170.6090  143.8920 O   0  0  0  0  0  0  0  0  0  0  0  0
  194.6970  170.6930  145.0310 C   0  0  0  0  0  2  0  0  0  0  0  0
  195.3610  169.9760  146.1930 C   0  0  0  0  0  2  0  0  0  0  0  0
  194.6000  168.7120  146.5360 C   0  0  0  0  0  1  0  0  0  0  0  0
  195.7100  175.1300  145.8930 O   0  0  0  0  0  0  0  0  0  0  0  0
  196.3970  173.8910  145.9790 C   0  0  0  0  0  1  0  0  0  0  0  0
  188.4860  175.4780  146.5530 C   0  0  0  0  0  2  0  0  0  0  0  0
  187.9870  176.8990  146.7260 C   0  0  0  0  0  2  0  0  0  0  0  0
  186.5350  176.9040  146.7270 N   0  0  0  0  0  2  0  0  0  0  0  0
  186.2900  178.8680  147.9500 O   0  0  0  0  0  1  0  0  0  0  0  0
  186.1100  178.2910  146.6920 C   0  0  2  0  0  3  0  0  0  0  0  0
  184.3560  178.3710  146.2350 S   0  0  0  0  0  0  0  0  0  0  0  0
  184.7670  179.4070  144.4220 S   0  0  0  0  0  0  0  0  0  0  0  0
  184.8920  177.8600  143.4800 C   0  0  0  0  0  2  0  0  0  0  0  0
  187.2600  178.2020  143.5350 O   0  0  0  0  0  0  0  0  0  0  0  0
  187.8140  176.4790  141.8900 O   0  0  0  0  0  0  0  0  0  0  0  0
  188.7490  176.5620  142.8920 C   0  0  2  0  0  3  0  0  0  0  0  0
  186.2120  177.8160  142.7390 C   0  0  2  0  0  0  0  0  0  0  0  0
  186.2860  178.4400  141.4860 O   0  0  0  0  0  1  0  0  0  0  0  0
  187.2660  176.8150  143.1640 C   0  0  1  0  0  0  0  0  0  0  0  0
  191.0000  177.5500  143.2680 C   0  0  0  0  0  1  0  0  0  0  0  0
  189.6520  177.7640  142.6110 C   0  0  0  0  0  2  0  0  0  0  0  0
  1 27  1  0  0  0  0
  1  7  1  0  0  0  0
  3  2  2  0  0  0  0
  4  8  1  0  0  0  0
  4  1  2  0  0  0  0
  5  8  1  0  0  0  0
  5  3  1  0  0  0  0
  6  2  1  0  0  0  0
  6  7  1  0  0  0  0
  8  6  2  0  0  0  0
 10  9  2  0  0  0  0
 10  4  1  0  0  0  0
 11 10  1  0  0  0  0
 12 11  1  0  0  0  0
 13 12  1  0  0  0  0
 14 15  1  0  0  0  0
 15 13  1  0  0  0  0
 16 15  1  0  0  0  0
 16 17  1  0  0  0  0
 17 18  1  0  0  0  0
 18 19  1  0  0  0  0
 19 20  1  0  0  0  0
 20 21  1  0  0  0  0
 21 22  1  0  0  0  0
 22 23  1  0  0  0  0
 23 24  1  0  0  0  0
 25 26  1  0  0  0  0
 25  3  1  0  0  0  0
 27 28  1  0  0  0  0
 28 29  1  0  0  0  0
 31 29  1  0  0  0  0
 31 30  1  1  0  0  0
 32 31  1  0  0  0  0
 33 32  1  0  0  0  0
 34 33  1  0  0  0  0
 36 37  1  0  0  0  0
 37 42  1  6  0  0  0
 37 40  1  0  0  0  0
 38 39  1  6  0  0  0
 38 40  1  0  0  0  0
 38 34  1  0  0  0  0
 38 35  1  0  0  0  0
 40 36  1  6  0  0  0
 40 35  1  0  0  0  0
 42 41  1  0  0  0  0
M  END
>  <MODEL>
2

>  <REMARK>
 VINA RESULT:      -5.1      2.489      5.763
  Name = 
  22 active torsions:
  status: ('A' for Active; 'I' for Inactive)
    1  A    between atoms: C_1  and  C_19
    2  A    between atoms: C_2  and  C_22
    3  A    between atoms: C_3  and  N_27
    4  A    between atoms: C_3  and  C_28
    5  A    between atoms: S_7  and  S_12
    6  A    between atoms: S_7  and  C_20
    7  A    between atoms: O_8  and  C_11
    8  A    between atoms: C_10  and  C_22
    9  A    between atoms: C_10  and  N_38
   10  A    between atoms: S_12  and  C_32
   11  A    between atoms: C_16  and  C_24
   12  A    between atoms: C_19  and  O_39
   13  A    between atoms: C_20  and  C_29
   14  A    between atoms: C_21  and  C_23
   15  A    between atoms: C_25  and  N_33
   16  A    between atoms: C_25  and  C_41
   17  A    between atoms: N_27  and  C_34
   18  A    between atoms: C_28  and  N_35
   19  A    between atoms: C_30  and  N_33
   20  A    between atoms: C_30  and  C_34
   21  A    between atoms: C_32  and  N_38
   22  A    between atoms: O_39  and  C_41
                            x       y       z     vdW  Elec       q    Type
                         _______ _______ _______ _____ _____    ______ ____

>  <TORSDO>
F 22

$$$$
=
 OpenBabel11042419213D

 42 45  0  0  1  0  0  0  0  0999 V2000
  186.8170  177.7980  144.7290 C   0  0  0  0  0  0  0  0  0  0  0  0
  183.5340  178.4230  142.8200 N   0  0  0  0  0  0  0  0  0  0  0  0
  183.8340  178.2880  141.5590 C   0  0  0  0  0  0  0  0  0  0  0  0
  186.9900  177.6700  143.3320 C   0  0  0  0  0  0  0  0  0  0  0  0
  185.2900  177.9280  141.2810 C   0  0  0  0  0  2  0  0  0  0  0  0
  184.7480  178.1620  143.4910 C   0  0  0  0  0  0  0  0  0  0  0  0
  185.1960  178.1930  145.1020 S   0  0  0  0  0  0  0  0  0  0  0  0
  185.7740  177.8820  142.6800 C   0  0  0  0  0  0  0  0  0  0  0  0
  188.8780  178.2730  142.0160 O   0  0  0  0  0  0  0  0  0  0  0  0
  188.2630  177.3670  142.6430 C   0  0  0  0  0  0  0  0  0  0  0  0
  188.8010  176.0410  142.6840 N   0  0  0  0  0  2  0  0  0  0  0  0
  190.0580  175.6850  142.0430 C   0  0  0  0  0  2  0  0  0  0  0  0
  190.1100  174.1860  141.8030 C   0  0  0  0  0  2  0  0  0  0  0  0
  188.4480  172.6660  141.9040 O   0  0  0  0  0  1  0  0  0  0  0  0
  189.1640  173.5160  142.6780 N   0  0  0  0  0  0  0  0  0  0  0  0
  189.9440  172.6900  143.5850 C   0  0  0  0  0  2  0  0  0  0  0  0
  191.3500  172.5020  143.0410 C   0  0  0  0  0  2  0  0  0  0  0  0
  191.6990  171.0930  143.0360 N   0  0  0  0  0  2  0  0  0  0  0  0
  192.4470  170.8400  144.2550 C   0  0  0  0  0  2  0  0  0  0  0  0
  193.3340  172.0300  144.5740 C   0  0  0  0  0  2  0  0  0  0  0  0
  194.2340  171.7000  145.5880 O   0  0  0  0  0  0  0  0  0  0  0  0
  195.0380  170.7020  145.0350 C   0  0  0  0  0  2  0  0  0  0  0  0
  196.2730  170.4900  145.8910 C   0  0  0  0  0  2  0  0  0  0  0  0
  197.4930  171.0770  145.2110 C   0  0  0  0  0  1  0  0  0  0  0  0
  182.8730  178.4670  140.5670 O   0  0  0  0  0  0  0  0  0  0  0  0
  181.5050  178.6850  140.8800 C   0  0  0  0  0  1  0  0  0  0  0  0
  187.8870  177.6850  145.7600 C   0  0  0  0  0  2  0  0  0  0  0  0
  187.8420  176.3130  146.4040 C   0  0  0  0  0  2  0  0  0  0  0  0
  188.8910  175.4820  145.8410 N   0  0  0  0  0  2  0  0  0  0  0  0
  188.6860  174.5010  147.9410 O   0  0  0  0  0  1  0  0  0  0  0  0
  189.5980  174.8720  146.9520 C   0  0  2  0  0  3  0  0  0  0  0  0
  190.7830  176.0630  147.6370 S   0  0  0  0  0  0  0  0  0  0  0  0
  192.4410  175.1120  146.7010 S   0  0  0  0  0  0  0  0  0  0  0  0
  192.7440  176.5390  145.6210 C   0  0  0  0  0  2  0  0  0  0  0  0
  194.6890  175.2100  145.1950 O   0  0  0  0  0  0  0  0  0  0  0  0
  195.3670  176.3800  143.1580 O   0  0  0  0  0  0  0  0  0  0  0  0
  195.6110  175.0300  143.0900 C   0  0  2  0  0  3  0  0  0  0  0  0
  194.1440  176.4600  145.0470 C   0  0  2  0  0  0  0  0  0  0  0  0
  195.0650  177.4490  145.4180 O   0  0  0  0  0  1  0  0  0  0  0  0
  194.4000  175.5820  143.8400 C   0  0  1  0  0  0  0  0  0  0  0  0
  197.9410  174.1700  142.9550 C   0  0  0  0  0  1  0  0  0  0  0  0
  196.8840  174.7300  143.8840 C   0  0  0  0  0  2  0  0  0  0  0  0
  1  7  1  0  0  0  0
  1 27  1  0  0  0  0
  2  6  1  0  0  0  0
  3  2  2  0  0  0  0
  4  1  2  0  0  0  0
  5  3  1  0  0  0  0
  5  8  1  0  0  0  0
  6  7  1  0  0  0  0
  8  4  1  0  0  0  0
  8  6  2  0  0  0  0
  9 10  2  0  0  0  0
 10 11  1  0  0  0  0
 10  4  1  0  0  0  0
 12 11  1  0  0  0  0
 13 12  1  0  0  0  0
 13 15  1  0  0  0  0
 14 15  1  0  0  0  0
 15 16  1  0  0  0  0
 17 16  1  0  0  0  0
 18 17  1  0  0  0  0
 18 19  1  0  0  0  0
 19 20  1  0  0  0  0
 20 21  1  0  0  0  0
 22 21  1  0  0  0  0
 22 23  1  0  0  0  0
 24 23  1  0  0  0  0
 25 26  1  0  0  0  0
 25  3  1  0  0  0  0
 27 28  1  0  0  0  0
 29 28  1  0  0  0  0
 29 31  1  0  0  0  0
 31 32  1  0  0  0  0
 31 30  1  1  0  0  0
 33 32  1  0  0  0  0
 34 33  1  0  0  0  0
 37 36  1  0  0  0  0
 37 40  1  0  0  0  0
 37 42  1  1  0  0  0
 38 35  1  0  0  0  0
 38 39  1  1  0  0  0
 38 34  1  0  0  0  0
 40 36  1  1  0  0  0
 40 38  1  0  0  0  0
 40 35  1  0  0  0  0
 41 42  1  0  0  0  0
M  END
>  <MODEL>
3

>  <REMARK>
 VINA RESULT:      -5.0      2.219      5.720
  Name = 
  22 active torsions:
  status: ('A' for Active; 'I' for Inactive)
    1  A    between atoms: C_1  and  C_19
    2  A    between atoms: C_2  and  C_22
    3  A    between atoms: C_3  and  N_27
    4  A    between atoms: C_3  and  C_28
    5  A    between atoms: S_7  and  S_12
    6  A    between atoms: S_7  and  C_20
    7  A    between atoms: O_8  and  C_11
    8  A    between atoms: C_10  and  C_22
    9  A    between atoms: C_10  and  N_38
   10  A    between atoms: S_12  and  C_32
   11  A    between atoms: C_16  and  C_24
   12  A    between atoms: C_19  and  O_39
   13  A    between atoms: C_20  and  C_29
   14  A    between atoms: C_21  and  C_23
   15  A    between atoms: C_25  and  N_33
   16  A    between atoms: C_25  and  C_41
   17  A    between atoms: N_27  and  C_34
   18  A    between atoms: C_28  and  N_35
   19  A    between atoms: C_30  and  N_33
   20  A    between atoms: C_30  and  C_34
   21  A    between atoms: C_32  and  N_38
   22  A    between atoms: O_39  and  C_41
                            x       y       z     vdW  Elec       q    Type
                         _______ _______ _______ _____ _____    ______ ____

>  <TORSDO>
F 22

$$$$
=
 OpenBabel11042419213D

 42 45  0  0  1  0  0  0  0  0999 V2000
  190.8420  176.1200  142.7590 C   0  0  0  0  0  0  0  0  0  0  0  0
  187.4360  177.9110  142.6800 N   0  0  0  0  0  0  0  0  0  0  0  0
  186.5590  176.9790  142.4370 C   0  0  0  0  0  0  0  0  0  0  0  0
  189.7820  175.2190  142.5150 C   0  0  0  0  0  0  0  0  0  0  0  0
  187.1370  175.5740  142.2970 C   0  0  0  0  0  2  0  0  0  0  0  0
  188.6660  177.2200  142.7280 C   0  0  0  0  0  0  0  0  0  0  0  0
  190.2510  177.7140  142.9350 S   0  0  0  0  0  0  0  0  0  0  0  0
  188.5650  175.9040  142.5160 C   0  0  0  0  0  0  0  0  0  0  0  0
  189.9970  172.9690  143.2560 O   0  0  0  0  0  0  0  0  0  0  0  0
  189.9190  173.7660  142.2810 C   0  0  0  0  0  0  0  0  0  0  0  0
  189.9670  173.2580  140.9430 N   0  0  0  0  0  2  0  0  0  0  0  0
  190.0820  171.8370  140.6470 C   0  0  0  0  0  2  0  0  0  0  0  0
  191.4910  171.5180  140.1820 C   0  0  0  0  0  2  0  0  0  0  0  0
  191.9170  170.0890  141.8730 O   0  0  0  0  0  1  0  0  0  0  0  0
  192.3400  171.2560  141.3310 N   0  0  0  0  0  0  0  0  0  0  0  0
  193.6780  171.0100  140.8160 C   0  0  0  0  0  2  0  0  0  0  0  0
  194.1110  172.1590  139.9210 C   0  0  0  0  0  2  0  0  0  0  0  0
  194.2980  173.3630  140.7100 N   0  0  0  0  0  2  0  0  0  0  0  0
  194.0330  174.4880  139.8300 C   0  0  0  0  0  2  0  0  0  0  0  0
  195.3420  175.0960  139.3590 C   0  0  0  0  0  2  0  0  0  0  0  0
  196.3140  174.9720  140.3520 O   0  0  0  0  0  0  0  0  0  0  0  0
  196.5160  176.2730  140.8130 C   0  0  0  0  0  2  0  0  0  0  0  0
  196.1610  176.3670  142.2860 C   0  0  0  0  0  2  0  0  0  0  0  0
  197.3710  176.0490  143.1400 C   0  0  0  0  0  1  0  0  0  0  0  0
  185.2030  177.2780  142.3210 O   0  0  0  0  0  0  0  0  0  0  0  0
  184.7380  178.3290  141.4870 C   0  0  0  0  0  1  0  0  0  0  0  0
  192.2930  175.7810  142.7920 C   0  0  0  0  0  2  0  0  0  0  0  0
  192.8960  176.2190  144.1110 C   0  0  0  0  0  2  0  0  0  0  0  0
  192.2780  175.4770  145.1950 N   0  0  0  0  0  2  0  0  0  0  0  0
  193.6260  176.3720  146.8670 O   0  0  0  0  0  1  0  0  0  0  0  0
  192.3210  176.3220  146.3740 C   0  0  2  0  0  3  0  0  0  0  0  0
  191.2200  175.6380  147.6440 S   0  0  0  0  0  0  0  0  0  0  0  0
  189.7760  175.0200  146.2080 S   0  0  0  0  0  0  0  0  0  0  0  0
  188.3940  175.4350  147.3100 C   0  0  0  0  0  2  0  0  0  0  0  0
  186.5150  176.3140  146.1160 O   0  0  0  0  0  0  0  0  0  0  0  0
  186.3980  178.4330  147.3310 O   0  0  0  0  0  0  0  0  0  0  0  0
  185.1540  177.9480  147.0070 C   0  0  2  0  0  3  0  0  0  0  0  0
  187.6650  176.6540  146.7830 C   0  0  2  0  0  0  0  0  0  0  0  0
  188.4000  177.5970  146.0530 O   0  0  0  0  0  1  0  0  0  0  0  0
  186.3080  177.0090  147.3550 C   0  0  1  0  0  0  0  0  0  0  0  0
  185.4560  179.6180  145.1880 C   0  0  0  0  0  1  0  0  0  0  0  0
  184.8860  178.2570  145.5330 C   0  0  0  0  0  2  0  0  0  0  0  0
  1 27  1  0  0  0  0
  1  7  1  0  0  0  0
  2  6  1  0  0  0  0
  3  2  2  0  0  0  0
  4  8  1  0  0  0  0
  4  1  2  0  0  0  0
  5  3  1  0  0  0  0
  5  8  1  0  0  0  0
  6  7  1  0  0  0  0
  8  6  2  0  0  0  0
 10  4  1  0  0  0  0
 10  9  2  0  0  0  0
 11 10  1  0  0  0  0
 12 11  1  0  0  0  0
 13 12  1  0  0  0  0
 13 15  1  0  0  0  0
 15 14  1  0  0  0  0
 16 15  1  0  0  0  0
 17 18  1  0  0  0  0
 17 16  1  0  0  0  0
 19 18  1  0  0  0  0
 20 19  1  0  0  0  0
 20 21  1  0  0  0  0
 21 22  1  0  0  0  0
 22 23  1  0  0  0  0
 23 24  1  0  0  0  0
 25  3  1  0  0  0  0
 26 25  1  0  0  0  0
 27 28  1  0  0  0  0
 28 29  1  0  0  0  0
 29 31  1  0  0  0  0
 31 30  1  1  0  0  0
 31 32  1  0  0  0  0
 33 34  1  0  0  0  0
 33 32  1  0  0  0  0
 35 38  1  0  0  0  0
 36 40  1  0  0  0  0
 37 42  1  6  0  0  0
 37 36  1  0  0  0  0
 37 40  1  0  0  0  0
 38 39  1  6  0  0  0
 38 34  1  0  0  0  0
 38 40  1  0  0  0  0
 40 35  1  6  0  0  0
 41 42  1  0  0  0  0
M  END
>  <MODEL>
4

>  <REMARK>
 VINA RESULT:      -5.0      1.659      2.096
  Name = 
  22 active torsions:
  status: ('A' for Active; 'I' for Inactive)
    1  A    between atoms: C_1  and  C_19
    2  A    between atoms: C_2  and  C_22
    3  A    between atoms: C_3  and  N_27
    4  A    between atoms: C_3  and  C_28
    5  A    between atoms: S_7  and  S_12
    6  A    between atoms: S_7  and  C_20
    7  A    between atoms: O_8  and  C_11
    8  A    between atoms: C_10  and  C_22
    9  A    between atoms: C_10  and  N_38
   10  A    between atoms: S_12  and  C_32
   11  A    between atoms: C_16  and  C_24
   12  A    between atoms: C_19  and  O_39
   13  A    between atoms: C_20  and  C_29
   14  A    between atoms: C_21  and  C_23
   15  A    between atoms: C_25  and  N_33
   16  A    between atoms: C_25  and  C_41
   17  A    between atoms: N_27  and  C_34
   18  A    between atoms: C_28  and  N_35
   19  A    between atoms: C_30  and  N_33
   20  A    between atoms: C_30  and  C_34
   21  A    between atoms: C_32  and  N_38
   22  A    between atoms: O_39  and  C_41
                            x       y       z     vdW  Elec       q    Type
                         _______ _______ _______ _____ _____    ______ ____

>  <TORSDO>
F 22

$$$$
=
 OpenBabel11042419213D

 42 45  0  0  1  0  0  0  0  0999 V2000
  189.7300  174.1610  143.0170 C   0  0  0  0  0  0  0  0  0  0  0  0
  192.3290  174.5070  145.8340 N   0  0  0  0  0  0  0  0  0  0  0  0
  192.5210  175.7880  145.9740 C   0  0  0  0  0  0  0  0  0  0  0  0
  190.0290  175.5140  143.2900 C   0  0  0  0  0  0  0  0  0  0  0  0
  191.6860  176.6670  145.0490 C   0  0  0  0  0  2  0  0  0  0  0  0
  191.3550  174.4160  144.8160 C   0  0  0  0  0  0  0  0  0  0  0  0
  190.6320  173.1260  144.0350 S   0  0  0  0  0  0  0  0  0  0  0  0
  190.9560  175.5960  144.3310 C   0  0  0  0  0  0  0  0  0  0  0  0
  190.1620  177.7200  142.4090 O   0  0  0  0  0  0  0  0  0  0  0  0
  189.4630  176.6840  142.5850 C   0  0  0  0  0  0  0  0  0  0  0  0
  188.1160  176.6450  142.1020 N   0  0  0  0  0  2  0  0  0  0  0  0
  187.5080  177.7560  141.3840 C   0  0  0  0  0  2  0  0  0  0  0  0
  186.0890  177.3980  140.9820 C   0  0  0  0  0  2  0  0  0  0  0  0
  184.0800  178.3840  140.7050 O   0  0  0  0  0  1  0  0  0  0  0  0
  185.1640  178.3820  141.5180 N   0  0  0  0  0  0  0  0  0  0  0  0
  184.7130  177.8780  142.8050 C   0  0  0  0  0  2  0  0  0  0  0  0
  183.8550  178.9200  143.5010 C   0  0  0  0  0  2  0  0  0  0  0  0
  183.9820  178.7900  144.9420 N   0  0  0  0  0  2  0  0  0  0  0  0
  185.1000  177.8950  145.1870 C   0  0  0  0  0  2  0  0  0  0  0  0
  184.9130  177.1850  146.5160 C   0  0  0  0  0  2  0  0  0  0  0  0
  186.0740  176.4900  146.8560 O   0  0  0  0  0  0  0  0  0  0  0  0
  187.0660  177.0430  146.0450 C   0  0  0  0  0  2  0  0  0  0  0  0
  188.4350  176.8000  146.6540 C   0  0  0  0  0  2  0  0  0  0  0  0
  188.5530  175.3660  147.1280 C   0  0  0  0  0  1  0  0  0  0  0  0
  193.4270  176.2830  146.9100 O   0  0  0  0  0  0  0  0  0  0  0  0
  194.4870  177.1510  146.5380 C   0  0  0  0  0  1  0  0  0  0  0  0
  188.8170  173.6620  141.9490 C   0  0  0  0  0  2  0  0  0  0  0  0
  189.4060  172.4230  141.3040 C   0  0  0  0  0  2  0  0  0  0  0  0
  189.1980  172.4820  139.8680 N   0  0  0  0  0  2  0  0  0  0  0  0
  189.6990  173.9990  138.1760 O   0  0  0  0  0  1  0  0  0  0  0  0
  190.1980  173.3850  139.3250 C   0  0  2  0  0  3  0  0  0  0  0  0
  191.6940  172.4450  138.9100 S   0  0  0  0  0  0  0  0  0  0  0  0
  192.9820  174.0330  139.5020 S   0  0  0  0  0  0  0  0  0  0  0  0
  192.9410  173.5160  141.2420 C   0  0  0  0  0  2  0  0  0  0  0  0
  194.2980  173.6800  143.2070 O   0  0  0  0  0  0  0  0  0  0  0  0
  196.1130  174.9490  142.1690 O   0  0  0  0  0  0  0  0  0  0  0  0
  196.5720  174.0460  143.0970 C   0  0  2  0  0  3  0  0  0  0  0  0
  193.9570  174.3100  142.0370 C   0  0  2  0  0  0  0  0  0  0  0  0
  193.7020  175.6690  142.2620 O   0  0  0  0  0  1  0  0  0  0  0  0
  195.3490  173.7450  142.2310 C   0  0  1  0  0  0  0  0  0  0  0  0
  197.1860  173.8730  145.5010 C   0  0  0  0  0  1  0  0  0  0  0  0
  196.3500  174.6330  144.4920 C   0  0  0  0  0  2  0  0  0  0  0  0
  1  4  2  0  0  0  0
  1  7  1  0  0  0  0
  2  3  2  0  0  0  0
  3 25  1  0  0  0  0
  4  8  1  0  0  0  0
  5  3  1  0  0  0  0
  6  2  1  0  0  0  0
  7  6  1  0  0  0  0
  8  6  2  0  0  0  0
  8  5  1  0  0  0  0
  9 10  2  0  0  0  0
 10  4  1  0  0  0  0
 11 10  1  0  0  0  0
 12 11  1  0  0  0  0
 13 12  1  0  0  0  0
 13 15  1  0  0  0  0
 14 15  1  0  0  0  0
 15 16  1  0  0  0  0
 16 17  1  0  0  0  0
 17 18  1  0  0  0  0
 18 19  1  0  0  0  0
 19 20  1  0  0  0  0
 20 21  1  0  0  0  0
 22 23  1  0  0  0  0
 22 21  1  0  0  0  0
 23 24  1  0  0  0  0
 26 25  1  0  0  0  0
 27  1  1  0  0  0  0
 28 27  1  0  0  0  0
 29 28  1  0  0  0  0
 31 30  1  6  0  0  0
 31 29  1  0  0  0  0
 32 31  1  0  0  0  0
 32 33  1  0  0  0  0
 33 34  1  0  0  0  0
 34 38  1  0  0  0  0
 36 37  1  0  0  0  0
 37 42  1  1  0  0  0
 38 40  1  0  0  0  0
 38 39  1  1  0  0  0
 38 35  1  0  0  0  0
 40 36  1  1  0  0  0
 40 37  1  0  0  0  0
 40 35  1  0  0  0  0
 42 41  1  0  0  0  0
M  END
>  <MODEL>
5

>  <REMARK>
 VINA RESULT:      -5.0      2.487      8.822
  Name = 
  22 active torsions:
  status: ('A' for Active; 'I' for Inactive)
    1  A    between atoms: C_1  and  C_19
    2  A    between atoms: C_2  and  C_22
    3  A    between atoms: C_3  and  N_27
    4  A    between atoms: C_3  and  C_28
    5  A    between atoms: S_7  and  S_12
    6  A    between atoms: S_7  and  C_20
    7  A    between atoms: O_8  and  C_11
    8  A    between atoms: C_10  and  C_22
    9  A    between atoms: C_10  and  N_38
   10  A    between atoms: S_12  and  C_32
   11  A    between atoms: C_16  and  C_24
   12  A    between atoms: C_19  and  O_39
   13  A    between atoms: C_20  and  C_29
   14  A    between atoms: C_21  and  C_23
   15  A    between atoms: C_25  and  N_33
   16  A    between atoms: C_25  and  C_41
   17  A    between atoms: N_27  and  C_34
   18  A    between atoms: C_28  and  N_35
   19  A    between atoms: C_30  and  N_33
   20  A    between atoms: C_30  and  C_34
   21  A    between atoms: C_32  and  N_38
   22  A    between atoms: O_39  and  C_41
                            x       y       z     vdW  Elec       q    Type
                         _______ _______ _______ _____ _____    ______ ____

>  <TORSDO>
F 22

$$$$
=
 OpenBabel11042419213D

 42 45  0  0  1  0  0  0  0  0999 V2000
  189.8130  177.2000  142.6700 C   0  0  0  0  0  0  0  0  0  0  0  0
  192.7880  176.6680  145.0540 N   0  0  0  0  0  0  0  0  0  0  0  0
  192.9730  175.3790  145.0950 C   0  0  0  0  0  0  0  0  0  0  0  0
  190.1410  175.8320  142.8020 C   0  0  0  0  0  0  0  0  0  0  0  0
  192.0240  174.5650  144.2220 C   0  0  0  0  0  2  0  0  0  0  0  0
  191.7120  176.8300  144.1550 C   0  0  0  0  0  0  0  0  0  0  0  0
  190.8540  178.1640  143.6230 S   0  0  0  0  0  0  0  0  0  0  0  0
  191.2360  175.6850  143.6560 C   0  0  0  0  0  0  0  0  0  0  0  0
  188.6010  174.0190  142.7990 O   0  0  0  0  0  0  0  0  0  0  0  0
  189.4360  174.7070  142.1510 C   0  0  0  0  0  0  0  0  0  0  0  0
  189.7020  174.3950  140.7790 N   0  0  0  0  0  2  0  0  0  0  0  0
  189.0270  173.3140  140.0760 C   0  0  0  0  0  2  0  0  0  0  0  0
  190.0450  172.2990  139.5880 C   0  0  0  0  0  2  0  0  0  0  0  0
  190.5760  170.1230  139.8500 O   0  0  0  0  0  1  0  0  0  0  0  0
  190.1430  171.2060  140.5390 N   0  0  0  0  0  0  0  0  0  0  0  0
  191.2060  171.5540  141.4700 C   0  0  0  0  0  2  0  0  0  0  0  0
  192.0620  170.3340  141.7630 C   0  0  0  0  0  2  0  0  0  0  0  0
  192.6650  170.4520  143.0790 N   0  0  0  0  0  2  0  0  0  0  0  0
  193.9910  171.0120  142.8850 C   0  0  0  0  0  2  0  0  0  0  0  0
  194.4780  171.6460  144.1760 C   0  0  0  0  0  2  0  0  0  0  0  0
  193.8750  171.0280  145.2720 O   0  0  0  0  0  0  0  0  0  0  0  0
  194.8900  170.2610  145.8460 C   0  0  0  0  0  2  0  0  0  0  0  0
  194.3740  168.8720  146.1750 C   0  0  0  0  0  2  0  0  0  0  0  0
  194.8660  168.4370  147.5400 C   0  0  0  0  0  1  0  0  0  0  0  0
  193.9740  174.8200  145.8880 O   0  0  0  0  0  0  0  0  0  0  0  0
  195.3210  175.2630  145.8140 C   0  0  0  0  0  1  0  0  0  0  0  0
  188.6800  177.7590  141.8790 C   0  0  0  0  0  2  0  0  0  0  0  0
  187.4930  178.0140  142.7860 C   0  0  0  0  0  2  0  0  0  0  0  0
  186.3320  178.3470  141.9790 N   0  0  0  0  0  2  0  0  0  0  0  0
  184.0080  178.3380  142.0810 O   0  0  0  0  0  1  0  0  0  0  0  0
  185.1720  178.2820  142.8490 C   0  0  2  0  0  3  0  0  0  0  0  0
  185.2050  179.6840  144.0010 S   0  0  0  0  0  0  0  0  0  0  0  0
  184.2330  178.5790  145.5390 S   0  0  0  0  0  0  0  0  0  0  0  0
  185.4610  179.0830  146.7780 C   0  0  0  0  0  2  0  0  0  0  0  0
  186.6540  177.1680  145.9780 O   0  0  0  0  0  0  0  0  0  0  0  0
  188.4900  177.3100  147.5880 O   0  0  0  0  0  0  0  0  0  0  0  0
  188.9130  176.8910  146.3500 C   0  0  2  0  0  3  0  0  0  0  0  0
  186.3790  177.9190  147.0920 C   0  0  2  0  0  0  0  0  0  0  0  0
  186.0510  177.0950  148.1760 O   0  0  0  0  0  1  0  0  0  0  0  0
  187.7740  177.8980  146.5020 C   0  0  1  0  0  0  0  0  0  0  0  0
  189.3050  174.6000  147.2370 C   0  0  0  0  0  1  0  0  0  0  0  0
  188.5600  175.4100  146.1960 C   0  0  0  0  0  2  0  0  0  0  0  0
  1  4  2  0  0  0  0
  1  7  1  0  0  0  0
  2  3  2  0  0  0  0
  3 25  1  0  0  0  0
  4  8  1  0  0  0  0
  5  3  1  0  0  0  0
  6  2  1  0  0  0  0
  7  6  1  0  0  0  0
  8  6  2  0  0  0  0
  8  5  1  0  0  0  0
 10  9  2  0  0  0  0
 10  4  1  0  0  0  0
 11 10  1  0  0  0  0
 12 11  1  0  0  0  0
 13 12  1  0  0  0  0
 13 15  1  0  0  0  0
 14 15  1  0  0  0  0
 15 16  1  0  0  0  0
 16 17  1  0  0  0  0
 17 18  1  0  0  0  0
 19 18  1  0  0  0  0
 19 20  1  0  0  0  0
 20 21  1  0  0  0  0
 21 22  1  0  0  0  0
 22 23  1  0  0  0  0
 23 24  1  0  0  0  0
 26 25  1  0  0  0  0
 27  1  1  0  0  0  0
 27 28  1  0  0  0  0
 29 28  1  0  0  0  0
 29 31  1  0  0  0  0
 31 30  1  6  0  0  0
 31 32  1  0  0  0  0
 32 33  1  0  0  0  0
 33 34  1  0  0  0  0
 34 38  1  0  0  0  0
 35 38  1  0  0  0  0
 37 42  1  1  0  0  0
 37 40  1  0  0  0  0
 37 36  1  0  0  0  0
 38 39  1  1  0  0  0
 40 35  1  1  0  0  0
 40 38  1  0  0  0  0
 40 36  1  0  0  0  0
 42 41  1  0  0  0  0
M  END
>  <MODEL>
6

>  <REMARK>
 VINA RESULT:      -5.0      2.204      5.317
  Name = 
  22 active torsions:
  status: ('A' for Active; 'I' for Inactive)
    1  A    between atoms: C_1  and  C_19
    2  A    between atoms: C_2  and  C_22
    3  A    between atoms: C_3  and  N_27
    4  A    between atoms: C_3  and  C_28
    5  A    between atoms: S_7  and  S_12
    6  A    between atoms: S_7  and  C_20
    7  A    between atoms: O_8  and  C_11
    8  A    between atoms: C_10  and  C_22
    9  A    between atoms: C_10  and  N_38
   10  A    between atoms: S_12  and  C_32
   11  A    between atoms: C_16  and  C_24
   12  A    between atoms: C_19  and  O_39
   13  A    between atoms: C_20  and  C_29
   14  A    between atoms: C_21  and  C_23
   15  A    between atoms: C_25  and  N_33
   16  A    between atoms: C_25  and  C_41
   17  A    between atoms: N_27  and  C_34
   18  A    between atoms: C_28  and  N_35
   19  A    between atoms: C_30  and  N_33
   20  A    between atoms: C_30  and  C_34
   21  A    between atoms: C_32  and  N_38
   22  A    between atoms: O_39  and  C_41
                            x       y       z     vdW  Elec       q    Type
                         _______ _______ _______ _____ _____    ______ ____

>  <TORSDO>
F 22

$$$$
=
 OpenBabel11042419213D

 42 45  0  0  1  0  0  0  0  0999 V2000
  188.8150  176.6720  142.1140 C   0  0  0  0  0  0  0  0  0  0  0  0
  191.9860  177.4750  144.1420 N   0  0  0  0  0  0  0  0  0  0  0  0
  192.5760  176.3290  144.3310 C   0  0  0  0  0  0  0  0  0  0  0  0
  189.5710  175.5100  142.3860 C   0  0  0  0  0  0  0  0  0  0  0  0
  191.8690  175.1310  143.7060 C   0  0  0  0  0  2  0  0  0  0  0  0
  190.8460  177.1500  143.3760 C   0  0  0  0  0  0  0  0  0  0  0  0
  189.5670  178.0530  142.7850 S   0  0  0  0  0  0  0  0  0  0  0  0
  190.7210  175.8470  143.1020 C   0  0  0  0  0  0  0  0  0  0  0  0
  188.8550  173.2920  142.8590 O   0  0  0  0  0  0  0  0  0  0  0  0
  189.2110  174.1320  141.9880 C   0  0  0  0  0  0  0  0  0  0  0  0
  189.2700  173.7470  140.6110 N   0  0  0  0  0  2  0  0  0  0  0  0
  188.9090  172.4130  140.1540 C   0  0  0  0  0  2  0  0  0  0  0  0
  190.0810  171.7820  139.4230 C   0  0  0  0  0  2  0  0  0  0  0  0
  191.1400  169.9730  140.2550 O   0  0  0  0  0  1  0  0  0  0  0  0
  191.0680  171.3200  140.3830 N   0  0  0  0  0  0  0  0  0  0  0  0
  192.3530  171.8450  139.9500 C   0  0  0  0  0  2  0  0  0  0  0  0
  192.7660  173.0080  140.8350 C   0  0  0  0  0  2  0  0  0  0  0  0
  192.9540  174.2030  140.0320 N   0  0  0  0  0  2  0  0  0  0  0  0
  193.9310  175.0260  140.7240 C   0  0  0  0  0  2  0  0  0  0  0  0
  194.9600  174.1440  141.4080 C   0  0  0  0  0  2  0  0  0  0  0  0
  195.3800  174.7340  142.6010 O   0  0  0  0  0  0  0  0  0  0  0  0
  195.9330  173.6850  143.3380 C   0  0  0  0  0  2  0  0  0  0  0  0
  194.8440  172.9510  144.1000 C   0  0  0  0  0  2  0  0  0  0  0  0
  195.2990  172.6570  145.5150 C   0  0  0  0  0  1  0  0  0  0  0  0
  193.7640  176.2410  145.0550 O   0  0  0  0  0  0  0  0  0  0  0  0
  193.8280  176.5860  146.4310 C   0  0  0  0  0  1  0  0  0  0  0  0
  187.5020  176.7210  141.4090 C   0  0  0  0  0  2  0  0  0  0  0  0
  186.3760  176.8040  142.4190 C   0  0  0  0  0  2  0  0  0  0  0  0
  185.6870  178.0730  142.2710 N   0  0  0  0  0  2  0  0  0  0  0  0
  183.3690  178.1940  142.4340 O   0  0  0  0  0  1  0  0  0  0  0  0
  184.5470  178.0510  143.1690 C   0  0  2  0  0  3  0  0  0  0  0  0
  184.6890  179.4170  144.3550 S   0  0  0  0  0  0  0  0  0  0  0  0
  184.3180  178.1460  146.0220 S   0  0  0  0  0  0  0  0  0  0  0  0
  185.4970  179.0490  147.0670 C   0  0  0  0  0  2  0  0  0  0  0  0
  186.5060  176.8830  147.1930 O   0  0  0  0  0  0  0  0  0  0  0  0
  188.6720  177.5470  146.2700 O   0  0  0  0  0  0  0  0  0  0  0  0
  188.2970  176.2880  145.8680 C   0  0  2  0  0  3  0  0  0  0  0  0
  186.7590  178.2300  147.2430 C   0  0  2  0  0  0  0  0  0  0  0  0
  187.5990  178.5370  148.3220 O   0  0  0  0  0  1  0  0  0  0  0  0
  187.2650  177.3930  146.0870 C   0  0  1  0  0  0  0  0  0  0  0  0
  189.5510  174.2520  146.5530 C   0  0  0  0  0  1  0  0  0  0  0  0
  188.5730  175.3130  147.0140 C   0  0  0  0  0  2  0  0  0  0  0  0
  1  4  2  0  0  0  0
  1  7  1  0  0  0  0
  2  3  2  0  0  0  0
  3 25  1  0  0  0  0
  4  8  1  0  0  0  0
  5  3  1  0  0  0  0
  6  2  1  0  0  0  0
  7  6  1  0  0  0  0
  8  6  2  0  0  0  0
  8  5  1  0  0  0  0
 10  4  1  0  0  0  0
 10  9  2  0  0  0  0
 11 10  1  0  0  0  0
 12 11  1  0  0  0  0
 13 12  1  0  0  0  0
 13 15  1  0  0  0  0
 14 15  1  0  0  0  0
 16 15  1  0  0  0  0
 16 17  1  0  0  0  0
 18 19  1  0  0  0  0
 18 17  1  0  0  0  0
 19 20  1  0  0  0  0
 20 21  1  0  0  0  0
 21 22  1  0  0  0  0
 22 23  1  0  0  0  0
 23 24  1  0  0  0  0
 25 26  1  0  0  0  0
 27  1  1  0  0  0  0
 27 28  1  0  0  0  0
 29 28  1  0  0  0  0
 29 31  1  0  0  0  0
 31 30  1  6  0  0  0
 31 32  1  0  0  0  0
 32 33  1  0  0  0  0
 33 34  1  0  0  0  0
 34 38  1  0  0  0  0
 35 38  1  0  0  0  0
 37 40  1  0  0  0  0
 37 36  1  0  0  0  0
 37 42  1  1  0  0  0
 38 39  1  1  0  0  0
 40 36  1  1  0  0  0
 40 35  1  0  0  0  0
 40 38  1  0  0  0  0
 41 42  1  0  0  0  0
M  END
>  <MODEL>
7

>  <REMARK>
 VINA RESULT:      -5.0      2.231      5.048
  Name = 
  22 active torsions:
  status: ('A' for Active; 'I' for Inactive)
    1  A    between atoms: C_1  and  C_19
    2  A    between atoms: C_2  and  C_22
    3  A    between atoms: C_3  and  N_27
    4  A    between atoms: C_3  and  C_28
    5  A    between atoms: S_7  and  S_12
    6  A    between atoms: S_7  and  C_20
    7  A    between atoms: O_8  and  C_11
    8  A    between atoms: C_10  and  C_22
    9  A    between atoms: C_10  and  N_38
   10  A    between atoms: S_12  and  C_32
   11  A    between atoms: C_16  and  C_24
   12  A    between atoms: C_19  and  O_39
   13  A    between atoms: C_20  and  C_29
   14  A    between atoms: C_21  and  C_23
   15  A    between atoms: C_25  and  N_33
   16  A    between atoms: C_25  and  C_41
   17  A    between atoms: N_27  and  C_34
   18  A    between atoms: C_28  and  N_35
   19  A    between atoms: C_30  and  N_33
   20  A    between atoms: C_30  and  C_34
   21  A    between atoms: C_32  and  N_38
   22  A    between atoms: O_39  and  C_41
                            x       y       z     vdW  Elec       q    Type
                         _______ _______ _______ _____ _____    ______ ____

>  <TORSDO>
F 22

$$$$
=
 OpenBabel11042419213D

 42 45  0  0  1  0  0  0  0  0999 V2000
  190.5610  171.7340  141.7970 C   0  0  0  0  0  0  0  0  0  0  0  0
  191.3580  170.5130  138.2350 N   0  0  0  0  0  0  0  0  0  0  0  0
  190.4720  171.0810  137.4670 C   0  0  0  0  0  0  0  0  0  0  0  0
  189.6780  172.2870  140.8440 C   0  0  0  0  0  0  0  0  0  0  0  0
  189.4920  172.0000  138.1880 C   0  0  0  0  0  2  0  0  0  0  0  0
  191.0560  171.0000  139.5250 C   0  0  0  0  0  0  0  0  0  0  0  0
  191.6930  170.6990  141.0420 S   0  0  0  0  0  0  0  0  0  0  0  0
  190.0140  171.8380  139.5650 C   0  0  0  0  0  0  0  0  0  0  0  0
  187.5160  172.7690  141.7110 O   0  0  0  0  0  0  0  0  0  0  0  0
  188.5520  173.2000  141.1360 C   0  0  0  0  0  0  0  0  0  0  0  0
  188.6350  174.5800  140.7620 N   0  0  0  0  0  2  0  0  0  0  0  0
  187.5700  175.5320  141.0400 C   0  0  0  0  0  2  0  0  0  0  0  0
  188.0290  176.5330  142.0850 C   0  0  0  0  0  2  0  0  0  0  0  0
  187.0090  177.7630  140.4950 O   0  0  0  0  0  1  0  0  0  0  0  0
  187.7020  177.8800  141.6530 N   0  0  0  0  0  0  0  0  0  0  0  0
  186.7750  178.4220  142.6350 C   0  0  0  0  0  2  0  0  0  0  0  0
  185.4120  177.7680  142.4820 C   0  0  0  0  0  2  0  0  0  0  0  0
  184.3790  178.6390  143.0130 N   0  0  0  0  0  2  0  0  0  0  0  0
  184.9730  179.3730  144.1170 C   0  0  0  0  0  2  0  0  0  0  0  0
  184.2300  179.0620  145.4040 C   0  0  0  0  0  2  0  0  0  0  0  0
  185.0920  179.1800  146.4960 O   0  0  0  0  0  0  0  0  0  0  0  0
  184.9520  177.9750  147.1870 C   0  0  0  0  0  2  0  0  0  0  0  0
  186.2930  177.2740  147.2940 C   0  0  0  0  0  2  0  0  0  0  0  0
  186.6140  176.5500  146.0020 C   0  0  0  0  0  1  0  0  0  0  0  0
  190.4510  170.8450  136.0940 O   0  0  0  0  0  0  0  0  0  0  0  0
  189.5530  171.5260  135.2310 C   0  0  0  0  0  1  0  0  0  0  0  0
  190.5030  171.9410  143.2720 C   0  0  0  0  0  2  0  0  0  0  0  0
  191.7610  171.3990  143.9200 C   0  0  0  0  0  2  0  0  0  0  0  0
  192.3910  172.4470  144.7040 N   0  0  0  0  0  2  0  0  0  0  0  0
  194.5080  172.9650  145.5180 O   0  0  0  0  0  1  0  0  0  0  0  0
  193.8200  172.3650  144.4630 C   0  0  2  0  0  3  0  0  0  0  0  0
  194.2190  173.2220  142.9140 S   0  0  0  0  0  0  0  0  0  0  0  0
  195.3470  174.7250  143.9150 S   0  0  0  0  0  0  0  0  0  0  0  0
  194.2070  176.0360  143.3880 C   0  0  0  0  0  2  0  0  0  0  0  0
  192.2770  177.2550  144.1090 O   0  0  0  0  0  0  0  0  0  0  0  0
  191.2820  175.4330  145.4030 O   0  0  0  0  0  0  0  0  0  0  0  0
  190.3350  176.1970  144.7650 C   0  0  2  0  0  3  0  0  0  0  0  0
  193.1510  176.2550  144.4530 C   0  0  2  0  0  0  0  0  0  0  0  0
  193.5750  176.4030  145.7800 O   0  0  0  0  0  1  0  0  0  0  0  0
  191.7050  175.9380  144.1370 C   0  0  1  0  0  0  0  0  0  0  0  0
  190.1250  177.1630  147.0470 C   0  0  0  0  0  1  0  0  0  0  0  0
  190.1340  177.4840  145.5660 C   0  0  0  0  0  2  0  0  0  0  0  0
  1 27  1  0  0  0  0
  2  6  1  0  0  0  0
  3  5  1  0  0  0  0
  3  2  2  0  0  0  0
  4 10  1  0  0  0  0
  4  1  2  0  0  0  0
  5  8  1  0  0  0  0
  6  8  2  0  0  0  0
  6  7  1  0  0  0  0
  7  1  1  0  0  0  0
  8  4  1  0  0  0  0
 10  9  2  0  0  0  0
 11 12  1  0  0  0  0
 11 10  1  0  0  0  0
 12 13  1  0  0  0  0
 14 15  1  0  0  0  0
 15 13  1  0  0  0  0
 15 16  1  0  0  0  0
 17 16  1  0  0  0  0
 17 18  1  0  0  0  0
 18 19  1  0  0  0  0
 19 20  1  0  0  0  0
 20 21  1  0  0  0  0
 21 22  1  0  0  0  0
 22 23  1  0  0  0  0
 24 23  1  0  0  0  0
 25  3  1  0  0  0  0
 26 25  1  0  0  0  0
 27 28  1  0  0  0  0
 28 29  1  0  0  0  0
 31 29  1  0  0  0  0
 31 30  1  1  0  0  0
 32 33  1  0  0  0  0
 32 31  1  0  0  0  0
 34 33  1  0  0  0  0
 34 38  1  0  0  0  0
 35 38  1  0  0  0  0
 37 36  1  0  0  0  0
 37 42  1  1  0  0  0
 38 39  1  1  0  0  0
 40 35  1  1  0  0  0
 40 38  1  0  0  0  0
 40 37  1  0  0  0  0
 40 36  1  0  0  0  0
 42 41  1  0  0  0  0
M  END
>  <MODEL>
8

>  <REMARK>
 VINA RESULT:      -4.8      2.932      7.743
  Name = 
  22 active torsions:
  status: ('A' for Active; 'I' for Inactive)
    1  A    between atoms: C_1  and  C_19
    2  A    between atoms: C_2  and  C_22
    3  A    between atoms: C_3  and  N_27
    4  A    between atoms: C_3  and  C_28
    5  A    between atoms: S_7  and  S_12
    6  A    between atoms: S_7  and  C_20
    7  A    between atoms: O_8  and  C_11
    8  A    between atoms: C_10  and  C_22
    9  A    between atoms: C_10  and  N_38
   10  A    between atoms: S_12  and  C_32
   11  A    between atoms: C_16  and  C_24
   12  A    between atoms: C_19  and  O_39
   13  A    between atoms: C_20  and  C_29
   14  A    between atoms: C_21  and  C_23
   15  A    between atoms: C_25  and  N_33
   16  A    between atoms: C_25  and  C_41
   17  A    between atoms: N_27  and  C_34
   18  A    between atoms: C_28  and  N_35
   19  A    between atoms: C_30  and  N_33
   20  A    between atoms: C_30  and  C_34
   21  A    between atoms: C_32  and  N_38
   22  A    between atoms: O_39  and  C_41
                            x       y       z     vdW  Elec       q    Type
                         _______ _______ _______ _____ _____    ______ ____

>  <TORSDO>
F 22

$$$$
=
 OpenBabel11042419213D

 42 45  0  0  1  0  0  0  0  0999 V2000
  191.2590  173.6370  143.3810 C   0  0  0  0  0  0  0  0  0  0  0  0
  192.6870  174.9720  146.6970 N   0  0  0  0  0  0  0  0  0  0  0  0
  192.2220  176.1830  146.8120 C   0  0  0  0  0  0  0  0  0  0  0  0
  190.8220  174.9530  143.6480 C   0  0  0  0  0  0  0  0  0  0  0  0
  191.3060  176.6310  145.6770 C   0  0  0  0  0  2  0  0  0  0  0  0
  192.1260  174.5030  145.4890 C   0  0  0  0  0  0  0  0  0  0  0  0
  192.2850  173.0770  144.6290 S   0  0  0  0  0  0  0  0  0  0  0  0
  191.3430  175.3910  144.8670 C   0  0  0  0  0  0  0  0  0  0  0  0
  190.3250  176.9090  142.3880 O   0  0  0  0  0  0  0  0  0  0  0  0
  189.9500  175.7680  142.7740 C   0  0  0  0  0  0  0  0  0  0  0  0
  188.6740  175.2630  142.3660 N   0  0  0  0  0  2  0  0  0  0  0  0
  187.7790  176.0070  141.4920 C   0  0  0  0  0  2  0  0  0  0  0  0
  186.9090  176.9400  142.3160 C   0  0  0  0  0  2  0  0  0  0  0  0
  186.3760  177.6100  140.2300 O   0  0  0  0  0  1  0  0  0  0  0  0
  186.4870  178.0650  141.5000 N   0  0  0  0  0  0  0  0  0  0  0  0
  185.1430  178.4160  141.9320 C   0  0  0  0  0  2  0  0  0  0  0  0
  185.1780  178.9760  143.3440 C   0  0  0  0  0  2  0  0  0  0  0  0
  184.2100  178.2870  144.1780 N   0  0  0  0  0  2  0  0  0  0  0  0
  184.0950  179.0500  145.4080 C   0  0  0  0  0  2  0  0  0  0  0  0
  185.4160  179.0310  146.1550 C   0  0  0  0  0  2  0  0  0  0  0  0
  185.2610  178.3950  147.3880 O   0  0  0  0  0  0  0  0  0  0  0  0
  185.9220  177.1750  147.2420 C   0  0  0  0  0  2  0  0  0  0  0  0
  187.2380  177.3770  146.5130 C   0  0  0  0  0  2  0  0  0  0  0  0
  187.9040  176.0430  146.2490 C   0  0  0  0  0  1  0  0  0  0  0  0
  192.5560  176.9830  147.9040 O   0  0  0  0  0  0  0  0  0  0  0  0
  191.5680  177.4920  148.7870 C   0  0  0  0  0  1  0  0  0  0  0  0
  190.9520  172.8390  142.1600 C   0  0  0  0  0  2  0  0  0  0  0  0
  192.2220  172.5900  141.3720 C   0  0  0  0  0  2  0  0  0  0  0  0
  192.2450  173.4570  140.2080 N   0  0  0  0  0  2  0  0  0  0  0  0
  194.3950  172.5940  140.4280 O   0  0  0  0  0  1  0  0  0  0  0  0
  193.5400  173.2890  139.5720 C   0  0  2  0  0  3  0  0  0  0  0  0
  194.2460  174.9200  139.2050 S   0  0  0  0  0  0  0  0  0  0  0  0
  196.1570  174.3810  139.9710 S   0  0  0  0  0  0  0  0  0  0  0  0
  196.1650  175.7740  141.1360 C   0  0  0  0  0  2  0  0  0  0  0  0
  196.2190  174.0810  142.8270 O   0  0  0  0  0  0  0  0  0  0  0  0
  195.8940  175.5920  144.7230 O   0  0  0  0  0  0  0  0  0  0  0  0
  196.7490  174.5590  145.0200 C   0  0  2  0  0  3  0  0  0  0  0  0
  195.6950  175.3050  142.4980 C   0  0  2  0  0  0  0  0  0  0  0  0
  194.3220  175.3460  142.7720 O   0  0  0  0  0  1  0  0  0  0  0  0
  196.7010  175.1740  143.6220 C   0  0  1  0  0  0  0  0  0  0  0  0
  196.8060  172.2120  145.8420 C   0  0  0  0  0  1  0  0  0  0  0  0
  195.9140  173.3060  145.2920 C   0  0  0  0  0  2  0  0  0  0  0  0
  1  4  2  0  0  0  0
  1  7  1  0  0  0  0
  2  3  2  0  0  0  0
  3 25  1  0  0  0  0
  4  8  1  0  0  0  0
  5  3  1  0  0  0  0
  6  2  1  0  0  0  0
  7  6  1  0  0  0  0
  8  6  2  0  0  0  0
  8  5  1  0  0  0  0
  9 10  2  0  0  0  0
 10  4  1  0  0  0  0
 11 10  1  0  0  0  0
 12 13  1  0  0  0  0
 12 11  1  0  0  0  0
 14 15  1  0  0  0  0
 15 16  1  0  0  0  0
 15 13  1  0  0  0  0
 16 17  1  0  0  0  0
 17 18  1  0  0  0  0
 18 19  1  0  0  0  0
 19 20  1  0  0  0  0
 20 21  1  0  0  0  0
 22 21  1  0  0  0  0
 23 22  1  0  0  0  0
 24 23  1  0  0  0  0
 25 26  1  0  0  0  0
 27  1  1  0  0  0  0
 28 27  1  0  0  0  0
 29 28  1  0  0  0  0
 31 29  1  0  0  0  0
 31 30  1  1  0  0  0
 32 31  1  0  0  0  0
 32 33  1  0  0  0  0
 33 34  1  0  0  0  0
 34 38  1  0  0  0  0
 36 37  1  0  0  0  0
 37 42  1  6  0  0  0
 38 39  1  1  0  0  0
 38 35  1  0  0  0  0
 38 40  1  0  0  0  0
 40 35  1  1  0  0  0
 40 36  1  0  0  0  0
 40 37  1  0  0  0  0
 42 41  1  0  0  0  0
M  END
>  <MODEL>
9

>  <REMARK>
 VINA RESULT:      -4.8      2.422      8.824
  Name = 
  22 active torsions:
  status: ('A' for Active; 'I' for Inactive)
    1  A    between atoms: C_1  and  C_19
    2  A    between atoms: C_2  and  C_22
    3  A    between atoms: C_3  and  N_27
    4  A    between atoms: C_3  and  C_28
    5  A    between atoms: S_7  and  S_12
    6  A    between atoms: S_7  and  C_20
    7  A    between atoms: O_8  and  C_11
    8  A    between atoms: C_10  and  C_22
    9  A    between atoms: C_10  and  N_38
   10  A    between atoms: S_12  and  C_32
   11  A    between atoms: C_16  and  C_24
   12  A    between atoms: C_19  and  O_39
   13  A    between atoms: C_20  and  C_29
   14  A    between atoms: C_21  and  C_23
   15  A    between atoms: C_25  and  N_33
   16  A    between atoms: C_25  and  C_41
   17  A    between atoms: N_27  and  C_34
   18  A    between atoms: C_28  and  N_35
   19  A    between atoms: C_30  and  N_33
   20  A    between atoms: C_30  and  C_34
   21  A    between atoms: C_32  and  N_38
   22  A    between atoms: O_39  and  C_41
                            x       y       z     vdW  Elec       q    Type
                         _______ _______ _______ _____ _____    ______ ____

>  <TORSDO>
F 22

$$$$
