=
 OpenBabel11042415563D

 52 61  0  0  1  0  0  0  0  0999 V2000
  186.8830  177.9810  146.1320 N   0  0  0  0  0  0  0  0  0  0  0  0
  186.2050  176.4990  142.4990 C   0  0  1  0  0  3  0  0  0  0  0  0
  185.8940  178.1970  145.2050 C   0  0  0  0  0  0  0  0  0  0  0  0
  184.0790  178.2420  142.9410 C   0  0  0  0  0  0  0  0  0  0  0  0
  187.9540  176.3580  144.5830 C   0  0  0  0  0  0  0  0  0  0  0  0
  183.8470  179.0450  144.1180 C   0  0  0  0  0  3  0  0  0  0  0  0
  185.2240  177.4460  142.9610 C   0  0  0  0  0  0  0  0  0  0  0  0
  188.9440  176.8690  146.7890 C   0  0  0  0  0  3  0  0  0  0  0  0
  186.0150  177.5070  144.0840 C   0  0  1  0  0  0  0  0  0  0  0  0
  187.9170  177.0820  145.8510 C   0  0  0  0  0  0  0  0  0  0  0  0
  186.9490  176.6150  143.7090 N   0  0  0  0  0  0  0  0  0  0  0  0
  191.0200  173.0690  142.6560 C   0  0  0  0  0  2  0  0  0  0  0  0
  184.7490  179.0280  145.2550 C   0  0  0  0  0  3  0  0  0  0  0  0
  189.0030  175.4700  144.3480 C   0  0  0  0  0  0  0  0  0  0  0  0
  189.1360  173.5180  141.1590 C   0  0  0  0  0  0  0  0  0  0  0  0
  190.9170  174.3760  144.8170 C   0  0  0  0  0  0  0  0  0  0  0  0
  190.4720  173.9790  143.5580 C   0  0  0  0  0  0  0  0  0  0  0  0
  190.3400  172.8450  141.4480 C   0  0  0  0  0  3  0  0  0  0  0  0
  189.9930  175.9730  146.5140 C   0  0  0  0  0  3  0  0  0  0  0  0
  183.1460  178.2520  141.7850 C   0  0  0  0  0  1  0  0  0  0  0  0
  189.2950  174.6510  143.2740 C   0  0  0  0  0  0  0  0  0  0  0  0
  189.9970  175.2920  145.2950 C   0  0  0  0  0  0  0  0  0  0  0  0
  188.6040  174.4410  142.0830 C   0  0  0  0  0  3  0  0  0  0  0  0
  192.0640  173.9570  145.5030 O   0  0  0  0  0  0  0  0  0  0  0  0
  194.2560  172.9540  145.6620 C   0  0  0  0  0  2  0  0  0  0  0  0
  195.5400  174.7890  144.9370 C   0  0  0  0  0  2  0  0  0  0  0  0
  195.6170  173.4820  145.5920 N   0  0  2  0  0  0  0  0  0  0  0  0
  193.3470  173.8860  144.8950 C   0  0  2  0  0  3  0  0  0  0  0  0
  194.0860  175.2140  144.8700 C   0  0  1  0  0  3  0  0  0  0  0  0
  194.8910  176.8550  146.4090 F   0  0  0  0  0  0  0  0  0  0  0  0
  192.8070  177.0940  145.6230 F   0  0  0  0  0  0  0  0  0  0  0  0
  193.2620  175.4720  147.1240 F   0  0  0  0  0  0  0  0  0  0  0  0
  193.7510  176.1700  146.0300 C   0  0  0  0  0  0  0  0  0  0  0  0
  195.8880  171.1780  144.8640 C   0  0  0  0  0  2  0  0  0  0  0  0
  197.1640  171.6050  145.5510 C   0  0  0  0  0  2  0  0  0  0  0  0
  196.3810  172.6040  144.7150 C   0  0  0  0  0  3  0  0  0  0  0  0
  188.4720  173.2490  139.9210 N   0  0  0  0  0  2  0  0  0  0  0  0
  188.7910  173.9150  138.6660 C   0  0  0  0  0  2  0  0  0  0  0  0
  189.7390  173.0550  137.8460 C   0  0  1  0  0  3  0  0  0  0  0  0
  189.2070  172.9060  136.4320 C   0  0  0  0  0  2  0  0  0  0  0  0
  189.4360  171.4950  135.9320 C   0  0  0  0  0  1  0  0  0  0  0  0
  191.1140  173.7030  137.8130 C   0  0  0  0  0  2  0  0  0  0  0  0
  192.3840  172.4970  138.1550 S   0  0  0  0  0  0  0  0  0  0  0  0
  191.7430  171.2450  138.6830 O   0  0  0  0  0  0  0  0  0  0  0  0
  193.1380  172.1810  136.8950 O   0  0  0  0  0  0  0  0  0  0  0  0
  193.9580  174.4730  139.1910 C   0  0  0  0  0  2  0  0  0  0  0  0
  193.4800  173.1290  139.3380 N   0  0  0  0  0  0  0  0  0  0  0  0
  194.9590  174.3020  141.3950 C   0  0  0  0  0  3  0  0  0  0  0  0
  195.0390  171.3000  139.7980 C   0  0  0  0  0  1  0  0  0  0  0  0
  194.6260  173.0150  141.5180 C   0  0  0  0  0  3  0  0  0  0  0  0
  194.6710  175.0430  140.1580 C   0  0  0  0  0  3  0  0  0  0  0  0
  194.0030  172.2430  140.3860 C   0  0  0  0  0  0  0  0  0  0  0  0
  2  7  1  1  0  0  0
  2 11  1  0  0  0  0
  2  9  1  0  0  0  0
  3 13  1  0  0  0  0
  3  1  2  0  0  0  0
  4  7  2  0  0  0  0
  4  6  1  0  0  0  0
  5 10  1  0  0  0  0
  6 13  2  0  0  0  0
  9  7  1  1  0  0  0
  9  3  1  0  0  0  0
 10  1  1  0  0  0  0
 10  8  2  0  0  0  0
 11  9  1  0  0  0  0
 11  5  1  0  0  0  0
 12 17  1  0  0  0  0
 14  5  2  0  0  0  0
 14 22  1  0  0  0  0
 15 18  2  0  0  0  0
 15 23  1  0  0  0  0
 16 22  1  0  0  0  0
 16 24  1  0  0  0  0
 17 16  2  0  0  0  0
 18 12  1  0  0  0  0
 19  8  1  0  0  0  0
 20  4  1  0  0  0  0
 21 17  1  0  0  0  0
 21 14  1  0  0  0  0
 22 19  2  0  0  0  0
 23 21  2  0  0  0  0
 26 27  1  0  0  0  0
 27 36  1  6  0  0  0
 27 25  1  0  0  0  0
 28 24  1  1  0  0  0
 28 25  1  0  0  0  0
 29 28  1  0  0  0  0
 29 26  1  0  0  0  0
 29 33  1  1  0  0  0
 31 33  1  0  0  0  0
 33 30  1  0  0  0  0
 33 32  1  0  0  0  0
 34 35  1  0  0  0  0
 36 34  1  0  0  0  0
 36 35  1  0  0  0  0
 37 15  1  0  0  0  0
 38 37  1  0  0  0  0
 39 40  1  6  0  0  0
 39 38  1  0  0  0  0
 41 40  1  0  0  0  0
 42 39  1  0  0  0  0
 42 43  1  0  0  0  0
 43 44  2  0  0  0  0
 43 47  1  0  0  0  0
 45 43  2  0  0  0  0
 46 47  1  0  0  0  0
 46 51  1  0  0  0  0
 47 52  1  0  0  0  0
 48 50  1  0  0  0  0
 49 52  1  0  0  0  0
 51 48  2  0  0  0  0
 52 50  2  0  0  0  0
M  END
>  <MODEL>
1

>  <REMARK>
 VINA RESULT:      -7.9      0.000      0.000
  Name = 
  11 active torsions:
  status: ('A' for Active; 'I' for Inactive)
    1  A    between atoms: C_2  and  C_49
    2  A    between atoms: N_8  and  S_23
    3  A    between atoms: O_13  and  C_32
    4  A    between atoms: O_13  and  C_37
    5  A    between atoms: C_20  and  C_49
    6  A    between atoms: C_20  and  N_51
    7  A    between atoms: S_23  and  C_50
    8  A    between atoms: N_27  and  C_30
    9  A    between atoms: C_34  and  C_46
   10  A    between atoms: C_36  and  N_51
   11  A    between atoms: C_49  and  C_50
                            x       y       z     vdW  Elec       q    Type
                         _______ _______ _______ _____ _____    ______ ____

>  <TORSDO>
F 11

$$$$
=
 OpenBabel11042415563D

 52 61  0  0  1  0  0  0  0  0999 V2000
  190.1640  173.1970  137.5430 N   0  0  0  0  0  0  0  0  0  0  0  0
  192.8190  172.1550  140.3220 C   0  0  1  0  0  3  0  0  0  0  0  0
  191.3710  172.5460  137.4840 C   0  0  0  0  0  0  0  0  0  0  0  0
  193.9110  171.2160  137.9390 C   0  0  0  0  0  0  0  0  0  0  0  0
  190.4130  173.3930  140.0090 C   0  0  0  0  0  0  0  0  0  0  0  0
  193.3420  171.3380  136.6180 C   0  0  0  0  0  3  0  0  0  0  0  0
  193.1670  171.7740  138.9780 C   0  0  0  0  0  0  0  0  0  0  0  0
  188.4400  174.3160  138.8430 C   0  0  0  0  0  3  0  0  0  0  0  0
  191.9790  172.3840  138.6460 C   0  0  1  0  0  0  0  0  0  0  0  0
  189.6680  173.6330  138.7770 C   0  0  0  0  0  0  0  0  0  0  0  0
  191.5990  172.7460  139.8850 N   0  0  0  0  0  0  0  0  0  0  0  0
  189.5930  174.4520  144.7140 C   0  0  0  0  0  3  0  0  0  0  0  0
  192.0710  172.0010  136.3820 C   0  0  0  0  0  3  0  0  0  0  0  0
  189.8770  173.8440  141.2150 C   0  0  0  0  0  0  0  0  0  0  0  0
  191.6840  173.2090  144.4290 C   0  0  0  0  0  0  0  0  0  0  0  0
  188.3670  174.8630  142.5430 C   0  0  0  0  0  0  0  0  0  0  0  0
  189.4080  174.3840  143.3350 C   0  0  0  0  0  0  0  0  0  0  0  0
  190.7450  173.8590  145.2560 C   0  0  0  0  0  2  0  0  0  0  0  0
  187.9330  174.7650  140.0760 C   0  0  0  0  0  3  0  0  0  0  0  0
  195.2040  170.5250  138.1780 C   0  0  0  0  0  1  0  0  0  0  0  0
  190.3330  173.7570  142.5170 C   0  0  0  0  0  0  0  0  0  0  0  0
  188.6680  174.5170  141.2370 C   0  0  0  0  0  0  0  0  0  0  0  0
  191.4790  173.1600  143.0350 C   0  0  0  0  0  3  0  0  0  0  0  0
  187.2230  175.5630  142.9450 O   0  0  0  0  0  0  0  0  0  0  0  0
  186.1280  176.6640  144.7950 C   0  0  0  0  0  2  0  0  0  0  0  0
  186.4500  178.8970  144.1200 C   0  0  0  0  0  2  0  0  0  0  0  0
  185.7040  178.0410  145.0450 N   0  0  2  0  0  0  0  0  0  0  0  0
  187.2690  176.6930  143.8070 C   0  0  2  0  0  3  0  0  0  0  0  0
  187.1200  178.0200  143.0800 C   0  0  1  0  0  3  0  0  0  0  0  0
  185.5410  179.1370  141.6770 F   0  0  0  0  0  0  0  0  0  0  0  0
  187.1000  177.8660  140.6900 F   0  0  0  0  0  0  0  0  0  0  0  0
  185.4030  176.8920  141.8140 F   0  0  0  0  0  0  0  0  0  0  0  0
  186.2740  177.9700  141.7940 C   0  0  0  0  0  0  0  0  0  0  0  0
  185.8730  177.2240  147.3280 C   0  0  0  0  0  2  0  0  0  0  0  0
  184.9240  178.4000  147.3210 C   0  0  0  0  0  2  0  0  0  0  0  0
  186.1280  178.3900  146.3950 C   0  0  0  0  0  3  0  0  0  0  0  0
  192.8350  172.6090  145.0280 N   0  0  0  0  0  2  0  0  0  0  0  0
  193.7650  171.7460  144.3140 C   0  0  0  0  0  2  0  0  0  0  0  0
  195.1910  172.0420  144.7500 C   0  0  1  0  0  3  0  0  0  0  0  0
  196.0020  170.7590  144.7690 C   0  0  0  0  0  2  0  0  0  0  0  0
  196.7030  170.6010  146.1020 C   0  0  0  0  0  1  0  0  0  0  0  0
  195.8210  173.0350  143.7860 C   0  0  0  0  0  2  0  0  0  0  0  0
  195.9910  174.6360  144.5560 S   0  0  0  0  0  0  0  0  0  0  0  0
  196.0840  174.4570  146.0450 O   0  0  0  0  0  0  0  0  0  0  0  0
  197.2340  175.3130  144.0540 O   0  0  0  0  0  0  0  0  0  0  0  0
  194.2160  175.7470  142.8030 C   0  0  0  0  0  2  0  0  0  0  0  0
  194.6120  175.6110  144.1760 N   0  0  0  0  0  0  0  0  0  0  0  0
  192.2020  176.8750  143.5510 C   0  0  0  0  0  3  0  0  0  0  0  0
  194.8150  177.5830  145.6100 C   0  0  0  0  0  1  0  0  0  0  0  0
  192.5910  176.8650  144.8270 C   0  0  0  0  0  3  0  0  0  0  0  0
  193.0750  176.3540  142.4890 C   0  0  0  0  0  3  0  0  0  0  0  0
  193.9570  176.3850  145.2390 C   0  0  0  0  0  0  0  0  0  0  0  0
  1 10  1  0  0  0  0
  2  7  1  1  0  0  0
  3  1  2  0  0  0  0
  4 20  1  0  0  0  0
  4  7  2  0  0  0  0
  5 14  1  0  0  0  0
  6  4  1  0  0  0  0
  8 19  2  0  0  0  0
  9  3  1  6  0  0  0
  9  7  1  0  0  0  0
  9 11  1  0  0  0  0
  9  2  1  0  0  0  0
 10  8  1  0  0  0  0
 10  5  2  0  0  0  0
 11  5  1  0  0  0  0
 11  2  1  0  0  0  0
 12 18  1  0  0  0  0
 13  6  2  0  0  0  0
 13  3  1  0  0  0  0
 14 22  1  0  0  0  0
 14 21  2  0  0  0  0
 15 37  1  0  0  0  0
 15 18  1  0  0  0  0
 16 24  1  0  0  0  0
 16 17  1  0  0  0  0
 17 12  2  0  0  0  0
 19 22  1  0  0  0  0
 21 23  1  0  0  0  0
 21 17  1  0  0  0  0
 22 16  2  0  0  0  0
 23 15  2  0  0  0  0
 25 27  1  0  0  0  0
 26 27  1  0  0  0  0
 27 36  1  1  0  0  0
 28 24  1  6  0  0  0
 28 25  1  0  0  0  0
 29 33  1  6  0  0  0
 29 28  1  0  0  0  0
 29 26  1  0  0  0  0
 30 33  1  0  0  0  0
 31 33  1  0  0  0  0
 33 32  1  0  0  0  0
 35 34  1  0  0  0  0
 36 35  1  0  0  0  0
 36 34  1  0  0  0  0
 38 39  1  0  0  0  0
 38 37  1  0  0  0  0
 39 42  1  6  0  0  0
 39 40  1  0  0  0  0
 40 41  1  0  0  0  0
 42 43  1  0  0  0  0
 43 44  2  0  0  0  0
 45 43  2  0  0  0  0
 46 47  1  0  0  0  0
 47 43  1  0  0  0  0
 47 52  1  0  0  0  0
 48 50  1  0  0  0  0
 50 52  2  0  0  0  0
 51 46  1  0  0  0  0
 51 48  2  0  0  0  0
 52 49  1  0  0  0  0
M  END
>  <MODEL>
2

>  <REMARK>
 VINA RESULT:      -7.9      3.399      8.623
  Name = 
  11 active torsions:
  status: ('A' for Active; 'I' for Inactive)
    1  A    between atoms: C_2  and  C_49
    2  A    between atoms: N_8  and  S_23
    3  A    between atoms: O_13  and  C_32
    4  A    between atoms: O_13  and  C_37
    5  A    between atoms: C_20  and  C_49
    6  A    between atoms: C_20  and  N_51
    7  A    between atoms: S_23  and  C_50
    8  A    between atoms: N_27  and  C_30
    9  A    between atoms: C_34  and  C_46
   10  A    between atoms: C_36  and  N_51
   11  A    between atoms: C_49  and  C_50
                            x       y       z     vdW  Elec       q    Type
                         _______ _______ _______ _____ _____    ______ ____

>  <TORSDO>
F 11

$$$$
=
 OpenBabel11042415563D

 52 61  0  0  1  0  0  0  0  0999 V2000
  186.9230  177.9790  146.2420 N   0  0  0  0  0  0  0  0  0  0  0  0
  186.1890  176.5520  142.5970 C   0  0  1  0  0  3  0  0  0  0  0  0
  185.9270  178.2180  145.3280 C   0  0  0  0  0  0  0  0  0  0  0  0
  184.0890  178.3130  143.0840 C   0  0  0  0  0  0  0  0  0  0  0  0
  187.9580  176.3630  144.6610 C   0  0  0  0  0  0  0  0  0  0  0  0
  183.8790  179.1040  144.2740 C   0  0  0  0  0  3  0  0  0  0  0  0
  185.2240  177.5050  143.0820 C   0  0  0  0  0  0  0  0  0  0  0  0
  188.9780  176.8340  146.8610 C   0  0  0  0  0  3  0  0  0  0  0  0
  186.0280  177.5410  144.1980 C   0  0  1  0  0  0  0  0  0  0  0  0
  187.9440  177.0710  145.9380 C   0  0  0  0  0  0  0  0  0  0  0  0
  186.9470  176.6430  143.8000 N   0  0  0  0  0  0  0  0  0  0  0  0
  190.9650  173.0640  142.6590 C   0  0  0  0  0  2  0  0  0  0  0  0
  184.7930  179.0620  145.4020 C   0  0  0  0  0  3  0  0  0  0  0  0
  188.9950  175.4670  144.4030 C   0  0  0  0  0  0  0  0  0  0  0  0
  189.0700  173.5550  141.1880 C   0  0  0  0  0  0  0  0  0  0  0  0
  190.9010  174.3440  144.8360 C   0  0  0  0  0  0  0  0  0  0  0  0
  190.4370  173.9690  143.5780 C   0  0  0  0  0  0  0  0  0  0  0  0
  190.2690  172.8640  141.4550 C   0  0  0  0  0  3  0  0  0  0  0  0
  190.0140  175.9300  146.5640 C   0  0  0  0  0  3  0  0  0  0  0  0
  183.1440  178.3500  141.9390 C   0  0  0  0  0  1  0  0  0  0  0  0
  189.2660  174.6580  143.3150 C   0  0  0  0  0  0  0  0  0  0  0  0
  189.9970  175.2650  145.3360 C   0  0  0  0  0  0  0  0  0  0  0  0
  188.5600  174.4710  142.1290 C   0  0  0  0  0  3  0  0  0  0  0  0
  192.0500  173.9030  145.5040 O   0  0  0  0  0  0  0  0  0  0  0  0
  194.2190  172.8520  145.6590 C   0  0  0  0  0  2  0  0  0  0  0  0
  195.5260  174.6030  144.7850 C   0  0  0  0  0  2  0  0  0  0  0  0
  195.5900  173.3360  145.5160 N   0  0  2  0  0  0  0  0  0  0  0  0
  193.3110  173.7590  144.8640 C   0  0  2  0  0  3  0  0  0  0  0  0
  194.0820  175.0630  144.7340 C   0  0  1  0  0  3  0  0  0  0  0  0
  194.9770  176.7760  146.1400 F   0  0  0  0  0  0  0  0  0  0  0  0
  192.8730  177.0160  145.4100 F   0  0  0  0  0  0  0  0  0  0  0  0
  193.3430  175.4800  146.9940 F   0  0  0  0  0  0  0  0  0  0  0  0
  193.8090  176.0960  145.8430 C   0  0  0  0  0  0  0  0  0  0  0  0
  195.7940  170.9830  144.9410 C   0  0  0  0  0  2  0  0  0  0  0  0
  197.1050  171.4330  145.5440 C   0  0  0  0  0  2  0  0  0  0  0  0
  196.3040  172.3860  144.6730 C   0  0  0  0  0  3  0  0  0  0  0  0
  188.3900  173.3090  139.9530 N   0  0  0  0  0  2  0  0  0  0  0  0
  188.1730  174.3220  138.9300 C   0  0  0  0  0  2  0  0  0  0  0  0
  188.7700  173.8630  137.6090 C   0  0  1  0  0  3  0  0  0  0  0  0
  188.3970  174.8400  136.5080 C   0  0  0  0  0  2  0  0  0  0  0  0
  187.1520  175.6130  136.8920 C   0  0  0  0  0  1  0  0  0  0  0  0
  190.2830  173.7830  137.7350 C   0  0  0  0  0  2  0  0  0  0  0  0
  190.8520  172.1230  137.4120 S   0  0  0  0  0  0  0  0  0  0  0  0
  189.6780  171.1850  137.4480 O   0  0  0  0  0  0  0  0  0  0  0  0
  191.5000  172.0620  136.0580 O   0  0  0  0  0  0  0  0  0  0  0  0
  193.0360  172.5820  138.9850 C   0  0  0  0  0  2  0  0  0  0  0  0
  192.0010  171.6580  138.6210 N   0  0  0  0  0  0  0  0  0  0  0  0
  193.6510  171.0950  140.8010 C   0  0  0  0  0  3  0  0  0  0  0  0
  192.5400  169.3250  138.1190 C   0  0  0  0  0  1  0  0  0  0  0  0
  192.7730  170.1640  140.4240 C   0  0  0  0  0  3  0  0  0  0  0  0
  193.8360  172.3240  140.0160 C   0  0  0  0  0  3  0  0  0  0  0  0
  191.9800  170.2880  139.1510 C   0  0  0  0  0  0  0  0  0  0  0  0
  2  7  1  1  0  0  0
  2 11  1  0  0  0  0
  2  9  1  0  0  0  0
  3 13  1  0  0  0  0
  3  1  2  0  0  0  0
  4  6  1  0  0  0  0
  5 10  1  0  0  0  0
  6 13  2  0  0  0  0
  7  4  2  0  0  0  0
  9  7  1  1  0  0  0
  9  3  1  0  0  0  0
 10  1  1  0  0  0  0
 10  8  2  0  0  0  0
 11  9  1  0  0  0  0
 11  5  1  0  0  0  0
 12 17  1  0  0  0  0
 14  5  2  0  0  0  0
 14 22  1  0  0  0  0
 15 18  2  0  0  0  0
 15 23  1  0  0  0  0
 16 22  1  0  0  0  0
 16 24  1  0  0  0  0
 17 16  2  0  0  0  0
 18 12  1  0  0  0  0
 19  8  1  0  0  0  0
 20  4  1  0  0  0  0
 21 17  1  0  0  0  0
 21 14  1  0  0  0  0
 22 19  2  0  0  0  0
 23 21  2  0  0  0  0
 26 27  1  0  0  0  0
 27 36  1  6  0  0  0
 27 25  1  0  0  0  0
 28 24  1  1  0  0  0
 28 25  1  0  0  0  0
 29 26  1  0  0  0  0
 29 28  1  0  0  0  0
 29 33  1  1  0  0  0
 31 33  1  0  0  0  0
 33 30  1  0  0  0  0
 33 32  1  0  0  0  0
 34 35  1  0  0  0  0
 36 34  1  0  0  0  0
 36 35  1  0  0  0  0
 37 15  1  0  0  0  0
 38 37  1  0  0  0  0
 39 40  1  6  0  0  0
 39 42  1  0  0  0  0
 39 38  1  0  0  0  0
 40 41  1  0  0  0  0
 43 44  2  0  0  0  0
 43 42  1  0  0  0  0
 43 47  1  0  0  0  0
 45 43  2  0  0  0  0
 46 51  1  0  0  0  0
 47 46  1  0  0  0  0
 47 52  1  0  0  0  0
 49 52  1  0  0  0  0
 50 48  1  0  0  0  0
 51 48  2  0  0  0  0
 52 50  2  0  0  0  0
M  END
>  <MODEL>
3

>  <REMARK>
 VINA RESULT:      -7.7      1.131      1.444
  Name = 
  11 active torsions:
  status: ('A' for Active; 'I' for Inactive)
    1  A    between atoms: C_2  and  C_49
    2  A    between atoms: N_8  and  S_23
    3  A    between atoms: O_13  and  C_32
    4  A    between atoms: O_13  and  C_37
    5  A    between atoms: C_20  and  C_49
    6  A    between atoms: C_20  and  N_51
    7  A    between atoms: S_23  and  C_50
    8  A    between atoms: N_27  and  C_30
    9  A    between atoms: C_34  and  C_46
   10  A    between atoms: C_36  and  N_51
   11  A    between atoms: C_49  and  C_50
                            x       y       z     vdW  Elec       q    Type
                         _______ _______ _______ _____ _____    ______ ____

>  <TORSDO>
F 11

$$$$
=
 OpenBabel11042415563D

 52 61  0  0  1  0  0  0  0  0999 V2000
  188.5910  172.2250  139.2260 N   0  0  0  0  0  0  0  0  0  0  0  0
  192.5550  172.4860  139.4950 C   0  0  1  0  0  3  0  0  0  0  0  0
  189.6160  171.5530  138.6070 C   0  0  0  0  0  0  0  0  0  0  0  0
  192.1230  170.4510  137.6460 C   0  0  0  0  0  0  0  0  0  0  0  0
  190.2600  173.5680  140.4870 C   0  0  0  0  0  0  0  0  0  0  0  0
  190.8480  169.9570  137.1830 C   0  0  0  0  0  3  0  0  0  0  0  0
  192.0740  171.4850  138.5790 C   0  0  0  0  0  0  0  0  0  0  0  0
  187.8350  173.9360  140.7800 C   0  0  0  0  0  3  0  0  0  0  0  0
  190.8310  171.9320  138.9610 C   0  0  1  0  0  0  0  0  0  0  0  0
  188.8790  173.2310  140.1550 C   0  0  0  0  0  0  0  0  0  0  0  0
  191.2280  172.8690  139.8420 N   0  0  0  0  0  0  0  0  0  0  0  0
  192.3110  176.8100  143.5230 C   0  0  0  0  0  3  0  0  0  0  0  0
  189.5890  170.5020  137.6600 C   0  0  0  0  0  3  0  0  0  0  0  0
  190.4980  174.5760  141.4210 C   0  0  0  0  0  0  0  0  0  0  0  0
  194.0040  175.4560  142.3850 C   0  0  0  0  0  0  0  0  0  0  0  0
  189.9440  176.2000  142.8830 C   0  0  0  0  0  0  0  0  0  0  0  0
  191.3320  176.0980  142.8330 C   0  0  0  0  0  0  0  0  0  0  0  0
  193.6560  176.4800  143.2880 C   0  0  0  0  0  2  0  0  0  0  0  0
  188.1110  174.9540  141.7100 C   0  0  0  0  0  3  0  0  0  0  0  0
  193.4080  169.8820  137.1660 C   0  0  0  0  0  1  0  0  0  0  0  0
  191.6690  175.0980  141.9360 C   0  0  0  0  0  0  0  0  0  0  0  0
  189.4430  175.2510  142.0100 C   0  0  0  0  0  0  0  0  0  0  0  0
  192.9970  174.7550  141.6930 C   0  0  0  0  0  3  0  0  0  0  0  0
  189.1660  177.0770  143.6480 O   0  0  0  0  0  0  0  0  0  0  0  0
  187.1820  177.7840  144.8310 C   0  0  0  0  0  2  0  0  0  0  0  0
  187.4070  176.4310  146.7440 C   0  0  0  0  0  2  0  0  0  0  0  0
  186.6900  177.5820  146.1930 N   0  0  2  0  0  0  0  0  0  0  0  0
  188.1040  176.6390  144.4870 C   0  0  2  0  0  3  0  0  0  0  0  0
  188.5700  176.0980  145.8290 C   0  0  1  0  0  3  0  0  0  0  0  0
  190.1150  177.9190  145.7200 F   0  0  0  0  0  0  0  0  0  0  0  0
  189.7490  176.9770  147.7190 F   0  0  0  0  0  0  0  0  0  0  0  0
  190.9500  175.8730  146.1610 F   0  0  0  0  0  0  0  0  0  0  0  0
  189.8720  176.7200  146.3670 C   0  0  0  0  0  0  0  0  0  0  0  0
  184.5170  178.2970  145.3710 C   0  0  0  0  0  2  0  0  0  0  0  0
  184.4410  178.2080  146.8770 C   0  0  0  0  0  2  0  0  0  0  0  0
  185.2840  177.2110  146.1000 C   0  0  0  0  0  3  0  0  0  0  0  0
  195.3870  175.1480  142.1880 N   0  0  0  0  0  2  0  0  0  0  0  0
  196.3900  175.2060  143.2410 C   0  0  0  0  0  2  0  0  0  0  0  0
  196.6120  173.8200  143.8260 C   0  0  1  0  0  3  0  0  0  0  0  0
  197.7200  173.8700  144.8630 C   0  0  0  0  0  2  0  0  0  0  0  0
  197.1930  173.4380  146.2150 C   0  0  0  0  0  1  0  0  0  0  0  0
  195.3250  173.3300  144.4720 C   0  0  0  0  0  2  0  0  0  0  0  0
  194.7680  171.8240  143.6930 S   0  0  0  0  0  0  0  0  0  0  0  0
  195.2220  171.8140  142.2610 O   0  0  0  0  0  0  0  0  0  0  0  0
  195.3460  170.6370  144.4090 O   0  0  0  0  0  0  0  0  0  0  0  0
  192.3390  172.5920  144.6750 C   0  0  0  0  0  2  0  0  0  0  0  0
  193.0390  171.7460  143.7530 N   0  0  0  0  0  0  0  0  0  0  0  0
  190.2550  171.9100  143.6370 C   0  0  0  0  0  3  0  0  0  0  0  0
  192.5070  169.3620  143.6050 C   0  0  0  0  0  1  0  0  0  0  0  0
  190.8640  171.0300  142.8380 C   0  0  0  0  0  3  0  0  0  0  0  0
  191.0120  172.6740  144.6380 C   0  0  0  0  0  3  0  0  0  0  0  0
  192.3330  170.7280  142.9640 C   0  0  0  0  0  0  0  0  0  0  0  0
  1 10  1  0  0  0  0
  2  7  1  1  0  0  0
  2 11  1  0  0  0  0
  3  9  1  0  0  0  0
  3  1  2  0  0  0  0
  4  7  2  0  0  0  0
  5 14  1  0  0  0  0
  6  4  1  0  0  0  0
  6 13  2  0  0  0  0
  8 19  2  0  0  0  0
  9  7  1  1  0  0  0
  9  2  1  0  0  0  0
  9 11  1  0  0  0  0
 10  5  2  0  0  0  0
 10  8  1  0  0  0  0
 11  5  1  0  0  0  0
 13  3  1  0  0  0  0
 14 21  2  0  0  0  0
 14 22  1  0  0  0  0
 15 18  1  0  0  0  0
 16 24  1  0  0  0  0
 17 16  1  0  0  0  0
 17 12  2  0  0  0  0
 18 12  1  0  0  0  0
 19 22  1  0  0  0  0
 20  4  1  0  0  0  0
 21 17  1  0  0  0  0
 22 16  2  0  0  0  0
 23 21  1  0  0  0  0
 23 15  2  0  0  0  0
 25 27  1  0  0  0  0
 27 36  1  6  0  0  0
 27 26  1  0  0  0  0
 28 24  1  6  0  0  0
 28 25  1  0  0  0  0
 28 29  1  0  0  0  0
 29 33  1  1  0  0  0
 29 26  1  0  0  0  0
 30 33  1  0  0  0  0
 32 33  1  0  0  0  0
 33 31  1  0  0  0  0
 34 36  1  0  0  0  0
 34 35  1  0  0  0  0
 36 35  1  0  0  0  0
 37 15  1  0  0  0  0
 37 38  1  0  0  0  0
 39 38  1  1  0  0  0
 39 42  1  0  0  0  0
 39 40  1  0  0  0  0
 40 41  1  0  0  0  0
 43 47  1  0  0  0  0
 43 45  2  0  0  0  0
 43 42  1  0  0  0  0
 44 43  2  0  0  0  0
 47 46  1  0  0  0  0
 48 51  2  0  0  0  0
 50 52  2  0  0  0  0
 50 48  1  0  0  0  0
 51 46  1  0  0  0  0
 52 49  1  0  0  0  0
 52 47  1  0  0  0  0
M  END
>  <MODEL>
4

>  <REMARK>
 VINA RESULT:      -7.6      2.489      7.950
  Name = 
  11 active torsions:
  status: ('A' for Active; 'I' for Inactive)
    1  A    between atoms: C_2  and  C_49
    2  A    between atoms: N_8  and  S_23
    3  A    between atoms: O_13  and  C_32
    4  A    between atoms: O_13  and  C_37
    5  A    between atoms: C_20  and  C_49
    6  A    between atoms: C_20  and  N_51
    7  A    between atoms: S_23  and  C_50
    8  A    between atoms: N_27  and  C_30
    9  A    between atoms: C_34  and  C_46
   10  A    between atoms: C_36  and  N_51
   11  A    between atoms: C_49  and  C_50
                            x       y       z     vdW  Elec       q    Type
                         _______ _______ _______ _____ _____    ______ ____

>  <TORSDO>
F 11

$$$$
=
 OpenBabel11042415563D

 52 61  0  0  1  0  0  0  0  0999 V2000
  194.7140  175.7320  145.4600 N   0  0  0  0  0  0  0  0  0  0  0  0
  193.6480  172.1710  144.0310 C   0  0  1  0  0  3  0  0  0  0  0  0
  195.2700  174.4810  145.5600 C   0  0  0  0  0  0  0  0  0  0  0  0
  196.0120  171.6790  145.4170 C   0  0  0  0  0  0  0  0  0  0  0  0
  192.8790  174.7850  144.0760 C   0  0  0  0  0  0  0  0  0  0  0  0
  196.8150  172.6430  146.1310 C   0  0  0  0  0  3  0  0  0  0  0  0
  194.8640  172.1760  144.8020 C   0  0  0  0  0  0  0  0  0  0  0  0
  192.9440  177.1880  144.6460 C   0  0  0  0  0  3  0  0  0  0  0  0
  194.6080  173.5210  144.9390 C   0  0  1  0  0  0  0  0  0  0  0  0
  193.5290  175.9120  144.7380 C   0  0  0  0  0  0  0  0  0  0  0  0
  193.4770  173.5740  144.2120 N   0  0  0  0  0  0  0  0  0  0  0  0
  188.8350  174.3340  141.3610 C   0  0  0  0  0  2  0  0  0  0  0  0
  196.4520  174.0470  146.2070 C   0  0  0  0  0  3  0  0  0  0  0  0
  191.7010  175.0130  143.3660 C   0  0  0  0  0  0  0  0  0  0  0  0
  190.0080  172.1960  141.5780 C   0  0  0  0  0  0  0  0  0  0  0  0
  189.9910  176.2370  142.5550 C   0  0  0  0  0  0  0  0  0  0  0  0
  189.8290  174.9160  142.1440 C   0  0  0  0  0  0  0  0  0  0  0  0
  188.9320  172.9600  141.0830 C   0  0  0  0  0  3  0  0  0  0  0  0
  191.7490  177.3800  143.9290 C   0  0  0  0  0  3  0  0  0  0  0  0
  196.3950  170.2460  145.3310 C   0  0  0  0  0  1  0  0  0  0  0  0
  190.8820  174.1670  142.6410 C   0  0  0  0  0  0  0  0  0  0  0  0
  191.1540  176.2830  143.3040 C   0  0  0  0  0  0  0  0  0  0  0  0
  190.9980  172.8050  142.3750 C   0  0  0  0  0  3  0  0  0  0  0  0
  189.1650  177.3360  142.2880 O   0  0  0  0  0  0  0  0  0  0  0  0
  187.8450  176.8690  144.2560 C   0  0  0  0  0  2  0  0  0  0  0  0
  186.0250  178.2950  143.8100 C   0  0  0  0  0  2  0  0  0  0  0  0
  186.4740  177.1840  144.6530 N   0  0  2  0  0  0  0  0  0  0  0  0
  188.3000  177.9090  143.2600 C   0  0  2  0  0  3  0  0  0  0  0  0
  187.0160  178.4750  142.6760 C   0  0  1  0  0  3  0  0  0  0  0  0
  185.3140  178.3400  141.0030 F   0  0  0  0  0  0  0  0  0  0  0  0
  187.4270  177.9260  140.3820 F   0  0  0  0  0  0  0  0  0  0  0  0
  186.3070  176.4170  141.6320 F   0  0  0  0  0  0  0  0  0  0  0  0
  186.5100  177.7700  141.4040 C   0  0  0  0  0  0  0  0  0  0  0  0
  187.0880  176.6000  146.9310 C   0  0  0  0  0  2  0  0  0  0  0  0
  185.5960  176.8340  146.8940 C   0  0  0  0  0  2  0  0  0  0  0  0
  186.5170  177.6730  146.0250 C   0  0  0  0  0  3  0  0  0  0  0  0
  190.0710  170.8030  141.2590 N   0  0  0  0  0  2  0  0  0  0  0  0
  191.3140  170.0730  141.0530 C   0  0  0  0  0  2  0  0  0  0  0  0
  191.5460  169.8500  139.5670 C   0  0  1  0  0  3  0  0  0  0  0  0
  190.2840  169.3000  138.9250 C   0  0  0  0  0  2  0  0  0  0  0  0
  189.9050  170.1310  137.7180 C   0  0  0  0  0  1  0  0  0  0  0  0
  191.9260  171.1670  138.9090 C   0  0  0  0  0  2  0  0  0  0  0  0
  193.6980  171.2970  138.7440 S   0  0  0  0  0  0  0  0  0  0  0  0
  194.3350  170.0530  139.2950 O   0  0  0  0  0  0  0  0  0  0  0  0
  194.0650  171.4470  137.2950 O   0  0  0  0  0  0  0  0  0  0  0  0
  193.4970  173.8880  139.5820 C   0  0  0  0  0  2  0  0  0  0  0  0
  194.2630  172.6750  139.6260 N   0  0  0  0  0  0  0  0  0  0  0  0
  194.9420  174.8010  141.3050 C   0  0  0  0  0  3  0  0  0  0  0  0
  196.6800  172.7200  139.2520 C   0  0  0  0  0  1  0  0  0  0  0  0
  195.7410  173.7320  141.2930 C   0  0  0  0  0  3  0  0  0  0  0  0
  193.8130  174.9120  140.3690 C   0  0  0  0  0  3  0  0  0  0  0  0
  195.5740  172.6250  140.2870 C   0  0  0  0  0  0  0  0  0  0  0  0
  1  3  2  0  0  0  0
  2 11  1  0  0  0  0
  2  7  1  6  0  0  0
  2  9  1  0  0  0  0
  3 13  1  0  0  0  0
  4  6  1  0  0  0  0
  5 11  1  0  0  0  0
  5 10  1  0  0  0  0
  6 13  2  0  0  0  0
  7  4  2  0  0  0  0
  8 10  2  0  0  0  0
  9  7  1  6  0  0  0
  9  3  1  0  0  0  0
 10  1  1  0  0  0  0
 11  9  1  0  0  0  0
 12 17  1  0  0  0  0
 14  5  2  0  0  0  0
 15 23  1  0  0  0  0
 16 22  1  0  0  0  0
 17 16  2  0  0  0  0
 17 21  1  0  0  0  0
 18 12  1  0  0  0  0
 18 15  2  0  0  0  0
 19  8  1  0  0  0  0
 20  4  1  0  0  0  0
 21 14  1  0  0  0  0
 22 14  1  0  0  0  0
 22 19  2  0  0  0  0
 23 21  2  0  0  0  0
 24 16  1  0  0  0  0
 25 27  1  0  0  0  0
 26 27  1  0  0  0  0
 27 36  1  1  0  0  0
 28 24  1  6  0  0  0
 28 25  1  0  0  0  0
 29 33  1  6  0  0  0
 29 28  1  0  0  0  0
 29 26  1  0  0  0  0
 30 33  1  0  0  0  0
 31 33  1  0  0  0  0
 33 32  1  0  0  0  0
 35 34  1  0  0  0  0
 36 35  1  0  0  0  0
 36 34  1  0  0  0  0
 37 15  1  0  0  0  0
 38 37  1  0  0  0  0
 39 42  1  6  0  0  0
 39 38  1  0  0  0  0
 40 39  1  0  0  0  0
 41 40  1  0  0  0  0
 43 42  1  0  0  0  0
 43 44  2  0  0  0  0
 43 47  1  0  0  0  0
 45 43  2  0  0  0  0
 46 47  1  0  0  0  0
 46 51  1  0  0  0  0
 47 52  1  0  0  0  0
 49 52  1  0  0  0  0
 50 48  1  0  0  0  0
 51 48  2  0  0  0  0
 52 50  2  0  0  0  0
M  END
>  <MODEL>
5

>  <REMARK>
 VINA RESULT:      -7.5      2.826      7.240
  Name = 
  11 active torsions:
  status: ('A' for Active; 'I' for Inactive)
    1  A    between atoms: C_2  and  C_49
    2  A    between atoms: N_8  and  S_23
    3  A    between atoms: O_13  and  C_32
    4  A    between atoms: O_13  and  C_37
    5  A    between atoms: C_20  and  C_49
    6  A    between atoms: C_20  and  N_51
    7  A    between atoms: S_23  and  C_50
    8  A    between atoms: N_27  and  C_30
    9  A    between atoms: C_34  and  C_46
   10  A    between atoms: C_36  and  N_51
   11  A    between atoms: C_49  and  C_50
                            x       y       z     vdW  Elec       q    Type
                         _______ _______ _______ _____ _____    ______ ____

>  <TORSDO>
F 11

$$$$
=
 OpenBabel11042415563D

 52 61  0  0  1  0  0  0  0  0999 V2000
  192.9700  175.9410  146.0600 N   0  0  0  0  0  0  0  0  0  0  0  0
  193.6060  173.2880  143.1590 C   0  0  1  0  0  3  0  0  0  0  0  0
  194.0530  175.1680  145.7220 C   0  0  0  0  0  0  0  0  0  0  0  0
  196.0110  173.3690  144.5590 C   0  0  0  0  0  0  0  0  0  0  0  0
  191.7060  174.9700  144.1520 C   0  0  0  0  0  0  0  0  0  0  0  0
  196.3140  174.1770  145.7170 C   0  0  0  0  0  3  0  0  0  0  0  0
  194.7260  173.5070  144.0380 C   0  0  0  0  0  0  0  0  0  0  0  0
  190.6740  176.6360  145.6570 C   0  0  0  0  0  3  0  0  0  0  0  0
  193.8790  174.3860  144.6710 C   0  0  1  0  0  0  0  0  0  0  0  0
  191.7940  175.8600  145.3060 C   0  0  0  0  0  0  0  0  0  0  0  0
  192.8090  174.2320  143.8700 N   0  0  0  0  0  0  0  0  0  0  0  0
  188.1760  173.9680  140.9180 C   0  0  0  0  0  2  0  0  0  0  0  0
  195.3400  175.0810  146.3040 C   0  0  0  0  0  3  0  0  0  0  0  0
  190.5140  174.9250  143.4300 C   0  0  0  0  0  0  0  0  0  0  0  0
  190.2260  172.7270  140.4160 C   0  0  0  0  0  0  0  0  0  0  0  0
  188.3800  175.4640  142.9430 C   0  0  0  0  0  0  0  0  0  0  0  0
  188.8300  174.5340  142.0100 C   0  0  0  0  0  0  0  0  0  0  0  0
  188.8870  173.0560  140.1210 C   0  0  0  0  0  3  0  0  0  0  0  0
  189.4840  176.5580  144.9120 C   0  0  0  0  0  3  0  0  0  0  0  0
  197.0140  172.4560  143.9540 C   0  0  0  0  0  1  0  0  0  0  0  0
  190.1420  174.2060  142.3090 C   0  0  0  0  0  0  0  0  0  0  0  0
  189.4330  175.7000  143.8110 C   0  0  0  0  0  0  0  0  0  0  0  0
  190.8650  173.3070  141.5300 C   0  0  0  0  0  3  0  0  0  0  0  0
  187.1200  176.0680  143.0280 O   0  0  0  0  0  0  0  0  0  0  0  0
  185.8100  177.1500  144.7450 C   0  0  0  0  0  2  0  0  0  0  0  0
  185.5570  179.2570  143.7260 C   0  0  0  0  0  2  0  0  0  0  0  0
  185.0600  178.4030  144.8070 N   0  0  2  0  0  0  0  0  0  0  0  0
  186.8950  177.2990  143.7060 C   0  0  2  0  0  3  0  0  0  0  0  0
  186.4100  178.4160  142.7960 C   0  0  1  0  0  3  0  0  0  0  0  0
  185.3210  179.0430  140.7630 F   0  0  0  0  0  0  0  0  0  0  0  0
  186.3050  177.0320  140.8450 F   0  0  0  0  0  0  0  0  0  0  0  0
  184.3860  177.3900  141.9750 F   0  0  0  0  0  0  0  0  0  0  0  0
  185.5870  177.9570  141.5780 C   0  0  0  0  0  0  0  0  0  0  0  0
  185.9500  178.0320  147.0380 C   0  0  0  0  0  2  0  0  0  0  0  0
  184.5240  178.5100  147.1770 C   0  0  0  0  0  2  0  0  0  0  0  0
  185.4020  179.0560  146.0640 C   0  0  0  0  0  3  0  0  0  0  0  0
  190.9130  171.8020  139.5680 N   0  0  0  0  0  2  0  0  0  0  0  0
  192.3630  171.7140  139.4710 C   0  0  0  0  0  2  0  0  0  0  0  0
  192.8600  172.5600  138.3100 C   0  0  1  0  0  3  0  0  0  0  0  0
  191.7750  172.6740  137.2550 C   0  0  0  0  0  2  0  0  0  0  0  0
  191.4610  174.1300  136.9810 C   0  0  0  0  0  1  0  0  0  0  0  0
  193.2350  173.9450  138.8150 C   0  0  0  0  0  2  0  0  0  0  0  0
  194.9340  174.3190  138.4150 S   0  0  0  0  0  0  0  0  0  0  0  0
  195.6450  173.0460  138.0540 O   0  0  0  0  0  0  0  0  0  0  0  0
  194.9850  175.2690  137.2520 O   0  0  0  0  0  0  0  0  0  0  0  0
  194.9490  175.9410  140.6120 C   0  0  0  0  0  2  0  0  0  0  0  0
  195.7050  175.0450  139.7850 N   0  0  0  0  0  0  0  0  0  0  0  0
  196.7940  175.9570  142.1880 C   0  0  0  0  0  3  0  0  0  0  0  0
  197.9370  175.6670  138.9990 C   0  0  0  0  0  1  0  0  0  0  0  0
  197.5670  175.2150  141.3930 C   0  0  0  0  0  3  0  0  0  0  0  0
  195.4580  176.3900  141.7560 C   0  0  0  0  0  3  0  0  0  0  0  0
  197.1440  174.8410  139.9970 C   0  0  0  0  0  0  0  0  0  0  0  0
  2 11  1  0  0  0  0
  2  7  1  6  0  0  0
  2  9  1  0  0  0  0
  3  1  2  0  0  0  0
  3 13  1  0  0  0  0
  4  6  1  0  0  0  0
  5 10  1  0  0  0  0
  6 13  2  0  0  0  0
  7  4  2  0  0  0  0
  9  7  1  6  0  0  0
  9  3  1  0  0  0  0
 10  8  2  0  0  0  0
 10  1  1  0  0  0  0
 11  5  1  0  0  0  0
 11  9  1  0  0  0  0
 12 17  1  0  0  0  0
 14 22  1  0  0  0  0
 14  5  2  0  0  0  0
 15 23  1  0  0  0  0
 16 24  1  0  0  0  0
 16 22  1  0  0  0  0
 17 21  1  0  0  0  0
 17 16  2  0  0  0  0
 18 15  2  0  0  0  0
 18 12  1  0  0  0  0
 19  8  1  0  0  0  0
 20  4  1  0  0  0  0
 21 14  1  0  0  0  0
 22 19  2  0  0  0  0
 23 21  2  0  0  0  0
 25 27  1  0  0  0  0
 26 27  1  0  0  0  0
 27 36  1  1  0  0  0
 28 24  1  6  0  0  0
 28 25  1  0  0  0  0
 29 33  1  6  0  0  0
 29 28  1  0  0  0  0
 29 26  1  0  0  0  0
 30 33  1  0  0  0  0
 31 33  1  0  0  0  0
 33 32  1  0  0  0  0
 34 35  1  0  0  0  0
 36 34  1  0  0  0  0
 36 35  1  0  0  0  0
 37 15  1  0  0  0  0
 38 37  1  0  0  0  0
 39 40  1  6  0  0  0
 39 42  1  0  0  0  0
 39 38  1  0  0  0  0
 41 40  1  0  0  0  0
 43 42  1  0  0  0  0
 43 47  1  0  0  0  0
 44 43  2  0  0  0  0
 45 43  2  0  0  0  0
 46 51  1  0  0  0  0
 47 52  1  0  0  0  0
 47 46  1  0  0  0  0
 49 52  1  0  0  0  0
 50 48  1  0  0  0  0
 51 48  2  0  0  0  0
 52 50  2  0  0  0  0
M  END
>  <MODEL>
6

>  <REMARK>
 VINA RESULT:      -7.4      3.022      7.359
  Name = 
  11 active torsions:
  status: ('A' for Active; 'I' for Inactive)
    1  A    between atoms: C_2  and  C_49
    2  A    between atoms: N_8  and  S_23
    3  A    between atoms: O_13  and  C_32
    4  A    between atoms: O_13  and  C_37
    5  A    between atoms: C_20  and  C_49
    6  A    between atoms: C_20  and  N_51
    7  A    between atoms: S_23  and  C_50
    8  A    between atoms: N_27  and  C_30
    9  A    between atoms: C_34  and  C_46
   10  A    between atoms: C_36  and  N_51
   11  A    between atoms: C_49  and  C_50
                            x       y       z     vdW  Elec       q    Type
                         _______ _______ _______ _____ _____    ______ ____

>  <TORSDO>
F 11

$$$$
=
 OpenBabel11042415563D

 52 61  0  0  1  0  0  0  0  0999 V2000
  194.7050  175.7600  145.3980 N   0  0  0  0  0  0  0  0  0  0  0  0
  193.6740  172.1500  144.0700 C   0  0  1  0  0  3  0  0  0  0  0  0
  195.2790  174.5200  145.5230 C   0  0  0  0  0  0  0  0  0  0  0  0
  196.0590  171.7250  145.4420 C   0  0  0  0  0  0  0  0  0  0  0  0
  192.8690  174.7530  144.0580 C   0  0  0  0  0  0  0  0  0  0  0  0
  196.8560  172.7180  146.1230 C   0  0  0  0  0  3  0  0  0  0  0  0
  194.8970  172.1910  144.8280 C   0  0  0  0  0  0  0  0  0  0  0  0
  192.9060  177.1710  144.5670 C   0  0  0  0  0  3  0  0  0  0  0  0
  194.6240  173.5350  144.9330 C   0  0  1  0  0  0  0  0  0  0  0  0
  193.5100  175.9060  144.6840 C   0  0  0  0  0  0  0  0  0  0  0  0
  193.4850  173.5550  144.2170 N   0  0  0  0  0  0  0  0  0  0  0  0
  188.8030  174.1790  141.3980 C   0  0  0  0  0  2  0  0  0  0  0  0
  196.4740  174.1180  146.1680 C   0  0  0  0  0  3  0  0  0  0  0  0
  191.6800  174.9470  143.3550 C   0  0  0  0  0  0  0  0  0  0  0  0
  190.0080  172.0630  141.6570 C   0  0  0  0  0  0  0  0  0  0  0  0
  189.9450  176.1270  142.5320 C   0  0  0  0  0  0  0  0  0  0  0  0
  189.7980  174.7940  142.1560 C   0  0  0  0  0  0  0  0  0  0  0  0
  188.9170  172.8000  141.1540 C   0  0  0  0  0  3  0  0  0  0  0  0
  191.7010  177.3290  143.8580 C   0  0  0  0  0  3  0  0  0  0  0  0
  196.4600  170.2960  145.3880 C   0  0  0  0  0  1  0  0  0  0  0  0
  190.8660  174.0720  142.6610 C   0  0  0  0  0  0  0  0  0  0  0  0
  191.1150  176.2070  143.2670 C   0  0  0  0  0  0  0  0  0  0  0  0
  190.9980  172.7060  142.4270 C   0  0  0  0  0  3  0  0  0  0  0  0
  189.1010  177.2070  142.2460 O   0  0  0  0  0  0  0  0  0  0  0  0
  187.7750  176.8100  144.2250 C   0  0  0  0  0  2  0  0  0  0  0  0
  186.0270  178.3260  143.7930 C   0  0  0  0  0  2  0  0  0  0  0  0
  186.4250  177.1950  144.6330 N   0  0  2  0  0  0  0  0  0  0  0  0
  188.2740  177.8240  143.2250 C   0  0  2  0  0  3  0  0  0  0  0  0
  187.0170  178.4560  142.6510 C   0  0  1  0  0  3  0  0  0  0  0  0
  186.2890  176.4260  141.6210 F   0  0  0  0  0  0  0  0  0  0  0  0
  185.2380  178.3210  141.0530 F   0  0  0  0  0  0  0  0  0  0  0  0
  187.3350  177.9360  140.3160 F   0  0  0  0  0  0  0  0  0  0  0  0
  186.4650  177.7770  141.3830 C   0  0  0  0  0  0  0  0  0  0  0  0
  187.1760  176.6390  146.8760 C   0  0  0  0  0  2  0  0  0  0  0  0
  185.6730  176.7870  146.9100 C   0  0  0  0  0  2  0  0  0  0  0  0
  186.5030  177.6800  146.0040 C   0  0  0  0  0  3  0  0  0  0  0  0
  190.0880  170.6630  141.3720 N   0  0  0  0  0  2  0  0  0  0  0  0
  191.0040  169.7500  142.0390 C   0  0  0  0  0  2  0  0  0  0  0  0
  192.3850  169.8470  141.4120 C   0  0  1  0  0  3  0  0  0  0  0  0
  193.2840  168.7600  141.9750 C   0  0  0  0  0  2  0  0  0  0  0  0
  193.0440  168.5990  143.4620 C   0  0  0  0  0  1  0  0  0  0  0  0
  192.2710  169.6900  139.9040 C   0  0  0  0  0  2  0  0  0  0  0  0
  192.8250  171.1700  139.0760 S   0  0  0  0  0  0  0  0  0  0  0  0
  193.3820  172.1240  140.0940 O   0  0  0  0  0  0  0  0  0  0  0  0
  193.8940  170.8240  138.0770 O   0  0  0  0  0  0  0  0  0  0  0  0
  190.6540  171.0990  137.4210 C   0  0  0  0  0  2  0  0  0  0  0  0
  191.4920  171.9100  138.2570 N   0  0  0  0  0  0  0  0  0  0  0  0
  189.1370  172.9800  137.2060 C   0  0  0  0  0  3  0  0  0  0  0  0
  192.3560  174.0500  137.4430 C   0  0  0  0  0  1  0  0  0  0  0  0
  189.9450  173.7950  137.8860 C   0  0  0  0  0  3  0  0  0  0  0  0
  189.5340  171.5970  136.9060 C   0  0  0  0  0  3  0  0  0  0  0  0
  191.3210  173.3680  138.3220 C   0  0  0  0  0  0  0  0  0  0  0  0
  1  3  2  0  0  0  0
  2 11  1  0  0  0  0
  2  7  1  6  0  0  0
  2  9  1  0  0  0  0
  3 13  1  0  0  0  0
  4  6  1  0  0  0  0
  5 11  1  0  0  0  0
  5 10  1  0  0  0  0
  6 13  2  0  0  0  0
  7  4  2  0  0  0  0
  8 10  2  0  0  0  0
  9  7  1  6  0  0  0
  9  3  1  0  0  0  0
 10  1  1  0  0  0  0
 11  9  1  0  0  0  0
 12 17  1  0  0  0  0
 14  5  2  0  0  0  0
 15 23  1  0  0  0  0
 16 22  1  0  0  0  0
 17 16  2  0  0  0  0
 17 21  1  0  0  0  0
 18 12  1  0  0  0  0
 18 15  2  0  0  0  0
 19  8  1  0  0  0  0
 20  4  1  0  0  0  0
 21 14  1  0  0  0  0
 22 14  1  0  0  0  0
 22 19  2  0  0  0  0
 23 21  2  0  0  0  0
 24 16  1  0  0  0  0
 25 27  1  0  0  0  0
 26 27  1  0  0  0  0
 27 36  1  1  0  0  0
 28 24  1  6  0  0  0
 28 25  1  0  0  0  0
 29 33  1  6  0  0  0
 29 28  1  0  0  0  0
 29 26  1  0  0  0  0
 31 33  1  0  0  0  0
 32 33  1  0  0  0  0
 33 30  1  0  0  0  0
 34 35  1  0  0  0  0
 36 34  1  0  0  0  0
 36 35  1  0  0  0  0
 37 15  1  0  0  0  0
 37 38  1  0  0  0  0
 39 42  1  6  0  0  0
 39 40  1  0  0  0  0
 39 38  1  0  0  0  0
 40 41  1  0  0  0  0
 43 42  1  0  0  0  0
 43 44  2  0  0  0  0
 45 43  2  0  0  0  0
 46 47  1  0  0  0  0
 47 52  1  0  0  0  0
 47 43  1  0  0  0  0
 48 50  1  0  0  0  0
 49 52  1  0  0  0  0
 50 52  2  0  0  0  0
 51 48  2  0  0  0  0
 51 46  1  0  0  0  0
M  END
>  <MODEL>
7

>  <REMARK>
 VINA RESULT:      -7.4      2.912      7.688
  Name = 
  11 active torsions:
  status: ('A' for Active; 'I' for Inactive)
    1  A    between atoms: C_2  and  C_49
    2  A    between atoms: N_8  and  S_23
    3  A    between atoms: O_13  and  C_32
    4  A    between atoms: O_13  and  C_37
    5  A    between atoms: C_20  and  C_49
    6  A    between atoms: C_20  and  N_51
    7  A    between atoms: S_23  and  C_50
    8  A    between atoms: N_27  and  C_30
    9  A    between atoms: C_34  and  C_46
   10  A    between atoms: C_36  and  N_51
   11  A    between atoms: C_49  and  C_50
                            x       y       z     vdW  Elec       q    Type
                         _______ _______ _______ _____ _____    ______ ____

>  <TORSDO>
F 11

$$$$
=
 OpenBabel11042415563D

 52 61  0  0  1  0  0  0  0  0999 V2000
  187.9760  177.4510  147.0000 N   0  0  0  0  0  0  0  0  0  0  0  0
  186.7890  176.6160  143.2910 C   0  0  1  0  0  3  0  0  0  0  0  0
  186.8910  177.8420  146.2560 C   0  0  0  0  0  0  0  0  0  0  0  0
  184.8140  178.3090  144.2830 C   0  0  0  0  0  0  0  0  0  0  0  0
  188.7740  176.0870  145.0810 C   0  0  0  0  0  0  0  0  0  0  0  0
  184.7650  178.9080  145.5960 C   0  0  0  0  0  3  0  0  0  0  0  0
  185.9160  177.4950  144.0250 C   0  0  0  0  0  0  0  0  0  0  0  0
  190.0510  176.1970  147.1930 C   0  0  0  0  0  3  0  0  0  0  0  0
  186.8410  177.3480  145.0320 C   0  0  1  0  0  0  0  0  0  0  0  0
  188.9270  176.5880  146.4440 C   0  0  0  0  0  0  0  0  0  0  0  0
  187.6810  176.5100  144.3970 N   0  0  0  0  0  0  0  0  0  0  0  0
  191.4300  173.0980  142.2620 C   0  0  0  0  0  2  0  0  0  0  0  0
  185.7990  178.6790  146.5890 C   0  0  0  0  0  3  0  0  0  0  0  0
  189.7460  175.2270  144.5700 C   0  0  0  0  0  0  0  0  0  0  0  0
  189.3970  173.8360  141.1140 C   0  0  0  0  0  0  0  0  0  0  0  0
  191.6530  174.0250  144.6020 C   0  0  0  0  0  0  0  0  0  0  0  0
  191.0380  173.8560  143.3630 C   0  0  0  0  0  0  0  0  0  0  0  0
  190.5960  173.0960  141.1310 C   0  0  0  0  0  3  0  0  0  0  0  0
  191.0180  175.3360  146.6430 C   0  0  0  0  0  3  0  0  0  0  0  0
  183.7470  178.5350  143.2750 C   0  0  0  0  0  1  0  0  0  0  0  0
  189.8670  174.5940  143.3470 C   0  0  0  0  0  0  0  0  0  0  0  0
  190.8410  174.8700  145.3380 C   0  0  0  0  0  0  0  0  0  0  0  0
  189.0260  174.6020  142.2380 C   0  0  0  0  0  3  0  0  0  0  0  0
  192.8560  173.4710  145.0560 O   0  0  0  0  0  0  0  0  0  0  0  0
  194.5140  174.5960  143.7060 C   0  0  0  0  0  2  0  0  0  0  0  0
  196.4340  173.9940  144.9280 C   0  0  0  0  0  2  0  0  0  0  0  0
  195.9750  174.5550  143.6560 N   0  0  2  0  0  0  0  0  0  0  0  0
  194.0770  174.1980  145.0960 C   0  0  2  0  0  3  0  0  0  0  0  0
  195.2440  173.4010  145.6570 C   0  0  1  0  0  3  0  0  0  0  0  0
  194.9330  171.6340  144.0780 F   0  0  0  0  0  0  0  0  0  0  0  0
  196.3740  171.2920  145.7590 F   0  0  0  0  0  0  0  0  0  0  0  0
  194.1550  171.3080  146.1670 F   0  0  0  0  0  0  0  0  0  0  0  0
  195.1710  171.8810  145.4180 C   0  0  0  0  0  0  0  0  0  0  0  0
  196.1690  176.5060  142.2200 C   0  0  0  0  0  2  0  0  0  0  0  0
  197.5640  176.0410  142.5690 C   0  0  0  0  0  2  0  0  0  0  0  0
  196.4480  175.9320  143.5950 C   0  0  0  0  0  3  0  0  0  0  0  0
  188.5740  173.7940  139.9450 N   0  0  0  0  0  2  0  0  0  0  0  0
  188.5180  172.6610  139.0320 C   0  0  0  0  0  2  0  0  0  0  0  0
  188.9040  173.1040  137.6290 C   0  0  1  0  0  3  0  0  0  0  0  0
  188.4770  174.5440  137.4080 C   0  0  0  0  0  2  0  0  0  0  0  0
  188.6470  174.9240  135.9520 C   0  0  0  0  0  1  0  0  0  0  0  0
  190.4090  172.9800  137.4530 C   0  0  0  0  0  2  0  0  0  0  0  0
  190.8610  171.2930  137.0890 S   0  0  0  0  0  0  0  0  0  0  0  0
  189.6630  170.5710  136.5390 O   0  0  0  0  0  0  0  0  0  0  0  0
  191.9680  171.2710  136.0740 O   0  0  0  0  0  0  0  0  0  0  0  0
  192.6780  170.8530  139.0790 C   0  0  0  0  0  2  0  0  0  0  0  0
  191.3940  170.5100  138.5380 N   0  0  0  0  0  0  0  0  0  0  0  0
  192.1390  169.5410  141.0480 C   0  0  0  0  0  3  0  0  0  0  0  0
  190.7470  168.1660  138.2660 C   0  0  0  0  0  1  0  0  0  0  0  0
  190.9860  169.1130  140.5290 C   0  0  0  0  0  3  0  0  0  0  0  0
  193.0500  170.3920  140.2700 C   0  0  0  0  0  3  0  0  0  0  0  0
  190.5910  169.4200  139.1090 C   0  0  0  0  0  0  0  0  0  0  0  0
  2  7  1  1  0  0  0
  2 11  1  0  0  0  0
  2  9  1  0  0  0  0
  3 13  1  0  0  0  0
  3  1  2  0  0  0  0
  4  6  1  0  0  0  0
  5 10  1  0  0  0  0
  6 13  2  0  0  0  0
  7  4  2  0  0  0  0
  9  7  1  1  0  0  0
  9  3  1  0  0  0  0
 10  1  1  0  0  0  0
 10  8  2  0  0  0  0
 11  9  1  0  0  0  0
 11  5  1  0  0  0  0
 12 17  1  0  0  0  0
 14  5  2  0  0  0  0
 14 22  1  0  0  0  0
 15 18  2  0  0  0  0
 15 23  1  0  0  0  0
 16 24  1  0  0  0  0
 16 22  1  0  0  0  0
 17 16  2  0  0  0  0
 18 12  1  0  0  0  0
 19  8  1  0  0  0  0
 20  4  1  0  0  0  0
 21 17  1  0  0  0  0
 21 14  1  0  0  0  0
 22 19  2  0  0  0  0
 23 21  2  0  0  0  0
 25 28  1  0  0  0  0
 26 29  1  0  0  0  0
 27 36  1  1  0  0  0
 27 25  1  0  0  0  0
 27 26  1  0  0  0  0
 28 24  1  6  0  0  0
 28 29  1  0  0  0  0
 29 33  1  6  0  0  0
 30 33  1  0  0  0  0
 33 31  1  0  0  0  0
 33 32  1  0  0  0  0
 34 35  1  0  0  0  0
 34 36  1  0  0  0  0
 35 36  1  0  0  0  0
 37 15  1  0  0  0  0
 38 37  1  0  0  0  0
 39 40  1  1  0  0  0
 39 38  1  0  0  0  0
 41 40  1  0  0  0  0
 42 39  1  0  0  0  0
 43 42  1  0  0  0  0
 43 47  1  0  0  0  0
 44 43  2  0  0  0  0
 45 43  2  0  0  0  0
 46 51  1  0  0  0  0
 47 46  1  0  0  0  0
 47 52  1  0  0  0  0
 49 52  1  0  0  0  0
 50 48  1  0  0  0  0
 51 48  2  0  0  0  0
 52 50  2  0  0  0  0
M  END
>  <MODEL>
8

>  <REMARK>
 VINA RESULT:      -7.3      2.135      2.931
  Name = 
  11 active torsions:
  status: ('A' for Active; 'I' for Inactive)
    1  A    between atoms: C_2  and  C_49
    2  A    between atoms: N_8  and  S_23
    3  A    between atoms: O_13  and  C_32
    4  A    between atoms: O_13  and  C_37
    5  A    between atoms: C_20  and  C_49
    6  A    between atoms: C_20  and  N_51
    7  A    between atoms: S_23  and  C_50
    8  A    between atoms: N_27  and  C_30
    9  A    between atoms: C_34  and  C_46
   10  A    between atoms: C_36  and  N_51
   11  A    between atoms: C_49  and  C_50
                            x       y       z     vdW  Elec       q    Type
                         _______ _______ _______ _____ _____    ______ ____

>  <TORSDO>
F 11

$$$$
=
 OpenBabel11042415563D

 52 61  0  0  1  0  0  0  0  0999 V2000
  190.0520  172.3380  138.5230 N   0  0  0  0  0  0  0  0  0  0  0  0
  193.4720  173.9920  139.7140 C   0  0  1  0  0  3  0  0  0  0  0  0
  191.3280  172.3120  138.0170 C   0  0  0  0  0  0  0  0  0  0  0  0
  194.1570  172.5690  137.4220 C   0  0  0  0  0  0  0  0  0  0  0  0
  190.8390  173.7900  140.3810 C   0  0  0  0  0  0  0  0  0  0  0  0
  193.2730  171.7830  136.5930 C   0  0  0  0  0  3  0  0  0  0  0  0
  193.5690  173.1920  138.5210 C   0  0  0  0  0  0  0  0  0  0  0  0
  188.4700  173.1110  140.2010 C   0  0  0  0  0  3  0  0  0  0  0  0
  192.2190  173.0050  138.7050 C   0  0  1  0  0  0  0  0  0  0  0  0
  189.7780  173.0650  139.6870 C   0  0  0  0  0  0  0  0  0  0  0  0
  192.0780  173.7260  139.8320 N   0  0  0  0  0  0  0  0  0  0  0  0
  190.9620  176.5470  144.4200 C   0  0  0  0  0  3  0  0  0  0  0  0
  191.8570  171.6490  136.8840 C   0  0  0  0  0  3  0  0  0  0  0  0
  190.5190  174.4990  141.5390 C   0  0  0  0  0  0  0  0  0  0  0  0
  193.1870  176.3240  143.4220 C   0  0  0  0  0  0  0  0  0  0  0  0
  189.1660  175.2980  143.1550 C   0  0  0  0  0  0  0  0  0  0  0  0
  190.4630  175.7480  143.3940 C   0  0  0  0  0  0  0  0  0  0  0  0
  192.3370  176.8340  144.4240 C   0  0  0  0  0  2  0  0  0  0  0  0
  188.1810  173.8440  141.3660 C   0  0  0  0  0  3  0  0  0  0  0  0
  195.6080  172.6930  137.1280 C   0  0  0  0  0  1  0  0  0  0  0  0
  191.2920  175.2540  142.4010 C   0  0  0  0  0  0  0  0  0  0  0  0
  189.2180  174.5230  142.0100 C   0  0  0  0  0  0  0  0  0  0  0  0
  192.6570  175.5240  142.3890 C   0  0  0  0  0  3  0  0  0  0  0  0
  188.0090  175.5540  143.8990 O   0  0  0  0  0  0  0  0  0  0  0  0
  186.5720  176.7350  145.4410 C   0  0  0  0  0  2  0  0  0  0  0  0
  186.3170  178.7360  144.2270 C   0  0  0  0  0  2  0  0  0  0  0  0
  185.7840  177.9640  145.3510 N   0  0  2  0  0  0  0  0  0  0  0  0
  187.7100  176.8300  144.4520 C   0  0  2  0  0  3  0  0  0  0  0  0
  187.2460  177.8480  143.4230 C   0  0  1  0  0  3  0  0  0  0  0  0
  187.4050  177.0490  141.1760 F   0  0  0  0  0  0  0  0  0  0  0  0
  185.9440  176.0410  142.5430 F   0  0  0  0  0  0  0  0  0  0  0  0
  185.5090  178.1140  141.7680 F   0  0  0  0  0  0  0  0  0  0  0  0
  186.5070  177.2580  142.2080 C   0  0  0  0  0  0  0  0  0  0  0  0
  186.0270  177.8090  147.7650 C   0  0  0  0  0  2  0  0  0  0  0  0
  184.8180  178.6660  147.4700 C   0  0  0  0  0  2  0  0  0  0  0  0
  186.0350  178.7330  146.5620 C   0  0  0  0  0  3  0  0  0  0  0  0
  194.5820  176.6330  143.4750 N   0  0  0  0  0  2  0  0  0  0  0  0
  195.4680  176.2100  144.5500 C   0  0  0  0  0  2  0  0  0  0  0  0
  196.3100  175.0290  144.0960 C   0  0  1  0  0  3  0  0  0  0  0  0
  197.5770  175.5280  143.4230 C   0  0  0  0  0  2  0  0  0  0  0  0
  197.5440  175.2120  141.9430 C   0  0  0  0  0  1  0  0  0  0  0  0
  196.6700  174.1690  145.2980 C   0  0  0  0  0  2  0  0  0  0  0  0
  196.2700  172.4580  144.9870 S   0  0  0  0  0  0  0  0  0  0  0  0
  196.9590  172.0130  143.7280 O   0  0  0  0  0  0  0  0  0  0  0  0
  196.7320  171.6100  146.1380 O   0  0  0  0  0  0  0  0  0  0  0  0
  193.6890  173.1660  145.5310 C   0  0  0  0  0  2  0  0  0  0  0  0
  194.5570  172.2890  144.7990 N   0  0  0  0  0  0  0  0  0  0  0  0
  191.8170  172.2870  144.2620 C   0  0  0  0  0  3  0  0  0  0  0  0
  194.1570  169.8750  144.7860 C   0  0  0  0  0  1  0  0  0  0  0  0
  192.5770  171.3820  143.6420 C   0  0  0  0  0  3  0  0  0  0  0  0
  192.3810  173.1710  145.2920 C   0  0  0  0  0  3  0  0  0  0  0  0
  194.0220  171.1730  144.0080 C   0  0  0  0  0  0  0  0  0  0  0  0
  1 10  1  0  0  0  0
  2  7  1  1  0  0  0
  2 11  1  0  0  0  0
  3  1  2  0  0  0  0
  4  7  2  0  0  0  0
  5 14  1  0  0  0  0
  6 13  2  0  0  0  0
  6  4  1  0  0  0  0
  7  9  1  0  0  0  0
  8 19  2  0  0  0  0
  9  3  1  6  0  0  0
  9  2  1  0  0  0  0
  9 11  1  0  0  0  0
 10  8  1  0  0  0  0
 10  5  2  0  0  0  0
 11  5  1  0  0  0  0
 12 18  1  0  0  0  0
 13  3  1  0  0  0  0
 14 22  1  0  0  0  0
 14 21  2  0  0  0  0
 15 37  1  0  0  0  0
 15 18  1  0  0  0  0
 16 17  1  0  0  0  0
 16 24  1  0  0  0  0
 17 12  2  0  0  0  0
 19 22  1  0  0  0  0
 20  4  1  0  0  0  0
 21 17  1  0  0  0  0
 22 16  2  0  0  0  0
 23 21  1  0  0  0  0
 23 15  2  0  0  0  0
 26 27  1  0  0  0  0
 27 25  1  0  0  0  0
 27 36  1  1  0  0  0
 28 24  1  6  0  0  0
 28 25  1  0  0  0  0
 29 33  1  6  0  0  0
 29 26  1  0  0  0  0
 29 28  1  0  0  0  0
 30 33  1  0  0  0  0
 32 33  1  0  0  0  0
 33 31  1  0  0  0  0
 35 34  1  0  0  0  0
 36 35  1  0  0  0  0
 36 34  1  0  0  0  0
 37 38  1  0  0  0  0
 39 40  1  1  0  0  0
 39 38  1  0  0  0  0
 39 42  1  0  0  0  0
 41 40  1  0  0  0  0
 43 42  1  0  0  0  0
 43 45  2  0  0  0  0
 44 43  2  0  0  0  0
 47 43  1  0  0  0  0
 47 46  1  0  0  0  0
 48 51  2  0  0  0  0
 50 52  2  0  0  0  0
 50 48  1  0  0  0  0
 51 46  1  0  0  0  0
 52 49  1  0  0  0  0
 52 47  1  0  0  0  0
M  END
>  <MODEL>
9

>  <REMARK>
 VINA RESULT:      -7.3      3.290      8.504
  Name = 
  11 active torsions:
  status: ('A' for Active; 'I' for Inactive)
    1  A    between atoms: C_2  and  C_49
    2  A    between atoms: N_8  and  S_23
    3  A    between atoms: O_13  and  C_32
    4  A    between atoms: O_13  and  C_37
    5  A    between atoms: C_20  and  C_49
    6  A    between atoms: C_20  and  N_51
    7  A    between atoms: S_23  and  C_50
    8  A    between atoms: N_27  and  C_30
    9  A    between atoms: C_34  and  C_46
   10  A    between atoms: C_36  and  N_51
   11  A    between atoms: C_49  and  C_50
                            x       y       z     vdW  Elec       q    Type
                         _______ _______ _______ _____ _____    ______ ____

>  <TORSDO>
F 11

$$$$
