=
 OpenBabel11042419403D

 61 67  0  0  1  0  0  0  0  0999 V2000
  188.3470  176.2430  143.0530 C   0  0  1  0  0  3  0  0  0  0  0  0
  184.9830  178.2690  142.4770 S   0  0  0  0  0  0  0  0  0  0  0  0
  188.2110  176.0350  145.5150 N   0  0  0  0  0  0  0  0  0  0  0  0
  186.1750  176.4340  144.2470 C   0  0  1  0  0  3  0  0  0  0  0  0
  185.9450  176.7060  142.7460 C   0  0  2  0  0  3  0  0  0  0  0  0
  191.5850  172.7030  142.1350 C   0  0  0  0  0  2  0  0  0  0  0  0
  185.3810  177.9070  146.2420 C   0  0  0  0  0  3  0  0  0  0  0  0
  190.2350  174.6450  145.2700 C   0  0  0  0  0  3  0  0  0  0  0  0
  187.6350  176.1940  144.3590 C   0  0  0  0  0  0  0  0  0  0  0  0
  189.6790  175.0480  141.7180 C   0  0  0  0  0  2  0  0  0  0  0  0
  189.7050  173.7920  140.8560 C   0  0  2  0  0  3  0  0  0  0  0  0
  188.6420  174.9380  142.6500 O   0  0  0  0  0  0  0  0  0  0  0  0
  191.4110  172.0150  144.5410 C   0  0  0  0  0  2  0  0  0  0  0  0
  193.5460  172.9540  145.3880 C   0  0  0  0  0  3  0  0  0  0  0  0
  191.6640  176.4670  146.8430 C   0  0  0  0  0  3  0  0  0  0  0  0
  184.6010  178.9760  146.1970 O   0  0  0  0  0  0  0  0  0  0  0  0
  191.5830  174.3830  145.5830 C   0  0  0  0  0  0  0  0  0  0  0  0
  184.4090  179.4010  144.9770 N   0  0  0  0  0  0  0  0  0  0  0  0
  185.1650  178.6130  144.2010 C   0  0  0  0  0  0  0  0  0  0  0  0
  190.3250  176.7130  146.5350 C   0  0  0  0  0  0  0  0  0  0  0  0
  187.3210  176.8510  142.1020 C   0  0  0  0  0  2  0  0  0  0  0  0
  192.2860  175.3120  146.3720 C   0  0  0  0  0  3  0  0  0  0  0  0
  190.1400  172.5840  141.6810 C   0  0  0  0  0  2  0  0  0  0  0  0
  189.6090  175.8140  145.7330 C   0  0  0  0  0  0  0  0  0  0  0  0
  192.2380  173.1200  145.1500 C   0  0  0  0  0  0  0  0  0  0  0  0
  191.8980  171.6220  143.1500 C   0  0  0  0  0  2  0  0  0  0  0  0
  185.7650  177.6740  144.9410 C   0  0  0  0  0  0  0  0  0  0  0  0
  189.7120  177.8600  147.0270 O   0  0  0  0  0  1  0  0  0  0  0  0
  194.3140  171.7110  145.0810 C   0  0  0  0  0  2  0  0  0  0  0  0
  195.8020  171.9360  145.3120 C   0  0  0  0  0  2  0  0  0  0  0  0
  196.0940  173.3830  145.6930 C   0  0  0  0  0  2  0  0  0  0  0  0
  196.2460  173.7790  142.4640 C   0  0  1  0  0  3  0  0  0  0  0  0
  197.5070  172.8980  143.3990 S   0  0  0  0  0  0  0  0  0  0  0  0
  197.1680  173.9900  144.7970 C   0  0  1  0  0  3  0  0  0  0  0  0
  196.2120  175.2150  142.9660 C   0  0  2  0  0  3  0  0  0  0  0  0
  196.7560  175.3090  144.3240 N   0  0  0  0  0  2  0  0  0  0  0  0
  194.7990  175.7990  142.9180 C   0  0  0  0  0  0  0  0  0  0  0  0
  193.8770  174.7970  142.6740 F   0  0  0  0  0  0  0  0  0  0  0  0
  194.7220  176.7300  141.8970 F   0  0  0  0  0  0  0  0  0  0  0  0
  194.4930  176.4180  144.1200 F   0  0  0  0  0  0  0  0  0  0  0  0
  196.3250  172.6830  140.3400 O   0  0  0  0  0  0  0  0  0  0  0  0
  197.1080  174.8810  140.3680 N   0  0  0  0  0  2  0  0  0  0  0  0
  197.4440  174.8930  138.9540 C   0  0  0  0  0  1  0  0  0  0  0  0
  196.5550  173.7310  141.0030 C   0  0  0  0  0  0  0  0  0  0  0  0
  190.5790  173.9590  139.7020 N   0  0  0  0  0  2  0  0  0  0  0  0
  192.8660  171.0630  136.4930 O   0  0  0  0  0  1  0  0  0  0  0  0
  189.3420  172.8520  137.8800 C   0  0  0  0  0  3  0  0  0  0  0  0
  189.3160  172.0160  136.7630 C   0  0  0  0  0  3  0  0  0  0  0  0
  191.7070  171.6750  136.9570 C   0  0  0  0  0  0  0  0  0  0  0  0
  191.7450  172.5340  138.0730 C   0  0  0  0  0  0  0  0  0  0  0  0
  190.4960  171.4270  136.3040 C   0  0  0  0  0  3  0  0  0  0  0  0
  190.5520  173.1170  138.5430 C   0  0  0  0  0  0  0  0  0  0  0  0
  193.0280  172.7710  138.8180 C   0  0  0  0  0  2  0  0  0  0  0  0
  193.8230  174.9970  139.1800 O   0  0  0  0  0  0  0  0  0  0  0  0
  193.7090  174.0300  138.3800 C   0  0  0  0  0  0  0  0  0  0  0  0
  194.2520  174.1280  137.1000 O   0  0  0  0  0  0  0  0  0  0  0  0
  193.6120  174.8010  136.1360 O   0  0  0  0  0  0  0  0  0  0  0  0
  194.6130  175.4630  135.4250 C   0  0  0  0  0  2  0  0  0  0  0  0
  195.8630  174.6050  135.4020 C   0  0  0  0  0  2  0  0  0  0  0  0
  196.8070  176.7890  135.6340 O   0  0  0  0  0  1  0  0  0  0  0  0
  197.0980  175.4760  135.2620 C   0  0  0  0  0  2  0  0  0  0  0  0
  1 21  1  6  0  0  0
  1  9  1  0  0  0  0
  2  5  1  0  0  0  0
  2 19  1  0  0  0  0
  3 24  1  0  0  0  0
  4  9  1  6  0  0  0
  4 27  1  0  0  0  0
  5 21  1  6  0  0  0
  5  4  1  0  0  0  0
  6 26  1  0  0  0  0
  8 17  2  0  0  0  0
  8 24  1  0  0  0  0
  9  3  2  0  0  0  0
 10 12  1  0  0  0  0
 11 45  1  6  0  0  0
 11 23  1  0  0  0  0
 11 10  1  0  0  0  0
 12  1  1  0  0  0  0
 13 25  1  0  0  0  0
 16  7  1  0  0  0  0
 17 22  1  0  0  0  0
 18 16  1  0  0  0  0
 19 27  1  0  0  0  0
 19 18  2  0  0  0  0
 20 15  1  0  0  0  0
 20 28  1  0  0  0  0
 22 15  2  0  0  0  0
 23  6  1  0  0  0  0
 24 20  2  0  0  0  0
 25 14  2  0  0  0  0
 25 17  1  0  0  0  0
 26 13  1  0  0  0  0
 27  7  2  0  0  0  0
 29 30  1  0  0  0  0
 29 14  1  0  0  0  0
 30 31  1  0  0  0  0
 32 44  1  6  0  0  0
 32 35  1  0  0  0  0
 32 33  1  0  0  0  0
 33 34  1  0  0  0  0
 34 31  1  1  0  0  0
 35 37  1  1  0  0  0
 35 36  1  0  0  0  0
 36 34  1  0  0  0  0
 37 40  1  0  0  0  0
 38 37  1  0  0  0  0
 39 37  1  0  0  0  0
 41 44  2  0  0  0  0
 42 44  1  0  0  0  0
 43 42  1  0  0  0  0
 46 49  1  0  0  0  0
 47 52  1  0  0  0  0
 48 47  2  0  0  0  0
 49 50  1  0  0  0  0
 50 52  2  0  0  0  0
 50 53  1  0  0  0  0
 51 48  1  0  0  0  0
 51 49  2  0  0  0  0
 52 45  1  0  0  0  0
 55 53  1  0  0  0  0
 55 54  2  0  0  0  0
 56 55  1  0  0  0  0
 57 56  1  0  0  0  0
 58 57  1  0  0  0  0
 59 58  1  0  0  0  0
 61 59  1  0  0  0  0
 61 60  1  0  0  0  0
M  END
>  <MODEL>
1

>  <REMARK>
 VINA RESULT:      -7.3      0.000      0.000
  Name = 
  15 active torsions:
  status: ('A' for Active; 'I' for Inactive)
    1  A    between atoms: C_1  and  C_8
    2  A    between atoms: C_1  and  C_25
    3  A    between atoms: O_2  and  C_58
    4  A    between atoms: O_2  and  O_59
    5  A    between atoms: C_8  and  C_26
    6  A    between atoms: C_9  and  C_57
    7  A    between atoms: C_11  and  C_49
    8  A    between atoms: C_11  and  C_58
    9  A    between atoms: C_20  and  C_29
   10  A    between atoms: C_21  and  N_35
   11  A    between atoms: C_23  and  C_37
   12  A    between atoms: C_23  and  O_59
   13  A    between atoms: C_25  and  C_28
   14  A    between atoms: N_35  and  C_55
   15  A    between atoms: C_37  and  C_47
                            x       y       z     vdW  Elec       q    Type
                         _______ _______ _______ _____ _____    ______ ____

>  <TORSDO>
F 15

$$$$
=
 OpenBabel11042419403D

 61 67  0  0  1  0  0  0  0  0999 V2000
  188.9550  175.9920  142.6070 C   0  0  1  0  0  3  0  0  0  0  0  0
  185.8030  178.2970  141.8990 S   0  0  0  0  0  0  0  0  0  0  0  0
  188.7480  175.8640  145.0690 N   0  0  0  0  0  0  0  0  0  0  0  0
  186.7850  176.4110  143.7440 C   0  0  1  0  0  3  0  0  0  0  0  0
  186.6120  176.6620  142.2310 C   0  0  2  0  0  3  0  0  0  0  0  0
  191.8770  172.1490  141.8570 C   0  0  0  0  0  2  0  0  0  0  0  0
  186.0850  178.0040  145.6810 C   0  0  0  0  0  3  0  0  0  0  0  0
  190.6420  174.2910  144.9080 C   0  0  0  0  0  3  0  0  0  0  0  0
  188.2130  176.0430  143.8960 C   0  0  0  0  0  0  0  0  0  0  0  0
  190.2010  174.6450  141.3350 C   0  0  0  0  0  2  0  0  0  0  0  0
  190.1310  173.3690  140.5060 C   0  0  2  0  0  3  0  0  0  0  0  0
  189.1390  174.6550  142.2440 O   0  0  0  0  0  0  0  0  0  0  0  0
  191.5890  171.5460  144.2740 C   0  0  0  0  0  2  0  0  0  0  0  0
  193.7820  172.3110  145.1480 C   0  0  0  0  0  3  0  0  0  0  0  0
  192.1970  176.0190  146.4690 C   0  0  0  0  0  3  0  0  0  0  0  0
  185.4070  179.1380  145.5900 O   0  0  0  0  0  0  0  0  0  0  0  0
  191.9530  173.9160  145.2600 C   0  0  0  0  0  0  0  0  0  0  0  0
  185.2810  179.5450  144.3560 N   0  0  0  0  0  0  0  0  0  0  0  0
  185.9790  178.6710  143.6190 C   0  0  0  0  0  0  0  0  0  0  0  0
  190.8930  176.3770  146.1220 C   0  0  0  0  0  0  0  0  0  0  0  0
  188.0090  176.6640  141.6160 C   0  0  0  0  0  2  0  0  0  0  0  0
  192.7210  174.8000  146.0420 C   0  0  0  0  0  3  0  0  0  0  0  0
  190.4360  172.1500  141.3720 C   0  0  0  0  0  2  0  0  0  0  0  0
  190.1150  175.5240  145.3260 C   0  0  0  0  0  0  0  0  0  0  0  0
  192.5000  172.5880  144.8750 C   0  0  0  0  0  0  0  0  0  0  0  0
  192.0680  171.0730  142.9060 C   0  0  0  0  0  2  0  0  0  0  0  0
  186.4750  177.7010  144.3960 C   0  0  0  0  0  0  0  0  0  0  0  0
  190.3760  177.5870  146.5700 O   0  0  0  0  0  1  0  0  0  0  0  0
  194.4400  170.9960  144.8910 C   0  0  0  0  0  2  0  0  0  0  0  0
  195.8170  171.2030  144.2760 C   0  0  0  0  0  2  0  0  0  0  0  0
  195.7290  171.9520  142.9520 C   0  0  0  0  0  2  0  0  0  0  0  0
  196.3800  174.1330  140.6230 C   0  0  1  0  0  3  0  0  0  0  0  0
  197.6350  173.0470  141.3190 S   0  0  0  0  0  0  0  0  0  0  0  0
  196.7380  173.0930  142.8870 C   0  0  1  0  0  3  0  0  0  0  0  0
  195.8460  175.0080  141.7480 C   0  0  2  0  0  3  0  0  0  0  0  0
  196.0700  174.3810  143.0520 N   0  0  0  0  0  2  0  0  0  0  0  0
  194.3610  175.3300  141.5590 C   0  0  0  0  0  0  0  0  0  0  0  0
  193.8420  174.5860  140.5150 F   0  0  0  0  0  0  0  0  0  0  0  0
  194.2170  176.6730  141.2620 F   0  0  0  0  0  0  0  0  0  0  0  0
  193.6570  175.0430  142.7190 F   0  0  0  0  0  0  0  0  0  0  0  0
  197.5510  176.0500  139.8010 O   0  0  0  0  0  0  0  0  0  0  0  0
  196.8550  174.5230  138.1780 N   0  0  0  0  0  2  0  0  0  0  0  0
  197.3900  175.2940  137.0690 C   0  0  0  0  0  1  0  0  0  0  0  0
  196.9650  174.9670  139.5290 C   0  0  0  0  0  0  0  0  0  0  0  0
  191.0410  173.4240  139.3690 N   0  0  0  0  0  2  0  0  0  0  0  0
  192.9120  171.6270  135.2230 O   0  0  0  0  0  1  0  0  0  0  0  0
  189.7700  171.8290  137.9850 C   0  0  0  0  0  3  0  0  0  0  0  0
  189.6660  171.0140  136.8580 C   0  0  0  0  0  3  0  0  0  0  0  0
  191.8730  171.7160  136.1430 C   0  0  0  0  0  0  0  0  0  0  0  0
  191.9770  172.5550  137.2690 C   0  0  0  0  0  0  0  0  0  0  0  0
  190.7170  170.9560  135.9390 C   0  0  0  0  0  3  0  0  0  0  0  0
  190.9220  172.6030  138.2010 C   0  0  0  0  0  0  0  0  0  0  0  0
  193.2320  173.3380  137.5300 C   0  0  0  0  0  2  0  0  0  0  0  0
  193.7850  175.6640  137.5100 O   0  0  0  0  0  0  0  0  0  0  0  0
  193.1660  174.7180  136.9540 C   0  0  0  0  0  0  0  0  0  0  0  0
  192.4500  174.9580  135.7820 O   0  0  0  0  0  0  0  0  0  0  0  0
  191.4990  175.9000  135.7430 O   0  0  0  0  0  0  0  0  0  0  0  0
  190.5420  175.4160  134.8510 C   0  0  0  0  0  2  0  0  0  0  0  0
  189.4030  174.7860  135.6300 C   0  0  0  0  0  2  0  0  0  0  0  0
  188.4720  176.8690  134.9160 O   0  0  0  0  0  1  0  0  0  0  0  0
  188.1910  175.6980  135.6210 C   0  0  0  0  0  2  0  0  0  0  0  0
  1 21  1  6  0  0  0
  1  9  1  0  0  0  0
  2  5  1  0  0  0  0
  2 19  1  0  0  0  0
  3 24  1  0  0  0  0
  4  9  1  6  0  0  0
  4 27  1  0  0  0  0
  5 21  1  6  0  0  0
  5  4  1  0  0  0  0
  6 26  1  0  0  0  0
  8 17  2  0  0  0  0
  8 24  1  0  0  0  0
  9  3  2  0  0  0  0
 10 12  1  0  0  0  0
 11 45  1  6  0  0  0
 11 10  1  0  0  0  0
 11 23  1  0  0  0  0
 12  1  1  0  0  0  0
 13 25  1  0  0  0  0
 16  7  1  0  0  0  0
 17 22  1  0  0  0  0
 18 16  1  0  0  0  0
 19 18  2  0  0  0  0
 19 27  1  0  0  0  0
 20 15  1  0  0  0  0
 20 28  1  0  0  0  0
 22 15  2  0  0  0  0
 23  6  1  0  0  0  0
 24 20  2  0  0  0  0
 25 14  2  0  0  0  0
 25 17  1  0  0  0  0
 26 13  1  0  0  0  0
 27  7  2  0  0  0  0
 29 14  1  0  0  0  0
 30 29  1  0  0  0  0
 31 30  1  0  0  0  0
 32 44  1  6  0  0  0
 32 33  1  0  0  0  0
 32 35  1  0  0  0  0
 33 34  1  0  0  0  0
 34 31  1  6  0  0  0
 34 36  1  0  0  0  0
 35 37  1  6  0  0  0
 35 36  1  0  0  0  0
 37 40  1  0  0  0  0
 38 37  1  0  0  0  0
 39 37  1  0  0  0  0
 42 44  1  0  0  0  0
 43 42  1  0  0  0  0
 44 41  2  0  0  0  0
 46 49  1  0  0  0  0
 47 52  1  0  0  0  0
 48 47  2  0  0  0  0
 49 50  1  0  0  0  0
 50 53  1  0  0  0  0
 50 52  2  0  0  0  0
 51 49  2  0  0  0  0
 51 48  1  0  0  0  0
 52 45  1  0  0  0  0
 55 54  2  0  0  0  0
 55 53  1  0  0  0  0
 56 55  1  0  0  0  0
 57 56  1  0  0  0  0
 58 59  1  0  0  0  0
 58 57  1  0  0  0  0
 60 61  1  0  0  0  0
 61 59  1  0  0  0  0
M  END
>  <MODEL>
2

>  <REMARK>
 VINA RESULT:      -7.1      1.604      2.289
  Name = 
  15 active torsions:
  status: ('A' for Active; 'I' for Inactive)
    1  A    between atoms: C_1  and  C_8
    2  A    between atoms: C_1  and  C_25
    3  A    between atoms: O_2  and  C_58
    4  A    between atoms: O_2  and  O_59
    5  A    between atoms: C_8  and  C_26
    6  A    between atoms: C_9  and  C_57
    7  A    between atoms: C_11  and  C_49
    8  A    between atoms: C_11  and  C_58
    9  A    between atoms: C_20  and  C_29
   10  A    between atoms: C_21  and  N_35
   11  A    between atoms: C_23  and  C_37
   12  A    between atoms: C_23  and  O_59
   13  A    between atoms: C_25  and  C_28
   14  A    between atoms: N_35  and  C_55
   15  A    between atoms: C_37  and  C_47
                            x       y       z     vdW  Elec       q    Type
                         _______ _______ _______ _____ _____    ______ ____

>  <TORSDO>
F 15

$$$$
=
 OpenBabel11042419403D

 61 67  0  0  1  0  0  0  0  0999 V2000
  188.5880  176.0240  142.5540 C   0  0  1  0  0  3  0  0  0  0  0  0
  185.4260  178.3200  141.8630 S   0  0  0  0  0  0  0  0  0  0  0  0
  188.4850  176.0220  145.0260 N   0  0  0  0  0  0  0  0  0  0  0  0
  186.4710  176.5190  143.7580 C   0  0  1  0  0  3  0  0  0  0  0  0
  186.2370  176.6960  142.2420 C   0  0  2  0  0  3  0  0  0  0  0  0
  191.4490  172.1220  141.8770 C   0  0  0  0  0  2  0  0  0  0  0  0
  185.8650  178.2140  145.6400 C   0  0  0  0  0  3  0  0  0  0  0  0
  190.3590  174.4260  144.8650 C   0  0  0  0  0  3  0  0  0  0  0  0
  187.9020  176.1470  143.8690 C   0  0  0  0  0  0  0  0  0  0  0  0
  189.7700  174.6040  141.3000 C   0  0  0  0  0  2  0  0  0  0  0  0
  189.6560  173.2890  140.5410 C   0  0  2  0  0  3  0  0  0  0  0  0
  188.7470  174.6690  142.2510 O   0  0  0  0  0  0  0  0  0  0  0  0
  191.2590  171.6440  144.3320 C   0  0  0  0  0  2  0  0  0  0  0  0
  193.4920  172.4320  145.0730 C   0  0  0  0  0  3  0  0  0  0  0  0
  191.9900  176.2150  146.2700 C   0  0  0  0  0  3  0  0  0  0  0  0
  185.1920  179.3480  145.5200 O   0  0  0  0  0  0  0  0  0  0  0  0
  191.6810  174.0570  145.1810 C   0  0  0  0  0  0  0  0  0  0  0  0
  185.0170  179.6940  144.2730 N   0  0  0  0  0  0  0  0  0  0  0  0
  185.6770  178.7780  143.5520 C   0  0  0  0  0  0  0  0  0  0  0  0
  190.6760  176.5670  145.9610 C   0  0  0  0  0  0  0  0  0  0  0  0
  187.6060  176.6550  141.5710 C   0  0  0  0  0  2  0  0  0  0  0  0
  192.4880  174.9710  145.8840 C   0  0  0  0  0  3  0  0  0  0  0  0
  189.9890  172.1120  141.4530 C   0  0  0  0  0  2  0  0  0  0  0  0
  189.8590  175.6830  145.2420 C   0  0  0  0  0  0  0  0  0  0  0  0
  192.2020  172.7070  144.8400 C   0  0  0  0  0  0  0  0  0  0  0  0
  191.6760  171.0990  142.9700 C   0  0  0  0  0  2  0  0  0  0  0  0
  186.1980  177.8440  144.3560 C   0  0  0  0  0  0  0  0  0  0  0  0
  190.1870  177.8030  146.3680 O   0  0  0  0  0  1  0  0  0  0  0  0
  194.1300  171.0990  144.8560 C   0  0  0  0  0  2  0  0  0  0  0  0
  195.6050  171.2650  144.5200 C   0  0  0  0  0  2  0  0  0  0  0  0
  195.8240  171.3860  143.0150 C   0  0  0  0  0  2  0  0  0  0  0  0
  196.1380  173.8620  140.9240 C   0  0  1  0  0  3  0  0  0  0  0  0
  197.2240  172.4270  140.9060 S   0  0  0  0  0  0  0  0  0  0  0  0
  197.0040  172.2950  142.6940 C   0  0  1  0  0  3  0  0  0  0  0  0
  196.3000  174.5520  142.2710 C   0  0  2  0  0  3  0  0  0  0  0  0
  196.8080  173.6190  143.2810 N   0  0  0  0  0  2  0  0  0  0  0  0
  194.9910  175.1870  142.7440 C   0  0  0  0  0  0  0  0  0  0  0  0
  194.8190  176.4230  142.1480 F   0  0  0  0  0  0  0  0  0  0  0  0
  195.0340  175.3590  144.1160 F   0  0  0  0  0  0  0  0  0  0  0  0
  193.9180  174.3710  142.4220 F   0  0  0  0  0  0  0  0  0  0  0  0
  197.1700  175.8240  140.0260 O   0  0  0  0  0  0  0  0  0  0  0  0
  196.0350  174.4880  138.4850 N   0  0  0  0  0  2  0  0  0  0  0  0
  196.3250  175.3560  137.3560 C   0  0  0  0  0  1  0  0  0  0  0  0
  196.4840  174.7890  139.8040 C   0  0  0  0  0  0  0  0  0  0  0  0
  190.5170  173.2780  139.3650 N   0  0  0  0  0  2  0  0  0  0  0  0
  190.4430  172.6500  134.5160 O   0  0  0  0  0  1  0  0  0  0  0  0
  189.9840  171.0860  138.3740 C   0  0  0  0  0  3  0  0  0  0  0  0
  189.8010  170.2710  137.2570 C   0  0  0  0  0  3  0  0  0  0  0  0
  190.2810  172.1490  135.8030 C   0  0  0  0  0  0  0  0  0  0  0  0
  190.4470  172.9830  136.9260 C   0  0  0  0  0  0  0  0  0  0  0  0
  189.9520  170.8010  135.9730 C   0  0  0  0  0  3  0  0  0  0  0  0
  190.3080  172.4430  138.2200 C   0  0  0  0  0  0  0  0  0  0  0  0
  190.8510  174.4200  136.7630 C   0  0  0  0  0  2  0  0  0  0  0  0
  192.8400  175.7240  136.5090 O   0  0  0  0  0  0  0  0  0  0  0  0
  192.3380  174.5870  136.7170 C   0  0  0  0  0  0  0  0  0  0  0  0
  193.1760  173.4950  136.9400 O   0  0  0  0  0  0  0  0  0  0  0  0
  193.9780  173.0400  135.9680 O   0  0  0  0  0  0  0  0  0  0  0  0
  194.6000  171.9130  136.5060 C   0  0  0  0  0  2  0  0  0  0  0  0
  193.5430  170.9290  136.9700 C   0  0  0  0  0  2  0  0  0  0  0  0
  193.9430  171.3570  139.2880 O   0  0  0  0  0  1  0  0  0  0  0  0
  193.9190  170.3510  138.3210 C   0  0  0  0  0  2  0  0  0  0  0  0
  1 21  1  6  0  0  0
  1  9  1  0  0  0  0
  2  5  1  0  0  0  0
  2 19  1  0  0  0  0
  3 24  1  0  0  0  0
  4  9  1  6  0  0  0
  4 27  1  0  0  0  0
  5 21  1  6  0  0  0
  5  4  1  0  0  0  0
  6 26  1  0  0  0  0
  8 17  2  0  0  0  0
  8 24  1  0  0  0  0
  9  3  2  0  0  0  0
 10 12  1  0  0  0  0
 11 45  1  6  0  0  0
 11 10  1  0  0  0  0
 11 23  1  0  0  0  0
 12  1  1  0  0  0  0
 13 25  1  0  0  0  0
 16  7  1  0  0  0  0
 17 22  1  0  0  0  0
 18 16  1  0  0  0  0
 19 18  2  0  0  0  0
 19 27  1  0  0  0  0
 20 15  1  0  0  0  0
 20 28  1  0  0  0  0
 22 15  2  0  0  0  0
 23  6  1  0  0  0  0
 24 20  2  0  0  0  0
 25 14  2  0  0  0  0
 25 17  1  0  0  0  0
 26 13  1  0  0  0  0
 27  7  2  0  0  0  0
 29 14  1  0  0  0  0
 30 29  1  0  0  0  0
 31 30  1  0  0  0  0
 32 44  1  6  0  0  0
 32 35  1  0  0  0  0
 33 32  1  0  0  0  0
 33 34  1  0  0  0  0
 34 31  1  6  0  0  0
 34 36  1  0  0  0  0
 35 37  1  1  0  0  0
 35 36  1  0  0  0  0
 37 39  1  0  0  0  0
 38 37  1  0  0  0  0
 40 37  1  0  0  0  0
 42 44  1  0  0  0  0
 43 42  1  0  0  0  0
 44 41  2  0  0  0  0
 46 49  1  0  0  0  0
 48 47  2  0  0  0  0
 49 51  2  0  0  0  0
 49 50  1  0  0  0  0
 50 52  2  0  0  0  0
 51 48  1  0  0  0  0
 52 47  1  0  0  0  0
 52 45  1  0  0  0  0
 53 50  1  0  0  0  0
 54 55  2  0  0  0  0
 55 53  1  0  0  0  0
 55 56  1  0  0  0  0
 57 58  1  0  0  0  0
 57 56  1  0  0  0  0
 58 59  1  0  0  0  0
 59 61  1  0  0  0  0
 61 60  1  0  0  0  0
M  END
>  <MODEL>
3

>  <REMARK>
 VINA RESULT:      -7.0      1.456      2.132
  Name = 
  15 active torsions:
  status: ('A' for Active; 'I' for Inactive)
    1  A    between atoms: C_1  and  C_8
    2  A    between atoms: C_1  and  C_25
    3  A    between atoms: O_2  and  C_58
    4  A    between atoms: O_2  and  O_59
    5  A    between atoms: C_8  and  C_26
    6  A    between atoms: C_9  and  C_57
    7  A    between atoms: C_11  and  C_49
    8  A    between atoms: C_11  and  C_58
    9  A    between atoms: C_20  and  C_29
   10  A    between atoms: C_21  and  N_35
   11  A    between atoms: C_23  and  C_37
   12  A    between atoms: C_23  and  O_59
   13  A    between atoms: C_25  and  C_28
   14  A    between atoms: N_35  and  C_55
   15  A    between atoms: C_37  and  C_47
                            x       y       z     vdW  Elec       q    Type
                         _______ _______ _______ _____ _____    ______ ____

>  <TORSDO>
F 15

$$$$
=
 OpenBabel11042419403D

 61 67  0  0  1  0  0  0  0  0999 V2000
  188.7300  176.1700  142.7660 C   0  0  1  0  0  3  0  0  0  0  0  0
  185.4860  178.3440  142.0570 S   0  0  0  0  0  0  0  0  0  0  0  0
  188.4960  175.9840  145.2210 N   0  0  0  0  0  0  0  0  0  0  0  0
  186.5280  176.4670  143.8790 C   0  0  1  0  0  3  0  0  0  0  0  0
  186.3650  176.7400  142.3680 C   0  0  2  0  0  3  0  0  0  0  0  0
  191.8340  172.4800  141.9830 C   0  0  0  0  0  2  0  0  0  0  0  0
  185.7300  177.9880  145.8360 C   0  0  0  0  0  3  0  0  0  0  0  0
  190.4620  174.5020  145.0570 C   0  0  0  0  0  3  0  0  0  0  0  0
  187.9700  176.1620  144.0440 C   0  0  0  0  0  0  0  0  0  0  0  0
  190.0540  174.9070  141.4850 C   0  0  0  0  0  2  0  0  0  0  0  0
  190.0540  173.6460  140.6310 C   0  0  2  0  0  3  0  0  0  0  0  0
  188.9800  174.8510  142.3790 O   0  0  0  0  0  0  0  0  0  0  0  0
  191.5420  171.8160  144.3840 C   0  0  0  0  0  2  0  0  0  0  0  0
  193.6860  172.6630  145.3040 C   0  0  0  0  0  3  0  0  0  0  0  0
  191.9150  176.2670  146.6730 C   0  0  0  0  0  3  0  0  0  0  0  0
  185.0020  179.0910  145.7570 O   0  0  0  0  0  0  0  0  0  0  0  0
  191.7840  174.1800  145.4210 C   0  0  0  0  0  0  0  0  0  0  0  0
  184.8750  179.5170  144.5290 N   0  0  0  0  0  0  0  0  0  0  0  0
  185.6220  178.6900  143.7850 C   0  0  0  0  0  0  0  0  0  0  0  0
  190.6010  176.5720  146.3150 C   0  0  0  0  0  0  0  0  0  0  0  0
  187.7680  176.8190  141.7740 C   0  0  0  0  0  2  0  0  0  0  0  0
  192.5000  175.0820  146.2310 C   0  0  0  0  0  3  0  0  0  0  0  0
  190.4020  172.4250  141.4770 C   0  0  0  0  0  2  0  0  0  0  0  0
  189.8740  175.7010  145.4910 C   0  0  0  0  0  0  0  0  0  0  0  0
  192.3960  172.8870  145.0180 C   0  0  0  0  0  0  0  0  0  0  0  0
  192.0600  171.3930  143.0130 C   0  0  0  0  0  2  0  0  0  0  0  0
  186.1510  177.7290  144.5510 C   0  0  0  0  0  0  0  0  0  0  0  0
  190.0230  177.7480  146.7780 O   0  0  0  0  0  1  0  0  0  0  0  0
  194.4060  171.3830  145.0310 C   0  0  0  0  0  2  0  0  0  0  0  0
  195.8340  171.6640  144.5820 C   0  0  0  0  0  2  0  0  0  0  0  0
  195.8780  172.1470  143.1360 C   0  0  0  0  0  2  0  0  0  0  0  0
  196.3890  174.2140  140.6730 C   0  0  1  0  0  3  0  0  0  0  0  0
  197.6810  173.1520  141.3380 S   0  0  0  0  0  0  0  0  0  0  0  0
  196.8870  173.2750  142.9550 C   0  0  1  0  0  3  0  0  0  0  0  0
  195.9310  175.1430  141.7870 C   0  0  2  0  0  3  0  0  0  0  0  0
  196.2350  174.5740  143.1030 N   0  0  0  0  0  2  0  0  0  0  0  0
  194.4390  175.4660  141.6790 C   0  0  0  0  0  0  0  0  0  0  0  0
  193.7990  175.1660  142.8680 F   0  0  0  0  0  0  0  0  0  0  0  0
  193.8780  174.7060  140.6690 F   0  0  0  0  0  0  0  0  0  0  0  0
  194.2590  176.8100  141.3900 F   0  0  0  0  0  0  0  0  0  0  0  0
  197.8050  175.8610  139.6720 O   0  0  0  0  0  0  0  0  0  0  0  0
  196.3760  174.7380  138.2070 N   0  0  0  0  0  2  0  0  0  0  0  0
  196.8270  175.4710  137.0360 C   0  0  0  0  0  1  0  0  0  0  0  0
  196.9060  174.9920  139.5070 C   0  0  0  0  0  0  0  0  0  0  0  0
  190.9750  173.7650  139.5090 N   0  0  0  0  0  2  0  0  0  0  0  0
  189.3290  171.0740  135.7710 O   0  0  0  0  0  1  0  0  0  0  0  0
  192.4250  172.1120  138.3950 C   0  0  0  0  0  3  0  0  0  0  0  0
  192.6260  171.1360  137.4180 C   0  0  0  0  0  3  0  0  0  0  0  0
  190.3420  171.4200  136.6590 C   0  0  0  0  0  0  0  0  0  0  0  0
  190.1260  172.3920  137.6550 C   0  0  0  0  0  0  0  0  0  0  0  0
  191.5870  170.7920  136.5500 C   0  0  0  0  0  3  0  0  0  0  0  0
  191.1790  172.7470  138.5210 C   0  0  0  0  0  0  0  0  0  0  0  0
  188.8120  173.1130  137.7520 C   0  0  0  0  0  2  0  0  0  0  0  0
  187.8490  175.1620  136.9830 O   0  0  0  0  0  0  0  0  0  0  0  0
  188.7430  174.2880  136.8270 C   0  0  0  0  0  0  0  0  0  0  0  0
  189.6850  174.4400  135.8110 O   0  0  0  0  0  0  0  0  0  0  0  0
  190.0300  175.6590  135.3770 O   0  0  0  0  0  0  0  0  0  0  0  0
  191.3490  175.5310  134.9390 C   0  0  0  0  0  2  0  0  0  0  0  0
  192.2910  175.7770  136.1020 C   0  0  0  0  0  2  0  0  0  0  0  0
  193.1800  177.9240  135.5390 O   0  0  0  0  0  1  0  0  0  0  0  0
  193.5000  176.5700  135.6410 C   0  0  0  0  0  2  0  0  0  0  0  0
  1 21  1  6  0  0  0
  1  9  1  0  0  0  0
  2  5  1  0  0  0  0
  2 19  1  0  0  0  0
  3 24  1  0  0  0  0
  4  9  1  6  0  0  0
  4 27  1  0  0  0  0
  5 21  1  6  0  0  0
  5  4  1  0  0  0  0
  6 26  1  0  0  0  0
  8 17  2  0  0  0  0
  8 24  1  0  0  0  0
  9  3  2  0  0  0  0
 10 12  1  0  0  0  0
 11 45  1  6  0  0  0
 11 23  1  0  0  0  0
 11 10  1  0  0  0  0
 12  1  1  0  0  0  0
 13 25  1  0  0  0  0
 16  7  1  0  0  0  0
 17 22  1  0  0  0  0
 18 16  1  0  0  0  0
 19 18  2  0  0  0  0
 19 27  1  0  0  0  0
 20 15  1  0  0  0  0
 20 28  1  0  0  0  0
 22 15  2  0  0  0  0
 23  6  1  0  0  0  0
 24 20  2  0  0  0  0
 25 14  2  0  0  0  0
 25 17  1  0  0  0  0
 26 13  1  0  0  0  0
 27  7  2  0  0  0  0
 29 14  1  0  0  0  0
 30 29  1  0  0  0  0
 31 30  1  0  0  0  0
 32 44  1  6  0  0  0
 32 33  1  0  0  0  0
 32 35  1  0  0  0  0
 33 34  1  0  0  0  0
 34 36  1  0  0  0  0
 34 31  1  6  0  0  0
 35 37  1  1  0  0  0
 35 36  1  0  0  0  0
 37 38  1  0  0  0  0
 39 37  1  0  0  0  0
 40 37  1  0  0  0  0
 42 44  1  0  0  0  0
 43 42  1  0  0  0  0
 44 41  2  0  0  0  0
 46 49  1  0  0  0  0
 47 52  1  0  0  0  0
 48 47  2  0  0  0  0
 49 50  1  0  0  0  0
 50 53  1  0  0  0  0
 50 52  2  0  0  0  0
 51 49  2  0  0  0  0
 51 48  1  0  0  0  0
 52 45  1  0  0  0  0
 55 54  2  0  0  0  0
 55 53  1  0  0  0  0
 56 55  1  0  0  0  0
 57 56  1  0  0  0  0
 58 57  1  0  0  0  0
 58 59  1  0  0  0  0
 60 61  1  0  0  0  0
 61 59  1  0  0  0  0
M  END
>  <MODEL>
4

>  <REMARK>
 VINA RESULT:      -6.9      1.627      2.192
  Name = 
  15 active torsions:
  status: ('A' for Active; 'I' for Inactive)
    1  A    between atoms: C_1  and  C_8
    2  A    between atoms: C_1  and  C_25
    3  A    between atoms: O_2  and  C_58
    4  A    between atoms: O_2  and  O_59
    5  A    between atoms: C_8  and  C_26
    6  A    between atoms: C_9  and  C_57
    7  A    between atoms: C_11  and  C_49
    8  A    between atoms: C_11  and  C_58
    9  A    between atoms: C_20  and  C_29
   10  A    between atoms: C_21  and  N_35
   11  A    between atoms: C_23  and  C_37
   12  A    between atoms: C_23  and  O_59
   13  A    between atoms: C_25  and  C_28
   14  A    between atoms: N_35  and  C_55
   15  A    between atoms: C_37  and  C_47
                            x       y       z     vdW  Elec       q    Type
                         _______ _______ _______ _____ _____    ______ ____

>  <TORSDO>
F 15

$$$$
=
 OpenBabel11042419403D

 61 67  0  0  1  0  0  0  0  0999 V2000
  188.4800  176.2320  143.0730 C   0  0  1  0  0  3  0  0  0  0  0  0
  185.1290  178.2590  142.4340 S   0  0  0  0  0  0  0  0  0  0  0  0
  188.3100  176.0450  145.5340 N   0  0  0  0  0  0  0  0  0  0  0  0
  186.2930  176.4370  144.2360 C   0  0  1  0  0  3  0  0  0  0  0  0
  186.0830  176.6970  142.7290 C   0  0  2  0  0  3  0  0  0  0  0  0
  191.7230  172.6770  142.2290 C   0  0  0  0  0  2  0  0  0  0  0  0
  185.4750  177.9300  146.2080 C   0  0  0  0  0  3  0  0  0  0  0  0
  190.3350  174.6500  145.3290 C   0  0  0  0  0  3  0  0  0  0  0  0
  187.7500  176.1950  144.3700 C   0  0  0  0  0  0  0  0  0  0  0  0
  189.8270  175.0220  141.7660 C   0  0  0  0  0  2  0  0  0  0  0  0
  189.8620  173.7590  140.9160 C   0  0  2  0  0  3  0  0  0  0  0  0
  188.7770  174.9230  142.6850 O   0  0  0  0  0  0  0  0  0  0  0  0
  191.5150  172.0100  144.6380 C   0  0  0  0  0  2  0  0  0  0  0  0
  193.6400  172.9530  145.5060 C   0  0  0  0  0  3  0  0  0  0  0  0
  191.7460  176.4830  146.9050 C   0  0  0  0  0  3  0  0  0  0  0  0
  184.6980  179.0000  146.1430 O   0  0  0  0  0  0  0  0  0  0  0  0
  191.6780  174.3870  145.6630 C   0  0  0  0  0  0  0  0  0  0  0  0
  184.5240  179.4150  144.9170 N   0  0  0  0  0  0  0  0  0  0  0  0
  185.2880  178.6190  144.1580 C   0  0  0  0  0  0  0  0  0  0  0  0
  190.4120  176.7290  146.5770 C   0  0  0  0  0  0  0  0  0  0  0  0
  187.4680  176.8340  142.1030 C   0  0  0  0  0  2  0  0  0  0  0  0
  192.3730  175.3220  146.4530 C   0  0  0  0  0  3  0  0  0  0  0  0
  190.2830  172.5580  141.7570 C   0  0  0  0  0  2  0  0  0  0  0  0
  189.7050  175.8240  145.7730 C   0  0  0  0  0  0  0  0  0  0  0  0
  192.3360  173.1200  145.2490 C   0  0  0  0  0  0  0  0  0  0  0  0
  192.0190  171.6050  143.2580 C   0  0  0  0  0  2  0  0  0  0  0  0
  185.8770  177.6840  144.9130 C   0  0  0  0  0  0  0  0  0  0  0  0
  189.7950  177.8810  147.0500 O   0  0  0  0  0  1  0  0  0  0  0  0
  194.4100  171.7050  145.2200 C   0  0  0  0  0  2  0  0  0  0  0  0
  195.8940  172.0170  145.0860 C   0  0  0  0  0  2  0  0  0  0  0  0
  196.4120  171.6710  143.6940 C   0  0  0  0  0  2  0  0  0  0  0  0
  196.5370  174.0750  141.5010 C   0  0  1  0  0  3  0  0  0  0  0  0
  197.6610  172.6700  141.4720 S   0  0  0  0  0  0  0  0  0  0  0  0
  197.5450  172.5990  143.2740 C   0  0  1  0  0  3  0  0  0  0  0  0
  196.7540  174.8180  142.8110 C   0  0  2  0  0  3  0  0  0  0  0  0
  197.3440  173.9380  143.8230 N   0  0  0  0  0  2  0  0  0  0  0  0
  195.4550  175.4350  143.3350 C   0  0  0  0  0  0  0  0  0  0  0  0
  195.3280  176.7350  142.8800 F   0  0  0  0  0  0  0  0  0  0  0  0
  195.4800  175.4510  144.7190 F   0  0  0  0  0  0  0  0  0  0  0  0
  194.3650  174.6930  142.9090 F   0  0  0  0  0  0  0  0  0  0  0  0
  197.1900  176.1520  140.5110 O   0  0  0  0  0  0  0  0  0  0  0  0
  196.5850  174.4680  139.0120 N   0  0  0  0  0  2  0  0  0  0  0  0
  196.8010  175.2910  137.8340 C   0  0  0  0  0  1  0  0  0  0  0  0
  196.7920  174.9690  140.3310 C   0  0  0  0  0  0  0  0  0  0  0  0
  190.7510  173.9130  139.7720 N   0  0  0  0  0  2  0  0  0  0  0  0
  191.9200  171.0270  136.0020 O   0  0  0  0  0  1  0  0  0  0  0  0
  189.3170  173.7880  137.7720 C   0  0  0  0  0  3  0  0  0  0  0  0
  189.0410  173.2720  136.5060 C   0  0  0  0  0  3  0  0  0  0  0  0
  191.0730  171.9550  136.5970 C   0  0  0  0  0  0  0  0  0  0  0  0
  191.3680  172.4870  137.8680 C   0  0  0  0  0  0  0  0  0  0  0  0
  189.9170  172.3550  135.9200 C   0  0  0  0  0  3  0  0  0  0  0  0
  190.4770  173.4010  138.4630 C   0  0  0  0  0  0  0  0  0  0  0  0
  192.5780  172.0290  138.6310 C   0  0  0  0  0  2  0  0  0  0  0  0
  191.2950  170.2130  139.5100 O   0  0  0  0  0  0  0  0  0  0  0  0
  192.4260  170.6320  139.1440 C   0  0  0  0  0  0  0  0  0  0  0  0
  193.5240  169.7740  139.1880 O   0  0  0  0  0  0  0  0  0  0  0  0
  193.7320  168.8800  138.2130 O   0  0  0  0  0  0  0  0  0  0  0  0
  194.7980  169.3890  137.4720 C   0  0  0  0  0  2  0  0  0  0  0  0
  195.9960  169.5810  138.3820 C   0  0  0  0  0  2  0  0  0  0  0  0
  196.6380  171.2460  136.7900 O   0  0  0  0  0  1  0  0  0  0  0  0
  196.6170  170.9470  138.1530 C   0  0  0  0  0  2  0  0  0  0  0  0
  1 21  1  6  0  0  0
  1  9  1  0  0  0  0
  2  5  1  0  0  0  0
  2 19  1  0  0  0  0
  3 24  1  0  0  0  0
  4  9  1  6  0  0  0
  4 27  1  0  0  0  0
  5 21  1  6  0  0  0
  5  4  1  0  0  0  0
  6 26  1  0  0  0  0
  8 17  2  0  0  0  0
  8 24  1  0  0  0  0
  9  3  2  0  0  0  0
 10 12  1  0  0  0  0
 11 45  1  6  0  0  0
 11 23  1  0  0  0  0
 11 10  1  0  0  0  0
 12  1  1  0  0  0  0
 13 25  1  0  0  0  0
 16  7  1  0  0  0  0
 17 22  1  0  0  0  0
 18 16  1  0  0  0  0
 19 27  1  0  0  0  0
 19 18  2  0  0  0  0
 20 15  1  0  0  0  0
 20 28  1  0  0  0  0
 22 15  2  0  0  0  0
 23  6  1  0  0  0  0
 24 20  2  0  0  0  0
 25 14  2  0  0  0  0
 25 17  1  0  0  0  0
 26 13  1  0  0  0  0
 27  7  2  0  0  0  0
 29 14  1  0  0  0  0
 30 29  1  0  0  0  0
 31 30  1  0  0  0  0
 32 44  1  6  0  0  0
 32 35  1  0  0  0  0
 33 32  1  0  0  0  0
 33 34  1  0  0  0  0
 34 31  1  6  0  0  0
 34 36  1  0  0  0  0
 35 37  1  1  0  0  0
 35 36  1  0  0  0  0
 37 39  1  0  0  0  0
 38 37  1  0  0  0  0
 40 37  1  0  0  0  0
 42 44  1  0  0  0  0
 43 42  1  0  0  0  0
 44 41  2  0  0  0  0
 46 49  1  0  0  0  0
 47 52  1  0  0  0  0
 48 47  2  0  0  0  0
 49 50  1  0  0  0  0
 50 52  2  0  0  0  0
 50 53  1  0  0  0  0
 51 48  1  0  0  0  0
 51 49  2  0  0  0  0
 52 45  1  0  0  0  0
 53 55  1  0  0  0  0
 55 56  1  0  0  0  0
 55 54  2  0  0  0  0
 57 56  1  0  0  0  0
 58 57  1  0  0  0  0
 58 59  1  0  0  0  0
 60 61  1  0  0  0  0
 61 59  1  0  0  0  0
M  END
>  <MODEL>
5

>  <REMARK>
 VINA RESULT:      -6.6      1.537      2.253
  Name = 
  15 active torsions:
  status: ('A' for Active; 'I' for Inactive)
    1  A    between atoms: C_1  and  C_8
    2  A    between atoms: C_1  and  C_25
    3  A    between atoms: O_2  and  C_58
    4  A    between atoms: O_2  and  O_59
    5  A    between atoms: C_8  and  C_26
    6  A    between atoms: C_9  and  C_57
    7  A    between atoms: C_11  and  C_49
    8  A    between atoms: C_11  and  C_58
    9  A    between atoms: C_20  and  C_29
   10  A    between atoms: C_21  and  N_35
   11  A    between atoms: C_23  and  C_37
   12  A    between atoms: C_23  and  O_59
   13  A    between atoms: C_25  and  C_28
   14  A    between atoms: N_35  and  C_55
   15  A    between atoms: C_37  and  C_47
                            x       y       z     vdW  Elec       q    Type
                         _______ _______ _______ _____ _____    ______ ____

>  <TORSDO>
F 15

$$$$
=
 OpenBabel11042419403D

 61 67  0  0  1  0  0  0  0  0999 V2000
  193.8940  171.9970  140.3530 C   0  0  1  0  0  3  0  0  0  0  0  0
  197.1510  169.8930  141.2010 S   0  0  0  0  0  0  0  0  0  0  0  0
  193.3110  170.8920  138.2180 N   0  0  0  0  0  0  0  0  0  0  0  0
  194.7050  169.7080  139.8200 C   0  0  1  0  0  3  0  0  0  0  0  0
  195.3150  170.1530  141.1660 C   0  0  2  0  0  3  0  0  0  0  0  0
  189.5950  174.0850  141.3650 C   0  0  0  0  0  2  0  0  0  0  0  0
  195.9820  168.7190  137.7770 C   0  0  0  0  0  3  0  0  0  0  0  0
  191.3060  172.3280  138.2980 C   0  0  0  0  0  3  0  0  0  0  0  0
  193.8930  170.8700  139.3820 C   0  0  0  0  0  0  0  0  0  0  0  0
  192.5360  173.2950  141.5600 C   0  0  0  0  0  2  0  0  0  0  0  0
  191.5520  173.2540  142.7220 C   0  0  2  0  0  3  0  0  0  0  0  0
  192.6760  172.0050  141.0380 O   0  0  0  0  0  0  0  0  0  0  0  0
  188.6060  172.8200  139.4390 C   0  0  0  0  0  2  0  0  0  0  0  0
  188.4550  174.6590  137.7790 C   0  0  0  0  0  3  0  0  0  0  0  0
  192.0960  173.5480  135.9060 C   0  0  0  0  0  3  0  0  0  0  0  0
  197.2600  168.3830  137.7090 O   0  0  0  0  0  0  0  0  0  0  0  0
  190.4800  173.3080  137.7150 C   0  0  0  0  0  0  0  0  0  0  0  0
  197.9410  168.8030  138.7410 N   0  0  0  0  0  0  0  0  0  0  0  0
  197.0750  169.5130  139.4760 C   0  0  0  0  0  0  0  0  0  0  0  0
  192.9020  172.5680  136.4870 C   0  0  0  0  0  0  0  0  0  0  0  0
  195.0200  171.6430  141.3200 C   0  0  0  0  0  2  0  0  0  0  0  0
  190.8960  173.9140  136.5140 C   0  0  0  0  0  3  0  0  0  0  0  0
  190.1420  172.9540  142.2210 C   0  0  0  0  0  2  0  0  0  0  0  0
  192.5210  171.9650  137.6950 C   0  0  0  0  0  0  0  0  0  0  0  0
  189.1640  173.6560  138.3120 C   0  0  0  0  0  0  0  0  0  0  0  0
  188.3140  173.6460  140.6870 C   0  0  0  0  0  2  0  0  0  0  0  0
  195.8570  169.4720  138.9240 C   0  0  0  0  0  0  0  0  0  0  0  0
  194.0870  172.2000  135.8600 O   0  0  0  0  0  1  0  0  0  0  0  0
  187.0880  175.0640  138.2240 C   0  0  0  0  0  2  0  0  0  0  0  0
  187.1010  176.4950  138.7440 C   0  0  0  0  0  2  0  0  0  0  0  0
  186.9530  176.5380  140.2610 C   0  0  0  0  0  2  0  0  0  0  0  0
  186.0310  177.7470  143.1410 C   0  0  1  0  0  3  0  0  0  0  0  0
  185.2610  178.2330  141.5890 S   0  0  0  0  0  0  0  0  0  0  0  0
  186.8510  177.9710  140.7710 C   0  0  1  0  0  3  0  0  0  0  0  0
  187.4990  178.1430  143.0770 C   0  0  2  0  0  3  0  0  0  0  0  0
  187.9480  178.2690  141.6880 N   0  0  0  0  0  2  0  0  0  0  0  0
  188.3870  177.1540  143.8360 C   0  0  0  0  0  0  0  0  0  0  0  0
  189.5010  176.8370  143.0800 F   0  0  0  0  0  0  0  0  0  0  0  0
  187.6740  175.9940  144.0830 F   0  0  0  0  0  0  0  0  0  0  0  0
  188.7940  177.7020  145.0420 F   0  0  0  0  0  0  0  0  0  0  0  0
  185.1520  179.6590  144.2760 O   0  0  0  0  0  0  0  0  0  0  0  0
  184.9160  177.6260  145.3980 N   0  0  0  0  0  2  0  0  0  0  0  0
  184.2590  178.2160  146.5520 C   0  0  0  0  0  1  0  0  0  0  0  0
  185.3470  178.4130  144.2900 C   0  0  0  0  0  0  0  0  0  0  0  0
  191.5670  174.5020  143.4740 N   0  0  0  0  0  2  0  0  0  0  0  0
  191.4390  176.7660  147.8070 O   0  0  0  0  0  1  0  0  0  0  0  0
  189.9010  173.8870  145.1830 C   0  0  0  0  0  3  0  0  0  0  0  0
  189.3370  174.0610  146.4470 C   0  0  0  0  0  3  0  0  0  0  0  0
  190.9480  175.8050  146.9300 C   0  0  0  0  0  0  0  0  0  0  0  0
  191.5350  175.6220  145.6620 C   0  0  0  0  0  0  0  0  0  0  0  0
  189.8590  175.0200  147.3180 C   0  0  0  0  0  3  0  0  0  0  0  0
  191.0000  174.6630  144.7800 C   0  0  0  0  0  0  0  0  0  0  0  0
  192.6730  176.4910  145.2090 C   0  0  0  0  0  2  0  0  0  0  0  0
  194.5510  176.9950  146.6000 O   0  0  0  0  0  0  0  0  0  0  0  0
  193.9580  176.1390  145.8900 C   0  0  0  0  0  0  0  0  0  0  0  0
  194.4880  174.8550  145.7730 O   0  0  0  0  0  0  0  0  0  0  0  0
  194.5610  174.2520  144.5790 O   0  0  0  0  0  0  0  0  0  0  0  0
  195.7830  174.6550  144.0400 C   0  0  0  0  0  2  0  0  0  0  0  0
  195.5570  175.2160  142.6490 C   0  0  0  0  0  2  0  0  0  0  0  0
  196.6400  177.1820  143.4730 O   0  0  0  0  0  1  0  0  0  0  0  0
  196.5420  176.3360  142.3680 C   0  0  0  0  0  2  0  0  0  0  0  0
  1 12  1  0  0  0  0
  1 21  1  1  0  0  0
  3  9  2  0  0  0  0
  4 27  1  6  0  0  0
  4  5  1  0  0  0  0
  5  2  1  0  0  0  0
  5 21  1  6  0  0  0
  6 23  1  0  0  0  0
  7 27  2  0  0  0  0
  9  4  1  0  0  0  0
  9  1  1  0  0  0  0
 10 11  1  0  0  0  0
 11 45  1  6  0  0  0
 12 10  1  0  0  0  0
 13 26  1  0  0  0  0
 14 29  1  0  0  0  0
 14 25  2  0  0  0  0
 15 20  2  0  0  0  0
 15 22  1  0  0  0  0
 16  7  1  0  0  0  0
 16 18  1  0  0  0  0
 17  8  1  0  0  0  0
 17 25  1  0  0  0  0
 18 19  2  0  0  0  0
 19  2  1  0  0  0  0
 20 24  1  0  0  0  0
 22 17  2  0  0  0  0
 23 11  1  0  0  0  0
 24  3  1  0  0  0  0
 24  8  2  0  0  0  0
 25 13  1  0  0  0  0
 26  6  1  0  0  0  0
 27 19  1  0  0  0  0
 28 20  1  0  0  0  0
 29 30  1  0  0  0  0
 30 31  1  0  0  0  0
 32 44  1  1  0  0  0
 33 32  1  0  0  0  0
 34 31  1  1  0  0  0
 34 33  1  0  0  0  0
 34 36  1  0  0  0  0
 35 32  1  0  0  0  0
 35 37  1  6  0  0  0
 36 35  1  0  0  0  0
 37 39  1  0  0  0  0
 37 40  1  0  0  0  0
 38 37  1  0  0  0  0
 41 44  2  0  0  0  0
 42 43  1  0  0  0  0
 44 42  1  0  0  0  0
 45 52  1  0  0  0  0
 47 48  1  0  0  0  0
 48 51  2  0  0  0  0
 49 51  1  0  0  0  0
 49 46  1  0  0  0  0
 50 49  2  0  0  0  0
 52 47  2  0  0  0  0
 52 50  1  0  0  0  0
 53 50  1  0  0  0  0
 53 55  1  0  0  0  0
 55 54  2  0  0  0  0
 56 55  1  0  0  0  0
 57 56  1  0  0  0  0
 58 57  1  0  0  0  0
 59 58  1  0  0  0  0
 61 59  1  0  0  0  0
 61 60  1  0  0  0  0
M  END
>  <MODEL>
6

>  <REMARK>
 VINA RESULT:      -6.1      3.051     10.243
  Name = 
  15 active torsions:
  status: ('A' for Active; 'I' for Inactive)
    1  A    between atoms: C_1  and  C_8
    2  A    between atoms: C_1  and  C_25
    3  A    between atoms: O_2  and  C_58
    4  A    between atoms: O_2  and  O_59
    5  A    between atoms: C_8  and  C_26
    6  A    between atoms: C_9  and  C_57
    7  A    between atoms: C_11  and  C_49
    8  A    between atoms: C_11  and  C_58
    9  A    between atoms: C_20  and  C_29
   10  A    between atoms: C_21  and  N_35
   11  A    between atoms: C_23  and  C_37
   12  A    between atoms: C_23  and  O_59
   13  A    between atoms: C_25  and  C_28
   14  A    between atoms: N_35  and  C_55
   15  A    between atoms: C_37  and  C_47
                            x       y       z     vdW  Elec       q    Type
                         _______ _______ _______ _____ _____    ______ ____

>  <TORSDO>
F 15

$$$$
=
 OpenBabel11042419403D

 61 67  0  0  1  0  0  0  0  0999 V2000
  188.4520  176.3760  143.8930 C   0  0  1  0  0  3  0  0  0  0  0  0
  184.9120  178.1710  143.8420 S   0  0  0  0  0  0  0  0  0  0  0  0
  188.6380  176.0420  146.3370 N   0  0  0  0  0  0  0  0  0  0  0  0
  186.4380  176.3480  145.3500 C   0  0  1  0  0  3  0  0  0  0  0  0
  186.0040  176.6730  143.9050 C   0  0  2  0  0  3  0  0  0  0  0  0
  191.7840  173.1340  142.3930 C   0  0  0  0  0  2  0  0  0  0  0  0
  185.8000  177.6620  147.5060 C   0  0  0  0  0  3  0  0  0  0  0  0
  190.7060  174.8210  145.7720 C   0  0  0  0  0  3  0  0  0  0  0  0
  187.9130  176.2120  145.2700 C   0  0  0  0  0  0  0  0  0  0  0  0
  189.6850  175.3480  142.3410 C   0  0  0  0  0  2  0  0  0  0  0  0
  189.6890  174.1400  141.4140 C   0  0  2  0  0  3  0  0  0  0  0  0
  188.7820  175.1170  143.3840 O   0  0  0  0  0  0  0  0  0  0  0  0
  191.9580  172.3220  144.7600 C   0  0  0  0  0  2  0  0  0  0  0  0
  194.1130  173.3770  145.3940 C   0  0  0  0  0  3  0  0  0  0  0  0
  192.1920  176.6670  147.2610 C   0  0  0  0  0  3  0  0  0  0  0  0
  184.9500  178.6710  147.6150 O   0  0  0  0  0  0  0  0  0  0  0  0
  192.0970  174.6440  145.9050 C   0  0  0  0  0  0  0  0  0  0  0  0
  184.5790  179.1380  146.4530 N   0  0  0  0  0  0  0  0  0  0  0  0
  185.2840  178.4460  145.5480 C   0  0  0  0  0  0  0  0  0  0  0  0
  190.8120  176.8270  147.1310 C   0  0  0  0  0  0  0  0  0  0  0  0
  187.2760  176.9500  143.1080 C   0  0  0  0  0  2  0  0  0  0  0  0
  192.8290  175.5850  146.6540 C   0  0  0  0  0  3  0  0  0  0  0  0
  190.3050  172.9300  142.1110 C   0  0  0  0  0  2  0  0  0  0  0  0
  190.0640  175.9160  146.3720 C   0  0  0  0  0  0  0  0  0  0  0  0
  192.7780  173.4560  145.3260 C   0  0  0  0  0  0  0  0  0  0  0  0
  192.2940  172.0330  143.3000 C   0  0  0  0  0  2  0  0  0  0  0  0
  186.0340  177.5200  146.1560 C   0  0  0  0  0  0  0  0  0  0  0  0
  190.1880  177.9000  147.7570 O   0  0  0  0  0  1  0  0  0  0  0  0
  194.9200  172.2100  144.9270 C   0  0  0  0  0  2  0  0  0  0  0  0
  194.7310  171.0260  145.8650 C   0  0  0  0  0  2  0  0  0  0  0  0
  195.9680  170.1350  145.8940 C   0  0  0  0  0  2  0  0  0  0  0  0
  194.5150  169.2420  143.1200 C   0  0  1  0  0  3  0  0  0  0  0  0
  193.9670  168.6690  144.7350 S   0  0  0  0  0  0  0  0  0  0  0  0
  195.6810  168.7620  145.2980 C   0  0  1  0  0  3  0  0  0  0  0  0
  195.9410  168.7540  142.9110 C   0  0  2  0  0  3  0  0  0  0  0  0
  196.5940  168.4800  144.1940 N   0  0  0  0  0  2  0  0  0  0  0  0
  196.7670  169.7510  142.0950 C   0  0  0  0  0  0  0  0  0  0  0  0
  196.0200  170.8840  141.8300 F   0  0  0  0  0  0  0  0  0  0  0  0
  197.1320  169.1690  140.8940 F   0  0  0  0  0  0  0  0  0  0  0  0
  197.9110  170.1100  142.7920 F   0  0  0  0  0  0  0  0  0  0  0  0
  194.0920  168.1770  141.0210 O   0  0  0  0  0  0  0  0  0  0  0  0
  192.1980  168.8450  142.2100 N   0  0  0  0  0  2  0  0  0  0  0  0
  191.2660  168.3730  141.2000 C   0  0  0  0  0  1  0  0  0  0  0  0
  193.6100  168.7220  142.0510 C   0  0  0  0  0  0  0  0  0  0  0  0
  190.3990  174.4250  140.1740 N   0  0  0  0  0  2  0  0  0  0  0  0
  191.7680  171.3590  136.6180 O   0  0  0  0  0  1  0  0  0  0  0  0
  188.9190  173.9530  138.2610 C   0  0  0  0  0  3  0  0  0  0  0  0
  188.6620  173.2950  137.0580 C   0  0  0  0  0  3  0  0  0  0  0  0
  190.8380  172.2340  137.1690 C   0  0  0  0  0  0  0  0  0  0  0  0
  191.1120  172.9110  138.3740 C   0  0  0  0  0  0  0  0  0  0  0  0
  189.6190  172.4350  136.5140 C   0  0  0  0  0  3  0  0  0  0  0  0
  190.1410  173.7670  138.9280 C   0  0  0  0  0  0  0  0  0  0  0  0
  192.3950  172.6670  139.1170 C   0  0  0  0  0  2  0  0  0  0  0  0
  193.5590  173.9500  137.4690 O   0  0  0  0  0  0  0  0  0  0  0  0
  193.4870  173.5900  138.6750 C   0  0  0  0  0  0  0  0  0  0  0  0
  194.4080  174.0840  139.5970 O   0  0  0  0  0  0  0  0  0  0  0  0
  194.0070  174.8410  140.6250 O   0  0  0  0  0  0  0  0  0  0  0  0
  194.9300  174.5970  141.6420 C   0  0  0  0  0  2  0  0  0  0  0  0
  194.9060  175.7480  142.6300 C   0  0  0  0  0  2  0  0  0  0  0  0
  196.7070  175.5420  144.1880 O   0  0  0  0  0  1  0  0  0  0  0  0
  196.3210  176.1560  142.9970 C   0  0  0  0  0  2  0  0  0  0  0  0
  1 21  1  6  0  0  0
  1  9  1  0  0  0  0
  2  5  1  0  0  0  0
  2 19  1  0  0  0  0
  3 24  1  0  0  0  0
  4  9  1  6  0  0  0
  4 27  1  0  0  0  0
  5 21  1  6  0  0  0
  5  4  1  0  0  0  0
  6 26  1  0  0  0  0
  7 16  1  0  0  0  0
  8 17  2  0  0  0  0
  8 24  1  0  0  0  0
  9  3  2  0  0  0  0
 10 12  1  0  0  0  0
 11 45  1  6  0  0  0
 11 23  1  0  0  0  0
 11 10  1  0  0  0  0
 12  1  1  0  0  0  0
 13 25  1  0  0  0  0
 17 22  1  0  0  0  0
 18 16  1  0  0  0  0
 19 27  1  0  0  0  0
 19 18  2  0  0  0  0
 20 15  1  0  0  0  0
 20 28  1  0  0  0  0
 22 15  2  0  0  0  0
 23  6  1  0  0  0  0
 24 20  2  0  0  0  0
 25 14  2  0  0  0  0
 25 17  1  0  0  0  0
 26 13  1  0  0  0  0
 27  7  2  0  0  0  0
 29 14  1  0  0  0  0
 29 30  1  0  0  0  0
 30 31  1  0  0  0  0
 32 44  1  6  0  0  0
 32 33  1  0  0  0  0
 33 34  1  0  0  0  0
 34 31  1  6  0  0  0
 35 37  1  1  0  0  0
 35 32  1  0  0  0  0
 35 36  1  0  0  0  0
 36 34  1  0  0  0  0
 37 40  1  0  0  0  0
 38 37  1  0  0  0  0
 39 37  1  0  0  0  0
 41 44  2  0  0  0  0
 43 42  1  0  0  0  0
 44 42  1  0  0  0  0
 46 49  1  0  0  0  0
 47 52  1  0  0  0  0
 48 47  2  0  0  0  0
 49 50  1  0  0  0  0
 50 52  2  0  0  0  0
 50 53  1  0  0  0  0
 51 48  1  0  0  0  0
 51 49  2  0  0  0  0
 52 45  1  0  0  0  0
 54 55  2  0  0  0  0
 55 53  1  0  0  0  0
 55 56  1  0  0  0  0
 56 57  1  0  0  0  0
 57 58  1  0  0  0  0
 58 59  1  0  0  0  0
 59 61  1  0  0  0  0
 61 60  1  0  0  0  0
M  END
>  <MODEL>
7

>  <REMARK>
 VINA RESULT:      -5.8      2.530      3.785
  Name = 
  15 active torsions:
  status: ('A' for Active; 'I' for Inactive)
    1  A    between atoms: C_1  and  C_8
    2  A    between atoms: C_1  and  C_25
    3  A    between atoms: O_2  and  C_58
    4  A    between atoms: O_2  and  O_59
    5  A    between atoms: C_8  and  C_26
    6  A    between atoms: C_9  and  C_57
    7  A    between atoms: C_11  and  C_49
    8  A    between atoms: C_11  and  C_58
    9  A    between atoms: C_20  and  C_29
   10  A    between atoms: C_21  and  N_35
   11  A    between atoms: C_23  and  C_37
   12  A    between atoms: C_23  and  O_59
   13  A    between atoms: C_25  and  C_28
   14  A    between atoms: N_35  and  C_55
   15  A    between atoms: C_37  and  C_47
                            x       y       z     vdW  Elec       q    Type
                         _______ _______ _______ _____ _____    ______ ____

>  <TORSDO>
F 15

$$$$
=
 OpenBabel11042419403D

 61 67  0  0  1  0  0  0  0  0999 V2000
  188.4390  176.2180  142.6160 C   0  0  1  0  0  3  0  0  0  0  0  0
  185.3560  178.6600  142.0830 S   0  0  0  0  0  0  0  0  0  0  0  0
  188.2450  175.9420  145.0670 N   0  0  0  0  0  0  0  0  0  0  0  0
  186.2910  176.6310  143.7960 C   0  0  1  0  0  3  0  0  0  0  0  0
  186.1160  176.9820  142.3030 C   0  0  2  0  0  3  0  0  0  0  0  0
  191.2330  172.3420  141.6000 C   0  0  0  0  0  2  0  0  0  0  0  0
  185.6550  178.1200  145.8360 C   0  0  0  0  0  3  0  0  0  0  0  0
  190.0880  174.3240  144.7900 C   0  0  0  0  0  3  0  0  0  0  0  0
  187.7080  176.2100  143.9120 C   0  0  0  0  0  0  0  0  0  0  0  0
  189.6330  174.9160  141.2500 C   0  0  0  0  0  2  0  0  0  0  0  0
  189.5170  173.6980  140.3440 C   0  0  2  0  0  3  0  0  0  0  0  0
  188.5780  174.9020  142.1680 O   0  0  0  0  0  0  0  0  0  0  0  0
  190.9430  171.5960  143.9770 C   0  0  0  0  0  2  0  0  0  0  0  0
  193.1650  172.2370  144.8770 C   0  0  0  0  0  3  0  0  0  0  0  0
  191.7070  175.9010  146.4420 C   0  0  0  0  0  3  0  0  0  0  0  0
  185.0130  179.2780  145.8230 O   0  0  0  0  0  0  0  0  0  0  0  0
  191.3890  173.8870  145.1070 C   0  0  0  0  0  0  0  0  0  0  0  0
  184.8910  179.7660  144.6170 N   0  0  0  0  0  0  0  0  0  0  0  0
  185.5560  178.9180  143.8200 C   0  0  0  0  0  0  0  0  0  0  0  0
  190.4120  176.3200  146.1310 C   0  0  0  0  0  0  0  0  0  0  0  0
  187.5080  176.9800  141.6780 C   0  0  0  0  0  2  0  0  0  0  0  0
  192.1900  174.6950  145.9360 C   0  0  0  0  0  3  0  0  0  0  0  0
  189.7900  172.4170  141.1280 C   0  0  0  0  0  2  0  0  0  0  0  0
  189.6030  175.5440  145.2900 C   0  0  0  0  0  0  0  0  0  0  0  0
  191.8910  172.5700  144.6340 C   0  0  0  0  0  0  0  0  0  0  0  0
  191.3970  171.1960  142.5770 C   0  0  0  0  0  2  0  0  0  0  0  0
  186.0260  177.8870  144.5310 C   0  0  0  0  0  0  0  0  0  0  0  0
  189.9370  177.5150  146.6580 O   0  0  0  0  0  1  0  0  0  0  0  0
  193.7800  170.9200  144.5330 C   0  0  0  0  0  2  0  0  0  0  0  0
  195.2650  170.9230  144.8690 C   0  0  0  0  0  2  0  0  0  0  0  0
  196.0740  170.1600  143.8260 C   0  0  0  0  0  2  0  0  0  0  0  0
  196.5810  173.3600  143.4930 C   0  0  1  0  0  3  0  0  0  0  0  0
  196.8380  172.1870  142.1520 S   0  0  0  0  0  0  0  0  0  0  0  0
  197.3010  170.9500  143.3840 C   0  0  1  0  0  3  0  0  0  0  0  0
  197.5360  172.9950  144.6200 C   0  0  2  0  0  3  0  0  0  0  0  0
  197.9400  171.5900  144.5310 N   0  0  0  0  0  2  0  0  0  0  0  0
  196.9290  173.2880  145.9940 C   0  0  0  0  0  0  0  0  0  0  0  0
  197.7420  174.1570  146.6990 F   0  0  0  0  0  0  0  0  0  0  0  0
  196.8180  172.1080  146.7080 F   0  0  0  0  0  0  0  0  0  0  0  0
  195.6710  173.8530  145.8530 F   0  0  0  0  0  0  0  0  0  0  0  0
  197.6890  175.4770  143.5820 O   0  0  0  0  0  0  0  0  0  0  0  0
  196.0710  175.2580  141.9140 N   0  0  0  0  0  2  0  0  0  0  0  0
  196.2510  176.6090  141.4130 C   0  0  0  0  0  1  0  0  0  0  0  0
  196.8240  174.7550  143.0160 C   0  0  0  0  0  0  0  0  0  0  0  0
  190.4210  173.7960  139.2050 N   0  0  0  0  0  2  0  0  0  0  0  0
  192.8440  170.5090  136.5140 O   0  0  0  0  0  1  0  0  0  0  0  0
  189.3110  172.5930  137.3620 C   0  0  0  0  0  3  0  0  0  0  0  0
  189.3480  171.6620  136.3240 C   0  0  0  0  0  3  0  0  0  0  0  0
  191.6830  171.2190  136.7990 C   0  0  0  0  0  0  0  0  0  0  0  0
  191.6580  172.1720  137.8360 C   0  0  0  0  0  0  0  0  0  0  0  0
  190.5310  170.9740  136.0440 C   0  0  0  0  0  3  0  0  0  0  0  0
  190.4610  172.8560  138.1240 C   0  0  0  0  0  0  0  0  0  0  0  0
  192.8710  172.4110  138.6890 C   0  0  0  0  0  2  0  0  0  0  0  0
  193.2300  174.3140  137.2870 O   0  0  0  0  0  0  0  0  0  0  0  0
  193.6610  173.5960  138.2290 C   0  0  0  0  0  0  0  0  0  0  0  0
  194.8570  173.9330  138.8600 O   0  0  0  0  0  0  0  0  0  0  0  0
  195.6080  174.9450  138.4060 O   0  0  0  0  0  0  0  0  0  0  0  0
  196.8930  174.4180  138.2780 C   0  0  0  0  0  2  0  0  0  0  0  0
  197.0350  173.7640  136.9170 C   0  0  0  0  0  2  0  0  0  0  0  0
  196.5580  175.3220  135.1680 O   0  0  0  0  0  1  0  0  0  0  0  0
  197.5920  174.7550  135.9120 C   0  0  0  0  0  2  0  0  0  0  0  0
  1 21  1  6  0  0  0
  1  9  1  0  0  0  0
  2  5  1  0  0  0  0
  2 19  1  0  0  0  0
  3 24  1  0  0  0  0
  4  9  1  6  0  0  0
  4 27  1  0  0  0  0
  5 21  1  6  0  0  0
  5  4  1  0  0  0  0
  6 26  1  0  0  0  0
  8 17  2  0  0  0  0
  8 24  1  0  0  0  0
  9  3  2  0  0  0  0
 10 12  1  0  0  0  0
 11 45  1  6  0  0  0
 11 23  1  0  0  0  0
 11 10  1  0  0  0  0
 12  1  1  0  0  0  0
 13 25  1  0  0  0  0
 16  7  1  0  0  0  0
 17 22  1  0  0  0  0
 18 16  1  0  0  0  0
 19 27  1  0  0  0  0
 19 18  2  0  0  0  0
 20 15  1  0  0  0  0
 20 28  1  0  0  0  0
 22 15  2  0  0  0  0
 23  6  1  0  0  0  0
 24 20  2  0  0  0  0
 25 14  2  0  0  0  0
 25 17  1  0  0  0  0
 26 13  1  0  0  0  0
 27  7  2  0  0  0  0
 29 30  1  0  0  0  0
 29 14  1  0  0  0  0
 31 30  1  0  0  0  0
 32 44  1  6  0  0  0
 32 35  1  0  0  0  0
 33 34  1  0  0  0  0
 33 32  1  0  0  0  0
 34 31  1  1  0  0  0
 34 36  1  0  0  0  0
 35 37  1  1  0  0  0
 36 35  1  0  0  0  0
 37 38  1  0  0  0  0
 37 39  1  0  0  0  0
 40 37  1  0  0  0  0
 42 44  1  0  0  0  0
 43 42  1  0  0  0  0
 44 41  2  0  0  0  0
 46 49  1  0  0  0  0
 47 52  1  0  0  0  0
 48 47  2  0  0  0  0
 49 50  1  0  0  0  0
 50 52  2  0  0  0  0
 50 53  1  0  0  0  0
 51 48  1  0  0  0  0
 51 49  2  0  0  0  0
 52 45  1  0  0  0  0
 54 55  2  0  0  0  0
 55 53  1  0  0  0  0
 55 56  1  0  0  0  0
 57 56  1  0  0  0  0
 58 57  1  0  0  0  0
 59 58  1  0  0  0  0
 60 61  1  0  0  0  0
 61 59  1  0  0  0  0
M  END
>  <MODEL>
8

>  <REMARK>
 VINA RESULT:      -5.6      1.614      2.068
  Name = 
  15 active torsions:
  status: ('A' for Active; 'I' for Inactive)
    1  A    between atoms: C_1  and  C_8
    2  A    between atoms: C_1  and  C_25
    3  A    between atoms: O_2  and  C_58
    4  A    between atoms: O_2  and  O_59
    5  A    between atoms: C_8  and  C_26
    6  A    between atoms: C_9  and  C_57
    7  A    between atoms: C_11  and  C_49
    8  A    between atoms: C_11  and  C_58
    9  A    between atoms: C_20  and  C_29
   10  A    between atoms: C_21  and  N_35
   11  A    between atoms: C_23  and  C_37
   12  A    between atoms: C_23  and  O_59
   13  A    between atoms: C_25  and  C_28
   14  A    between atoms: N_35  and  C_55
   15  A    between atoms: C_37  and  C_47
                            x       y       z     vdW  Elec       q    Type
                         _______ _______ _______ _____ _____    ______ ____

>  <TORSDO>
F 15

$$$$
=
 OpenBabel11042419403D

 61 67  0  0  1  0  0  0  0  0999 V2000
  193.7080  171.0480  139.3920 C   0  0  1  0  0  3  0  0  0  0  0  0
  196.6200  168.8100  137.8890 S   0  0  0  0  0  0  0  0  0  0  0  0
  192.0470  170.7180  137.5880 N   0  0  0  0  0  0  0  0  0  0  0  0
  193.8170  169.0780  137.8810 C   0  0  1  0  0  3  0  0  0  0  0  0
  195.0380  169.0510  138.8260 C   0  0  2  0  0  3  0  0  0  0  0  0
  190.7340  172.6410  142.9260 C   0  0  0  0  0  2  0  0  0  0  0  0
  193.8450  168.8410  135.2880 C   0  0  0  0  0  3  0  0  0  0  0  0
  190.5520  172.0270  139.0510 C   0  0  0  0  0  3  0  0  0  0  0  0
  193.0860  170.3120  138.2580 C   0  0  0  0  0  0  0  0  0  0  0  0
  193.2740  171.8560  141.4290 C   0  0  0  0  0  2  0  0  0  0  0  0
  192.9390  171.4200  142.8490 C   0  0  2  0  0  3  0  0  0  0  0  0
  192.9570  170.8160  140.5480 O   0  0  0  0  0  0  0  0  0  0  0  0
  188.7890  172.0870  141.4430 C   0  0  0  0  0  2  0  0  0  0  0  0
  188.1820  174.3740  140.6960 C   0  0  0  0  0  3  0  0  0  0  0  0
  190.3370  173.9850  137.0620 C   0  0  0  0  0  3  0  0  0  0  0  0
  194.8800  168.5580  134.5130 O   0  0  0  0  0  0  0  0  0  0  0  0
  189.7150  173.1400  139.2620 C   0  0  0  0  0  0  0  0  0  0  0  0
  196.0140  168.6130  135.1580 N   0  0  0  0  0  0  0  0  0  0  0  0
  195.7030  169.0280  136.3930 C   0  0  0  0  0  0  0  0  0  0  0  0
  191.1560  172.8740  136.8590 C   0  0  0  0  0  0  0  0  0  0  0  0
  195.0810  170.4000  139.5380 C   0  0  0  0  0  2  0  0  0  0  0  0
  189.6220  174.1160  138.2520 C   0  0  0  0  0  3  0  0  0  0  0  0
  191.4290  171.2930  143.0300 C   0  0  0  0  0  2  0  0  0  0  0  0
  191.2830  171.8980  137.8580 C   0  0  0  0  0  0  0  0  0  0  0  0
  188.8910  173.2560  140.4940 C   0  0  0  0  0  0  0  0  0  0  0  0
  189.2340  172.4440  142.8570 C   0  0  0  0  0  2  0  0  0  0  0  0
  194.3780  169.1650  136.5150 C   0  0  0  0  0  0  0  0  0  0  0  0
  191.8490  172.7470  135.6610 O   0  0  0  0  0  1  0  0  0  0  0  0
  187.2530  174.5950  141.8440 C   0  0  0  0  0  2  0  0  0  0  0  0
  187.2220  176.0680  142.2260 C   0  0  0  0  0  2  0  0  0  0  0  0
  188.5820  176.7260  142.0180 C   0  0  0  0  0  2  0  0  0  0  0  0
  189.9530  176.7250  144.9710 C   0  0  1  0  0  3  0  0  0  0  0  0
  188.2860  177.3340  144.6710 S   0  0  0  0  0  0  0  0  0  0  0  0
  188.8200  177.8470  143.0230 C   0  0  1  0  0  3  0  0  0  0  0  0
  190.9150  177.5870  144.1670 C   0  0  2  0  0  3  0  0  0  0  0  0
  190.2300  178.2290  143.0420 N   0  0  0  0  0  2  0  0  0  0  0  0
  192.1160  176.7800  143.6680 C   0  0  0  0  0  0  0  0  0  0  0  0
  193.1790  176.9170  144.5420 F   0  0  0  0  0  0  0  0  0  0  0  0
  192.5010  177.2520  142.4250 F   0  0  0  0  0  0  0  0  0  0  0  0
  191.7830  175.4390  143.5610 F   0  0  0  0  0  0  0  0  0  0  0  0
  189.7130  177.6440  147.1670 O   0  0  0  0  0  0  0  0  0  0  0  0
  191.2120  175.8650  146.9790 N   0  0  0  0  0  2  0  0  0  0  0  0
  191.5760  175.8830  148.3850 C   0  0  0  0  0  1  0  0  0  0  0  0
  190.2720  176.7870  146.4300 C   0  0  0  0  0  0  0  0  0  0  0  0
  193.4910  172.3430  143.8310 N   0  0  0  0  0  2  0  0  0  0  0  0
  197.5500  173.7950  146.1420 O   0  0  0  0  0  1  0  0  0  0  0  0
  194.8100  170.7720  145.1970 C   0  0  0  0  0  3  0  0  0  0  0  0
  195.9020  170.5000  146.0220 C   0  0  0  0  0  3  0  0  0  0  0  0
  196.6390  172.7990  145.8080 C   0  0  0  0  0  0  0  0  0  0  0  0
  195.5490  173.0750  144.9590 C   0  0  0  0  0  0  0  0  0  0  0  0
  196.8140  171.5130  146.3280 C   0  0  0  0  0  3  0  0  0  0  0  0
  194.6240  172.0560  144.6610 C   0  0  0  0  0  0  0  0  0  0  0  0
  195.3180  174.4630  144.4320 C   0  0  0  0  0  2  0  0  0  0  0  0
  197.2140  175.4490  143.3600 O   0  0  0  0  0  0  0  0  0  0  0  0
  196.1660  174.7610  143.2360 C   0  0  0  0  0  0  0  0  0  0  0  0
  195.8220  174.2510  141.9840 O   0  0  0  0  0  0  0  0  0  0  0  0
  196.2060  174.8750  140.8630 O   0  0  0  0  0  0  0  0  0  0  0  0
  195.1530  175.7310  140.5420 C   0  0  0  0  0  2  0  0  0  0  0  0
  193.9440  174.9100  140.1350 C   0  0  0  0  0  2  0  0  0  0  0  0
  194.9080  174.4360  137.9990 O   0  0  0  0  0  1  0  0  0  0  0  0
  193.7710  174.9420  138.6280 C   0  0  0  0  0  2  0  0  0  0  0  0
  1 21  1  1  0  0  0
  1 12  1  0  0  0  0
  2  5  1  0  0  0  0
  3 24  1  0  0  0  0
  3  9  2  0  0  0  0
  4 27  1  6  0  0  0
  4  9  1  0  0  0  0
  4  5  1  0  0  0  0
  5 21  1  6  0  0  0
  6 23  1  0  0  0  0
  7 27  2  0  0  0  0
  8 17  1  0  0  0  0
  9  1  1  0  0  0  0
 10 11  1  0  0  0  0
 11 23  1  0  0  0  0
 11 45  1  1  0  0  0
 12 10  1  0  0  0  0
 13 26  1  0  0  0  0
 14 29  1  0  0  0  0
 15 22  1  0  0  0  0
 16 18  1  0  0  0  0
 16  7  1  0  0  0  0
 17 25  1  0  0  0  0
 18 19  2  0  0  0  0
 19 27  1  0  0  0  0
 19  2  1  0  0  0  0
 20 15  2  0  0  0  0
 20 24  1  0  0  0  0
 22 17  2  0  0  0  0
 24  8  2  0  0  0  0
 25 14  2  0  0  0  0
 25 13  1  0  0  0  0
 26  6  1  0  0  0  0
 28 20  1  0  0  0  0
 29 30  1  0  0  0  0
 31 30  1  0  0  0  0
 32 44  1  1  0  0  0
 33 32  1  0  0  0  0
 34 31  1  6  0  0  0
 34 36  1  0  0  0  0
 34 33  1  0  0  0  0
 35 37  1  6  0  0  0
 35 32  1  0  0  0  0
 36 35  1  0  0  0  0
 37 38  1  0  0  0  0
 39 37  1  0  0  0  0
 40 37  1  0  0  0  0
 42 43  1  0  0  0  0
 44 42  1  0  0  0  0
 44 41  2  0  0  0  0
 45 52  1  0  0  0  0
 47 48  1  0  0  0  0
 48 51  2  0  0  0  0
 49 46  1  0  0  0  0
 49 51  1  0  0  0  0
 50 49  2  0  0  0  0
 52 50  1  0  0  0  0
 52 47  2  0  0  0  0
 53 50  1  0  0  0  0
 55 54  2  0  0  0  0
 55 53  1  0  0  0  0
 56 55  1  0  0  0  0
 57 56  1  0  0  0  0
 58 57  1  0  0  0  0
 59 58  1  0  0  0  0
 60 61  1  0  0  0  0
 61 59  1  0  0  0  0
M  END
>  <MODEL>
9

>  <REMARK>
 VINA RESULT:      -5.4      2.824      9.235
  Name = 
  15 active torsions:
  status: ('A' for Active; 'I' for Inactive)
    1  A    between atoms: C_1  and  C_8
    2  A    between atoms: C_1  and  C_25
    3  A    between atoms: O_2  and  C_58
    4  A    between atoms: O_2  and  O_59
    5  A    between atoms: C_8  and  C_26
    6  A    between atoms: C_9  and  C_57
    7  A    between atoms: C_11  and  C_49
    8  A    between atoms: C_11  and  C_58
    9  A    between atoms: C_20  and  C_29
   10  A    between atoms: C_21  and  N_35
   11  A    between atoms: C_23  and  C_37
   12  A    between atoms: C_23  and  O_59
   13  A    between atoms: C_25  and  C_28
   14  A    between atoms: N_35  and  C_55
   15  A    between atoms: C_37  and  C_47
                            x       y       z     vdW  Elec       q    Type
                         _______ _______ _______ _____ _____    ______ ____

>  <TORSDO>
F 15

$$$$
