=
 OpenBabel11042416283D

 38 40  0  0  1  0  0  0  0  0999 V2000
  193.4130  173.7230  145.7260 C   0  0  0  0  0  3  0  0  0  0  0  0
  191.2900  174.2290  144.4930 C   0  0  1  0  0  3  0  0  0  0  0  0
  192.0790  173.6180  145.6190 C   0  0  0  0  0  3  0  0  0  0  0  0
  193.0810  173.4020  142.9830 O   0  0  0  0  0  0  0  0  0  0  0  0
  191.6950  173.6770  143.1050 C   0  0  2  0  0  3  0  0  0  0  0  0
  193.7990  174.5600  143.3300 C   0  0  0  0  0  2  0  0  0  0  0  0
  194.3080  174.4820  144.7730 C   0  0  0  0  0  2  0  0  0  0  0  0
  189.8440  174.1520  144.7340 N   0  0  0  0  0  2  0  0  0  0  0  0
  189.2950  175.4580  145.1030 C   0  0  1  0  0  3  0  0  0  0  0  0
  188.6470  175.4020  146.4840 C   0  0  0  0  0  2  0  0  0  0  0  0
  186.3340  178.7780  148.5280 O   0  0  0  0  0  1  0  0  0  0  0  0
  187.9030  177.6770  147.1510 C   0  0  0  0  0  3  0  0  0  0  0  0
  186.6460  178.4800  147.2020 C   0  0  1  0  0  3  0  0  0  0  0  0
  187.6320  176.4800  146.6560 C   0  0  0  0  0  0  0  0  0  0  0  0
  186.2210  176.3460  146.3400 C   0  0  0  0  0  3  0  0  0  0  0  0
  185.6560  177.5030  146.6590 C   0  0  0  0  0  0  0  0  0  0  0  0
  184.2980  177.7930  146.5110 O   0  0  0  0  0  0  0  0  0  0  0  0
  183.8320  178.8720  145.7110 C   0  0  0  0  0  1  0  0  0  0  0  0
  190.3930  176.5210  145.0770 C   0  0  0  0  0  2  0  0  0  0  0  0
  190.0220  177.7080  144.1940 C   0  0  0  0  0  2  0  0  0  0  0  0
  191.2620  178.2980  143.5490 C   0  0  0  0  0  2  0  0  0  0  0  0
  192.4490  177.6320  144.0520 N   0  0  0  0  0  1  0  0  0  0  0  0
  191.2350  174.5670  142.0430 N   0  0  0  0  0  2  0  0  0  0  0  0
  190.3600  173.8070  141.1610 C   0  0  2  0  0  3  0  0  0  0  0  0
  187.9890  173.5190  141.1790 O   0  0  0  0  0  0  0  0  0  0  0  0
  188.7500  175.7190  141.4880 N   0  0  0  0  0  2  0  0  0  0  0  0
  188.9600  174.3170  141.2760 C   0  0  0  0  0  0  0  0  0  0  0  0
  183.7140  178.4050  141.9110 C   0  0  0  0  0  1  0  0  0  0  0  0
  185.5550  177.0300  142.8870 C   0  0  0  0  0  3  0  0  0  0  0  0
  186.9460  177.0810  140.4650 C   0  0  0  0  0  3  0  0  0  0  0  0
  185.0200  177.7090  141.7890 C   0  0  0  0  0  0  0  0  0  0  0  0
  185.7160  177.7360  140.5780 C   0  0  0  0  0  3  0  0  0  0  0  0
  187.4890  176.3960  141.5630 C   0  0  0  0  0  0  0  0  0  0  0  0
  186.7860  176.3760  142.7720 C   0  0  0  0  0  3  0  0  0  0  0  0
  190.4340  172.3230  141.5000 C   0  0  0  0  0  2  0  0  0  0  0  0
  191.1450  171.5430  140.4060 C   0  0  0  0  0  2  0  0  0  0  0  0
  190.8350  170.1870  140.5020 O   0  0  0  0  0  0  0  0  0  0  0  0
  190.9200  169.9030  141.8640 C   0  0  0  0  0  1  0  0  0  0  0  0
  2  8  1  1  0  0  0
  2  3  1  0  0  0  0
  3  1  2  0  0  0  0
  4  5  1  0  0  0  0
  4  6  1  0  0  0  0
  5 23  1  6  0  0  0
  5  2  1  0  0  0  0
  6  7  1  0  0  0  0
  7  1  1  0  0  0  0
  8  9  1  0  0  0  0
  9 19  1  1  0  0  0
  9 10  1  0  0  0  0
 10 14  1  0  0  0  0
 12 13  1  0  0  0  0
 13 11  1  1  0  0  0
 14 12  2  0  0  0  0
 15 14  1  0  0  0  0
 15 16  2  0  0  0  0
 16 13  1  0  0  0  0
 17 16  1  0  0  0  0
 18 17  1  0  0  0  0
 20 19  1  0  0  0  0
 21 22  1  0  0  0  0
 21 20  1  0  0  0  0
 24 27  1  0  0  0  0
 24 35  1  1  0  0  0
 24 23  1  0  0  0  0
 25 27  2  0  0  0  0
 26 33  1  0  0  0  0
 27 26  1  0  0  0  0
 30 32  2  0  0  0  0
 30 33  1  0  0  0  0
 31 28  1  0  0  0  0
 31 29  2  0  0  0  0
 32 31  1  0  0  0  0
 33 34  2  0  0  0  0
 34 29  1  0  0  0  0
 36 37  1  0  0  0  0
 36 35  1  0  0  0  0
 37 38  1  0  0  0  0
M  END
>  <MODEL>
1

>  <REMARK>
 VINA RESULT:      -5.9      0.000      0.000
  Name = 
  15 active torsions:
  status: ('A' for Active; 'I' for Inactive)
    1  A    between atoms: O_5  and  C_12
    2  A    between atoms: C_6  and  N_14
    3  A    between atoms: C_9  and  C_13
    4  A    between atoms: C_9  and  C_23
    5  A    between atoms: C_10  and  C_16
    6  A    between atoms: C_10  and  N_30
    7  A    between atoms: C_10  and  C_38
    8  A    between atoms: C_12  and  C_16
    9  A    between atoms: N_14  and  C_28
   10  A    between atoms: C_15  and  C_24
   11  A    between atoms: C_15  and  C_28
   12  A    between atoms: O_22  and  C_36
   13  A    between atoms: C_23  and  C_28
   14  A    between atoms: C_25  and  N_30
   15  A    between atoms: N_27  and  C_29
                            x       y       z     vdW  Elec       q    Type
                         _______ _______ _______ _____ _____    ______ ____

>  <TORSDO>
F 15

$$$$
=
 OpenBabel11042416283D

 38 40  0  0  1  0  0  0  0  0999 V2000
  188.7970  178.2340  142.1130 C   0  0  0  0  0  3  0  0  0  0  0  0
  189.4280  176.2810  143.5510 C   0  0  1  0  0  3  0  0  0  0  0  0
  189.5940  177.6880  143.0440 C   0  0  0  0  0  3  0  0  0  0  0  0
  189.0610  175.6260  141.1830 O   0  0  0  0  0  0  0  0  0  0  0  0
  189.5820  175.2170  142.4380 C   0  0  2  0  0  3  0  0  0  0  0  0
  187.7250  176.0250  141.3620 C   0  0  0  0  0  2  0  0  0  0  0  0
  187.6140  177.5500  141.4660 C   0  0  0  0  0  2  0  0  0  0  0  0
  190.2850  176.0140  144.7130 N   0  0  0  0  0  2  0  0  0  0  0  0
  189.7560  176.6490  145.9220 C   0  0  1  0  0  3  0  0  0  0  0  0
  188.3720  176.1000  146.2590 C   0  0  0  0  0  2  0  0  0  0  0  0
  184.7180  178.4750  147.6480 O   0  0  0  0  0  1  0  0  0  0  0  0
  186.9690  177.8290  147.3630 C   0  0  0  0  0  3  0  0  0  0  0  0
  185.9070  178.8130  147.0030 C   0  0  1  0  0  3  0  0  0  0  0  0
  187.3450  177.1790  146.2730 C   0  0  0  0  0  0  0  0  0  0  0  0
  186.6010  177.6290  145.1080 C   0  0  0  0  0  3  0  0  0  0  0  0
  185.7710  178.5710  145.5360 C   0  0  0  0  0  0  0  0  0  0  0  0
  184.8710  179.2660  144.7270 O   0  0  0  0  0  0  0  0  0  0  0  0
  184.1970  178.6540  143.6350 C   0  0  0  0  0  1  0  0  0  0  0  0
  190.7110  176.4330  147.0950 C   0  0  0  0  0  2  0  0  0  0  0  0
  191.9010  175.5570  146.7130 C   0  0  0  0  0  2  0  0  0  0  0  0
  193.1980  176.3300  146.8570 C   0  0  0  0  0  2  0  0  0  0  0  0
  194.2910  175.5840  146.2620 N   0  0  0  0  0  1  0  0  0  0  0  0
  189.0090  173.9420  142.8610 N   0  0  0  0  0  2  0  0  0  0  0  0
  189.8480  172.8730  142.3370 C   0  0  2  0  0  3  0  0  0  0  0  0
  190.1660  172.2460  144.6190 O   0  0  0  0  0  0  0  0  0  0  0  0
  191.9210  171.6980  143.1570 N   0  0  0  0  0  2  0  0  0  0  0  0
  190.6340  172.2580  143.4480 C   0  0  0  0  0  0  0  0  0  0  0  0
  195.5640  169.2920  146.8590 C   0  0  0  0  0  1  0  0  0  0  0  0
  193.7900  169.1320  145.1100 C   0  0  0  0  0  3  0  0  0  0  0  0
  193.6770  171.9150  144.8970 C   0  0  0  0  0  3  0  0  0  0  0  0
  194.6200  169.9270  145.9040 C   0  0  0  0  0  0  0  0  0  0  0  0
  194.5650  171.3190  145.7970 C   0  0  0  0  0  3  0  0  0  0  0  0
  192.8390  171.1230  144.0970 C   0  0  0  0  0  0  0  0  0  0  0  0
  192.9030  169.7310  144.2090 C   0  0  0  0  0  3  0  0  0  0  0  0
  190.7650  173.4120  141.2460 C   0  0  0  0  0  2  0  0  0  0  0  0
  190.4000  172.8370  139.8870 C   0  0  0  0  0  2  0  0  0  0  0  0
  189.2330  172.0800  139.9820 O   0  0  0  0  0  0  0  0  0  0  0  0
  188.3420  172.6970  139.1060 C   0  0  0  0  0  1  0  0  0  0  0  0
  1  3  2  0  0  0  0
  2  8  1  1  0  0  0
  3  2  1  0  0  0  0
  4  6  1  0  0  0  0
  4  5  1  0  0  0  0
  5 23  1  1  0  0  0
  5  2  1  0  0  0  0
  6  7  1  0  0  0  0
  7  1  1  0  0  0  0
  8  9  1  0  0  0  0
  9 10  1  1  0  0  0
  9 19  1  0  0  0  0
 10 14  1  0  0  0  0
 13 12  1  0  0  0  0
 13 11  1  1  0  0  0
 14 12  2  0  0  0  0
 15 16  2  0  0  0  0
 15 14  1  0  0  0  0
 16 13  1  0  0  0  0
 17 16  1  0  0  0  0
 18 17  1  0  0  0  0
 20 21  1  0  0  0  0
 20 19  1  0  0  0  0
 22 21  1  0  0  0  0
 24 35  1  6  0  0  0
 24 23  1  0  0  0  0
 24 27  1  0  0  0  0
 26 27  1  0  0  0  0
 26 33  1  0  0  0  0
 27 25  2  0  0  0  0
 29 31  1  0  0  0  0
 30 32  1  0  0  0  0
 31 28  1  0  0  0  0
 32 31  2  0  0  0  0
 33 34  1  0  0  0  0
 33 30  2  0  0  0  0
 34 29  2  0  0  0  0
 36 37  1  0  0  0  0
 36 35  1  0  0  0  0
 38 37  1  0  0  0  0
M  END
>  <MODEL>
2

>  <REMARK>
 VINA RESULT:      -5.8      2.352      5.955
  Name = 
  15 active torsions:
  status: ('A' for Active; 'I' for Inactive)
    1  A    between atoms: O_5  and  C_12
    2  A    between atoms: C_6  and  N_14
    3  A    between atoms: C_9  and  C_13
    4  A    between atoms: C_9  and  C_23
    5  A    between atoms: C_10  and  C_16
    6  A    between atoms: C_10  and  N_30
    7  A    between atoms: C_10  and  C_38
    8  A    between atoms: C_12  and  C_16
    9  A    between atoms: N_14  and  C_28
   10  A    between atoms: C_15  and  C_24
   11  A    between atoms: C_15  and  C_28
   12  A    between atoms: O_22  and  C_36
   13  A    between atoms: C_23  and  C_28
   14  A    between atoms: C_25  and  N_30
   15  A    between atoms: N_27  and  C_29
                            x       y       z     vdW  Elec       q    Type
                         _______ _______ _______ _____ _____    ______ ____

>  <TORSDO>
F 15

$$$$
=
 OpenBabel11042416283D

 38 40  0  0  1  0  0  0  0  0999 V2000
  196.9020  174.6250  140.6340 C   0  0  0  0  0  3  0  0  0  0  0  0
  195.1400  174.0650  142.3260 C   0  0  1  0  0  3  0  0  0  0  0  0
  196.2630  173.7160  141.3870 C   0  0  0  0  0  3  0  0  0  0  0  0
  194.2740  175.5290  140.5160 O   0  0  0  0  0  0  0  0  0  0  0  0
  193.9230  174.6890  141.6040 C   0  0  2  0  0  3  0  0  0  0  0  0
  195.1820  176.5000  140.9760 C   0  0  0  0  0  2  0  0  0  0  0  0
  196.6250  176.1110  140.6370 C   0  0  0  0  0  2  0  0  0  0  0  0
  194.7720  172.9290  143.1810 N   0  0  0  0  0  2  0  0  0  0  0  0
  195.5470  172.9230  144.4230 C   0  0  1  0  0  3  0  0  0  0  0  0
  194.6240  173.0040  145.6360 C   0  0  0  0  0  2  0  0  0  0  0  0
  194.3000  177.3410  147.0540 O   0  0  0  0  0  1  0  0  0  0  0  0
  194.7500  175.4850  145.6670 C   0  0  0  0  0  3  0  0  0  0  0  0
  193.8570  176.6530  145.9250 C   0  0  1  0  0  3  0  0  0  0  0  0
  194.0500  174.3690  145.7970 C   0  0  0  0  0  0  0  0  0  0  0  0
  192.6700  174.6500  146.1520 C   0  0  0  0  0  3  0  0  0  0  0  0
  192.5640  175.9700  146.2260 C   0  0  0  0  0  0  0  0  0  0  0  0
  191.3930  176.6590  146.5450 O   0  0  0  0  0  0  0  0  0  0  0  0
  190.2140  175.9960  146.9840 C   0  0  0  0  0  1  0  0  0  0  0  0
  196.4150  171.6680  144.5000 C   0  0  0  0  0  2  0  0  0  0  0  0
  196.7990  171.3230  145.9360 C   0  0  0  0  0  2  0  0  0  0  0  0
  197.1070  169.8430  146.0610 C   0  0  0  0  0  2  0  0  0  0  0  0
  196.5540  169.3230  147.2990 N   0  0  0  0  0  1  0  0  0  0  0  0
  193.0620  175.3870  142.5560 N   0  0  0  0  0  2  0  0  0  0  0  0
  191.6790  175.0530  142.2440 C   0  0  2  0  0  3  0  0  0  0  0  0
  191.2790  177.2440  143.1050 O   0  0  0  0  0  0  0  0  0  0  0  0
  189.3640  176.0050  142.5440 N   0  0  0  0  0  2  0  0  0  0  0  0
  190.7830  176.1750  142.6580 C   0  0  0  0  0  0  0  0  0  0  0  0
  185.3630  179.7200  144.2620 C   0  0  0  0  0  1  0  0  0  0  0  0
  187.0640  177.9540  144.7340 C   0  0  0  0  0  3  0  0  0  0  0  0
  187.6820  177.7510  142.0180 C   0  0  0  0  0  3  0  0  0  0  0  0
  186.3980  178.7580  143.8050 C   0  0  0  0  0  0  0  0  0  0  0  0
  186.7080  178.6570  142.4460 C   0  0  0  0  0  3  0  0  0  0  0  0
  188.3540  176.9400  142.9450 C   0  0  0  0  0  0  0  0  0  0  0  0
  188.0390  177.0490  144.3030 C   0  0  0  0  0  3  0  0  0  0  0  0
  191.2850  173.7520  142.9330 C   0  0  0  0  0  2  0  0  0  0  0  0
  190.9650  172.6670  141.9190 C   0  0  0  0  0  2  0  0  0  0  0  0
  189.6040  172.6780  141.6150 O   0  0  0  0  0  0  0  0  0  0  0  0
  188.9780  172.2570  142.7870 C   0  0  0  0  0  1  0  0  0  0  0  0
  1  7  1  0  0  0  0
  1  3  2  0  0  0  0
  2  8  1  6  0  0  0
  3  2  1  0  0  0  0
  4  6  1  0  0  0  0
  4  5  1  0  0  0  0
  5  2  1  0  0  0  0
  5 23  1  1  0  0  0
  7  6  1  0  0  0  0
  8  9  1  0  0  0  0
  9 19  1  1  0  0  0
  9 10  1  0  0  0  0
 10 14  1  0  0  0  0
 12 14  2  0  0  0  0
 12 13  1  0  0  0  0
 13 16  1  0  0  0  0
 13 11  1  1  0  0  0
 14 15  1  0  0  0  0
 15 16  2  0  0  0  0
 16 17  1  0  0  0  0
 17 18  1  0  0  0  0
 19 20  1  0  0  0  0
 20 21  1  0  0  0  0
 21 22  1  0  0  0  0
 24 23  1  0  0  0  0
 24 27  1  0  0  0  0
 24 35  1  1  0  0  0
 26 27  1  0  0  0  0
 26 33  1  0  0  0  0
 27 25  2  0  0  0  0
 30 32  2  0  0  0  0
 30 33  1  0  0  0  0
 31 28  1  0  0  0  0
 31 29  2  0  0  0  0
 32 31  1  0  0  0  0
 33 34  2  0  0  0  0
 34 29  1  0  0  0  0
 36 35  1  0  0  0  0
 37 36  1  0  0  0  0
 37 38  1  0  0  0  0
M  END
>  <MODEL>
3

>  <REMARK>
 VINA RESULT:      -5.7      3.157      5.529
  Name = 
  15 active torsions:
  status: ('A' for Active; 'I' for Inactive)
    1  A    between atoms: O_5  and  C_12
    2  A    between atoms: C_6  and  N_14
    3  A    between atoms: C_9  and  C_13
    4  A    between atoms: C_9  and  C_23
    5  A    between atoms: C_10  and  C_16
    6  A    between atoms: C_10  and  N_30
    7  A    between atoms: C_10  and  C_38
    8  A    between atoms: C_12  and  C_16
    9  A    between atoms: N_14  and  C_28
   10  A    between atoms: C_15  and  C_24
   11  A    between atoms: C_15  and  C_28
   12  A    between atoms: O_22  and  C_36
   13  A    between atoms: C_23  and  C_28
   14  A    between atoms: C_25  and  N_30
   15  A    between atoms: N_27  and  C_29
                            x       y       z     vdW  Elec       q    Type
                         _______ _______ _______ _____ _____    ______ ____

>  <TORSDO>
F 15

$$$$
=
 OpenBabel11042416283D

 38 40  0  0  1  0  0  0  0  0999 V2000
  192.7810  171.9780  144.3740 C   0  0  0  0  0  3  0  0  0  0  0  0
  191.6460  174.0390  143.5090 C   0  0  1  0  0  3  0  0  0  0  0  0
  192.0590  173.0870  144.5990 C   0  0  0  0  0  3  0  0  0  0  0  0
  191.0990  172.0270  142.1590 O   0  0  0  0  0  0  0  0  0  0  0  0
  190.7510  173.3740  142.4360 C   0  0  2  0  0  3  0  0  0  0  0  0
  192.4640  171.9770  141.8270 C   0  0  0  0  0  2  0  0  0  0  0  0
  193.3100  171.5400  143.0270 C   0  0  0  0  0  2  0  0  0  0  0  0
  191.0580  175.2690  144.0540 N   0  0  0  0  0  2  0  0  0  0  0  0
  191.7860  175.7270  145.2390 C   0  0  1  0  0  3  0  0  0  0  0  0
  192.8320  176.7730  144.8600 C   0  0  0  0  0  2  0  0  0  0  0  0
  195.9160  174.2190  142.6490 O   0  0  0  0  0  1  0  0  0  0  0  0
  194.6910  176.1100  143.3500 C   0  0  0  0  0  3  0  0  0  0  0  0
  195.9900  175.3790  143.4200 C   0  0  1  0  0  3  0  0  0  0  0  0
  194.1480  176.1440  144.5570 C   0  0  0  0  0  0  0  0  0  0  0  0
  194.9820  175.4590  145.5300 C   0  0  0  0  0  3  0  0  0  0  0  0
  196.0430  175.0180  144.8680 C   0  0  0  0  0  0  0  0  0  0  0  0
  197.0960  174.3000  145.4380 O   0  0  0  0  0  0  0  0  0  0  0  0
  196.8930  173.0920  146.1590 C   0  0  0  0  0  1  0  0  0  0  0  0
  190.8130  176.3010  146.2690 C   0  0  0  0  0  2  0  0  0  0  0  0
  190.6310  175.3730  147.4660 C   0  0  0  0  0  2  0  0  0  0  0  0
  189.2620  174.7210  147.4290 C   0  0  0  0  0  2  0  0  0  0  0  0
  188.2780  175.6580  146.9190 N   0  0  0  0  0  1  0  0  0  0  0  0
  190.7270  174.1770  141.2170 N   0  0  0  0  0  2  0  0  0  0  0  0
  189.3850  174.1060  140.6540 C   0  0  2  0  0  3  0  0  0  0  0  0
  187.5950  173.9780  142.2300 O   0  0  0  0  0  0  0  0  0  0  0  0
  188.4060  176.1370  141.7820 N   0  0  0  0  0  2  0  0  0  0  0  0
  188.4060  174.7140  141.6050 C   0  0  0  0  0  0  0  0  0  0  0  0
  184.9170  179.2130  145.1170 C   0  0  0  0  0  1  0  0  0  0  0  0
  187.1280  178.1570  144.6410 C   0  0  0  0  0  3  0  0  0  0  0  0
  186.1860  177.1610  142.2070 C   0  0  0  0  0  3  0  0  0  0  0  0
  185.8130  178.4120  144.2450 C   0  0  0  0  0  0  0  0  0  0  0  0
  185.3420  177.9150  143.0270 C   0  0  0  0  0  3  0  0  0  0  0  0
  187.5080  176.8990  142.5990 C   0  0  0  0  0  0  0  0  0  0  0  0
  187.9720  177.4030  143.8190 C   0  0  0  0  0  3  0  0  0  0  0  0
  189.0230  172.6600  140.3420 C   0  0  0  0  0  2  0  0  0  0  0  0
  188.6210  172.4950  138.8850 C   0  0  0  0  0  2  0  0  0  0  0  0
  188.2730  173.7300  138.3390 O   0  0  0  0  0  0  0  0  0  0  0  0
  188.9510  173.7810  137.1230 C   0  0  0  0  0  1  0  0  0  0  0  0
  1  3  2  0  0  0  0
  2  8  1  1  0  0  0
  2  3  1  0  0  0  0
  4  5  1  0  0  0  0
  5 23  1  6  0  0  0
  5  2  1  0  0  0  0
  6  4  1  0  0  0  0
  6  7  1  0  0  0  0
  7  1  1  0  0  0  0
  8  9  1  0  0  0  0
  9 10  1  6  0  0  0
  9 19  1  0  0  0  0
 12 13  1  0  0  0  0
 12 14  2  0  0  0  0
 13 11  1  6  0  0  0
 13 16  1  0  0  0  0
 14 10  1  0  0  0  0
 14 15  1  0  0  0  0
 16 17  1  0  0  0  0
 16 15  2  0  0  0  0
 17 18  1  0  0  0  0
 19 20  1  0  0  0  0
 21 20  1  0  0  0  0
 22 21  1  0  0  0  0
 24 35  1  1  0  0  0
 24 23  1  0  0  0  0
 24 27  1  0  0  0  0
 26 33  1  0  0  0  0
 27 26  1  0  0  0  0
 27 25  2  0  0  0  0
 30 33  2  0  0  0  0
 30 32  1  0  0  0  0
 31 29  1  0  0  0  0
 31 28  1  0  0  0  0
 32 31  2  0  0  0  0
 33 34  1  0  0  0  0
 34 29  2  0  0  0  0
 36 35  1  0  0  0  0
 37 36  1  0  0  0  0
 38 37  1  0  0  0  0
M  END
>  <MODEL>
4

>  <REMARK>
 VINA RESULT:      -5.7      2.458      5.665
  Name = 
  15 active torsions:
  status: ('A' for Active; 'I' for Inactive)
    1  A    between atoms: O_5  and  C_12
    2  A    between atoms: C_6  and  N_14
    3  A    between atoms: C_9  and  C_13
    4  A    between atoms: C_9  and  C_23
    5  A    between atoms: C_10  and  C_16
    6  A    between atoms: C_10  and  N_30
    7  A    between atoms: C_10  and  C_38
    8  A    between atoms: C_12  and  C_16
    9  A    between atoms: N_14  and  C_28
   10  A    between atoms: C_15  and  C_24
   11  A    between atoms: C_15  and  C_28
   12  A    between atoms: O_22  and  C_36
   13  A    between atoms: C_23  and  C_28
   14  A    between atoms: C_25  and  N_30
   15  A    between atoms: N_27  and  C_29
                            x       y       z     vdW  Elec       q    Type
                         _______ _______ _______ _____ _____    ______ ____

>  <TORSDO>
F 15

$$$$
=
 OpenBabel11042416283D

 38 40  0  0  1  0  0  0  0  0999 V2000
  190.5020  171.4870  141.7010 C   0  0  0  0  0  3  0  0  0  0  0  0
  191.7620  172.7660  143.4500 C   0  0  1  0  0  3  0  0  0  0  0  0
  191.0330  171.5560  142.9310 C   0  0  0  0  0  3  0  0  0  0  0  0
  189.9530  174.1180  142.4160 O   0  0  0  0  0  0  0  0  0  0  0  0
  190.8730  174.0320  143.4920 C   0  0  2  0  0  3  0  0  0  0  0  0
  190.6640  174.0010  141.2090 C   0  0  0  0  0  2  0  0  0  0  0  0
  190.5810  172.5760  140.6540 C   0  0  0  0  0  2  0  0  0  0  0  0
  192.4250  172.4960  144.7320 N   0  0  0  0  0  2  0  0  0  0  0  0
  193.8750  172.3760  144.5660 C   0  0  1  0  0  3  0  0  0  0  0  0
  194.5880  173.5920  145.1530 C   0  0  0  0  0  2  0  0  0  0  0  0
  197.1650  176.8800  143.2890 O   0  0  0  0  0  1  0  0  0  0  0  0
  196.5720  174.8690  144.3720 C   0  0  0  0  0  3  0  0  0  0  0  0
  197.0810  175.4980  143.1180 C   0  0  1  0  0  3  0  0  0  0  0  0
  195.4040  174.2970  144.1240 C   0  0  0  0  0  0  0  0  0  0  0  0
  195.0100  174.4790  142.7380 C   0  0  0  0  0  3  0  0  0  0  0  0
  195.9810  175.1750  142.1620 C   0  0  0  0  0  0  0  0  0  0  0  0
  195.9930  175.5680  140.8230 O   0  0  0  0  0  0  0  0  0  0  0  0
  194.8540  175.4410  139.9810 C   0  0  0  0  0  1  0  0  0  0  0  0
  194.3810  171.0960  145.2290 C   0  0  0  0  0  2  0  0  0  0  0  0
  195.6270  170.5470  144.5410 C   0  0  0  0  0  2  0  0  0  0  0  0
  196.8560  170.7890  145.3970 C   0  0  0  0  0  2  0  0  0  0  0  0
  196.9440  169.7800  146.4370 N   0  0  0  0  0  1  0  0  0  0  0  0
  191.6960  175.2350  143.5850 N   0  0  0  0  0  2  0  0  0  0  0  0
  191.4590  175.8460  144.8860 C   0  0  2  0  0  3  0  0  0  0  0  0
  190.1570  177.7310  144.2120 O   0  0  0  0  0  0  0  0  0  0  0  0
  189.0470  176.1510  145.5500 N   0  0  0  0  0  2  0  0  0  0  0  0
  190.1960  176.6430  144.8480 C   0  0  0  0  0  0  0  0  0  0  0  0
  183.9340  178.6910  145.9480 C   0  0  0  0  0  1  0  0  0  0  0  0
  185.6260  177.3540  144.6910 C   0  0  0  0  0  3  0  0  0  0  0  0
  187.4050  177.4880  146.8410 C   0  0  0  0  0  3  0  0  0  0  0  0
  185.2640  178.0380  145.8550 C   0  0  0  0  0  0  0  0  0  0  0  0
  186.1530  178.1040  146.9310 C   0  0  0  0  0  3  0  0  0  0  0  0
  187.7760  176.8010  145.6760 C   0  0  0  0  0  0  0  0  0  0  0  0
  186.8790  176.7380  144.6040 C   0  0  0  0  0  3  0  0  0  0  0  0
  192.6470  176.7170  145.2790 C   0  0  0  0  0  2  0  0  0  0  0  0
  193.0520  176.4740  146.7240 C   0  0  0  0  0  2  0  0  0  0  0  0
  194.3130  177.0170  146.9680 O   0  0  0  0  0  0  0  0  0  0  0  0
  194.6830  177.6050  145.7600 C   0  0  0  0  0  1  0  0  0  0  0  0
  1  3  2  0  0  0  0
  2  5  1  0  0  0  0
  2  8  1  1  0  0  0
  3  2  1  0  0  0  0
  4  5  1  0  0  0  0
  5 23  1  6  0  0  0
  6  4  1  0  0  0  0
  7  6  1  0  0  0  0
  7  1  1  0  0  0  0
  9  8  1  0  0  0  0
  9 10  1  1  0  0  0
  9 19  1  0  0  0  0
 13 11  1  1  0  0  0
 13 12  1  0  0  0  0
 14 12  2  0  0  0  0
 14 10  1  0  0  0  0
 15 14  1  0  0  0  0
 16 15  2  0  0  0  0
 16 13  1  0  0  0  0
 17 16  1  0  0  0  0
 18 17  1  0  0  0  0
 20 19  1  0  0  0  0
 20 21  1  0  0  0  0
 21 22  1  0  0  0  0
 23 24  1  0  0  0  0
 24 35  1  6  0  0  0
 25 27  2  0  0  0  0
 26 33  1  0  0  0  0
 27 24  1  0  0  0  0
 27 26  1  0  0  0  0
 29 31  1  0  0  0  0
 30 32  1  0  0  0  0
 31 28  1  0  0  0  0
 31 32  2  0  0  0  0
 33 30  2  0  0  0  0
 34 29  2  0  0  0  0
 34 33  1  0  0  0  0
 35 36  1  0  0  0  0
 36 37  1  0  0  0  0
 38 37  1  0  0  0  0
M  END
>  <MODEL>
5

>  <REMARK>
 VINA RESULT:      -5.7      2.966      7.309
  Name = 
  15 active torsions:
  status: ('A' for Active; 'I' for Inactive)
    1  A    between atoms: O_5  and  C_12
    2  A    between atoms: C_6  and  N_14
    3  A    between atoms: C_9  and  C_13
    4  A    between atoms: C_9  and  C_23
    5  A    between atoms: C_10  and  C_16
    6  A    between atoms: C_10  and  N_30
    7  A    between atoms: C_10  and  C_38
    8  A    between atoms: C_12  and  C_16
    9  A    between atoms: N_14  and  C_28
   10  A    between atoms: C_15  and  C_24
   11  A    between atoms: C_15  and  C_28
   12  A    between atoms: O_22  and  C_36
   13  A    between atoms: C_23  and  C_28
   14  A    between atoms: C_25  and  N_30
   15  A    between atoms: N_27  and  C_29
                            x       y       z     vdW  Elec       q    Type
                         _______ _______ _______ _____ _____    ______ ____

>  <TORSDO>
F 15

$$$$
=
 OpenBabel11042416283D

 38 40  0  0  1  0  0  0  0  0999 V2000
  193.3340  172.3440  144.7750 C   0  0  0  0  0  3  0  0  0  0  0  0
  191.3570  173.6350  143.9350 C   0  0  1  0  0  3  0  0  0  0  0  0
  192.0440  172.6940  144.8880 C   0  0  0  0  0  3  0  0  0  0  0  0
  192.5250  172.4130  142.1150 O   0  0  0  0  0  0  0  0  0  0  0  0
  191.3470  173.1160  142.4780 C   0  0  2  0  0  3  0  0  0  0  0  0
  193.6350  173.2320  142.3860 C   0  0  0  0  0  2  0  0  0  0  0  0
  194.2880  172.8540  143.7190 C   0  0  0  0  0  2  0  0  0  0  0  0
  190.0210  174.0150  144.4110 N   0  0  0  0  0  2  0  0  0  0  0  0
  190.1020  174.8910  145.5810 C   0  0  1  0  0  3  0  0  0  0  0  0
  190.6610  176.2580  145.1940 C   0  0  0  0  0  2  0  0  0  0  0  0
  194.5790  177.5540  147.1670 O   0  0  0  0  0  1  0  0  0  0  0  0
  192.6840  176.2510  146.6370 C   0  0  0  0  0  3  0  0  0  0  0  0
  194.1630  176.4010  146.5010 C   0  0  1  0  0  3  0  0  0  0  0  0
  192.1290  176.3380  145.4390 C   0  0  0  0  0  0  0  0  0  0  0  0
  193.1280  176.5560  144.4080 C   0  0  0  0  0  3  0  0  0  0  0  0
  194.3010  176.5940  145.0270 C   0  0  0  0  0  0  0  0  0  0  0  0
  195.5300  176.7880  144.3940 O   0  0  0  0  0  0  0  0  0  0  0  0
  195.8290  176.2300  143.1210 C   0  0  0  0  0  1  0  0  0  0  0  0
  188.7240  175.0460  146.2230 C   0  0  0  0  0  2  0  0  0  0  0  0
  188.5330  176.4240  146.8500 C   0  0  0  0  0  2  0  0  0  0  0  0
  187.0840  176.6310  147.2460 C   0  0  0  0  0  2  0  0  0  0  0  0
  186.8190  178.0440  147.4450 N   0  0  0  0  0  1  0  0  0  0  0  0
  191.0710  174.2050  141.5450 N   0  0  0  0  0  2  0  0  0  0  0  0
  189.9300  173.8200  140.7240 C   0  0  2  0  0  3  0  0  0  0  0  0
  187.6960  173.6420  141.5490 O   0  0  0  0  0  0  0  0  0  0  0  0
  188.6150  175.8040  141.5520 N   0  0  0  0  0  2  0  0  0  0  0  0
  188.6780  174.3940  141.3010 C   0  0  0  0  0  0  0  0  0  0  0  0
  184.0620  178.7470  143.3900 C   0  0  0  0  0  1  0  0  0  0  0  0
  185.5410  177.9110  141.5600 C   0  0  0  0  0  3  0  0  0  0  0  0
  187.1830  176.6130  143.4100 C   0  0  0  0  0  3  0  0  0  0  0  0
  185.2470  177.9830  142.9240 C   0  0  0  0  0  0  0  0  0  0  0  0
  186.0680  177.3320  143.8500 C   0  0  0  0  0  3  0  0  0  0  0  0
  187.4850  176.5380  142.0420 C   0  0  0  0  0  0  0  0  0  0  0  0
  186.6560  177.1910  141.1220 C   0  0  0  0  0  3  0  0  0  0  0  0
  189.8450  172.3020  140.6240 C   0  0  0  0  0  2  0  0  0  0  0  0
  190.1390  171.8270  139.2100 C   0  0  0  0  0  2  0  0  0  0  0  0
  188.9820  171.8810  138.4340 O   0  0  0  0  0  0  0  0  0  0  0  0
  189.3350  172.6550  137.3300 C   0  0  0  0  0  1  0  0  0  0  0  0
  1  3  2  0  0  0  0
  2  8  1  1  0  0  0
  2  3  1  0  0  0  0
  4  6  1  0  0  0  0
  4  5  1  0  0  0  0
  5 23  1  6  0  0  0
  5  2  1  0  0  0  0
  6  7  1  0  0  0  0
  7  1  1  0  0  0  0
  8  9  1  0  0  0  0
  9 10  1  6  0  0  0
  9 19  1  0  0  0  0
 10 14  1  0  0  0  0
 13 12  1  0  0  0  0
 13 11  1  1  0  0  0
 14 12  2  0  0  0  0
 15 16  2  0  0  0  0
 15 14  1  0  0  0  0
 16 13  1  0  0  0  0
 17 16  1  0  0  0  0
 18 17  1  0  0  0  0
 19 20  1  0  0  0  0
 20 21  1  0  0  0  0
 21 22  1  0  0  0  0
 24 35  1  1  0  0  0
 24 27  1  0  0  0  0
 24 23  1  0  0  0  0
 26 33  1  0  0  0  0
 27 25  2  0  0  0  0
 27 26  1  0  0  0  0
 29 31  1  0  0  0  0
 30 32  1  0  0  0  0
 31 28  1  0  0  0  0
 31 32  2  0  0  0  0
 33 30  2  0  0  0  0
 34 29  2  0  0  0  0
 34 33  1  0  0  0  0
 36 35  1  0  0  0  0
 37 36  1  0  0  0  0
 38 37  1  0  0  0  0
M  END
>  <MODEL>
6

>  <REMARK>
 VINA RESULT:      -5.5      2.386      4.562
  Name = 
  15 active torsions:
  status: ('A' for Active; 'I' for Inactive)
    1  A    between atoms: O_5  and  C_12
    2  A    between atoms: C_6  and  N_14
    3  A    between atoms: C_9  and  C_13
    4  A    between atoms: C_9  and  C_23
    5  A    between atoms: C_10  and  C_16
    6  A    between atoms: C_10  and  N_30
    7  A    between atoms: C_10  and  C_38
    8  A    between atoms: C_12  and  C_16
    9  A    between atoms: N_14  and  C_28
   10  A    between atoms: C_15  and  C_24
   11  A    between atoms: C_15  and  C_28
   12  A    between atoms: O_22  and  C_36
   13  A    between atoms: C_23  and  C_28
   14  A    between atoms: C_25  and  N_30
   15  A    between atoms: N_27  and  C_29
                            x       y       z     vdW  Elec       q    Type
                         _______ _______ _______ _____ _____    ______ ____

>  <TORSDO>
F 15

$$$$
=
 OpenBabel11042416283D

 38 40  0  0  1  0  0  0  0  0999 V2000
  196.4870  174.7660  141.2190 C   0  0  0  0  0  3  0  0  0  0  0  0
  194.5630  173.7570  142.4690 C   0  0  1  0  0  3  0  0  0  0  0  0
  195.8470  173.6830  141.6880 C   0  0  0  0  0  3  0  0  0  0  0  0
  193.8230  175.4550  140.8130 O   0  0  0  0  0  0  0  0  0  0  0  0
  193.4070  174.4020  141.6670 C   0  0  2  0  0  3  0  0  0  0  0  0
  194.5360  176.3950  141.5780 C   0  0  0  0  0  2  0  0  0  0  0  0
  196.0480  176.1980  141.4270 C   0  0  0  0  0  2  0  0  0  0  0  0
  194.1980  172.4560  143.0430 N   0  0  0  0  0  2  0  0  0  0  0  0
  194.4010  172.4380  144.4930 C   0  0  1  0  0  3  0  0  0  0  0  0
  193.0770  172.6330  145.2270 C   0  0  0  0  0  2  0  0  0  0  0  0
  191.4190  176.8500  145.8510 O   0  0  0  0  0  1  0  0  0  0  0  0
  191.8230  174.5500  146.1900 C   0  0  0  0  0  3  0  0  0  0  0  0
  192.0850  175.9390  146.6700 C   0  0  1  0  0  3  0  0  0  0  0  0
  192.9620  174.0070  145.7930 C   0  0  0  0  0  0  0  0  0  0  0  0
  194.0700  174.9340  145.9450 C   0  0  0  0  0  3  0  0  0  0  0  0
  193.5580  176.0480  146.4500 C   0  0  0  0  0  0  0  0  0  0  0  0
  194.2910  177.1980  146.7490 O   0  0  0  0  0  0  0  0  0  0  0  0
  194.9920  177.9350  145.7560 C   0  0  0  0  0  1  0  0  0  0  0  0
  195.0550  171.1250  144.9200 C   0  0  0  0  0  2  0  0  0  0  0  0
  196.3070  171.3540  145.7620 C   0  0  0  0  0  2  0  0  0  0  0  0
  196.9940  172.6430  145.3520 C   0  0  0  0  0  2  0  0  0  0  0  0
  197.1930  173.4920  146.5130 N   0  0  0  0  0  1  0  0  0  0  0  0
  192.3390  174.8360  142.5640 N   0  0  0  0  0  2  0  0  0  0  0  0
  191.0650  174.4500  141.9720 C   0  0  2  0  0  3  0  0  0  0  0  0
  189.6060  173.6070  143.6630 O   0  0  0  0  0  0  0  0  0  0  0  0
  189.3540  175.8830  143.1430 N   0  0  0  0  0  2  0  0  0  0  0  0
  189.9730  174.6010  142.9800 C   0  0  0  0  0  0  0  0  0  0  0  0
  184.9050  177.1580  146.5100 C   0  0  0  0  0  1  0  0  0  0  0  0
  185.9400  176.8780  144.2560 C   0  0  0  0  0  3  0  0  0  0  0  0
  188.3790  176.1530  145.4080 C   0  0  0  0  0  3  0  0  0  0  0  0
  186.0670  176.8280  145.6460 C   0  0  0  0  0  0  0  0  0  0  0  0
  187.2860  176.4640  146.2230 C   0  0  0  0  0  3  0  0  0  0  0  0
  188.2590  176.2030  144.0110 C   0  0  0  0  0  0  0  0  0  0  0  0
  187.0340  176.5660  143.4430 C   0  0  0  0  0  3  0  0  0  0  0  0
  191.1410  173.0200  141.4510 C   0  0  0  0  0  2  0  0  0  0  0  0
  190.3320  172.8550  140.1750 C   0  0  0  0  0  2  0  0  0  0  0  0
  188.9750  172.7430  140.4760 O   0  0  0  0  0  0  0  0  0  0  0  0
  188.3260  172.9760  139.2640 C   0  0  0  0  0  1  0  0  0  0  0  0
  1  7  1  0  0  0  0
  1  3  2  0  0  0  0
  2  8  1  6  0  0  0
  3  2  1  0  0  0  0
  4  6  1  0  0  0  0
  4  5  1  0  0  0  0
  5  2  1  0  0  0  0
  5 23  1  1  0  0  0
  7  6  1  0  0  0  0
  8  9  1  0  0  0  0
  9 19  1  1  0  0  0
  9 10  1  0  0  0  0
 10 14  1  0  0  0  0
 12 13  1  0  0  0  0
 13 11  1  6  0  0  0
 14 15  1  0  0  0  0
 14 12  2  0  0  0  0
 15 16  2  0  0  0  0
 16 13  1  0  0  0  0
 16 17  1  0  0  0  0
 18 17  1  0  0  0  0
 19 20  1  0  0  0  0
 21 20  1  0  0  0  0
 21 22  1  0  0  0  0
 24 35  1  1  0  0  0
 24 23  1  0  0  0  0
 24 27  1  0  0  0  0
 26 33  1  0  0  0  0
 27 26  1  0  0  0  0
 27 25  2  0  0  0  0
 29 31  1  0  0  0  0
 30 32  1  0  0  0  0
 31 32  2  0  0  0  0
 31 28  1  0  0  0  0
 33 30  2  0  0  0  0
 34 33  1  0  0  0  0
 34 29  2  0  0  0  0
 36 37  1  0  0  0  0
 36 35  1  0  0  0  0
 38 37  1  0  0  0  0
M  END
>  <MODEL>
7

>  <REMARK>
 VINA RESULT:      -5.4      2.678      5.400
  Name = 
  15 active torsions:
  status: ('A' for Active; 'I' for Inactive)
    1  A    between atoms: O_5  and  C_12
    2  A    between atoms: C_6  and  N_14
    3  A    between atoms: C_9  and  C_13
    4  A    between atoms: C_9  and  C_23
    5  A    between atoms: C_10  and  C_16
    6  A    between atoms: C_10  and  N_30
    7  A    between atoms: C_10  and  C_38
    8  A    between atoms: C_12  and  C_16
    9  A    between atoms: N_14  and  C_28
   10  A    between atoms: C_15  and  C_24
   11  A    between atoms: C_15  and  C_28
   12  A    between atoms: O_22  and  C_36
   13  A    between atoms: C_23  and  C_28
   14  A    between atoms: C_25  and  N_30
   15  A    between atoms: N_27  and  C_29
                            x       y       z     vdW  Elec       q    Type
                         _______ _______ _______ _____ _____    ______ ____

>  <TORSDO>
F 15

$$$$
=
 OpenBabel11042416283D

 38 40  0  0  1  0  0  0  0  0999 V2000
  186.7280  176.7930  140.8600 C   0  0  0  0  0  3  0  0  0  0  0  0
  188.6950  176.4790  142.3810 C   0  0  1  0  0  3  0  0  0  0  0  0
  187.7090  176.0150  141.3430 C   0  0  0  0  0  3  0  0  0  0  0  0
  186.7610  177.5150  143.5460 O   0  0  0  0  0  0  0  0  0  0  0  0
  188.0210  176.8850  143.7130 C   0  0  2  0  0  3  0  0  0  0  0  0
  186.9180  178.6030  142.6700 C   0  0  0  0  0  2  0  0  0  0  0  0
  186.4860  178.2350  141.2470 C   0  0  0  0  0  2  0  0  0  0  0  0
  189.7850  175.5130  142.5680 N   0  0  0  0  0  2  0  0  0  0  0  0
  189.4970  174.2470  141.8920 C   0  0  1  0  0  3  0  0  0  0  0  0
  190.7590  173.6780  141.2490 C   0  0  0  0  0  2  0  0  0  0  0  0
  188.7600  172.8380  137.2210 O   0  0  0  0  0  1  0  0  0  0  0  0
  190.3590  173.5610  138.7990 C   0  0  0  0  0  3  0  0  0  0  0  0
  190.0110  172.5440  137.7640 C   0  0  1  0  0  3  0  0  0  0  0  0
  190.4510  172.9650  139.9770 C   0  0  0  0  0  0  0  0  0  0  0  0
  190.1760  171.5420  139.8720 C   0  0  0  0  0  3  0  0  0  0  0  0
  189.9210  171.3050  138.5920 C   0  0  0  0  0  0  0  0  0  0  0  0
  189.6050  170.0530  138.0620 O   0  0  0  0  0  0  0  0  0  0  0  0
  190.2930  168.8680  138.4420 C   0  0  0  0  0  1  0  0  0  0  0  0
  188.9060  173.2410  142.8790 C   0  0  0  0  0  2  0  0  0  0  0  0
  189.6190  173.2750  144.2280 C   0  0  0  0  0  2  0  0  0  0  0  0
  190.0580  171.8790  144.6310 C   0  0  0  0  0  2  0  0  0  0  0  0
  191.3440  171.5700  144.0340 N   0  0  0  0  0  1  0  0  0  0  0  0
  188.9230  177.7070  144.5170 N   0  0  0  0  0  2  0  0  0  0  0  0
  188.8580  177.2370  145.8940 C   0  0  2  0  0  3  0  0  0  0  0  0
  190.3680  176.2690  147.4700 O   0  0  0  0  0  0  0  0  0  0  0  0
  191.1450  176.3910  145.2570 N   0  0  0  0  0  2  0  0  0  0  0  0
  190.1560  176.6020  146.2720 C   0  0  0  0  0  0  0  0  0  0  0  0
  196.3570  174.1360  145.9700 C   0  0  0  0  0  1  0  0  0  0  0  0
  193.8810  173.9090  145.7410 C   0  0  0  0  0  3  0  0  0  0  0  0
  193.5990  176.6760  145.4860 C   0  0  0  0  0  3  0  0  0  0  0  0
  195.0090  174.7320  145.7870 C   0  0  0  0  0  0  0  0  0  0  0  0
  194.8680  176.1170  145.6590 C   0  0  0  0  0  3  0  0  0  0  0  0
  192.4620  175.8550  145.4400 C   0  0  0  0  0  0  0  0  0  0  0  0
  192.6130  174.4700  145.5680 C   0  0  0  0  0  3  0  0  0  0  0  0
  187.6980  176.2620  146.0610 C   0  0  0  0  0  2  0  0  0  0  0  0
  186.7380  176.7300  147.1430 C   0  0  0  0  0  2  0  0  0  0  0  0
  185.4980  177.0380  146.5850 O   0  0  0  0  0  0  0  0  0  0  0  0
  185.1680  178.2800  147.1230 C   0  0  0  0  0  1  0  0  0  0  0  0
  1  7  1  0  0  0  0
  1  3  2  0  0  0  0
  2  8  1  1  0  0  0
  2  5  1  0  0  0  0
  3  2  1  0  0  0  0
  4  5  1  0  0  0  0
  5 23  1  6  0  0  0
  6  4  1  0  0  0  0
  7  6  1  0  0  0  0
  9 10  1  1  0  0  0
  9  8  1  0  0  0  0
  9 19  1  0  0  0  0
 12 14  2  0  0  0  0
 13 11  1  1  0  0  0
 13 16  1  0  0  0  0
 13 12  1  0  0  0  0
 14 10  1  0  0  0  0
 15 14  1  0  0  0  0
 16 15  2  0  0  0  0
 17 18  1  0  0  0  0
 17 16  1  0  0  0  0
 19 20  1  0  0  0  0
 20 21  1  0  0  0  0
 22 21  1  0  0  0  0
 23 24  1  0  0  0  0
 24 35  1  6  0  0  0
 24 27  1  0  0  0  0
 26 33  1  0  0  0  0
 26 27  1  0  0  0  0
 27 25  2  0  0  0  0
 29 31  1  0  0  0  0
 30 32  1  0  0  0  0
 31 28  1  0  0  0  0
 32 31  2  0  0  0  0
 33 30  2  0  0  0  0
 33 34  1  0  0  0  0
 34 29  2  0  0  0  0
 35 36  1  0  0  0  0
 37 38  1  0  0  0  0
 37 36  1  0  0  0  0
M  END
>  <MODEL>
8

>  <REMARK>
 VINA RESULT:      -5.4      2.206      8.548
  Name = 
  15 active torsions:
  status: ('A' for Active; 'I' for Inactive)
    1  A    between atoms: O_5  and  C_12
    2  A    between atoms: C_6  and  N_14
    3  A    between atoms: C_9  and  C_13
    4  A    between atoms: C_9  and  C_23
    5  A    between atoms: C_10  and  C_16
    6  A    between atoms: C_10  and  N_30
    7  A    between atoms: C_10  and  C_38
    8  A    between atoms: C_12  and  C_16
    9  A    between atoms: N_14  and  C_28
   10  A    between atoms: C_15  and  C_24
   11  A    between atoms: C_15  and  C_28
   12  A    between atoms: O_22  and  C_36
   13  A    between atoms: C_23  and  C_28
   14  A    between atoms: C_25  and  N_30
   15  A    between atoms: N_27  and  C_29
                            x       y       z     vdW  Elec       q    Type
                         _______ _______ _______ _____ _____    ______ ____

>  <TORSDO>
F 15

$$$$
=
 OpenBabel11042416283D

 38 40  0  0  1  0  0  0  0  0999 V2000
  191.8630  170.9540  142.6000 C   0  0  0  0  0  3  0  0  0  0  0  0
  190.3970  172.7710  143.5110 C   0  0  1  0  0  3  0  0  0  0  0  0
  190.8540  171.8230  142.4360 C   0  0  0  0  0  3  0  0  0  0  0  0
  192.8030  173.1900  143.9620 O   0  0  0  0  0  0  0  0  0  0  0  0
  191.5030  173.7580  143.9540 C   0  0  2  0  0  3  0  0  0  0  0  0
  192.7780  172.0240  144.7470 C   0  0  0  0  0  2  0  0  0  0  0  0
  192.6590  170.7710  143.8730 C   0  0  0  0  0  2  0  0  0  0  0  0
  189.1460  173.4480  143.1460 N   0  0  0  0  0  2  0  0  0  0  0  0
  189.2460  174.0760  141.8270 C   0  0  1  0  0  3  0  0  0  0  0  0
  188.3370  173.3720  140.8230 C   0  0  0  0  0  2  0  0  0  0  0  0
  191.3400  174.1810  137.4680 O   0  0  0  0  0  1  0  0  0  0  0  0
  190.0390  173.0070  139.0490 C   0  0  0  0  0  3  0  0  0  0  0  0
  190.2450  173.3280  137.6060 C   0  0  1  0  0  3  0  0  0  0  0  0
  188.8660  173.4840  139.4340 C   0  0  0  0  0  0  0  0  0  0  0  0
  188.1860  174.1590  138.3420 C   0  0  0  0  0  3  0  0  0  0  0  0
  188.9880  174.0670  137.2900 C   0  0  0  0  0  0  0  0  0  0  0  0
  188.7070  174.5920  136.0270 O   0  0  0  0  0  0  0  0  0  0  0  0
  189.4680  174.2540  134.8750 C   0  0  0  0  0  1  0  0  0  0  0  0
  188.8860  175.5590  141.9170 C   0  0  0  0  0  2  0  0  0  0  0  0
  187.3940  175.8010  141.7070 C   0  0  0  0  0  2  0  0  0  0  0  0
  187.1640  177.1430  141.0390 C   0  0  0  0  0  2  0  0  0  0  0  0
  188.2240  178.0670  141.3990 N   0  0  0  0  0  1  0  0  0  0  0  0
  191.1760  174.3510  145.2480 N   0  0  0  0  0  2  0  0  0  0  0  0
  191.5550  175.7570  145.2100 C   0  0  2  0  0  3  0  0  0  0  0  0
  190.4260  177.8610  145.1680 O   0  0  0  0  0  0  0  0  0  0  0  0
  189.0740  175.9870  145.5890 N   0  0  0  0  0  2  0  0  0  0  0  0
  190.3340  176.6120  145.3140 C   0  0  0  0  0  0  0  0  0  0  0  0
  184.0480  178.6480  146.2380 C   0  0  0  0  0  1  0  0  0  0  0  0
  186.1110  178.1470  144.9230 C   0  0  0  0  0  3  0  0  0  0  0  0
  187.0460  176.4550  146.9400 C   0  0  0  0  0  3  0  0  0  0  0  0
  185.3520  177.9550  146.0810 C   0  0  0  0  0  0  0  0  0  0  0  0
  185.8190  177.1080  147.0890 C   0  0  0  0  0  3  0  0  0  0  0  0
  187.8140  176.6450  145.7810 C   0  0  0  0  0  0  0  0  0  0  0  0
  187.3380  177.4920  144.7760 C   0  0  0  0  0  3  0  0  0  0  0  0
  192.3310  176.0570  143.9330 C   0  0  0  0  0  2  0  0  0  0  0  0
  193.6980  176.6440  144.2450 C   0  0  0  0  0  2  0  0  0  0  0  0
  194.6740  176.0360  143.4560 O   0  0  0  0  0  0  0  0  0  0  0  0
  194.0820  175.9080  142.2000 C   0  0  0  0  0  1  0  0  0  0  0  0
  1  7  1  0  0  0  0
  2  8  1  6  0  0  0
  2  5  1  0  0  0  0
  3  1  2  0  0  0  0
  3  2  1  0  0  0  0
  4  6  1  0  0  0  0
  5  4  1  0  0  0  0
  5 23  1  1  0  0  0
  7  6  1  0  0  0  0
  9 10  1  6  0  0  0
  9 19  1  0  0  0  0
  9  8  1  0  0  0  0
 12 14  2  0  0  0  0
 13 11  1  1  0  0  0
 13 12  1  0  0  0  0
 14 10  1  0  0  0  0
 15 14  1  0  0  0  0
 16 13  1  0  0  0  0
 16 15  2  0  0  0  0
 17 16  1  0  0  0  0
 18 17  1  0  0  0  0
 20 19  1  0  0  0  0
 21 22  1  0  0  0  0
 21 20  1  0  0  0  0
 24 35  1  6  0  0  0
 24 23  1  0  0  0  0
 24 27  1  0  0  0  0
 25 27  2  0  0  0  0
 26 33  1  0  0  0  0
 27 26  1  0  0  0  0
 29 31  1  0  0  0  0
 30 32  1  0  0  0  0
 31 28  1  0  0  0  0
 31 32  2  0  0  0  0
 33 30  2  0  0  0  0
 34 29  2  0  0  0  0
 34 33  1  0  0  0  0
 35 36  1  0  0  0  0
 37 36  1  0  0  0  0
 38 37  1  0  0  0  0
M  END
>  <MODEL>
9

>  <REMARK>
 VINA RESULT:      -5.4      2.542      6.462
  Name = 
  15 active torsions:
  status: ('A' for Active; 'I' for Inactive)
    1  A    between atoms: O_5  and  C_12
    2  A    between atoms: C_6  and  N_14
    3  A    between atoms: C_9  and  C_13
    4  A    between atoms: C_9  and  C_23
    5  A    between atoms: C_10  and  C_16
    6  A    between atoms: C_10  and  N_30
    7  A    between atoms: C_10  and  C_38
    8  A    between atoms: C_12  and  C_16
    9  A    between atoms: N_14  and  C_28
   10  A    between atoms: C_15  and  C_24
   11  A    between atoms: C_15  and  C_28
   12  A    between atoms: O_22  and  C_36
   13  A    between atoms: C_23  and  C_28
   14  A    between atoms: C_25  and  N_30
   15  A    between atoms: N_27  and  C_29
                            x       y       z     vdW  Elec       q    Type
                         _______ _______ _______ _____ _____    ______ ____

>  <TORSDO>
F 15

$$$$
