=
 OpenBabel11042414353D

 46 51  0  0  1  0  0  0  0  0999 V2000
  190.7440  177.4320  146.4620 N   0  0  0  0  0  2  0  0  0  0  0  0
  189.4540  175.4160  146.6940 C   0  0  1  0  0  3  0  0  0  0  0  0
  191.0290  174.9580  147.4580 S   0  0  0  0  0  0  0  0  0  0  0  0
  189.6930  176.6390  145.8400 C   0  0  1  0  0  3  0  0  0  0  0  0
  191.7930  176.5120  146.8870 C   0  0  1  0  0  3  0  0  0  0  0  0
  193.8420  175.2550  146.1860 C   0  0  2  0  0  3  0  0  0  0  0  0
  193.5830  173.9870  145.6580 O   0  0  0  0  0  1  0  0  0  0  0  0
  194.8860  177.3160  145.6100 C   0  0  0  0  0  2  0  0  0  0  0  0
  192.7840  176.2510  145.7490 C   0  0  2  0  0  3  0  0  0  0  0  0
  193.4570  177.4950  145.3670 N   0  0  0  0  0  2  0  0  0  0  0  0
  195.1620  175.8320  145.7100 C   0  0  2  0  0  3  0  0  0  0  0  0
  195.0800  175.6470  143.2320 C   0  0  0  0  0  3  0  0  0  0  0  0
  195.5410  175.1450  141.8930 C   0  0  0  0  0  2  0  0  0  0  0  0
  195.6610  175.2720  144.3900 C   0  0  0  0  0  0  0  0  0  0  0  0
  196.9150  174.4110  144.4020 C   0  0  2  0  0  3  0  0  0  0  0  0
  197.2830  173.8200  143.0360 C   0  0  0  0  0  2  0  0  0  0  0  0
  197.0290  174.8230  141.9210 C   0  0  1  0  0  3  0  0  0  0  0  0
  197.4330  174.2180  140.5940 C   0  0  0  0  0  1  0  0  0  0  0  0
  196.8160  173.3130  145.4130 C   0  0  0  0  0  0  0  0  0  0  0  0
  196.3580  172.1920  145.0750 O   0  0  0  0  0  0  0  0  0  0  0  0
  197.2350  173.5210  146.7210 O   0  0  0  0  0  1  0  0  0  0  0  0
  188.9460  174.2700  145.8330 C   0  0  0  0  0  2  0  0  0  0  0  0
  190.0970  173.3860  145.3890 C   0  0  0  0  0  2  0  0  0  0  0  0
  189.7310  172.6650  144.0960 C   0  0  1  0  0  3  0  0  0  0  0  0
  191.3660  174.3910  142.9960 C   0  0  0  0  0  1  0  0  0  0  0  0
  190.4000  173.2140  142.8870 C   0  0  1  0  0  0  0  0  0  0  0  0
  190.8900  172.0730  143.5460 O   0  0  0  0  0  0  0  0  0  0  0  0
  189.6000  171.7850  139.1140 S   0  0  0  0  0  0  0  0  0  0  0  0
  189.3380  173.5830  139.0070 C   0  0  2  0  0  3  0  0  0  0  0  0
  189.1380  174.3330  140.6580 S   0  0  0  0  0  0  0  0  0  0  0  0
  189.7400  172.8660  141.5530 C   0  0  1  0  0  3  0  0  0  0  0  0
  190.5460  171.9490  140.6450 C   0  0  2  0  0  3  0  0  0  0  0  0
  188.1160  173.8750  138.1600 C   0  0  0  0  0  1  0  0  0  0  0  0
  191.9370  172.4830  140.3330 C   0  0  0  0  0  1  0  0  0  0  0  0
  188.4110  177.4550  145.7530 C   0  0  0  0  0  2  0  0  0  0  0  0
  186.6520  177.9470  143.9400 C   0  0  0  0  0  0  0  0  0  0  0  0
  188.7390  177.8190  142.0240 C   0  0  0  0  0  3  0  0  0  0  0  0
  189.0220  177.6540  143.3730 C   0  0  0  0  0  3  0  0  0  0  0  0
  188.0050  177.6970  144.3290 C   0  0  0  0  0  0  0  0  0  0  0  0
  187.4270  178.0150  141.6140 C   0  0  0  0  0  3  0  0  0  0  0  0
  186.3850  178.0660  142.5410 C   0  0  0  0  0  0  0  0  0  0  0  0
  185.0160  178.2040  141.9620 C   0  0  0  0  0  1  0  0  0  0  0  0
  185.7470  179.2060  145.9390 C   0  0  0  0  0  1  0  0  0  0  0  0
  184.2740  178.1830  144.4420 O   0  0  0  0  0  1  0  0  0  0  0  0
  185.5390  178.0230  145.0030 C   0  0  0  0  0  0  0  0  0  0  0  0
  185.5270  176.7450  145.8190 C   0  0  0  0  0  1  0  0  0  0  0  0
  2 22  1  6  0  0  0
  2  3  1  0  0  0  0
  4 35  1  1  0  0  0
  4  1  1  0  0  0  0
  4  2  1  0  0  0  0
  5  1  1  6  0  0  0
  5  3  1  0  0  0  0
  6  7  1  6  0  0  0
  8 11  1  0  0  0  0
  9 10  1  1  0  0  0
  9  6  1  0  0  0  0
  9  5  1  0  0  0  0
 10  8  1  0  0  0  0
 11 14  1  6  0  0  0
 11  6  1  0  0  0  0
 12 14  2  0  0  0  0
 13 17  1  0  0  0  0
 13 12  1  0  0  0  0
 14 15  1  0  0  0  0
 15 19  1  1  0  0  0
 16 15  1  0  0  0  0
 17 18  1  6  0  0  0
 17 16  1  0  0  0  0
 19 21  1  0  0  0  0
 20 19  2  0  0  0  0
 23 22  1  0  0  0  0
 24 23  1  1  0  0  0
 26 25  1  1  0  0  0
 26 27  1  0  0  0  0
 26 24  1  0  0  0  0
 27 24  1  0  0  0  0
 28 32  1  0  0  0  0
 29 33  1  6  0  0  0
 29 28  1  0  0  0  0
 29 30  1  0  0  0  0
 31 30  1  6  0  0  0
 31 26  1  0  0  0  0
 32 34  1  6  0  0  0
 32 31  1  0  0  0  0
 36 39  1  0  0  0  0
 36 45  1  0  0  0  0
 37 38  1  0  0  0  0
 38 39  2  0  0  0  0
 39 35  1  0  0  0  0
 40 37  2  0  0  0  0
 40 41  1  0  0  0  0
 41 36  2  0  0  0  0
 42 41  1  0  0  0  0
 44 45  1  0  0  0  0
 45 46  1  0  0  0  0
 45 43  1  0  0  0  0
M  END
>  <MODEL>
1

>  <REMARK>
 VINA RESULT:      -7.8      0.000      0.000
  Name = 
  10 active torsions:
  status: ('A' for Active; 'I' for Inactive)
    1  A    between atoms: C_8  and  C_10
    2  A    between atoms: C_9  and  C_23
    3  A    between atoms: C_10  and  C_12
    4  A    between atoms: C_12  and  C_16
    5  A    between atoms: C_15  and  C_26
    6  A    between atoms: C_18  and  C_43
    7  A    between atoms: C_19  and  C_45
    8  A    between atoms: C_22  and  C_42
    9  A    between atoms: C_25  and  C_29
   10  A    between atoms: C_29  and  C_41
                            x       y       z     vdW  Elec       q    Type
                         _______ _______ _______ _____ _____    ______ ____

>  <TORSDO>
F 10

$$$$
=
 OpenBabel11042414353D

 46 51  0  0  1  0  0  0  0  0999 V2000
  190.5490  177.0900  146.2700 N   0  0  0  0  0  2  0  0  0  0  0  0
  189.0540  175.3720  145.4980 C   0  0  1  0  0  3  0  0  0  0  0  0
  190.4230  174.4120  146.1900 S   0  0  0  0  0  0  0  0  0  0  0  0
  189.5520  176.7780  145.2570 C   0  0  1  0  0  3  0  0  0  0  0  0
  191.4160  175.9250  146.4020 C   0  0  1  0  0  3  0  0  0  0  0  0
  193.6400  174.9740  145.7500 C   0  0  2  0  0  3  0  0  0  0  0  0
  193.5600  173.8390  144.9380 O   0  0  0  0  0  1  0  0  0  0  0  0
  194.5620  177.1690  145.7690 C   0  0  0  0  0  2  0  0  0  0  0  0
  192.5600  175.9780  145.3860 C   0  0  2  0  0  3  0  0  0  0  0  0
  193.1640  177.3120  145.3700 N   0  0  0  0  0  2  0  0  0  0  0  0
  194.9520  175.7180  145.5950 C   0  0  2  0  0  3  0  0  0  0  0  0
  195.1500  176.0070  143.1330 C   0  0  0  0  0  3  0  0  0  0  0  0
  195.8130  175.8350  141.7960 C   0  0  0  0  0  2  0  0  0  0  0  0
  195.6590  175.4900  144.2710 C   0  0  0  0  0  0  0  0  0  0  0  0
  197.0180  174.8050  144.2880 C   0  0  2  0  0  3  0  0  0  0  0  0
  197.6040  174.5400  142.8960 C   0  0  0  0  0  2  0  0  0  0  0  0
  197.3210  175.7010  141.9540 C   0  0  1  0  0  3  0  0  0  0  0  0
  197.9410  175.4190  140.6030 C   0  0  0  0  0  1  0  0  0  0  0  0
  196.9770  173.5290  145.0660 C   0  0  0  0  0  0  0  0  0  0  0  0
  196.7470  172.4430  144.4750 O   0  0  0  0  0  0  0  0  0  0  0  0
  197.2010  173.5340  146.4380 O   0  0  0  0  0  1  0  0  0  0  0  0
  188.5970  174.7480  144.1890 C   0  0  0  0  0  2  0  0  0  0  0  0
  189.6370  173.7730  143.6710 C   0  0  0  0  0  2  0  0  0  0  0  0
  190.1740  174.2500  142.3250 C   0  0  1  0  0  3  0  0  0  0  0  0
  190.8890  171.7470  142.0360 C   0  0  0  0  0  1  0  0  0  0  0  0
  190.8150  173.1800  141.5160 C   0  0  1  0  0  0  0  0  0  0  0  0
  189.4880  173.5840  141.2850 O   0  0  0  0  0  0  0  0  0  0  0  0
  192.6150  173.9750  137.9040 S   0  0  0  0  0  0  0  0  0  0  0  0
  193.8710  173.0870  138.8760 C   0  0  2  0  0  3  0  0  0  0  0  0
  193.4730  173.0940  140.6570 S   0  0  0  0  0  0  0  0  0  0  0  0
  191.7600  173.6620  140.4160 C   0  0  1  0  0  3  0  0  0  0  0  0
  191.2850  173.4160  138.9920 C   0  0  2  0  0  3  0  0  0  0  0  0
  195.2320  173.7140  138.6530 C   0  0  0  0  0  1  0  0  0  0  0  0
  190.9710  171.9530  138.7070 C   0  0  0  0  0  1  0  0  0  0  0  0
  188.3860  177.7520  145.3580 C   0  0  0  0  0  2  0  0  0  0  0  0
  186.2580  178.0550  143.9440 C   0  0  0  0  0  0  0  0  0  0  0  0
  187.9030  177.9650  141.6350 C   0  0  0  0  0  3  0  0  0  0  0  0
  188.4720  177.8790  142.8980 C   0  0  0  0  0  3  0  0  0  0  0  0
  187.6760  177.9040  144.0460 C   0  0  0  0  0  0  0  0  0  0  0  0
  186.5230  178.0640  141.5050 C   0  0  0  0  0  3  0  0  0  0  0  0
  185.6970  178.0950  142.6290 C   0  0  0  0  0  0  0  0  0  0  0  0
  184.2320  178.1240  142.3480 C   0  0  0  0  0  1  0  0  0  0  0  0
  185.9130  179.1520  146.1970 C   0  0  0  0  0  1  0  0  0  0  0  0
  184.0670  178.4600  144.9430 O   0  0  0  0  0  1  0  0  0  0  0  0
  185.3890  178.1130  145.2150 C   0  0  0  0  0  0  0  0  0  0  0  0
  185.3850  176.7550  145.8890 C   0  0  0  0  0  1  0  0  0  0  0  0
  1  5  1  0  0  0  0
  2 22  1  6  0  0  0
  2  3  1  0  0  0  0
  4 35  1  1  0  0  0
  4  2  1  0  0  0  0
  4  1  1  0  0  0  0
  5  3  1  6  0  0  0
  6  7  1  6  0  0  0
  9 10  1  1  0  0  0
  9  6  1  0  0  0  0
  9  5  1  0  0  0  0
 10  8  1  0  0  0  0
 11 14  1  6  0  0  0
 11  6  1  0  0  0  0
 11  8  1  0  0  0  0
 12 14  2  0  0  0  0
 13 17  1  0  0  0  0
 13 12  1  0  0  0  0
 14 15  1  0  0  0  0
 15 19  1  6  0  0  0
 16 15  1  0  0  0  0
 17 18  1  6  0  0  0
 17 16  1  0  0  0  0
 19 21  1  0  0  0  0
 20 19  2  0  0  0  0
 23 22  1  0  0  0  0
 24 23  1  1  0  0  0
 26 25  1  1  0  0  0
 26 24  1  0  0  0  0
 27 26  1  0  0  0  0
 27 24  1  0  0  0  0
 28 29  1  0  0  0  0
 28 32  1  0  0  0  0
 29 33  1  1  0  0  0
 29 30  1  0  0  0  0
 31 30  1  1  0  0  0
 31 26  1  0  0  0  0
 32 34  1  1  0  0  0
 32 31  1  0  0  0  0
 36 39  1  0  0  0  0
 36 45  1  0  0  0  0
 37 38  1  0  0  0  0
 38 39  2  0  0  0  0
 39 35  1  0  0  0  0
 40 37  2  0  0  0  0
 40 41  1  0  0  0  0
 41 36  2  0  0  0  0
 42 41  1  0  0  0  0
 44 45  1  0  0  0  0
 45 46  1  0  0  0  0
 45 43  1  0  0  0  0
M  END
>  <MODEL>
2

>  <REMARK>
 VINA RESULT:      -7.7      1.414      1.927
  Name = 
  10 active torsions:
  status: ('A' for Active; 'I' for Inactive)
    1  A    between atoms: C_8  and  C_10
    2  A    between atoms: C_9  and  C_23
    3  A    between atoms: C_10  and  C_12
    4  A    between atoms: C_12  and  C_16
    5  A    between atoms: C_15  and  C_26
    6  A    between atoms: C_18  and  C_43
    7  A    between atoms: C_19  and  C_45
    8  A    between atoms: C_22  and  C_42
    9  A    between atoms: C_25  and  C_29
   10  A    between atoms: C_29  and  C_41
                            x       y       z     vdW  Elec       q    Type
                         _______ _______ _______ _____ _____    ______ ____

>  <TORSDO>
F 10

$$$$
=
 OpenBabel11042414353D

 46 51  0  0  1  0  0  0  0  0999 V2000
  190.7120  171.4210  142.7480 N   0  0  0  0  0  2  0  0  0  0  0  0
  189.4270  173.4480  142.5980 C   0  0  1  0  0  3  0  0  0  0  0  0
  188.9660  172.5830  141.0760 S   0  0  0  0  0  0  0  0  0  0  0  0
  190.7070  172.8300  143.1100 C   0  0  1  0  0  3  0  0  0  0  0  0
  190.2490  171.3220  141.3690 C   0  0  1  0  0  3  0  0  0  0  0  0
  191.0760  172.5190  139.3300 C   0  0  2  0  0  3  0  0  0  0  0  0
  191.7080  173.7370  139.5990 O   0  0  0  0  0  1  0  0  0  0  0  0
  191.4830  170.4180  138.2850 C   0  0  0  0  0  2  0  0  0  0  0  0
  191.4150  171.4860  140.3900 C   0  0  2  0  0  3  0  0  0  0  0  0
  191.6960  170.2160  139.7160 N   0  0  0  0  0  2  0  0  0  0  0  0
  191.5130  171.9060  138.0130 C   0  0  2  0  0  3  0  0  0  0  0  0
  193.9920  171.9750  138.1960 C   0  0  0  0  0  3  0  0  0  0  0  0
  195.3740  172.3660  137.7550 C   0  0  0  0  0  2  0  0  0  0  0  0
  192.8810  172.3520  137.5290 C   0  0  0  0  0  0  0  0  0  0  0  0
  192.9690  173.0940  136.2040 C   0  0  2  0  0  3  0  0  0  0  0  0
  194.3800  173.5810  135.8490 C   0  0  0  0  0  2  0  0  0  0  0  0
  195.4270  172.5510  136.2440 C   0  0  1  0  0  3  0  0  0  0  0  0
  196.8010  173.0500  135.8510 C   0  0  0  0  0  1  0  0  0  0  0  0
  192.0150  174.2460  136.1570 C   0  0  0  0  0  0  0  0  0  0  0  0
  192.3130  175.3270  136.7250 O   0  0  0  0  0  1  0  0  0  0  0  0
  190.8060  174.1300  135.4820 O   0  0  0  0  0  0  0  0  0  0  0  0
  189.6390  174.9250  142.3080 C   0  0  0  0  0  2  0  0  0  0  0  0
  188.4540  175.4950  141.5510 C   0  0  0  0  0  2  0  0  0  0  0  0
  187.2760  175.6940  142.4990 C   0  0  1  0  0  3  0  0  0  0  0  0
  188.1020  178.1780  142.5620 C   0  0  0  0  0  1  0  0  0  0  0  0
  187.1320  177.0850  143.0020 C   0  0  1  0  0  0  0  0  0  0  0  0
  186.3620  176.6060  141.9270 O   0  0  0  0  0  0  0  0  0  0  0  0
  184.3840  178.2830  145.8180 S   0  0  0  0  0  0  0  0  0  0  0  0
  186.0070  178.5300  146.6030 C   0  0  2  0  0  3  0  0  0  0  0  0
  187.3190  177.5980  145.7430 S   0  0  0  0  0  0  0  0  0  0  0  0
  186.3010  177.2440  144.2750 C   0  0  1  0  0  3  0  0  0  0  0  0
  185.1210  178.1980  144.1700 C   0  0  2  0  0  3  0  0  0  0  0  0
  185.9460  178.1070  148.0560 C   0  0  0  0  0  1  0  0  0  0  0  0
  185.5160  179.5960  143.7140 C   0  0  0  0  0  1  0  0  0  0  0  0
  190.7700  172.9780  144.6240 C   0  0  0  0  0  2  0  0  0  0  0  0
  192.2260  174.7750  145.7520 C   0  0  0  0  0  0  0  0  0  0  0  0
  194.4930  173.1960  145.1120 C   0  0  0  0  0  3  0  0  0  0  0  0
  193.2200  172.7530  144.7800 C   0  0  0  0  0  3  0  0  0  0  0  0
  192.0930  173.5250  145.0720 C   0  0  0  0  0  0  0  0  0  0  0  0
  194.6540  174.4300  145.7290 C   0  0  0  0  0  3  0  0  0  0  0  0
  193.5510  175.2270  146.0390 C   0  0  0  0  0  0  0  0  0  0  0  0
  193.8690  176.5610  146.6300 C   0  0  0  0  0  1  0  0  0  0  0  0
  190.8900  176.8610  145.2370 C   0  0  0  0  0  1  0  0  0  0  0  0
  189.7910  174.9060  145.8890 O   0  0  0  0  0  1  0  0  0  0  0  0
  190.9760  175.6080  146.0980 C   0  0  0  0  0  0  0  0  0  0  0  0
  191.0250  176.0150  147.5580 C   0  0  0  0  0  1  0  0  0  0  0  0
  1  4  1  0  0  0  0
  2 22  1  6  0  0  0
  2  4  1  0  0  0  0
  3  2  1  0  0  0  0
  4 35  1  1  0  0  0
  5  3  1  6  0  0  0
  5  1  1  0  0  0  0
  6  7  1  1  0  0  0
  6  9  1  0  0  0  0
  8 10  1  0  0  0  0
  9 10  1  6  0  0  0
  9  5  1  0  0  0  0
 11 14  1  1  0  0  0
 11  8  1  0  0  0  0
 11  6  1  0  0  0  0
 13 12  1  0  0  0  0
 14 12  2  0  0  0  0
 15 19  1  1  0  0  0
 15 14  1  0  0  0  0
 16 15  1  0  0  0  0
 16 17  1  0  0  0  0
 17 18  1  1  0  0  0
 17 13  1  0  0  0  0
 19 20  1  0  0  0  0
 21 19  2  0  0  0  0
 23 22  1  0  0  0  0
 24 23  1  6  0  0  0
 24 26  1  0  0  0  0
 26 25  1  6  0  0  0
 26 31  1  0  0  0  0
 27 24  1  0  0  0  0
 27 26  1  0  0  0  0
 28 29  1  0  0  0  0
 29 33  1  1  0  0  0
 30 29  1  0  0  0  0
 31 30  1  1  0  0  0
 32 34  1  1  0  0  0
 32 31  1  0  0  0  0
 32 28  1  0  0  0  0
 35 39  1  0  0  0  0
 36 41  1  0  0  0  0
 36 45  1  0  0  0  0
 37 40  1  0  0  0  0
 38 39  1  0  0  0  0
 38 37  2  0  0  0  0
 39 36  2  0  0  0  0
 40 41  2  0  0  0  0
 41 42  1  0  0  0  0
 43 45  1  0  0  0  0
 44 45  1  0  0  0  0
 45 46  1  0  0  0  0
M  END
>  <MODEL>
3

>  <REMARK>
 VINA RESULT:      -6.9      3.684      7.680
  Name = 
  10 active torsions:
  status: ('A' for Active; 'I' for Inactive)
    1  A    between atoms: C_8  and  C_10
    2  A    between atoms: C_9  and  C_23
    3  A    between atoms: C_10  and  C_12
    4  A    between atoms: C_12  and  C_16
    5  A    between atoms: C_15  and  C_26
    6  A    between atoms: C_18  and  C_43
    7  A    between atoms: C_19  and  C_45
    8  A    between atoms: C_22  and  C_42
    9  A    between atoms: C_25  and  C_29
   10  A    between atoms: C_29  and  C_41
                            x       y       z     vdW  Elec       q    Type
                         _______ _______ _______ _____ _____    ______ ____

>  <TORSDO>
F 10

$$$$
=
 OpenBabel11042414353D

 46 51  0  0  1  0  0  0  0  0999 V2000
  189.8100  172.7740  143.7000 N   0  0  0  0  0  2  0  0  0  0  0  0
  188.5460  174.3100  142.3490 C   0  0  1  0  0  3  0  0  0  0  0  0
  188.0760  172.7060  141.6560 S   0  0  0  0  0  0  0  0  0  0  0  0
  189.8210  174.1160  143.1370 C   0  0  1  0  0  3  0  0  0  0  0  0
  189.3460  171.8660  142.6570 C   0  0  1  0  0  3  0  0  0  0  0  0
  190.2000  171.6210  140.3160 C   0  0  2  0  0  3  0  0  0  0  0  0
  190.8690  172.7490  139.8300 O   0  0  0  0  0  1  0  0  0  0  0  0
  190.5420  169.2970  140.7050 C   0  0  0  0  0  2  0  0  0  0  0  0
  190.5130  171.3960  141.7840 C   0  0  2  0  0  3  0  0  0  0  0  0
  190.7540  169.9660  141.9860 N   0  0  0  0  0  2  0  0  0  0  0  0
  190.6160  170.3430  139.6130 C   0  0  2  0  0  3  0  0  0  0  0  0
  193.0960  170.4390  139.7570 C   0  0  0  0  0  3  0  0  0  0  0  0
  194.4870  170.4630  139.1900 C   0  0  0  0  0  2  0  0  0  0  0  0
  191.9940  170.3850  138.9800 C   0  0  0  0  0  0  0  0  0  0  0  0
  192.0990  170.2110  137.4720 C   0  0  2  0  0  3  0  0  0  0  0  0
  193.5220  170.3610  136.9200 C   0  0  0  0  0  2  0  0  0  0  0  0
  194.5400  169.7290  137.8570 C   0  0  1  0  0  3  0  0  0  0  0  0
  195.9260  169.8670  137.2660 C   0  0  0  0  0  1  0  0  0  0  0  0
  191.1800  171.1420  136.7470 C   0  0  0  0  0  0  0  0  0  0  0  0
  191.4940  172.3530  136.6150 O   0  0  0  0  0  1  0  0  0  0  0  0
  189.9850  170.6770  136.2130 O   0  0  0  0  0  0  0  0  0  0  0  0
  188.7740  175.3110  141.2280 C   0  0  0  0  0  2  0  0  0  0  0  0
  187.5830  176.2410  141.0940 C   0  0  0  0  0  2  0  0  0  0  0  0
  186.7180  176.1660  142.3470 C   0  0  1  0  0  3  0  0  0  0  0  0
  187.0110  178.7680  142.3710 C   0  0  0  0  0  1  0  0  0  0  0  0
  186.4510  177.4850  142.9780 C   0  0  1  0  0  0  0  0  0  0  0  0
  185.5140  176.8700  142.1290 O   0  0  0  0  0  0  0  0  0  0  0  0
  184.4350  177.9740  146.5300 S   0  0  0  0  0  0  0  0  0  0  0  0
  186.1050  178.6280  146.8380 C   0  0  2  0  0  3  0  0  0  0  0  0
  187.2960  178.0490  145.5820 S   0  0  0  0  0  0  0  0  0  0  0  0
  186.0130  177.4390  144.4420 C   0  0  1  0  0  3  0  0  0  0  0  0
  184.6590  178.0650  144.7390 C   0  0  2  0  0  3  0  0  0  0  0  0
  186.5730  178.2130  148.2180 C   0  0  0  0  0  1  0  0  0  0  0  0
  184.5530  179.5130  144.2830 C   0  0  0  0  0  1  0  0  0  0  0  0
  189.8860  175.1470  144.2560 C   0  0  0  0  0  2  0  0  0  0  0  0
  191.7870  175.9300  145.8040 C   0  0  0  0  0  0  0  0  0  0  0  0
  193.4200  176.1900  143.4980 C   0  0  0  0  0  3  0  0  0  0  0  0
  192.1160  175.7270  143.3800 C   0  0  0  0  0  3  0  0  0  0  0  0
  191.2930  175.6080  144.5010 C   0  0  0  0  0  0  0  0  0  0  0  0
  193.9100  176.5570  144.7460 C   0  0  0  0  0  3  0  0  0  0  0  0
  193.1170  176.4490  145.8890 C   0  0  0  0  0  0  0  0  0  0  0  0
  193.7380  176.9480  147.1510 C   0  0  0  0  0  1  0  0  0  0  0  0
  189.7340  174.8090  146.7650 C   0  0  0  0  0  1  0  0  0  0  0  0
  191.5680  175.2570  148.1400 O   0  0  0  0  0  1  0  0  0  0  0  0
  190.8830  175.7690  147.0400 C   0  0  0  0  0  0  0  0  0  0  0  0
  190.3140  177.1180  147.4340 C   0  0  0  0  0  1  0  0  0  0  0  0
  2 22  1  6  0  0  0
  2  4  1  0  0  0  0
  3  2  1  0  0  0  0
  4  1  1  0  0  0  0
  4 35  1  1  0  0  0
  5  3  1  6  0  0  0
  5  1  1  0  0  0  0
  6  7  1  6  0  0  0
  6  9  1  0  0  0  0
  8 10  1  0  0  0  0
  9 10  1  6  0  0  0
  9  5  1  0  0  0  0
 11 14  1  1  0  0  0
 11  6  1  0  0  0  0
 11  8  1  0  0  0  0
 13 12  1  0  0  0  0
 14 12  2  0  0  0  0
 15 19  1  6  0  0  0
 15 14  1  0  0  0  0
 16 15  1  0  0  0  0
 16 17  1  0  0  0  0
 17 18  1  6  0  0  0
 17 13  1  0  0  0  0
 20 19  1  0  0  0  0
 21 19  2  0  0  0  0
 23 22  1  0  0  0  0
 24 23  1  6  0  0  0
 24 26  1  0  0  0  0
 26 25  1  6  0  0  0
 26 31  1  0  0  0  0
 27 24  1  0  0  0  0
 27 26  1  0  0  0  0
 28 29  1  0  0  0  0
 29 33  1  1  0  0  0
 30 29  1  0  0  0  0
 31 32  1  0  0  0  0
 31 30  1  1  0  0  0
 32 34  1  1  0  0  0
 32 28  1  0  0  0  0
 35 39  1  0  0  0  0
 36 41  1  0  0  0  0
 36 45  1  0  0  0  0
 37 40  1  0  0  0  0
 38 37  2  0  0  0  0
 38 39  1  0  0  0  0
 39 36  2  0  0  0  0
 40 41  2  0  0  0  0
 41 42  1  0  0  0  0
 43 45  1  0  0  0  0
 45 46  1  0  0  0  0
 45 44  1  0  0  0  0
M  END
>  <MODEL>
4

>  <REMARK>
 VINA RESULT:      -6.9      3.389      7.601
  Name = 
  10 active torsions:
  status: ('A' for Active; 'I' for Inactive)
    1  A    between atoms: C_8  and  C_10
    2  A    between atoms: C_9  and  C_23
    3  A    between atoms: C_10  and  C_12
    4  A    between atoms: C_12  and  C_16
    5  A    between atoms: C_15  and  C_26
    6  A    between atoms: C_18  and  C_43
    7  A    between atoms: C_19  and  C_45
    8  A    between atoms: C_22  and  C_42
    9  A    between atoms: C_25  and  C_29
   10  A    between atoms: C_29  and  C_41
                            x       y       z     vdW  Elec       q    Type
                         _______ _______ _______ _____ _____    ______ ____

>  <TORSDO>
F 10

$$$$
=
 OpenBabel11042414353D

 46 51  0  0  1  0  0  0  0  0999 V2000
  189.5650  172.8280  143.8080 N   0  0  0  0  0  2  0  0  0  0  0  0
  188.3750  174.3150  142.3410 C   0  0  1  0  0  3  0  0  0  0  0  0
  187.8020  172.6890  141.7920 S   0  0  0  0  0  0  0  0  0  0  0  0
  189.6460  174.1140  143.1320 C   0  0  1  0  0  3  0  0  0  0  0  0
  189.0340  171.8630  142.8510 C   0  0  1  0  0  3  0  0  0  0  0  0
  191.5130  171.6760  142.5510 C   0  0  2  0  0  3  0  0  0  0  0  0
  192.1020  170.6450  143.2890 O   0  0  0  0  0  1  0  0  0  0  0  0
  191.2790  172.4400  140.3080 C   0  0  0  0  0  2  0  0  0  0  0  0
  190.1590  171.2510  142.0120 C   0  0  2  0  0  3  0  0  0  0  0  0
  190.0590  171.7020  140.6220 N   0  0  0  0  0  2  0  0  0  0  0  0
  192.3280  172.0680  141.3330 C   0  0  2  0  0  3  0  0  0  0  0  0
  192.7390  169.8540  140.2780 C   0  0  0  0  0  3  0  0  0  0  0  0
  193.6000  168.7540  139.7250 C   0  0  0  0  0  2  0  0  0  0  0  0
  193.2520  170.9830  140.8110 C   0  0  0  0  0  0  0  0  0  0  0  0
  194.7460  171.2690  140.7650 C   0  0  2  0  0  3  0  0  0  0  0  0
  195.5990  170.0790  140.3090 C   0  0  0  0  0  2  0  0  0  0  0  0
  194.9110  169.3110  139.1900 C   0  0  1  0  0  3  0  0  0  0  0  0
  195.7950  168.1670  138.7440 C   0  0  0  0  0  1  0  0  0  0  0  0
  195.2480  171.7710  142.0810 C   0  0  0  0  0  0  0  0  0  0  0  0
  195.5850  172.9760  142.2040 O   0  0  0  0  0  0  0  0  0  0  0  0
  195.3370  170.9150  143.1730 O   0  0  0  0  0  1  0  0  0  0  0  0
  188.6450  175.2010  141.1350 C   0  0  0  0  0  2  0  0  0  0  0  0
  187.5790  176.2740  141.0120 C   0  0  0  0  0  2  0  0  0  0  0  0
  186.6640  176.2420  142.2320 C   0  0  1  0  0  3  0  0  0  0  0  0
  187.2620  178.7860  142.4020 C   0  0  0  0  0  1  0  0  0  0  0  0
  186.5310  177.5520  142.9220 C   0  0  1  0  0  0  0  0  0  0  0  0
  185.5610  177.0970  142.0120 O   0  0  0  0  0  0  0  0  0  0  0  0
  184.4370  178.0880  146.4220 S   0  0  0  0  0  0  0  0  0  0  0  0
  186.1500  178.5610  146.8150 C   0  0  2  0  0  3  0  0  0  0  0  0
  187.3260  177.9200  145.5760 S   0  0  0  0  0  0  0  0  0  0  0  0
  186.0350  177.4880  144.3670 C   0  0  1  0  0  3  0  0  0  0  0  0
  184.7370  178.2310  144.6460 C   0  0  2  0  0  3  0  0  0  0  0  0
  186.5230  178.0450  148.1910 C   0  0  0  0  0  1  0  0  0  0  0  0
  184.7890  179.7000  144.2520 C   0  0  0  0  0  1  0  0  0  0  0  0
  189.7880  175.2310  144.1560 C   0  0  0  0  0  2  0  0  0  0  0  0
  191.7650  175.9020  145.6590 C   0  0  0  0  0  0  0  0  0  0  0  0
  193.3600  176.0570  143.3180 C   0  0  0  0  0  3  0  0  0  0  0  0
  192.0290  175.6730  143.2300 C   0  0  0  0  0  3  0  0  0  0  0  0
  191.2240  175.6070  144.3700 C   0  0  0  0  0  0  0  0  0  0  0  0
  193.8980  176.3970  144.5530 C   0  0  0  0  0  3  0  0  0  0  0  0
  193.1250  176.3410  145.7140 C   0  0  0  0  0  0  0  0  0  0  0  0
  193.8030  176.8050  146.9600 C   0  0  0  0  0  1  0  0  0  0  0  0
  189.6910  174.8780  146.6820 C   0  0  0  0  0  1  0  0  0  0  0  0
  191.5670  175.2830  148.0130 O   0  0  0  0  0  1  0  0  0  0  0  0
  190.8800  175.7990  146.9160 C   0  0  0  0  0  0  0  0  0  0  0  0
  190.3700  177.1770  147.2930 C   0  0  0  0  0  1  0  0  0  0  0  0
  2 22  1  6  0  0  0
  2  4  1  0  0  0  0
  3  2  1  0  0  0  0
  4  1  1  0  0  0  0
  4 35  1  1  0  0  0
  5  3  1  6  0  0  0
  5  1  1  0  0  0  0
  6  7  1  6  0  0  0
  8 10  1  0  0  0  0
  8 11  1  0  0  0  0
  9 10  1  6  0  0  0
  9  6  1  0  0  0  0
  9  5  1  0  0  0  0
 11 14  1  6  0  0  0
 11  6  1  0  0  0  0
 12 14  2  0  0  0  0
 13 12  1  0  0  0  0
 15 14  1  0  0  0  0
 15 19  1  1  0  0  0
 16 15  1  0  0  0  0
 17 18  1  1  0  0  0
 17 13  1  0  0  0  0
 17 16  1  0  0  0  0
 19 20  2  0  0  0  0
 19 21  1  0  0  0  0
 23 22  1  0  0  0  0
 24 23  1  6  0  0  0
 24 26  1  0  0  0  0
 26 25  1  6  0  0  0
 26 31  1  0  0  0  0
 27 24  1  0  0  0  0
 27 26  1  0  0  0  0
 28 29  1  0  0  0  0
 29 33  1  1  0  0  0
 30 29  1  0  0  0  0
 31 32  1  0  0  0  0
 31 30  1  1  0  0  0
 32 34  1  1  0  0  0
 32 28  1  0  0  0  0
 35 39  1  0  0  0  0
 36 41  1  0  0  0  0
 36 45  1  0  0  0  0
 37 40  1  0  0  0  0
 38 37  2  0  0  0  0
 38 39  1  0  0  0  0
 39 36  2  0  0  0  0
 40 41  2  0  0  0  0
 41 42  1  0  0  0  0
 43 45  1  0  0  0  0
 45 46  1  0  0  0  0
 45 44  1  0  0  0  0
M  END
>  <MODEL>
5

>  <REMARK>
 VINA RESULT:      -6.8      3.007      6.705
  Name = 
  10 active torsions:
  status: ('A' for Active; 'I' for Inactive)
    1  A    between atoms: C_8  and  C_10
    2  A    between atoms: C_9  and  C_23
    3  A    between atoms: C_10  and  C_12
    4  A    between atoms: C_12  and  C_16
    5  A    between atoms: C_15  and  C_26
    6  A    between atoms: C_18  and  C_43
    7  A    between atoms: C_19  and  C_45
    8  A    between atoms: C_22  and  C_42
    9  A    between atoms: C_25  and  C_29
   10  A    between atoms: C_29  and  C_41
                            x       y       z     vdW  Elec       q    Type
                         _______ _______ _______ _____ _____    ______ ____

>  <TORSDO>
F 10

$$$$
=
 OpenBabel11042414353D

 46 51  0  0  1  0  0  0  0  0999 V2000
  191.8880  171.7070  142.4310 N   0  0  0  0  0  2  0  0  0  0  0  0
  190.1320  173.3450  142.5510 C   0  0  1  0  0  3  0  0  0  0  0  0
  189.8590  172.6030  140.9240 S   0  0  0  0  0  0  0  0  0  0  0  0
  191.5400  173.0080  142.9810 C   0  0  1  0  0  3  0  0  0  0  0  0
  191.4250  171.6790  141.0480 C   0  0  1  0  0  3  0  0  0  0  0  0
  193.8480  172.2520  140.7720 C   0  0  2  0  0  3  0  0  0  0  0  0
  194.6320  171.2010  140.2870 O   0  0  0  0  0  1  0  0  0  0  0  0
  193.2380  174.4940  140.2510 C   0  0  0  0  0  2  0  0  0  0  0  0
  192.4830  172.2620  140.1070 C   0  0  2  0  0  3  0  0  0  0  0  0
  192.1520  173.6470  139.7650 N   0  0  0  0  0  2  0  0  0  0  0  0
  194.4480  173.6150  140.4850 C   0  0  2  0  0  3  0  0  0  0  0  0
  194.9310  173.4590  138.0510 C   0  0  0  0  0  3  0  0  0  0  0  0
  195.8170  173.5060  136.8390 C   0  0  0  0  0  2  0  0  0  0  0  0
  195.3980  173.6540  139.3020 C   0  0  0  0  0  0  0  0  0  0  0  0
  196.8400  174.0690  139.5510 C   0  0  2  0  0  3  0  0  0  0  0  0
  197.7390  173.9880  138.3110 C   0  0  0  0  0  2  0  0  0  0  0  0
  196.9940  174.4450  137.0660 C   0  0  1  0  0  3  0  0  0  0  0  0
  197.9200  174.3830  135.8710 C   0  0  0  0  0  1  0  0  0  0  0  0
  197.4520  173.2810  140.6650 C   0  0  0  0  0  0  0  0  0  0  0  0
  197.8080  172.0910  140.4670 O   0  0  0  0  0  0  0  0  0  0  0  0
  197.6360  173.8580  141.9160 O   0  0  0  0  0  1  0  0  0  0  0  0
  189.9580  174.8520  142.4670 C   0  0  0  0  0  2  0  0  0  0  0  0
  188.7410  175.2030  141.6300 C   0  0  0  0  0  2  0  0  0  0  0  0
  187.5350  175.4310  142.5330 C   0  0  1  0  0  3  0  0  0  0  0  0
  188.3410  177.9230  142.5150 C   0  0  0  0  0  1  0  0  0  0  0  0
  187.3660  176.8410  142.9720 C   0  0  1  0  0  0  0  0  0  0  0  0
  186.6320  176.3110  141.8960 O   0  0  0  0  0  0  0  0  0  0  0  0
  184.5010  178.1050  145.6390 S   0  0  0  0  0  0  0  0  0  0  0  0
  186.0930  178.4620  146.4460 C   0  0  2  0  0  3  0  0  0  0  0  0
  187.4600  177.5290  145.6790 S   0  0  0  0  0  0  0  0  0  0  0  0
  186.4960  177.0470  144.2120 C   0  0  1  0  0  3  0  0  0  0  0  0
  185.2850  177.9470  144.0190 C   0  0  2  0  0  3  0  0  0  0  0  0
  186.0080  178.1270  147.9220 C   0  0  0  0  0  1  0  0  0  0  0  0
  185.6410  179.3270  143.4850 C   0  0  0  0  0  1  0  0  0  0  0  0
  191.6090  172.9630  144.5010 C   0  0  0  0  0  2  0  0  0  0  0  0
  192.7580  174.8680  145.7950 C   0  0  0  0  0  0  0  0  0  0  0  0
  195.2480  173.7030  145.0970 C   0  0  0  0  0  3  0  0  0  0  0  0
  194.0620  173.1000  144.7010 C   0  0  0  0  0  3  0  0  0  0  0  0
  192.8270  173.6680  145.0220 C   0  0  0  0  0  0  0  0  0  0  0  0
  195.2100  174.8960  145.8080 C   0  0  0  0  0  3  0  0  0  0  0  0
  193.9950  175.4920  146.1480 C   0  0  0  0  0  0  0  0  0  0  0  0
  194.0980  176.8090  146.8430 C   0  0  0  0  0  1  0  0  0  0  0  0
  191.1070  176.7370  145.3690 C   0  0  0  0  0  1  0  0  0  0  0  0
  190.3340  174.6030  145.9190 O   0  0  0  0  0  1  0  0  0  0  0  0
  191.3920  175.4740  146.1700 C   0  0  0  0  0  0  0  0  0  0  0  0
  191.3740  175.8120  147.6480 C   0  0  0  0  0  1  0  0  0  0  0  0
  1  4  1  0  0  0  0
  2 22  1  6  0  0  0
  2  4  1  0  0  0  0
  3  2  1  0  0  0  0
  4 35  1  1  0  0  0
  5  3  1  1  0  0  0
  5  1  1  0  0  0  0
  6  7  1  6  0  0  0
  8 11  1  0  0  0  0
  9 10  1  1  0  0  0
  9  6  1  0  0  0  0
  9  5  1  0  0  0  0
 10  8  1  0  0  0  0
 11 14  1  6  0  0  0
 11  6  1  0  0  0  0
 12 14  2  0  0  0  0
 13 17  1  0  0  0  0
 13 12  1  0  0  0  0
 14 15  1  0  0  0  0
 15 19  1  1  0  0  0
 16 15  1  0  0  0  0
 17 18  1  6  0  0  0
 17 16  1  0  0  0  0
 19 21  1  0  0  0  0
 20 19  2  0  0  0  0
 23 22  1  0  0  0  0
 24 23  1  6  0  0  0
 24 26  1  0  0  0  0
 26 25  1  6  0  0  0
 26 31  1  0  0  0  0
 27 24  1  0  0  0  0
 27 26  1  0  0  0  0
 28 29  1  0  0  0  0
 29 33  1  1  0  0  0
 30 29  1  0  0  0  0
 31 30  1  1  0  0  0
 32 34  1  1  0  0  0
 32 31  1  0  0  0  0
 32 28  1  0  0  0  0
 35 39  1  0  0  0  0
 36 41  1  0  0  0  0
 36 45  1  0  0  0  0
 37 40  1  0  0  0  0
 38 39  1  0  0  0  0
 38 37  2  0  0  0  0
 39 36  2  0  0  0  0
 40 41  2  0  0  0  0
 41 42  1  0  0  0  0
 43 45  1  0  0  0  0
 44 45  1  0  0  0  0
 45 46  1  0  0  0  0
M  END
>  <MODEL>
6

>  <REMARK>
 VINA RESULT:      -6.8      3.022      6.707
  Name = 
  10 active torsions:
  status: ('A' for Active; 'I' for Inactive)
    1  A    between atoms: C_8  and  C_10
    2  A    between atoms: C_9  and  C_23
    3  A    between atoms: C_10  and  C_12
    4  A    between atoms: C_12  and  C_16
    5  A    between atoms: C_15  and  C_26
    6  A    between atoms: C_18  and  C_43
    7  A    between atoms: C_19  and  C_45
    8  A    between atoms: C_22  and  C_42
    9  A    between atoms: C_25  and  C_29
   10  A    between atoms: C_29  and  C_41
                            x       y       z     vdW  Elec       q    Type
                         _______ _______ _______ _____ _____    ______ ____

>  <TORSDO>
F 10

$$$$
=
 OpenBabel11042414353D

 46 51  0  0  1  0  0  0  0  0999 V2000
  192.2540  174.0980  146.0540 N   0  0  0  0  0  2  0  0  0  0  0  0
  193.8920  175.4400  144.9140 C   0  0  1  0  0  3  0  0  0  0  0  0
  193.5560  176.4170  146.4000 S   0  0  0  0  0  0  0  0  0  0  0  0
  192.7520  174.4640  144.7370 C   0  0  1  0  0  3  0  0  0  0  0  0
  192.1700  175.3200  146.8450 C   0  0  1  0  0  3  0  0  0  0  0  0
  189.8960  175.1390  145.8100 C   0  0  2  0  0  3  0  0  0  0  0  0
  188.9430  174.5230  146.6270 O   0  0  0  0  0  1  0  0  0  0  0  0
  190.2870  177.1770  144.6420 C   0  0  0  0  0  2  0  0  0  0  0  0
  190.8250  176.0190  146.6280 C   0  0  2  0  0  3  0  0  0  0  0  0
  191.0170  177.2770  145.9030 N   0  0  0  0  0  2  0  0  0  0  0  0
  189.2780  176.0570  144.7730 C   0  0  2  0  0  3  0  0  0  0  0  0
  187.4460  176.4800  146.4000 C   0  0  0  0  0  3  0  0  0  0  0  0
  186.1040  177.0070  146.8260 C   0  0  0  0  0  2  0  0  0  0  0  0
  187.9040  176.5910  145.1360 C   0  0  0  0  0  0  0  0  0  0  0  0
  187.1370  177.3790  144.0840 C   0  0  2  0  0  3  0  0  0  0  0  0
  185.7250  177.7940  144.5170 C   0  0  0  0  0  2  0  0  0  0  0  0
  185.7030  178.2080  145.9810 C   0  0  1  0  0  3  0  0  0  0  0  0
  184.3040  178.6410  146.3630 C   0  0  0  0  0  1  0  0  0  0  0  0
  187.0660  176.6370  142.7880 C   0  0  0  0  0  0  0  0  0  0  0  0
  186.6920  175.4360  142.7740 O   0  0  0  0  0  1  0  0  0  0  0  0
  187.4040  177.2680  141.5960 O   0  0  0  0  0  0  0  0  0  0  0  0
  193.9880  176.3560  143.7050 C   0  0  0  0  0  2  0  0  0  0  0  0
  195.3010  176.1410  142.9760 C   0  0  0  0  0  2  0  0  0  0  0  0
  195.0890  176.2690  141.4720 C   0  0  1  0  0  3  0  0  0  0  0  0
  196.0780  173.8450  141.4050 C   0  0  0  0  0  1  0  0  0  0  0  0
  195.5050  175.0700  140.6970 C   0  0  1  0  0  0  0  0  0  0  0  0
  194.1620  175.2930  141.0440 O   0  0  0  0  0  0  0  0  0  0  0  0
  195.2450  175.1180  136.5930 S   0  0  0  0  0  0  0  0  0  0  0  0
  196.8590  174.3610  136.9580 C   0  0  2  0  0  3  0  0  0  0  0  0
  197.3930  174.7070  138.6680 S   0  0  0  0  0  0  0  0  0  0  0  0
  195.7590  175.3020  139.2080 C   0  0  1  0  0  3  0  0  0  0  0  0
  194.6550  174.8260  138.2760 C   0  0  2  0  0  3  0  0  0  0  0  0
  197.9000  174.8740  135.9830 C   0  0  0  0  0  1  0  0  0  0  0  0
  194.3140  173.3530  138.4500 C   0  0  0  0  0  1  0  0  0  0  0  0
  193.2550  173.2240  144.0100 C   0  0  0  0  0  2  0  0  0  0  0  0
  192.5580  171.7050  142.0530 C   0  0  0  0  0  0  0  0  0  0  0  0
  190.7180  173.7200  141.2780 C   0  0  0  0  0  3  0  0  0  0  0  0
  191.5000  173.8910  142.4120 C   0  0  0  0  0  3  0  0  0  0  0  0
  192.4240  172.9170  142.8000 C   0  0  0  0  0  0  0  0  0  0  0  0
  190.8630  172.5730  140.5080 C   0  0  0  0  0  3  0  0  0  0  0  0
  191.7730  171.5780  140.8650 C   0  0  0  0  0  0  0  0  0  0  0  0
  191.8840  170.4360  139.9100 C   0  0  0  0  0  1  0  0  0  0  0  0
  194.6860  170.4570  141.4950 C   0  0  0  0  0  1  0  0  0  0  0  0
  194.1610  170.9240  143.7220 O   0  0  0  0  0  1  0  0  0  0  0  0
  193.5570  170.6220  142.5030 C   0  0  0  0  0  0  0  0  0  0  0  0
  192.8360  169.2970  142.6570 C   0  0  0  0  0  1  0  0  0  0  0  0
  2 22  1  6  0  0  0
  2  3  1  0  0  0  0
  3  5  1  0  0  0  0
  4 35  1  1  0  0  0
  4  2  1  0  0  0  0
  4  1  1  0  0  0  0
  5  1  1  6  0  0  0
  6  7  1  1  0  0  0
  6  9  1  0  0  0  0
  8 11  1  0  0  0  0
  8 10  1  0  0  0  0
  9 10  1  6  0  0  0
  9  5  1  0  0  0  0
 11 14  1  1  0  0  0
 11  6  1  0  0  0  0
 12 13  1  0  0  0  0
 14 12  2  0  0  0  0
 15 19  1  6  0  0  0
 15 16  1  0  0  0  0
 15 14  1  0  0  0  0
 16 17  1  0  0  0  0
 17 18  1  1  0  0  0
 17 13  1  0  0  0  0
 20 19  1  0  0  0  0
 21 19  2  0  0  0  0
 23 22  1  0  0  0  0
 24 23  1  1  0  0  0
 26 27  1  0  0  0  0
 26 25  1  1  0  0  0
 26 24  1  0  0  0  0
 27 24  1  0  0  0  0
 28 29  1  0  0  0  0
 28 32  1  0  0  0  0
 29 33  1  6  0  0  0
 29 30  1  0  0  0  0
 31 30  1  6  0  0  0
 31 26  1  0  0  0  0
 32 34  1  6  0  0  0
 32 31  1  0  0  0  0
 36 45  1  0  0  0  0
 36 39  1  0  0  0  0
 37 38  1  0  0  0  0
 38 39  2  0  0  0  0
 39 35  1  0  0  0  0
 40 41  1  0  0  0  0
 40 37  2  0  0  0  0
 41 36  2  0  0  0  0
 42 41  1  0  0  0  0
 43 45  1  0  0  0  0
 45 46  1  0  0  0  0
 45 44  1  0  0  0  0
M  END
>  <MODEL>
7

>  <REMARK>
 VINA RESULT:      -6.7      2.902      8.085
  Name = 
  10 active torsions:
  status: ('A' for Active; 'I' for Inactive)
    1  A    between atoms: C_8  and  C_10
    2  A    between atoms: C_9  and  C_23
    3  A    between atoms: C_10  and  C_12
    4  A    between atoms: C_12  and  C_16
    5  A    between atoms: C_15  and  C_26
    6  A    between atoms: C_18  and  C_43
    7  A    between atoms: C_19  and  C_45
    8  A    between atoms: C_22  and  C_42
    9  A    between atoms: C_25  and  C_29
   10  A    between atoms: C_29  and  C_41
                            x       y       z     vdW  Elec       q    Type
                         _______ _______ _______ _____ _____    ______ ____

>  <TORSDO>
F 10

$$$$
=
 OpenBabel11042414353D

 46 51  0  0  1  0  0  0  0  0999 V2000
  192.8410  174.5770  146.5670 N   0  0  0  0  0  2  0  0  0  0  0  0
  194.9710  175.4040  145.8160 C   0  0  1  0  0  3  0  0  0  0  0  0
  194.1710  176.9030  146.4390 S   0  0  0  0  0  0  0  0  0  0  0  0
  193.8950  174.3690  145.5850 C   0  0  1  0  0  3  0  0  0  0  0  0
  192.5940  176.0130  146.6450 C   0  0  1  0  0  3  0  0  0  0  0  0
  191.0700  175.2470  144.8110 C   0  0  2  0  0  3  0  0  0  0  0  0
  189.7970  174.8680  145.2460 O   0  0  0  0  0  1  0  0  0  0  0  0
  192.1360  176.7650  143.3180 C   0  0  0  0  0  2  0  0  0  0  0  0
  191.5740  176.4490  145.5890 C   0  0  2  0  0  3  0  0  0  0  0  0
  192.1910  177.3800  144.6420 N   0  0  0  0  0  2  0  0  0  0  0  0
  191.0930  175.6690  143.3550 C   0  0  2  0  0  3  0  0  0  0  0  0
  189.2040  177.2850  143.2960 C   0  0  0  0  0  3  0  0  0  0  0  0
  187.8990  177.8280  142.7870 C   0  0  0  0  0  2  0  0  0  0  0  0
  189.7610  176.1550  142.8130 C   0  0  0  0  0  0  0  0  0  0  0  0
  189.1590  175.4250  141.6210 C   0  0  2  0  0  3  0  0  0  0  0  0
  187.7720  175.9330  141.2090 C   0  0  0  0  0  2  0  0  0  0  0  0
  187.6890  177.4480  141.3270 C   0  0  1  0  0  3  0  0  0  0  0  0
  186.3200  177.9160  140.8830 C   0  0  0  0  0  1  0  0  0  0  0  0
  189.1030  173.9490  141.8540 C   0  0  0  0  0  0  0  0  0  0  0  0
  188.2500  173.4730  142.6460 O   0  0  0  0  0  1  0  0  0  0  0  0
  189.9820  173.0990  141.1940 O   0  0  0  0  0  0  0  0  0  0  0  0
  195.6920  175.7080  144.5130 C   0  0  0  0  0  2  0  0  0  0  0  0
  194.8790  175.2200  143.3280 C   0  0  0  0  0  2  0  0  0  0  0  0
  195.6660  175.4230  142.0370 C   0  0  1  0  0  3  0  0  0  0  0  0
  193.8000  173.9130  140.9890 C   0  0  0  0  0  1  0  0  0  0  0  0
  195.0820  174.7310  140.8580 C   0  0  1  0  0  0  0  0  0  0  0  0
  194.8570  176.0980  141.0960 O   0  0  0  0  0  0  0  0  0  0  0  0
  196.9240  174.7650  137.1800 S   0  0  0  0  0  0  0  0  0  0  0  0
  196.6350  173.0060  137.5520 C   0  0  2  0  0  3  0  0  0  0  0  0
  196.3050  172.7390  139.3260 S   0  0  0  0  0  0  0  0  0  0  0  0
  196.0380  174.5030  139.6870 C   0  0  1  0  0  3  0  0  0  0  0  0
  195.7230  175.2910  138.4240 C   0  0  2  0  0  3  0  0  0  0  0  0
  197.8360  172.1870  137.1240 C   0  0  0  0  0  1  0  0  0  0  0  0
  194.3110  175.0550  137.9050 C   0  0  0  0  0  1  0  0  0  0  0  0
  194.4880  172.9770  145.7480 C   0  0  0  0  0  2  0  0  0  0  0  0
  195.0530  171.2990  143.8800 C   0  0  0  0  0  0  0  0  0  0  0  0
  192.2940  171.2600  143.2220 C   0  0  0  0  0  3  0  0  0  0  0  0
  192.7440  172.0290  144.2860 C   0  0  0  0  0  3  0  0  0  0  0  0
  194.1010  172.0740  144.6140 C   0  0  0  0  0  0  0  0  0  0  0  0
  193.2030  170.5350  142.4610 C   0  0  0  0  0  3  0  0  0  0  0  0
  194.5660  170.5540  142.7610 C   0  0  0  0  0  0  0  0  0  0  0  0
  195.4410  169.7950  141.8200 C   0  0  0  0  0  1  0  0  0  0  0  0
  196.7250  171.5710  145.7580 C   0  0  0  0  0  1  0  0  0  0  0  0
  197.1950  170.1320  143.9800 O   0  0  0  0  0  1  0  0  0  0  0  0
  196.5440  171.3300  144.2660 C   0  0  0  0  0  0  0  0  0  0  0  0
  197.2450  172.4350  143.5000 C   0  0  0  0  0  1  0  0  0  0  0  0
  1  5  1  0  0  0  0
  2 22  1  6  0  0  0
  2  3  1  0  0  0  0
  4 35  1  1  0  0  0
  4  2  1  0  0  0  0
  4  1  1  0  0  0  0
  5  3  1  6  0  0  0
  6  7  1  1  0  0  0
  6  9  1  0  0  0  0
  8 11  1  0  0  0  0
  8 10  1  0  0  0  0
  9 10  1  6  0  0  0
  9  5  1  0  0  0  0
 11 14  1  1  0  0  0
 11  6  1  0  0  0  0
 13 12  1  0  0  0  0
 14 12  2  0  0  0  0
 15 19  1  1  0  0  0
 15 14  1  0  0  0  0
 16 17  1  0  0  0  0
 16 15  1  0  0  0  0
 17 18  1  1  0  0  0
 17 13  1  0  0  0  0
 19 20  1  0  0  0  0
 21 19  2  0  0  0  0
 23 22  1  0  0  0  0
 24 23  1  1  0  0  0
 26 25  1  1  0  0  0
 26 27  1  0  0  0  0
 26 24  1  0  0  0  0
 27 24  1  0  0  0  0
 28 29  1  0  0  0  0
 28 32  1  0  0  0  0
 29 33  1  1  0  0  0
 29 30  1  0  0  0  0
 31 30  1  6  0  0  0
 31 26  1  0  0  0  0
 32 34  1  6  0  0  0
 32 31  1  0  0  0  0
 36 45  1  0  0  0  0
 36 39  1  0  0  0  0
 37 38  1  0  0  0  0
 38 39  2  0  0  0  0
 39 35  1  0  0  0  0
 40 41  1  0  0  0  0
 40 37  2  0  0  0  0
 41 36  2  0  0  0  0
 42 41  1  0  0  0  0
 44 45  1  0  0  0  0
 45 43  1  0  0  0  0
 46 45  1  0  0  0  0
M  END
>  <MODEL>
8

>  <REMARK>
 VINA RESULT:      -6.5      2.949      8.045
  Name = 
  10 active torsions:
  status: ('A' for Active; 'I' for Inactive)
    1  A    between atoms: C_8  and  C_10
    2  A    between atoms: C_9  and  C_23
    3  A    between atoms: C_10  and  C_12
    4  A    between atoms: C_12  and  C_16
    5  A    between atoms: C_15  and  C_26
    6  A    between atoms: C_18  and  C_43
    7  A    between atoms: C_19  and  C_45
    8  A    between atoms: C_22  and  C_42
    9  A    between atoms: C_25  and  C_29
   10  A    between atoms: C_29  and  C_41
                            x       y       z     vdW  Elec       q    Type
                         _______ _______ _______ _____ _____    ______ ____

>  <TORSDO>
F 10

$$$$
=
 OpenBabel11042414353D

 46 51  0  0  1  0  0  0  0  0999 V2000
  191.4080  174.1360  140.7070 N   0  0  0  0  0  2  0  0  0  0  0  0
  191.3970  171.7600  141.0760 C   0  0  1  0  0  3  0  0  0  0  0  0
  189.8160  172.0300  140.2370 S   0  0  0  0  0  0  0  0  0  0  0  0
  191.8690  173.0920  141.6100 C   0  0  1  0  0  3  0  0  0  0  0  0
  190.0230  173.8360  140.3620 C   0  0  1  0  0  3  0  0  0  0  0  0
  189.8080  175.3530  142.3420 C   0  0  2  0  0  3  0  0  0  0  0  0
  189.5810  176.6940  142.0140 O   0  0  0  0  0  1  0  0  0  0  0  0
  188.8390  173.5660  143.5820 C   0  0  0  0  0  2  0  0  0  0  0  0
  189.0630  174.4290  141.3960 C   0  0  2  0  0  3  0  0  0  0  0  0
  188.4480  173.3630  142.1890 N   0  0  0  0  0  2  0  0  0  0  0  0
  189.3130  174.9950  143.7300 C   0  0  2  0  0  3  0  0  0  0  0  0
  187.0570  176.0290  143.5740 C   0  0  0  0  0  3  0  0  0  0  0  0
  185.9200  176.8850  144.0570 C   0  0  0  0  0  2  0  0  0  0  0  0
  188.2090  175.8910  144.2620 C   0  0  0  0  0  0  0  0  0  0  0  0
  188.3770  176.4960  145.6480 C   0  0  2  0  0  3  0  0  0  0  0  0
  187.2530  177.4570  146.0550 C   0  0  0  0  0  2  0  0  0  0  0  0
  185.9010  176.9480  145.5780 C   0  0  1  0  0  3  0  0  0  0  0  0
  184.8150  177.9030  146.0240 C   0  0  0  0  0  1  0  0  0  0  0  0
  189.6990  177.1820  145.7900 C   0  0  0  0  0  0  0  0  0  0  0  0
  189.9970  178.1290  145.0170 O   0  0  0  0  0  0  0  0  0  0  0  0
  190.5960  176.7850  146.7740 O   0  0  0  0  0  1  0  0  0  0  0  0
  191.2130  170.7750  142.2180 C   0  0  0  0  0  2  0  0  0  0  0  0
  192.1720  169.6070  142.0750 C   0  0  0  0  0  2  0  0  0  0  0  0
  193.6100  170.0910  142.2300 C   0  0  1  0  0  3  0  0  0  0  0  0
  193.3250  169.2810  144.7040 C   0  0  0  0  0  1  0  0  0  0  0  0
  194.1650  169.9120  143.5970 C   0  0  1  0  0  0  0  0  0  0  0  0
  194.4390  168.9980  142.5640 O   0  0  0  0  0  0  0  0  0  0  0  0
  197.9190  171.2460  144.6220 S   0  0  0  0  0  0  0  0  0  0  0  0
  196.8000  171.9790  145.8560 C   0  0  2  0  0  3  0  0  0  0  0  0
  195.0630  171.9390  145.2980 S   0  0  0  0  0  0  0  0  0  0  0  0
  195.3810  170.7760  143.9330 C   0  0  1  0  0  3  0  0  0  0  0  0
  196.6840  170.0190  144.1370 C   0  0  2  0  0  3  0  0  0  0  0  0
  197.2140  173.4080  146.1420 C   0  0  0  0  0  1  0  0  0  0  0  0
  196.5910  168.9370  145.2040 C   0  0  0  0  0  1  0  0  0  0  0  0
  193.3900  173.1000  141.6790 C   0  0  0  0  0  2  0  0  0  0  0  0
  195.1420  174.8600  142.3540 C   0  0  0  0  0  0  0  0  0  0  0  0
  193.4980  175.4950  144.5770 C   0  0  0  0  0  3  0  0  0  0  0  0
  193.0930  174.5300  143.6660 C   0  0  0  0  0  3  0  0  0  0  0  0
  193.8970  174.1920  142.5740 C   0  0  0  0  0  0  0  0  0  0  0  0
  194.7260  176.1250  144.4140 C   0  0  0  0  0  3  0  0  0  0  0  0
  195.5540  175.8160  143.3350 C   0  0  0  0  0  0  0  0  0  0  0  0
  196.8760  176.5080  143.3210 C   0  0  0  0  0  1  0  0  0  0  0  0
  197.1120  173.5230  141.5030 C   0  0  0  0  0  1  0  0  0  0  0  0
  195.2760  173.9030  140.1120 O   0  0  0  0  0  1  0  0  0  0  0  0
  196.0100  174.5040  141.1320 C   0  0  0  0  0  0  0  0  0  0  0  0
  196.6390  175.7650  140.5710 C   0  0  0  0  0  1  0  0  0  0  0  0
  1  4  1  0  0  0  0
  2  4  1  0  0  0  0
  2 22  1  1  0  0  0
  3  2  1  0  0  0  0
  4 35  1  6  0  0  0
  5  3  1  1  0  0  0
  5  1  1  0  0  0  0
  5  9  1  0  0  0  0
  6  7  1  6  0  0  0
  6 11  1  0  0  0  0
  8 11  1  0  0  0  0
  9 10  1  1  0  0  0
  9  6  1  0  0  0  0
 10  8  1  0  0  0  0
 11 14  1  6  0  0  0
 12 13  1  0  0  0  0
 12 14  2  0  0  0  0
 13 17  1  0  0  0  0
 14 15  1  0  0  0  0
 15 19  1  6  0  0  0
 15 16  1  0  0  0  0
 17 18  1  6  0  0  0
 17 16  1  0  0  0  0
 19 21  1  0  0  0  0
 20 19  2  0  0  0  0
 23 22  1  0  0  0  0
 24 23  1  1  0  0  0
 24 27  1  0  0  0  0
 24 26  1  0  0  0  0
 26 31  1  0  0  0  0
 26 25  1  1  0  0  0
 27 26  1  0  0  0  0
 28 29  1  0  0  0  0
 29 33  1  6  0  0  0
 30 29  1  0  0  0  0
 31 32  1  0  0  0  0
 31 30  1  1  0  0  0
 32 28  1  0  0  0  0
 32 34  1  1  0  0  0
 35 39  1  0  0  0  0
 36 39  2  0  0  0  0
 36 41  1  0  0  0  0
 38 37  2  0  0  0  0
 39 38  1  0  0  0  0
 40 37  1  0  0  0  0
 41 40  2  0  0  0  0
 42 41  1  0  0  0  0
 44 45  1  0  0  0  0
 45 43  1  0  0  0  0
 45 36  1  0  0  0  0
 46 45  1  0  0  0  0
M  END
>  <MODEL>
9

>  <REMARK>
 VINA RESULT:      -6.4      3.222      8.564
  Name = 
  10 active torsions:
  status: ('A' for Active; 'I' for Inactive)
    1  A    between atoms: C_8  and  C_10
    2  A    between atoms: C_9  and  C_23
    3  A    between atoms: C_10  and  C_12
    4  A    between atoms: C_12  and  C_16
    5  A    between atoms: C_15  and  C_26
    6  A    between atoms: C_18  and  C_43
    7  A    between atoms: C_19  and  C_45
    8  A    between atoms: C_22  and  C_42
    9  A    between atoms: C_25  and  C_29
   10  A    between atoms: C_29  and  C_41
                            x       y       z     vdW  Elec       q    Type
                         _______ _______ _______ _____ _____    ______ ____

>  <TORSDO>
F 10

$$$$
