=
 OpenBabel11042418403D

 34 40  0  0  1  0  0  0  0  0999 V2000
  183.7200  178.6440  143.6340 C   0  0  0  0  0  3  0  0  0  0  0  0
  188.0590  175.0590  141.2300 C   0  0  0  0  0  3  0  0  0  0  0  0
  192.8250  173.7570  142.3750 C   0  0  2  0  0  3  0  0  0  0  0  0
  185.3440  178.1350  145.3600 C   0  0  0  0  0  0  0  0  0  0  0  0
  187.2040  176.9980  145.0580 N   0  0  0  0  0  0  0  0  0  0  0  0
  186.1430  178.3320  146.4900 C   0  0  1  0  0  3  0  0  0  0  0  0
  188.6990  176.1050  143.3020 C   0  0  0  0  0  0  0  0  0  0  0  0
  187.7030  175.8640  142.3140 C   0  0  0  0  0  0  0  0  0  0  0  0
  189.4070  176.8020  145.6520 C   0  0  2  0  0  0  0  0  0  0  0  0
  190.7970  177.1360  145.1340 C   0  0  0  0  0  2  0  0  0  0  0  0
  186.4100  176.5210  142.2320 N   0  0  0  0  0  0  0  0  0  0  0  0
  187.2950  177.5910  146.2410 C   0  0  2  0  0  3  0  0  0  0  0  0
  185.9580  179.3660  147.5450 C   0  0  0  0  0  1  0  0  0  0  0  0
  190.3040  174.8590  141.9890 C   0  0  0  0  0  0  0  0  0  0  0  0
  191.1820  176.1420  144.0010 C   0  0  0  0  0  2  0  0  0  0  0  0
  186.0550  177.3310  144.5060 C   0  0  0  0  0  0  0  0  0  0  0  0
  184.4700  177.8190  142.7090 N   0  0  0  0  0  0  0  0  0  0  0  0
  189.3170  174.5620  141.1050 N   0  0  0  0  0  0  0  0  0  0  0  0
  184.1270  178.8260  144.9060 C   0  0  0  0  0  2  0  0  0  0  0  0
  185.6970  177.1830  143.1050 C   0  0  0  0  0  0  0  0  0  0  0  0
  188.4880  177.0030  144.4610 C   0  0  2  0  0  3  0  0  0  0  0  0
  191.6090  174.3210  141.7820 N   0  0  0  0  0  0  0  0  0  0  0  0
  192.4880  173.4180  141.1660 O   0  0  0  0  0  0  0  0  0  0  0  0
  190.0370  175.6930  143.0840 C   0  0  0  0  0  0  0  0  0  0  0  0
  188.7270  177.7380  146.6880 C   0  0  0  0  0  2  0  0  0  0  0  0
  189.3610  175.3530  146.1850 C   0  0  0  0  0  2  0  0  0  0  0  0
  189.8860  175.2730  147.5070 O   0  0  0  0  0  0  0  0  0  0  0  0
  191.5990  176.6670  148.6530 C   0  0  0  0  0  1  0  0  0  0  0  0
  191.2310  175.5160  147.7900 C   0  0  0  0  0  0  0  0  0  0  0  0
  192.1360  174.7770  147.3170 O   0  0  0  0  0  0  0  0  0  0  0  0
  192.4550  172.6370  143.3290 C   0  0  0  0  0  2  0  0  0  0  0  0
  193.2820  172.7270  144.5980 C   0  0  0  0  0  2  0  0  0  0  0  0
  193.9850  173.9310  144.6240 O   0  0  0  0  0  0  0  0  0  0  0  0
  195.1190  173.6580  145.3880 C   0  0  0  0  0  1  0  0  0  0  0  0
  1 19  1  0  0  0  0
  2  8  1  0  0  0  0
  3 31  1  1  0  0  0
  4  6  1  0  0  0  0
  5 12  1  0  0  0  0
  6 13  1  6  0  0  0
  8  7  2  0  0  0  0
  9 26  1  1  0  0  0
  9 25  1  0  0  0  0
 10  9  1  0  0  0  0
 11  8  1  0  0  0  0
 11 20  2  0  0  0  0
 12  6  1  0  0  0  0
 12 25  1  6  0  0  0
 14 24  2  0  0  0  0
 15 10  1  0  0  0  0
 16  5  1  0  0  0  0
 16  4  2  0  0  0  0
 17 20  1  0  0  0  0
 17  1  2  0  0  0  0
 18  2  2  0  0  0  0
 18 14  1  0  0  0  0
 19  4  1  0  0  0  0
 20 16  1  0  0  0  0
 21  7  1  6  0  0  0
 21  5  1  0  0  0  0
 21  9  1  0  0  0  0
 22 14  1  0  0  0  0
 22  3  1  0  0  0  0
 23 22  1  0  0  0  0
 23  3  1  0  0  0  0
 24  7  1  0  0  0  0
 24 15  1  0  0  0  0
 26 27  1  0  0  0  0
 27 29  1  0  0  0  0
 29 28  1  0  0  0  0
 30 29  2  0  0  0  0
 31 32  1  0  0  0  0
 32 33  1  0  0  0  0
 33 34  1  0  0  0  0
M  END
>  <MODEL>
1

>  <REMARK>
 VINA RESULT:      -7.6      0.000      0.000
  Name = 
  6 active torsions:
  status: ('A' for Active; 'I' for Inactive)
    1  A    between atoms: C_4  and  C_32
    2  A    between atoms: C_10  and  C_11
    3  A    between atoms: C_11  and  O_12
    4  A    between atoms: O_12  and  C_28
    5  A    between atoms: O_13  and  C_25
    6  A    between atoms: C_25  and  C_32
                            x       y       z     vdW  Elec       q    Type
                         _______ _______ _______ _____ _____    ______ ____

>  <TORSDO>
F 6

$$$$
=
 OpenBabel11042418403D

 34 40  0  0  1  0  0  0  0  0999 V2000
  183.6580  178.7250  143.7540 C   0  0  0  0  0  3  0  0  0  0  0  0
  187.9070  175.1460  141.1830 C   0  0  0  0  0  3  0  0  0  0  0  0
  192.6860  173.7840  142.1910 C   0  0  2  0  0  3  0  0  0  0  0  0
  185.3180  178.1720  145.4310 C   0  0  0  0  0  0  0  0  0  0  0  0
  187.1600  177.0240  145.0640 N   0  0  0  0  0  0  0  0  0  0  0  0
  186.1460  178.3410  146.5440 C   0  0  1  0  0  3  0  0  0  0  0  0
  188.6040  176.1490  143.2580 C   0  0  0  0  0  0  0  0  0  0  0  0
  187.5840  175.9350  142.2900 C   0  0  0  0  0  0  0  0  0  0  0  0
  189.3750  176.7990  145.6020 C   0  0  2  0  0  0  0  0  0  0  0  0
  190.7550  177.1300  145.0560 C   0  0  0  0  0  2  0  0  0  0  0  0
  186.2950  176.6050  142.2500 N   0  0  0  0  0  0  0  0  0  0  0  0
  187.2840  177.5950  146.2550 C   0  0  2  0  0  3  0  0  0  0  0  0
  185.9950  179.3580  147.6210 C   0  0  0  0  0  1  0  0  0  0  0  0
  190.1670  174.9140  141.8850 C   0  0  0  0  0  0  0  0  0  0  0  0
  191.1040  176.1530  143.8980 C   0  0  0  0  0  2  0  0  0  0  0  0
  186.0010  177.3770  144.5460 C   0  0  0  0  0  0  0  0  0  0  0  0
  184.3790  177.9110  142.7960 N   0  0  0  0  0  0  0  0  0  0  0  0
  189.1560  174.6410  141.0200 N   0  0  0  0  0  0  0  0  0  0  0  0
  184.0970  178.8810  145.0190 C   0  0  0  0  0  2  0  0  0  0  0  0
  185.6080  177.2560  143.1520 C   0  0  0  0  0  0  0  0  0  0  0  0
  188.4300  177.0290  144.4370 C   0  0  2  0  0  3  0  0  0  0  0  0
  191.4620  174.3680  141.6370 N   0  0  0  0  0  0  0  0  0  0  0  0
  192.3170  173.4690  140.9850 O   0  0  0  0  0  0  0  0  0  0  0  0
  189.9330  175.7300  143.0000 C   0  0  0  0  0  0  0  0  0  0  0  0
  188.7280  177.7220  146.6710 C   0  0  0  0  0  2  0  0  0  0  0  0
  189.3290  175.3410  146.1110 C   0  0  0  0  0  2  0  0  0  0  0  0
  189.8360  175.2410  147.4380 O   0  0  0  0  0  0  0  0  0  0  0  0
  192.2640  174.7840  147.1450 C   0  0  0  0  0  1  0  0  0  0  0  0
  191.1560  175.5610  147.7570 C   0  0  0  0  0  0  0  0  0  0  0  0
  191.4210  176.4940  148.5630 O   0  0  0  0  0  0  0  0  0  0  0  0
  192.3280  172.6490  143.1340 C   0  0  0  0  0  2  0  0  0  0  0  0
  192.4740  171.3120  142.4320 C   0  0  0  0  0  2  0  0  0  0  0  0
  191.3500  170.5220  142.6730 O   0  0  0  0  0  0  0  0  0  0  0  0
  190.8030  170.2940  141.4100 C   0  0  0  0  0  1  0  0  0  0  0  0
  1 19  1  0  0  0  0
  2  8  1  0  0  0  0
  3 31  1  1  0  0  0
  4  6  1  0  0  0  0
  5 12  1  0  0  0  0
  6 13  1  6  0  0  0
  8  7  2  0  0  0  0
  9 26  1  1  0  0  0
  9 25  1  0  0  0  0
 10  9  1  0  0  0  0
 11  8  1  0  0  0  0
 11 20  2  0  0  0  0
 12  6  1  0  0  0  0
 12 25  1  6  0  0  0
 14 24  2  0  0  0  0
 15 10  1  0  0  0  0
 16  5  1  0  0  0  0
 16  4  2  0  0  0  0
 17 20  1  0  0  0  0
 17  1  2  0  0  0  0
 18  2  2  0  0  0  0
 18 14  1  0  0  0  0
 19  4  1  0  0  0  0
 20 16  1  0  0  0  0
 21  7  1  6  0  0  0
 21  5  1  0  0  0  0
 21  9  1  0  0  0  0
 22 14  1  0  0  0  0
 22  3  1  0  0  0  0
 23 22  1  0  0  0  0
 23  3  1  0  0  0  0
 24  7  1  0  0  0  0
 24 15  1  0  0  0  0
 26 27  1  0  0  0  0
 27 29  1  0  0  0  0
 28 29  1  0  0  0  0
 29 30  2  0  0  0  0
 32 33  1  0  0  0  0
 32 31  1  0  0  0  0
 34 33  1  0  0  0  0
M  END
>  <MODEL>
2

>  <REMARK>
 VINA RESULT:      -7.4      1.079      1.603
  Name = 
  6 active torsions:
  status: ('A' for Active; 'I' for Inactive)
    1  A    between atoms: C_4  and  C_32
    2  A    between atoms: C_10  and  C_11
    3  A    between atoms: C_11  and  O_12
    4  A    between atoms: O_12  and  C_28
    5  A    between atoms: O_13  and  C_25
    6  A    between atoms: C_25  and  C_32
                            x       y       z     vdW  Elec       q    Type
                         _______ _______ _______ _____ _____    ______ ____

>  <TORSDO>
F 6

$$$$
=
 OpenBabel11042418403D

 34 40  0  0  1  0  0  0  0  0999 V2000
  185.9400  178.6540  142.3740 C   0  0  0  0  0  3  0  0  0  0  0  0
  191.8460  177.0510  142.5230 C   0  0  0  0  0  3  0  0  0  0  0  0
  195.1050  175.2810  145.9820 C   0  0  2  0  0  3  0  0  0  0  0  0
  186.3060  177.2320  144.3030 C   0  0  0  0  0  0  0  0  0  0  0  0
  188.2590  176.4550  144.9560 N   0  0  0  0  0  0  0  0  0  0  0  0
  186.1470  176.7380  145.6010 C   0  0  1  0  0  3  0  0  0  0  0  0
  190.6930  176.7140  144.6090 C   0  0  0  0  0  0  0  0  0  0  0  0
  190.6470  177.0930  143.2380 C   0  0  0  0  0  0  0  0  0  0  0  0
  189.5680  175.9320  146.7610 C   0  0  2  0  0  0  0  0  0  0  0  0
  190.7280  176.4890  147.5710 C   0  0  0  0  0  2  0  0  0  0  0  0
  189.5110  177.6920  142.5590 N   0  0  0  0  0  0  0  0  0  0  0  0
  187.4060  176.2620  145.9540 C   0  0  2  0  0  3  0  0  0  0  0  0
  184.9970  176.9830  146.5140 C   0  0  0  0  0  1  0  0  0  0  0  0
  193.0910  176.4300  144.4510 C   0  0  0  0  0  0  0  0  0  0  0  0
  192.0500  176.3200  146.7690 C   0  0  0  0  0  2  0  0  0  0  0  0
  187.6250  177.0560  143.9690 C   0  0  0  0  0  0  0  0  0  0  0  0
  187.3370  178.5010  142.0180 N   0  0  0  0  0  0  0  0  0  0  0  0
  193.0130  176.7030  143.1230 N   0  0  0  0  0  0  0  0  0  0  0  0
  185.4250  178.0710  143.4750 C   0  0  0  0  0  2  0  0  0  0  0  0
  188.2360  177.7400  142.8430 C   0  0  0  0  0  0  0  0  0  0  0  0
  189.5190  176.7880  145.5090 C   0  0  2  0  0  3  0  0  0  0  0  0
  194.3560  176.0950  145.0200 N   0  0  0  0  0  0  0  0  0  0  0  0
  195.6950  175.6990  144.9020 O   0  0  0  0  0  0  0  0  0  0  0  0
  191.9380  176.4890  145.2470 C   0  0  0  0  0  0  0  0  0  0  0  0
  188.1140  176.1120  147.2770 C   0  0  0  0  0  2  0  0  0  0  0  0
  189.7990  174.4400  146.4380 C   0  0  0  0  0  2  0  0  0  0  0  0
  189.4850  174.1520  145.0790 O   0  0  0  0  0  0  0  0  0  0  0  0
  191.4310  173.0880  143.9520 C   0  0  0  0  0  1  0  0  0  0  0  0
  190.0190  173.0500  144.4080 C   0  0  0  0  0  0  0  0  0  0  0  0
  189.3160  172.0300  144.1760 O   0  0  0  0  0  0  0  0  0  0  0  0
  194.7320  173.8200  145.8120 C   0  0  0  0  0  2  0  0  0  0  0  0
  195.9660  172.9910  145.5070 C   0  0  0  0  0  2  0  0  0  0  0  0
  195.7400  171.6570  145.8490 O   0  0  0  0  0  0  0  0  0  0  0  0
  194.3810  171.4590  145.6100 C   0  0  0  0  0  1  0  0  0  0  0  0
  1 19  1  0  0  0  0
  2 18  2  0  0  0  0
  2  8  1  0  0  0  0
  3 31  1  6  0  0  0
  4  6  1  0  0  0  0
  5 21  1  0  0  0  0
  5 12  1  0  0  0  0
  6 12  1  0  0  0  0
  6 13  1  1  0  0  0
  7 24  1  0  0  0  0
  8  7  2  0  0  0  0
  9 26  1  6  0  0  0
  9 25  1  0  0  0  0
  9 10  1  0  0  0  0
 11 20  2  0  0  0  0
 11  8  1  0  0  0  0
 12 25  1  1  0  0  0
 14 22  1  0  0  0  0
 14 24  2  0  0  0  0
 15 10  1  0  0  0  0
 16  4  2  0  0  0  0
 16  5  1  0  0  0  0
 17  1  2  0  0  0  0
 17 20  1  0  0  0  0
 18 14  1  0  0  0  0
 19  4  1  0  0  0  0
 20 16  1  0  0  0  0
 21  7  1  6  0  0  0
 21  9  1  0  0  0  0
 22  3  1  0  0  0  0
 23 22  1  0  0  0  0
 23  3  1  0  0  0  0
 24 15  1  0  0  0  0
 27 26  1  0  0  0  0
 28 29  1  0  0  0  0
 29 27  1  0  0  0  0
 30 29  2  0  0  0  0
 32 31  1  0  0  0  0
 32 33  1  0  0  0  0
 34 33  1  0  0  0  0
M  END
>  <MODEL>
3

>  <REMARK>
 VINA RESULT:      -7.1      2.122      3.253
  Name = 
  6 active torsions:
  status: ('A' for Active; 'I' for Inactive)
    1  A    between atoms: C_4  and  C_32
    2  A    between atoms: C_10  and  C_11
    3  A    between atoms: C_11  and  O_12
    4  A    between atoms: O_12  and  C_28
    5  A    between atoms: O_13  and  C_25
    6  A    between atoms: C_25  and  C_32
                            x       y       z     vdW  Elec       q    Type
                         _______ _______ _______ _____ _____    ______ ____

>  <TORSDO>
F 6

$$$$
=
 OpenBabel11042418403D

 34 40  0  0  1  0  0  0  0  0999 V2000
  189.7860  172.2210  137.9680 C   0  0  0  0  0  3  0  0  0  0  0  0
  190.2580  173.6040  143.9120 C   0  0  0  0  0  3  0  0  0  0  0  0
  189.0240  177.5100  146.9020 C   0  0  2  0  0  3  0  0  0  0  0  0
  188.2120  173.9920  138.4760 C   0  0  0  0  0  0  0  0  0  0  0  0
  188.0190  175.0010  140.4220 N   0  0  0  0  0  0  0  0  0  0  0  0
  187.4420  175.1420  138.2770 C   0  0  1  0  0  3  0  0  0  0  0  0
  189.1420  175.2910  142.6060 C   0  0  0  0  0  0  0  0  0  0  0  0
  189.7510  174.0060  142.6750 C   0  0  0  0  0  0  0  0  0  0  0  0
  187.6130  176.9930  141.4770 C   0  0  2  0  0  0  0  0  0  0  0  0
  188.3510  178.1220  142.1790 C   0  0  0  0  0  2  0  0  0  0  0  0
  190.0580  173.1490  141.5420 N   0  0  0  0  0  0  0  0  0  0  0  0
  187.3550  175.7310  139.5350 C   0  0  2  0  0  3  0  0  0  0  0  0
  187.0990  175.7720  136.9720 C   0  0  0  0  0  1  0  0  0  0  0  0
  189.7150  175.6870  144.9230 C   0  0  0  0  0  0  0  0  0  0  0  0
  188.7990  177.6500  143.5920 C   0  0  0  0  0  2  0  0  0  0  0  0
  188.5580  173.9700  139.8020 C   0  0  0  0  0  0  0  0  0  0  0  0
  190.1850  172.1990  139.3620 N   0  0  0  0  0  2  0  0  0  0  0  0
  190.2070  174.4230  144.9940 N   0  0  0  0  0  0  0  0  0  0  0  0
  188.8550  173.0830  137.5140 C   0  0  0  0  0  3  0  0  0  0  0  0
  189.6190  173.1180  140.3120 C   0  0  0  0  0  0  0  0  0  0  0  0
  188.6360  175.8800  141.3440 C   0  0  2  0  0  3  0  0  0  0  0  0
  189.7160  176.5010  146.0950 N   0  0  0  0  0  0  0  0  0  0  0  0
  189.8240  176.6650  147.4830 O   0  0  0  0  0  0  0  0  0  0  0  0
  189.2230  176.1800  143.7060 C   0  0  0  0  0  0  0  0  0  0  0  0
  187.1870  177.1580  139.9920 C   0  0  0  0  0  2  0  0  0  0  0  0
  186.3810  176.5560  142.3020 C   0  0  0  0  0  2  0  0  0  0  0  0
  185.1970  177.1980  141.8390 O   0  0  0  0  0  0  0  0  0  0  0  0
  185.2810  179.0030  143.5490 C   0  0  0  0  0  1  0  0  0  0  0  0
  184.5190  178.1510  142.6010 C   0  0  0  0  0  0  0  0  0  0  0  0
  183.2700  178.2910  142.5030 O   0  0  0  0  0  0  0  0  0  0  0  0
  187.5880  177.0780  147.1360 C   0  0  0  0  0  2  0  0  0  0  0  0
  186.7000  178.2890  147.3580 C   0  0  0  0  0  2  0  0  0  0  0  0
  185.3690  177.8890  147.4750 O   0  0  0  0  0  0  0  0  0  0  0  0
  185.2150  176.8950  146.5090 C   0  0  0  0  0  1  0  0  0  0  0  0
  1 17  1  0  0  0  0
  2 18  1  0  0  0  0
  3 31  1  1  0  0  0
  3 23  1  0  0  0  0
  4 16  2  0  0  0  0
  5 21  1  0  0  0  0
  6 13  1  6  0  0  0
  6  4  1  0  0  0  0
  6 12  1  0  0  0  0
  7  8  1  0  0  0  0
  7 24  2  0  0  0  0
  8  2  2  0  0  0  0
  9 10  1  0  0  0  0
  9 26  1  1  0  0  0
 10 15  1  0  0  0  0
 11  8  1  0  0  0  0
 12 25  1  6  0  0  0
 12  5  1  0  0  0  0
 14 18  2  0  0  0  0
 14 22  1  0  0  0  0
 15 24  1  0  0  0  0
 16 20  1  0  0  0  0
 16  5  1  0  0  0  0
 17 20  1  0  0  0  0
 19  1  2  0  0  0  0
 19  4  1  0  0  0  0
 20 11  2  0  0  0  0
 21  9  1  0  0  0  0
 21  7  1  1  0  0  0
 22  3  1  0  0  0  0
 22 23  1  0  0  0  0
 24 14  1  0  0  0  0
 25  9  1  0  0  0  0
 27 26  1  0  0  0  0
 27 29  1  0  0  0  0
 29 28  1  0  0  0  0
 30 29  2  0  0  0  0
 31 32  1  0  0  0  0
 32 33  1  0  0  0  0
 34 33  1  0  0  0  0
M  END
>  <MODEL>
4

>  <REMARK>
 VINA RESULT:      -6.9      3.107      7.143
  Name = 
  6 active torsions:
  status: ('A' for Active; 'I' for Inactive)
    1  A    between atoms: C_4  and  C_32
    2  A    between atoms: C_10  and  C_11
    3  A    between atoms: C_11  and  O_12
    4  A    between atoms: O_12  and  C_28
    5  A    between atoms: O_13  and  C_25
    6  A    between atoms: C_25  and  C_32
                            x       y       z     vdW  Elec       q    Type
                         _______ _______ _______ _____ _____    ______ ____

>  <TORSDO>
F 6

$$$$
=
 OpenBabel11042418403D

 34 40  0  0  1  0  0  0  0  0999 V2000
  191.5970  176.4660  147.7510 C   0  0  0  0  0  3  0  0  0  0  0  0
  192.5750  173.8350  142.3120 C   0  0  0  0  0  3  0  0  0  0  0  0
  189.7950  172.6030  138.2540 C   0  0  2  0  0  3  0  0  0  0  0  0
  189.7640  177.0440  146.2740 C   0  0  0  0  0  0  0  0  0  0  0  0
  189.4930  176.2800  144.2270 N   0  0  0  0  0  0  0  0  0  0  0  0
  188.4570  177.3470  145.8830 C   0  0  1  0  0  3  0  0  0  0  0  0
  190.3040  174.5580  142.6490 C   0  0  0  0  0  0  0  0  0  0  0  0
  191.6430  174.4840  143.1240 C   0  0  0  0  0  0  0  0  0  0  0  0
  187.9700  175.5890  142.6630 C   0  0  2  0  0  0  0  0  0  0  0  0
  187.4020  174.3130  142.0600 C   0  0  0  0  0  2  0  0  0  0  0  0
  192.0950  174.8580  144.4540 N   0  0  0  0  0  0  0  0  0  0  0  0
  188.3480  176.8440  144.5910 C   0  0  2  0  0  3  0  0  0  0  0  0
  187.3410  177.7850  146.7660 C   0  0  0  0  0  1  0  0  0  0  0  0
  190.9180  173.2430  140.7130 C   0  0  0  0  0  0  0  0  0  0  0  0
  188.4430  173.6920  141.0850 C   0  0  0  0  0  2  0  0  0  0  0  0
  190.3440  176.3680  145.2300 C   0  0  0  0  0  0  0  0  0  0  0  0
  192.2130  175.7260  146.6690 N   0  0  0  0  0  0  0  0  0  0  0  0
  192.2080  173.2640  141.1360 N   0  0  0  0  0  0  0  0  0  0  0  0
  190.4140  177.0920  147.5930 C   0  0  0  0  0  2  0  0  0  0  0  0
  191.5720  175.6080  145.3880 C   0  0  0  0  0  0  0  0  0  0  0  0
  189.1950  175.1420  143.4390 C   0  0  2  0  0  3  0  0  0  0  0  0
  190.6010  172.6020  139.4780 N   0  0  0  0  0  0  0  0  0  0  0  0
  190.9710  172.0500  138.2440 O   0  0  0  0  0  0  0  0  0  0  0  0
  189.9160  173.8380  141.4910 C   0  0  0  0  0  0  0  0  0  0  0  0
  187.1850  176.3250  143.7840 C   0  0  0  0  0  2  0  0  0  0  0  0
  188.3210  176.6040  141.5530 C   0  0  0  0  0  2  0  0  0  0  0  0
  187.3030  177.5900  141.4150 O   0  0  0  0  0  0  0  0  0  0  0  0
  185.0130  178.1270  140.6030 C   0  0  0  0  0  1  0  0  0  0  0  0
  186.3640  177.5530  140.3830 C   0  0  0  0  0  0  0  0  0  0  0  0
  186.6460  177.0310  139.2700 O   0  0  0  0  0  0  0  0  0  0  0  0
  189.8790  173.9650  137.5890 C   0  0  0  0  0  2  0  0  0  0  0  0
  188.4990  174.4340  137.1660 C   0  0  0  0  0  2  0  0  0  0  0  0
  188.5870  175.1670  135.9830 O   0  0  0  0  0  0  0  0  0  0  0  0
  187.4570  175.9850  135.9930 C   0  0  0  0  0  1  0  0  0  0  0  0
  2  8  1  0  0  0  0
  3 31  1  6  0  0  0
  3 22  1  0  0  0  0
  4 19  1  0  0  0  0
  5 12  1  0  0  0  0
  5 16  1  0  0  0  0
  6  4  1  0  0  0  0
  6 13  1  1  0  0  0
  7  8  2  0  0  0  0
  8 11  1  0  0  0  0
  9 26  1  6  0  0  0
  9 21  1  0  0  0  0
  9 25  1  0  0  0  0
 10  9  1  0  0  0  0
 11 20  2  0  0  0  0
 12 25  1  1  0  0  0
 12  6  1  0  0  0  0
 14 18  1  0  0  0  0
 14 24  2  0  0  0  0
 15 24  1  0  0  0  0
 15 10  1  0  0  0  0
 16 20  1  0  0  0  0
 16  4  2  0  0  0  0
 17  1  2  0  0  0  0
 18  2  2  0  0  0  0
 19  1  1  0  0  0  0
 20 17  1  0  0  0  0
 21  7  1  6  0  0  0
 21  5  1  0  0  0  0
 22 14  1  0  0  0  0
 23  3  1  0  0  0  0
 23 22  1  0  0  0  0
 24  7  1  0  0  0  0
 27 26  1  0  0  0  0
 29 28  1  0  0  0  0
 29 27  1  0  0  0  0
 30 29  2  0  0  0  0
 32 31  1  0  0  0  0
 33 34  1  0  0  0  0
 33 32  1  0  0  0  0
M  END
>  <MODEL>
5

>  <REMARK>
 VINA RESULT:      -6.8      3.102      6.193
  Name = 
  6 active torsions:
  status: ('A' for Active; 'I' for Inactive)
    1  A    between atoms: C_4  and  C_32
    2  A    between atoms: C_10  and  C_11
    3  A    between atoms: C_11  and  O_12
    4  A    between atoms: O_12  and  C_28
    5  A    between atoms: O_13  and  C_25
    6  A    between atoms: C_25  and  C_32
                            x       y       z     vdW  Elec       q    Type
                         _______ _______ _______ _____ _____    ______ ____

>  <TORSDO>
F 6

$$$$
=
 OpenBabel11042418403D

 34 40  0  0  1  0  0  0  0  0999 V2000
  196.2220  174.4860  144.9440 C   0  0  0  0  0  3  0  0  0  0  0  0
  191.3940  176.7250  147.9690 C   0  0  0  0  0  3  0  0  0  0  0  0
  186.7100  178.2850  146.8090 C   0  0  2  0  0  3  0  0  0  0  0  0
  194.2450  174.1860  143.5740 C   0  0  0  0  0  0  0  0  0  0  0  0
  192.2300  174.9170  144.0730 N   0  0  0  0  0  0  0  0  0  0  0  0
  193.4700  174.1020  142.4140 C   0  0  1  0  0  3  0  0  0  0  0  0
  191.0100  176.4190  145.6120 C   0  0  0  0  0  0  0  0  0  0  0  0
  191.8710  176.2750  146.7360 C   0  0  0  0  0  0  0  0  0  0  0  0
  190.2930  175.8100  143.2410 C   0  0  2  0  0  0  0  0  0  0  0  0
  189.5730  177.1440  143.1150 C   0  0  0  0  0  2  0  0  0  0  0  0
  193.2670  175.8730  146.6920 N   0  0  0  0  0  0  0  0  0  0  0  0
  192.2160  174.5720  142.7920 C   0  0  2  0  0  3  0  0  0  0  0  0
  193.9620  173.8930  141.0240 C   0  0  0  0  0  1  0  0  0  0  0  0
  189.3800  177.5420  147.0040 C   0  0  0  0  0  0  0  0  0  0  0  0
  188.9730  177.5420  144.4940 C   0  0  0  0  0  2  0  0  0  0  0  0
  193.4420  174.7160  144.5510 C   0  0  0  0  0  0  0  0  0  0  0  0
  195.3940  175.0720  145.9800 N   0  0  0  0  0  2  0  0  0  0  0  0
  190.1750  177.3120  148.0810 N   0  0  0  0  0  0  0  0  0  0  0  0
  195.6980  174.0690  143.7740 C   0  0  0  0  0  3  0  0  0  0  0  0
  193.9810  175.2560  145.7870 C   0  0  0  0  0  0  0  0  0  0  0  0
  191.4130  176.0620  144.2320 C   0  0  2  0  0  3  0  0  0  0  0  0
  188.1220  178.1870  147.1930 N   0  0  0  0  0  0  0  0  0  0  0  0
  187.0700  178.6250  148.0110 O   0  0  0  0  0  0  0  0  0  0  0  0
  189.8050  177.1560  145.7250 C   0  0  0  0  0  0  0  0  0  0  0  0
  191.1050  175.2590  142.0370 C   0  0  0  0  0  2  0  0  0  0  0  0
  189.3200  174.7130  143.7280 C   0  0  0  0  0  2  0  0  0  0  0  0
  188.4570  174.2860  142.6780 O   0  0  0  0  0  0  0  0  0  0  0  0
  189.3650  171.9730  142.8090 C   0  0  0  0  0  1  0  0  0  0  0  0
  188.4900  172.9870  142.1680 C   0  0  0  0  0  0  0  0  0  0  0  0
  187.7940  172.6660  141.1670 O   0  0  0  0  0  0  0  0  0  0  0  0
  186.0740  176.9080  146.8500 C   0  0  0  0  0  2  0  0  0  0  0  0
  185.2300  176.6770  145.6100 C   0  0  0  0  0  2  0  0  0  0  0  0
  185.3650  177.7550  144.7340 O   0  0  0  0  0  0  0  0  0  0  0  0
  185.4860  177.1700  143.4740 C   0  0  0  0  0  1  0  0  0  0  0  0
  1 17  1  0  0  0  0
  2 18  1  0  0  0  0
  3 31  1  1  0  0  0
  3 22  1  0  0  0  0
  3 23  1  0  0  0  0
  4 19  1  0  0  0  0
  4 16  2  0  0  0  0
  5 21  1  0  0  0  0
  5 16  1  0  0  0  0
  6 13  1  6  0  0  0
  6 12  1  0  0  0  0
  6  4  1  0  0  0  0
  7 24  2  0  0  0  0
  7  8  1  0  0  0  0
  8  2  2  0  0  0  0
  9 26  1  1  0  0  0
  9 21  1  0  0  0  0
 10  9  1  0  0  0  0
 10 15  1  0  0  0  0
 11  8  1  0  0  0  0
 12 25  1  6  0  0  0
 12  5  1  0  0  0  0
 14 22  1  0  0  0  0
 14 18  2  0  0  0  0
 15 24  1  0  0  0  0
 16 20  1  0  0  0  0
 19  1  2  0  0  0  0
 20 17  1  0  0  0  0
 20 11  2  0  0  0  0
 21  7  1  1  0  0  0
 22 23  1  0  0  0  0
 24 14  1  0  0  0  0
 25  9  1  0  0  0  0
 27 26  1  0  0  0  0
 29 27  1  0  0  0  0
 29 28  1  0  0  0  0
 30 29  2  0  0  0  0
 32 31  1  0  0  0  0
 33 32  1  0  0  0  0
 34 33  1  0  0  0  0
M  END
>  <MODEL>
6

>  <REMARK>
 VINA RESULT:      -6.8      2.735      7.925
  Name = 
  6 active torsions:
  status: ('A' for Active; 'I' for Inactive)
    1  A    between atoms: C_4  and  C_32
    2  A    between atoms: C_10  and  C_11
    3  A    between atoms: C_11  and  O_12
    4  A    between atoms: O_12  and  C_28
    5  A    between atoms: O_13  and  C_25
    6  A    between atoms: C_25  and  C_32
                            x       y       z     vdW  Elec       q    Type
                         _______ _______ _______ _____ _____    ______ ____

>  <TORSDO>
F 6

$$$$
=
 OpenBabel11042418403D

 34 40  0  0  1  0  0  0  0  0999 V2000
  185.2160  178.9100  147.2200 C   0  0  0  0  0  3  0  0  0  0  0  0
  190.4380  175.7210  147.0720 C   0  0  0  0  0  3  0  0  0  0  0  0
  192.8170  172.6850  143.7790 C   0  0  2  0  0  3  0  0  0  0  0  0
  185.7580  178.4230  144.9080 C   0  0  0  0  0  0  0  0  0  0  0  0
  187.4490  177.1870  144.2330 N   0  0  0  0  0  0  0  0  0  0  0  0
  185.5440  178.1220  143.5600 C   0  0  1  0  0  3  0  0  0  0  0  0
  189.1630  175.5950  145.0340 C   0  0  0  0  0  0  0  0  0  0  0  0
  189.3220  176.1330  146.3410 C   0  0  0  0  0  0  0  0  0  0  0  0
  188.1600  175.6540  142.6880 C   0  0  2  0  0  0  0  0  0  0  0  0
  188.4090  174.1600  142.5440 C   0  0  0  0  0  2  0  0  0  0  0  0
  188.3400  176.9290  147.0580 N   0  0  0  0  0  0  0  0  0  0  0  0
  186.6400  177.3470  143.1940 C   0  0  2  0  0  3  0  0  0  0  0  0
  184.2770  178.2920  142.7980 C   0  0  0  0  0  1  0  0  0  0  0  0
  191.1250  174.2180  145.3610 C   0  0  0  0  0  0  0  0  0  0  0  0
  189.7200  173.7780  143.2880 C   0  0  0  0  0  2  0  0  0  0  0  0
  186.9260  177.8040  145.2740 C   0  0  0  0  0  0  0  0  0  0  0  0
  186.4330  178.2380  147.6290 N   0  0  0  0  0  2  0  0  0  0  0  0
  191.3130  174.8120  146.5680 N   0  0  0  0  0  0  0  0  0  0  0  0
  184.8600  178.9970  145.9230 C   0  0  0  0  0  3  0  0  0  0  0  0
  187.2980  177.6130  146.6650 C   0  0  0  0  0  0  0  0  0  0  0  0
  187.9860  175.8790  144.1790 C   0  0  2  0  0  3  0  0  0  0  0  0
  192.0720  173.2530  144.9060 N   0  0  0  0  0  0  0  0  0  0  0  0
  193.3240  172.6250  144.9740 O   0  0  0  0  0  0  0  0  0  0  0  0
  190.0070  174.5490  144.5840 C   0  0  0  0  0  0  0  0  0  0  0  0
  186.8350  176.2680  142.1580 C   0  0  0  0  0  2  0  0  0  0  0  0
  189.3460  176.4580  142.1120 C   0  0  0  0  0  2  0  0  0  0  0  0
  189.6380  177.5960  142.9180 O   0  0  0  0  0  0  0  0  0  0  0  0
  192.0620  177.0340  142.9260 C   0  0  0  0  0  1  0  0  0  0  0  0
  190.9430  177.9520  143.2590 C   0  0  0  0  0  0  0  0  0  0  0  0
  191.1840  179.0380  143.8540 O   0  0  0  0  0  0  0  0  0  0  0  0
  193.4980  173.8000  143.0050 C   0  0  0  0  0  2  0  0  0  0  0  0
  194.9870  173.8140  143.2970 C   0  0  0  0  0  2  0  0  0  0  0  0
  195.3750  175.0800  143.7340 O   0  0  0  0  0  0  0  0  0  0  0  0
  196.0690  174.8450  144.9210 C   0  0  0  0  0  1  0  0  0  0  0  0
  1 17  1  0  0  0  0
  3 31  1  6  0  0  0
  3 22  1  0  0  0  0
  3 23  1  0  0  0  0
  4 16  2  0  0  0  0
  4 19  1  0  0  0  0
  5 16  1  0  0  0  0
  6 13  1  1  0  0  0
  6  4  1  0  0  0  0
  7  8  1  0  0  0  0
  8 11  1  0  0  0  0
  8  2  2  0  0  0  0
  9 26  1  6  0  0  0
  9 21  1  0  0  0  0
 10  9  1  0  0  0  0
 10 15  1  0  0  0  0
 12 25  1  1  0  0  0
 12  6  1  0  0  0  0
 12  5  1  0  0  0  0
 14 18  2  0  0  0  0
 15 24  1  0  0  0  0
 16 20  1  0  0  0  0
 18  2  1  0  0  0  0
 19  1  2  0  0  0  0
 20 11  2  0  0  0  0
 20 17  1  0  0  0  0
 21  5  1  0  0  0  0
 21  7  1  1  0  0  0
 22 23  1  0  0  0  0
 22 14  1  0  0  0  0
 24  7  2  0  0  0  0
 24 14  1  0  0  0  0
 25  9  1  0  0  0  0
 26 27  1  0  0  0  0
 27 29  1  0  0  0  0
 28 29  1  0  0  0  0
 29 30  2  0  0  0  0
 31 32  1  0  0  0  0
 32 33  1  0  0  0  0
 33 34  1  0  0  0  0
M  END
>  <MODEL>
7

>  <REMARK>
 VINA RESULT:      -6.8      2.138      3.824
  Name = 
  6 active torsions:
  status: ('A' for Active; 'I' for Inactive)
    1  A    between atoms: C_4  and  C_32
    2  A    between atoms: C_10  and  C_11
    3  A    between atoms: C_11  and  O_12
    4  A    between atoms: O_12  and  C_28
    5  A    between atoms: O_13  and  C_25
    6  A    between atoms: C_25  and  C_32
                            x       y       z     vdW  Elec       q    Type
                         _______ _______ _______ _____ _____    ______ ____

>  <TORSDO>
F 6

$$$$
=
 OpenBabel11042418403D

 34 40  0  0  1  0  0  0  0  0999 V2000
  191.8190  174.9360  147.6880 C   0  0  0  0  0  3  0  0  0  0  0  0
  186.2110  177.1350  146.5950 C   0  0  0  0  0  3  0  0  0  0  0  0
  183.7370  179.1380  142.6480 C   0  0  2  0  0  3  0  0  0  0  0  0
  191.4420  174.9340  145.2930 C   0  0  0  0  0  0  0  0  0  0  0  0
  189.6570  175.7400  144.2870 N   0  0  0  0  0  0  0  0  0  0  0  0
  191.7400  175.0400  143.9320 C   0  0  1  0  0  3  0  0  0  0  0  0
  187.6490  177.1320  144.6640 C   0  0  0  0  0  0  0  0  0  0  0  0
  187.4450  176.8000  146.0320 C   0  0  0  0  0  0  0  0  0  0  0  0
  188.8780  176.8540  142.4450 C   0  0  2  0  0  0  0  0  0  0  0  0
  188.4200  178.2400  142.0180 C   0  0  0  0  0  2  0  0  0  0  0  0
  188.4610  176.3100  146.9490 N   0  0  0  0  0  0  0  0  0  0  0  0
  190.5810  175.5480  143.3540 C   0  0  2  0  0  3  0  0  0  0  0  0
  193.0880  174.9610  143.3050 C   0  0  0  0  0  1  0  0  0  0  0  0
  185.4770  178.1960  144.5970 C   0  0  0  0  0  0  0  0  0  0  0  0
  186.9980  178.5150  142.5850 C   0  0  0  0  0  2  0  0  0  0  0  0
  190.1630  175.4010  145.4570 C   0  0  0  0  0  0  0  0  0  0  0  0
  190.4780  175.4530  147.8810 N   0  0  0  0  0  2  0  0  0  0  0  0
  185.2630  177.7870  145.8750 N   0  0  0  0  0  0  0  0  0  0  0  0
  192.3110  174.6960  146.4560 C   0  0  0  0  0  3  0  0  0  0  0  0
  189.6290  175.7550  146.7610 C   0  0  0  0  0  0  0  0  0  0  0  0
  188.9350  176.9120  143.9600 C   0  0  2  0  0  3  0  0  0  0  0  0
  184.4440  178.8990  143.9090 N   0  0  0  0  0  0  0  0  0  0  0  0
  183.1100  179.3100  143.7740 O   0  0  0  0  0  0  0  0  0  0  0  0
  186.7050  177.9320  143.9740 C   0  0  0  0  0  0  0  0  0  0  0  0
  190.3270  176.3920  142.1300 C   0  0  0  0  0  2  0  0  0  0  0  0
  187.8920  175.7780  141.9400 C   0  0  0  0  0  2  0  0  0  0  0  0
  188.4450  175.0410  140.8530 O   0  0  0  0  0  0  0  0  0  0  0  0
  188.4890  172.8470  142.0250 C   0  0  0  0  0  1  0  0  0  0  0  0
  188.3700  173.6490  140.7810 C   0  0  0  0  0  0  0  0  0  0  0  0
  188.2120  173.0650  139.6750 O   0  0  0  0  0  0  0  0  0  0  0  0
  183.3140  177.8130  142.0410 C   0  0  0  0  0  2  0  0  0  0  0  0
  182.3600  178.0410  140.8830 C   0  0  0  0  0  2  0  0  0  0  0  0
  181.0430  177.8810  141.3130 O   0  0  0  0  0  0  0  0  0  0  0  0
  180.2960  178.7020  140.4680 C   0  0  0  0  0  1  0  0  0  0  0  0
  1 17  1  0  0  0  0
  3 31  1  6  0  0  0
  3 23  1  0  0  0  0
  3 22  1  0  0  0  0
  4 16  2  0  0  0  0
  4 19  1  0  0  0  0
  5 16  1  0  0  0  0
  6 13  1  1  0  0  0
  6  4  1  0  0  0  0
  7  8  2  0  0  0  0
  8  2  1  0  0  0  0
  8 11  1  0  0  0  0
  9 26  1  6  0  0  0
  9 21  1  0  0  0  0
 10  9  1  0  0  0  0
 10 15  1  0  0  0  0
 12 25  1  1  0  0  0
 12  6  1  0  0  0  0
 12  5  1  0  0  0  0
 14 18  1  0  0  0  0
 15 24  1  0  0  0  0
 16 20  1  0  0  0  0
 18  2  2  0  0  0  0
 19  1  2  0  0  0  0
 20 11  2  0  0  0  0
 20 17  1  0  0  0  0
 21  5  1  0  0  0  0
 21  7  1  1  0  0  0
 22 14  1  0  0  0  0
 23 22  1  0  0  0  0
 24 14  2  0  0  0  0
 24  7  1  0  0  0  0
 25  9  1  0  0  0  0
 27 26  1  0  0  0  0
 29 27  1  0  0  0  0
 29 28  1  0  0  0  0
 30 29  2  0  0  0  0
 32 33  1  0  0  0  0
 32 31  1  0  0  0  0
 34 33  1  0  0  0  0
M  END
>  <MODEL>
8

>  <REMARK>
 VINA RESULT:      -6.6      3.243      7.884
  Name = 
  6 active torsions:
  status: ('A' for Active; 'I' for Inactive)
    1  A    between atoms: C_4  and  C_32
    2  A    between atoms: C_10  and  C_11
    3  A    between atoms: C_11  and  O_12
    4  A    between atoms: O_12  and  C_28
    5  A    between atoms: O_13  and  C_25
    6  A    between atoms: C_25  and  C_32
                            x       y       z     vdW  Elec       q    Type
                         _______ _______ _______ _____ _____    ______ ____

>  <TORSDO>
F 6

$$$$
=
 OpenBabel11042418403D

 34 40  0  0  1  0  0  0  0  0999 V2000
  196.3390  174.9140  145.0250 C   0  0  0  0  0  3  0  0  0  0  0  0
  191.3350  178.0880  143.4910 C   0  0  0  0  0  3  0  0  0  0  0  0
  186.6520  177.0340  141.8550 C   0  0  2  0  0  3  0  0  0  0  0  0
  194.4250  173.4290  145.1160 C   0  0  0  0  0  0  0  0  0  0  0  0
  192.3710  173.9670  144.5360 N   0  0  0  0  0  0  0  0  0  0  0  0
  193.6960  172.2420  145.0050 C   0  0  1  0  0  3  0  0  0  0  0  0
  191.0480  175.7010  143.3700 C   0  0  0  0  0  0  0  0  0  0  0  0
  191.8710  176.8150  143.6960 C   0  0  0  0  0  0  0  0  0  0  0  0
  190.4390  173.2300  143.5520 C   0  0  2  0  0  0  0  0  0  0  0  0
  189.6840  173.3190  142.2350 C   0  0  0  0  0  2  0  0  0  0  0  0
  193.2790  176.7570  144.0510 N   0  0  0  0  0  0  0  0  0  0  0  0
  192.4160  172.6460  144.6410 C   0  0  2  0  0  3  0  0  0  0  0  0
  194.2460  170.8600  144.9450 C   0  0  0  0  0  1  0  0  0  0  0  0
  189.3340  177.2030  142.5580 C   0  0  0  0  0  0  0  0  0  0  0  0
  189.0210  174.7200  142.1100 C   0  0  0  0  0  2  0  0  0  0  0  0
  193.5700  174.4520  144.7930 C   0  0  0  0  0  0  0  0  0  0  0  0
  195.4550  176.0020  144.6580 N   0  0  0  0  0  0  0  0  0  0  0  0
  190.0950  178.2530  142.9630 N   0  0  0  0  0  0  0  0  0  0  0  0
  195.8720  173.6660  145.2330 C   0  0  0  0  0  2  0  0  0  0  0  0
  194.0460  175.7870  144.4750 C   0  0  0  0  0  0  0  0  0  0  0  0
  191.5140  174.2970  143.4590 C   0  0  2  0  0  3  0  0  0  0  0  0
  188.0500  177.4530  141.9890 N   0  0  0  0  0  0  0  0  0  0  0  0
  186.9560  178.2910  141.7320 O   0  0  0  0  0  0  0  0  0  0  0  0
  189.8180  175.8950  142.6950 C   0  0  0  0  0  0  0  0  0  0  0  0
  191.3130  171.9820  143.8550 C   0  0  0  0  0  2  0  0  0  0  0  0
  189.4830  173.4680  144.7430 C   0  0  0  0  0  2  0  0  0  0  0  0
  190.0090  174.4430  145.6390 O   0  0  0  0  0  0  0  0  0  0  0  0
  188.7780  176.5010  146.3010 C   0  0  0  0  0  1  0  0  0  0  0  0
  189.2090  175.1060  146.5710 C   0  0  0  0  0  0  0  0  0  0  0  0
  188.8570  174.5410  147.6410 O   0  0  0  0  0  0  0  0  0  0  0  0
  186.0570  176.7970  143.2310 C   0  0  0  0  0  2  0  0  0  0  0  0
  184.8460  177.6870  143.4440 C   0  0  0  0  0  2  0  0  0  0  0  0
  184.9730  178.3850  144.6450 O   0  0  0  0  0  0  0  0  0  0  0  0
  185.2280  179.7020  144.2600 C   0  0  0  0  0  1  0  0  0  0  0  0
  1 19  1  0  0  0  0
  2  8  1  0  0  0  0
  3 22  1  0  0  0  0
  3 31  1  1  0  0  0
  4 19  1  0  0  0  0
  5 12  1  0  0  0  0
  5 16  1  0  0  0  0
  6 13  1  6  0  0  0
  6  4  1  0  0  0  0
  7  8  2  0  0  0  0
  8 11  1  0  0  0  0
  9 25  1  0  0  0  0
  9 26  1  1  0  0  0
 10  9  1  0  0  0  0
 11 20  2  0  0  0  0
 12 25  1  6  0  0  0
 12  6  1  0  0  0  0
 14 24  2  0  0  0  0
 14 18  1  0  0  0  0
 15 10  1  0  0  0  0
 15 24  1  0  0  0  0
 16  4  2  0  0  0  0
 17  1  2  0  0  0  0
 18  2  2  0  0  0  0
 20 17  1  0  0  0  0
 20 16  1  0  0  0  0
 21  7  1  1  0  0  0
 21  9  1  0  0  0  0
 21  5  1  0  0  0  0
 22 14  1  0  0  0  0
 23  3  1  0  0  0  0
 23 22  1  0  0  0  0
 24  7  1  0  0  0  0
 26 27  1  0  0  0  0
 27 29  1  0  0  0  0
 28 29  1  0  0  0  0
 29 30  2  0  0  0  0
 31 32  1  0  0  0  0
 32 33  1  0  0  0  0
 34 33  1  0  0  0  0
M  END
>  <MODEL>
9

>  <REMARK>
 VINA RESULT:      -6.6      2.543      7.370
  Name = 
  6 active torsions:
  status: ('A' for Active; 'I' for Inactive)
    1  A    between atoms: C_4  and  C_32
    2  A    between atoms: C_10  and  C_11
    3  A    between atoms: C_11  and  O_12
    4  A    between atoms: O_12  and  C_28
    5  A    between atoms: O_13  and  C_25
    6  A    between atoms: C_25  and  C_32
                            x       y       z     vdW  Elec       q    Type
                         _______ _______ _______ _____ _____    ______ ____

>  <TORSDO>
F 6

$$$$
