=
 OpenBabel11042413533D

 51 55  0  0  1  0  0  0  0  0999 V2000
  190.7290  176.7010  147.9060 N   0  0  0  0  0  0  0  0  0  0  0  0
  195.6520  174.9310  145.5900 C   0  0  0  0  0  3  0  0  0  0  0  0
  191.7240  173.1610  144.4090 C   0  0  0  0  0  0  0  0  0  0  0  0
  196.0430  173.6600  145.3760 C   0  0  0  0  0  0  0  0  0  0  0  0
  193.8660  172.4440  145.4510 C   0  0  0  0  0  3  0  0  0  0  0  0
  193.1150  173.5900  144.8540 C   0  0  2  0  0  3  0  0  0  0  0  0
  195.1840  172.4880  145.6470 C   0  0  0  0  0  3  0  0  0  0  0  0
  194.3220  175.3890  146.0410 C   0  0  0  0  0  3  0  0  0  0  0  0
  190.6850  174.7130  146.0180 C   0  0  0  0  0  0  0  0  0  0  0  0
  189.5080  175.1750  146.6030 C   0  0  0  0  0  3  0  0  0  0  0  0
  191.9040  176.2900  147.3630 C   0  0  0  0  0  3  0  0  0  0  0  0
  190.6260  173.6770  144.9820 C   0  0  0  0  0  3  0  0  0  0  0  0
  193.1570  174.7820  145.7810 C   0  0  0  0  0  0  0  0  0  0  0  0
  189.5660  176.1600  147.5380 N   0  0  0  0  0  0  0  0  0  0  0  0
  191.9060  175.2780  146.3950 C   0  0  0  0  0  0  0  0  0  0  0  0
  191.5730  172.1740  143.3060 C   0  0  0  0  0  0  0  0  0  0  0  0
  191.9830  170.8430  143.4800 C   0  0  0  0  0  3  0  0  0  0  0  0
  191.8480  169.9130  142.4460 C   0  0  0  0  0  3  0  0  0  0  0  0
  191.3060  170.3040  141.2200 C   0  0  0  0  0  3  0  0  0  0  0  0
  190.8970  171.6250  141.0230 C   0  0  0  0  0  0  0  0  0  0  0  0
  191.0320  172.5550  142.0640 C   0  0  0  0  0  3  0  0  0  0  0  0
  190.3530  172.0060  139.7570 N   0  0  0  0  0  2  0  0  0  0  0  0
  190.2630  173.3910  139.3210 C   0  0  0  0  0  2  0  0  0  0  0  0
  188.8070  173.8100  139.2390 C   0  0  0  0  0  2  0  0  0  0  0  0
  188.2200  173.7360  140.5020 O   0  0  0  0  0  0  0  0  0  0  0  0
  188.4430  174.9900  141.0670 C   0  0  0  0  0  2  0  0  0  0  0  0
  188.0080  174.9770  142.5250 C   0  0  0  0  0  2  0  0  0  0  0  0
  188.3350  176.2820  143.2620 C   0  0  1  0  0  3  0  0  0  0  0  0
  189.4370  178.1860  142.0850 O   0  0  0  0  0  0  0  0  0  0  0  0
  190.7050  176.4810  142.9380 O   0  0  0  0  0  1  0  0  0  0  0  0
  189.5630  176.9790  142.7600 C   0  0  0  0  0  0  0  0  0  0  0  0
  185.8430  176.7150  142.9210 C   0  0  0  0  0  1  0  0  0  0  0  0
  187.1460  177.2240  143.5160 C   0  0  1  0  0  3  0  0  0  0  0  0
  186.9730  177.4630  144.9410 N   0  0  0  0  0  2  0  0  0  0  0  0
  185.5420  177.4530  145.2230 C   0  0  1  0  0  3  0  0  0  0  0  0
  185.2500  176.4400  146.1430 O   0  0  0  0  0  1  0  0  0  0  0  0
  185.0780  178.8180  145.7430 C   0  0  0  0  0  0  0  0  0  0  0  0
  185.4150  179.9250  144.7560 C   0  0  0  0  0  1  0  0  0  0  0  0
  183.6980  178.7940  145.9460 O   0  0  0  0  0  1  0  0  0  0  0  0
  185.7560  179.1180  147.0660 C   0  0  0  0  0  1  0  0  0  0  0  0
  197.3950  173.3950  144.9860 N   0  0  0  0  0  2  0  0  0  0  0  0
  197.3130  172.1310  142.9240 C   0  0  0  0  0  3  0  0  0  0  0  0
  197.4190  174.6270  142.8690 C   0  0  0  0  0  2  0  0  0  0  0  0
  197.8530  173.3570  143.6020 C   0  0  1  0  0  3  0  0  0  0  0  0
  197.7880  174.4900  141.3930 C   0  0  1  0  0  3  0  0  0  0  0  0
  197.2120  173.2990  140.8510 O   0  0  0  0  0  0  0  0  0  0  0  0
  197.0450  172.1360  141.6160 C   0  0  0  0  0  3  0  0  0  0  0  0
  197.3030  175.6930  140.6040 C   0  0  0  0  0  2  0  0  0  0  0  0
  194.8990  176.0840  141.1480 O   0  0  0  0  0  1  0  0  0  0  0  0
  195.8530  175.5670  140.2810 C   0  0  0  0  0  0  0  0  0  0  0  0
  195.4940  175.0240  139.2040 O   0  0  0  0  0  0  0  0  0  0  0  0
  2  8  1  0  0  0  0
  3  6  1  0  0  0  0
  3 12  2  0  0  0  0
  4  2  2  0  0  0  0
  4  7  1  0  0  0  0
  5  7  2  0  0  0  0
  6  5  1  1  0  0  0
  6 13  1  0  0  0  0
  9 15  2  0  0  0  0
  9 10  1  0  0  0  0
 10 14  2  0  0  0  0
 11  1  2  0  0  0  0
 12  9  1  0  0  0  0
 13  8  2  0  0  0  0
 13 15  1  0  0  0  0
 14  1  1  0  0  0  0
 15 11  1  0  0  0  0
 16 17  1  0  0  0  0
 16  3  1  0  0  0  0
 18 17  2  0  0  0  0
 19 18  1  0  0  0  0
 20 19  2  0  0  0  0
 20 21  1  0  0  0  0
 21 16  2  0  0  0  0
 22 20  1  0  0  0  0
 23 22  1  0  0  0  0
 24 23  1  0  0  0  0
 24 25  1  0  0  0  0
 25 26  1  0  0  0  0
 26 27  1  0  0  0  0
 28 27  1  6  0  0  0
 28 33  1  0  0  0  0
 29 31  2  0  0  0  0
 31 30  1  0  0  0  0
 31 28  1  0  0  0  0
 33 32  1  1  0  0  0
 33 34  1  0  0  0  0
 34 35  1  0  0  0  0
 35 37  1  0  0  0  0
 35 36  1  1  0  0  0
 37 39  1  0  0  0  0
 37 40  1  0  0  0  0
 38 37  1  0  0  0  0
 41  4  1  0  0  0  0
 42 44  1  0  0  0  0
 43 44  1  0  0  0  0
 44 41  1  1  0  0  0
 45 48  1  6  0  0  0
 45 43  1  0  0  0  0
 46 45  1  0  0  0  0
 46 47  1  0  0  0  0
 47 42  2  0  0  0  0
 50 48  1  0  0  0  0
 50 49  1  0  0  0  0
 51 50  2  0  0  0  0
M  END
>  <MODEL>
1

>  <REMARK>
 VINA RESULT:      -7.1      0.000      0.000
  Name = 
  17 active torsions:
  status: ('A' for Active; 'I' for Inactive)
    1  A    between atoms: C_4  and  C_5
    2  A    between atoms: C_8  and  C_24
    3  A    between atoms: C_8  and  N_51
    4  A    between atoms: C_10  and  N_33
    5  A    between atoms: C_18  and  C_19
    6  A    between atoms: C_18  and  C_48
    7  A    between atoms: C_19  and  O_45
    8  A    between atoms: C_21  and  N_33
    9  A    between atoms: C_22  and  C_48
   10  A    between atoms: C_22  and  N_51
   11  A    between atoms: C_26  and  C_31
   12  A    between atoms: C_27  and  N_50
   13  A    between atoms: C_29  and  C_31
   14  A    between atoms: C_39  and  C_44
   15  A    between atoms: C_39  and  N_50
   16  A    between atoms: C_44  and  O_45
   17  A    between atoms: C_48  and  C_49
                            x       y       z     vdW  Elec       q    Type
                         _______ _______ _______ _____ _____    ______ ____

>  <TORSDO>
F 17

$$$$
=
 OpenBabel11042413533D

 51 55  0  0  1  0  0  0  0  0999 V2000
  196.0570  174.6830  145.6220 N   0  0  0  0  0  0  0  0  0  0  0  0
  190.8330  176.4380  147.1570 C   0  0  0  0  0  3  0  0  0  0  0  0
  191.5740  174.3780  143.2630 C   0  0  0  0  0  0  0  0  0  0  0  0
  189.9320  177.0860  146.3940 C   0  0  0  0  0  0  0  0  0  0  0  0
  190.7570  176.5750  144.0970 C   0  0  0  0  0  3  0  0  0  0  0  0
  191.2490  175.2190  144.4890 C   0  0  0  0  0  0  0  0  0  0  0  0
  190.1420  177.3810  144.9620 C   0  0  0  0  0  3  0  0  0  0  0  0
  192.1140  175.8480  146.7170 C   0  0  0  0  0  2  0  0  0  0  0  0
  193.9450  174.2510  143.9270 C   0  0  0  0  0  0  0  0  0  0  0  0
  195.2320  173.8350  143.5920 C   0  0  0  0  0  3  0  0  0  0  0  0
  194.8210  175.1030  145.9980 C   0  0  0  0  0  3  0  0  0  0  0  0
  192.8290  173.9700  143.0190 C   0  0  0  0  0  3  0  0  0  0  0  0
  192.3620  175.3410  145.5020 C   0  0  0  0  0  0  0  0  0  0  0  0
  196.2560  174.0680  144.4540 N   0  0  0  0  0  0  0  0  0  0  0  0
  193.7270  174.8920  145.1500 C   0  0  0  0  0  0  0  0  0  0  0  0
  190.4850  173.9780  142.3320 C   0  0  0  0  0  0  0  0  0  0  0  0
  189.2290  173.5940  142.8280 C   0  0  0  0  0  3  0  0  0  0  0  0
  188.2040  173.2120  141.9580 C   0  0  0  0  0  3  0  0  0  0  0  0
  188.4240  173.2030  140.5800 C   0  0  0  0  0  3  0  0  0  0  0  0
  189.6680  173.5740  140.0640 C   0  0  0  0  0  0  0  0  0  0  0  0
  190.6930  173.9600  140.9410 C   0  0  0  0  0  3  0  0  0  0  0  0
  189.8740  173.5500  138.6500 N   0  0  0  0  0  2  0  0  0  0  0  0
  191.1600  173.8420  138.0340 C   0  0  0  0  0  2  0  0  0  0  0  0
  191.0410  173.7420  136.5250 C   0  0  0  0  0  2  0  0  0  0  0  0
  191.2710  172.4280  136.1160 O   0  0  0  0  0  0  0  0  0  0  0  0
  192.5590  172.1420  136.5620 C   0  0  0  0  0  2  0  0  0  0  0  0
  192.6360  170.6880  137.0000 C   0  0  0  0  0  2  0  0  0  0  0  0
  192.9180  170.5240  138.4990 C   0  0  1  0  0  3  0  0  0  0  0  0
  195.3400  171.0640  138.7630 O   0  0  0  0  0  0  0  0  0  0  0  0
  193.7560  172.4390  139.6810 O   0  0  0  0  0  1  0  0  0  0  0  0
  194.0180  171.4030  139.0160 C   0  0  0  0  0  0  0  0  0  0  0  0
  190.4330  169.9830  138.7000 C   0  0  0  0  0  1  0  0  0  0  0  0
  191.6820  170.4740  139.4130 C   0  0  1  0  0  3  0  0  0  0  0  0
  191.9370  169.6450  140.5810 N   0  0  0  0  0  2  0  0  0  0  0  0
  191.7120  170.4650  141.7660 C   0  0  1  0  0  3  0  0  0  0  0  0
  190.3730  170.3700  142.1580 O   0  0  0  0  0  1  0  0  0  0  0  0
  192.6500  170.0480  142.9050 C   0  0  0  0  0  0  0  0  0  0  0  0
  192.2830  170.7500  144.2030 C   0  0  0  0  0  1  0  0  0  0  0  0
  192.5680  168.6680  143.0940 O   0  0  0  0  0  1  0  0  0  0  0  0
  194.0800  170.4010  142.5430 C   0  0  0  0  0  1  0  0  0  0  0  0
  188.7600  177.6400  147.0040 N   0  0  0  0  0  2  0  0  0  0  0  0
  186.4440  177.8300  147.6780 C   0  0  0  0  0  3  0  0  0  0  0  0
  187.0360  177.5580  145.2660 C   0  0  0  0  0  2  0  0  0  0  0  0
  187.4010  177.2010  146.7080 C   0  0  1  0  0  3  0  0  0  0  0  0
  185.5650  177.2160  145.0360 C   0  0  1  0  0  3  0  0  0  0  0  0
  184.7490  177.8760  146.0060 O   0  0  0  0  0  0  0  0  0  0  0  0
  185.1900  178.1120  147.3160 C   0  0  0  0  0  3  0  0  0  0  0  0
  185.1300  177.6280  143.6400 C   0  0  0  0  0  2  0  0  0  0  0  0
  185.4380  180.0890  143.9180 O   0  0  0  0  0  1  0  0  0  0  0  0
  185.7640  178.9180  143.2460 C   0  0  0  0  0  0  0  0  0  0  0  0
  186.6220  178.9410  142.3260 O   0  0  0  0  0  0  0  0  0  0  0  0
  1 11  1  0  0  0  0
  3  6  1  0  0  0  0
  4 41  1  0  0  0  0
  4  2  2  0  0  0  0
  5  6  1  0  0  0  0
  5  7  2  0  0  0  0
  6 13  2  0  0  0  0
  7  4  1  0  0  0  0
  8  2  1  0  0  0  0
  9 15  1  0  0  0  0
 10  9  2  0  0  0  0
 10 14  1  0  0  0  0
 12  3  2  0  0  0  0
 12  9  1  0  0  0  0
 13  8  1  0  0  0  0
 14  1  2  0  0  0  0
 15 13  1  0  0  0  0
 15 11  2  0  0  0  0
 16 17  1  0  0  0  0
 16  3  1  0  0  0  0
 18 17  2  0  0  0  0
 19 18  1  0  0  0  0
 20 19  2  0  0  0  0
 20 21  1  0  0  0  0
 21 16  2  0  0  0  0
 22 20  1  0  0  0  0
 23 22  1  0  0  0  0
 24 23  1  0  0  0  0
 25 24  1  0  0  0  0
 25 26  1  0  0  0  0
 26 27  1  0  0  0  0
 28 27  1  6  0  0  0
 28 31  1  0  0  0  0
 28 33  1  0  0  0  0
 29 31  2  0  0  0  0
 31 30  1  0  0  0  0
 33 32  1  6  0  0  0
 33 34  1  0  0  0  0
 34 35  1  0  0  0  0
 35 36  1  1  0  0  0
 35 37  1  0  0  0  0
 37 39  1  0  0  0  0
 37 38  1  0  0  0  0
 40 37  1  0  0  0  0
 43 44  1  0  0  0  0
 44 41  1  1  0  0  0
 44 42  1  0  0  0  0
 45 48  1  6  0  0  0
 45 43  1  0  0  0  0
 45 46  1  0  0  0  0
 46 47  1  0  0  0  0
 47 42  2  0  0  0  0
 50 48  1  0  0  0  0
 50 49  1  0  0  0  0
 51 50  2  0  0  0  0
M  END
>  <MODEL>
2

>  <REMARK>
 VINA RESULT:      -6.8      2.468      8.344
  Name = 
  17 active torsions:
  status: ('A' for Active; 'I' for Inactive)
    1  A    between atoms: C_4  and  C_5
    2  A    between atoms: C_8  and  C_24
    3  A    between atoms: C_8  and  N_51
    4  A    between atoms: C_10  and  N_33
    5  A    between atoms: C_18  and  C_19
    6  A    between atoms: C_18  and  C_48
    7  A    between atoms: C_19  and  O_45
    8  A    between atoms: C_21  and  N_33
    9  A    between atoms: C_22  and  C_48
   10  A    between atoms: C_22  and  N_51
   11  A    between atoms: C_26  and  C_31
   12  A    between atoms: C_27  and  N_50
   13  A    between atoms: C_29  and  C_31
   14  A    between atoms: C_39  and  C_44
   15  A    between atoms: C_39  and  N_50
   16  A    between atoms: C_44  and  O_45
   17  A    between atoms: C_48  and  C_49
                            x       y       z     vdW  Elec       q    Type
                         _______ _______ _______ _____ _____    ______ ____

>  <TORSDO>
F 17

$$$$
=
 OpenBabel11042413533D

 51 55  0  0  1  0  0  0  0  0999 V2000
  190.1660  170.9300  135.6290 N   0  0  0  0  0  0  0  0  0  0  0  0
  188.1850  174.0700  139.9820 C   0  0  0  0  0  3  0  0  0  0  0  0
  192.5390  173.1980  139.4980 C   0  0  0  0  0  0  0  0  0  0  0  0
  188.5330  173.9770  141.2800 C   0  0  2  0  0  3  0  0  0  0  0  0
  190.7130  172.7740  141.1330 C   0  0  0  0  0  3  0  0  0  0  0  0
  191.0720  173.4190  139.8330 C   0  0  0  0  0  0  0  0  0  0  0  0
  189.5830  173.0640  141.7770 C   0  0  0  0  0  3  0  0  0  0  0  0
  188.8090  173.3690  138.8400 C   0  0  0  0  0  3  0  0  0  0  0  0
  191.9310  171.9320  137.4720 C   0  0  0  0  0  0  0  0  0  0  0  0
  192.3740  171.1660  136.3950 C   0  0  0  0  0  3  0  0  0  0  0  0
  189.6840  171.6750  136.6570 C   0  0  0  0  0  3  0  0  0  0  0  0
  192.9030  172.4870  138.4190 C   0  0  0  0  0  3  0  0  0  0  0  0
  190.0950  173.0040  138.7570 C   0  0  0  0  0  0  0  0  0  0  0  0
  191.4710  170.6830  135.5020 N   0  0  0  0  0  0  0  0  0  0  0  0
  190.5660  172.1990  137.6100 C   0  0  0  0  0  0  0  0  0  0  0  0
  193.5930  173.7980  140.3620 C   0  0  0  0  0  0  0  0  0  0  0  0
  193.8800  175.1700  140.2850 C   0  0  0  0  0  3  0  0  0  0  0  0
  194.8710  175.7370  141.0900 C   0  0  0  0  0  3  0  0  0  0  0  0
  195.5930  174.9380  141.9790 C   0  0  0  0  0  3  0  0  0  0  0  0
  195.3280  173.5700  142.0660 C   0  0  0  0  0  0  0  0  0  0  0  0
  194.3300  173.0040  141.2590 C   0  0  0  0  0  3  0  0  0  0  0  0
  196.0850  172.7690  142.9770 N   0  0  0  0  0  2  0  0  0  0  0  0
  195.5710  171.5400  143.5620 C   0  0  0  0  0  2  0  0  0  0  0  0
  195.1380  171.7940  144.9940 C   0  0  0  0  0  2  0  0  0  0  0  0
  193.8240  172.2630  145.0160 O   0  0  0  0  0  0  0  0  0  0  0  0
  193.9230  173.5600  145.5150 C   0  0  0  0  0  2  0  0  0  0  0  0
  193.1960  174.5210  144.5860 C   0  0  0  0  0  2  0  0  0  0  0  0
  192.8980  175.8780  145.2370 C   0  0  1  0  0  3  0  0  0  0  0  0
  194.2060  177.1040  146.9730 O   0  0  0  0  0  1  0  0  0  0  0  0
  195.0620  176.8480  144.8640 O   0  0  0  0  0  0  0  0  0  0  0  0
  194.1190  176.6320  145.6690 C   0  0  0  0  0  0  0  0  0  0  0  0
  191.3570  176.1390  143.2200 C   0  0  0  0  0  1  0  0  0  0  0  0
  191.8510  176.7490  144.5220 C   0  0  1  0  0  3  0  0  0  0  0  0
  190.7200  177.0170  145.3970 N   0  0  0  0  0  2  0  0  0  0  0  0
  190.7290  176.0150  146.4570 C   0  0  1  0  0  3  0  0  0  0  0  0
  190.8520  176.6450  147.7000 O   0  0  0  0  0  1  0  0  0  0  0  0
  189.4660  175.1490  146.4010 C   0  0  0  0  0  0  0  0  0  0  0  0
  189.6460  173.9770  145.4490 C   0  0  0  0  0  1  0  0  0  0  0  0
  189.1800  174.6590  147.6760 O   0  0  0  0  0  1  0  0  0  0  0  0
  188.2920  175.9870  145.9310 C   0  0  0  0  0  1  0  0  0  0  0  0
  187.7790  174.6950  142.2640 N   0  0  0  0  0  2  0  0  0  0  0  0
  187.5070  176.6070  140.8070 C   0  0  0  0  0  3  0  0  0  0  0  0
  186.2630  176.4850  142.9700 C   0  0  0  0  0  2  0  0  0  0  0  0
  187.5560  176.1350  142.2310 C   0  0  1  0  0  3  0  0  0  0  0  0
  185.9860  177.9760  142.7930 C   0  0  1  0  0  3  0  0  0  0  0  0
  185.9500  178.3080  141.4030 O   0  0  0  0  0  0  0  0  0  0  0  0
  186.7540  177.6540  140.4580 C   0  0  0  0  0  3  0  0  0  0  0  0
  184.6670  178.3580  143.4410 C   0  0  0  0  0  2  0  0  0  0  0  0
  186.0550  179.0980  145.3780 O   0  0  0  0  0  0  0  0  0  0  0  0
  184.8450  178.6130  144.8990 C   0  0  0  0  0  0  0  0  0  0  0  0
  183.8880  178.4210  145.6920 O   0  0  0  0  0  1  0  0  0  0  0  0
  1 11  1  0  0  0  0
  2  4  1  0  0  0  0
  3  6  1  0  0  0  0
  3 16  1  0  0  0  0
  4  7  1  0  0  0  0
  4 41  1  1  0  0  0
  5  7  2  0  0  0  0
  6  5  1  0  0  0  0
  8  2  2  0  0  0  0
  9 15  1  0  0  0  0
  9 12  1  0  0  0  0
 10  9  2  0  0  0  0
 11 15  2  0  0  0  0
 12  3  2  0  0  0  0
 13  8  1  0  0  0  0
 13  6  2  0  0  0  0
 14  1  2  0  0  0  0
 14 10  1  0  0  0  0
 15 13  1  0  0  0  0
 16 21  1  0  0  0  0
 17 16  2  0  0  0  0
 17 18  1  0  0  0  0
 18 19  2  0  0  0  0
 19 20  1  0  0  0  0
 20 22  1  0  0  0  0
 21 20  2  0  0  0  0
 22 23  1  0  0  0  0
 23 24  1  0  0  0  0
 24 25  1  0  0  0  0
 25 26  1  0  0  0  0
 27 26  1  0  0  0  0
 28 27  1  6  0  0  0
 28 31  1  0  0  0  0
 30 31  2  0  0  0  0
 31 29  1  0  0  0  0
 33 32  1  6  0  0  0
 33 28  1  0  0  0  0
 33 34  1  0  0  0  0
 34 35  1  0  0  0  0
 35 36  1  1  0  0  0
 37 35  1  0  0  0  0
 37 39  1  0  0  0  0
 38 37  1  0  0  0  0
 40 37  1  0  0  0  0
 42 44  1  0  0  0  0
 44 41  1  6  0  0  0
 44 43  1  0  0  0  0
 45 43  1  0  0  0  0
 45 48  1  6  0  0  0
 46 45  1  0  0  0  0
 47 42  2  0  0  0  0
 47 46  1  0  0  0  0
 48 50  1  0  0  0  0
 50 49  2  0  0  0  0
 50 51  1  0  0  0  0
M  END
>  <MODEL>
3

>  <REMARK>
 VINA RESULT:      -6.7      2.589      8.530
  Name = 
  17 active torsions:
  status: ('A' for Active; 'I' for Inactive)
    1  A    between atoms: C_4  and  C_5
    2  A    between atoms: C_8  and  C_24
    3  A    between atoms: C_8  and  N_51
    4  A    between atoms: C_10  and  N_33
    5  A    between atoms: C_18  and  C_19
    6  A    between atoms: C_18  and  C_48
    7  A    between atoms: C_19  and  O_45
    8  A    between atoms: C_21  and  N_33
    9  A    between atoms: C_22  and  C_48
   10  A    between atoms: C_22  and  N_51
   11  A    between atoms: C_26  and  C_31
   12  A    between atoms: C_27  and  N_50
   13  A    between atoms: C_29  and  C_31
   14  A    between atoms: C_39  and  C_44
   15  A    between atoms: C_39  and  N_50
   16  A    between atoms: C_44  and  O_45
   17  A    between atoms: C_48  and  C_49
                            x       y       z     vdW  Elec       q    Type
                         _______ _______ _______ _____ _____    ______ ____

>  <TORSDO>
F 17

$$$$
=
 OpenBabel11042413533D

 51 55  0  0  1  0  0  0  0  0999 V2000
  197.1280  176.5510  141.7880 N   0  0  0  0  0  0  0  0  0  0  0  0
  192.8370  173.8730  139.1160 C   0  0  0  0  0  3  0  0  0  0  0  0
  192.8300  174.5000  143.5390 C   0  0  0  0  0  0  0  0  0  0  0  0
  192.2220  172.7360  139.4950 C   0  0  0  0  0  0  0  0  0  0  0  0
  192.8270  172.6180  141.9120 C   0  0  0  0  0  3  0  0  0  0  0  0
  192.8140  174.1040  142.0700 C   0  0  0  0  0  0  0  0  0  0  0  0
  192.5280  172.0270  140.7550 C   0  0  0  0  0  3  0  0  0  0  0  0
  193.8340  174.6450  139.8850 C   0  0  0  0  0  3  0  0  0  0  0  0
  195.0060  175.6250  143.2550 C   0  0  0  0  0  0  0  0  0  0  0  0
  196.0680  176.2860  143.8670 C   0  0  0  0  0  3  0  0  0  0  0  0
  196.1150  175.9180  141.1420 C   0  0  0  0  0  3  0  0  0  0  0  0
  193.8650  175.1770  144.0600 C   0  0  0  0  0  3  0  0  0  0  0  0
  193.8960  174.7290  141.2210 C   0  0  0  0  0  0  0  0  0  0  0  0
  197.1060  176.7290  143.1100 N   0  0  0  0  0  0  0  0  0  0  0  0
  195.0200  175.4380  141.8700 C   0  0  1  0  0  3  0  0  0  0  0  0
  191.6730  174.1560  144.4100 C   0  0  0  0  0  0  0  0  0  0  0  0
  190.9510  172.9720  144.1980 C   0  0  0  0  0  3  0  0  0  0  0  0
  189.8600  172.6470  145.0100 C   0  0  0  0  0  3  0  0  0  0  0  0
  189.4750  173.5060  146.0410 C   0  0  0  0  0  3  0  0  0  0  0  0
  190.1760  174.6930  146.2640 C   0  0  0  0  0  0  0  0  0  0  0  0
  191.2720  175.0140  145.4500 C   0  0  0  0  0  3  0  0  0  0  0  0
  189.7590  175.5620  147.3200 N   0  0  0  0  0  2  0  0  0  0  0  0
  189.7370  177.0110  147.1880 C   0  0  0  0  0  2  0  0  0  0  0  0
  188.3020  177.5020  147.1590 C   0  0  0  0  0  2  0  0  0  0  0  0
  187.4300  176.4170  147.0710 O   0  0  0  0  0  0  0  0  0  0  0  0
  186.1580  176.9830  147.1310 C   0  0  0  0  0  2  0  0  0  0  0  0
  186.1270  178.2550  146.2970 C   0  0  0  0  0  2  0  0  0  0  0  0
  185.4060  178.0770  144.9550 C   0  0  1  0  0  3  0  0  0  0  0  0
  185.3180  180.4820  144.2950 O   0  0  0  0  0  0  0  0  0  0  0  0
  183.4000  179.2310  144.3170 O   0  0  0  0  0  1  0  0  0  0  0  0
  184.6430  179.2860  144.5030 C   0  0  0  0  0  0  0  0  0  0  0  0
  185.4420  177.2360  142.5460 C   0  0  0  0  0  1  0  0  0  0  0  0
  186.2230  177.4050  143.8390 C   0  0  1  0  0  3  0  0  0  0  0  0
  187.4470  178.1490  143.5770 N   0  0  0  0  0  2  0  0  0  0  0  0
  188.5710  177.2460  143.7940 C   0  0  1  0  0  3  0  0  0  0  0  0
  188.1040  175.9340  143.9230 O   0  0  0  0  0  1  0  0  0  0  0  0
  189.5900  177.3580  142.6550 C   0  0  0  0  0  0  0  0  0  0  0  0
  189.8560  176.0020  142.0210 C   0  0  0  0  0  1  0  0  0  0  0  0
  189.1040  178.2290  141.6790 O   0  0  0  0  0  1  0  0  0  0  0  0
  190.8960  177.9130  143.1910 C   0  0  0  0  0  1  0  0  0  0  0  0
  191.3140  172.0920  138.5940 N   0  0  0  0  0  2  0  0  0  0  0  0
  189.3860  173.2050  139.5410 C   0  0  0  0  0  3  0  0  0  0  0  0
  189.9980  173.5650  137.1450 C   0  0  0  0  0  2  0  0  0  0  0  0
  189.9680  172.5730  138.3100 C   0  0  1  0  0  3  0  0  0  0  0  0
  188.6000  174.1550  136.9700 C   0  0  1  0  0  3  0  0  0  0  0  0
  188.1540  174.7370  138.1970 O   0  0  0  0  0  0  0  0  0  0  0  0
  188.5120  174.2110  139.4460 C   0  0  0  0  0  3  0  0  0  0  0  0
  188.5960  175.2090  135.8760 C   0  0  0  0  0  2  0  0  0  0  0  0
  187.6550  177.5200  135.9290 O   0  0  0  0  0  0  0  0  0  0  0  0
  187.4530  176.1510  136.0510 C   0  0  0  0  0  0  0  0  0  0  0  0
  186.2990  175.7040  136.2740 O   0  0  0  0  0  1  0  0  0  0  0  0
  1 14  1  0  0  0  0
  2  4  2  0  0  0  0
  2  8  1  0  0  0  0
  3 12  1  0  0  0  0
  3 16  1  0  0  0  0
  4  7  1  0  0  0  0
  5  6  1  0  0  0  0
  6  3  2  0  0  0  0
  7  5  2  0  0  0  0
  8 13  2  0  0  0  0
  9 10  1  0  0  0  0
  9 12  2  0  0  0  0
 11  1  2  0  0  0  0
 13 15  1  0  0  0  0
 13  6  1  0  0  0  0
 14 10  2  0  0  0  0
 15 11  1  1  0  0  0
 15  9  1  0  0  0  0
 16 21  1  0  0  0  0
 17 16  2  0  0  0  0
 17 18  1  0  0  0  0
 18 19  2  0  0  0  0
 19 20  1  0  0  0  0
 20 22  1  0  0  0  0
 21 20  2  0  0  0  0
 23 22  1  0  0  0  0
 24 23  1  0  0  0  0
 25 26  1  0  0  0  0
 25 24  1  0  0  0  0
 27 26  1  0  0  0  0
 28 27  1  1  0  0  0
 29 31  2  0  0  0  0
 30 31  1  0  0  0  0
 31 28  1  0  0  0  0
 33 32  1  6  0  0  0
 33 28  1  0  0  0  0
 34 35  1  0  0  0  0
 34 33  1  0  0  0  0
 35 36  1  6  0  0  0
 37 40  1  0  0  0  0
 37 35  1  0  0  0  0
 38 37  1  0  0  0  0
 39 37  1  0  0  0  0
 41  4  1  0  0  0  0
 43 44  1  0  0  0  0
 44 41  1  1  0  0  0
 44 42  1  0  0  0  0
 45 48  1  6  0  0  0
 45 43  1  0  0  0  0
 45 46  1  0  0  0  0
 46 47  1  0  0  0  0
 47 42  2  0  0  0  0
 48 50  1  0  0  0  0
 49 50  2  0  0  0  0
 50 51  1  0  0  0  0
M  END
>  <MODEL>
4

>  <REMARK>
 VINA RESULT:      -6.6      2.742      6.754
  Name = 
  17 active torsions:
  status: ('A' for Active; 'I' for Inactive)
    1  A    between atoms: C_4  and  C_5
    2  A    between atoms: C_8  and  C_24
    3  A    between atoms: C_8  and  N_51
    4  A    between atoms: C_10  and  N_33
    5  A    between atoms: C_18  and  C_19
    6  A    between atoms: C_18  and  C_48
    7  A    between atoms: C_19  and  O_45
    8  A    between atoms: C_21  and  N_33
    9  A    between atoms: C_22  and  C_48
   10  A    between atoms: C_22  and  N_51
   11  A    between atoms: C_26  and  C_31
   12  A    between atoms: C_27  and  N_50
   13  A    between atoms: C_29  and  C_31
   14  A    between atoms: C_39  and  C_44
   15  A    between atoms: C_39  and  N_50
   16  A    between atoms: C_44  and  O_45
   17  A    between atoms: C_48  and  C_49
                            x       y       z     vdW  Elec       q    Type
                         _______ _______ _______ _____ _____    ______ ____

>  <TORSDO>
F 17

$$$$
=
 OpenBabel11042413533D

 51 55  0  0  1  0  0  0  0  0999 V2000
  191.7270  168.8000  136.2210 N   0  0  0  0  0  0  0  0  0  0  0  0
  188.6430  172.4110  139.4110 C   0  0  0  0  0  3  0  0  0  0  0  0
  193.1070  172.3620  139.5610 C   0  0  0  0  0  0  0  0  0  0  0  0
  188.8190  172.7040  140.7130 C   0  0  2  0  0  3  0  0  0  0  0  0
  191.1760  171.9740  141.0800 C   0  0  0  0  0  3  0  0  0  0  0  0
  191.5920  172.3500  139.6940 C   0  0  0  0  0  0  0  0  0  0  0  0
  189.9350  172.1710  141.5230 C   0  0  0  0  0  3  0  0  0  0  0  0
  189.5320  171.6020  138.5520 C   0  0  0  0  0  3  0  0  0  0  0  0
  193.0170  170.5520  137.8890 C   0  0  0  0  0  0  0  0  0  0  0  0
  193.7320  169.6590  137.0930 C   0  0  0  0  0  3  0  0  0  0  0  0
  190.9840  169.6530  136.9730 C   0  0  0  0  0  3  0  0  0  0  0  0
  193.7350  171.5050  138.7410 C   0  0  0  0  0  3  0  0  0  0  0  0
  190.8610  171.5000  138.6810 C   0  0  0  0  0  0  0  0  0  0  0  0
  193.0600  168.8020  136.2800 N   0  0  0  0  0  0  0  0  0  0  0  0
  191.6210  170.5580  137.8300 C   0  0  0  0  0  0  0  0  0  0  0  0
  193.9090  173.3530  140.3280 C   0  0  0  0  0  0  0  0  0  0  0  0
  193.8780  174.7130  139.9840 C   0  0  0  0  0  3  0  0  0  0  0  0
  194.6330  175.6480  140.6980 C   0  0  0  0  0  3  0  0  0  0  0  0
  195.4340  175.2330  141.7630 C   0  0  0  0  0  3  0  0  0  0  0  0
  195.4850  173.8830  142.1190 C   0  0  0  0  0  0  0  0  0  0  0  0
  194.7240  172.9490  141.4010 C   0  0  0  0  0  3  0  0  0  0  0  0
  196.3190  173.4790  143.2070 N   0  0  0  0  0  2  0  0  0  0  0  0
  195.7960  172.8500  144.4110 C   0  0  0  0  0  2  0  0  0  0  0  0
  195.3900  173.9150  145.4120 C   0  0  0  0  0  2  0  0  0  0  0  0
  194.0510  173.7490  145.7650 O   0  0  0  0  0  0  0  0  0  0  0  0
  193.6810  172.5410  145.1780 C   0  0  0  0  0  2  0  0  0  0  0  0
  192.5180  172.7720  144.2250 C   0  0  0  0  0  2  0  0  0  0  0  0
  191.7480  174.0660  144.5180 C   0  0  1  0  0  3  0  0  0  0  0  0
  192.9530  176.1270  143.7920 O   0  0  0  0  0  1  0  0  0  0  0  0
  191.3270  175.2230  142.4560 O   0  0  0  0  0  0  0  0  0  0  0  0
  191.9900  175.1630  143.5250 C   0  0  0  0  0  0  0  0  0  0  0  0
  189.8490  172.4370  145.0220 C   0  0  0  0  0  1  0  0  0  0  0  0
  190.2690  173.8930  144.9030 C   0  0  1  0  0  3  0  0  0  0  0  0
  189.9750  174.5910  146.1470 N   0  0  0  0  0  2  0  0  0  0  0  0
  189.1790  175.7680  145.8200 C   0  0  1  0  0  3  0  0  0  0  0  0
  187.9520  175.7080  146.4890 O   0  0  0  0  0  1  0  0  0  0  0  0
  189.9360  177.0540  146.1700 C   0  0  0  0  0  0  0  0  0  0  0  0
  189.1960  177.8540  147.2300 C   0  0  0  0  0  1  0  0  0  0  0  0
  191.2070  176.7310  146.6470 O   0  0  0  0  0  1  0  0  0  0  0  0
  190.0900  177.9100  144.9280 C   0  0  0  0  0  1  0  0  0  0  0  0
  187.8230  173.4650  141.4060 N   0  0  0  0  0  2  0  0  0  0  0  0
  187.6960  175.6780  140.4350 C   0  0  0  0  0  3  0  0  0  0  0  0
  186.9460  175.2890  142.7860 C   0  0  0  0  0  2  0  0  0  0  0  0
  187.9360  174.8910  141.6900 C   0  0  1  0  0  3  0  0  0  0  0  0
  186.9900  176.8060  142.9570 C   0  0  1  0  0  3  0  0  0  0  0  0
  186.7370  177.4500  141.7060 O   0  0  0  0  0  0  0  0  0  0  0  0
  187.1480  176.8950  140.4850 C   0  0  0  0  0  3  0  0  0  0  0  0
  185.9630  177.2620  143.9790 C   0  0  0  0  0  2  0  0  0  0  0  0
  185.7670  179.7240  143.6250 O   0  0  0  0  0  1  0  0  0  0  0  0
  185.2180  178.4560  143.4880 C   0  0  0  0  0  0  0  0  0  0  0  0
  184.1060  178.3120  142.9170 O   0  0  0  0  0  0  0  0  0  0  0  0
  1 14  2  0  0  0  0
  1 11  1  0  0  0  0
  2  4  1  0  0  0  0
  3  6  1  0  0  0  0
  3 16  1  0  0  0  0
  4 41  1  1  0  0  0
  4  7  1  0  0  0  0
  5  7  2  0  0  0  0
  6  5  1  0  0  0  0
  8 13  1  0  0  0  0
  8  2  2  0  0  0  0
  9 12  1  0  0  0  0
 10  9  2  0  0  0  0
 11 15  2  0  0  0  0
 12  3  2  0  0  0  0
 13  6  2  0  0  0  0
 14 10  1  0  0  0  0
 15  9  1  0  0  0  0
 15 13  1  0  0  0  0
 16 21  1  0  0  0  0
 17 16  2  0  0  0  0
 17 18  1  0  0  0  0
 18 19  2  0  0  0  0
 19 20  1  0  0  0  0
 20 22  1  0  0  0  0
 21 20  2  0  0  0  0
 22 23  1  0  0  0  0
 23 24  1  0  0  0  0
 24 25  1  0  0  0  0
 26 25  1  0  0  0  0
 27 26  1  0  0  0  0
 28 27  1  6  0  0  0
 28 33  1  0  0  0  0
 30 31  2  0  0  0  0
 31 29  1  0  0  0  0
 31 28  1  0  0  0  0
 33 32  1  1  0  0  0
 33 34  1  0  0  0  0
 35 34  1  0  0  0  0
 35 37  1  0  0  0  0
 35 36  1  1  0  0  0
 37 39  1  0  0  0  0
 37 38  1  0  0  0  0
 40 37  1  0  0  0  0
 42 47  2  0  0  0  0
 42 44  1  0  0  0  0
 43 45  1  0  0  0  0
 44 41  1  6  0  0  0
 44 43  1  0  0  0  0
 45 48  1  1  0  0  0
 46 45  1  0  0  0  0
 47 46  1  0  0  0  0
 50 49  1  0  0  0  0
 50 48  1  0  0  0  0
 51 50  2  0  0  0  0
M  END
>  <MODEL>
5

>  <REMARK>
 VINA RESULT:      -6.4      2.579      8.293
  Name = 
  17 active torsions:
  status: ('A' for Active; 'I' for Inactive)
    1  A    between atoms: C_4  and  C_5
    2  A    between atoms: C_8  and  C_24
    3  A    between atoms: C_8  and  N_51
    4  A    between atoms: C_10  and  N_33
    5  A    between atoms: C_18  and  C_19
    6  A    between atoms: C_18  and  C_48
    7  A    between atoms: C_19  and  O_45
    8  A    between atoms: C_21  and  N_33
    9  A    between atoms: C_22  and  C_48
   10  A    between atoms: C_22  and  N_51
   11  A    between atoms: C_26  and  C_31
   12  A    between atoms: C_27  and  N_50
   13  A    between atoms: C_29  and  C_31
   14  A    between atoms: C_39  and  C_44
   15  A    between atoms: C_39  and  N_50
   16  A    between atoms: C_44  and  O_45
   17  A    between atoms: C_48  and  C_49
                            x       y       z     vdW  Elec       q    Type
                         _______ _______ _______ _____ _____    ______ ____

>  <TORSDO>
F 17

$$$$
=
 OpenBabel11042413533D

 51 55  0  0  1  0  0  0  0  0999 V2000
  194.5400  177.3830  146.5080 N   0  0  0  0  0  0  0  0  0  0  0  0
  196.1320  176.4080  141.1010 C   0  0  0  0  0  3  0  0  0  0  0  0
  193.2190  173.7600  143.2120 C   0  0  0  0  0  0  0  0  0  0  0  0
  196.4750  175.2270  140.5510 C   0  0  0  0  0  0  0  0  0  0  0  0
  195.4700  173.6100  142.1620 C   0  0  0  0  0  3  0  0  0  0  0  0
  194.3120  174.5070  142.4630 C   0  0  2  0  0  3  0  0  0  0  0  0
  196.4090  173.9420  141.2780 C   0  0  0  0  0  3  0  0  0  0  0  0
  195.5720  176.6330  142.4490 C   0  0  0  0  0  3  0  0  0  0  0  0
  193.4900  175.2340  145.1690 C   0  0  0  0  0  0  0  0  0  0  0  0
  193.1250  175.5090  146.4850 C   0  0  0  0  0  3  0  0  0  0  0  0
  194.9250  177.1630  145.2250 C   0  0  0  0  0  3  0  0  0  0  0  0
  192.8810  174.1010  144.4640 C   0  0  0  0  0  3  0  0  0  0  0  0
  194.7950  175.7770  143.1250 C   0  0  0  0  0  0  0  0  0  0  0  0
  193.6670  176.5810  147.1200 N   0  0  0  0  0  0  0  0  0  0  0  0
  194.4000  176.0730  144.5200 C   0  0  0  0  0  0  0  0  0  0  0  0
  192.4910  172.6480  142.5400 C   0  0  0  0  0  0  0  0  0  0  0  0
  192.4150  171.3820  143.1420 C   0  0  0  0  0  3  0  0  0  0  0  0
  191.7380  170.3330  142.5140 C   0  0  0  0  0  3  0  0  0  0  0  0
  191.1330  170.5360  141.2720 C   0  0  0  0  0  3  0  0  0  0  0  0
  191.2030  171.7860  140.6520 C   0  0  0  0  0  0  0  0  0  0  0  0
  191.8810  172.8360  141.2870 C   0  0  0  0  0  3  0  0  0  0  0  0
  190.5840  171.9680  139.3760 N   0  0  0  0  0  2  0  0  0  0  0  0
  189.1430  172.0840  139.2070 C   0  0  0  0  0  2  0  0  0  0  0  0
  188.6400  173.3240  139.9200 C   0  0  0  0  0  2  0  0  0  0  0  0
  187.8800  172.9580  141.0310 O   0  0  0  0  0  0  0  0  0  0  0  0
  188.4030  173.7130  142.0790 C   0  0  0  0  0  2  0  0  0  0  0  0
  188.9330  175.0330  141.5400 C   0  0  0  0  0  2  0  0  0  0  0  0
  188.8560  176.1750  142.5620 C   0  0  1  0  0  3  0  0  0  0  0  0
  191.3230  176.5550  142.5820 O   0  0  0  0  0  0  0  0  0  0  0  0
  190.1550  176.5210  144.5510 O   0  0  0  0  0  1  0  0  0  0  0  0
  190.1390  176.4280  143.2960 C   0  0  0  0  0  0  0  0  0  0  0  0
  187.1350  177.2020  140.9820 C   0  0  0  0  0  1  0  0  0  0  0  0
  188.1500  177.4550  142.0850 C   0  0  1  0  0  3  0  0  0  0  0  0
  187.5040  178.1330  143.1990 N   0  0  0  0  0  2  0  0  0  0  0  0
  186.3270  177.3550  143.5700 C   0  0  1  0  0  3  0  0  0  0  0  0
  186.6040  176.5950  144.7110 O   0  0  0  0  0  1  0  0  0  0  0  0
  185.1180  178.2690  143.7980 C   0  0  0  0  0  0  0  0  0  0  0  0
  184.1110  178.1400  142.6660 C   0  0  0  0  0  1  0  0  0  0  0  0
  184.4970  177.9290  145.0000 O   0  0  0  0  0  1  0  0  0  0  0  0
  185.5770  179.7120  143.8830 C   0  0  0  0  0  1  0  0  0  0  0  0
  197.0530  175.2010  139.2410 N   0  0  0  0  0  2  0  0  0  0  0  0
  196.6570  173.5110  137.5550 C   0  0  0  0  0  3  0  0  0  0  0  0
  194.8060  175.0250  138.2810 C   0  0  0  0  0  2  0  0  0  0  0  0
  196.3090  174.8940  138.0260 C   0  0  1  0  0  3  0  0  0  0  0  0
  194.0560  174.5580  137.0350 C   0  0  1  0  0  3  0  0  0  0  0  0
  194.4560  173.2310  136.6880 O   0  0  0  0  0  0  0  0  0  0  0  0
  195.7610  172.7640  136.9050 C   0  0  0  0  0  3  0  0  0  0  0  0
  192.5560  174.5920  137.2680 C   0  0  0  0  0  2  0  0  0  0  0  0
  190.8720  173.1740  136.0930 O   0  0  0  0  0  1  0  0  0  0  0  0
  191.8180  174.1890  136.0370 C   0  0  0  0  0  0  0  0  0  0  0  0
  192.0280  174.7920  134.9530 O   0  0  0  0  0  0  0  0  0  0  0  0
  1 14  1  0  0  0  0
  2  8  1  0  0  0  0
  3 12  2  0  0  0  0
  4  2  2  0  0  0  0
  4  7  1  0  0  0  0
  6  5  1  1  0  0  0
  6 13  1  0  0  0  0
  6  3  1  0  0  0  0
  7  5  2  0  0  0  0
  8 13  2  0  0  0  0
  9 10  1  0  0  0  0
 10 14  2  0  0  0  0
 11  1  2  0  0  0  0
 12  9  1  0  0  0  0
 13 15  1  0  0  0  0
 15  9  2  0  0  0  0
 15 11  1  0  0  0  0
 16 17  1  0  0  0  0
 16  3  1  0  0  0  0
 18 17  2  0  0  0  0
 19 18  1  0  0  0  0
 20 19  2  0  0  0  0
 20 21  1  0  0  0  0
 21 16  2  0  0  0  0
 22 20  1  0  0  0  0
 23 22  1  0  0  0  0
 23 24  1  0  0  0  0
 24 25  1  0  0  0  0
 25 26  1  0  0  0  0
 27 26  1  0  0  0  0
 28 27  1  6  0  0  0
 28 31  1  0  0  0  0
 29 31  2  0  0  0  0
 31 30  1  0  0  0  0
 33 32  1  6  0  0  0
 33 28  1  0  0  0  0
 33 34  1  0  0  0  0
 34 35  1  0  0  0  0
 35 37  1  0  0  0  0
 35 36  1  1  0  0  0
 37 40  1  0  0  0  0
 37 39  1  0  0  0  0
 38 37  1  0  0  0  0
 41  4  1  0  0  0  0
 42 44  1  0  0  0  0
 44 43  1  0  0  0  0
 44 41  1  1  0  0  0
 45 48  1  1  0  0  0
 45 43  1  0  0  0  0
 46 47  1  0  0  0  0
 46 45  1  0  0  0  0
 47 42  2  0  0  0  0
 50 49  1  0  0  0  0
 50 48  1  0  0  0  0
 51 50  2  0  0  0  0
M  END
>  <MODEL>
6

>  <REMARK>
 VINA RESULT:      -6.4      2.423      3.561
  Name = 
  17 active torsions:
  status: ('A' for Active; 'I' for Inactive)
    1  A    between atoms: C_4  and  C_5
    2  A    between atoms: C_8  and  C_24
    3  A    between atoms: C_8  and  N_51
    4  A    between atoms: C_10  and  N_33
    5  A    between atoms: C_18  and  C_19
    6  A    between atoms: C_18  and  C_48
    7  A    between atoms: C_19  and  O_45
    8  A    between atoms: C_21  and  N_33
    9  A    between atoms: C_22  and  C_48
   10  A    between atoms: C_22  and  N_51
   11  A    between atoms: C_26  and  C_31
   12  A    between atoms: C_27  and  N_50
   13  A    between atoms: C_29  and  C_31
   14  A    between atoms: C_39  and  C_44
   15  A    between atoms: C_39  and  N_50
   16  A    between atoms: C_44  and  O_45
   17  A    between atoms: C_48  and  C_49
                            x       y       z     vdW  Elec       q    Type
                         _______ _______ _______ _____ _____    ______ ____

>  <TORSDO>
F 17

$$$$
=
 OpenBabel11042413533D

 51 55  0  0  1  0  0  0  0  0999 V2000
  196.0920  174.4060  145.7620 N   0  0  0  0  0  0  0  0  0  0  0  0
  190.9450  176.3780  147.2950 C   0  0  0  0  0  3  0  0  0  0  0  0
  191.6290  174.4050  143.3470 C   0  0  0  0  0  0  0  0  0  0  0  0
  190.0890  177.0950  146.5440 C   0  0  0  0  0  0  0  0  0  0  0  0
  190.9150  176.6150  144.2400 C   0  0  0  0  0  3  0  0  0  0  0  0
  191.3320  175.2230  144.5940 C   0  0  0  0  0  0  0  0  0  0  0  0
  190.3310  177.4240  145.1240 C   0  0  0  0  0  3  0  0  0  0  0  0
  192.2000  175.7380  146.8500 C   0  0  0  0  0  2  0  0  0  0  0  0
  193.9820  174.1360  144.0320 C   0  0  0  0  0  0  0  0  0  0  0  0
  195.2510  173.6650  143.6980 C   0  0  0  0  0  3  0  0  0  0  0  0
  194.8750  174.8780  146.1380 C   0  0  0  0  0  3  0  0  0  0  0  0
  192.8640  173.9410  143.1030 C   0  0  0  0  0  3  0  0  0  0  0  0
  192.4380  175.2560  145.6230 C   0  0  0  0  0  0  0  0  0  0  0  0
  196.2740  173.8190  144.5780 N   0  0  0  0  0  0  0  0  0  0  0  0
  193.7820  174.7490  145.2710 C   0  0  0  0  0  0  0  0  0  0  0  0
  190.5330  174.0910  142.3910 C   0  0  0  0  0  0  0  0  0  0  0  0
  189.1980  174.0640  142.8230 C   0  0  0  0  0  3  0  0  0  0  0  0
  188.1650  173.7630  141.9320 C   0  0  0  0  0  3  0  0  0  0  0  0
  188.4540  173.4800  140.5960 C   0  0  0  0  0  3  0  0  0  0  0  0
  189.7760  173.4950  140.1450 C   0  0  0  0  0  0  0  0  0  0  0  0
  190.8100  173.8000  141.0430 C   0  0  0  0  0  3  0  0  0  0  0  0
  190.0510  173.1940  138.7750 N   0  0  0  0  0  2  0  0  0  0  0  0
  191.3220  173.5010  138.1380 C   0  0  0  0  0  2  0  0  0  0  0  0
  191.4160  172.7840  136.8050 C   0  0  0  0  0  2  0  0  0  0  0  0
  192.1880  171.6290  136.9410 O   0  0  0  0  0  0  0  0  0  0  0  0
  193.4790  172.0960  137.1770 C   0  0  0  0  0  2  0  0  0  0  0  0
  194.2450  171.0760  138.0070 C   0  0  0  0  0  2  0  0  0  0  0  0
  194.6440  171.6030  139.3910 C   0  0  1  0  0  3  0  0  0  0  0  0
  192.4320  170.8460  140.2650 O   0  0  0  0  0  0  0  0  0  0  0  0
  194.2420  170.9440  141.6650 O   0  0  0  0  0  1  0  0  0  0  0  0
  193.7740  171.1120  140.5090 C   0  0  0  0  0  0  0  0  0  0  0  0
  196.8630  170.3780  139.1000 C   0  0  0  0  0  1  0  0  0  0  0  0
  196.1470  171.5700  139.7140 C   0  0  1  0  0  3  0  0  0  0  0  0
  196.7930  172.8030  139.2880 N   0  0  0  0  0  2  0  0  0  0  0  0
  196.7430  173.7400  140.4030 C   0  0  1  0  0  3  0  0  0  0  0  0
  197.9210  173.6480  141.1510 O   0  0  0  0  0  1  0  0  0  0  0  0
  196.5190  175.1720  139.9040 C   0  0  0  0  0  0  0  0  0  0  0  0
  196.1560  176.1030  141.0500 C   0  0  0  0  0  1  0  0  0  0  0  0
  197.6810  175.6380  139.2890 O   0  0  0  0  0  1  0  0  0  0  0  0
  195.3950  175.1870  138.8850 C   0  0  0  0  0  1  0  0  0  0  0  0
  188.9380  177.6890  147.1580 N   0  0  0  0  0  2  0  0  0  0  0  0
  186.6130  178.2750  147.4830 C   0  0  0  0  0  3  0  0  0  0  0  0
  187.3450  177.1410  145.3800 C   0  0  0  0  0  2  0  0  0  0  0  0
  187.5660  177.2790  146.8880 C   0  0  1  0  0  3  0  0  0  0  0  0
  185.8660  176.8520  145.1270 C   0  0  1  0  0  3  0  0  0  0  0  0
  185.0580  177.8670  145.7270 O   0  0  0  0  0  0  0  0  0  0  0  0
  185.4260  178.5080  146.9180 C   0  0  0  0  0  3  0  0  0  0  0  0
  185.5790  176.7880  143.6370 C   0  0  0  0  0  2  0  0  0  0  0  0
  183.7560  178.3040  142.8620 O   0  0  0  0  0  0  0  0  0  0  0  0
  185.1040  178.1070  143.1310 C   0  0  0  0  0  0  0  0  0  0  0  0
  185.9190  179.0530  142.9800 O   0  0  0  0  0  1  0  0  0  0  0  0
  1 11  1  0  0  0  0
  3  6  1  0  0  0  0
  4 41  1  0  0  0  0
  4  2  2  0  0  0  0
  5  6  1  0  0  0  0
  5  7  2  0  0  0  0
  6 13  2  0  0  0  0
  7  4  1  0  0  0  0
  8  2  1  0  0  0  0
  9 15  1  0  0  0  0
 10  9  2  0  0  0  0
 10 14  1  0  0  0  0
 12  3  2  0  0  0  0
 12  9  1  0  0  0  0
 13  8  1  0  0  0  0
 14  1  2  0  0  0  0
 15 13  1  0  0  0  0
 15 11  2  0  0  0  0
 16 17  1  0  0  0  0
 16  3  1  0  0  0  0
 18 17  2  0  0  0  0
 19 18  1  0  0  0  0
 20 19  2  0  0  0  0
 20 21  1  0  0  0  0
 21 16  2  0  0  0  0
 22 20  1  0  0  0  0
 23 22  1  0  0  0  0
 24 25  1  0  0  0  0
 24 23  1  0  0  0  0
 25 26  1  0  0  0  0
 26 27  1  0  0  0  0
 28 27  1  6  0  0  0
 28 33  1  0  0  0  0
 28 31  1  0  0  0  0
 29 31  2  0  0  0  0
 31 30  1  0  0  0  0
 33 32  1  6  0  0  0
 34 33  1  0  0  0  0
 34 35  1  0  0  0  0
 35 36  1  6  0  0  0
 37 35  1  0  0  0  0
 37 38  1  0  0  0  0
 39 37  1  0  0  0  0
 40 37  1  0  0  0  0
 43 44  1  0  0  0  0
 44 41  1  6  0  0  0
 44 42  1  0  0  0  0
 45 48  1  6  0  0  0
 45 43  1  0  0  0  0
 45 46  1  0  0  0  0
 46 47  1  0  0  0  0
 47 42  2  0  0  0  0
 49 50  2  0  0  0  0
 50 48  1  0  0  0  0
 51 50  1  0  0  0  0
M  END
>  <MODEL>
7

>  <REMARK>
 VINA RESULT:      -6.3      2.384      8.866
  Name = 
  17 active torsions:
  status: ('A' for Active; 'I' for Inactive)
    1  A    between atoms: C_4  and  C_5
    2  A    between atoms: C_8  and  C_24
    3  A    between atoms: C_8  and  N_51
    4  A    between atoms: C_10  and  N_33
    5  A    between atoms: C_18  and  C_19
    6  A    between atoms: C_18  and  C_48
    7  A    between atoms: C_19  and  O_45
    8  A    between atoms: C_21  and  N_33
    9  A    between atoms: C_22  and  C_48
   10  A    between atoms: C_22  and  N_51
   11  A    between atoms: C_26  and  C_31
   12  A    between atoms: C_27  and  N_50
   13  A    between atoms: C_29  and  C_31
   14  A    between atoms: C_39  and  C_44
   15  A    between atoms: C_39  and  N_50
   16  A    between atoms: C_44  and  O_45
   17  A    between atoms: C_48  and  C_49
                            x       y       z     vdW  Elec       q    Type
                         _______ _______ _______ _____ _____    ______ ____

>  <TORSDO>
F 17

$$$$
=
 OpenBabel11042413533D

 51 55  0  0  1  0  0  0  0  0999 V2000
  185.3270  178.7700  147.5740 N   0  0  0  0  0  0  0  0  0  0  0  0
  190.7810  177.0650  147.2860 C   0  0  0  0  0  3  0  0  0  0  0  0
  187.8220  176.0400  144.1000 C   0  0  0  0  0  0  0  0  0  0  0  0
  191.2380  175.8430  146.9510 C   0  0  0  0  0  0  0  0  0  0  0  0
  189.2710  174.8800  145.7570 C   0  0  0  0  0  3  0  0  0  0  0  0
  188.8590  176.2050  145.2010 C   0  0  0  0  0  0  0  0  0  0  0  0
  190.3590  174.7380  146.5130 C   0  0  0  0  0  3  0  0  0  0  0  0
  189.3860  177.5470  147.2080 C   0  0  0  0  0  2  0  0  0  0  0  0
  186.1560  177.2830  145.4250 C   0  0  0  0  0  0  0  0  0  0  0  0
  184.8370  177.7220  145.5300 C   0  0  0  0  0  3  0  0  0  0  0  0
  186.6250  178.3720  147.5170 C   0  0  0  0  0  3  0  0  0  0  0  0
  186.5790  176.5240  144.2440 C   0  0  0  0  0  3  0  0  0  0  0  0
  188.4690  177.1420  146.3200 C   0  0  0  0  0  0  0  0  0  0  0  0
  184.4600  178.4540  146.6110 N   0  0  0  0  0  0  0  0  0  0  0  0
  187.0710  177.6140  146.4270 C   0  0  0  0  0  0  0  0  0  0  0  0
  188.1930  175.3530  142.8330 C   0  0  0  0  0  0  0  0  0  0  0  0
  187.8230  175.8990  141.5930 C   0  0  0  0  0  3  0  0  0  0  0  0
  188.1630  175.2560  140.4000 C   0  0  0  0  0  3  0  0  0  0  0  0
  188.8740  174.0550  140.4320 C   0  0  0  0  0  3  0  0  0  0  0  0
  189.2470  173.4910  141.6540 C   0  0  0  0  0  0  0  0  0  0  0  0
  188.9050  174.1410  142.8490 C   0  0  0  0  0  3  0  0  0  0  0  0
  189.9670  172.2560  141.6630 N   0  0  0  0  0  2  0  0  0  0  0  0
  190.2750  171.5130  140.4500 C   0  0  0  0  0  2  0  0  0  0  0  0
  191.7080  171.0190  140.5000 C   0  0  0  0  0  2  0  0  0  0  0  0
  192.3650  171.3480  139.3140 O   0  0  0  0  0  0  0  0  0  0  0  0
  193.7200  171.2930  139.6360 C   0  0  0  0  0  2  0  0  0  0  0  0
  194.0570  172.4080  140.6140 C   0  0  0  0  0  2  0  0  0  0  0  0
  195.3330  172.1350  141.4210 C   0  0  1  0  0  3  0  0  0  0  0  0
  196.5970  174.2700  141.1540 O   0  0  0  0  0  1  0  0  0  0  0  0
  197.4790  172.3120  140.3600 O   0  0  0  0  0  0  0  0  0  0  0  0
  196.5330  172.8990  140.9480 C   0  0  0  0  0  0  0  0  0  0  0  0
  193.7390  172.3770  143.3990 C   0  0  0  0  0  1  0  0  0  0  0  0
  195.1690  172.1220  142.9500 C   0  0  1  0  0  3  0  0  0  0  0  0
  195.6400  170.8630  143.5080 N   0  0  0  0  0  2  0  0  0  0  0  0
  194.4910  169.9740  143.6330 C   0  0  1  0  0  3  0  0  0  0  0  0
  194.4490  169.1020  142.5410 O   0  0  0  0  0  1  0  0  0  0  0  0
  194.5400  169.2000  144.9550 C   0  0  0  0  0  0  0  0  0  0  0  0
  193.3290  168.2930  145.1050 C   0  0  0  0  0  1  0  0  0  0  0  0
  195.6990  168.4230  144.9960 O   0  0  0  0  0  1  0  0  0  0  0  0
  194.5710  170.1740  146.1170 C   0  0  0  0  0  1  0  0  0  0  0  0
  192.6230  175.5330  147.1400 N   0  0  0  0  0  2  0  0  0  0  0  0
  194.9320  175.1810  146.5070 C   0  0  0  0  0  3  0  0  0  0  0  0
  193.2460  175.8620  144.7940 C   0  0  0  0  0  2  0  0  0  0  0  0
  193.6890  175.9830  146.2530 C   0  0  1  0  0  3  0  0  0  0  0  0
  194.4310  176.2040  143.8930 C   0  0  1  0  0  3  0  0  0  0  0  0
  195.5490  175.3740  144.2150 O   0  0  0  0  0  0  0  0  0  0  0  0
  195.8000  174.9340  145.5230 C   0  0  0  0  0  3  0  0  0  0  0  0
  194.0650  176.0190  142.4310 C   0  0  0  0  0  2  0  0  0  0  0  0
  191.8250  177.0600  142.7850 O   0  0  0  0  0  1  0  0  0  0  0  0
  192.5850  176.0290  142.2490 C   0  0  0  0  0  0  0  0  0  0  0  0
  192.0290  175.1220  141.5780 O   0  0  0  0  0  0  0  0  0  0  0  0
  3 12  2  0  0  0  0
  3  6  1  0  0  0  0
  4 41  1  0  0  0  0
  4  2  2  0  0  0  0
  5  7  2  0  0  0  0
  6  5  1  0  0  0  0
  6 13  2  0  0  0  0
  7  4  1  0  0  0  0
  8  2  1  0  0  0  0
  9 10  2  0  0  0  0
  9 15  1  0  0  0  0
 10 14  1  0  0  0  0
 11  1  1  0  0  0  0
 12  9  1  0  0  0  0
 13 15  1  0  0  0  0
 13  8  1  0  0  0  0
 14  1  2  0  0  0  0
 15 11  2  0  0  0  0
 16 21  1  0  0  0  0
 16  3  1  0  0  0  0
 17 16  2  0  0  0  0
 18 19  2  0  0  0  0
 18 17  1  0  0  0  0
 19 20  1  0  0  0  0
 20 22  1  0  0  0  0
 20 21  2  0  0  0  0
 23 24  1  0  0  0  0
 23 22  1  0  0  0  0
 25 26  1  0  0  0  0
 25 24  1  0  0  0  0
 26 27  1  0  0  0  0
 28 27  1  6  0  0  0
 28 33  1  0  0  0  0
 30 31  2  0  0  0  0
 31 29  1  0  0  0  0
 31 28  1  0  0  0  0
 33 32  1  6  0  0  0
 33 34  1  0  0  0  0
 34 35  1  0  0  0  0
 35 36  1  6  0  0  0
 35 37  1  0  0  0  0
 37 39  1  0  0  0  0
 37 38  1  0  0  0  0
 37 40  1  0  0  0  0
 43 44  1  0  0  0  0
 44 42  1  0  0  0  0
 44 41  1  1  0  0  0
 45 48  1  6  0  0  0
 45 46  1  0  0  0  0
 45 43  1  0  0  0  0
 46 47  1  0  0  0  0
 47 42  2  0  0  0  0
 50 48  1  0  0  0  0
 50 49  1  0  0  0  0
 51 50  2  0  0  0  0
M  END
>  <MODEL>
8

>  <REMARK>
 VINA RESULT:      -6.3      2.560      7.155
  Name = 
  17 active torsions:
  status: ('A' for Active; 'I' for Inactive)
    1  A    between atoms: C_4  and  C_5
    2  A    between atoms: C_8  and  C_24
    3  A    between atoms: C_8  and  N_51
    4  A    between atoms: C_10  and  N_33
    5  A    between atoms: C_18  and  C_19
    6  A    between atoms: C_18  and  C_48
    7  A    between atoms: C_19  and  O_45
    8  A    between atoms: C_21  and  N_33
    9  A    between atoms: C_22  and  C_48
   10  A    between atoms: C_22  and  N_51
   11  A    between atoms: C_26  and  C_31
   12  A    between atoms: C_27  and  N_50
   13  A    between atoms: C_29  and  C_31
   14  A    between atoms: C_39  and  C_44
   15  A    between atoms: C_39  and  N_50
   16  A    between atoms: C_44  and  O_45
   17  A    between atoms: C_48  and  C_49
                            x       y       z     vdW  Elec       q    Type
                         _______ _______ _______ _____ _____    ______ ____

>  <TORSDO>
F 17

$$$$
=
 OpenBabel11042413533D

 51 55  0  0  1  0  0  0  0  0999 V2000
  190.6780  178.6160  149.2750 N   0  0  0  0  0  0  0  0  0  0  0  0
  186.5790  177.1690  145.5560 C   0  0  0  0  0  3  0  0  0  0  0  0
  190.4460  174.9450  145.7810 C   0  0  0  0  0  0  0  0  0  0  0  0
  186.7290  176.8650  144.2530 C   0  0  0  0  0  0  0  0  0  0  0  0
  189.1570  176.3040  144.1430 C   0  0  0  0  0  3  0  0  0  0  0  0
  189.1680  175.7300  145.5240 C   0  0  2  0  0  3  0  0  0  0  0  0
  188.0440  176.7780  143.5840 C   0  0  0  0  0  3  0  0  0  0  0  0
  187.6500  177.3890  146.5490 C   0  0  0  0  0  3  0  0  0  0  0  0
  191.0900  176.5000  147.5810 C   0  0  0  0  0  0  0  0  0  0  0  0
  192.0620  176.8820  148.5040 C   0  0  0  0  0  3  0  0  0  0  0  0
  189.6970  178.2820  148.3970 C   0  0  0  0  0  3  0  0  0  0  0  0
  191.3220  175.3390  146.7160 C   0  0  0  0  0  3  0  0  0  0  0  0
  188.8550  176.8040  146.5390 C   0  0  0  0  0  0  0  0  0  0  0  0
  191.8260  177.9380  149.3260 N   0  0  0  0  0  0  0  0  0  0  0  0
  189.8840  177.2030  147.5240 C   0  0  0  0  0  0  0  0  0  0  0  0
  190.7200  173.7050  145.0030 C   0  0  0  0  0  0  0  0  0  0  0  0
  189.6740  173.0150  144.3720 C   0  0  0  0  0  3  0  0  0  0  0  0
  189.9250  171.8480  143.6460 C   0  0  0  0  0  3  0  0  0  0  0  0
  191.2270  171.3530  143.5450 C   0  0  0  0  0  3  0  0  0  0  0  0
  192.2830  172.0210  144.1710 C   0  0  0  0  0  0  0  0  0  0  0  0
  192.0260  173.1930  144.8970 C   0  0  0  0  0  3  0  0  0  0  0  0
  193.6060  171.4920  144.0620 N   0  0  0  0  0  2  0  0  0  0  0  0
  194.3360  170.9500  145.1980 C   0  0  0  0  0  2  0  0  0  0  0  0
  195.6920  171.6210  145.3050 C   0  0  0  0  0  2  0  0  0  0  0  0
  195.6460  172.8820  144.7100 O   0  0  0  0  0  0  0  0  0  0  0  0
  196.1260  173.7500  145.6890 C   0  0  0  0  0  2  0  0  0  0  0  0
  196.3340  175.1320  145.0880 C   0  0  0  0  0  2  0  0  0  0  0  0
  195.2240  175.5360  144.1090 C   0  0  1  0  0  3  0  0  0  0  0  0
  194.5070  177.1740  145.8490 O   0  0  0  0  0  1  0  0  0  0  0  0
  193.0890  176.6330  144.1340 O   0  0  0  0  0  0  0  0  0  0  0  0
  194.2090  176.4750  144.6860 C   0  0  0  0  0  0  0  0  0  0  0  0
  197.1450  176.3330  142.6310 C   0  0  0  0  0  1  0  0  0  0  0  0
  195.6850  175.9140  142.6910 C   0  0  1  0  0  3  0  0  0  0  0  0
  195.4520  174.8170  141.7630 N   0  0  0  0  0  2  0  0  0  0  0  0
  194.5090  175.2820  140.7530 C   0  0  1  0  0  3  0  0  0  0  0  0
  195.1740  175.4670  139.5360 O   0  0  0  0  0  1  0  0  0  0  0  0
  193.3430  174.2990  140.6000 C   0  0  0  0  0  0  0  0  0  0  0  0
  192.2190  174.6250  141.5700 C   0  0  0  0  0  1  0  0  0  0  0  0
  192.8510  174.3600  139.2950 O   0  0  0  0  0  1  0  0  0  0  0  0
  193.8280  172.8870  140.8670 C   0  0  0  0  0  1  0  0  0  0  0  0
  185.5700  176.7360  143.4210 N   0  0  0  0  0  2  0  0  0  0  0  0
  185.8920  177.9100  141.3290 C   0  0  0  0  0  3  0  0  0  0  0  0
  183.5890  177.5340  142.2210 C   0  0  0  0  0  2  0  0  0  0  0  0
  185.0540  177.8020  142.5700 C   0  0  1  0  0  3  0  0  0  0  0  0
  183.1250  178.5870  141.2170 C   0  0  1  0  0  3  0  0  0  0  0  0
  183.9860  178.5920  140.0760 O   0  0  0  0  0  0  0  0  0  0  0  0
  185.3560  178.3110  140.1740 C   0  0  0  0  0  3  0  0  0  0  0  0
  181.6980  178.3160  140.7750 C   0  0  0  0  0  2  0  0  0  0  0  0
  179.4710  178.1090  141.8830 O   0  0  0  0  0  0  0  0  0  0  0  0
  180.7300  178.6950  141.8440 C   0  0  0  0  0  0  0  0  0  0  0  0
  181.0660  179.5200  142.7320 O   0  0  0  0  0  1  0  0  0  0  0  0
  1 14  1  0  0  0  0
  2  8  1  0  0  0  0
  3 12  2  0  0  0  0
  4  2  2  0  0  0  0
  6  5  1  6  0  0  0
  6  3  1  0  0  0  0
  6 13  1  0  0  0  0
  7  5  2  0  0  0  0
  7  4  1  0  0  0  0
  9 10  1  0  0  0  0
 10 14  2  0  0  0  0
 11  1  2  0  0  0  0
 12  9  1  0  0  0  0
 13  8  2  0  0  0  0
 13 15  1  0  0  0  0
 15  9  2  0  0  0  0
 15 11  1  0  0  0  0
 16  3  1  0  0  0  0
 17 16  2  0  0  0  0
 18 17  1  0  0  0  0
 19 18  2  0  0  0  0
 19 20  1  0  0  0  0
 20 21  2  0  0  0  0
 21 16  1  0  0  0  0
 22 20  1  0  0  0  0
 22 23  1  0  0  0  0
 23 24  1  0  0  0  0
 25 24  1  0  0  0  0
 25 26  1  0  0  0  0
 27 26  1  0  0  0  0
 28 31  1  0  0  0  0
 28 27  1  1  0  0  0
 30 31  2  0  0  0  0
 31 29  1  0  0  0  0
 33 32  1  1  0  0  0
 33 28  1  0  0  0  0
 34 33  1  0  0  0  0
 35 36  1  6  0  0  0
 35 34  1  0  0  0  0
 37 35  1  0  0  0  0
 37 40  1  0  0  0  0
 37 38  1  0  0  0  0
 39 37  1  0  0  0  0
 41  4  1  0  0  0  0
 42 44  1  0  0  0  0
 43 44  1  0  0  0  0
 44 41  1  1  0  0  0
 45 48  1  6  0  0  0
 45 43  1  0  0  0  0
 46 47  1  0  0  0  0
 46 45  1  0  0  0  0
 47 42  2  0  0  0  0
 48 50  1  0  0  0  0
 50 49  2  0  0  0  0
 50 51  1  0  0  0  0
M  END
>  <MODEL>
9

>  <REMARK>
 VINA RESULT:      -6.3      2.685      9.249
  Name = 
  17 active torsions:
  status: ('A' for Active; 'I' for Inactive)
    1  A    between atoms: C_4  and  C_5
    2  A    between atoms: C_8  and  C_24
    3  A    between atoms: C_8  and  N_51
    4  A    between atoms: C_10  and  N_33
    5  A    between atoms: C_18  and  C_19
    6  A    between atoms: C_18  and  C_48
    7  A    between atoms: C_19  and  O_45
    8  A    between atoms: C_21  and  N_33
    9  A    between atoms: C_22  and  C_48
   10  A    between atoms: C_22  and  N_51
   11  A    between atoms: C_26  and  C_31
   12  A    between atoms: C_27  and  N_50
   13  A    between atoms: C_29  and  C_31
   14  A    between atoms: C_39  and  C_44
   15  A    between atoms: C_39  and  N_50
   16  A    between atoms: C_44  and  O_45
   17  A    between atoms: C_48  and  C_49
                            x       y       z     vdW  Elec       q    Type
                         _______ _______ _______ _____ _____    ______ ____

>  <TORSDO>
F 17

$$$$
