=
 OpenBabel11042415403D

 46 48  0  0  1  0  0  0  0  0999 V2000
  189.1580  176.6900  143.5360 C   0  0  0  0  0  0  0  0  0  0  0  0
  192.7760  175.9350  142.6570 C   0  0  0  0  0  1  0  0  0  0  0  0
  190.5380  176.8440  143.3220 C   0  0  0  0  0  0  0  0  0  0  0  0
  191.1350  178.0860  143.5210 O   0  0  0  0  0  1  0  0  0  0  0  0
  190.7000  174.4990  142.6870 C   0  0  0  0  0  0  0  0  0  0  0  0
  188.5570  175.4460  143.3290 C   0  0  0  0  0  3  0  0  0  0  0  0
  191.3120  175.7510  142.8970 C   0  0  0  0  0  0  0  0  0  0  0  0
  189.3220  174.3590  142.9090 C   0  0  0  0  0  3  0  0  0  0  0  0
  188.3090  177.8630  143.9060 C   0  0  0  0  0  2  0  0  0  0  0  0
  186.4770  178.1000  145.6890 C   0  0  2  0  0  3  0  0  0  0  0  0
  187.9530  177.8500  145.3990 C   0  0  1  0  0  3  0  0  0  0  0  0
  186.2720  177.4830  147.0600 C   0  0  0  0  0  2  0  0  0  0  0  0
  187.2550  176.3280  147.1650 C   0  0  0  0  0  2  0  0  0  0  0  0
  188.3110  176.5440  146.0920 C   0  0  2  0  0  3  0  0  0  0  0  0
  189.6860  176.6590  146.7250 C   0  0  0  0  0  2  0  0  0  0  0  0
  190.1490  175.3000  147.2110 C   0  0  0  0  0  2  0  0  0  0  0  0
  190.8490  174.6590  146.1920 O   0  0  0  0  0  0  0  0  0  0  0  0
  192.1840  174.9970  146.4160 C   0  0  0  0  0  1  0  0  0  0  0  0
  185.5570  177.4040  144.6840 C   0  0  0  0  0  2  0  0  0  0  0  0
  184.4820  179.5030  145.0050 O   0  0  0  0  0  1  0  0  0  0  0  0
  184.3670  178.2850  144.3300 C   0  0  1  0  0  3  0  0  0  0  0  0
  182.9890  178.3190  142.3750 O   0  0  0  0  0  1  0  0  0  0  0  0
  184.2960  178.5230  142.8220 C   0  0  2  0  0  3  0  0  0  0  0  0
  185.2150  177.5610  142.0820 C   0  0  0  0  0  2  0  0  0  0  0  0
  185.4110  178.0120  140.6430 C   0  0  0  0  0  2  0  0  0  0  0  0
  186.6510  177.4030  140.0790 C   0  0  0  0  0  3  0  0  0  0  0  0
  187.7450  177.7100  140.5240 O   0  0  0  0  0  0  0  0  0  0  0  0
  191.5070  173.3270  142.1990 C   0  0  2  0  0  3  0  0  0  0  0  0
  192.7800  172.3800  136.6590 O   0  0  0  0  0  0  0  0  0  0  0  0
  190.8940  171.5330  137.8550 C   0  0  0  0  0  0  0  0  0  0  0  0
  191.1420  172.3400  139.9420 C   0  0  0  0  0  0  0  0  0  0  0  0
  192.6410  173.0650  139.2530 S   0  0  0  0  0  0  0  0  0  0  0  0
  190.3650  171.5640  139.0330 N   0  0  0  0  0  0  0  0  0  0  0  0
  190.7390  172.5190  141.1980 C   0  0  0  0  0  3  0  0  0  0  0  0
  192.1320  172.2840  137.7320 C   0  0  0  0  0  0  0  0  0  0  0  0
  190.3250  170.8360  136.7890 O   0  0  0  0  0  0  0  0  0  0  0  0
  189.4160  171.4530  135.8890 C   0  0  0  0  0  2  0  0  0  0  0  0
  190.0430  171.5310  134.5130 C   0  0  0  0  0  1  0  0  0  0  0  0
  192.0150  172.4830  143.3360 C   0  0  0  0  0  0  0  0  0  0  0  0
  194.2050  172.7690  142.5060 O   0  0  0  0  0  1  0  0  0  0  0  0
  191.1010  171.9960  144.2670 O   0  0  0  0  0  1  0  0  0  0  0  0
  193.3310  172.2270  143.4470 C   0  0  0  0  0  0  0  0  0  0  0  0
  194.1420  171.8740  145.7080 N   0  0  0  0  0  2  0  0  0  0  0  0
  193.9140  171.3940  144.5300 C   0  0  0  0  0  0  0  0  0  0  0  0
  194.1040  169.9310  144.3090 C   0  0  0  0  0  2  0  0  0  0  0  0
  192.9000  169.2610  144.5260 O   0  0  0  0  0  1  0  0  0  0  0  0
  1  9  1  0  0  0  0
  2  7  1  0  0  0  0
  3  4  1  0  0  0  0
  3  1  2  0  0  0  0
  5  7  2  0  0  0  0
  5  8  1  0  0  0  0
  6  1  1  0  0  0  0
  7  3  1  0  0  0  0
  8  6  2  0  0  0  0
 10 19  1  6  0  0  0
 10 12  1  0  0  0  0
 11  9  1  6  0  0  0
 11 10  1  0  0  0  0
 11 14  1  0  0  0  0
 12 13  1  0  0  0  0
 14 15  1  1  0  0  0
 14 13  1  0  0  0  0
 15 16  1  0  0  0  0
 17 18  1  0  0  0  0
 17 16  1  0  0  0  0
 21 19  1  0  0  0  0
 21 20  1  1  0  0  0
 23 22  1  6  0  0  0
 23 21  1  0  0  0  0
 24 23  1  0  0  0  0
 25 24  1  0  0  0  0
 26 27  2  0  0  0  0
 26 25  1  0  0  0  0
 28 34  1  6  0  0  0
 28  5  1  0  0  0  0
 28 39  1  0  0  0  0
 29 35  2  0  0  0  0
 30 33  2  0  0  0  0
 31 34  2  0  0  0  0
 32 31  1  0  0  0  0
 33 31  1  0  0  0  0
 35 30  1  0  0  0  0
 35 32  1  0  0  0  0
 36 30  1  0  0  0  0
 37 36  1  0  0  0  0
 38 37  1  0  0  0  0
 39 42  2  0  0  0  0
 39 41  1  0  0  0  0
 40 42  1  0  0  0  0
 42 44  1  0  0  0  0
 44 43  2  0  0  0  0
 45 46  1  0  0  0  0
 45 44  1  0  0  0  0
M  END
>  <MODEL>
1

>  <REMARK>
 VINA RESULT:      -6.1      0.000      0.000
  Name = 
  18 active torsions:
  status: ('A' for Active; 'I' for Inactive)
    1  A    between atoms: C_1  and  C_21
    2  A    between atoms: C_3  and  C_11
    3  A    between atoms: C_3  and  C_22
    4  A    between atoms: C_3  and  C_38
    5  A    between atoms: C_4  and  C_23
    6  A    between atoms: C_5  and  C_18
    7  A    between atoms: C_6  and  C_21
    8  A    between atoms: O_8  and  C_14
    9  A    between atoms: O_8  and  C_26
   10  A    between atoms: O_13  and  C_35
   11  A    between atoms: C_18  and  C_45
   12  A    between atoms: C_23  and  C_30
   13  A    between atoms: C_27  and  C_34
   14  A    between atoms: C_27  and  C_40
   15  A    between atoms: C_28  and  C_34
   16  A    between atoms: C_30  and  C_40
   17  A    between atoms: C_31  and  C_33
   18  A    between atoms: C_31  and  C_35
                            x       y       z     vdW  Elec       q    Type
                         _______ _______ _______ _____ _____    ______ ____

>  <TORSDO>
F 18

$$$$
=
 OpenBabel11042415403D

 46 48  0  0  1  0  0  0  0  0999 V2000
  189.3890  176.5070  143.3230 C   0  0  0  0  0  0  0  0  0  0  0  0
  192.8570  175.3020  142.3450 C   0  0  0  0  0  1  0  0  0  0  0  0
  190.7870  176.4100  143.2200 C   0  0  0  0  0  0  0  0  0  0  0  0
  191.5950  177.3440  143.8630 O   0  0  0  0  0  1  0  0  0  0  0  0
  190.5450  174.4460  141.8020 C   0  0  0  0  0  0  0  0  0  0  0  0
  188.5770  175.5740  142.6720 C   0  0  0  0  0  3  0  0  0  0  0  0
  191.3680  175.3810  142.4600 C   0  0  0  0  0  0  0  0  0  0  0  0
  189.1510  174.5510  141.9190 C   0  0  0  0  0  3  0  0  0  0  0  0
  188.7560  177.6440  144.0590 C   0  0  0  0  0  2  0  0  0  0  0  0
  187.1590  176.4480  145.6730 C   0  0  2  0  0  3  0  0  0  0  0  0
  187.3030  177.3300  144.4380 C   0  0  1  0  0  3  0  0  0  0  0  0
  185.7580  176.7530  146.1700 C   0  0  0  0  0  2  0  0  0  0  0  0
  185.4670  178.1950  145.7810 C   0  0  0  0  0  2  0  0  0  0  0  0
  186.4660  178.5730  144.6990 C   0  0  2  0  0  3  0  0  0  0  0  0
  185.7350  178.9760  143.4310 C   0  0  0  0  0  2  0  0  0  0  0  0
  185.0660  177.7670  142.8080 C   0  0  0  0  0  2  0  0  0  0  0  0
  184.3150  178.1710  141.7060 O   0  0  0  0  0  0  0  0  0  0  0  0
  185.2260  178.1940  140.6500 C   0  0  0  0  0  1  0  0  0  0  0  0
  188.1680  176.8030  146.7670 C   0  0  0  0  0  2  0  0  0  0  0  0
  189.0230  174.6900  146.0810 O   0  0  0  0  0  1  0  0  0  0  0  0
  189.0120  175.5940  147.1460 C   0  0  1  0  0  3  0  0  0  0  0  0
  190.6250  177.3610  147.1680 O   0  0  0  0  0  1  0  0  0  0  0  0
  190.4400  176.0160  147.4940 C   0  0  2  0  0  3  0  0  0  0  0  0
  191.4500  175.1870  146.7140 C   0  0  0  0  0  2  0  0  0  0  0  0
  192.8130  175.8620  146.7230 C   0  0  0  0  0  2  0  0  0  0  0  0
  193.8010  175.0340  145.9700 C   0  0  0  0  0  3  0  0  0  0  0  0
  194.9740  175.3670  145.9260 O   0  0  0  0  0  0  0  0  0  0  0  0
  191.1490  173.3580  140.9560 C   0  0  2  0  0  3  0  0  0  0  0  0
  193.4080  174.7140  135.8310 O   0  0  0  0  0  0  0  0  0  0  0  0
  191.2020  173.8980  136.2480 C   0  0  0  0  0  0  0  0  0  0  0  0
  191.1230  173.6020  138.4780 C   0  0  0  0  0  0  0  0  0  0  0  0
  192.8300  174.1780  138.3990 S   0  0  0  0  0  0  0  0  0  0  0  0
  190.4460  173.5250  137.2260 N   0  0  0  0  0  0  0  0  0  0  0  0
  190.4960  173.2920  139.6100 C   0  0  0  0  0  3  0  0  0  0  0  0
  192.5390  174.3060  136.6430 C   0  0  0  0  0  0  0  0  0  0  0  0
  190.7710  173.9100  134.9210 O   0  0  0  0  0  0  0  0  0  0  0  0
  189.6050  174.6130  134.5170 C   0  0  0  0  0  2  0  0  0  0  0  0
  189.8140  176.0980  134.7230 C   0  0  0  0  0  1  0  0  0  0  0  0
  191.1350  172.0270  141.6570 C   0  0  0  0  0  0  0  0  0  0  0  0
  193.4920  172.0150  141.5800 O   0  0  0  0  0  1  0  0  0  0  0  0
  189.9080  171.4780  142.0210 O   0  0  0  0  0  1  0  0  0  0  0  0
  192.2920  171.4010  141.9360 C   0  0  0  0  0  0  0  0  0  0  0  0
  192.2880  168.9740  141.9520 N   0  0  0  0  0  2  0  0  0  0  0  0
  192.3660  170.0820  142.6130 C   0  0  0  0  0  0  0  0  0  0  0  0
  192.6890  170.0200  144.0680 C   0  0  0  0  0  2  0  0  0  0  0  0
  194.0430  169.7360  144.2400 O   0  0  0  0  0  1  0  0  0  0  0  0
  1  9  1  0  0  0  0
  2  7  1  0  0  0  0
  3  1  1  0  0  0  0
  3  4  1  0  0  0  0
  5  8  2  0  0  0  0
  5  7  1  0  0  0  0
  6  1  2  0  0  0  0
  7  3  2  0  0  0  0
  8  6  1  0  0  0  0
 10 12  1  0  0  0  0
 10 19  1  1  0  0  0
 11  9  1  1  0  0  0
 11 14  1  0  0  0  0
 11 10  1  0  0  0  0
 13 12  1  0  0  0  0
 14 15  1  6  0  0  0
 14 13  1  0  0  0  0
 16 15  1  0  0  0  0
 17 16  1  0  0  0  0
 18 17  1  0  0  0  0
 19 21  1  0  0  0  0
 21 20  1  6  0  0  0
 21 23  1  0  0  0  0
 23 22  1  6  0  0  0
 24 25  1  0  0  0  0
 24 23  1  0  0  0  0
 26 25  1  0  0  0  0
 27 26  2  0  0  0  0
 28 34  1  6  0  0  0
 28 39  1  0  0  0  0
 28  5  1  0  0  0  0
 29 35  2  0  0  0  0
 30 35  1  0  0  0  0
 30 33  2  0  0  0  0
 31 34  2  0  0  0  0
 32 31  1  0  0  0  0
 33 31  1  0  0  0  0
 35 32  1  0  0  0  0
 36 30  1  0  0  0  0
 37 38  1  0  0  0  0
 37 36  1  0  0  0  0
 39 42  2  0  0  0  0
 39 41  1  0  0  0  0
 40 42  1  0  0  0  0
 42 44  1  0  0  0  0
 43 44  2  0  0  0  0
 44 45  1  0  0  0  0
 45 46  1  0  0  0  0
M  END
>  <MODEL>
2

>  <REMARK>
 VINA RESULT:      -6.1      1.906      4.660
  Name = 
  18 active torsions:
  status: ('A' for Active; 'I' for Inactive)
    1  A    between atoms: C_1  and  C_21
    2  A    between atoms: C_3  and  C_11
    3  A    between atoms: C_3  and  C_22
    4  A    between atoms: C_3  and  C_38
    5  A    between atoms: C_4  and  C_23
    6  A    between atoms: C_5  and  C_18
    7  A    between atoms: C_6  and  C_21
    8  A    between atoms: O_8  and  C_14
    9  A    between atoms: O_8  and  C_26
   10  A    between atoms: O_13  and  C_35
   11  A    between atoms: C_18  and  C_45
   12  A    between atoms: C_23  and  C_30
   13  A    between atoms: C_27  and  C_34
   14  A    between atoms: C_27  and  C_40
   15  A    between atoms: C_28  and  C_34
   16  A    between atoms: C_30  and  C_40
   17  A    between atoms: C_31  and  C_33
   18  A    between atoms: C_31  and  C_35
                            x       y       z     vdW  Elec       q    Type
                         _______ _______ _______ _____ _____    ______ ____

>  <TORSDO>
F 18

$$$$
=
 OpenBabel11042415403D

 46 48  0  0  1  0  0  0  0  0999 V2000
  188.8340  176.3580  142.9180 C   0  0  0  0  0  0  0  0  0  0  0  0
  188.3560  172.7450  141.8470 C   0  0  0  0  0  1  0  0  0  0  0  0
  188.2280  175.1330  142.5920 C   0  0  0  0  0  0  0  0  0  0  0  0
  186.8460  174.9950  142.6960 O   0  0  0  0  0  1  0  0  0  0  0  0
  190.4130  174.1890  142.0820 C   0  0  0  0  0  0  0  0  0  0  0  0
  190.2210  176.4950  142.8220 C   0  0  0  0  0  3  0  0  0  0  0  0
  189.0140  174.0470  142.1740 C   0  0  0  0  0  0  0  0  0  0  0  0
  191.0040  175.4190  142.4050 C   0  0  0  0  0  3  0  0  0  0  0  0
  188.0190  177.4950  143.4450 C   0  0  0  0  0  2  0  0  0  0  0  0
  188.1580  176.7320  145.8920 C   0  0  2  0  0  3  0  0  0  0  0  0
  187.2590  177.1000  144.7180 C   0  0  1  0  0  3  0  0  0  0  0  0
  187.2750  176.9560  147.1050 C   0  0  0  0  0  2  0  0  0  0  0  0
  186.3130  178.0760  146.7380 C   0  0  0  0  0  2  0  0  0  0  0  0
  186.3210  178.1880  145.2210 C   0  0  2  0  0  3  0  0  0  0  0  0
  184.9250  177.9570  144.6720 C   0  0  0  0  0  2  0  0  0  0  0  0
  184.5240  179.1060  143.7680 C   0  0  0  0  0  2  0  0  0  0  0  0
  183.7410  178.6200  142.7230 O   0  0  0  0  0  0  0  0  0  0  0  0
  184.6520  178.0270  141.8490 C   0  0  0  0  0  1  0  0  0  0  0  0
  189.3880  177.6370  145.9930 C   0  0  0  0  0  2  0  0  0  0  0  0
  190.7910  177.3000  147.8860 O   0  0  0  0  0  1  0  0  0  0  0  0
  190.5780  176.8820  146.5700 C   0  0  1  0  0  3  0  0  0  0  0  0
  190.3670  174.8570  147.8270 O   0  0  0  0  0  1  0  0  0  0  0  0
  190.3340  175.3730  146.5300 C   0  0  2  0  0  3  0  0  0  0  0  0
  191.4090  174.6780  145.7070 C   0  0  0  0  0  2  0  0  0  0  0  0
  192.7170  174.6180  146.4800 C   0  0  0  0  0  2  0  0  0  0  0  0
  193.7710  175.3990  145.7690 C   0  0  0  0  0  3  0  0  0  0  0  0
  194.7150  175.8640  146.3870 O   0  0  0  0  0  0  0  0  0  0  0  0
  191.2730  173.0260  141.6680 C   0  0  2  0  0  3  0  0  0  0  0  0
  194.1940  170.1840  145.7430 O   0  0  0  0  0  0  0  0  0  0  0  0
  195.0250  171.9390  144.3520 C   0  0  0  0  0  0  0  0  0  0  0  0
  193.2840  172.4870  143.0350 C   0  0  0  0  0  0  0  0  0  0  0  0
  192.4560  171.1720  143.9490 S   0  0  0  0  0  0  0  0  0  0  0  0
  194.6400  172.7260  143.4040 N   0  0  0  0  0  0  0  0  0  0  0  0
  192.6950  173.2240  142.0970 C   0  0  0  0  0  3  0  0  0  0  0  0
  194.0060  171.0140  144.8170 C   0  0  0  0  0  0  0  0  0  0  0  0
  196.3130  171.9750  144.8880 O   0  0  0  0  0  0  0  0  0  0  0  0
  196.6700  172.8770  145.9250 C   0  0  0  0  0  2  0  0  0  0  0  0
  197.5270  173.9880  145.3540 C   0  0  0  0  0  1  0  0  0  0  0  0
  191.1610  172.7400  140.1950 C   0  0  0  0  0  0  0  0  0  0  0  0
  191.0330  170.4390  140.7010 O   0  0  0  0  0  1  0  0  0  0  0  0
  191.1520  173.8110  139.3060 O   0  0  0  0  0  1  0  0  0  0  0  0
  191.0550  171.4700  139.7630 C   0  0  0  0  0  0  0  0  0  0  0  0
  189.8150  171.0560  137.7190 N   0  0  0  0  0  2  0  0  0  0  0  0
  190.9530  171.1000  138.3290 C   0  0  0  0  0  0  0  0  0  0  0  0
  192.1970  170.9200  137.5270 C   0  0  0  0  0  2  0  0  0  0  0  0
  192.0500  171.5340  136.2830 O   0  0  0  0  0  1  0  0  0  0  0  0
  1  9  1  0  0  0  0
  2  7  1  0  0  0  0
  3  4  1  0  0  0  0
  3  1  2  0  0  0  0
  5  7  2  0  0  0  0
  5  8  1  0  0  0  0
  6  1  1  0  0  0  0
  7  3  1  0  0  0  0
  8  6  2  0  0  0  0
 10 19  1  1  0  0  0
 10 12  1  0  0  0  0
 11  9  1  6  0  0  0
 11 14  1  0  0  0  0
 11 10  1  0  0  0  0
 13 12  1  0  0  0  0
 14 15  1  6  0  0  0
 14 13  1  0  0  0  0
 16 15  1  0  0  0  0
 17 16  1  0  0  0  0
 18 17  1  0  0  0  0
 19 21  1  0  0  0  0
 21 20  1  1  0  0  0
 23 21  1  0  0  0  0
 23 22  1  1  0  0  0
 24 25  1  0  0  0  0
 24 23  1  0  0  0  0
 26 27  2  0  0  0  0
 26 25  1  0  0  0  0
 28  5  1  0  0  0  0
 28 34  1  6  0  0  0
 30 35  1  0  0  0  0
 30 36  1  0  0  0  0
 31 33  1  0  0  0  0
 31 32  1  0  0  0  0
 32 35  1  0  0  0  0
 33 30  2  0  0  0  0
 34 31  2  0  0  0  0
 35 29  2  0  0  0  0
 36 37  1  0  0  0  0
 38 37  1  0  0  0  0
 39 28  1  0  0  0  0
 41 39  1  0  0  0  0
 42 39  2  0  0  0  0
 42 40  1  0  0  0  0
 43 44  2  0  0  0  0
 44 42  1  0  0  0  0
 45 44  1  0  0  0  0
 46 45  1  0  0  0  0
M  END
>  <MODEL>
3

>  <REMARK>
 VINA RESULT:      -6.1      1.982      6.624
  Name = 
  18 active torsions:
  status: ('A' for Active; 'I' for Inactive)
    1  A    between atoms: C_1  and  C_21
    2  A    between atoms: C_3  and  C_11
    3  A    between atoms: C_3  and  C_22
    4  A    between atoms: C_3  and  C_38
    5  A    between atoms: C_4  and  C_23
    6  A    between atoms: C_5  and  C_18
    7  A    between atoms: C_6  and  C_21
    8  A    between atoms: O_8  and  C_14
    9  A    between atoms: O_8  and  C_26
   10  A    between atoms: O_13  and  C_35
   11  A    between atoms: C_18  and  C_45
   12  A    between atoms: C_23  and  C_30
   13  A    between atoms: C_27  and  C_34
   14  A    between atoms: C_27  and  C_40
   15  A    between atoms: C_28  and  C_34
   16  A    between atoms: C_30  and  C_40
   17  A    between atoms: C_31  and  C_33
   18  A    between atoms: C_31  and  C_35
                            x       y       z     vdW  Elec       q    Type
                         _______ _______ _______ _____ _____    ______ ____

>  <TORSDO>
F 18

$$$$
=
 OpenBabel11042415403D

 46 48  0  0  1  0  0  0  0  0999 V2000
  190.0000  176.6470  143.2870 C   0  0  0  0  0  0  0  0  0  0  0  0
  190.1270  173.7040  140.8880 C   0  0  0  0  0  1  0  0  0  0  0  0
  189.6020  175.6250  142.4090 C   0  0  0  0  0  0  0  0  0  0  0  0
  188.2490  175.4250  142.1450 O   0  0  0  0  0  1  0  0  0  0  0  0
  191.9330  174.9980  142.0870 C   0  0  0  0  0  0  0  0  0  0  0  0
  191.3560  176.8430  143.5590 C   0  0  0  0  0  3  0  0  0  0  0  0
  190.5660  174.7980  141.8080 C   0  0  0  0  0  0  0  0  0  0  0  0
  192.3150  176.0250  142.9620 C   0  0  0  0  0  3  0  0  0  0  0  0
  188.9810  177.4780  143.9990 C   0  0  0  0  0  2  0  0  0  0  0  0
  188.8700  176.2980  146.2760 C   0  0  2  0  0  3  0  0  0  0  0  0
  188.1500  176.6360  144.9760 C   0  0  1  0  0  3  0  0  0  0  0  0
  187.7410  176.0150  147.2490 C   0  0  0  0  0  2  0  0  0  0  0  0
  186.5660  176.8750  146.8090 C   0  0  0  0  0  2  0  0  0  0  0  0
  186.8370  177.2940  145.3720 C   0  0  2  0  0  3  0  0  0  0  0  0
  185.7220  176.8030  144.4650 C   0  0  0  0  0  2  0  0  0  0  0  0
  185.3100  177.9020  143.5070 C   0  0  0  0  0  2  0  0  0  0  0  0
  185.3440  177.4140  142.2020 O   0  0  0  0  0  0  0  0  0  0  0  0
  186.2240  178.2630  141.5330 C   0  0  0  0  0  1  0  0  0  0  0  0
  189.7050  177.4680  146.8040 C   0  0  0  0  0  2  0  0  0  0  0  0
  191.2570  177.4540  148.6080 O   0  0  0  0  0  1  0  0  0  0  0  0
  191.0610  176.9910  147.3040 C   0  0  1  0  0  3  0  0  0  0  0  0
  191.2350  174.9690  148.5710 O   0  0  0  0  0  1  0  0  0  0  0  0
  191.1470  175.4650  147.2690 C   0  0  2  0  0  3  0  0  0  0  0  0
  192.3780  175.0130  146.4960 C   0  0  0  0  0  2  0  0  0  0  0  0
  193.4600  176.0800  146.5480 C   0  0  0  0  0  2  0  0  0  0  0  0
  194.7510  175.5280  146.0420 C   0  0  0  0  0  3  0  0  0  0  0  0
  195.2720  175.9990  145.0440 O   0  0  0  0  0  0  0  0  0  0  0  0
  192.9750  174.1000  141.4780 C   0  0  2  0  0  3  0  0  0  0  0  0
  192.6340  168.9800  144.1020 O   0  0  0  0  0  0  0  0  0  0  0  0
  194.2950  170.6590  144.4580 C   0  0  0  0  0  0  0  0  0  0  0  0
  193.7300  172.3200  143.0490 C   0  0  0  0  0  0  0  0  0  0  0  0
  192.3950  171.1940  142.6000 S   0  0  0  0  0  0  0  0  0  0  0  0
  194.6240  171.8390  144.0480 N   0  0  0  0  0  0  0  0  0  0  0  0
  193.8830  173.5350  142.5280 C   0  0  0  0  0  3  0  0  0  0  0  0
  193.1110  170.1090  143.8210 C   0  0  0  0  0  0  0  0  0  0  0  0
  195.0170  169.9700  145.4340 O   0  0  0  0  0  0  0  0  0  0  0  0
  196.4360  169.9740  145.4600 C   0  0  0  0  0  2  0  0  0  0  0  0
  196.9160  169.6520  146.8600 C   0  0  0  0  0  1  0  0  0  0  0  0
  193.7400  174.7900  140.3810 C   0  0  0  0  0  0  0  0  0  0  0  0
  192.8120  173.2630  138.8410 O   0  0  0  0  0  1  0  0  0  0  0  0
  194.5250  175.8930  140.7060 O   0  0  0  0  0  1  0  0  0  0  0  0
  193.6420  174.3500  139.1140 C   0  0  0  0  0  0  0  0  0  0  0  0
  195.6330  174.7620  137.7890 N   0  0  0  0  0  2  0  0  0  0  0  0
  194.3710  174.9640  137.9760 C   0  0  0  0  0  0  0  0  0  0  0  0
  193.6090  175.7120  136.9330 C   0  0  0  0  0  2  0  0  0  0  0  0
  193.4570  174.9150  135.7990 O   0  0  0  0  0  1  0  0  0  0  0  0
  1  6  1  0  0  0  0
  1  9  1  0  0  0  0
  2  7  1  0  0  0  0
  3  1  2  0  0  0  0
  4  3  1  0  0  0  0
  5  8  1  0  0  0  0
  7  5  2  0  0  0  0
  7  3  1  0  0  0  0
  8  6  2  0  0  0  0
 10 19  1  1  0  0  0
 10 12  1  0  0  0  0
 11  9  1  6  0  0  0
 11 14  1  0  0  0  0
 11 10  1  0  0  0  0
 13 12  1  0  0  0  0
 14 15  1  6  0  0  0
 14 13  1  0  0  0  0
 16 15  1  0  0  0  0
 17 16  1  0  0  0  0
 18 17  1  0  0  0  0
 19 21  1  0  0  0  0
 21 20  1  1  0  0  0
 23 21  1  0  0  0  0
 23 22  1  1  0  0  0
 24 25  1  0  0  0  0
 24 23  1  0  0  0  0
 26 25  1  0  0  0  0
 27 26  2  0  0  0  0
 28  5  1  0  0  0  0
 28 34  1  1  0  0  0
 30 36  1  0  0  0  0
 31 33  1  0  0  0  0
 32 31  1  0  0  0  0
 32 35  1  0  0  0  0
 33 30  2  0  0  0  0
 34 31  2  0  0  0  0
 35 29  2  0  0  0  0
 35 30  1  0  0  0  0
 36 37  1  0  0  0  0
 37 38  1  0  0  0  0
 39 41  1  0  0  0  0
 39 28  1  0  0  0  0
 40 42  1  0  0  0  0
 42 39  2  0  0  0  0
 43 44  2  0  0  0  0
 44 42  1  0  0  0  0
 45 44  1  0  0  0  0
 46 45  1  0  0  0  0
M  END
>  <MODEL>
4

>  <REMARK>
 VINA RESULT:      -5.9      2.473      6.744
  Name = 
  18 active torsions:
  status: ('A' for Active; 'I' for Inactive)
    1  A    between atoms: C_1  and  C_21
    2  A    between atoms: C_3  and  C_11
    3  A    between atoms: C_3  and  C_22
    4  A    between atoms: C_3  and  C_38
    5  A    between atoms: C_4  and  C_23
    6  A    between atoms: C_5  and  C_18
    7  A    between atoms: C_6  and  C_21
    8  A    between atoms: O_8  and  C_14
    9  A    between atoms: O_8  and  C_26
   10  A    between atoms: O_13  and  C_35
   11  A    between atoms: C_18  and  C_45
   12  A    between atoms: C_23  and  C_30
   13  A    between atoms: C_27  and  C_34
   14  A    between atoms: C_27  and  C_40
   15  A    between atoms: C_28  and  C_34
   16  A    between atoms: C_30  and  C_40
   17  A    between atoms: C_31  and  C_33
   18  A    between atoms: C_31  and  C_35
                            x       y       z     vdW  Elec       q    Type
                         _______ _______ _______ _____ _____    ______ ____

>  <TORSDO>
F 18

$$$$
=
 OpenBabel11042415403D

 46 48  0  0  1  0  0  0  0  0999 V2000
  190.7010  172.6510  141.3210 C   0  0  0  0  0  0  0  0  0  0  0  0
  189.7180  172.8170  144.9870 C   0  0  0  0  0  1  0  0  0  0  0  0
  190.2470  172.2790  142.5980 C   0  0  0  0  0  0  0  0  0  0  0  0
  189.8130  170.9760  142.8260 O   0  0  0  0  0  1  0  0  0  0  0  0
  190.6490  174.5440  143.3980 C   0  0  0  0  0  0  0  0  0  0  0  0
  191.1300  173.9600  141.0890 C   0  0  0  0  0  3  0  0  0  0  0  0
  190.2200  173.2240  143.6380 C   0  0  0  0  0  0  0  0  0  0  0  0
  191.1050  174.8990  142.1190 C   0  0  0  0  0  3  0  0  0  0  0  0
  190.6580  171.6800  140.1840 C   0  0  0  0  0  2  0  0  0  0  0  0
  192.9150  172.0740  139.0280 C   0  0  2  0  0  3  0  0  0  0  0  0
  191.4000  172.2210  138.9550 C   0  0  1  0  0  3  0  0  0  0  0  0
  193.3490  172.1080  137.5750 C   0  0  0  0  0  2  0  0  0  0  0  0
  192.2040  171.5170  136.7680 C   0  0  0  0  0  2  0  0  0  0  0  0
  190.9680  171.5620  137.6540 C   0  0  2  0  0  3  0  0  0  0  0  0
  189.8820  172.3930  136.9930 C   0  0  0  0  0  2  0  0  0  0  0  0
  189.9580  173.8280  137.4740 C   0  0  0  0  0  2  0  0  0  0  0  0
  188.6850  174.3920  137.4480 O   0  0  0  0  0  0  0  0  0  0  0  0
  188.2340  174.3030  138.7650 C   0  0  0  0  0  1  0  0  0  0  0  0
  193.3450  170.7430  139.6490 C   0  0  0  0  0  2  0  0  0  0  0  0
  195.6540  171.3020  139.7940 O   0  0  0  0  0  1  0  0  0  0  0  0
  194.5490  170.9280  140.5630 C   0  0  1  0  0  3  0  0  0  0  0  0
  195.4320  172.7030  141.9010 O   0  0  0  0  0  1  0  0  0  0  0  0
  194.2640  171.9880  141.6270 C   0  0  2  0  0  3  0  0  0  0  0  0
  193.7810  171.3400  142.9160 C   0  0  0  0  0  2  0  0  0  0  0  0
  193.6520  172.3790  144.0190 C   0  0  0  0  0  2  0  0  0  0  0  0
  194.3450  171.9070  145.2530 C   0  0  0  0  0  3  0  0  0  0  0  0
  195.5600  171.7900  145.2690 O   0  0  0  0  0  0  0  0  0  0  0  0
  190.5940  175.5750  144.4910 C   0  0  2  0  0  3  0  0  0  0  0  0
  186.0810  177.1000  147.7350 O   0  0  0  0  0  0  0  0  0  0  0  0
  186.7000  178.0290  145.6230 C   0  0  0  0  0  0  0  0  0  0  0  0
  188.5650  176.9110  145.0400 C   0  0  0  0  0  0  0  0  0  0  0  0
  188.3050  176.0850  146.6210 S   0  0  0  0  0  0  0  0  0  0  0  0
  187.6030  177.9080  144.7080 N   0  0  0  0  0  0  0  0  0  0  0  0
  189.5550  176.6160  144.2020 C   0  0  0  0  0  3  0  0  0  0  0  0
  186.8700  177.1350  146.7560 C   0  0  0  0  0  0  0  0  0  0  0  0
  185.6490  178.9420  145.5330 O   0  0  0  0  0  0  0  0  0  0  0  0
  184.3500  178.5510  145.1120 C   0  0  0  0  0  2  0  0  0  0  0  0
  184.2460  178.6830  143.6070 C   0  0  0  0  0  1  0  0  0  0  0  0
  191.9440  176.1840  144.7590 C   0  0  0  0  0  0  0  0  0  0  0  0
  192.2700  174.5880  146.4660 O   0  0  0  0  0  1  0  0  0  0  0  0
  192.3630  177.2520  143.9710 O   0  0  0  0  0  1  0  0  0  0  0  0
  192.7260  175.6820  145.7310 C   0  0  0  0  0  0  0  0  0  0  0  0
  194.2040  177.2400  146.8620 N   0  0  0  0  0  2  0  0  0  0  0  0
  194.0640  176.2300  146.0680 C   0  0  0  0  0  0  0  0  0  0  0  0
  195.2890  175.5130  145.6070 C   0  0  0  0  0  2  0  0  0  0  0  0
  195.3040  175.4550  144.2130 O   0  0  0  0  0  1  0  0  0  0  0  0
  1  3  1  0  0  0  0
  3  4  1  0  0  0  0
  3  7  2  0  0  0  0
  5  7  1  0  0  0  0
  5 28  1  0  0  0  0
  6  1  2  0  0  0  0
  6  8  1  0  0  0  0
  7  2  1  0  0  0  0
  8  5  2  0  0  0  0
  9  1  1  0  0  0  0
 10 19  1  6  0  0  0
 11 10  1  0  0  0  0
 11  9  1  1  0  0  0
 12 10  1  0  0  0  0
 13 12  1  0  0  0  0
 13 14  1  0  0  0  0
 14 15  1  6  0  0  0
 14 11  1  0  0  0  0
 15 16  1  0  0  0  0
 17 16  1  0  0  0  0
 17 18  1  0  0  0  0
 19 21  1  0  0  0  0
 21 20  1  6  0  0  0
 21 23  1  0  0  0  0
 23 22  1  1  0  0  0
 23 24  1  0  0  0  0
 24 25  1  0  0  0  0
 25 26  1  0  0  0  0
 26 27  2  0  0  0  0
 28 34  1  6  0  0  0
 28 39  1  0  0  0  0
 30 35  1  0  0  0  0
 31 32  1  0  0  0  0
 32 35  1  0  0  0  0
 33 31  1  0  0  0  0
 33 30  2  0  0  0  0
 34 31  2  0  0  0  0
 35 29  2  0  0  0  0
 36 30  1  0  0  0  0
 37 36  1  0  0  0  0
 38 37  1  0  0  0  0
 39 42  2  0  0  0  0
 41 39  1  0  0  0  0
 42 44  1  0  0  0  0
 42 40  1  0  0  0  0
 44 43  2  0  0  0  0
 45 44  1  0  0  0  0
 46 45  1  0  0  0  0
M  END
>  <MODEL>
5

>  <REMARK>
 VINA RESULT:      -5.7      2.879      9.239
  Name = 
  18 active torsions:
  status: ('A' for Active; 'I' for Inactive)
    1  A    between atoms: C_1  and  C_21
    2  A    between atoms: C_3  and  C_11
    3  A    between atoms: C_3  and  C_22
    4  A    between atoms: C_3  and  C_38
    5  A    between atoms: C_4  and  C_23
    6  A    between atoms: C_5  and  C_18
    7  A    between atoms: C_6  and  C_21
    8  A    between atoms: O_8  and  C_14
    9  A    between atoms: O_8  and  C_26
   10  A    between atoms: O_13  and  C_35
   11  A    between atoms: C_18  and  C_45
   12  A    between atoms: C_23  and  C_30
   13  A    between atoms: C_27  and  C_34
   14  A    between atoms: C_27  and  C_40
   15  A    between atoms: C_28  and  C_34
   16  A    between atoms: C_30  and  C_40
   17  A    between atoms: C_31  and  C_33
   18  A    between atoms: C_31  and  C_35
                            x       y       z     vdW  Elec       q    Type
                         _______ _______ _______ _____ _____    ______ ____

>  <TORSDO>
F 18

$$$$
=
 OpenBabel11042415403D

 46 48  0  0  1  0  0  0  0  0999 V2000
  189.4380  176.7630  142.9220 C   0  0  0  0  0  0  0  0  0  0  0  0
  189.8160  173.3260  141.3490 C   0  0  0  0  0  1  0  0  0  0  0  0
  189.1300  175.5260  142.3310 C   0  0  0  0  0  0  0  0  0  0  0  0
  187.8000  175.1700  142.1250 O   0  0  0  0  0  1  0  0  0  0  0  0
  191.5040  175.0070  142.1830 C   0  0  0  0  0  0  0  0  0  0  0  0
  190.7730  177.1180  143.1370 C   0  0  0  0  0  3  0  0  0  0  0  0
  190.1600  174.6460  141.9610 C   0  0  0  0  0  0  0  0  0  0  0  0
  191.7970  176.2470  142.7690 C   0  0  0  0  0  3  0  0  0  0  0  0
  188.3510  177.6730  143.3980 C   0  0  0  0  0  2  0  0  0  0  0  0
  186.9110  178.1950  145.4580 C   0  0  2  0  0  3  0  0  0  0  0  0
  188.2370  177.6610  144.9280 C   0  0  1  0  0  3  0  0  0  0  0  0
  186.7970  177.5680  146.8350 C   0  0  0  0  0  2  0  0  0  0  0  0
  187.5180  176.2310  146.7620 C   0  0  0  0  0  2  0  0  0  0  0  0
  188.4150  176.2770  145.5340 C   0  0  2  0  0  3  0  0  0  0  0  0
  189.8650  176.0750  145.9370 C   0  0  0  0  0  2  0  0  0  0  0  0
  190.1540  174.5980  146.1150 C   0  0  0  0  0  2  0  0  0  0  0  0
  189.3400  173.8610  145.2570 O   0  0  0  0  0  0  0  0  0  0  0  0
  190.0560  172.6880  145.0170 C   0  0  0  0  0  1  0  0  0  0  0  0
  185.7200  177.7530  144.6060 C   0  0  0  0  0  2  0  0  0  0  0  0
  185.5580  180.1190  144.4030 O   0  0  0  0  0  1  0  0  0  0  0  0
  184.8280  178.9370  144.2560 C   0  0  1  0  0  3  0  0  0  0  0  0
  182.9420  178.5090  142.8480 O   0  0  0  0  0  1  0  0  0  0  0  0
  184.3030  178.8170  142.8250 C   0  0  2  0  0  3  0  0  0  0  0  0
  185.0350  177.7140  142.0740 C   0  0  0  0  0  2  0  0  0  0  0  0
  185.8060  178.2910  140.8970 C   0  0  0  0  0  2  0  0  0  0  0  0
  186.1500  177.2090  139.9290 C   0  0  0  0  0  3  0  0  0  0  0  0
  186.9390  177.4230  139.0230 O   0  0  0  0  0  0  0  0  0  0  0  0
  192.6180  174.0620  141.8250 C   0  0  2  0  0  3  0  0  0  0  0  0
  193.0910  168.9260  144.3970 O   0  0  0  0  0  0  0  0  0  0  0  0
  194.1890  170.9490  145.0350 C   0  0  0  0  0  0  0  0  0  0  0  0
  193.4940  172.4680  143.5270 C   0  0  0  0  0  0  0  0  0  0  0  0
  192.5850  171.0650  142.8520 S   0  0  0  0  0  0  0  0  0  0  0  0
  194.2830  172.1870  144.6800 N   0  0  0  0  0  0  0  0  0  0  0  0
  193.4320  173.7010  143.0300 C   0  0  0  0  0  3  0  0  0  0  0  0
  193.3150  170.1470  144.1960 C   0  0  0  0  0  0  0  0  0  0  0  0
  194.8700  170.4250  146.1350 O   0  0  0  0  0  0  0  0  0  0  0  0
  196.0740  169.6870  145.9890 C   0  0  0  0  0  2  0  0  0  0  0  0
  196.5460  169.2180  147.3500 C   0  0  0  0  0  1  0  0  0  0  0  0
  193.4700  174.5960  140.7060 C   0  0  0  0  0  0  0  0  0  0  0  0
  192.4880  173.0090  139.2640 O   0  0  0  0  0  1  0  0  0  0  0  0
  194.3230  175.6650  140.9690 O   0  0  0  0  0  1  0  0  0  0  0  0
  193.3850  174.0540  139.4770 C   0  0  0  0  0  0  0  0  0  0  0  0
  193.7650  175.4110  137.5020 N   0  0  0  0  0  2  0  0  0  0  0  0
  194.1980  174.5120  138.3230 C   0  0  0  0  0  0  0  0  0  0  0  0
  195.6070  174.0430  138.1840 C   0  0  0  0  0  2  0  0  0  0  0  0
  196.4830  175.0650  138.5490 O   0  0  0  0  0  1  0  0  0  0  0  0
  1  6  1  0  0  0  0
  1  9  1  0  0  0  0
  2  7  1  0  0  0  0
  3  1  2  0  0  0  0
  4  3  1  0  0  0  0
  5  8  1  0  0  0  0
  7  5  2  0  0  0  0
  7  3  1  0  0  0  0
  8  6  2  0  0  0  0
 10 19  1  6  0  0  0
 10 12  1  0  0  0  0
 11  9  1  6  0  0  0
 11 10  1  0  0  0  0
 11 14  1  0  0  0  0
 13 12  1  0  0  0  0
 14 15  1  1  0  0  0
 14 13  1  0  0  0  0
 15 16  1  0  0  0  0
 17 16  1  0  0  0  0
 18 17  1  0  0  0  0
 21 20  1  6  0  0  0
 21 19  1  0  0  0  0
 23 22  1  1  0  0  0
 23 21  1  0  0  0  0
 24 23  1  0  0  0  0
 25 24  1  0  0  0  0
 26 25  1  0  0  0  0
 27 26  2  0  0  0  0
 28  5  1  0  0  0  0
 28 34  1  1  0  0  0
 30 36  1  0  0  0  0
 31 33  1  0  0  0  0
 32 31  1  0  0  0  0
 32 35  1  0  0  0  0
 33 30  2  0  0  0  0
 34 31  2  0  0  0  0
 35 29  2  0  0  0  0
 35 30  1  0  0  0  0
 37 36  1  0  0  0  0
 37 38  1  0  0  0  0
 39 41  1  0  0  0  0
 39 28  1  0  0  0  0
 40 42  1  0  0  0  0
 42 39  2  0  0  0  0
 43 44  2  0  0  0  0
 44 42  1  0  0  0  0
 45 44  1  0  0  0  0
 45 46  1  0  0  0  0
M  END
>  <MODEL>
6

>  <REMARK>
 VINA RESULT:      -5.6      2.303      5.087
  Name = 
  18 active torsions:
  status: ('A' for Active; 'I' for Inactive)
    1  A    between atoms: C_1  and  C_21
    2  A    between atoms: C_3  and  C_11
    3  A    between atoms: C_3  and  C_22
    4  A    between atoms: C_3  and  C_38
    5  A    between atoms: C_4  and  C_23
    6  A    between atoms: C_5  and  C_18
    7  A    between atoms: C_6  and  C_21
    8  A    between atoms: O_8  and  C_14
    9  A    between atoms: O_8  and  C_26
   10  A    between atoms: O_13  and  C_35
   11  A    between atoms: C_18  and  C_45
   12  A    between atoms: C_23  and  C_30
   13  A    between atoms: C_27  and  C_34
   14  A    between atoms: C_27  and  C_40
   15  A    between atoms: C_28  and  C_34
   16  A    between atoms: C_30  and  C_40
   17  A    between atoms: C_31  and  C_33
   18  A    between atoms: C_31  and  C_35
                            x       y       z     vdW  Elec       q    Type
                         _______ _______ _______ _____ _____    ______ ____

>  <TORSDO>
F 18

$$$$
=
 OpenBabel11042415403D

 46 48  0  0  1  0  0  0  0  0999 V2000
  194.5040  174.2770  145.5000 C   0  0  0  0  0  0  0  0  0  0  0  0
  192.4280  177.1340  144.1020 C   0  0  0  0  0  1  0  0  0  0  0  0
  194.1160  175.5570  145.0730 C   0  0  0  0  0  0  0  0  0  0  0  0
  195.0000  176.6260  145.1940 O   0  0  0  0  0  1  0  0  0  0  0  0
  191.9390  174.6790  144.4260 C   0  0  0  0  0  0  0  0  0  0  0  0
  193.6150  173.2050  145.3860 C   0  0  0  0  0  3  0  0  0  0  0  0
  192.8340  175.7620  144.5360 C   0  0  0  0  0  0  0  0  0  0  0  0
  192.3420  173.4050  144.8520 C   0  0  0  0  0  3  0  0  0  0  0  0
  195.8340  174.0610  146.1500 C   0  0  0  0  0  2  0  0  0  0  0  0
  197.3270  172.0580  145.5600 C   0  0  2  0  0  3  0  0  0  0  0  0
  196.8460  173.4510  145.1710 C   0  0  1  0  0  3  0  0  0  0  0  0
  197.8010  171.4630  144.2480 C   0  0  0  0  0  2  0  0  0  0  0  0
  196.9460  172.0890  143.1560 C   0  0  0  0  0  2  0  0  0  0  0  0
  196.3160  173.3400  143.7500 C   0  0  2  0  0  3  0  0  0  0  0  0
  196.7280  174.5630  142.9500 C   0  0  0  0  0  2  0  0  0  0  0  0
  196.0570  174.5470  141.5920 C   0  0  0  0  0  2  0  0  0  0  0  0
  194.7830  175.1020  141.6990 O   0  0  0  0  0  0  0  0  0  0  0  0
  194.9340  176.4150  141.2510 C   0  0  0  0  0  1  0  0  0  0  0  0
  196.2040  171.1880  146.1290 C   0  0  0  0  0  2  0  0  0  0  0  0
  196.7000  169.3520  147.5600 O   0  0  0  0  0  1  0  0  0  0  0  0
  196.6320  169.7300  146.2170 C   0  0  1  0  0  3  0  0  0  0  0  0
  196.2820  168.2740  144.3510 O   0  0  0  0  0  1  0  0  0  0  0  0
  195.6510  168.8300  145.4650 C   0  0  2  0  0  3  0  0  0  0  0  0
  194.4460  169.6280  144.9900 C   0  0  0  0  0  2  0  0  0  0  0  0
  194.2750  169.4900  143.4850 C   0  0  0  0  0  2  0  0  0  0  0  0
  193.0470  170.2100  143.0390 C   0  0  0  0  0  3  0  0  0  0  0  0
  192.0890  170.3140  143.7880 O   0  0  0  0  0  0  0  0  0  0  0  0
  190.5510  174.8880  143.8860 C   0  0  2  0  0  3  0  0  0  0  0  0
  186.3190  178.7990  143.8250 O   0  0  0  0  0  0  0  0  0  0  0  0
  186.8940  177.3460  145.6310 C   0  0  0  0  0  0  0  0  0  0  0  0
  188.6220  176.1330  144.8510 C   0  0  0  0  0  0  0  0  0  0  0  0
  188.3520  177.1070  143.3580 S   0  0  0  0  0  0  0  0  0  0  0  0
  187.7380  176.4160  145.9320 N   0  0  0  0  0  0  0  0  0  0  0  0
  189.5880  175.2270  144.9820 C   0  0  0  0  0  3  0  0  0  0  0  0
  187.0410  177.8800  144.2880 C   0  0  0  0  0  0  0  0  0  0  0  0
  185.9220  177.8020  146.5230 O   0  0  0  0  0  0  0  0  0  0  0  0
  186.2010  178.0020  147.9000 C   0  0  0  0  0  2  0  0  0  0  0  0
  186.6860  179.4200  148.1160 C   0  0  0  0  0  1  0  0  0  0  0  0
  190.0840  173.7150  143.0670 C   0  0  0  0  0  0  0  0  0  0  0  0
  191.0530  174.7200  141.1650 O   0  0  0  0  0  1  0  0  0  0  0  0
  189.4070  172.6810  143.7070 O   0  0  0  0  0  1  0  0  0  0  0  0
  190.3400  173.6720  141.7460 C   0  0  0  0  0  0  0  0  0  0  0  0
  190.5880  171.4670  140.7630 N   0  0  0  0  0  2  0  0  0  0  0  0
  189.9050  172.5600  140.8650 C   0  0  0  0  0  0  0  0  0  0  0  0
  188.5760  172.6330  140.1920 C   0  0  0  0  0  2  0  0  0  0  0  0
  188.7120  173.2410  138.9440 O   0  0  0  0  0  1  0  0  0  0  0  0
  1  9  1  0  0  0  0
  2  7  1  0  0  0  0
  3  4  1  0  0  0  0
  3  1  2  0  0  0  0
  5  7  2  0  0  0  0
  5  8  1  0  0  0  0
  6  1  1  0  0  0  0
  7  3  1  0  0  0  0
  8  6  2  0  0  0  0
 10 19  1  6  0  0  0
 11 10  1  0  0  0  0
 11  9  1  1  0  0  0
 12 10  1  0  0  0  0
 13 14  1  0  0  0  0
 13 12  1  0  0  0  0
 14 15  1  6  0  0  0
 14 11  1  0  0  0  0
 16 17  1  0  0  0  0
 16 15  1  0  0  0  0
 18 17  1  0  0  0  0
 19 21  1  0  0  0  0
 21 20  1  1  0  0  0
 23 22  1  6  0  0  0
 23 21  1  0  0  0  0
 24 23  1  0  0  0  0
 25 24  1  0  0  0  0
 26 25  1  0  0  0  0
 26 27  2  0  0  0  0
 28  5  1  0  0  0  0
 28 34  1  1  0  0  0
 29 35  2  0  0  0  0
 30 33  2  0  0  0  0
 30 36  1  0  0  0  0
 31 34  2  0  0  0  0
 31 33  1  0  0  0  0
 32 35  1  0  0  0  0
 32 31  1  0  0  0  0
 35 30  1  0  0  0  0
 36 37  1  0  0  0  0
 37 38  1  0  0  0  0
 39 41  1  0  0  0  0
 39 28  1  0  0  0  0
 40 42  1  0  0  0  0
 42 39  2  0  0  0  0
 43 44  2  0  0  0  0
 44 42  1  0  0  0  0
 45 44  1  0  0  0  0
 46 45  1  0  0  0  0
M  END
>  <MODEL>
7

>  <REMARK>
 VINA RESULT:      -5.6      3.035      9.446
  Name = 
  18 active torsions:
  status: ('A' for Active; 'I' for Inactive)
    1  A    between atoms: C_1  and  C_21
    2  A    between atoms: C_3  and  C_11
    3  A    between atoms: C_3  and  C_22
    4  A    between atoms: C_3  and  C_38
    5  A    between atoms: C_4  and  C_23
    6  A    between atoms: C_5  and  C_18
    7  A    between atoms: C_6  and  C_21
    8  A    between atoms: O_8  and  C_14
    9  A    between atoms: O_8  and  C_26
   10  A    between atoms: O_13  and  C_35
   11  A    between atoms: C_18  and  C_45
   12  A    between atoms: C_23  and  C_30
   13  A    between atoms: C_27  and  C_34
   14  A    between atoms: C_27  and  C_40
   15  A    between atoms: C_28  and  C_34
   16  A    between atoms: C_30  and  C_40
   17  A    between atoms: C_31  and  C_33
   18  A    between atoms: C_31  and  C_35
                            x       y       z     vdW  Elec       q    Type
                         _______ _______ _______ _____ _____    ______ ____

>  <TORSDO>
F 18

$$$$
=
 OpenBabel11042415403D

 46 48  0  0  1  0  0  0  0  0999 V2000
  188.9420  176.4030  142.8470 C   0  0  0  0  0  0  0  0  0  0  0  0
  192.6980  175.8420  142.7710 C   0  0  0  0  0  1  0  0  0  0  0  0
  190.3260  176.6320  142.9290 C   0  0  0  0  0  0  0  0  0  0  0  0
  190.8010  177.9060  143.2270 O   0  0  0  0  0  1  0  0  0  0  0  0
  190.7410  174.2950  142.3850 C   0  0  0  0  0  0  0  0  0  0  0  0
  188.4640  175.1270  142.5400 C   0  0  0  0  0  3  0  0  0  0  0  0
  191.2280  175.5790  142.6970 C   0  0  0  0  0  0  0  0  0  0  0  0
  189.3570  174.0800  142.3120 C   0  0  0  0  0  3  0  0  0  0  0  0
  187.9730  177.5310  143.0080 C   0  0  0  0  0  2  0  0  0  0  0  0
  185.4110  177.6930  143.0250 C   0  0  2  0  0  3  0  0  0  0  0  0
  186.6580  177.2510  142.2680 C   0  0  1  0  0  3  0  0  0  0  0  0
  184.3710  177.8640  141.9340 C   0  0  0  0  0  2  0  0  0  0  0  0
  185.1250  178.2760  140.6790 C   0  0  0  0  0  2  0  0  0  0  0  0
  186.5850  177.9120  140.9000 C   0  0  2  0  0  3  0  0  0  0  0  0
  187.0470  176.9360  139.8320 C   0  0  0  0  0  2  0  0  0  0  0  0
  186.3260  177.2110  138.5280 C   0  0  0  0  0  2  0  0  0  0  0  0
  186.5350  176.1480  137.6520 O   0  0  0  0  0  0  0  0  0  0  0  0
  187.4390  175.3180  138.3160 C   0  0  0  0  0  1  0  0  0  0  0  0
  185.6070  179.0290  143.7450 C   0  0  0  0  0  2  0  0  0  0  0  0
  183.6380  179.1070  145.0800 O   0  0  0  0  0  1  0  0  0  0  0  0
  185.0280  178.9830  145.1520 C   0  0  1  0  0  3  0  0  0  0  0  0
  184.6180  177.5100  146.9930 O   0  0  0  0  0  1  0  0  0  0  0  0
  185.4040  177.6760  145.8510 C   0  0  2  0  0  3  0  0  0  0  0  0
  186.8670  177.6930  146.2710 C   0  0  0  0  0  2  0  0  0  0  0  0
  187.2000  176.4570  147.0930 C   0  0  0  0  0  2  0  0  0  0  0  0
  188.6350  176.0910  146.9130 C   0  0  0  0  0  3  0  0  0  0  0  0
  188.9650  175.3110  146.0350 O   0  0  0  0  0  0  0  0  0  0  0  0
  191.6940  173.1660  142.1010 C   0  0  2  0  0  3  0  0  0  0  0  0
  192.3610  173.3650  136.3800 O   0  0  0  0  0  0  0  0  0  0  0  0
  191.1310  171.7350  137.6180 C   0  0  0  0  0  0  0  0  0  0  0  0
  191.3790  172.3530  139.7670 C   0  0  0  0  0  0  0  0  0  0  0  0
  192.3780  173.6700  139.0490 S   0  0  0  0  0  0  0  0  0  0  0  0
  190.8150  171.4360  138.8340 N   0  0  0  0  0  0  0  0  0  0  0  0
  191.1360  172.2320  141.0700 C   0  0  0  0  0  3  0  0  0  0  0  0
  191.9670  172.9150  137.4860 C   0  0  0  0  0  0  0  0  0  0  0  0
  190.7030  170.9860  136.5200 O   0  0  0  0  0  0  0  0  0  0  0  0
  189.4630  171.2390  135.8770 C   0  0  0  0  0  2  0  0  0  0  0  0
  189.7160  171.8460  134.5130 C   0  0  0  0  0  1  0  0  0  0  0  0
  192.1000  172.4440  143.3570 C   0  0  0  0  0  0  0  0  0  0  0  0
  194.2770  172.2300  142.4720 O   0  0  0  0  0  1  0  0  0  0  0  0
  191.1540  172.2710  144.3630 O   0  0  0  0  0  1  0  0  0  0  0  0
  193.3610  171.9960  143.4970 C   0  0  0  0  0  0  0  0  0  0  0  0
  194.1800  171.8840  145.7790 N   0  0  0  0  0  2  0  0  0  0  0  0
  193.8410  171.2650  144.6970 C   0  0  0  0  0  0  0  0  0  0  0  0
  193.7910  169.7740  144.7170 C   0  0  0  0  0  2  0  0  0  0  0  0
  192.8680  169.3210  143.7740 O   0  0  0  0  0  1  0  0  0  0  0  0
  1  3  1  0  0  0  0
  1  9  1  0  0  0  0
  3  4  1  0  0  0  0
  5  7  1  0  0  0  0
  6  1  2  0  0  0  0
  7  2  1  0  0  0  0
  7  3  2  0  0  0  0
  8  5  2  0  0  0  0
  8  6  1  0  0  0  0
 10 19  1  6  0  0  0
 11  9  1  1  0  0  0
 11 10  1  0  0  0  0
 12 10  1  0  0  0  0
 13 14  1  0  0  0  0
 13 12  1  0  0  0  0
 14 15  1  6  0  0  0
 14 11  1  0  0  0  0
 16 15  1  0  0  0  0
 17 18  1  0  0  0  0
 17 16  1  0  0  0  0
 19 21  1  0  0  0  0
 21 20  1  6  0  0  0
 21 23  1  0  0  0  0
 23 24  1  0  0  0  0
 23 22  1  1  0  0  0
 24 25  1  0  0  0  0
 26 25  1  0  0  0  0
 27 26  2  0  0  0  0
 28 34  1  6  0  0  0
 28  5  1  0  0  0  0
 28 39  1  0  0  0  0
 29 35  2  0  0  0  0
 30 33  2  0  0  0  0
 31 34  2  0  0  0  0
 32 31  1  0  0  0  0
 33 31  1  0  0  0  0
 35 30  1  0  0  0  0
 35 32  1  0  0  0  0
 36 30  1  0  0  0  0
 37 36  1  0  0  0  0
 38 37  1  0  0  0  0
 39 42  2  0  0  0  0
 39 41  1  0  0  0  0
 40 42  1  0  0  0  0
 42 44  1  0  0  0  0
 44 45  1  0  0  0  0
 44 43  2  0  0  0  0
 46 45  1  0  0  0  0
M  END
>  <MODEL>
8

>  <REMARK>
 VINA RESULT:      -5.6      1.167      3.817
  Name = 
  18 active torsions:
  status: ('A' for Active; 'I' for Inactive)
    1  A    between atoms: C_1  and  C_21
    2  A    between atoms: C_3  and  C_11
    3  A    between atoms: C_3  and  C_22
    4  A    between atoms: C_3  and  C_38
    5  A    between atoms: C_4  and  C_23
    6  A    between atoms: C_5  and  C_18
    7  A    between atoms: C_6  and  C_21
    8  A    between atoms: O_8  and  C_14
    9  A    between atoms: O_8  and  C_26
   10  A    between atoms: O_13  and  C_35
   11  A    between atoms: C_18  and  C_45
   12  A    between atoms: C_23  and  C_30
   13  A    between atoms: C_27  and  C_34
   14  A    between atoms: C_27  and  C_40
   15  A    between atoms: C_28  and  C_34
   16  A    between atoms: C_30  and  C_40
   17  A    between atoms: C_31  and  C_33
   18  A    between atoms: C_31  and  C_35
                            x       y       z     vdW  Elec       q    Type
                         _______ _______ _______ _____ _____    ______ ____

>  <TORSDO>
F 18

$$$$
=
 OpenBabel11042415403D

 46 48  0  0  1  0  0  0  0  0999 V2000
  190.5560  172.7920  141.3420 C   0  0  0  0  0  0  0  0  0  0  0  0
  189.6930  172.9350  145.0390 C   0  0  0  0  0  1  0  0  0  0  0  0
  190.1530  172.4100  142.6320 C   0  0  0  0  0  0  0  0  0  0  0  0
  189.7550  171.0980  142.8740 O   0  0  0  0  0  1  0  0  0  0  0  0
  190.5330  174.6820  143.4220 C   0  0  0  0  0  0  0  0  0  0  0  0
  190.9480  174.1110  141.0970 C   0  0  0  0  0  3  0  0  0  0  0  0
  190.1400  173.3530  143.6740 C   0  0  0  0  0  0  0  0  0  0  0  0
  190.9380  175.0480  142.1300 C   0  0  0  0  0  3  0  0  0  0  0  0
  190.4940  171.8220  140.2060 C   0  0  0  0  0  2  0  0  0  0  0  0
  192.1420  170.7700  138.5430 C   0  0  2  0  0  3  0  0  0  0  0  0
  191.8400  171.1160  139.9960 C   0  0  1  0  0  3  0  0  0  0  0  0
  193.6540  170.6500  138.5090 C   0  0  0  0  0  2  0  0  0  0  0  0
  194.1860  171.6030  139.5670 C   0  0  0  0  0  2  0  0  0  0  0  0
  193.0280  171.9230  140.4990 C   0  0  2  0  0  3  0  0  0  0  0  0
  193.3680  171.5060  141.9190 C   0  0  0  0  0  2  0  0  0  0  0  0
  194.0400  172.6500  142.6510 C   0  0  0  0  0  2  0  0  0  0  0  0
  193.5790  172.6920  143.9650 O   0  0  0  0  0  0  0  0  0  0  0  0
  193.2610  171.3680  144.2670 C   0  0  0  0  0  1  0  0  0  0  0  0
  191.7050  171.8720  137.5750 C   0  0  0  0  0  2  0  0  0  0  0  0
  190.3280  170.0520  136.8970 O   0  0  0  0  0  1  0  0  0  0  0  0
  190.7590  171.3260  136.5140 C   0  0  1  0  0  3  0  0  0  0  0  0
  189.3420  172.4730  134.9660 O   0  0  0  0  0  1  0  0  0  0  0  0
  189.5580  172.2530  136.3270 C   0  0  2  0  0  3  0  0  0  0  0  0
  189.8070  173.5960  137.0000 C   0  0  0  0  0  2  0  0  0  0  0  0
  188.6200  173.9850  137.8670 C   0  0  0  0  0  2  0  0  0  0  0  0
  187.8100  175.0390  137.1880 C   0  0  0  0  0  3  0  0  0  0  0  0
  186.9740  175.6700  137.8130 O   0  0  0  0  0  0  0  0  0  0  0  0
  190.4920  175.7110  144.5180 C   0  0  2  0  0  3  0  0  0  0  0  0
  185.9610  177.1830  147.7600 O   0  0  0  0  0  0  0  0  0  0  0  0
  186.5940  178.1480  145.6690 C   0  0  0  0  0  0  0  0  0  0  0  0
  188.4610  177.0390  145.0780 C   0  0  0  0  0  0  0  0  0  0  0  0
  188.1910  176.1860  146.6430 S   0  0  0  0  0  0  0  0  0  0  0  0
  187.5020  178.0430  144.7570 N   0  0  0  0  0  0  0  0  0  0  0  0
  189.4560  176.7580  144.2410 C   0  0  0  0  0  3  0  0  0  0  0  0
  186.7550  177.2340  146.7870 C   0  0  0  0  0  0  0  0  0  0  0  0
  185.5430  179.0630  145.5880 O   0  0  0  0  0  0  0  0  0  0  0  0
  184.2250  178.6640  145.2440 C   0  0  0  0  0  2  0  0  0  0  0  0
  184.0740  178.6650  143.7370 C   0  0  0  0  0  1  0  0  0  0  0  0
  191.8480  176.3130  144.7750 C   0  0  0  0  0  0  0  0  0  0  0  0
  192.2610  174.5930  146.3360 O   0  0  0  0  0  1  0  0  0  0  0  0
  192.2230  177.4450  144.0560 O   0  0  0  0  0  1  0  0  0  0  0  0
  192.6760  175.7460  145.6710 C   0  0  0  0  0  0  0  0  0  0  0  0
  194.1940  177.1920  146.8930 N   0  0  0  0  0  2  0  0  0  0  0  0
  194.0220  176.2810  145.9930 C   0  0  0  0  0  0  0  0  0  0  0  0
  195.2280  175.6540  145.3770 C   0  0  0  0  0  2  0  0  0  0  0  0
  195.1730  175.7890  143.9900 O   0  0  0  0  0  1  0  0  0  0  0  0
  1  3  1  0  0  0  0
  3  4  1  0  0  0  0
  3  7  2  0  0  0  0
  5  7  1  0  0  0  0
  5 28  1  0  0  0  0
  6  1  2  0  0  0  0
  6  8  1  0  0  0  0
  7  2  1  0  0  0  0
  8  5  2  0  0  0  0
  9  1  1  0  0  0  0
 10 19  1  6  0  0  0
 10 11  1  0  0  0  0
 11  9  1  6  0  0  0
 11 14  1  0  0  0  0
 12 10  1  0  0  0  0
 12 13  1  0  0  0  0
 13 14  1  0  0  0  0
 14 15  1  1  0  0  0
 15 16  1  0  0  0  0
 16 17  1  0  0  0  0
 17 18  1  0  0  0  0
 21 20  1  1  0  0  0
 21 19  1  0  0  0  0
 23 22  1  6  0  0  0
 23 21  1  0  0  0  0
 23 24  1  0  0  0  0
 24 25  1  0  0  0  0
 26 27  2  0  0  0  0
 26 25  1  0  0  0  0
 28 34  1  6  0  0  0
 28 39  1  0  0  0  0
 30 35  1  0  0  0  0
 31 32  1  0  0  0  0
 32 35  1  0  0  0  0
 33 31  1  0  0  0  0
 33 30  2  0  0  0  0
 34 31  2  0  0  0  0
 35 29  2  0  0  0  0
 36 30  1  0  0  0  0
 37 36  1  0  0  0  0
 38 37  1  0  0  0  0
 39 42  2  0  0  0  0
 41 39  1  0  0  0  0
 42 44  1  0  0  0  0
 42 40  1  0  0  0  0
 44 43  2  0  0  0  0
 45 44  1  0  0  0  0
 46 45  1  0  0  0  0
M  END
>  <MODEL>
9

>  <REMARK>
 VINA RESULT:      -5.5      2.806      8.355
  Name = 
  18 active torsions:
  status: ('A' for Active; 'I' for Inactive)
    1  A    between atoms: C_1  and  C_21
    2  A    between atoms: C_3  and  C_11
    3  A    between atoms: C_3  and  C_22
    4  A    between atoms: C_3  and  C_38
    5  A    between atoms: C_4  and  C_23
    6  A    between atoms: C_5  and  C_18
    7  A    between atoms: C_6  and  C_21
    8  A    between atoms: O_8  and  C_14
    9  A    between atoms: O_8  and  C_26
   10  A    between atoms: O_13  and  C_35
   11  A    between atoms: C_18  and  C_45
   12  A    between atoms: C_23  and  C_30
   13  A    between atoms: C_27  and  C_34
   14  A    between atoms: C_27  and  C_40
   15  A    between atoms: C_28  and  C_34
   16  A    between atoms: C_30  and  C_40
   17  A    between atoms: C_31  and  C_33
   18  A    between atoms: C_31  and  C_35
                            x       y       z     vdW  Elec       q    Type
                         _______ _______ _______ _____ _____    ______ ____

>  <TORSDO>
F 18

$$$$
