=
 OpenBabel11042419553D

 41 44  0  0  1  0  0  0  0  0999 V2000
  188.0470  176.3440  141.4840 C   0  0  0  0  0  0  0  0  0  0  0  0
  187.5190  177.4470  144.2800 C   0  0  0  0  0  0  0  0  0  0  0  0
  188.6830  176.8920  143.8940 C   0  0  0  0  0  3  0  0  0  0  0  0
  187.2240  177.4880  141.0960 C   0  0  0  0  0  0  0  0  0  0  0  0
  187.0210  177.7490  139.8810 O   0  0  0  0  0  0  0  0  0  0  0  0
  187.7520  175.1350  140.9900 C   0  0  0  0  0  3  0  0  0  0  0  0
  185.8580  178.3980  145.7190 C   0  0  0  0  0  2  0  0  0  0  0  0
  189.1410  176.6410  142.4800 C   0  0  1  0  0  3  0  0  0  0  0  0
  185.4840  178.7110  144.2750 C   0  0  0  0  0  0  0  0  0  0  0  0
  186.3380  177.7750  143.4210 C   0  0  1  0  0  3  0  0  0  0  0  0
  184.0140  178.4210  144.0530 C   0  0  0  0  0  1  0  0  0  0  0  0
  187.2510  177.7720  145.7110 C   0  0  1  0  0  3  0  0  0  0  0  0
  185.7610  180.1840  144.0020 C   0  0  0  0  0  1  0  0  0  0  0  0
  186.6640  178.3230  142.1060 N   0  0  0  0  0  2  0  0  0  0  0  0
  187.2550  176.5100  146.5670 C   0  0  0  0  0  2  0  0  0  0  0  0
  189.6400  177.0430  147.1560 N   0  0  0  0  0  0  0  0  0  0  0  0
  190.4310  174.9710  147.6550 N   0  0  0  0  0  0  0  0  0  0  0  0
  191.9470  177.0180  147.9390 C   0  0  0  0  0  1  0  0  0  0  0  0
  188.6190  176.1300  146.8970 N   0  0  0  0  0  0  0  0  0  0  0  0
  190.6590  176.3750  147.5680 C   0  0  0  0  0  0  0  0  0  0  0  0
  189.0520  174.7840  147.2220 C   0  0  0  0  0  3  0  0  0  0  0  0
  190.1970  175.7260  142.4470 O   0  0  0  0  0  0  0  0  0  0  0  0
  190.6290  175.6270  143.7700 C   0  0  0  0  0  2  0  0  0  0  0  0
  190.9590  174.1820  144.0840 C   0  0  0  0  0  2  0  0  0  0  0  0
  191.8070  173.6080  142.9690 C   0  0  0  0  0  2  0  0  0  0  0  0
  192.8650  172.6930  143.5530 C   0  0  0  0  0  2  0  0  0  0  0  0
  192.9280  172.8880  144.9900 N   0  0  0  0  0  2  0  0  0  0  0  0
  194.3160  173.1620  145.3340 C   0  0  0  0  0  2  0  0  0  0  0  0
  194.4900  174.5810  145.5900 N   0  0  0  0  0  2  0  0  0  0  0  0
  195.7380  174.9680  144.9590 C   0  0  0  0  0  2  0  0  0  0  0  0
  194.2350  176.0300  142.2540 C   0  0  0  0  0  2  0  0  0  0  0  0
  194.2600  176.3870  143.7450 C   0  0  0  0  0  2  0  0  0  0  0  0
  195.2430  175.0180  141.9750 N   0  0  0  0  0  0  0  0  0  0  0  0
  196.5670  175.6260  142.1200 C   0  0  0  0  0  2  0  0  0  0  0  0
  195.0960  174.6520  140.5780 C   0  0  0  0  0  1  0  0  0  0  0  0
  196.6840  176.5030  143.3840 C   0  0  0  0  0  2  0  0  0  0  0  0
  195.5970  176.2850  144.3540 N   0  0  0  0  0  0  0  0  0  0  0  0
  188.4720  173.8720  141.3350 C   0  0  0  0  0  2  0  0  0  0  0  0
  188.3890  173.7330  138.9980 C   0  0  0  0  0  1  0  0  0  0  0  0
  189.6580  172.2070  140.2180 C   0  0  0  0  0  1  0  0  0  0  0  0
  188.4060  172.9440  140.2190 N   0  0  0  0  0  0  0  0  0  0  0  0
  1  8  1  0  0  0  0
  2 12  1  0  0  0  0
  3  2  2  0  0  0  0
  4  1  1  0  0  0  0
  4 14  1  0  0  0  0
  5  4  2  0  0  0  0
  6 38  1  0  0  0  0
  6  1  2  0  0  0  0
  8 22  1  1  0  0  0
  8  3  1  0  0  0  0
  9  7  1  0  0  0  0
 10 14  1  6  0  0  0
 10  9  1  0  0  0  0
 10  2  1  0  0  0  0
 11  9  1  0  0  0  0
 12  7  1  0  0  0  0
 12 15  1  1  0  0  0
 13  9  1  0  0  0  0
 15 19  1  0  0  0  0
 16 20  2  0  0  0  0
 19 16  1  0  0  0  0
 19 21  1  0  0  0  0
 20 17  1  0  0  0  0
 20 18  1  0  0  0  0
 21 17  2  0  0  0  0
 22 23  1  0  0  0  0
 23 24  1  0  0  0  0
 25 26  1  0  0  0  0
 25 24  1  0  0  0  0
 26 27  1  0  0  0  0
 27 28  1  0  0  0  0
 28 29  1  0  0  0  0
 30 29  1  0  0  0  0
 31 32  1  0  0  0  0
 32 37  1  0  0  0  0
 33 34  1  0  0  0  0
 33 31  1  0  0  0  0
 34 36  1  0  0  0  0
 35 33  1  0  0  0  0
 36 37  1  0  0  0  0
 37 30  1  0  0  0  0
 39 41  1  0  0  0  0
 40 41  1  0  0  0  0
 41 38  1  0  0  0  0
M  END
>  <MODEL>
1

>  <REMARK>
 VINA RESULT:      -6.7      0.000      0.000
  Name = 
  14 active torsions:
  status: ('A' for Active; 'I' for Inactive)
    1  A    between atoms: N_3  and  C_17
    2  A    between atoms: N_3  and  C_32
    3  A    between atoms: C_4  and  N_30
    4  A    between atoms: C_4  and  C_35
    5  A    between atoms: C_15  and  C_26
    6  A    between atoms: C_17  and  N_37
    7  A    between atoms: C_19  and  O_20
    8  A    between atoms: O_20  and  C_21
    9  A    between atoms: C_21  and  C_22
   10  A    between atoms: C_22  and  C_28
   11  A    between atoms: N_25  and  C_32
   12  A    between atoms: N_25  and  C_39
   13  A    between atoms: C_26  and  N_40
   14  A    between atoms: C_28  and  C_39
                            x       y       z     vdW  Elec       q    Type
                         _______ _______ _______ _____ _____    ______ ____

>  <TORSDO>
F 14

$$$$
=
 OpenBabel11042419553D

 41 44  0  0  1  0  0  0  0  0999 V2000
  189.8240  176.0120  145.2670 C   0  0  0  0  0  0  0  0  0  0  0  0
  187.0840  177.2550  144.7550 C   0  0  0  0  0  0  0  0  0  0  0  0
  187.7650  176.5290  143.8500 C   0  0  0  0  0  3  0  0  0  0  0  0
  189.2590  175.8070  146.6000 C   0  0  0  0  0  0  0  0  0  0  0  0
  189.9110  175.1940  147.4840 O   0  0  0  0  0  0  0  0  0  0  0  0
  191.0340  176.5730  145.1540 C   0  0  0  0  0  3  0  0  0  0  0  0
  185.3810  178.6670  145.6740 C   0  0  0  0  0  2  0  0  0  0  0  0
  188.9320  175.6120  144.1170 C   0  0  1  0  0  3  0  0  0  0  0  0
  186.1540  178.0280  146.8230 C   0  0  0  0  0  0  0  0  0  0  0  0
  187.4300  177.4700  146.1960 C   0  0  1  0  0  3  0  0  0  0  0  0
  186.4990  179.0820  147.8550 C   0  0  0  0  0  1  0  0  0  0  0  0
  185.8550  178.0110  144.3780 C   0  0  1  0  0  3  0  0  0  0  0  0
  185.2850  176.9530  147.4630 C   0  0  0  0  0  1  0  0  0  0  0  0
  187.9510  176.2930  146.8880 N   0  0  0  0  0  2  0  0  0  0  0  0
  186.1700  179.0830  143.3420 C   0  0  0  0  0  2  0  0  0  0  0  0
  186.6480  178.1120  141.0730 N   0  0  0  0  0  0  0  0  0  0  0  0
  184.5400  177.8300  140.2740 N   0  0  0  0  0  0  0  0  0  0  0  0
  186.5450  177.0450  138.8850 C   0  0  0  0  0  1  0  0  0  0  0  0
  185.7690  178.6380  142.0180 N   0  0  0  0  0  0  0  0  0  0  0  0
  185.9440  177.6740  140.0910 C   0  0  0  0  0  0  0  0  0  0  0  0
  184.3970  178.4650  141.5790 C   0  0  0  0  0  3  0  0  0  0  0  0
  189.6270  175.3230  142.9390 O   0  0  0  0  0  0  0  0  0  0  0  0
  188.6350  175.1050  141.9810 C   0  0  0  0  0  2  0  0  0  0  0  0
  189.0780  174.0010  141.0440 C   0  0  0  0  0  2  0  0  0  0  0  0
  188.5100  172.6800  141.5190 C   0  0  0  0  0  2  0  0  0  0  0  0
  189.5460  171.9500  142.3510 C   0  0  0  0  0  2  0  0  0  0  0  0
  189.1280  171.9460  143.7420 N   0  0  0  0  0  2  0  0  0  0  0  0
  190.3130  172.1730  144.5550 C   0  0  0  0  0  2  0  0  0  0  0  0
  191.3680  172.7500  143.7400 N   0  0  0  0  0  2  0  0  0  0  0  0
  192.5630  172.7770  144.5630 C   0  0  0  0  0  2  0  0  0  0  0  0
  194.4790  170.1580  144.1480 C   0  0  0  0  0  2  0  0  0  0  0  0
  193.6930  171.1340  143.2630 C   0  0  0  0  0  2  0  0  0  0  0  0
  194.4340  170.6070  145.5310 N   0  0  0  0  0  0  0  0  0  0  0  0
  195.2280  171.8320  145.6500 C   0  0  0  0  0  2  0  0  0  0  0  0
  195.1030  169.5920  146.3240 C   0  0  0  0  0  1  0  0  0  0  0  0
  194.9560  172.8310  144.5060 C   0  0  0  0  0  2  0  0  0  0  0  0
  193.7370  172.5270  143.7380 N   0  0  0  0  0  0  0  0  0  0  0  0
  191.7130  176.8870  143.8610 C   0  0  0  0  0  2  0  0  0  0  0  0
  193.4430  176.3220  142.3870 C   0  0  0  0  0  1  0  0  0  0  0  0
  193.8690  176.5290  144.6670 C   0  0  0  0  0  1  0  0  0  0  0  0
  192.8920  176.0520  143.7050 N   0  0  0  0  0  0  0  0  0  0  0  0
  1  4  1  0  0  0  0
  3  8  1  0  0  0  0
  3  2  2  0  0  0  0
  4 14  1  0  0  0  0
  4  5  2  0  0  0  0
  6  1  2  0  0  0  0
  7  9  1  0  0  0  0
  8 22  1  6  0  0  0
  8  1  1  0  0  0  0
  9 13  1  0  0  0  0
  9 11  1  0  0  0  0
 10  2  1  6  0  0  0
 10  9  1  0  0  0  0
 10 14  1  0  0  0  0
 12 15  1  6  0  0  0
 12  2  1  0  0  0  0
 12  7  1  0  0  0  0
 16 19  1  0  0  0  0
 17 21  2  0  0  0  0
 18 20  1  0  0  0  0
 19 15  1  0  0  0  0
 20 17  1  0  0  0  0
 20 16  2  0  0  0  0
 21 19  1  0  0  0  0
 23 22  1  0  0  0  0
 24 25  1  0  0  0  0
 24 23  1  0  0  0  0
 25 26  1  0  0  0  0
 26 27  1  0  0  0  0
 27 28  1  0  0  0  0
 29 28  1  0  0  0  0
 29 30  1  0  0  0  0
 31 33  1  0  0  0  0
 32 37  1  0  0  0  0
 32 31  1  0  0  0  0
 33 34  1  0  0  0  0
 33 35  1  0  0  0  0
 36 34  1  0  0  0  0
 37 36  1  0  0  0  0
 37 30  1  0  0  0  0
 38  6  1  0  0  0  0
 39 41  1  0  0  0  0
 41 38  1  0  0  0  0
 41 40  1  0  0  0  0
M  END
>  <MODEL>
2

>  <REMARK>
 VINA RESULT:      -6.6      2.032      5.451
  Name = 
  14 active torsions:
  status: ('A' for Active; 'I' for Inactive)
    1  A    between atoms: N_3  and  C_17
    2  A    between atoms: N_3  and  C_32
    3  A    between atoms: C_4  and  N_30
    4  A    between atoms: C_4  and  C_35
    5  A    between atoms: C_15  and  C_26
    6  A    between atoms: C_17  and  N_37
    7  A    between atoms: C_19  and  O_20
    8  A    between atoms: O_20  and  C_21
    9  A    between atoms: C_21  and  C_22
   10  A    between atoms: C_22  and  C_28
   11  A    between atoms: N_25  and  C_32
   12  A    between atoms: N_25  and  C_39
   13  A    between atoms: C_26  and  N_40
   14  A    between atoms: C_28  and  C_39
                            x       y       z     vdW  Elec       q    Type
                         _______ _______ _______ _____ _____    ______ ____

>  <TORSDO>
F 14

$$$$
=
 OpenBabel11042419553D

 41 44  0  0  1  0  0  0  0  0999 V2000
  187.6680  177.2510  142.2900 C   0  0  0  0  0  0  0  0  0  0  0  0
  188.0160  177.1880  145.3220 C   0  0  0  0  0  0  0  0  0  0  0  0
  189.0360  177.1720  144.4430 C   0  0  0  0  0  3  0  0  0  0  0  0
  186.5650  178.1460  142.6370 C   0  0  0  0  0  0  0  0  0  0  0  0
  185.8850  178.7030  141.7370 O   0  0  0  0  0  0  0  0  0  0  0  0
  187.4370  176.2330  141.4510 C   0  0  0  0  0  3  0  0  0  0  0  0
  186.8590  177.0710  147.4150 C   0  0  0  0  0  2  0  0  0  0  0  0
  188.9770  177.5370  142.9810 C   0  0  1  0  0  3  0  0  0  0  0  0
  185.9290  177.6950  146.3810 C   0  0  0  0  0  0  0  0  0  0  0  0
  186.5630  177.3900  145.0260 C   0  0  1  0  0  3  0  0  0  0  0  0
  184.5600  177.0530  146.4710 C   0  0  0  0  0  1  0  0  0  0  0  0
  188.2400  176.9410  146.7760 C   0  0  1  0  0  3  0  0  0  0  0  0
  185.8120  179.1880  146.6620 C   0  0  0  0  0  1  0  0  0  0  0  0
  186.2750  178.4000  144.0090 N   0  0  0  0  0  2  0  0  0  0  0  0
  188.7900  175.5390  147.0130 C   0  0  0  0  0  2  0  0  0  0  0  0
  191.0710  174.6910  146.3850 N   0  0  0  0  0  0  0  0  0  0  0  0
  192.3930  176.2930  147.3070 N   0  0  0  0  0  0  0  0  0  0  0  0
  193.4490  174.4000  145.9400 C   0  0  0  0  0  1  0  0  0  0  0  0
  190.2420  175.5720  147.0760 N   0  0  0  0  0  0  0  0  0  0  0  0
  192.2810  175.1000  146.5360 C   0  0  0  0  0  0  0  0  0  0  0  0
  191.0240  176.6400  147.6690 C   0  0  0  0  0  3  0  0  0  0  0  0
  190.0950  177.0530  142.2960 O   0  0  0  0  0  0  0  0  0  0  0  0
  191.0140  176.7240  143.2930 C   0  0  0  0  0  2  0  0  0  0  0  0
  192.2680  176.1640  142.6540 C   0  0  0  0  0  2  0  0  0  0  0  0
  192.1510  174.6570  142.5520 C   0  0  0  0  0  2  0  0  0  0  0  0
  191.9800  174.2560  141.1010 C   0  0  0  0  0  2  0  0  0  0  0  0
  193.2490  174.3980  140.4110 N   0  0  0  0  0  2  0  0  0  0  0  0
  193.4850  173.1670  139.6700 C   0  0  0  0  0  2  0  0  0  0  0  0
  194.9000  172.8390  139.6960 N   0  0  0  0  0  2  0  0  0  0  0  0
  195.4970  173.6510  140.7410 C   0  0  0  0  0  2  0  0  0  0  0  0
  197.9410  175.1960  142.2710 C   0  0  0  0  0  2  0  0  0  0  0  0
  197.7740  173.9800  141.3520 C   0  0  0  0  0  2  0  0  0  0  0  0
  196.6720  175.9000  142.3870 N   0  0  0  0  0  0  0  0  0  0  0  0
  196.3690  176.5300  141.1010 C   0  0  0  0  0  2  0  0  0  0  0  0
  196.8720  176.9710  143.3450 C   0  0  0  0  0  1  0  0  0  0  0  0
  196.6220  175.5900  139.9030 C   0  0  0  0  0  2  0  0  0  0  0  0
  196.7760  174.1770  140.2870 N   0  0  0  0  0  0  0  0  0  0  0  0
  188.4510  175.2130  141.0470 C   0  0  0  0  0  2  0  0  0  0  0  0
  188.4700  172.9460  140.4580 C   0  0  0  0  0  1  0  0  0  0  0  0
  188.7520  173.5810  142.6810 C   0  0  0  0  0  1  0  0  0  0  0  0
  188.0190  173.8910  141.4670 N   0  0  0  0  0  0  0  0  0  0  0  0
  1  4  1  0  0  0  0
  1  8  1  0  0  0  0
  2 12  1  0  0  0  0
  3  2  2  0  0  0  0
  4 14  1  0  0  0  0
  5  4  2  0  0  0  0
  6  1  2  0  0  0  0
  8 22  1  6  0  0  0
  8  3  1  0  0  0  0
  9 11  1  0  0  0  0
  9 13  1  0  0  0  0
  9  7  1  0  0  0  0
 10 14  1  6  0  0  0
 10  2  1  0  0  0  0
 10  9  1  0  0  0  0
 12 15  1  6  0  0  0
 12  7  1  0  0  0  0
 15 19  1  0  0  0  0
 16 20  2  0  0  0  0
 16 19  1  0  0  0  0
 17 21  2  0  0  0  0
 18 20  1  0  0  0  0
 19 21  1  0  0  0  0
 20 17  1  0  0  0  0
 22 23  1  0  0  0  0
 24 23  1  0  0  0  0
 25 24  1  0  0  0  0
 26 25  1  0  0  0  0
 27 26  1  0  0  0  0
 28 29  1  0  0  0  0
 28 27  1  0  0  0  0
 29 30  1  0  0  0  0
 31 33  1  0  0  0  0
 32 31  1  0  0  0  0
 33 35  1  0  0  0  0
 34 33  1  0  0  0  0
 36 37  1  0  0  0  0
 36 34  1  0  0  0  0
 37 30  1  0  0  0  0
 37 32  1  0  0  0  0
 38  6  1  0  0  0  0
 38 41  1  0  0  0  0
 39 41  1  0  0  0  0
 41 40  1  0  0  0  0
M  END
>  <MODEL>
3

>  <REMARK>
 VINA RESULT:      -6.5      1.692      2.897
  Name = 
  14 active torsions:
  status: ('A' for Active; 'I' for Inactive)
    1  A    between atoms: N_3  and  C_17
    2  A    between atoms: N_3  and  C_32
    3  A    between atoms: C_4  and  N_30
    4  A    between atoms: C_4  and  C_35
    5  A    between atoms: C_15  and  C_26
    6  A    between atoms: C_17  and  N_37
    7  A    between atoms: C_19  and  O_20
    8  A    between atoms: O_20  and  C_21
    9  A    between atoms: C_21  and  C_22
   10  A    between atoms: C_22  and  C_28
   11  A    between atoms: N_25  and  C_32
   12  A    between atoms: N_25  and  C_39
   13  A    between atoms: C_26  and  N_40
   14  A    between atoms: C_28  and  C_39
                            x       y       z     vdW  Elec       q    Type
                         _______ _______ _______ _____ _____    ______ ____

>  <TORSDO>
F 14

$$$$
=
 OpenBabel11042419553D

 41 44  0  0  1  0  0  0  0  0999 V2000
  189.3950  176.4820  144.9390 C   0  0  0  0  0  0  0  0  0  0  0  0
  186.4780  177.3260  144.6320 C   0  0  0  0  0  0  0  0  0  0  0  0
  187.1480  176.5790  143.7340 C   0  0  0  0  0  3  0  0  0  0  0  0
  189.0070  176.3760  146.3450 C   0  0  0  0  0  0  0  0  0  0  0  0
  189.8230  175.9550  147.2050 O   0  0  0  0  0  0  0  0  0  0  0  0
  190.5030  177.1630  144.6220 C   0  0  0  0  0  3  0  0  0  0  0  0
  184.7140  178.6310  145.5920 C   0  0  0  0  0  2  0  0  0  0  0  0
  188.4460  175.8450  143.9560 C   0  0  1  0  0  3  0  0  0  0  0  0
  185.6810  178.2310  146.7010 C   0  0  0  0  0  0  0  0  0  0  0  0
  186.9440  177.7530  145.9880 C   0  0  1  0  0  3  0  0  0  0  0  0
  185.9950  179.4350  147.5650 C   0  0  0  0  0  1  0  0  0  0  0  0
  185.1280  177.8820  144.3270 C   0  0  1  0  0  3  0  0  0  0  0  0
  185.0320  177.1470  147.5530 C   0  0  0  0  0  1  0  0  0  0  0  0
  187.6850  176.7380  146.7350 N   0  0  0  0  0  2  0  0  0  0  0  0
  185.1900  178.8500  143.1510 C   0  0  0  0  0  2  0  0  0  0  0  0
  182.8590  178.5060  142.2740 N   0  0  0  0  0  0  0  0  0  0  0  0
  183.2880  178.0140  140.0970 N   0  0  0  0  0  0  0  0  0  0  0  0
  180.8640  178.2020  140.9090 C   0  0  0  0  0  1  0  0  0  0  0  0
  184.2430  178.4530  142.1210 N   0  0  0  0  0  0  0  0  0  0  0  0
  182.3340  178.2430  141.1300 C   0  0  0  0  0  0  0  0  0  0  0  0
  184.5870  178.1680  140.7410 C   0  0  0  0  0  3  0  0  0  0  0  0
  189.0420  175.4980  142.7400 O   0  0  0  0  0  0  0  0  0  0  0  0
  188.0770  174.7470  142.0660 C   0  0  0  0  0  2  0  0  0  0  0  0
  188.5510  173.3140  141.9430 C   0  0  0  0  0  2  0  0  0  0  0  0
  189.9170  173.1810  142.5830 C   0  0  0  0  0  2  0  0  0  0  0  0
  190.1060  171.7660  143.0920 C   0  0  0  0  0  2  0  0  0  0  0  0
  191.0050  171.7810  144.2330 N   0  0  0  0  0  2  0  0  0  0  0  0
  191.3370  173.1710  144.5080 C   0  0  0  0  0  2  0  0  0  0  0  0
  192.6470  173.2500  145.1330 N   0  0  0  0  0  2  0  0  0  0  0  0
  193.6050  172.7760  144.1510 C   0  0  0  0  0  2  0  0  0  0  0  0
  196.7810  172.3930  143.4660 C   0  0  0  0  0  2  0  0  0  0  0  0
  195.6190  173.2680  142.9800 C   0  0  0  0  0  2  0  0  0  0  0  0
  196.3580  171.6130  144.6190 N   0  0  0  0  0  0  0  0  0  0  0  0
  196.1650  172.5200  145.7510 C   0  0  0  0  0  2  0  0  0  0  0  0
  197.4630  170.7370  144.9630 C   0  0  0  0  0  1  0  0  0  0  0  0
  195.3970  173.8010  145.3640 C   0  0  0  0  0  2  0  0  0  0  0  0
  194.7200  173.7090  144.0600 N   0  0  0  0  0  0  0  0  0  0  0  0
  190.9940  177.3940  143.2300 C   0  0  0  0  0  2  0  0  0  0  0  0
  192.8720  176.8100  144.5020 C   0  0  0  0  0  1  0  0  0  0  0  0
  192.5770  175.9170  142.3710 C   0  0  0  0  0  1  0  0  0  0  0  0
  192.4200  177.1280  143.1570 N   0  0  0  0  0  0  0  0  0  0  0  0
  1  4  1  0  0  0  0
  3  8  1  0  0  0  0
  3  2  2  0  0  0  0
  4 14  1  0  0  0  0
  4  5  2  0  0  0  0
  6  1  2  0  0  0  0
  7  9  1  0  0  0  0
  8 22  1  6  0  0  0
  8  1  1  0  0  0  0
  9 13  1  0  0  0  0
  9 11  1  0  0  0  0
 10  2  1  6  0  0  0
 10  9  1  0  0  0  0
 10 14  1  0  0  0  0
 12 15  1  6  0  0  0
 12  2  1  0  0  0  0
 12  7  1  0  0  0  0
 17 21  2  0  0  0  0
 17 20  1  0  0  0  0
 18 20  1  0  0  0  0
 19 16  1  0  0  0  0
 19 15  1  0  0  0  0
 20 16  2  0  0  0  0
 21 19  1  0  0  0  0
 23 22  1  0  0  0  0
 24 23  1  0  0  0  0
 24 25  1  0  0  0  0
 25 26  1  0  0  0  0
 26 27  1  0  0  0  0
 27 28  1  0  0  0  0
 28 29  1  0  0  0  0
 30 29  1  0  0  0  0
 31 33  1  0  0  0  0
 32 31  1  0  0  0  0
 32 37  1  0  0  0  0
 33 35  1  0  0  0  0
 33 34  1  0  0  0  0
 36 34  1  0  0  0  0
 37 30  1  0  0  0  0
 37 36  1  0  0  0  0
 38  6  1  0  0  0  0
 40 41  1  0  0  0  0
 41 38  1  0  0  0  0
 41 39  1  0  0  0  0
M  END
>  <MODEL>
4

>  <REMARK>
 VINA RESULT:      -6.5      2.332      5.413
  Name = 
  14 active torsions:
  status: ('A' for Active; 'I' for Inactive)
    1  A    between atoms: N_3  and  C_17
    2  A    between atoms: N_3  and  C_32
    3  A    between atoms: C_4  and  N_30
    4  A    between atoms: C_4  and  C_35
    5  A    between atoms: C_15  and  C_26
    6  A    between atoms: C_17  and  N_37
    7  A    between atoms: C_19  and  O_20
    8  A    between atoms: O_20  and  C_21
    9  A    between atoms: C_21  and  C_22
   10  A    between atoms: C_22  and  C_28
   11  A    between atoms: N_25  and  C_32
   12  A    between atoms: N_25  and  C_39
   13  A    between atoms: C_26  and  N_40
   14  A    between atoms: C_28  and  C_39
                            x       y       z     vdW  Elec       q    Type
                         _______ _______ _______ _____ _____    ______ ____

>  <TORSDO>
F 14

$$$$
=
 OpenBabel11042419553D

 41 44  0  0  1  0  0  0  0  0999 V2000
  189.9800  175.9940  145.2260 C   0  0  0  0  0  0  0  0  0  0  0  0
  187.1540  177.1230  144.9860 C   0  0  0  0  0  0  0  0  0  0  0  0
  187.7570  176.3840  144.0350 C   0  0  0  0  0  3  0  0  0  0  0  0
  189.5770  175.8240  146.6210 C   0  0  0  0  0  0  0  0  0  0  0  0
  190.3470  175.2700  147.4480 O   0  0  0  0  0  0  0  0  0  0  0  0
  191.1480  176.5910  144.9560 C   0  0  0  0  0  3  0  0  0  0  0  0
  185.5140  178.5130  146.0410 C   0  0  0  0  0  2  0  0  0  0  0  0
  188.9810  175.5190  144.2010 C   0  0  1  0  0  3  0  0  0  0  0  0
  186.4350  177.9470  147.1160 C   0  0  0  0  0  0  0  0  0  0  0  0
  187.6520  177.4080  146.3690 C   0  0  1  0  0  3  0  0  0  0  0  0
  186.8540  179.0530  148.0640 C   0  0  0  0  0  1  0  0  0  0  0  0
  185.8630  177.8220  144.7240 C   0  0  1  0  0  3  0  0  0  0  0  0
  185.6850  176.8700  147.8890 C   0  0  0  0  0  1  0  0  0  0  0  0
  188.2920  176.2770  147.0390 N   0  0  0  0  0  2  0  0  0  0  0  0
  186.0190  178.8610  143.6200 C   0  0  0  0  0  2  0  0  0  0  0  0
  183.8740  178.4150  142.3880 N   0  0  0  0  0  0  0  0  0  0  0  0
  184.6530  178.0790  140.2790 N   0  0  0  0  0  0  0  0  0  0  0  0
  182.1300  178.0580  140.7250 C   0  0  0  0  0  1  0  0  0  0  0  0
  185.2660  178.4620  142.4420 N   0  0  0  0  0  0  0  0  0  0  0  0
  183.5430  178.1830  141.1670 C   0  0  0  0  0  0  0  0  0  0  0  0
  185.8290  178.2820  141.1180 C   0  0  0  0  0  3  0  0  0  0  0  0
  189.5480  175.2070  142.9630 O   0  0  0  0  0  0  0  0  0  0  0  0
  188.5060  175.3430  142.0440 C   0  0  0  0  0  2  0  0  0  0  0  0
  188.3720  174.0640  141.2440 C   0  0  0  0  0  2  0  0  0  0  0  0
  189.7250  173.6790  140.6820 C   0  0  0  0  0  2  0  0  0  0  0  0
  190.0390  172.2430  141.0480 C   0  0  0  0  0  2  0  0  0  0  0  0
  191.1100  172.2200  142.0280 N   0  0  0  0  0  2  0  0  0  0  0  0
  190.5180  171.8830  143.3140 C   0  0  0  0  0  2  0  0  0  0  0  0
  191.5660  171.6360  144.2900 N   0  0  0  0  0  2  0  0  0  0  0  0
  192.4540  170.6470  143.7060 C   0  0  0  0  0  2  0  0  0  0  0  0
  195.1970  172.2500  144.4870 C   0  0  0  0  0  2  0  0  0  0  0  0
  194.0080  171.6220  145.2240 C   0  0  0  0  0  2  0  0  0  0  0  0
  195.1140  171.9370  143.0680 N   0  0  0  0  0  0  0  0  0  0  0  0
  195.3680  170.5060  142.8910 C   0  0  0  0  0  2  0  0  0  0  0  0
  196.2030  172.6430  142.4180 C   0  0  0  0  0  1  0  0  0  0  0  0
  194.6130  169.6360  143.9180 C   0  0  0  0  0  2  0  0  0  0  0  0
  193.5440  170.3580  144.6270 N   0  0  0  0  0  0  0  0  0  0  0  0
  191.6640  176.8750  143.5830 C   0  0  0  0  0  2  0  0  0  0  0  0
  193.6600  176.6590  144.7910 C   0  0  0  0  0  1  0  0  0  0  0  0
  193.0500  175.0360  143.2360 C   0  0  0  0  0  1  0  0  0  0  0  0
  193.0550  176.4670  143.4830 N   0  0  0  0  0  0  0  0  0  0  0  0
  1  4  1  0  0  0  0
  3  8  1  0  0  0  0
  3  2  2  0  0  0  0
  4 14  1  0  0  0  0
  4  5  2  0  0  0  0
  6  1  2  0  0  0  0
  7  9  1  0  0  0  0
  8 22  1  6  0  0  0
  8  1  1  0  0  0  0
  9 13  1  0  0  0  0
  9 11  1  0  0  0  0
 10  2  1  6  0  0  0
 10 14  1  0  0  0  0
 10  9  1  0  0  0  0
 12 15  1  6  0  0  0
 12  2  1  0  0  0  0
 12  7  1  0  0  0  0
 16 19  1  0  0  0  0
 17 21  2  0  0  0  0
 17 20  1  0  0  0  0
 18 20  1  0  0  0  0
 19 15  1  0  0  0  0
 20 16  2  0  0  0  0
 21 19  1  0  0  0  0
 23 22  1  0  0  0  0
 24 23  1  0  0  0  0
 25 26  1  0  0  0  0
 25 24  1  0  0  0  0
 26 27  1  0  0  0  0
 27 28  1  0  0  0  0
 28 29  1  0  0  0  0
 30 29  1  0  0  0  0
 30 37  1  0  0  0  0
 31 32  1  0  0  0  0
 33 31  1  0  0  0  0
 34 33  1  0  0  0  0
 34 36  1  0  0  0  0
 35 33  1  0  0  0  0
 36 37  1  0  0  0  0
 37 32  1  0  0  0  0
 38  6  1  0  0  0  0
 40 41  1  0  0  0  0
 41 38  1  0  0  0  0
 41 39  1  0  0  0  0
M  END
>  <MODEL>
5

>  <REMARK>
 VINA RESULT:      -6.4      2.177      5.554
  Name = 
  14 active torsions:
  status: ('A' for Active; 'I' for Inactive)
    1  A    between atoms: N_3  and  C_17
    2  A    between atoms: N_3  and  C_32
    3  A    between atoms: C_4  and  N_30
    4  A    between atoms: C_4  and  C_35
    5  A    between atoms: C_15  and  C_26
    6  A    between atoms: C_17  and  N_37
    7  A    between atoms: C_19  and  O_20
    8  A    between atoms: O_20  and  C_21
    9  A    between atoms: C_21  and  C_22
   10  A    between atoms: C_22  and  C_28
   11  A    between atoms: N_25  and  C_32
   12  A    between atoms: N_25  and  C_39
   13  A    between atoms: C_26  and  N_40
   14  A    between atoms: C_28  and  C_39
                            x       y       z     vdW  Elec       q    Type
                         _______ _______ _______ _____ _____    ______ ____

>  <TORSDO>
F 14

$$$$
=
 OpenBabel11042419553D

 41 44  0  0  1  0  0  0  0  0999 V2000
  187.7450  177.1430  142.2890 C   0  0  0  0  0  0  0  0  0  0  0  0
  187.9520  177.2950  145.3300 C   0  0  0  0  0  0  0  0  0  0  0  0
  189.0100  177.2020  144.5050 C   0  0  0  0  0  3  0  0  0  0  0  0
  186.6430  178.0750  142.5180 C   0  0  0  0  0  0  0  0  0  0  0  0
  186.0140  178.5750  141.5490 O   0  0  0  0  0  0  0  0  0  0  0  0
  187.5380  176.0700  141.5150 C   0  0  0  0  0  3  0  0  0  0  0  0
  186.6960  177.3450  147.3700 C   0  0  0  0  0  2  0  0  0  0  0  0
  189.0260  177.4620  143.0190 C   0  0  1  0  0  3  0  0  0  0  0  0
  185.8260  177.9040  146.2500 C   0  0  0  0  0  0  0  0  0  0  0  0
  186.5170  177.4940  144.9520 C   0  0  1  0  0  3  0  0  0  0  0  0
  184.4440  177.2880  146.3210 C   0  0  0  0  0  1  0  0  0  0  0  0
  188.1030  177.1510  146.8070 C   0  0  1  0  0  3  0  0  0  0  0  0
  185.7200  179.4150  146.4170 C   0  0  0  0  0  1  0  0  0  0  0  0
  186.2930  178.4320  143.8530 N   0  0  0  0  0  2  0  0  0  0  0  0
  188.6190  175.7630  147.1700 C   0  0  0  0  0  2  0  0  0  0  0  0
  190.8550  174.8340  146.4970 N   0  0  0  0  0  0  0  0  0  0  0  0
  192.2500  176.4190  147.3380 N   0  0  0  0  0  0  0  0  0  0  0  0
  193.2090  174.4630  145.9890 C   0  0  0  0  0  1  0  0  0  0  0  0
  190.0720  175.7550  147.1900 N   0  0  0  0  0  0  0  0  0  0  0  0
  192.0800  175.2110  146.6010 C   0  0  0  0  0  0  0  0  0  0  0  0
  190.9020  176.8140  147.7320 C   0  0  0  0  0  3  0  0  0  0  0  0
  190.1660  176.9150  142.4240 O   0  0  0  0  0  0  0  0  0  0  0  0
  191.0770  176.7570  143.4690 C   0  0  0  0  0  2  0  0  0  0  0  0
  192.4860  176.7680  142.9130 C   0  0  0  0  0  2  0  0  0  0  0  0
  192.7280  175.4920  142.1340 C   0  0  0  0  0  2  0  0  0  0  0  0
  194.0510  175.5850  141.4010 C   0  0  0  0  0  2  0  0  0  0  0  0
  194.0430  174.6650  140.2770 N   0  0  0  0  0  2  0  0  0  0  0  0
  192.9880  173.6920  140.5160 C   0  0  0  0  0  2  0  0  0  0  0  0
  192.6670  172.9980  139.2800 N   0  0  0  0  0  2  0  0  0  0  0  0
  191.3280  173.4130  138.9040 C   0  0  0  0  0  2  0  0  0  0  0  0
  190.7790  170.7720  137.0540 C   0  0  0  0  0  2  0  0  0  0  0  0
  191.0780  171.0760  138.5280 C   0  0  0  0  0  2  0  0  0  0  0  0
  190.5800  172.0170  136.3280 N   0  0  0  0  0  0  0  0  0  0  0  0
  189.3240  172.6220  136.7750 C   0  0  0  0  0  2  0  0  0  0  0  0
  190.4050  171.6650  134.9310 C   0  0  0  0  0  1  0  0  0  0  0  0
  189.1610  172.5900  138.3090 C   0  0  0  0  0  2  0  0  0  0  0  0
  190.4110  172.2900  139.0270 N   0  0  0  0  0  0  0  0  0  0  0  0
  188.5530  175.0110  141.2330 C   0  0  0  0  0  2  0  0  0  0  0  0
  187.6230  172.9020  141.6500 C   0  0  0  0  0  1  0  0  0  0  0  0
  189.7820  173.3930  142.3720 C   0  0  0  0  0  1  0  0  0  0  0  0
  188.4500  173.9520  142.2220 N   0  0  0  0  0  0  0  0  0  0  0  0
  1  4  1  0  0  0  0
  1  8  1  0  0  0  0
  2 12  1  0  0  0  0
  3  2  2  0  0  0  0
  4 14  1  0  0  0  0
  5  4  2  0  0  0  0
  6  1  2  0  0  0  0
  8 22  1  6  0  0  0
  8  3  1  0  0  0  0
  9 11  1  0  0  0  0
  9 13  1  0  0  0  0
  9  7  1  0  0  0  0
 10 14  1  6  0  0  0
 10  2  1  0  0  0  0
 10  9  1  0  0  0  0
 12 15  1  6  0  0  0
 12  7  1  0  0  0  0
 15 19  1  0  0  0  0
 16 20  2  0  0  0  0
 16 19  1  0  0  0  0
 17 21  2  0  0  0  0
 18 20  1  0  0  0  0
 19 21  1  0  0  0  0
 20 17  1  0  0  0  0
 22 23  1  0  0  0  0
 24 23  1  0  0  0  0
 25 24  1  0  0  0  0
 26 25  1  0  0  0  0
 27 28  1  0  0  0  0
 27 26  1  0  0  0  0
 29 28  1  0  0  0  0
 30 37  1  0  0  0  0
 30 29  1  0  0  0  0
 31 32  1  0  0  0  0
 32 37  1  0  0  0  0
 33 34  1  0  0  0  0
 33 31  1  0  0  0  0
 34 36  1  0  0  0  0
 35 33  1  0  0  0  0
 36 37  1  0  0  0  0
 38  6  1  0  0  0  0
 38 41  1  0  0  0  0
 39 41  1  0  0  0  0
 41 40  1  0  0  0  0
M  END
>  <MODEL>
6

>  <REMARK>
 VINA RESULT:      -6.3      2.065      4.446
  Name = 
  14 active torsions:
  status: ('A' for Active; 'I' for Inactive)
    1  A    between atoms: N_3  and  C_17
    2  A    between atoms: N_3  and  C_32
    3  A    between atoms: C_4  and  N_30
    4  A    between atoms: C_4  and  C_35
    5  A    between atoms: C_15  and  C_26
    6  A    between atoms: C_17  and  N_37
    7  A    between atoms: C_19  and  O_20
    8  A    between atoms: O_20  and  C_21
    9  A    between atoms: C_21  and  C_22
   10  A    between atoms: C_22  and  C_28
   11  A    between atoms: N_25  and  C_32
   12  A    between atoms: N_25  and  C_39
   13  A    between atoms: C_26  and  N_40
   14  A    between atoms: C_28  and  C_39
                            x       y       z     vdW  Elec       q    Type
                         _______ _______ _______ _____ _____    ______ ____

>  <TORSDO>
F 14

$$$$
=
 OpenBabel11042419553D

 41 44  0  0  1  0  0  0  0  0999 V2000
  190.0480  175.8810  145.4460 C   0  0  0  0  0  0  0  0  0  0  0  0
  187.3600  177.0240  144.5630 C   0  0  0  0  0  0  0  0  0  0  0  0
  188.1610  176.2830  143.7750 C   0  0  0  0  0  3  0  0  0  0  0  0
  189.3340  175.7130  146.7100 C   0  0  0  0  0  0  0  0  0  0  0  0
  189.8900  175.1530  147.6910 O   0  0  0  0  0  0  0  0  0  0  0  0
  191.2500  176.4720  145.4540 C   0  0  0  0  0  3  0  0  0  0  0  0
  185.5270  178.4220  145.2140 C   0  0  0  0  0  2  0  0  0  0  0  0
  189.3100  175.4120  144.2170 C   0  0  1  0  0  3  0  0  0  0  0  0
  186.1720  177.8510  146.4720 C   0  0  0  0  0  0  0  0  0  0  0  0
  187.5260  177.3060  146.0240 C   0  0  1  0  0  3  0  0  0  0  0  0
  186.3670  178.9530  147.4920 C   0  0  0  0  0  1  0  0  0  0  0  0
  186.1660  177.7300  144.0120 C   0  0  1  0  0  3  0  0  0  0  0  0
  185.2590  176.7770  147.0490 C   0  0  0  0  0  1  0  0  0  0  0  0
  187.9890  176.1720  146.8220 N   0  0  0  0  0  2  0  0  0  0  0  0
  186.5780  178.7700  142.9760 C   0  0  0  0  0  2  0  0  0  0  0  0
  186.8980  177.8600  140.6540 N   0  0  0  0  0  0  0  0  0  0  0  0
  184.7420  177.6980  139.9550 N   0  0  0  0  0  0  0  0  0  0  0  0
  186.6390  176.8780  138.4400 C   0  0  0  0  0  1  0  0  0  0  0  0
  186.0910  178.3890  141.6600 N   0  0  0  0  0  0  0  0  0  0  0  0
  186.1270  177.4890  139.6950 C   0  0  0  0  0  0  0  0  0  0  0  0
  184.6930  178.2910  141.2870 C   0  0  0  0  0  3  0  0  0  0  0  0
  190.1460  175.0970  143.1420 O   0  0  0  0  0  0  0  0  0  0  0  0
  190.1730  173.7030  143.1030 C   0  0  0  0  0  2  0  0  0  0  0  0
  188.8800  173.1920  142.5020 C   0  0  0  0  0  2  0  0  0  0  0  0
  189.1350  172.7310  141.0820 C   0  0  0  0  0  2  0  0  0  0  0  0
  190.6250  172.5810  140.8530 C   0  0  0  0  0  2  0  0  0  0  0  0
  190.9980  173.2840  139.6390 N   0  0  0  0  0  2  0  0  0  0  0  0
  192.4490  173.4000  139.6290 C   0  0  0  0  0  2  0  0  0  0  0  0
  192.8950  174.1160  140.8120 N   0  0  0  0  0  2  0  0  0  0  0  0
  193.9140  175.0510  140.3730 C   0  0  0  0  0  2  0  0  0  0  0  0
  196.3640  174.5860  142.4910 C   0  0  0  0  0  2  0  0  0  0  0  0
  195.4960  173.7270  141.5620 C   0  0  0  0  0  2  0  0  0  0  0  0
  196.0760  175.9950  142.2660 N   0  0  0  0  0  0  0  0  0  0  0  0
  196.5810  176.3700  140.9450 C   0  0  0  0  0  2  0  0  0  0  0  0
  196.8480  176.7420  143.2420 C   0  0  0  0  0  1  0  0  0  0  0  0
  196.2350  175.3300  139.8580 C   0  0  0  0  0  2  0  0  0  0  0  0
  195.1970  174.3710  140.2710 N   0  0  0  0  0  0  0  0  0  0  0  0
  192.0700  176.7550  144.2370 C   0  0  0  0  0  2  0  0  0  0  0  0
  193.8520  176.7970  145.7570 C   0  0  0  0  0  1  0  0  0  0  0  0
  193.3990  174.8660  144.5360 C   0  0  0  0  0  1  0  0  0  0  0  0
  193.4380  176.3150  144.4490 N   0  0  0  0  0  0  0  0  0  0  0  0
  1  6  2  0  0  0  0
  1  4  1  0  0  0  0
  3  8  1  0  0  0  0
  3  2  2  0  0  0  0
  4 14  1  0  0  0  0
  4  5  2  0  0  0  0
  7  9  1  0  0  0  0
  8 22  1  6  0  0  0
  8  1  1  0  0  0  0
  9 13  1  0  0  0  0
  9 11  1  0  0  0  0
 10  2  1  6  0  0  0
 10  9  1  0  0  0  0
 10 14  1  0  0  0  0
 12 15  1  6  0  0  0
 12  2  1  0  0  0  0
 12  7  1  0  0  0  0
 16 19  1  0  0  0  0
 17 21  2  0  0  0  0
 18 20  1  0  0  0  0
 19 15  1  0  0  0  0
 20 17  1  0  0  0  0
 20 16  2  0  0  0  0
 21 19  1  0  0  0  0
 23 22  1  0  0  0  0
 24 23  1  0  0  0  0
 25 24  1  0  0  0  0
 26 25  1  0  0  0  0
 27 26  1  0  0  0  0
 28 27  1  0  0  0  0
 28 29  1  0  0  0  0
 30 29  1  0  0  0  0
 32 31  1  0  0  0  0
 33 31  1  0  0  0  0
 33 35  1  0  0  0  0
 34 33  1  0  0  0  0
 36 37  1  0  0  0  0
 36 34  1  0  0  0  0
 37 30  1  0  0  0  0
 37 32  1  0  0  0  0
 38 41  1  0  0  0  0
 38  6  1  0  0  0  0
 41 40  1  0  0  0  0
 41 39  1  0  0  0  0
M  END
>  <MODEL>
7

>  <REMARK>
 VINA RESULT:      -6.3      1.951      5.350
  Name = 
  14 active torsions:
  status: ('A' for Active; 'I' for Inactive)
    1  A    between atoms: N_3  and  C_17
    2  A    between atoms: N_3  and  C_32
    3  A    between atoms: C_4  and  N_30
    4  A    between atoms: C_4  and  C_35
    5  A    between atoms: C_15  and  C_26
    6  A    between atoms: C_17  and  N_37
    7  A    between atoms: C_19  and  O_20
    8  A    between atoms: O_20  and  C_21
    9  A    between atoms: C_21  and  C_22
   10  A    between atoms: C_22  and  C_28
   11  A    between atoms: N_25  and  C_32
   12  A    between atoms: N_25  and  C_39
   13  A    between atoms: C_26  and  N_40
   14  A    between atoms: C_28  and  C_39
                            x       y       z     vdW  Elec       q    Type
                         _______ _______ _______ _____ _____    ______ ____

>  <TORSDO>
F 14

$$$$
=
 OpenBabel11042419553D

 41 44  0  0  1  0  0  0  0  0999 V2000
  189.6750  175.8520  145.4280 C   0  0  0  0  0  0  0  0  0  0  0  0
  187.0230  177.0840  144.5530 C   0  0  0  0  0  0  0  0  0  0  0  0
  187.8200  176.3550  143.7500 C   0  0  0  0  0  3  0  0  0  0  0  0
  188.9400  175.6520  146.6760 C   0  0  0  0  0  0  0  0  0  0  0  0
  189.4710  175.0450  147.6430 O   0  0  0  0  0  0  0  0  0  0  0  0
  190.8880  176.4170  145.4740 C   0  0  0  0  0  3  0  0  0  0  0  0
  185.2110  178.4950  145.2320 C   0  0  0  0  0  2  0  0  0  0  0  0
  188.9440  175.4440  144.1740 C   0  0  1  0  0  3  0  0  0  0  0  0
  185.8260  177.8640  146.4760 C   0  0  0  0  0  0  0  0  0  0  0  0
  187.1750  177.3070  146.0260 C   0  0  1  0  0  3  0  0  0  0  0  0
  186.0300  178.9240  147.5390 C   0  0  0  0  0  1  0  0  0  0  0  0
  185.8520  177.8340  144.0130 C   0  0  1  0  0  3  0  0  0  0  0  0
  184.8830  176.7890  147.0010 C   0  0  0  0  0  1  0  0  0  0  0  0
  187.6030  176.1350  146.7870 N   0  0  0  0  0  2  0  0  0  0  0  0
  186.3000  178.9020  143.0220 C   0  0  0  0  0  2  0  0  0  0  0  0
  186.7930  177.8730  140.7820 N   0  0  0  0  0  0  0  0  0  0  0  0
  184.7260  177.8950  139.8360 N   0  0  0  0  0  0  0  0  0  0  0  0
  186.6920  176.8330  138.5810 C   0  0  0  0  0  1  0  0  0  0  0  0
  185.9320  178.5190  141.6690 N   0  0  0  0  0  0  0  0  0  0  0  0
  186.1040  177.5410  139.7480 C   0  0  0  0  0  0  0  0  0  0  0  0
  184.5840  178.5420  141.1350 C   0  0  0  0  0  3  0  0  0  0  0  0
  189.7880  175.1520  143.0990 O   0  0  0  0  0  0  0  0  0  0  0  0
  189.0120  174.3830  142.2300 C   0  0  0  0  0  2  0  0  0  0  0  0
  189.7170  173.0720  141.9540 C   0  0  0  0  0  2  0  0  0  0  0  0
  191.1170  173.3500  141.4480 C   0  0  0  0  0  2  0  0  0  0  0  0
  192.1190  172.5470  142.2530 C   0  0  0  0  0  2  0  0  0  0  0  0
  192.6240  173.3640  143.3430 N   0  0  0  0  0  2  0  0  0  0  0  0
  192.3250  172.6680  144.5860 C   0  0  0  0  0  2  0  0  0  0  0  0
  193.3380  171.6580  144.8420 N   0  0  0  0  0  2  0  0  0  0  0  0
  194.4830  172.3510  145.4040 C   0  0  0  0  0  2  0  0  0  0  0  0
  197.5660  173.3620  144.9840 C   0  0  0  0  0  2  0  0  0  0  0  0
  196.8350  172.2620  145.7630 C   0  0  0  0  0  2  0  0  0  0  0  0
  196.6240  174.0580  144.1190 N   0  0  0  0  0  0  0  0  0  0  0  0
  196.2130  173.1480  143.0490 C   0  0  0  0  0  2  0  0  0  0  0  0
  197.3530  175.1460  143.4930 C   0  0  0  0  0  1  0  0  0  0  0  0
  195.8840  171.7310  143.5640 C   0  0  0  0  0  2  0  0  0  0  0  0
  195.7090  171.6630  145.0250 N   0  0  0  0  0  0  0  0  0  0  0  0
  191.7310  176.7270  144.2790 C   0  0  0  0  0  2  0  0  0  0  0  0
  193.3590  176.0060  145.8020 C   0  0  0  0  0  1  0  0  0  0  0  0
  193.9320  176.4200  143.5830 C   0  0  0  0  0  1  0  0  0  0  0  0
  193.1150  176.9020  144.6820 N   0  0  0  0  0  0  0  0  0  0  0  0
  1  6  2  0  0  0  0
  1  4  1  0  0  0  0
  3  8  1  0  0  0  0
  3  2  2  0  0  0  0
  4 14  1  0  0  0  0
  4  5  2  0  0  0  0
  7  9  1  0  0  0  0
  8 22  1  6  0  0  0
  8  1  1  0  0  0  0
  9 13  1  0  0  0  0
  9 11  1  0  0  0  0
 10  2  1  6  0  0  0
 10  9  1  0  0  0  0
 10 14  1  0  0  0  0
 12 15  1  6  0  0  0
 12  2  1  0  0  0  0
 12  7  1  0  0  0  0
 16 19  1  0  0  0  0
 17 21  2  0  0  0  0
 18 20  1  0  0  0  0
 19 15  1  0  0  0  0
 20 17  1  0  0  0  0
 20 16  2  0  0  0  0
 21 19  1  0  0  0  0
 23 22  1  0  0  0  0
 24 23  1  0  0  0  0
 25 24  1  0  0  0  0
 25 26  1  0  0  0  0
 26 27  1  0  0  0  0
 27 28  1  0  0  0  0
 28 29  1  0  0  0  0
 29 30  1  0  0  0  0
 31 32  1  0  0  0  0
 33 31  1  0  0  0  0
 34 36  1  0  0  0  0
 34 33  1  0  0  0  0
 35 33  1  0  0  0  0
 36 37  1  0  0  0  0
 37 30  1  0  0  0  0
 37 32  1  0  0  0  0
 38 41  1  0  0  0  0
 38  6  1  0  0  0  0
 40 41  1  0  0  0  0
 41 39  1  0  0  0  0
M  END
>  <MODEL>
8

>  <REMARK>
 VINA RESULT:      -6.3      2.093      5.213
  Name = 
  14 active torsions:
  status: ('A' for Active; 'I' for Inactive)
    1  A    between atoms: N_3  and  C_17
    2  A    between atoms: N_3  and  C_32
    3  A    between atoms: C_4  and  N_30
    4  A    between atoms: C_4  and  C_35
    5  A    between atoms: C_15  and  C_26
    6  A    between atoms: C_17  and  N_37
    7  A    between atoms: C_19  and  O_20
    8  A    between atoms: O_20  and  C_21
    9  A    between atoms: C_21  and  C_22
   10  A    between atoms: C_22  and  C_28
   11  A    between atoms: N_25  and  C_32
   12  A    between atoms: N_25  and  C_39
   13  A    between atoms: C_26  and  N_40
   14  A    between atoms: C_28  and  C_39
                            x       y       z     vdW  Elec       q    Type
                         _______ _______ _______ _____ _____    ______ ____

>  <TORSDO>
F 14

$$$$
=
 OpenBabel11042419553D

 41 44  0  0  1  0  0  0  0  0999 V2000
  189.7280  176.3730  145.3650 C   0  0  0  0  0  0  0  0  0  0  0  0
  186.9390  177.6090  145.2740 C   0  0  0  0  0  0  0  0  0  0  0  0
  187.4810  176.8910  144.2730 C   0  0  0  0  0  3  0  0  0  0  0  0
  189.3680  176.1570  146.7650 C   0  0  0  0  0  0  0  0  0  0  0  0
  190.1460  175.5410  147.5400 O   0  0  0  0  0  0  0  0  0  0  0  0
  190.9070  176.9400  145.0790 C   0  0  0  0  0  3  0  0  0  0  0  0
  185.3880  179.0080  146.4450 C   0  0  0  0  0  2  0  0  0  0  0  0
  188.6770  175.9780  144.3580 C   0  0  1  0  0  3  0  0  0  0  0  0
  186.3240  178.3650  147.4620 C   0  0  0  0  0  0  0  0  0  0  0  0
  187.4940  177.8160  146.6490 C   0  0  1  0  0  3  0  0  0  0  0  0
  186.8150  179.4130  148.4390 C   0  0  0  0  0  1  0  0  0  0  0  0
  185.6650  178.3630  145.0890 C   0  0  1  0  0  3  0  0  0  0  0  0
  185.5620  177.2820  148.2160 C   0  0  0  0  0  1  0  0  0  0  0  0
  188.1160  176.6360  147.2480 N   0  0  0  0  0  2  0  0  0  0  0  0
  185.8210  179.4430  144.0250 C   0  0  0  0  0  2  0  0  0  0  0  0
  186.3410  178.5890  141.7180 N   0  0  0  0  0  0  0  0  0  0  0  0
  184.2860  177.8880  141.0470 N   0  0  0  0  0  0  0  0  0  0  0  0
  186.3160  177.5250  139.5270 C   0  0  0  0  0  1  0  0  0  0  0  0
  185.4350  178.9260  142.7220 N   0  0  0  0  0  0  0  0  0  0  0  0
  185.6780  178.0190  140.7750 C   0  0  0  0  0  0  0  0  0  0  0  0
  184.1010  178.4790  142.3670 C   0  0  0  0  0  3  0  0  0  0  0  0
  189.1900  175.6990  143.0880 O   0  0  0  0  0  0  0  0  0  0  0  0
  188.0790  175.3460  142.3200 C   0  0  0  0  0  2  0  0  0  0  0  0
  188.1370  173.8660  142.0050 C   0  0  0  0  0  2  0  0  0  0  0  0
  189.5010  173.3250  142.3820 C   0  0  0  0  0  2  0  0  0  0  0  0
  189.3660  171.8970  142.8710 C   0  0  0  0  0  2  0  0  0  0  0  0
  190.1580  171.0230  142.0250 N   0  0  0  0  0  2  0  0  0  0  0  0
  191.5530  171.1950  142.4020 C   0  0  0  0  0  2  0  0  0  0  0  0
  192.3540  171.4620  141.2200 N   0  0  0  0  0  2  0  0  0  0  0  0
  191.7330  170.7410  140.1240 C   0  0  0  0  0  2  0  0  0  0  0  0
  190.4970  173.3810  138.6380 C   0  0  0  0  0  2  0  0  0  0  0  0
  191.8810  172.8570  139.0410 C   0  0  0  0  0  2  0  0  0  0  0  0
  189.4930  172.3600  138.8960 N   0  0  0  0  0  0  0  0  0  0  0  0
  189.6900  171.2620  137.9490 C   0  0  0  0  0  2  0  0  0  0  0  0
  188.2030  172.9540  138.5930 C   0  0  0  0  0  1  0  0  0  0  0  0
  191.1730  170.8630  137.8000 C   0  0  0  0  0  2  0  0  0  0  0  0
  192.0370  171.4030  138.8630 N   0  0  0  0  0  0  0  0  0  0  0  0
  191.3850  177.2650  143.7010 C   0  0  0  0  0  2  0  0  0  0  0  0
  193.3080  176.5540  144.8350 C   0  0  0  0  0  1  0  0  0  0  0  0
  192.6100  175.4490  142.9070 C   0  0  0  0  0  1  0  0  0  0  0  0
  192.7360  176.7620  143.5140 N   0  0  0  0  0  0  0  0  0  0  0  0
  1  4  1  0  0  0  0
  3  8  1  0  0  0  0
  3  2  2  0  0  0  0
  4 14  1  0  0  0  0
  4  5  2  0  0  0  0
  6  1  2  0  0  0  0
  7  9  1  0  0  0  0
  8 22  1  6  0  0  0
  8  1  1  0  0  0  0
  9 13  1  0  0  0  0
  9 11  1  0  0  0  0
 10  2  1  6  0  0  0
 10 14  1  0  0  0  0
 10  9  1  0  0  0  0
 12 15  1  6  0  0  0
 12  2  1  0  0  0  0
 12  7  1  0  0  0  0
 16 19  1  0  0  0  0
 17 21  2  0  0  0  0
 18 20  1  0  0  0  0
 19 15  1  0  0  0  0
 20 17  1  0  0  0  0
 20 16  2  0  0  0  0
 21 19  1  0  0  0  0
 23 22  1  0  0  0  0
 24 23  1  0  0  0  0
 24 25  1  0  0  0  0
 25 26  1  0  0  0  0
 27 28  1  0  0  0  0
 27 26  1  0  0  0  0
 29 28  1  0  0  0  0
 30 29  1  0  0  0  0
 31 33  1  0  0  0  0
 31 32  1  0  0  0  0
 34 33  1  0  0  0  0
 35 33  1  0  0  0  0
 36 34  1  0  0  0  0
 36 37  1  0  0  0  0
 37 32  1  0  0  0  0
 37 30  1  0  0  0  0
 38  6  1  0  0  0  0
 40 41  1  0  0  0  0
 41 38  1  0  0  0  0
 41 39  1  0  0  0  0
M  END
>  <MODEL>
9

>  <REMARK>
 VINA RESULT:      -6.3      2.272      5.967
  Name = 
  14 active torsions:
  status: ('A' for Active; 'I' for Inactive)
    1  A    between atoms: N_3  and  C_17
    2  A    between atoms: N_3  and  C_32
    3  A    between atoms: C_4  and  N_30
    4  A    between atoms: C_4  and  C_35
    5  A    between atoms: C_15  and  C_26
    6  A    between atoms: C_17  and  N_37
    7  A    between atoms: C_19  and  O_20
    8  A    between atoms: O_20  and  C_21
    9  A    between atoms: C_21  and  C_22
   10  A    between atoms: C_22  and  C_28
   11  A    between atoms: N_25  and  C_32
   12  A    between atoms: N_25  and  C_39
   13  A    between atoms: C_26  and  N_40
   14  A    between atoms: C_28  and  C_39
                            x       y       z     vdW  Elec       q    Type
                         _______ _______ _______ _____ _____    ______ ____

>  <TORSDO>
F 14

$$$$
