=
 OpenBabel11042418313D

 70 80  0  0  1  0  0  0  0  0999 V2000
  189.9550  173.2600  141.1860 C   0  0  1  0  0  3  0  0  0  0  0  0
  189.4360  175.4640  141.7840 C   0  0  2  0  0  3  0  0  0  0  0  0
  191.4810  171.2920  141.9180 C   0  0  0  0  0  2  0  0  0  0  0  0
  188.6500  175.1460  140.5100 C   0  0  0  0  0  2  0  0  0  0  0  0
  190.0830  171.7440  141.4470 C   0  0  0  0  0  0  0  0  0  0  0  0
  191.8810  173.0880  143.6120 C   0  0  0  0  0  0  0  0  0  0  0  0
  189.1070  171.3740  142.3930 O   0  0  0  0  0  1  0  0  0  0  0  0
  189.3740  173.9040  139.9630 C   0  0  2  0  0  3  0  0  0  0  0  0
  192.4100  172.4110  142.3870 C   0  0  0  0  0  2  0  0  0  0  0  0
  192.4630  172.8870  144.8070 C   0  0  0  0  0  3  0  0  0  0  0  0
  190.0770  174.1680  142.1620 C   0  0  1  0  0  3  0  0  0  0  0  0
  190.5880  173.8880  143.5630 C   0  0  0  0  0  2  0  0  0  0  0  0
  189.8320  171.0140  140.2860 O   0  0  0  0  0  1  0  0  0  0  0  0
  184.9070  177.7190  143.3610 C   0  0  0  0  0  0  0  0  0  0  0  0
  183.6870  178.2600  143.3810 N   0  0  0  0  0  0  0  0  0  0  0  0
  188.0250  176.4330  146.3390 N   0  0  0  0  0  2  0  0  0  0  0  0
  186.9550  176.8290  144.1300 C   0  0  0  0  0  0  0  0  0  0  0  0
  187.3700  176.5820  142.8300 C   0  0  0  0  0  0  0  0  0  0  0  0
  187.9870  176.3940  144.9130 C   0  0  0  0  0  0  0  0  0  0  0  0
  185.2930  177.4830  142.0540 C   0  0  0  0  0  0  0  0  0  0  0  0
  186.5420  176.9070  141.7380 C   0  0  0  0  0  3  0  0  0  0  0  0
  185.7210  177.3940  144.4480 C   0  0  0  0  0  3  0  0  0  0  0  0
  188.9760  175.8980  144.1380 N   0  0  0  0  0  0  0  0  0  0  0  0
  184.3350  177.9100  141.2100 N   0  0  0  0  0  2  0  0  0  0  0  0
  183.3640  178.3550  142.0540 C   0  0  0  0  0  0  0  0  0  0  0  0
  189.1570  175.8550  147.0500 C   0  0  0  0  0  1  0  0  0  0  0  0
  188.6040  176.0020  142.8710 N   0  0  0  0  0  0  0  0  0  0  0  0
  181.2120  179.2480  142.6700 N   0  0  0  0  0  1  0  0  0  0  0  0
  182.1170  179.0390  141.5650 C   0  0  2  0  0  3  0  0  0  0  0  0
  181.4040  178.2590  140.4590 C   0  0  0  0  0  2  0  0  0  0  0  0
  180.0270  178.5260  140.4510 O   0  0  0  0  0  1  0  0  0  0  0  0
  193.5510  171.8540  145.0810 C   0  0  0  0  0  2  0  0  0  0  0  0
  196.2900  171.3330  142.5000 C   0  0  0  0  0  2  0  0  0  0  0  0
  197.3900  171.6480  145.5670 C   0  0  1  0  0  3  0  0  0  0  0  0
  197.1380  173.1540  145.3410 C   0  0  2  0  0  3  0  0  0  0  0  0
  195.9520  172.2270  145.6420 C   0  0  1  0  0  3  0  0  0  0  0  0
  197.4890  170.6030  144.5330 N   0  0  0  0  0  2  0  0  0  0  0  0
  194.9180  172.1390  144.4820 C   0  0  1  0  0  3  0  0  0  0  0  0
  195.1260  171.0400  143.4390 C   0  0  0  0  0  2  0  0  0  0  0  0
  197.6590  171.0490  143.1540 C   0  0  0  0  0  2  0  0  0  0  0  0
  197.4260  173.6920  143.9310 C   0  0  0  0  0  2  0  0  0  0  0  0
  197.4650  175.1530  143.8970 N   0  0  0  0  0  2  0  0  0  0  0  0
  195.2470  174.6810  142.5860 O   0  0  0  0  0  0  0  0  0  0  0  0
  196.0120  175.8070  143.2250 S   0  0  0  0  0  0  0  0  0  0  0  0
  196.3440  176.8210  142.1710 O   0  0  0  0  0  0  0  0  0  0  0  0
  194.9320  176.6120  144.4290 C   0  0  2  0  0  3  0  0  0  0  0  0
  194.9900  175.8300  145.7480 C   0  0  0  0  0  2  0  0  0  0  0  0
  192.4620  176.6190  144.7000 C   0  0  0  0  0  3  0  0  0  0  0  0
  193.5190  176.7110  143.8980 C   0  0  0  0  0  3  0  0  0  0  0  0
  193.9570  176.4130  146.7120 C   0  0  0  0  0  2  0  0  0  0  0  0
  192.6180  176.3670  146.0930 N   0  0  0  0  0  2  0  0  0  0  0  0
  188.4790  173.0630  139.2800 O   0  0  0  0  0  0  0  0  0  0  0  0
  188.5590  173.4840  137.9540 C   0  0  0  0  0  2  0  0  0  0  0  0
  188.9160  172.4430  137.0800 O   0  0  0  0  0  0  0  0  0  0  0  0
  190.9880  170.3980  137.5340 O   0  0  0  0  0  0  0  0  0  0  0  0
  193.5910  172.5870  138.5530 C   0  0  0  0  0  0  0  0  0  0  0  0
  190.0340  172.8500  136.3360 C   0  0  2  0  0  3  0  0  0  0  0  0
  191.9650  173.7540  137.2380 C   0  0  0  0  0  0  0  0  0  0  0  0
  191.3580  174.9110  136.5730 C   0  0  0  0  0  2  0  0  0  0  0  0
  191.6650  171.4430  137.6660 C   0  0  0  0  0  0  0  0  0  0  0  0
  192.8350  171.4100  138.4120 C   0  0  0  0  0  3  0  0  0  0  0  0
  191.2540  172.6220  137.1080 N   0  0  0  0  0  0  0  0  0  0  0  0
  194.8150  172.5770  139.3620 C   0  0  0  0  0  1  0  0  0  0  0  0
  189.9590  174.3880  136.1990 C   0  0  1  0  0  3  0  0  0  0  0  0
  193.1550  173.7750  137.9610 C   0  0  0  0  0  3  0  0  0  0  0  0
  189.3420  177.2270  134.6530 C   0  0  0  0  0  2  0  0  0  0  0  0
  188.1150  176.6950  135.3290 C   0  0  0  0  0  2  0  0  0  0  0  0
  190.2760  176.0380  134.5280 C   0  0  0  0  0  2  0  0  0  0  0  0
  188.1320  175.2420  134.9280 C   0  0  0  0  0  2  0  0  0  0  0  0
  189.5360  174.8180  134.8470 N   0  0  0  0  0  0  0  0  0  0  0  0
  1  5  1  1  0  0  0
  1 11  1  0  0  0  0
  2  4  1  6  0  0  0
  2 11  1  0  0  0  0
  2 27  1  0  0  0  0
  3  9  1  0  0  0  0
  5  3  1  0  0  0  0
  5  7  1  0  0  0  0
  6 10  2  0  0  0  0
  8 52  1  1  0  0  0
  8  4  1  0  0  0  0
  8  1  1  0  0  0  0
  9  6  1  0  0  0  0
 10 32  1  0  0  0  0
 11 12  1  1  0  0  0
 12  6  1  0  0  0  0
 13  5  1  0  0  0  0
 14 15  1  0  0  0  0
 14 22  1  0  0  0  0
 16 26  1  0  0  0  0
 17 22  2  0  0  0  0
 17 19  1  0  0  0  0
 18 27  1  0  0  0  0
 18 17  1  0  0  0  0
 19 16  1  0  0  0  0
 20 14  2  0  0  0  0
 21 20  1  0  0  0  0
 21 18  2  0  0  0  0
 23 19  2  0  0  0  0
 24 20  1  0  0  0  0
 24 25  1  0  0  0  0
 25 15  2  0  0  0  0
 27 23  1  0  0  0  0
 29 25  1  0  0  0  0
 29 28  1  1  0  0  0
 30 29  1  0  0  0  0
 31 30  1  0  0  0  0
 33 40  1  0  0  0  0
 33 39  1  0  0  0  0
 34 37  1  6  0  0  0
 34 36  1  0  0  0  0
 35 41  1  6  0  0  0
 35 34  1  0  0  0  0
 35 36  1  0  0  0  0
 38 32  1  0  0  0  0
 38 36  1  0  0  0  0
 39 38  1  0  0  0  0
 40 37  1  0  0  0  0
 42 41  1  0  0  0  0
 43 44  2  0  0  0  0
 44 42  1  0  0  0  0
 44 46  1  0  0  0  0
 45 44  2  0  0  0  0
 46 47  1  0  0  0  0
 47 50  1  0  0  0  0
 48 51  1  0  0  0  0
 49 46  1  0  0  0  0
 49 48  2  0  0  0  0
 51 50  1  0  0  0  0
 53 52  1  0  0  0  0
 54 53  1  0  0  0  0
 55 60  2  0  0  0  0
 56 63  1  0  0  0  0
 57 54  1  0  0  0  0
 57 62  1  0  0  0  0
 58 65  2  0  0  0  0
 59 58  1  0  0  0  0
 60 61  1  0  0  0  0
 61 56  2  0  0  0  0
 62 58  1  0  0  0  0
 62 60  1  0  0  0  0
 64 57  1  0  0  0  0
 64 59  1  0  0  0  0
 65 56  1  0  0  0  0
 66 67  1  0  0  0  0
 68 66  1  0  0  0  0
 68 70  1  0  0  0  0
 69 67  1  0  0  0  0
 70 69  1  0  0  0  0
 70 64  1  0  0  0  0
M  END
>  <MODEL>
1

>  <REMARK>
 VINA RESULT:      -8.0      0.000      0.000
  Name = 
  14 active torsions:
  status: ('A' for Active; 'I' for Inactive)
    1  A    between atoms: C_1  and  CA_43
    2  A    between atoms: O_4  and  C_25
    3  A    between atoms: O_4  and  C_65
    4  A    between atoms: C_5  and  S_42
    5  A    between atoms: C_17  and  N_68
    6  A    between atoms: C_26  and  C_69
    7  A    between atoms: C_30  and  C_36
    8  A    between atoms: C_30  and  C_51
    9  A    between atoms: N_32  and  S_42
   10  A    between atoms: N_32  and  C_69
   11  A    between atoms: C_40  and  O_44
   12  A    between atoms: CA_43  and  C_60
   13  A    between atoms: O_44  and  C_65
   14  A    between atoms: N_61  and  C_62
                            x       y       z     vdW  Elec       q    Type
                         _______ _______ _______ _____ _____    ______ ____

>  <TORSDO>
F 14

$$$$
=
 OpenBabel11042418313D

 70 80  0  0  1  0  0  0  0  0999 V2000
  189.3580  174.4390  141.9020 C   0  0  1  0  0  3  0  0  0  0  0  0
  188.5180  176.6190  142.0750 C   0  0  2  0  0  3  0  0  0  0  0  0
  190.9780  172.8140  143.1140 C   0  0  0  0  0  2  0  0  0  0  0  0
  187.9560  176.0210  140.7840 C   0  0  0  0  0  2  0  0  0  0  0  0
  189.6160  173.0060  142.4140 C   0  0  0  0  0  0  0  0  0  0  0  0
  190.9380  174.8720  144.5360 C   0  0  0  0  0  0  0  0  0  0  0  0
  188.5670  172.6520  143.2840 O   0  0  0  0  0  1  0  0  0  0  0  0
  188.8830  174.8190  140.5320 C   0  0  2  0  0  3  0  0  0  0  0  0
  191.7030  174.1010  143.5070 C   0  0  0  0  0  2  0  0  0  0  0  0
  191.3690  174.9220  145.8080 C   0  0  0  0  0  3  0  0  0  0  0  0
  189.2420  175.4860  142.7280 C   0  0  1  0  0  3  0  0  0  0  0  0
  189.5840  175.4790  144.2070 C   0  0  0  0  0  2  0  0  0  0  0  0
  189.6100  172.0910  141.3630 O   0  0  0  0  0  1  0  0  0  0  0  0
  183.5550  178.3440  142.7540 C   0  0  0  0  0  0  0  0  0  0  0  0
  182.2770  178.6760  142.5540 N   0  0  0  0  0  0  0  0  0  0  0  0
  186.4300  178.1150  146.2070 N   0  0  0  0  0  2  0  0  0  0  0  0
  185.5970  177.9450  143.8710 C   0  0  0  0  0  0  0  0  0  0  0  0
  186.2010  177.5490  142.6880 C   0  0  0  0  0  0  0  0  0  0  0  0
  186.5750  177.8260  144.8180 C   0  0  0  0  0  0  0  0  0  0  0  0
  184.1290  177.9530  141.5590 C   0  0  0  0  0  0  0  0  0  0  0  0
  185.4770  177.5420  141.4790 C   0  0  0  0  0  3  0  0  0  0  0  0
  184.2650  178.3490  143.9570 C   0  0  0  0  0  3  0  0  0  0  0  0
  187.7130  177.3710  144.2490 N   0  0  0  0  0  0  0  0  0  0  0  0
  183.2320  178.0670  140.5620 N   0  0  0  0  0  2  0  0  0  0  0  0
  182.1110  178.4870  141.2080 C   0  0  0  0  0  0  0  0  0  0  0  0
  187.5360  177.8600  147.1200 C   0  0  0  0  0  1  0  0  0  0  0  0
  187.4900  177.1930  142.9560 N   0  0  0  0  0  0  0  0  0  0  0  0
  180.5690  180.2650  140.6900 N   0  0  0  0  0  1  0  0  0  0  0  0
  180.8500  178.8650  140.4820 C   0  0  2  0  0  3  0  0  0  0  0  0
  179.6420  178.0310  140.9140 C   0  0  0  0  0  2  0  0  0  0  0  0
  178.5820  178.8480  141.3370 O   0  0  0  0  0  1  0  0  0  0  0  0
  192.5170  174.0910  146.3710 C   0  0  0  0  0  2  0  0  0  0  0  0
  194.8170  171.8140  144.3810 C   0  0  0  0  0  2  0  0  0  0  0  0
  196.3540  174.2920  145.8690 C   0  0  1  0  0  3  0  0  0  0  0  0
  195.7960  175.1380  144.7050 C   0  0  2  0  0  3  0  0  0  0  0  0
  194.8700  174.7440  145.8640 C   0  0  1  0  0  3  0  0  0  0  0  0
  196.4630  172.8230  145.9230 N   0  0  0  0  0  2  0  0  0  0  0  0
  193.6850  173.8310  145.4350 C   0  0  1  0  0  3  0  0  0  0  0  0
  193.9070  172.3190  145.4940 C   0  0  0  0  0  2  0  0  0  0  0  0
  196.3070  172.1000  144.6660 C   0  0  0  0  0  2  0  0  0  0  0  0
  195.7330  174.4530  143.3310 C   0  0  0  0  0  2  0  0  0  0  0  0
  196.6200  175.0900  142.3580 N   0  0  0  0  0  2  0  0  0  0  0  0
  195.5350  177.0410  140.9890 O   0  0  0  0  0  0  0  0  0  0  0  0
  195.7610  175.5560  140.9320 S   0  0  0  0  0  0  0  0  0  0  0  0
  194.4280  174.8690  140.8890 O   0  0  0  0  0  0  0  0  0  0  0  0
  196.6170  175.1720  139.3890 C   0  0  2  0  0  3  0  0  0  0  0  0
  195.5980  175.1730  138.2430 C   0  0  0  0  0  2  0  0  0  0  0  0
  197.4680  173.0340  138.4500 C   0  0  0  0  0  3  0  0  0  0  0  0
  197.3420  173.8480  139.4940 C   0  0  0  0  0  3  0  0  0  0  0  0
  196.2910  174.6900  136.9680 C   0  0  0  0  0  2  0  0  0  0  0  0
  196.8750  173.3540  137.1950 N   0  0  0  0  0  2  0  0  0  0  0  0
  188.1890  173.7790  139.8890 O   0  0  0  0  0  0  0  0  0  0  0  0
  188.3190  174.0690  138.5320 C   0  0  0  0  0  2  0  0  0  0  0  0
  188.2000  172.9260  137.7250 O   0  0  0  0  0  0  0  0  0  0  0  0
  189.6700  170.4490  138.3480 O   0  0  0  0  0  0  0  0  0  0  0  0
  192.8760  171.9080  138.7990 C   0  0  0  0  0  0  0  0  0  0  0  0
  189.2910  172.8880  136.8420 C   0  0  2  0  0  3  0  0  0  0  0  0
  191.4880  173.3070  137.4370 C   0  0  0  0  0  0  0  0  0  0  0  0
  191.1470  174.4900  136.6410 C   0  0  0  0  0  2  0  0  0  0  0  0
  190.6190  171.2620  138.2560 C   0  0  0  0  0  0  0  0  0  0  0  0
  191.8150  170.9920  138.9080 C   0  0  0  0  0  3  0  0  0  0  0  0
  190.4840  172.4220  137.5470 N   0  0  0  0  0  0  0  0  0  0  0  0
  194.1360  171.6540  139.5030 C   0  0  0  0  0  1  0  0  0  0  0  0
  189.6250  174.3490  136.4630 C   0  0  1  0  0  3  0  0  0  0  0  0
  192.7150  173.0810  138.0560 C   0  0  0  0  0  3  0  0  0  0  0  0
  189.5240  177.0380  134.5690 C   0  0  0  0  0  2  0  0  0  0  0  0
  188.2800  176.9050  135.3960 C   0  0  0  0  0  2  0  0  0  0  0  0
  190.1430  175.6540  134.5540 C   0  0  0  0  0  2  0  0  0  0  0  0
  187.9240  175.4520  135.2080 C   0  0  0  0  0  2  0  0  0  0  0  0
  189.1790  174.6960  135.0950 N   0  0  0  0  0  0  0  0  0  0  0  0
  1  5  1  1  0  0  0
  1 11  1  0  0  0  0
  2  4  1  6  0  0  0
  2 11  1  0  0  0  0
  2 27  1  0  0  0  0
  3  9  1  0  0  0  0
  5  3  1  0  0  0  0
  5  7  1  0  0  0  0
  6 10  2  0  0  0  0
  8 52  1  1  0  0  0
  8  4  1  0  0  0  0
  8  1  1  0  0  0  0
  9  6  1  0  0  0  0
 10 32  1  0  0  0  0
 11 12  1  1  0  0  0
 12  6  1  0  0  0  0
 13  5  1  0  0  0  0
 14 22  1  0  0  0  0
 15 14  1  0  0  0  0
 16 26  1  0  0  0  0
 17 22  2  0  0  0  0
 17 19  1  0  0  0  0
 18 27  1  0  0  0  0
 18 17  1  0  0  0  0
 19 16  1  0  0  0  0
 20 14  2  0  0  0  0
 21 20  1  0  0  0  0
 21 18  2  0  0  0  0
 23 19  2  0  0  0  0
 24 25  1  0  0  0  0
 24 20  1  0  0  0  0
 25 15  2  0  0  0  0
 27 23  1  0  0  0  0
 29 28  1  1  0  0  0
 29 30  1  0  0  0  0
 29 25  1  0  0  0  0
 30 31  1  0  0  0  0
 33 40  1  0  0  0  0
 33 39  1  0  0  0  0
 34 37  1  6  0  0  0
 35 41  1  6  0  0  0
 35 36  1  0  0  0  0
 35 34  1  0  0  0  0
 36 34  1  0  0  0  0
 38 39  1  0  0  0  0
 38 36  1  0  0  0  0
 38 32  1  0  0  0  0
 40 37  1  0  0  0  0
 42 41  1  0  0  0  0
 44 43  2  0  0  0  0
 44 42  1  0  0  0  0
 45 44  2  0  0  0  0
 46 49  1  0  0  0  0
 46 44  1  0  0  0  0
 47 46  1  0  0  0  0
 48 49  2  0  0  0  0
 50 51  1  0  0  0  0
 50 47  1  0  0  0  0
 51 48  1  0  0  0  0
 53 52  1  0  0  0  0
 54 53  1  0  0  0  0
 56 61  2  0  0  0  0
 56 63  1  0  0  0  0
 57 62  1  0  0  0  0
 57 54  1  0  0  0  0
 58 62  1  0  0  0  0
 58 65  2  0  0  0  0
 59 58  1  0  0  0  0
 60 55  2  0  0  0  0
 60 61  1  0  0  0  0
 62 60  1  0  0  0  0
 64 59  1  0  0  0  0
 64 57  1  0  0  0  0
 65 56  1  0  0  0  0
 66 67  1  0  0  0  0
 68 66  1  0  0  0  0
 68 70  1  0  0  0  0
 69 67  1  0  0  0  0
 70 69  1  0  0  0  0
 70 64  1  0  0  0  0
M  END
>  <MODEL>
2

>  <REMARK>
 VINA RESULT:      -7.9      1.676      2.981
  Name = 
  14 active torsions:
  status: ('A' for Active; 'I' for Inactive)
    1  A    between atoms: C_1  and  CA_43
    2  A    between atoms: O_4  and  C_25
    3  A    between atoms: O_4  and  C_65
    4  A    between atoms: C_5  and  S_42
    5  A    between atoms: C_17  and  N_68
    6  A    between atoms: C_26  and  C_69
    7  A    between atoms: C_30  and  C_36
    8  A    between atoms: C_30  and  C_51
    9  A    between atoms: N_32  and  S_42
   10  A    between atoms: N_32  and  C_69
   11  A    between atoms: C_40  and  O_44
   12  A    between atoms: CA_43  and  C_60
   13  A    between atoms: O_44  and  C_65
   14  A    between atoms: N_61  and  C_62
                            x       y       z     vdW  Elec       q    Type
                         _______ _______ _______ _____ _____    ______ ____

>  <TORSDO>
F 14

$$$$
=
 OpenBabel11042418313D

 70 80  0  0  1  0  0  0  0  0999 V2000
  189.4940  175.0140  141.7580 C   0  0  1  0  0  3  0  0  0  0  0  0
  188.0300  176.8370  141.6330 C   0  0  2  0  0  3  0  0  0  0  0  0
  191.7800  174.3460  142.7910 C   0  0  0  0  0  2  0  0  0  0  0  0
  187.4440  175.7280  140.7560 C   0  0  0  0  0  2  0  0  0  0  0  0
  190.3180  173.9430  142.5050 C   0  0  0  0  0  0  0  0  0  0  0  0
  191.3500  176.6710  143.6100 C   0  0  0  0  0  0  0  0  0  0  0  0
  189.6540  173.6330  143.7070 O   0  0  0  0  0  1  0  0  0  0  0  0
  188.6450  174.7910  140.5430 C   0  0  2  0  0  3  0  0  0  0  0  0
  192.0970  175.8320  142.6210 C   0  0  0  0  0  2  0  0  0  0  0  0
  191.9950  177.2420  144.6430 C   0  0  0  0  0  3  0  0  0  0  0  0
  189.2100  176.2050  142.2970 C   0  0  1  0  0  3  0  0  0  0  0  0
  189.8340  176.7680  143.5610 C   0  0  0  0  0  2  0  0  0  0  0  0
  190.4000  172.7670  141.7610 O   0  0  0  0  0  1  0  0  0  0  0  0
  183.1480  178.5660  142.7530 C   0  0  0  0  0  0  0  0  0  0  0  0
  181.8620  178.9140  142.6640 N   0  0  0  0  0  0  0  0  0  0  0  0
  186.2710  178.1730  145.9690 N   0  0  0  0  0  2  0  0  0  0  0  0
  185.2630  178.1070  143.6960 C   0  0  0  0  0  0  0  0  0  0  0  0
  185.7740  177.7570  142.4560 C   0  0  0  0  0  0  0  0  0  0  0  0
  186.3090  177.9420  144.5610 C   0  0  0  0  0  0  0  0  0  0  0  0
  183.6270  178.2200  141.5040 C   0  0  0  0  0  0  0  0  0  0  0  0
  184.9610  177.8040  141.3060 C   0  0  0  0  0  3  0  0  0  0  0  0
  183.9460  178.5160  143.8980 C   0  0  0  0  0  3  0  0  0  0  0  0
  187.3970  177.5040  143.8900 N   0  0  0  0  0  0  0  0  0  0  0  0
  182.6600  178.3820  140.5820 N   0  0  0  0  0  2  0  0  0  0  0  0
  181.5940  178.7820  141.3270 C   0  0  0  0  0  0  0  0  0  0  0  0
  187.4390  177.8740  146.7840 C   0  0  0  0  0  1  0  0  0  0  0  0
  187.0760  177.3810  142.6110 N   0  0  0  0  0  0  0  0  0  0  0  0
  180.3290  180.6020  140.3800 N   0  0  0  0  0  1  0  0  0  0  0  0
  180.2860  179.1980  140.7140 C   0  0  2  0  0  3  0  0  0  0  0  0
  179.0880  178.9260  141.6260 C   0  0  0  0  0  2  0  0  0  0  0  0
  177.8830  179.3000  141.0120 O   0  0  0  0  0  1  0  0  0  0  0  0
  193.4450  176.9650  145.0230 C   0  0  0  0  0  2  0  0  0  0  0  0
  193.8410  173.2450  145.6870 C   0  0  0  0  0  2  0  0  0  0  0  0
  196.5810  174.7170  144.6640 C   0  0  1  0  0  3  0  0  0  0  0  0
  195.9230  174.6380  143.2700 C   0  0  2  0  0  3  0  0  0  0  0  0
  195.4660  175.7180  144.2610 C   0  0  1  0  0  3  0  0  0  0  0  0
  196.2020  173.9530  145.8660 N   0  0  0  0  0  2  0  0  0  0  0  0
  193.9770  175.5800  144.6930 C   0  0  1  0  0  3  0  0  0  0  0  0
  193.6820  174.7400  145.9360 C   0  0  0  0  0  2  0  0  0  0  0  0
  195.3210  172.8060  145.6720 C   0  0  0  0  0  2  0  0  0  0  0  0
  195.0880  173.3820  142.9780 C   0  0  0  0  0  2  0  0  0  0  0  0
  195.8550  172.3670  142.2580 N   0  0  0  0  0  2  0  0  0  0  0  0
  193.5280  171.2820  141.7400 O   0  0  0  0  0  0  0  0  0  0  0  0
  194.8710  171.5280  141.1110 S   0  0  0  0  0  0  0  0  0  0  0  0
  195.4910  170.2060  140.7710 O   0  0  0  0  0  0  0  0  0  0  0  0
  194.6140  172.4190  139.5610 C   0  0  2  0  0  3  0  0  0  0  0  0
  195.9140  173.1400  139.1820 C   0  0  0  0  0  2  0  0  0  0  0  0
  193.4420  174.5490  139.0440 C   0  0  0  0  0  3  0  0  0  0  0  0
  193.4540  173.3830  139.6830 C   0  0  0  0  0  3  0  0  0  0  0  0
  195.6500  174.0230  137.9610 C   0  0  0  0  0  2  0  0  0  0  0  0
  194.5540  174.9640  138.2570 N   0  0  0  0  0  2  0  0  0  0  0  0
  188.2220  173.4570  140.4120 O   0  0  0  0  0  0  0  0  0  0  0  0
  188.2590  173.2200  139.0390 C   0  0  0  0  0  2  0  0  0  0  0  0
  189.3790  173.8010  138.4230 O   0  0  0  0  0  0  0  0  0  0  0  0
  190.6760  171.1570  138.3210 O   0  0  0  0  0  0  0  0  0  0  0  0
  193.1280  171.9340  135.8730 C   0  0  0  0  0  0  0  0  0  0  0  0
  189.3890  173.4250  137.0710 C   0  0  2  0  0  3  0  0  0  0  0  0
  191.2630  173.4270  135.7120 C   0  0  0  0  0  0  0  0  0  0  0  0
  190.4890  174.5540  135.1810 C   0  0  0  0  0  2  0  0  0  0  0  0
  191.2460  171.7290  137.3630 C   0  0  0  0  0  0  0  0  0  0  0  0
  192.4950  171.2870  136.9490 C   0  0  0  0  0  3  0  0  0  0  0  0
  190.6680  172.8000  136.7400 N   0  0  0  0  0  0  0  0  0  0  0  0
  194.4600  171.4990  135.4400 C   0  0  0  0  0  1  0  0  0  0  0  0
  189.3780  174.7240  136.2330 C   0  0  1  0  0  3  0  0  0  0  0  0
  192.5090  173.0170  135.2440 C   0  0  0  0  0  3  0  0  0  0  0  0
  187.8070  177.3040  134.9290 C   0  0  0  0  0  2  0  0  0  0  0  0
  187.5780  177.2160  136.4080 C   0  0  0  0  0  2  0  0  0  0  0  0
  188.2720  175.9220  134.5140 C   0  0  0  0  0  2  0  0  0  0  0  0
  187.2590  175.7550  136.5970 C   0  0  0  0  0  2  0  0  0  0  0  0
  188.0560  174.9940  135.6240 N   0  0  0  0  0  0  0  0  0  0  0  0
  1 11  1  0  0  0  0
  1  5  1  1  0  0  0
  2  4  1  1  0  0  0
  2 11  1  0  0  0  0
  2 27  1  0  0  0  0
  5  3  1  0  0  0  0
  5  7  1  0  0  0  0
  6 10  2  0  0  0  0
  8 52  1  1  0  0  0
  8  4  1  0  0  0  0
  8  1  1  0  0  0  0
  9  3  1  0  0  0  0
  9  6  1  0  0  0  0
 10 32  1  0  0  0  0
 11 12  1  1  0  0  0
 12  6  1  0  0  0  0
 13  5  1  0  0  0  0
 14 22  1  0  0  0  0
 15 14  1  0  0  0  0
 16 26  1  0  0  0  0
 17 22  2  0  0  0  0
 17 19  1  0  0  0  0
 18 27  1  0  0  0  0
 18 17  1  0  0  0  0
 19 16  1  0  0  0  0
 20 14  2  0  0  0  0
 21 20  1  0  0  0  0
 21 18  2  0  0  0  0
 23 19  2  0  0  0  0
 24 25  1  0  0  0  0
 24 20  1  0  0  0  0
 25 15  2  0  0  0  0
 27 23  1  0  0  0  0
 29 28  1  1  0  0  0
 29 25  1  0  0  0  0
 29 30  1  0  0  0  0
 31 30  1  0  0  0  0
 33 39  1  0  0  0  0
 34 37  1  1  0  0  0
 35 41  1  1  0  0  0
 35 36  1  0  0  0  0
 35 34  1  0  0  0  0
 36 34  1  0  0  0  0
 36 38  1  0  0  0  0
 38 32  1  0  0  0  0
 38 39  1  0  0  0  0
 40 33  1  0  0  0  0
 40 37  1  0  0  0  0
 42 41  1  0  0  0  0
 44 43  2  0  0  0  0
 44 42  1  0  0  0  0
 45 44  2  0  0  0  0
 46 49  1  0  0  0  0
 46 44  1  0  0  0  0
 47 46  1  0  0  0  0
 48 49  2  0  0  0  0
 50 51  1  0  0  0  0
 50 47  1  0  0  0  0
 51 48  1  0  0  0  0
 53 52  1  0  0  0  0
 54 53  1  0  0  0  0
 56 61  2  0  0  0  0
 57 54  1  0  0  0  0
 58 62  1  0  0  0  0
 59 58  1  0  0  0  0
 59 64  1  0  0  0  0
 60 55  2  0  0  0  0
 61 60  1  0  0  0  0
 62 57  1  0  0  0  0
 62 60  1  0  0  0  0
 63 56  1  0  0  0  0
 64 57  1  0  0  0  0
 65 58  2  0  0  0  0
 65 56  1  0  0  0  0
 66 67  1  0  0  0  0
 67 69  1  0  0  0  0
 68 66  1  0  0  0  0
 68 70  1  0  0  0  0
 70 64  1  0  0  0  0
 70 69  1  0  0  0  0
M  END
>  <MODEL>
3

>  <REMARK>
 VINA RESULT:      -7.7      2.015      3.408
  Name = 
  14 active torsions:
  status: ('A' for Active; 'I' for Inactive)
    1  A    between atoms: C_1  and  CA_43
    2  A    between atoms: O_4  and  C_25
    3  A    between atoms: O_4  and  C_65
    4  A    between atoms: C_5  and  S_42
    5  A    between atoms: C_17  and  N_68
    6  A    between atoms: C_26  and  C_69
    7  A    between atoms: C_30  and  C_36
    8  A    between atoms: C_30  and  C_51
    9  A    between atoms: N_32  and  S_42
   10  A    between atoms: N_32  and  C_69
   11  A    between atoms: C_40  and  O_44
   12  A    between atoms: CA_43  and  C_60
   13  A    between atoms: O_44  and  C_65
   14  A    between atoms: N_61  and  C_62
                            x       y       z     vdW  Elec       q    Type
                         _______ _______ _______ _____ _____    ______ ____

>  <TORSDO>
F 14

$$$$
=
 OpenBabel11042418313D

 70 80  0  0  1  0  0  0  0  0999 V2000
  190.4870  171.7070  140.5090 C   0  0  1  0  0  3  0  0  0  0  0  0
  192.7120  170.9770  140.5600 C   0  0  2  0  0  3  0  0  0  0  0  0
  188.6740  172.7200  142.0660 C   0  0  0  0  0  2  0  0  0  0  0  0
  192.1740  170.6840  139.1580 C   0  0  0  0  0  2  0  0  0  0  0  0
  189.3650  172.7520  140.6870 C   0  0  0  0  0  0  0  0  0  0  0  0
  190.7290  172.5510  143.4840 C   0  0  0  0  0  0  0  0  0  0  0  0
  189.9050  174.0280  140.4420 O   0  0  0  0  0  1  0  0  0  0  0  0
  190.6500  170.7680  139.3520 C   0  0  2  0  0  3  0  0  0  0  0  0
  189.4090  171.9300  143.1510 C   0  0  0  0  0  2  0  0  0  0  0  0
  190.9000  173.2000  144.6490 C   0  0  0  0  0  3  0  0  0  0  0  0
  191.6130  171.7360  141.2320 C   0  0  1  0  0  3  0  0  0  0  0  0
  191.8490  172.5990  142.4570 C   0  0  0  0  0  2  0  0  0  0  0  0
  188.3430  172.5500  139.7600 O   0  0  0  0  0  1  0  0  0  0  0  0
  195.9050  174.5220  138.2560 C   0  0  0  0  0  0  0  0  0  0  0  0
  196.4190  175.4290  137.4210 N   0  0  0  0  0  0  0  0  0  0  0  0
  196.9300  172.7190  142.2480 N   0  0  0  0  0  2  0  0  0  0  0  0
  195.6580  173.1390  140.1530 C   0  0  0  0  0  0  0  0  0  0  0  0
  194.4720  172.6200  139.6580 C   0  0  0  0  0  0  0  0  0  0  0  0
  195.8390  172.5090  141.3520 C   0  0  0  0  0  0  0  0  0  0  0  0
  194.7250  174.0240  137.7360 C   0  0  0  0  0  0  0  0  0  0  0  0
  193.9630  173.0500  138.4170 C   0  0  0  0  0  3  0  0  0  0  0  0
  196.4130  174.1030  139.4870 C   0  0  0  0  0  3  0  0  0  0  0  0
  194.8160  171.6570  141.5840 N   0  0  0  0  0  0  0  0  0  0  0  0
  194.4840  174.5790  136.5330 N   0  0  0  0  0  2  0  0  0  0  0  0
  195.5230  175.4450  136.3860 C   0  0  0  0  0  0  0  0  0  0  0  0
  196.9520  172.0380  143.5360 C   0  0  0  0  0  1  0  0  0  0  0  0
  193.9770  171.7260  140.5620 N   0  0  0  0  0  0  0  0  0  0  0  0
  197.1490  176.5690  135.0070 N   0  0  0  0  0  1  0  0  0  0  0  0
  195.7510  176.2300  135.1230 C   0  0  2  0  0  3  0  0  0  0  0  0
  194.9080  177.5040  135.0540 C   0  0  0  0  0  2  0  0  0  0  0  0
  193.6570  177.3230  135.6650 O   0  0  0  0  0  1  0  0  0  0  0  0
  189.7840  173.5320  145.6330 C   0  0  0  0  0  2  0  0  0  0  0  0
  188.9800  176.6440  143.6060 C   0  0  0  0  0  2  0  0  0  0  0  0
  189.0110  177.1310  146.8420 C   0  0  1  0  0  3  0  0  0  0  0  0
  187.6210  176.4610  146.8040 C   0  0  2  0  0  3  0  0  0  0  0  0
  188.8830  175.5910  146.7150 C   0  0  1  0  0  3  0  0  0  0  0  0
  189.7510  177.7000  145.7020 N   0  0  0  0  0  2  0  0  0  0  0  0
  189.0140  174.8160  145.3720 C   0  0  1  0  0  3  0  0  0  0  0  0
  189.7720  175.5040  144.2360 C   0  0  0  0  0  2  0  0  0  0  0  0
  189.0010  177.9220  144.4700 C   0  0  0  0  0  2  0  0  0  0  0  0
  186.7460  176.7700  145.5800 C   0  0  0  0  0  2  0  0  0  0  0  0
  185.4700  177.3780  145.9560 N   0  0  0  0  0  2  0  0  0  0  0  0
  185.8580  179.6750  144.7600 O   0  0  0  0  0  0  0  0  0  0  0  0
  184.9260  178.4960  144.7550 S   0  0  0  0  0  0  0  0  0  0  0  0
  183.5440  178.9750  145.0880 O   0  0  0  0  0  0  0  0  0  0  0  0
  184.8750  177.8220  143.0800 C   0  0  2  0  0  3  0  0  0  0  0  0
  186.0600  178.3830  142.2840 C   0  0  0  0  0  2  0  0  0  0  0  0
  183.4650  178.3750  141.1100 C   0  0  0  0  0  3  0  0  0  0  0  0
  183.5540  178.1380  142.4150 C   0  0  0  0  0  3  0  0  0  0  0  0
  185.9260  177.9430  140.8250 C   0  0  0  0  0  2  0  0  0  0  0  0
  184.6280  178.3930  140.2880 N   0  0  0  0  0  2  0  0  0  0  0  0
  190.0220  171.2310  138.1830 O   0  0  0  0  0  0  0  0  0  0  0  0
  190.9600  171.0050  137.1780 C   0  0  0  0  0  2  0  0  0  0  0  0
  190.3740  170.5250  135.9950 O   0  0  0  0  0  0  0  0  0  0  0  0
  191.5440  168.1660  134.6710 O   0  0  0  0  0  0  0  0  0  0  0  0
  194.9200  169.2700  134.6470 C   0  0  0  0  0  0  0  0  0  0  0  0
  191.1080  171.0150  134.9040 C   0  0  2  0  0  3  0  0  0  0  0  0
  193.4170  171.1290  134.8070 C   0  0  0  0  0  0  0  0  0  0  0  0
  193.0380  172.5400  134.9240 C   0  0  0  0  0  2  0  0  0  0  0  0
  192.5340  168.9350  134.6870 C   0  0  0  0  0  0  0  0  0  0  0  0
  193.8140  168.4010  134.6310 C   0  0  0  0  0  3  0  0  0  0  0  0
  192.3700  170.2880  134.7880 N   0  0  0  0  0  0  0  0  0  0  0  0
  196.2800  168.7230  134.6180 C   0  0  0  0  0  1  0  0  0  0  0  0
  191.5360  172.4590  135.2500 C   0  0  1  0  0  3  0  0  0  0  0  0
  194.7240  170.6510  134.7370 C   0  0  0  0  0  3  0  0  0  0  0  0
  189.9780  175.2660  135.9710 C   0  0  0  0  0  2  0  0  0  0  0  0
  189.0790  174.0810  136.1520 C   0  0  0  0  0  2  0  0  0  0  0  0
  191.1020  174.7820  135.0760 C   0  0  0  0  0  2  0  0  0  0  0  0
  189.3310  173.2920  134.8920 C   0  0  0  0  0  2  0  0  0  0  0  0
  190.7420  173.4760  134.5250 N   0  0  0  0  0  0  0  0  0  0  0  0
  1  5  1  6  0  0  0
  1 11  1  0  0  0  0
  2  4  1  6  0  0  0
  2 27  1  0  0  0  0
  2 11  1  0  0  0  0
  3  9  1  0  0  0  0
  4  8  1  0  0  0  0
  5  3  1  0  0  0  0
  6 10  2  0  0  0  0
  7  5  1  0  0  0  0
  8 52  1  6  0  0  0
  8  1  1  0  0  0  0
  9  6  1  0  0  0  0
 10 32  1  0  0  0  0
 11 12  1  6  0  0  0
 12  6  1  0  0  0  0
 13  5  1  0  0  0  0
 14 22  1  0  0  0  0
 15 14  1  0  0  0  0
 16 26  1  0  0  0  0
 17 19  1  0  0  0  0
 18 17  1  0  0  0  0
 18 27  1  0  0  0  0
 19 23  2  0  0  0  0
 19 16  1  0  0  0  0
 20 14  2  0  0  0  0
 20 21  1  0  0  0  0
 21 18  2  0  0  0  0
 22 17  2  0  0  0  0
 24 20  1  0  0  0  0
 25 24  1  0  0  0  0
 25 15  2  0  0  0  0
 27 23  1  0  0  0  0
 29 28  1  1  0  0  0
 29 25  1  0  0  0  0
 30 29  1  0  0  0  0
 30 31  1  0  0  0  0
 33 39  1  0  0  0  0
 33 40  1  0  0  0  0
 34 37  1  6  0  0  0
 35 41  1  6  0  0  0
 35 34  1  0  0  0  0
 36 35  1  0  0  0  0
 36 34  1  0  0  0  0
 38 32  1  0  0  0  0
 38 36  1  0  0  0  0
 39 38  1  0  0  0  0
 40 37  1  0  0  0  0
 41 42  1  0  0  0  0
 44 43  2  0  0  0  0
 44 45  2  0  0  0  0
 44 42  1  0  0  0  0
 46 44  1  0  0  0  0
 47 46  1  0  0  0  0
 48 49  2  0  0  0  0
 49 46  1  0  0  0  0
 50 47  1  0  0  0  0
 51 50  1  0  0  0  0
 51 48  1  0  0  0  0
 53 52  1  0  0  0  0
 54 53  1  0  0  0  0
 55 60  2  0  0  0  0
 56 65  1  0  0  0  0
 57 64  1  0  0  0  0
 57 54  1  0  0  0  0
 58 59  1  0  0  0  0
 59 64  1  0  0  0  0
 60 62  1  0  0  0  0
 61 56  2  0  0  0  0
 61 60  1  0  0  0  0
 62 58  1  0  0  0  0
 62 57  1  0  0  0  0
 63 56  1  0  0  0  0
 65 58  2  0  0  0  0
 66 67  1  0  0  0  0
 68 66  1  0  0  0  0
 69 67  1  0  0  0  0
 70 69  1  0  0  0  0
 70 68  1  0  0  0  0
 70 64  1  0  0  0  0
M  END
>  <MODEL>
4

>  <REMARK>
 VINA RESULT:      -7.6      3.268      8.442
  Name = 
  14 active torsions:
  status: ('A' for Active; 'I' for Inactive)
    1  A    between atoms: C_1  and  CA_43
    2  A    between atoms: O_4  and  C_25
    3  A    between atoms: O_4  and  C_65
    4  A    between atoms: C_5  and  S_42
    5  A    between atoms: C_17  and  N_68
    6  A    between atoms: C_26  and  C_69
    7  A    between atoms: C_30  and  C_36
    8  A    between atoms: C_30  and  C_51
    9  A    between atoms: N_32  and  S_42
   10  A    between atoms: N_32  and  C_69
   11  A    between atoms: C_40  and  O_44
   12  A    between atoms: CA_43  and  C_60
   13  A    between atoms: O_44  and  C_65
   14  A    between atoms: N_61  and  C_62
                            x       y       z     vdW  Elec       q    Type
                         _______ _______ _______ _____ _____    ______ ____

>  <TORSDO>
F 14

$$$$
=
 OpenBabel11042418313D

 70 80  0  0  1  0  0  0  0  0999 V2000
  195.9600  174.9940  143.5360 C   0  0  1  0  0  3  0  0  0  0  0  0
  196.6220  175.3500  141.3180 C   0  0  2  0  0  3  0  0  0  0  0  0
  194.1190  175.7130  145.2190 C   0  0  0  0  0  2  0  0  0  0  0  0
  197.6770  174.4500  141.9640 C   0  0  0  0  0  2  0  0  0  0  0  0
  194.9660  174.5620  144.6360 C   0  0  0  0  0  0  0  0  0  0  0  0
  193.4970  176.8180  143.0620 C   0  0  0  0  0  0  0  0  0  0  0  0
  194.1300  173.5600  144.1090 O   0  0  0  0  0  1  0  0  0  0  0  0
  197.4150  174.6410  143.4680 C   0  0  2  0  0  3  0  0  0  0  0  0
  194.1240  177.0090  144.4080 C   0  0  0  0  0  2  0  0  0  0  0  0
  192.2840  177.3350  142.7980 C   0  0  0  0  0  3  0  0  0  0  0  0
  195.5560  175.4830  142.3580 C   0  0  1  0  0  3  0  0  0  0  0  0
  194.1390  175.9120  142.0250 C   0  0  0  0  0  2  0  0  0  0  0  0
  195.6370  174.0110  145.7270 O   0  0  0  0  0  1  0  0  0  0  0  0
  193.6060  171.8170  138.7690 C   0  0  0  0  0  0  0  0  0  0  0  0
  192.7800  170.8070  138.4880 N   0  0  0  0  0  0  0  0  0  0  0  0
  195.6310  175.1720  136.5580 N   0  0  0  0  0  2  0  0  0  0  0  0
  194.9660  173.7230  138.4660 C   0  0  0  0  0  0  0  0  0  0  0  0
  195.2740  173.7550  139.8180 C   0  0  0  0  0  0  0  0  0  0  0  0
  195.6410  174.7840  137.9310 C   0  0  0  0  0  0  0  0  0  0  0  0
  193.8920  171.8240  140.1210 C   0  0  0  0  0  0  0  0  0  0  0  0
  194.7410  172.7940  140.6990 C   0  0  0  0  0  3  0  0  0  0  0  0
  194.1270  172.7710  137.8910 C   0  0  0  0  0  3  0  0  0  0  0  0
  196.3170  175.4370  138.9020 N   0  0  0  0  0  0  0  0  0  0  0  0
  193.2820  170.7860  140.7240 N   0  0  0  0  0  2  0  0  0  0  0  0
  192.5960  170.2040  139.7030 C   0  0  0  0  0  0  0  0  0  0  0  0
  196.3310  176.3780  136.1400 C   0  0  0  0  0  1  0  0  0  0  0  0
  196.0910  174.8220  140.0530 N   0  0  0  0  0  0  0  0  0  0  0  0
  191.0490  168.6610  138.6850 N   0  0  0  0  0  1  0  0  0  0  0  0
  191.8350  168.9180  139.8680 C   0  0  2  0  0  3  0  0  0  0  0  0
  190.9240  168.9180  141.0970 C   0  0  0  0  0  2  0  0  0  0  0  0
  191.5840  168.4030  142.2230 O   0  0  0  0  0  1  0  0  0  0  0  0
  191.3660  177.9740  143.8340 C   0  0  0  0  0  2  0  0  0  0  0  0
  187.8300  176.8680  144.6740 C   0  0  0  0  0  2  0  0  0  0  0  0
  189.9220  176.6700  147.1850 C   0  0  1  0  0  3  0  0  0  0  0  0
  190.4090  175.3860  146.4810 C   0  0  2  0  0  3  0  0  0  0  0  0
  190.8550  176.7540  145.9480 C   0  0  1  0  0  3  0  0  0  0  0  0
  188.6550  177.3840  146.9450 N   0  0  0  0  0  2  0  0  0  0  0  0
  190.3590  177.0550  144.5040 C   0  0  1  0  0  3  0  0  0  0  0  0
  189.0160  177.7710  144.3580 C   0  0  0  0  0  2  0  0  0  0  0  0
  187.6270  176.6750  146.1920 C   0  0  0  0  0  2  0  0  0  0  0  0
  189.3340  174.5390  145.7810 C   0  0  0  0  0  2  0  0  0  0  0  0
  189.6360  173.1100  145.8380 N   0  0  0  0  0  2  0  0  0  0  0  0
  189.2570  171.2970  143.9870 O   0  0  0  0  0  0  0  0  0  0  0  0
  190.1040  172.5020  144.2890 S   0  0  0  0  0  0  0  0  0  0  0  0
  191.5440  172.0830  144.3150 O   0  0  0  0  0  0  0  0  0  0  0  0
  189.9080  173.6830  142.9370 C   0  0  2  0  0  3  0  0  0  0  0  0
  188.4580  173.6330  142.4400 C   0  0  0  0  0  2  0  0  0  0  0  0
  190.5860  173.5980  140.5470 C   0  0  0  0  0  3  0  0  0  0  0  0
  190.8920  173.3910  141.8250 C   0  0  0  0  0  3  0  0  0  0  0  0
  188.3330  174.5100  141.1940 C   0  0  0  0  0  2  0  0  0  0  0  0
  189.2910  174.0550  140.1680 N   0  0  0  0  0  2  0  0  0  0  0  0
  197.7260  173.4700  144.1820 O   0  0  0  0  0  0  0  0  0  0  0  0
  197.9140  172.5060  143.1930 C   0  0  0  0  0  2  0  0  0  0  0  0
  196.7910  171.6790  143.0290 O   0  0  0  0  0  0  0  0  0  0  0  0
  197.9410  171.6950  140.3160 O   0  0  0  0  0  0  0  0  0  0  0  0
  196.0680  168.9810  138.9980 C   0  0  0  0  0  0  0  0  0  0  0  0
  197.2350  170.3700  142.7860 C   0  0  2  0  0  3  0  0  0  0  0  0
  196.1820  168.8550  141.3870 C   0  0  0  0  0  0  0  0  0  0  0  0
  195.9080  168.2980  142.7150 C   0  0  0  0  0  2  0  0  0  0  0  0
  197.2600  170.6440  140.2700 C   0  0  0  0  0  0  0  0  0  0  0  0
  196.8300  170.1620  139.0410 C   0  0  0  0  0  3  0  0  0  0  0  0
  196.9120  169.9830  141.4140 N   0  0  0  0  0  0  0  0  0  0  0  0
  195.5810  168.4720  137.7120 C   0  0  0  0  0  1  0  0  0  0  0  0
  196.3730  169.4250  143.6550 C   0  0  1  0  0  3  0  0  0  0  0  0
  195.7380  168.3170  140.1820 C   0  0  0  0  0  3  0  0  0  0  0  0
  195.8690  169.2120  146.9000 C   0  0  0  0  0  2  0  0  0  0  0  0
  196.5190  170.5120  146.5320 C   0  0  0  0  0  2  0  0  0  0  0  0
  196.1220  168.2920  145.7210 C   0  0  0  0  0  2  0  0  0  0  0  0
  197.6090  170.0700  145.5890 C   0  0  0  0  0  2  0  0  0  0  0  0
  197.1060  168.9130  144.8350 N   0  0  0  0  0  0  0  0  0  0  0  0
  1  5  1  6  0  0  0
  2 27  1  6  0  0  0
  2  4  1  0  0  0  0
  2 11  1  0  0  0  0
  4  8  1  0  0  0  0
  5  3  1  0  0  0  0
  5 13  1  0  0  0  0
  6  9  1  0  0  0  0
  7  5  1  0  0  0  0
  8  1  1  0  0  0  0
  8 52  1  1  0  0  0
  9  3  1  0  0  0  0
 10  6  2  0  0  0  0
 10 32  1  0  0  0  0
 11 12  1  6  0  0  0
 11  1  1  0  0  0  0
 12  6  1  0  0  0  0
 14 20  1  0  0  0  0
 15 14  1  0  0  0  0
 15 25  2  0  0  0  0
 16 19  1  0  0  0  0
 17 18  2  0  0  0  0
 18 27  1  0  0  0  0
 18 21  1  0  0  0  0
 19 17  1  0  0  0  0
 19 23  2  0  0  0  0
 20 21  2  0  0  0  0
 20 24  1  0  0  0  0
 22 17  1  0  0  0  0
 22 14  2  0  0  0  0
 23 27  1  0  0  0  0
 25 29  1  0  0  0  0
 25 24  1  0  0  0  0
 26 16  1  0  0  0  0
 29 28  1  6  0  0  0
 29 30  1  0  0  0  0
 30 31  1  0  0  0  0
 32 38  1  0  0  0  0
 33 40  1  0  0  0  0
 34 37  1  6  0  0  0
 35 41  1  6  0  0  0
 35 34  1  0  0  0  0
 36 35  1  0  0  0  0
 36 34  1  0  0  0  0
 38 36  1  0  0  0  0
 39 38  1  0  0  0  0
 39 33  1  0  0  0  0
 40 37  1  0  0  0  0
 41 42  1  0  0  0  0
 43 44  2  0  0  0  0
 44 45  2  0  0  0  0
 44 42  1  0  0  0  0
 46 44  1  0  0  0  0
 47 46  1  0  0  0  0
 48 49  2  0  0  0  0
 49 46  1  0  0  0  0
 50 47  1  0  0  0  0
 51 48  1  0  0  0  0
 51 50  1  0  0  0  0
 53 52  1  0  0  0  0
 54 53  1  0  0  0  0
 56 61  2  0  0  0  0
 56 65  1  0  0  0  0
 57 54  1  0  0  0  0
 57 64  1  0  0  0  0
 58 62  1  0  0  0  0
 58 59  1  0  0  0  0
 59 64  1  0  0  0  0
 60 55  2  0  0  0  0
 60 62  1  0  0  0  0
 61 60  1  0  0  0  0
 62 57  1  0  0  0  0
 63 56  1  0  0  0  0
 64 70  1  0  0  0  0
 65 58  2  0  0  0  0
 67 66  1  0  0  0  0
 68 66  1  0  0  0  0
 69 67  1  0  0  0  0
 70 69  1  0  0  0  0
 70 68  1  0  0  0  0
M  END
>  <MODEL>
5

>  <REMARK>
 VINA RESULT:      -7.5      3.953      9.604
  Name = 
  14 active torsions:
  status: ('A' for Active; 'I' for Inactive)
    1  A    between atoms: C_1  and  CA_43
    2  A    between atoms: O_4  and  C_25
    3  A    between atoms: O_4  and  C_65
    4  A    between atoms: C_5  and  S_42
    5  A    between atoms: C_17  and  N_68
    6  A    between atoms: C_26  and  C_69
    7  A    between atoms: C_30  and  C_36
    8  A    between atoms: C_30  and  C_51
    9  A    between atoms: N_32  and  S_42
   10  A    between atoms: N_32  and  C_69
   11  A    between atoms: C_40  and  O_44
   12  A    between atoms: CA_43  and  C_60
   13  A    between atoms: O_44  and  C_65
   14  A    between atoms: N_61  and  C_62
                            x       y       z     vdW  Elec       q    Type
                         _______ _______ _______ _____ _____    ______ ____

>  <TORSDO>
F 14

$$$$
=
 OpenBabel11042418313D

 70 80  0  0  1  0  0  0  0  0999 V2000
  195.6220  174.6580  143.6680 C   0  0  1  0  0  3  0  0  0  0  0  0
  196.5150  175.1390  141.5580 C   0  0  2  0  0  3  0  0  0  0  0  0
  193.7470  175.4490  145.2790 C   0  0  0  0  0  2  0  0  0  0  0  0
  197.3880  174.0450  142.1770 C   0  0  0  0  0  2  0  0  0  0  0  0
  194.4890  174.2580  144.6380 C   0  0  0  0  0  0  0  0  0  0  0  0
  193.4610  176.8360  143.2170 C   0  0  0  0  0  0  0  0  0  0  0  0
  193.5830  173.4350  143.9440 O   0  0  0  0  0  1  0  0  0  0  0  0
  197.0210  174.1200  143.6690 C   0  0  2  0  0  3  0  0  0  0  0  0
  193.9870  176.8060  144.6170 C   0  0  0  0  0  2  0  0  0  0  0  0
  192.3510  177.5360  142.9220 C   0  0  0  0  0  3  0  0  0  0  0  0
  195.3880  175.3110  142.5240 C   0  0  1  0  0  3  0  0  0  0  0  0
  194.0720  175.9590  142.1360 C   0  0  0  0  0  2  0  0  0  0  0  0
  194.9870  173.5160  145.7090 O   0  0  0  0  0  1  0  0  0  0  0  0
  192.7320  173.1470  138.4270 C   0  0  0  0  0  0  0  0  0  0  0  0
  191.6040  172.5920  137.9790 N   0  0  0  0  0  0  0  0  0  0  0  0
  196.4020  175.0900  136.6930 N   0  0  0  0  0  2  0  0  0  0  0  0
  194.8340  174.2240  138.4180 C   0  0  0  0  0  0  0  0  0  0  0  0
  194.8810  174.2100  139.8040 C   0  0  0  0  0  0  0  0  0  0  0  0
  195.9960  174.8340  138.0370 C   0  0  0  0  0  0  0  0  0  0  0  0
  192.7500  173.1200  139.8090 C   0  0  0  0  0  0  0  0  0  0  0  0
  193.8270  173.6480  140.5520 C   0  0  0  0  0  3  0  0  0  0  0  0
  193.7710  173.7060  137.6800 C   0  0  0  0  0  3  0  0  0  0  0  0
  196.7110  175.1850  139.1290 N   0  0  0  0  0  0  0  0  0  0  0  0
  191.6430  172.5060  140.2690 N   0  0  0  0  0  2  0  0  0  0  0  0
  190.9600  172.2200  139.1280 C   0  0  0  0  0  0  0  0  0  0  0  0
  197.6300  175.8270  136.4350 C   0  0  0  0  0  1  0  0  0  0  0  0
  196.0350  174.8150  140.2060 N   0  0  0  0  0  0  0  0  0  0  0  0
  189.7240  170.4460  138.0610 N   0  0  0  0  0  1  0  0  0  0  0  0
  189.6860  171.4200  139.1250 C   0  0  2  0  0  3  0  0  0  0  0  0
  188.4370  172.2910  138.9760 C   0  0  0  0  0  2  0  0  0  0  0  0
  188.5040  173.4260  139.7980 O   0  0  0  0  0  1  0  0  0  0  0  0
  191.4350  178.1880  143.9510 C   0  0  0  0  0  2  0  0  0  0  0  0
  189.0590  176.6960  146.5130 C   0  0  0  0  0  2  0  0  0  0  0  0
  189.6830  174.7320  143.9690 C   0  0  1  0  0  3  0  0  0  0  0  0
  188.6820  175.6360  143.2190 C   0  0  2  0  0  3  0  0  0  0  0  0
  190.1160  176.1300  143.4550 C   0  0  1  0  0  3  0  0  0  0  0  0
  189.8560  174.6240  145.4290 N   0  0  0  0  0  2  0  0  0  0  0  0
  190.2010  177.3980  144.3530 C   0  0  1  0  0  3  0  0  0  0  0  0
  190.3470  177.1820  145.8600 C   0  0  0  0  0  2  0  0  0  0  0  0
  188.8050  175.1940  146.2650 C   0  0  0  0  0  2  0  0  0  0  0  0
  187.4870  176.1570  144.0330 C   0  0  0  0  0  2  0  0  0  0  0  0
  186.2820  176.2930  143.2160 N   0  0  0  0  0  2  0  0  0  0  0  0
  184.2310  177.8330  142.6860 O   0  0  0  0  0  0  0  0  0  0  0  0
  185.4920  177.8030  143.5040 S   0  0  0  0  0  0  0  0  0  0  0  0
  186.3740  178.9350  143.0680 O   0  0  0  0  0  0  0  0  0  0  0  0
  185.0530  178.0950  145.2310 C   0  0  2  0  0  3  0  0  0  0  0  0
  185.9410  179.2150  145.7870 C   0  0  0  0  0  2  0  0  0  0  0  0
  185.5730  176.8380  147.3120 C   0  0  0  0  0  3  0  0  0  0  0  0
  185.1860  176.8220  146.0400 C   0  0  0  0  0  3  0  0  0  0  0  0
  185.6840  179.3500  147.2880 C   0  0  0  0  0  2  0  0  0  0  0  0
  185.9340  178.0570  147.9530 N   0  0  0  0  0  2  0  0  0  0  0  0
  197.1170  172.8530  144.2710 O   0  0  0  0  0  0  0  0  0  0  0  0
  197.0050  171.9600  143.2080 C   0  0  0  0  0  2  0  0  0  0  0  0
  195.7340  171.3660  143.1360 O   0  0  0  0  0  0  0  0  0  0  0  0
  196.2440  171.2700  140.2360 O   0  0  0  0  0  0  0  0  0  0  0  0
  193.7100  168.9300  139.3930 C   0  0  0  0  0  0  0  0  0  0  0  0
  195.8930  170.0100  142.8140 C   0  0  2  0  0  3  0  0  0  0  0  0
  194.3260  168.7230  141.6980 C   0  0  0  0  0  0  0  0  0  0  0  0
  194.2640  168.1820  143.0590 C   0  0  0  0  0  2  0  0  0  0  0  0
  195.4080  170.3440  140.3520 C   0  0  0  0  0  0  0  0  0  0  0  0
  194.6450  169.9710  139.2550 C   0  0  0  0  0  3  0  0  0  0  0  0
  195.2180  169.7170  141.5520 N   0  0  0  0  0  0  0  0  0  0  0  0
  192.8740  168.5410  138.2520 C   0  0  0  0  0  1  0  0  0  0  0  0
  195.1020  169.1930  143.8620 C   0  0  1  0  0  3  0  0  0  0  0  0
  193.5450  168.2960  140.6270 C   0  0  0  0  0  3  0  0  0  0  0  0
  195.4290  169.1480  147.1350 C   0  0  0  0  0  2  0  0  0  0  0  0
  196.2350  170.2530  146.5210 C   0  0  0  0  0  2  0  0  0  0  0  0
  195.1520  168.1790  146.0020 C   0  0  0  0  0  2  0  0  0  0  0  0
  196.9130  169.5540  145.3700 C   0  0  0  0  0  2  0  0  0  0  0  0
  195.9830  168.5390  144.8550 N   0  0  0  0  0  0  0  0  0  0  0  0
  1  8  1  0  0  0  0
  1  5  1  6  0  0  0
  2 27  1  6  0  0  0
  2  4  1  0  0  0  0
  2 11  1  0  0  0  0
  4  8  1  0  0  0  0
  5  3  1  0  0  0  0
  5 13  1  0  0  0  0
  6  9  1  0  0  0  0
  7  5  1  0  0  0  0
  8 52  1  6  0  0  0
  9  3  1  0  0  0  0
 10  6  2  0  0  0  0
 10 32  1  0  0  0  0
 11 12  1  6  0  0  0
 11  1  1  0  0  0  0
 12  6  1  0  0  0  0
 14 20  1  0  0  0  0
 15 14  1  0  0  0  0
 15 25  2  0  0  0  0
 16 19  1  0  0  0  0
 17 18  2  0  0  0  0
 18 27  1  0  0  0  0
 18 21  1  0  0  0  0
 19 17  1  0  0  0  0
 19 23  2  0  0  0  0
 20 24  1  0  0  0  0
 20 21  2  0  0  0  0
 22 17  1  0  0  0  0
 22 14  2  0  0  0  0
 23 27  1  0  0  0  0
 25 24  1  0  0  0  0
 26 16  1  0  0  0  0
 29 28  1  6  0  0  0
 29 25  1  0  0  0  0
 30 29  1  0  0  0  0
 30 31  1  0  0  0  0
 32 38  1  0  0  0  0
 34 37  1  1  0  0  0
 35 36  1  0  0  0  0
 35 34  1  0  0  0  0
 35 41  1  1  0  0  0
 36 34  1  0  0  0  0
 36 38  1  0  0  0  0
 37 40  1  0  0  0  0
 38 39  1  0  0  0  0
 39 33  1  0  0  0  0
 40 33  1  0  0  0  0
 42 44  1  0  0  0  0
 42 41  1  0  0  0  0
 43 44  2  0  0  0  0
 44 46  1  0  0  0  0
 45 44  2  0  0  0  0
 46 47  1  0  0  0  0
 46 49  1  0  0  0  0
 47 50  1  0  0  0  0
 48 51  1  0  0  0  0
 49 48  2  0  0  0  0
 50 51  1  0  0  0  0
 53 52  1  0  0  0  0
 54 53  1  0  0  0  0
 55 60  2  0  0  0  0
 56 65  1  0  0  0  0
 57 54  1  0  0  0  0
 57 64  1  0  0  0  0
 58 59  1  0  0  0  0
 59 64  1  0  0  0  0
 60 62  1  0  0  0  0
 61 56  2  0  0  0  0
 61 60  1  0  0  0  0
 62 58  1  0  0  0  0
 62 57  1  0  0  0  0
 63 56  1  0  0  0  0
 64 70  1  0  0  0  0
 65 58  2  0  0  0  0
 67 66  1  0  0  0  0
 68 66  1  0  0  0  0
 69 67  1  0  0  0  0
 70 69  1  0  0  0  0
 70 68  1  0  0  0  0
M  END
>  <MODEL>
6

>  <REMARK>
 VINA RESULT:      -7.4      3.190      9.309
  Name = 
  14 active torsions:
  status: ('A' for Active; 'I' for Inactive)
    1  A    between atoms: C_1  and  CA_43
    2  A    between atoms: O_4  and  C_25
    3  A    between atoms: O_4  and  C_65
    4  A    between atoms: C_5  and  S_42
    5  A    between atoms: C_17  and  N_68
    6  A    between atoms: C_26  and  C_69
    7  A    between atoms: C_30  and  C_36
    8  A    between atoms: C_30  and  C_51
    9  A    between atoms: N_32  and  S_42
   10  A    between atoms: N_32  and  C_69
   11  A    between atoms: C_40  and  O_44
   12  A    between atoms: CA_43  and  C_60
   13  A    between atoms: O_44  and  C_65
   14  A    between atoms: N_61  and  C_62
                            x       y       z     vdW  Elec       q    Type
                         _______ _______ _______ _____ _____    ______ ____

>  <TORSDO>
F 14

$$$$
=
 OpenBabel11042418313D

 70 80  0  0  1  0  0  0  0  0999 V2000
  189.6330  174.9850  141.7960 C   0  0  1  0  0  3  0  0  0  0  0  0
  188.1700  176.8080  141.6550 C   0  0  2  0  0  3  0  0  0  0  0  0
  191.9090  174.3180  142.8520 C   0  0  0  0  0  2  0  0  0  0  0  0
  187.5930  175.6980  140.7740 C   0  0  0  0  0  2  0  0  0  0  0  0
  190.4500  173.9150  142.5520 C   0  0  0  0  0  0  0  0  0  0  0  0
  191.4710  176.6440  143.6640 C   0  0  0  0  0  0  0  0  0  0  0  0
  189.7740  173.6070  143.7480 O   0  0  0  0  0  1  0  0  0  0  0  0
  188.7960  174.7610  140.5730 C   0  0  2  0  0  3  0  0  0  0  0  0
  192.2280  175.8040  142.6830 C   0  0  0  0  0  2  0  0  0  0  0  0
  192.1060  177.2160  144.7020 C   0  0  0  0  0  3  0  0  0  0  0  0
  189.3440  176.1770  142.3310 C   0  0  1  0  0  3  0  0  0  0  0  0
  189.9560  176.7410  143.6000 C   0  0  0  0  0  2  0  0  0  0  0  0
  190.5390  172.7380  141.8110 O   0  0  0  0  0  1  0  0  0  0  0  0
  183.2690  178.5080  142.7340 C   0  0  0  0  0  0  0  0  0  0  0  0
  181.9810  178.8460  142.6350 N   0  0  0  0  0  0  0  0  0  0  0  0
  186.3780  178.1700  145.9690 N   0  0  0  0  0  2  0  0  0  0  0  0
  185.3830  178.0750  143.6920 C   0  0  0  0  0  0  0  0  0  0  0  0
  185.9030  177.7170  142.4580 C   0  0  0  0  0  0  0  0  0  0  0  0
  186.4250  177.9260  144.5640 C   0  0  0  0  0  0  0  0  0  0  0  0
  183.7580  178.1560  141.4900 C   0  0  0  0  0  0  0  0  0  0  0  0
  185.0960  177.7480  141.3030 C   0  0  0  0  0  3  0  0  0  0  0  0
  184.0620  178.4750  143.8840 C   0  0  0  0  0  3  0  0  0  0  0  0
  187.5200  177.4900  143.9030 N   0  0  0  0  0  0  0  0  0  0  0  0
  182.7940  178.3010  140.5620 N   0  0  0  0  0  2  0  0  0  0  0  0
  181.7210  178.7000  141.2990 C   0  0  0  0  0  0  0  0  0  0  0  0
  187.5450  177.8870  146.7930 C   0  0  0  0  0  1  0  0  0  0  0  0
  187.2070  177.3530  142.6230 N   0  0  0  0  0  0  0  0  0  0  0  0
  180.3390  180.5380  140.5790 N   0  0  0  0  0  1  0  0  0  0  0  0
  180.4130  179.1000  140.6750 C   0  0  2  0  0  3  0  0  0  0  0  0
  179.2000  178.5760  141.4470 C   0  0  0  0  0  2  0  0  0  0  0  0
  178.1520  179.5080  141.4460 O   0  0  0  0  0  1  0  0  0  0  0  0
  193.5530  176.9390  145.0970 C   0  0  0  0  0  2  0  0  0  0  0  0
  194.0050  173.2210  145.7320 C   0  0  0  0  0  2  0  0  0  0  0  0
  196.7090  174.7320  144.6720 C   0  0  1  0  0  3  0  0  0  0  0  0
  196.0280  174.6530  143.2890 C   0  0  2  0  0  3  0  0  0  0  0  0
  195.5750  175.7210  144.2930 C   0  0  1  0  0  3  0  0  0  0  0  0
  196.3600  173.9570  145.8760 N   0  0  0  0  0  2  0  0  0  0  0  0
  194.0960  175.5630  144.7500 C   0  0  1  0  0  3  0  0  0  0  0  0
  193.8320  174.7120  145.9920 C   0  0  0  0  0  2  0  0  0  0  0  0
  195.4900  172.8000  145.6900 C   0  0  0  0  0  2  0  0  0  0  0  0
  195.2030  173.3880  143.0030 C   0  0  0  0  0  2  0  0  0  0  0  0
  195.7020  172.6570  141.8390 N   0  0  0  0  0  2  0  0  0  0  0  0
  195.5740  170.2340  140.8540 O   0  0  0  0  0  0  0  0  0  0  0  0
  194.7070  171.2910  141.4790 S   0  0  0  0  0  0  0  0  0  0  0  0
  193.6390  171.6770  140.4980 O   0  0  0  0  0  0  0  0  0  0  0  0
  193.8850  170.5700  142.9160 C   0  0  2  0  0  3  0  0  0  0  0  0
  194.8990  169.7220  143.6950 C   0  0  0  0  0  2  0  0  0  0  0  0
  192.3150  168.6560  143.1460 C   0  0  0  0  0  3  0  0  0  0  0  0
  192.6820  169.7550  142.4930 C   0  0  0  0  0  3  0  0  0  0  0  0
  194.1670  168.9830  144.8160 C   0  0  0  0  0  2  0  0  0  0  0  0
  193.0780  168.1680  144.2450 N   0  0  0  0  0  2  0  0  0  0  0  0
  188.3740  173.4270  140.4390 O   0  0  0  0  0  0  0  0  0  0  0  0
  188.4240  173.1880  139.0670 C   0  0  0  0  0  2  0  0  0  0  0  0
  189.5490  173.7720  138.4610 O   0  0  0  0  0  0  0  0  0  0  0  0
  191.1270  171.2900  138.2730 O   0  0  0  0  0  0  0  0  0  0  0  0
  193.3980  172.3690  135.7650 C   0  0  0  0  0  0  0  0  0  0  0  0
  189.5570  173.4180  137.1040 C   0  0  2  0  0  3  0  0  0  0  0  0
  191.3740  173.6480  135.6880 C   0  0  0  0  0  0  0  0  0  0  0  0
  190.4630  174.6890  135.2010 C   0  0  0  0  0  2  0  0  0  0  0  0
  191.5990  171.9360  137.3090 C   0  0  0  0  0  0  0  0  0  0  0  0
  192.8750  171.6420  136.8490 C   0  0  0  0  0  3  0  0  0  0  0  0
  190.8860  172.9440  136.7220 N   0  0  0  0  0  0  0  0  0  0  0  0
  194.7550  172.0920  135.2850 C   0  0  0  0  0  1  0  0  0  0  0  0
  189.3750  174.7190  136.2890 C   0  0  1  0  0  3  0  0  0  0  0  0
  192.6420  173.3860  135.1750 C   0  0  0  0  0  3  0  0  0  0  0  0
  187.5940  177.0520  134.8020 C   0  0  0  0  0  2  0  0  0  0  0  0
  187.4400  177.1140  136.2920 C   0  0  0  0  0  2  0  0  0  0  0  0
  188.1200  175.6600  134.5130 C   0  0  0  0  0  2  0  0  0  0  0  0
  187.2180  175.6680  136.6520 C   0  0  0  0  0  2  0  0  0  0  0  0
  188.0120  174.8490  135.7250 N   0  0  0  0  0  0  0  0  0  0  0  0
  1 11  1  0  0  0  0
  1  5  1  1  0  0  0
  2  4  1  1  0  0  0
  2 11  1  0  0  0  0
  2 27  1  0  0  0  0
  5  3  1  0  0  0  0
  5  7  1  0  0  0  0
  6 10  2  0  0  0  0
  8 52  1  1  0  0  0
  8  4  1  0  0  0  0
  8  1  1  0  0  0  0
  9  3  1  0  0  0  0
  9  6  1  0  0  0  0
 10 32  1  0  0  0  0
 11 12  1  1  0  0  0
 12  6  1  0  0  0  0
 13  5  1  0  0  0  0
 14 22  1  0  0  0  0
 15 14  1  0  0  0  0
 16 26  1  0  0  0  0
 17 22  2  0  0  0  0
 17 19  1  0  0  0  0
 18 27  1  0  0  0  0
 18 17  1  0  0  0  0
 19 16  1  0  0  0  0
 20 14  2  0  0  0  0
 21 20  1  0  0  0  0
 21 18  2  0  0  0  0
 23 19  2  0  0  0  0
 24 25  1  0  0  0  0
 24 20  1  0  0  0  0
 25 15  2  0  0  0  0
 27 23  1  0  0  0  0
 29 28  1  1  0  0  0
 29 25  1  0  0  0  0
 29 30  1  0  0  0  0
 31 30  1  0  0  0  0
 33 39  1  0  0  0  0
 34 37  1  1  0  0  0
 35 41  1  1  0  0  0
 35 36  1  0  0  0  0
 35 34  1  0  0  0  0
 36 34  1  0  0  0  0
 36 38  1  0  0  0  0
 38 32  1  0  0  0  0
 38 39  1  0  0  0  0
 40 33  1  0  0  0  0
 40 37  1  0  0  0  0
 42 41  1  0  0  0  0
 43 44  2  0  0  0  0
 44 42  1  0  0  0  0
 44 46  1  0  0  0  0
 45 44  2  0  0  0  0
 46 47  1  0  0  0  0
 47 50  1  0  0  0  0
 48 51  1  0  0  0  0
 49 46  1  0  0  0  0
 49 48  2  0  0  0  0
 51 50  1  0  0  0  0
 53 52  1  0  0  0  0
 54 53  1  0  0  0  0
 56 61  2  0  0  0  0
 57 54  1  0  0  0  0
 58 62  1  0  0  0  0
 59 58  1  0  0  0  0
 59 64  1  0  0  0  0
 60 55  2  0  0  0  0
 61 60  1  0  0  0  0
 62 57  1  0  0  0  0
 62 60  1  0  0  0  0
 63 56  1  0  0  0  0
 64 57  1  0  0  0  0
 65 58  2  0  0  0  0
 65 56  1  0  0  0  0
 66 67  1  0  0  0  0
 67 69  1  0  0  0  0
 68 66  1  0  0  0  0
 68 70  1  0  0  0  0
 70 64  1  0  0  0  0
 70 69  1  0  0  0  0
M  END
>  <MODEL>
7

>  <REMARK>
 VINA RESULT:      -7.4      2.041      3.415
  Name = 
  14 active torsions:
  status: ('A' for Active; 'I' for Inactive)
    1  A    between atoms: C_1  and  CA_43
    2  A    between atoms: O_4  and  C_25
    3  A    between atoms: O_4  and  C_65
    4  A    between atoms: C_5  and  S_42
    5  A    between atoms: C_17  and  N_68
    6  A    between atoms: C_26  and  C_69
    7  A    between atoms: C_30  and  C_36
    8  A    between atoms: C_30  and  C_51
    9  A    between atoms: N_32  and  S_42
   10  A    between atoms: N_32  and  C_69
   11  A    between atoms: C_40  and  O_44
   12  A    between atoms: CA_43  and  C_60
   13  A    between atoms: O_44  and  C_65
   14  A    between atoms: N_61  and  C_62
                            x       y       z     vdW  Elec       q    Type
                         _______ _______ _______ _____ _____    ______ ____

>  <TORSDO>
F 14

$$$$
=
 OpenBabel11042418313D

 70 80  0  0  1  0  0  0  0  0999 V2000
  190.2620  173.5900  141.8050 C   0  0  1  0  0  3  0  0  0  0  0  0
  189.5230  172.4400  139.9040 C   0  0  2  0  0  3  0  0  0  0  0  0
  191.6060  173.1950  143.9910 C   0  0  0  0  0  2  0  0  0  0  0  0
  188.9540  173.8580  139.8220 C   0  0  0  0  0  2  0  0  0  0  0  0
  191.3390  174.1130  142.7800 C   0  0  0  0  0  0  0  0  0  0  0  0
  191.7030  171.0160  142.7650 C   0  0  0  0  0  0  0  0  0  0  0  0
  192.5280  174.3220  142.0550 O   0  0  0  0  0  1  0  0  0  0  0  0
  189.1010  174.3690  141.2660 C   0  0  2  0  0  3  0  0  0  0  0  0
  191.0470  171.7760  143.8750 C   0  0  0  0  0  2  0  0  0  0  0  0
  192.5760  170.0310  143.0380 C   0  0  0  0  0  3  0  0  0  0  0  0
  190.4220  172.4660  141.0970 C   0  0  1  0  0  3  0  0  0  0  0  0
  191.5180  171.4390  141.3160 C   0  0  0  0  0  2  0  0  0  0  0  0
  190.9660  175.3410  143.3250 O   0  0  0  0  0  1  0  0  0  0  0  0
  192.6750  173.6600  135.8240 C   0  0  0  0  0  0  0  0  0  0  0  0
  193.4580  174.3160  134.9640 N   0  0  0  0  0  0  0  0  0  0  0  0
  191.3570  169.4210  136.5580 N   0  0  0  0  0  2  0  0  0  0  0  0
  191.5450  171.8790  136.8850 C   0  0  0  0  0  0  0  0  0  0  0  0
  190.9970  172.7440  137.8200 C   0  0  0  0  0  0  0  0  0  0  0  0
  191.0640  170.6470  137.2280 C   0  0  0  0  0  0  0  0  0  0  0  0
  192.1450  174.5470  136.7430 C   0  0  0  0  0  0  0  0  0  0  0  0
  191.2820  174.1230  137.7760 C   0  0  0  0  0  3  0  0  0  0  0  0
  192.4000  172.2920  135.8640 C   0  0  0  0  0  3  0  0  0  0  0  0
  190.2730  170.7480  138.3190 N   0  0  0  0  0  0  0  0  0  0  0  0
  192.5520  175.7980  136.4580 N   0  0  0  0  0  2  0  0  0  0  0  0
  193.3670  175.6150  135.3850 C   0  0  0  0  0  0  0  0  0  0  0  0
  190.8410  168.1660  137.0850 C   0  0  0  0  0  1  0  0  0  0  0  0
  190.2350  172.0190  138.6890 N   0  0  0  0  0  0  0  0  0  0  0  0
  195.3270  176.9900  135.1030 N   0  0  0  0  0  1  0  0  0  0  0  0
  193.9830  176.7610  134.6300 C   0  0  2  0  0  3  0  0  0  0  0  0
  193.1720  178.0540  134.7440 C   0  0  0  0  0  2  0  0  0  0  0  0
  194.0070  179.1640  134.9460 O   0  0  0  0  0  1  0  0  0  0  0  0
  193.1240  169.7140  144.4240 C   0  0  0  0  0  2  0  0  0  0  0  0
  196.7770  169.3100  143.4640 C   0  0  0  0  0  2  0  0  0  0  0  0
  196.2060  169.0480  146.6760 C   0  0  1  0  0  3  0  0  0  0  0  0
  196.1200  170.5890  146.6330 C   0  0  2  0  0  3  0  0  0  0  0  0
  194.9310  169.7520  146.1430 C   0  0  1  0  0  3  0  0  0  0  0  0
  196.7940  168.1660  145.6540 N   0  0  0  0  0  2  0  0  0  0  0  0
  194.6110  169.9440  144.6320 C   0  0  1  0  0  3  0  0  0  0  0  0
  195.2970  169.0000  143.6450 C   0  0  0  0  0  2  0  0  0  0  0  0
  197.6340  168.7940  144.6400 C   0  0  0  0  0  2  0  0  0  0  0  0
  197.0800  171.3010  145.6680 C   0  0  0  0  0  2  0  0  0  0  0  0
  197.2210  172.7220  145.9790 N   0  0  0  0  0  2  0  0  0  0  0  0
  196.3330  175.1210  145.4170 O   0  0  0  0  0  0  0  0  0  0  0  0
  196.2110  173.6920  144.9650 S   0  0  0  0  0  0  0  0  0  0  0  0
  194.7800  173.2650  145.1050 O   0  0  0  0  0  0  0  0  0  0  0  0
  196.6290  173.6170  143.2100 C   0  0  2  0  0  3  0  0  0  0  0  0
  196.5060  175.0230  142.6090 C   0  0  0  0  0  2  0  0  0  0  0  0
  195.3580  172.8100  141.2330 C   0  0  0  0  0  3  0  0  0  0  0  0
  195.7450  172.6210  142.4910 C   0  0  0  0  0  3  0  0  0  0  0  0
  196.7000  174.9320  141.0950 C   0  0  0  0  0  2  0  0  0  0  0  0
  195.7170  173.9920  140.5240 N   0  0  0  0  0  2  0  0  0  0  0  0
  189.3210  175.7570  141.2850 O   0  0  0  0  0  0  0  0  0  0  0  0
  188.2480  176.2640  142.0150 C   0  0  0  0  0  2  0  0  0  0  0  0
  188.4490  177.5960  142.4110 O   0  0  0  0  0  0  0  0  0  0  0  0
  190.5220  178.6290  144.2330 O   0  0  0  0  0  0  0  0  0  0  0  0
  190.0760  176.2600  146.8400 C   0  0  0  0  0  0  0  0  0  0  0  0
  187.8170  177.7930  143.6490 C   0  0  2  0  0  3  0  0  0  0  0  0
  188.0950  176.4400  145.5060 C   0  0  0  0  0  0  0  0  0  0  0  0
  186.7260  176.1220  145.0880 C   0  0  0  0  0  2  0  0  0  0  0  0
  189.9780  177.7720  144.9670 C   0  0  0  0  0  0  0  0  0  0  0  0
  190.6950  177.2190  146.0190 C   0  0  0  0  0  3  0  0  0  0  0  0
  188.6970  177.3570  144.7310 N   0  0  0  0  0  0  0  0  0  0  0  0
  190.8280  175.6430  147.9380 C   0  0  0  0  0  1  0  0  0  0  0  0
  186.6240  176.8120  143.7170 C   0  0  1  0  0  3  0  0  0  0  0  0
  188.7610  175.8620  146.5840 C   0  0  0  0  0  3  0  0  0  0  0  0
  185.2520  179.6910  144.5250 C   0  0  0  0  0  2  0  0  0  0  0  0
  185.0320  178.6620  145.5930 C   0  0  0  0  0  2  0  0  0  0  0  0
  185.5990  178.9020  143.2770 C   0  0  0  0  0  2  0  0  0  0  0  0
  184.5990  177.4590  144.7960 C   0  0  0  0  0  2  0  0  0  0  0  0
  185.3220  177.4870  143.5160 N   0  0  0  0  0  0  0  0  0  0  0  0
  1  5  1  6  0  0  0
  2 27  1  6  0  0  0
  2 11  1  0  0  0  0
  4  2  1  0  0  0  0
  4  8  1  0  0  0  0
  5 13  1  0  0  0  0
  5  3  1  0  0  0  0
  6 10  2  0  0  0  0
  6  9  1  0  0  0  0
  7  5  1  0  0  0  0
  8 52  1  6  0  0  0
  8  1  1  0  0  0  0
  9  3  1  0  0  0  0
 10 32  1  0  0  0  0
 11 12  1  6  0  0  0
 11  1  1  0  0  0  0
 12  6  1  0  0  0  0
 14 22  2  0  0  0  0
 14 20  1  0  0  0  0
 15 25  2  0  0  0  0
 15 14  1  0  0  0  0
 16 26  1  0  0  0  0
 16 19  1  0  0  0  0
 17 19  1  0  0  0  0
 17 18  2  0  0  0  0
 18 27  1  0  0  0  0
 19 23  2  0  0  0  0
 20 21  2  0  0  0  0
 21 18  1  0  0  0  0
 22 17  1  0  0  0  0
 23 27  1  0  0  0  0
 24 20  1  0  0  0  0
 25 24  1  0  0  0  0
 29 30  1  0  0  0  0
 29 28  1  1  0  0  0
 29 25  1  0  0  0  0
 30 31  1  0  0  0  0
 32 38  1  0  0  0  0
 33 39  1  0  0  0  0
 33 40  1  0  0  0  0
 34 37  1  6  0  0  0
 35 41  1  6  0  0  0
 35 34  1  0  0  0  0
 36 35  1  0  0  0  0
 36 34  1  0  0  0  0
 38 36  1  0  0  0  0
 39 38  1  0  0  0  0
 40 37  1  0  0  0  0
 41 42  1  0  0  0  0
 44 45  2  0  0  0  0
 44 43  2  0  0  0  0
 44 42  1  0  0  0  0
 46 44  1  0  0  0  0
 47 46  1  0  0  0  0
 48 49  2  0  0  0  0
 49 46  1  0  0  0  0
 50 47  1  0  0  0  0
 51 50  1  0  0  0  0
 51 48  1  0  0  0  0
 52 53  1  0  0  0  0
 53 54  1  0  0  0  0
 54 57  1  0  0  0  0
 55 60  2  0  0  0  0
 56 63  1  0  0  0  0
 57 64  1  0  0  0  0
 57 62  1  0  0  0  0
 58 65  2  0  0  0  0
 59 58  1  0  0  0  0
 60 61  1  0  0  0  0
 61 56  2  0  0  0  0
 62 60  1  0  0  0  0
 62 58  1  0  0  0  0
 64 59  1  0  0  0  0
 65 56  1  0  0  0  0
 66 67  1  0  0  0  0
 68 70  1  0  0  0  0
 68 66  1  0  0  0  0
 69 67  1  0  0  0  0
 70 64  1  0  0  0  0
 70 69  1  0  0  0  0
M  END
>  <MODEL>
8

>  <REMARK>
 VINA RESULT:      -7.4      2.845      7.972
  Name = 
  14 active torsions:
  status: ('A' for Active; 'I' for Inactive)
    1  A    between atoms: C_1  and  CA_43
    2  A    between atoms: O_4  and  C_25
    3  A    between atoms: O_4  and  C_65
    4  A    between atoms: C_5  and  S_42
    5  A    between atoms: C_17  and  N_68
    6  A    between atoms: C_26  and  C_69
    7  A    between atoms: C_30  and  C_36
    8  A    between atoms: C_30  and  C_51
    9  A    between atoms: N_32  and  S_42
   10  A    between atoms: N_32  and  C_69
   11  A    between atoms: C_40  and  O_44
   12  A    between atoms: CA_43  and  C_60
   13  A    between atoms: O_44  and  C_65
   14  A    between atoms: N_61  and  C_62
                            x       y       z     vdW  Elec       q    Type
                         _______ _______ _______ _____ _____    ______ ____

>  <TORSDO>
F 14

$$$$
=
 OpenBabel11042418313D

 70 80  0  0  1  0  0  0  0  0999 V2000
  190.0680  171.9560  139.3110 C   0  0  1  0  0  3  0  0  0  0  0  0
  191.9510  170.5930  139.0260 C   0  0  2  0  0  3  0  0  0  0  0  0
  188.6490  173.0440  141.1920 C   0  0  0  0  0  2  0  0  0  0  0  0
  191.3620  170.8440  137.6360 C   0  0  0  0  0  2  0  0  0  0  0  0
  189.3280  173.2120  139.8170 C   0  0  0  0  0  0  0  0  0  0  0  0
  190.5340  171.9030  142.3780 C   0  0  0  0  0  0  0  0  0  0  0  0
  190.2440  174.2810  139.8530 O   0  0  0  0  0  1  0  0  0  0  0  0
  189.9400  171.3380  137.9520 C   0  0  2  0  0  3  0  0  0  0  0  0
  189.0890  171.8200  141.9970 C   0  0  0  0  0  2  0  0  0  0  0  0
  190.8890  172.1500  143.6500 C   0  0  0  0  0  3  0  0  0  0  0  0
  191.1400  171.4550  139.9370 C   0  0  1  0  0  3  0  0  0  0  0  0
  191.6220  171.8650  141.3170 C   0  0  0  0  0  2  0  0  0  0  0  0
  188.3030  173.5740  138.9430 O   0  0  0  0  0  1  0  0  0  0  0  0
  195.8570  173.5620  141.0270 C   0  0  0  0  0  0  0  0  0  0  0  0
  196.5440  174.4840  141.7060 N   0  0  0  0  0  0  0  0  0  0  0  0
  196.7440  169.9780  138.4550 N   0  0  0  0  0  2  0  0  0  0  0  0
  195.4030  171.6840  139.6690 C   0  0  0  0  0  0  0  0  0  0  0  0
  194.0370  171.8780  139.8050 C   0  0  0  0  0  0  0  0  0  0  0  0
  195.5200  170.5780  138.8750 C   0  0  0  0  0  0  0  0  0  0  0  0
  194.5010  173.7800  141.1830 C   0  0  0  0  0  0  0  0  0  0  0  0
  193.5370  172.9470  140.5750 C   0  0  0  0  0  3  0  0  0  0  0  0
  196.3600  172.5020  140.2690 C   0  0  0  0  0  3  0  0  0  0  0  0
  194.2930  170.1130  138.5510 N   0  0  0  0  0  0  0  0  0  0  0  0
  194.2980  174.8770  141.9370 N   0  0  0  0  0  2  0  0  0  0  0  0
  195.5620  175.2640  142.2560 C   0  0  0  0  0  0  0  0  0  0  0  0
  196.7190  168.7480  137.6770 C   0  0  0  0  0  1  0  0  0  0  0  0
  193.3880  170.8940  139.1200 N   0  0  0  0  0  0  0  0  0  0  0  0
  197.2840  176.7270  143.0960 N   0  0  0  0  0  1  0  0  0  0  0  0
  195.8560  176.5310  143.0110 C   0  0  2  0  0  3  0  0  0  0  0  0
  195.2540  176.5390  144.4170 C   0  0  0  0  0  2  0  0  0  0  0  0
  195.6050  175.3830  145.1310 O   0  0  0  0  0  1  0  0  0  0  0  0
  189.9230  172.5470  144.7610 C   0  0  0  0  0  2  0  0  0  0  0  0
  190.2420  176.1770  143.6870 C   0  0  0  0  0  2  0  0  0  0  0  0
  190.3600  175.7300  146.9270 C   0  0  1  0  0  3  0  0  0  0  0  0
  188.8280  175.5840  146.8100 C   0  0  2  0  0  3  0  0  0  0  0  0
  189.7310  174.4110  146.4080 C   0  0  1  0  0  3  0  0  0  0  0  0
  191.2720  176.3150  145.9280 N   0  0  0  0  0  2  0  0  0  0  0  0
  189.6280  174.0310  144.9020 C   0  0  1  0  0  3  0  0  0  0  0  0
  190.5970  174.7170  143.9380 C   0  0  0  0  0  2  0  0  0  0  0  0
  190.6660  177.0940  144.8540 C   0  0  0  0  0  2  0  0  0  0  0  0
  188.1320  176.4820  145.7750 C   0  0  0  0  0  2  0  0  0  0  0  0
  186.6760  176.4320  145.8950 N   0  0  0  0  0  2  0  0  0  0  0  0
  186.7020  178.8450  144.8760 O   0  0  0  0  0  0  0  0  0  0  0  0
  185.9170  177.5640  144.8300 S   0  0  0  0  0  0  0  0  0  0  0  0
  184.5170  177.8420  145.2900 O   0  0  0  0  0  0  0  0  0  0  0  0
  185.8240  177.0190  143.1110 C   0  0  2  0  0  3  0  0  0  0  0  0
  187.2430  176.7310  142.6040 C   0  0  0  0  0  2  0  0  0  0  0  0
  185.4670  178.2670  140.9910 C   0  0  0  0  0  3  0  0  0  0  0  0
  185.1240  178.0550  142.2580 C   0  0  0  0  0  3  0  0  0  0  0  0
  187.1790  176.4280  141.1060 C   0  0  0  0  0  2  0  0  0  0  0  0
  186.5510  177.5590  140.3970 N   0  0  0  0  0  2  0  0  0  0  0  0
  189.5000  172.2510  136.9780 O   0  0  0  0  0  0  0  0  0  0  0  0
  190.6550  172.5820  136.2720 C   0  0  0  0  0  2  0  0  0  0  0  0
  191.1540  173.8470  136.6230 O   0  0  0  0  0  0  0  0  0  0  0  0
  193.7920  172.7690  135.8730 O   0  0  0  0  0  0  0  0  0  0  0  0
  195.5040  175.8680  135.6020 C   0  0  0  0  0  0  0  0  0  0  0  0
  191.5300  174.5190  135.4490 C   0  0  2  0  0  3  0  0  0  0  0  0
  193.1440  176.1730  135.3320 C   0  0  0  0  0  0  0  0  0  0  0  0
  191.9050  176.9290  135.1230 C   0  0  0  0  0  2  0  0  0  0  0  0
  193.9920  173.9960  135.7150 C   0  0  0  0  0  0  0  0  0  0  0  0
  195.2870  174.4910  135.7830 C   0  0  0  0  0  3  0  0  0  0  0  0
  192.9510  174.8550  135.5030 N   0  0  0  0  0  0  0  0  0  0  0  0
  196.8620  176.4140  135.6990 C   0  0  0  0  0  1  0  0  0  0  0  0
  190.8180  175.8910  135.4580 C   0  0  1  0  0  3  0  0  0  0  0  0
  194.4230  176.7230  135.3740 C   0  0  0  0  0  3  0  0  0  0  0  0
  187.8550  177.3160  135.3440 C   0  0  0  0  0  2  0  0  0  0  0  0
  187.7900  175.9750  136.0100 C   0  0  0  0  0  2  0  0  0  0  0  0
  189.1480  177.3070  134.5520 C   0  0  0  0  0  2  0  0  0  0  0  0
  188.5980  175.1120  135.0740 C   0  0  0  0  0  2  0  0  0  0  0  0
  189.6750  175.9430  134.5190 N   0  0  0  0  0  0  0  0  0  0  0  0
  1  5  1  6  0  0  0
  1 11  1  0  0  0  0
  2  4  1  6  0  0  0
  2 27  1  0  0  0  0
  2 11  1  0  0  0  0
  3  9  1  0  0  0  0
  4  8  1  0  0  0  0
  5  7  1  0  0  0  0
  5  3  1  0  0  0  0
  6 10  2  0  0  0  0
  8 52  1  6  0  0  0
  8  1  1  0  0  0  0
  9  6  1  0  0  0  0
 10 32  1  0  0  0  0
 11 12  1  6  0  0  0
 12  6  1  0  0  0  0
 13  5  1  0  0  0  0
 14 20  1  0  0  0  0
 14 15  1  0  0  0  0
 15 25  2  0  0  0  0
 16 19  1  0  0  0  0
 17 18  2  0  0  0  0
 17 22  1  0  0  0  0
 18 21  1  0  0  0  0
 19 17  1  0  0  0  0
 20 24  1  0  0  0  0
 21 20  2  0  0  0  0
 22 14  2  0  0  0  0
 23 19  2  0  0  0  0
 23 27  1  0  0  0  0
 24 25  1  0  0  0  0
 25 29  1  0  0  0  0
 26 16  1  0  0  0  0
 27 18  1  0  0  0  0
 29 28  1  1  0  0  0
 29 30  1  0  0  0  0
 30 31  1  0  0  0  0
 32 38  1  0  0  0  0
 33 39  1  0  0  0  0
 33 40  1  0  0  0  0
 34 37  1  6  0  0  0
 35 41  1  6  0  0  0
 35 34  1  0  0  0  0
 36 35  1  0  0  0  0
 36 34  1  0  0  0  0
 38 36  1  0  0  0  0
 39 38  1  0  0  0  0
 40 37  1  0  0  0  0
 41 42  1  0  0  0  0
 44 43  2  0  0  0  0
 44 45  2  0  0  0  0
 44 42  1  0  0  0  0
 46 44  1  0  0  0  0
 47 46  1  0  0  0  0
 48 49  2  0  0  0  0
 49 46  1  0  0  0  0
 50 47  1  0  0  0  0
 51 48  1  0  0  0  0
 51 50  1  0  0  0  0
 53 54  1  0  0  0  0
 53 52  1  0  0  0  0
 56 63  1  0  0  0  0
 56 61  2  0  0  0  0
 57 64  1  0  0  0  0
 57 62  1  0  0  0  0
 57 54  1  0  0  0  0
 58 65  2  0  0  0  0
 58 62  1  0  0  0  0
 59 58  1  0  0  0  0
 59 64  1  0  0  0  0
 60 61  1  0  0  0  0
 60 55  2  0  0  0  0
 62 60  1  0  0  0  0
 65 56  1  0  0  0  0
 66 67  1  0  0  0  0
 68 66  1  0  0  0  0
 69 67  1  0  0  0  0
 70 68  1  0  0  0  0
 70 69  1  0  0  0  0
 70 64  1  0  0  0  0
M  END
>  <MODEL>
9

>  <REMARK>
 VINA RESULT:      -6.8      2.831      8.098
  Name = 
  14 active torsions:
  status: ('A' for Active; 'I' for Inactive)
    1  A    between atoms: C_1  and  CA_43
    2  A    between atoms: O_4  and  C_25
    3  A    between atoms: O_4  and  C_65
    4  A    between atoms: C_5  and  S_42
    5  A    between atoms: C_17  and  N_68
    6  A    between atoms: C_26  and  C_69
    7  A    between atoms: C_30  and  C_36
    8  A    between atoms: C_30  and  C_51
    9  A    between atoms: N_32  and  S_42
   10  A    between atoms: N_32  and  C_69
   11  A    between atoms: C_40  and  O_44
   12  A    between atoms: CA_43  and  C_60
   13  A    between atoms: O_44  and  C_65
   14  A    between atoms: N_61  and  C_62
                            x       y       z     vdW  Elec       q    Type
                         _______ _______ _______ _____ _____    ______ ____

>  <TORSDO>
F 14

$$$$
