=
 OpenBabel11042417153D

 31 35  0  0  1  0  0  0  0  0999 V2000
  190.0150  175.2690  143.4330 C   0  0  0  0  0  0  0  0  0  0  0  0
  192.5480  175.4150  143.5220 C   0  0  0  0  0  0  0  0  0  0  0  0
  187.8940  177.9000  142.4890 C   0  0  0  0  0  3  0  0  0  0  0  0
  186.7010  176.7530  146.4200 C   0  0  0  0  0  3  0  0  0  0  0  0
  185.8460  177.4350  145.5360 C   0  0  0  0  0  0  0  0  0  0  0  0
  188.4480  176.7550  144.7320 C   0  0  0  0  0  0  0  0  0  0  0  0
  194.7650  175.9250  142.5660 N   0  0  0  0  0  0  0  0  0  0  0  0
  191.6700  175.5710  145.9090 C   0  0  0  0  0  3  0  0  0  0  0  0
  192.7660  175.7330  144.9050 C   0  0  0  0  0  0  0  0  0  0  0  0
  189.1860  175.5920  147.0420 S   0  0  0  0  0  0  0  0  0  0  0  0
  190.3840  175.8530  145.7300 C   0  0  0  0  0  0  0  0  0  0  0  0
  193.1430  175.0910  141.3250 O   0  0  0  0  0  0  0  0  0  0  0  0
  187.9990  176.4220  146.0040 C   0  0  0  0  0  0  0  0  0  0  0  0
  187.5950  177.4410  143.8620 C   0  0  1  0  0  3  0  0  0  0  0  0
  186.3180  177.7640  144.2540 C   0  0  0  0  0  0  0  0  0  0  0  0
  194.0230  176.3110  146.9210 N   0  0  0  0  0  1  0  0  0  0  0  0
  193.4990  175.4720  142.4760 C   0  0  0  0  0  0  0  0  0  0  0  0
  185.5830  178.4770  143.1850 C   0  0  0  0  0  3  0  0  0  0  0  0
  186.5880  178.5600  142.0290 C   0  0  0  0  0  3  0  0  0  0  0  0
  195.5230  176.3810  143.5770 C   0  0  0  0  0  0  0  0  0  0  0  0
  189.8630  176.3730  144.4380 C   0  0  1  0  0  3  0  0  0  0  0  0
  195.1350  176.4220  144.8620 N   0  0  0  0  0  0  0  0  0  0  0  0
  193.9850  176.1330  145.5020 C   0  0  0  0  0  0  0  0  0  0  0  0
  191.2310  174.8710  143.0620 C   0  0  0  0  0  3  0  0  0  0  0  0
  188.8780  174.5660  142.8870 C   0  0  0  0  0  0  0  0  0  0  0  0
  187.9330  173.9750  142.4280 C   0  0  0  0  0  0  0  0  0  0  0  0
  186.8640  173.3060  141.9060 O   0  0  0  0  0  1  0  0  0  0  0  0
  196.8610  176.7960  143.2710 C   0  0  0  0  0  0  0  0  0  0  0  0
  197.9410  177.1320  143.0240 N   0  0  0  0  0  0  0  0  0  0  0  0
  184.4650  178.2810  147.2530 O   0  0  0  0  0  1  0  0  0  0  0  0
  184.4550  177.7650  145.9590 C   0  0  0  0  0  2  0  0  0  0  0  0
  2  9  2  0  0  0  0
  5 31  1  0  0  0  0
  5  4  2  0  0  0  0
  6 13  2  0  0  0  0
  7 20  2  0  0  0  0
  9 23  1  0  0  0  0
  9  8  1  0  0  0  0
 11  8  2  0  0  0  0
 11 10  1  0  0  0  0
 12 17  2  0  0  0  0
 13  4  1  0  0  0  0
 13 10  1  0  0  0  0
 14  3  1  1  0  0  0
 14 15  1  0  0  0  0
 14  6  1  0  0  0  0
 15  5  1  0  0  0  0
 17  7  1  0  0  0  0
 17  2  1  0  0  0  0
 18 15  2  0  0  0  0
 19  3  2  0  0  0  0
 19 18  1  0  0  0  0
 20 22  1  0  0  0  0
 21  1  1  6  0  0  0
 21  6  1  0  0  0  0
 21 11  1  0  0  0  0
 22 23  2  0  0  0  0
 23 16  1  0  0  0  0
 24  1  2  0  0  0  0
 24  2  1  0  0  0  0
 25  1  1  0  0  0  0
 26 25  3  0  0  0  0
 27 26  1  0  0  0  0
 28 20  1  0  0  0  0
 29 28  3  0  0  0  0
 31 30  1  0  0  0  0
M  END
>  <MODEL>
1

>  <REMARK>
 VINA RESULT:      -7.9      0.000      0.000
  Name = 
  3 active torsions:
  status: ('A' for Active; 'I' for Inactive)
    1  A    between atoms: C_1  and  C_11
    2  A    between atoms: C_2  and  C_26
    3  A    between atoms: C_6  and  C_29
                            x       y       z     vdW  Elec       q    Type
                         _______ _______ _______ _____ _____    ______ ____

>  <TORSDO>
F 3

$$$$
=
 OpenBabel11042417153D

 31 35  0  0  1  0  0  0  0  0999 V2000
  190.0670  175.9050  142.6490 C   0  0  0  0  0  0  0  0  0  0  0  0
  190.6840  173.7200  141.5110 C   0  0  0  0  0  0  0  0  0  0  0  0
  188.3890  176.1540  145.7190 C   0  0  0  0  0  3  0  0  0  0  0  0
  186.0030  178.2580  142.8780 C   0  0  0  0  0  3  0  0  0  0  0  0
  185.9230  178.4980  144.2620 C   0  0  0  0  0  0  0  0  0  0  0  0
  187.7210  176.5840  143.2660 C   0  0  0  0  0  0  0  0  0  0  0  0
  191.7050  171.4750  141.4500 N   0  0  0  0  0  0  0  0  0  0  0  0
  188.6400  174.6710  140.3230 C   0  0  0  0  0  3  0  0  0  0  0  0
  189.5770  173.5420  140.6160 C   0  0  0  0  0  0  0  0  0  0  0  0
  187.0730  176.8790  140.6730 S   0  0  0  0  0  0  0  0  0  0  0  0
  188.1920  175.5730  141.1900 C   0  0  0  0  0  0  0  0  0  0  0  0
  192.6170  173.1200  142.6020 O   0  0  0  0  0  0  0  0  0  0  0  0
  186.9050  177.2980  142.3970 C   0  0  0  0  0  0  0  0  0  0  0  0
  187.6290  176.8220  144.6410 C   0  0  0  0  0  0  0  0  0  0  0  0
  186.7560  177.7650  145.1260 C   0  0  0  0  0  0  0  0  0  0  0  0
  188.1730  172.4370  138.9470 N   0  0  0  0  0  1  0  0  0  0  0  0
  191.6730  172.7630  141.8420 C   0  0  0  0  0  0  0  0  0  0  0  0
  186.8220  177.8650  146.6010 C   0  0  0  0  0  3  0  0  0  0  0  0
  187.8880  176.8350  146.9990 C   0  0  0  0  0  2  0  0  0  0  0  0
  190.9330  170.7250  140.6460 C   0  0  0  0  0  0  0  0  0  0  0  0
  188.6050  175.5690  142.6180 C   0  0  1  0  0  3  0  0  0  0  0  0
  189.8870  171.1890  139.9440 N   0  0  0  0  0  0  0  0  0  0  0  0
  189.2720  172.3850  139.8610 C   0  0  0  0  0  0  0  0  0  0  0  0
  190.9550  175.0540  142.1360 C   0  0  0  0  0  3  0  0  0  0  0  0
  190.5550  177.1620  143.1630 C   0  0  0  0  0  0  0  0  0  0  0  0
  190.9690  178.2110  143.5910 C   0  0  0  0  0  0  0  0  0  0  0  0
  191.4390  179.3970  144.0750 O   0  0  0  0  0  1  0  0  0  0  0  0
  191.2900  169.3460  140.4780 C   0  0  0  0  0  0  0  0  0  0  0  0
  191.5770  168.2320  140.3430 N   0  0  0  0  0  0  0  0  0  0  0  0
  183.8200  178.9340  145.2400 O   0  0  0  0  0  1  0  0  0  0  0  0
  184.9890  179.5380  144.7810 C   0  0  0  0  0  2  0  0  0  0  0  0
  1 25  1  0  0  0  0
  2 17  1  0  0  0  0
  2 24  1  0  0  0  0
  3 19  1  0  0  0  0
  4  5  2  0  0  0  0
  5 31  1  0  0  0  0
  5 15  1  0  0  0  0
  6 14  1  0  0  0  0
  7 17  1  0  0  0  0
  8  9  1  0  0  0  0
  8 11  2  0  0  0  0
  9  2  2  0  0  0  0
 10 11  1  0  0  0  0
 10 13  1  0  0  0  0
 13  4  1  0  0  0  0
 13  6  2  0  0  0  0
 14 15  1  0  0  0  0
 14  3  2  0  0  0  0
 15 18  2  0  0  0  0
 16 23  1  0  0  0  0
 17 12  2  0  0  0  0
 18 19  1  0  0  0  0
 20  7  2  0  0  0  0
 21 11  1  6  0  0  0
 21  1  1  0  0  0  0
 21  6  1  0  0  0  0
 22 20  1  0  0  0  0
 23 22  2  0  0  0  0
 23  9  1  0  0  0  0
 24  1  2  0  0  0  0
 25 26  3  0  0  0  0
 26 27  1  0  0  0  0
 28 20  1  0  0  0  0
 29 28  3  0  0  0  0
 31 30  1  0  0  0  0
M  END
>  <MODEL>
2

>  <REMARK>
 VINA RESULT:      -7.4      3.757      5.564
  Name = 
  3 active torsions:
  status: ('A' for Active; 'I' for Inactive)
    1  A    between atoms: C_1  and  C_11
    2  A    between atoms: C_2  and  C_26
    3  A    between atoms: C_6  and  C_29
                            x       y       z     vdW  Elec       q    Type
                         _______ _______ _______ _____ _____    ______ ____

>  <TORSDO>
F 3

$$$$
=
 OpenBabel11042417153D

 31 35  0  0  1  0  0  0  0  0999 V2000
  190.9070  175.4130  143.8920 C   0  0  0  0  0  0  0  0  0  0  0  0
  192.1890  173.2220  143.9280 C   0  0  0  0  0  0  0  0  0  0  0  0
  188.4450  176.3260  146.2190 C   0  0  0  0  0  3  0  0  0  0  0  0
  186.5790  176.4670  142.3860 C   0  0  0  0  0  3  0  0  0  0  0  0
  186.0870  177.1760  143.4970 C   0  0  0  0  0  0  0  0  0  0  0  0
  188.3990  175.6020  143.7440 C   0  0  0  0  0  0  0  0  0  0  0  0
  193.5730  171.4910  145.0140 N   0  0  0  0  0  0  0  0  0  0  0  0
  190.4060  173.0560  142.1150 C   0  0  0  0  0  3  0  0  0  0  0  0
  191.4150  172.4240  143.0210 C   0  0  0  0  0  0  0  0  0  0  0  0
  188.4340  174.7110  141.2070 S   0  0  0  0  0  0  0  0  0  0  0  0
  189.5870  174.0560  142.4190 C   0  0  0  0  0  0  0  0  0  0  0  0
  193.8300  173.6310  145.4860 O   0  0  0  0  0  0  0  0  0  0  0  0
  187.7340  175.6830  142.5270 C   0  0  0  0  0  0  0  0  0  0  0  0
  187.8980  176.3030  144.8450 C   0  0  0  0  0  0  0  0  0  0  0  0
  186.7720  177.0810  144.7200 C   0  0  0  0  0  0  0  0  0  0  0  0
  190.7360  170.4320  141.7740 N   0  0  0  0  0  1  0  0  0  0  0  0
  193.2060  172.7700  144.8030 C   0  0  0  0  0  0  0  0  0  0  0  0
  186.4190  177.7420  145.9970 C   0  0  0  0  0  3  0  0  0  0  0  0
  187.5030  177.2720  146.9750 C   0  0  0  0  0  2  0  0  0  0  0  0
  193.1940  170.3140  144.4910 C   0  0  0  0  0  0  0  0  0  0  0  0
  189.5920  174.7020  143.7580 C   0  0  1  0  0  3  0  0  0  0  0  0
  192.3110  170.1730  143.4890 N   0  0  0  0  0  0  0  0  0  0  0  0
  191.5370  171.0320  142.7960 C   0  0  0  0  0  0  0  0  0  0  0  0
  192.0380  174.7120  143.9560 C   0  0  0  0  0  3  0  0  0  0  0  0
  191.0050  176.8530  143.8930 C   0  0  0  0  0  0  0  0  0  0  0  0
  191.0920  178.0560  143.8890 C   0  0  0  0  0  0  0  0  0  0  0  0
  191.1930  179.4170  143.8850 O   0  0  0  0  0  1  0  0  0  0  0  0
  193.8230  169.1270  144.9950 C   0  0  0  0  0  0  0  0  0  0  0  0
  194.3310  168.1700  145.4030 N   0  0  0  0  0  0  0  0  0  0  0  0
  184.3740  177.9220  142.0540 O   0  0  0  0  0  1  0  0  0  0  0  0
  184.8770  178.0350  143.3490 C   0  0  0  0  0  2  0  0  0  0  0  0
  1 25  1  0  0  0  0
  1 24  2  0  0  0  0
  2 24  1  0  0  0  0
  2 17  1  0  0  0  0
  3 19  1  0  0  0  0
  4 13  1  0  0  0  0
  4  5  2  0  0  0  0
  5 15  1  0  0  0  0
  6 21  1  0  0  0  0
  6 14  1  0  0  0  0
  8 11  2  0  0  0  0
  8  9  1  0  0  0  0
  9  2  2  0  0  0  0
 10 11  1  0  0  0  0
 10 13  1  0  0  0  0
 13  6  2  0  0  0  0
 14  3  2  0  0  0  0
 15 14  1  0  0  0  0
 15 18  2  0  0  0  0
 16 23  1  0  0  0  0
 17  7  1  0  0  0  0
 17 12  2  0  0  0  0
 18 19  1  0  0  0  0
 20 28  1  0  0  0  0
 20  7  2  0  0  0  0
 21 11  1  6  0  0  0
 21  1  1  0  0  0  0
 22 20  1  0  0  0  0
 23  9  1  0  0  0  0
 23 22  2  0  0  0  0
 26 25  3  0  0  0  0
 27 26  1  0  0  0  0
 28 29  3  0  0  0  0
 30 31  1  0  0  0  0
 31  5  1  0  0  0  0
M  END
>  <MODEL>
3

>  <REMARK>
 VINA RESULT:      -7.3      3.710      4.946
  Name = 
  3 active torsions:
  status: ('A' for Active; 'I' for Inactive)
    1  A    between atoms: C_1  and  C_11
    2  A    between atoms: C_2  and  C_26
    3  A    between atoms: C_6  and  C_29
                            x       y       z     vdW  Elec       q    Type
                         _______ _______ _______ _____ _____    ______ ____

>  <TORSDO>
F 3

$$$$
=
 OpenBabel11042417153D

 31 35  0  0  1  0  0  0  0  0999 V2000
  191.3710  176.3690  143.2390 C   0  0  0  0  0  0  0  0  0  0  0  0
  189.1490  177.5560  143.5520 C   0  0  0  0  0  0  0  0  0  0  0  0
  191.7260  173.0150  142.2720 C   0  0  0  0  0  3  0  0  0  0  0  0
  193.7350  173.4000  146.0140 C   0  0  0  0  0  3  0  0  0  0  0  0
  194.0210  172.3690  145.1020 C   0  0  0  0  0  0  0  0  0  0  0  0
  192.0740  174.2940  144.4840 C   0  0  0  0  0  0  0  0  0  0  0  0
  186.9010  178.2630  142.8180 N   0  0  0  0  0  0  0  0  0  0  0  0
  190.0610  176.9810  145.8600 C   0  0  0  0  0  3  0  0  0  0  0  0
  188.9410  177.4050  144.9630 C   0  0  0  0  0  0  0  0  0  0  0  0
  192.2810  175.6830  146.7770 S   0  0  0  0  0  0  0  0  0  0  0  0
  190.9920  176.0730  145.5890 C   0  0  0  0  0  0  0  0  0  0  0  0
  188.5840  178.1300  141.3980 O   0  0  0  0  0  0  0  0  0  0  0  0
  192.7580  174.3530  145.6920 C   0  0  0  0  0  0  0  0  0  0  0  0
  192.3580  173.2610  143.5860 C   0  0  1  0  0  3  0  0  0  0  0  0
  193.3180  172.3250  143.8860 C   0  0  0  0  0  0  0  0  0  0  0  0
  187.7810  177.5720  147.1090 N   0  0  0  0  0  1  0  0  0  0  0  0
  188.2030  177.9950  142.5940 C   0  0  0  0  0  0  0  0  0  0  0  0
  193.4680  171.3280  142.8020 C   0  0  0  0  0  3  0  0  0  0  0  0
  192.4510  171.7710  141.7420 C   0  0  0  0  0  3  0  0  0  0  0  0
  186.1250  178.2710  143.9140 C   0  0  0  0  0  0  0  0  0  0  0  0
  191.0350  175.3510  144.2900 C   0  0  1  0  0  3  0  0  0  0  0  0
  186.5660  178.0420  145.1620 N   0  0  0  0  0  0  0  0  0  0  0  0
  187.7590  177.6970  145.6850 C   0  0  0  0  0  0  0  0  0  0  0  0
  190.5030  177.3370  142.9500 C   0  0  0  0  0  3  0  0  0  0  0  0
  192.6450  176.3790  142.5590 C   0  0  0  0  0  0  0  0  0  0  0  0
  193.7110  176.3830  141.9950 C   0  0  0  0  0  0  0  0  0  0  0  0
  194.9180  176.3860  141.3590 O   0  0  0  0  0  1  0  0  0  0  0  0
  184.7410  178.6070  143.7480 C   0  0  0  0  0  0  0  0  0  0  0  0
  183.6230  178.8780  143.6140 N   0  0  0  0  0  0  0  0  0  0  0  0
  194.5060  170.2580  146.0400 O   0  0  0  0  0  1  0  0  0  0  0  0
  195.0790  171.3680  145.4230 C   0  0  0  0  0  2  0  0  0  0  0  0
  2  9  2  0  0  0  0
  5 31  1  0  0  0  0
  5  4  2  0  0  0  0
  6 13  2  0  0  0  0
  7 20  2  0  0  0  0
  9 23  1  0  0  0  0
  9  8  1  0  0  0  0
 11  8  2  0  0  0  0
 11 10  1  0  0  0  0
 12 17  2  0  0  0  0
 13  4  1  0  0  0  0
 13 10  1  0  0  0  0
 14  3  1  1  0  0  0
 14 15  1  0  0  0  0
 14  6  1  0  0  0  0
 15  5  1  0  0  0  0
 17  7  1  0  0  0  0
 17  2  1  0  0  0  0
 18 15  2  0  0  0  0
 19  3  2  0  0  0  0
 19 18  1  0  0  0  0
 20 22  1  0  0  0  0
 21  1  1  6  0  0  0
 21  6  1  0  0  0  0
 21 11  1  0  0  0  0
 22 23  2  0  0  0  0
 23 16  1  0  0  0  0
 24  1  2  0  0  0  0
 24  2  1  0  0  0  0
 25  1  1  0  0  0  0
 26 25  3  0  0  0  0
 27 26  1  0  0  0  0
 28 20  1  0  0  0  0
 29 28  3  0  0  0  0
 31 30  1  0  0  0  0
M  END
>  <MODEL>
4

>  <REMARK>
 VINA RESULT:      -7.1      4.019      7.630
  Name = 
  3 active torsions:
  status: ('A' for Active; 'I' for Inactive)
    1  A    between atoms: C_1  and  C_11
    2  A    between atoms: C_2  and  C_26
    3  A    between atoms: C_6  and  C_29
                            x       y       z     vdW  Elec       q    Type
                         _______ _______ _______ _____ _____    ______ ____

>  <TORSDO>
F 3

$$$$
=
 OpenBabel11042417153D

 31 35  0  0  1  0  0  0  0  0999 V2000
  190.4080  174.6840  142.3330 C   0  0  0  0  0  0  0  0  0  0  0  0
  192.8680  174.6970  141.7070 C   0  0  0  0  0  0  0  0  0  0  0  0
  188.1510  177.2730  141.6200 C   0  0  0  0  0  3  0  0  0  0  0  0
  188.0770  176.7540  145.8530 C   0  0  0  0  0  3  0  0  0  0  0  0
  187.0210  177.3540  145.1430 C   0  0  0  0  0  0  0  0  0  0  0  0
  189.2870  176.4220  143.7730 C   0  0  0  0  0  0  0  0  0  0  0  0
  194.7410  174.9420  140.1190 N   0  0  0  0  0  0  0  0  0  0  0  0
  192.6900  175.2330  144.1920 C   0  0  0  0  0  3  0  0  0  0  0  0
  193.4670  175.1910  142.9140 C   0  0  0  0  0  0  0  0  0  0  0  0
  190.6180  175.5520  145.9420 S   0  0  0  0  0  0  0  0  0  0  0  0
  191.4090  175.5600  144.3290 C   0  0  0  0  0  0  0  0  0  0  0  0
  192.8250  174.0370  139.5060 O   0  0  0  0  0  0  0  0  0  0  0  0
  189.2030  176.2950  145.1540 C   0  0  0  0  0  0  0  0  0  0  0  0
  188.2370  177.0280  143.0760 C   0  0  1  0  0  3  0  0  0  0  0  0
  187.1250  177.4740  143.7470 C   0  0  0  0  0  0  0  0  0  0  0  0
  195.2430  175.9720  144.4030 N   0  0  0  0  0  1  0  0  0  0  0  0
  193.4930  174.5530  140.4450 C   0  0  0  0  0  0  0  0  0  0  0  0
  186.1330  178.0720  142.8250 C   0  0  0  0  0  3  0  0  0  0  0  0
  186.7790  177.9360  141.4400 C   0  0  0  0  0  3  0  0  0  0  0  0
  195.7570  175.4910  140.8060 C   0  0  0  0  0  0  0  0  0  0  0  0
  190.5590  175.9240  143.1650 C   0  0  1  0  0  3  0  0  0  0  0  0
  195.7420  175.7320  142.1270 N   0  0  0  0  0  0  0  0  0  0  0  0
  194.8100  175.6010  143.0910 C   0  0  0  0  0  0  0  0  0  0  0  0
  191.4660  174.1700  141.7090 C   0  0  0  0  0  3  0  0  0  0  0  0
  189.1530  173.9770  142.2290 C   0  0  0  0  0  0  0  0  0  0  0  0
  188.1080  173.3810  142.1450 C   0  0  0  0  0  0  0  0  0  0  0  0
  186.9270  172.7050  142.0500 O   0  0  0  0  0  1  0  0  0  0  0  0
  196.9640  175.7830  140.0890 C   0  0  0  0  0  0  0  0  0  0  0  0
  197.9390  176.0190  139.5100 N   0  0  0  0  0  0  0  0  0  0  0  0
  185.1900  176.7350  146.4980 O   0  0  0  0  0  1  0  0  0  0  0  0
  185.8080  177.8180  145.8750 C   0  0  0  0  0  2  0  0  0  0  0  0
  2 24  1  0  0  0  0
  2  9  2  0  0  0  0
  5  4  2  0  0  0  0
  5 31  1  0  0  0  0
  6 13  2  0  0  0  0
  7 17  1  0  0  0  0
  7 20  2  0  0  0  0
  8 11  2  0  0  0  0
  9 23  1  0  0  0  0
  9  8  1  0  0  0  0
 11 10  1  0  0  0  0
 12 17  2  0  0  0  0
 13  4  1  0  0  0  0
 13 10  1  0  0  0  0
 14  3  1  1  0  0  0
 14 15  1  0  0  0  0
 14  6  1  0  0  0  0
 15  5  1  0  0  0  0
 17  2  1  0  0  0  0
 18 15  2  0  0  0  0
 19  3  2  0  0  0  0
 19 18  1  0  0  0  0
 20 22  1  0  0  0  0
 21  1  1  6  0  0  0
 21  6  1  0  0  0  0
 21 11  1  0  0  0  0
 22 23  2  0  0  0  0
 23 16  1  0  0  0  0
 24  1  2  0  0  0  0
 25  1  1  0  0  0  0
 26 25  3  0  0  0  0
 27 26  1  0  0  0  0
 28 20  1  0  0  0  0
 29 28  3  0  0  0  0
 31 30  1  0  0  0  0
M  END
>  <MODEL>
5

>  <REMARK>
 VINA RESULT:      -6.9      1.574      1.949
  Name = 
  3 active torsions:
  status: ('A' for Active; 'I' for Inactive)
    1  A    between atoms: C_1  and  C_11
    2  A    between atoms: C_2  and  C_26
    3  A    between atoms: C_6  and  C_29
                            x       y       z     vdW  Elec       q    Type
                         _______ _______ _______ _____ _____    ______ ____

>  <TORSDO>
F 3

$$$$
=
 OpenBabel11042417153D

 31 35  0  0  1  0  0  0  0  0999 V2000
  191.5240  174.4010  144.6430 C   0  0  0  0  0  0  0  0  0  0  0  0
  189.2300  175.2330  145.3450 C   0  0  0  0  0  0  0  0  0  0  0  0
  194.3830  176.4160  144.3740 C   0  0  0  0  0  3  0  0  0  0  0  0
  193.8030  174.6430  140.5380 C   0  0  0  0  0  3  0  0  0  0  0  0
  195.0490  175.1380  140.9650 C   0  0  0  0  0  0  0  0  0  0  0  0
  192.8210  175.2760  142.6680 C   0  0  0  0  0  0  0  0  0  0  0  0
  187.6770  176.4160  146.8540 N   0  0  0  0  0  0  0  0  0  0  0  0
  189.2120  174.9300  142.8150 C   0  0  0  0  0  3  0  0  0  0  0  0
  188.6130  175.4750  144.0730 C   0  0  0  0  0  0  0  0  0  0  0  0
  191.0640  174.1640  140.9620 S   0  0  0  0  0  0  0  0  0  0  0  0
  190.5050  174.8600  142.5200 C   0  0  0  0  0  0  0  0  0  0  0  0
  189.3980  175.2790  147.6370 O   0  0  0  0  0  0  0  0  0  0  0  0
  192.6990  174.7210  141.4000 C   0  0  0  0  0  0  0  0  0  0  0  0
  194.0600  175.7730  143.0810 C   0  0  0  0  0  0  0  0  0  0  0  0
  195.1520  175.6960  142.2510 C   0  0  0  0  0  0  0  0  0  0  0  0
  186.8890  176.1980  142.4960 N   0  0  0  0  0  1  0  0  0  0  0  0
  188.7530  175.6410  146.6140 C   0  0  0  0  0  0  0  0  0  0  0  0
  196.3620  176.2690  142.8820 C   0  0  0  0  0  3  0  0  0  0  0  0
  195.8810  176.7270  144.2660 C   0  0  0  0  0  2  0  0  0  0  0  0
  186.7360  176.9730  146.0750 C   0  0  0  0  0  0  0  0  0  0  0  0
  191.5560  175.3270  143.4620 C   0  0  1  0  0  3  0  0  0  0  0  0
  186.6390  176.7920  144.7480 N   0  0  0  0  0  0  0  0  0  0  0  0
  187.3870  176.1420  143.8350 C   0  0  0  0  0  0  0  0  0  0  0  0
  190.4630  174.3880  145.4480 C   0  0  0  0  0  3  0  0  0  0  0  0
  192.5860  173.4620  144.9110 C   0  0  0  0  0  0  0  0  0  0  0  0
  193.4770  172.6810  145.1390 C   0  0  0  0  0  0  0  0  0  0  0  0
  194.4870  171.8000  145.3980 O   0  0  0  0  0  1  0  0  0  0  0  0
  185.7270  177.7670  146.7150 C   0  0  0  0  0  0  0  0  0  0  0  0
  184.9120  178.4080  147.2310 N   0  0  0  0  0  0  0  0  0  0  0  0
  195.8540  175.2900  138.7520 O   0  0  0  0  0  1  0  0  0  0  0  0
  196.2340  175.0320  140.0670 C   0  0  0  0  0  2  0  0  0  0  0  0
  1 25  1  0  0  0  0
  1 24  2  0  0  0  0
  2 24  1  0  0  0  0
  2 17  1  0  0  0  0
  4  5  2  0  0  0  0
  4 13  1  0  0  0  0
  5 15  1  0  0  0  0
  6 14  1  0  0  0  0
  6 21  1  0  0  0  0
  8  9  1  0  0  0  0
  9  2  2  0  0  0  0
 10 13  1  0  0  0  0
 10 11  1  0  0  0  0
 11  8  2  0  0  0  0
 13  6  2  0  0  0  0
 14  3  2  0  0  0  0
 15 18  2  0  0  0  0
 15 14  1  0  0  0  0
 16 23  1  0  0  0  0
 17  7  1  0  0  0  0
 17 12  2  0  0  0  0
 18 19  1  0  0  0  0
 19  3  1  0  0  0  0
 20 28  1  0  0  0  0
 20  7  2  0  0  0  0
 21 11  1  6  0  0  0
 21  1  1  0  0  0  0
 22 20  1  0  0  0  0
 23  9  1  0  0  0  0
 23 22  2  0  0  0  0
 25 26  3  0  0  0  0
 26 27  1  0  0  0  0
 28 29  3  0  0  0  0
 30 31  1  0  0  0  0
 31  5  1  0  0  0  0
M  END
>  <MODEL>
6

>  <REMARK>
 VINA RESULT:      -6.9      3.903      8.172
  Name = 
  3 active torsions:
  status: ('A' for Active; 'I' for Inactive)
    1  A    between atoms: C_1  and  C_11
    2  A    between atoms: C_2  and  C_26
    3  A    between atoms: C_6  and  C_29
                            x       y       z     vdW  Elec       q    Type
                         _______ _______ _______ _____ _____    ______ ____

>  <TORSDO>
F 3

$$$$
=
 OpenBabel11042417153D

 31 35  0  0  1  0  0  0  0  0999 V2000
  191.6480  174.7870  143.5800 C   0  0  0  0  0  0  0  0  0  0  0  0
  189.5950  176.0620  144.3600 C   0  0  0  0  0  0  0  0  0  0  0  0
  192.2420  171.3850  144.1970 C   0  0  0  0  0  3  0  0  0  0  0  0
  195.5600  173.4970  145.8460 C   0  0  0  0  0  3  0  0  0  0  0  0
  195.6270  172.1380  145.4900 C   0  0  0  0  0  0  0  0  0  0  0  0
  193.2480  173.5790  145.1060 C   0  0  0  0  0  0  0  0  0  0  0  0
  187.1610  176.4010  144.5850 N   0  0  0  0  0  0  0  0  0  0  0  0
  191.5280  176.6730  145.9030 C   0  0  0  0  0  3  0  0  0  0  0  0
  190.0670  176.6410  145.5850 C   0  0  0  0  0  0  0  0  0  0  0  0
  194.1440  175.9140  146.0940 S   0  0  0  0  0  0  0  0  0  0  0  0
  192.4130  175.7140  145.6560 C   0  0  0  0  0  0  0  0  0  0  0  0
  188.0340  175.5120  142.7640 O   0  0  0  0  0  0  0  0  0  0  0  0
  194.3640  174.2030  145.6500 C   0  0  0  0  0  0  0  0  0  0  0  0
  193.3190  172.2260  144.7630 C   0  0  1  0  0  3  0  0  0  0  0  0
  194.4870  171.5240  144.9420 C   0  0  0  0  0  0  0  0  0  0  0  0
  189.9630  177.8980  147.6800 N   0  0  0  0  0  1  0  0  0  0  0  0
  188.2550  176.0040  143.9060 C   0  0  0  0  0  0  0  0  0  0  0  0
  194.3520  170.1160  144.5070 C   0  0  0  0  0  3  0  0  0  0  0  0
  192.9040  170.0150  144.0090 C   0  0  0  0  0  3  0  0  0  0  0  0
  186.9640  176.9830  145.7790 C   0  0  0  0  0  0  0  0  0  0  0  0
  192.0330  174.4410  144.9890 C   0  0  1  0  0  3  0  0  0  0  0  0
  187.9460  177.3870  146.6020 N   0  0  0  0  0  0  0  0  0  0  0  0
  189.2900  177.2990  146.5680 C   0  0  0  0  0  0  0  0  0  0  0  0
  190.5590  175.5180  143.3490 C   0  0  0  0  0  3  0  0  0  0  0  0
  192.4590  174.4080  142.4480 C   0  0  0  0  0  0  0  0  0  0  0  0
  193.1320  174.0850  141.5010 C   0  0  0  0  0  0  0  0  0  0  0  0
  193.8940  173.7180  140.4300 O   0  0  0  0  0  1  0  0  0  0  0  0
  185.6120  177.2470  146.1770 C   0  0  0  0  0  0  0  0  0  0  0  0
  184.5200  177.4610  146.4970 N   0  0  0  0  0  0  0  0  0  0  0  0
  197.8580  171.8640  144.7700 O   0  0  0  0  0  1  0  0  0  0  0  0
  196.9030  171.3880  145.6670 C   0  0  0  0  0  2  0  0  0  0  0  0
  2  9  2  0  0  0  0
  5 31  1  0  0  0  0
  5  4  2  0  0  0  0
  6 13  2  0  0  0  0
  7 20  2  0  0  0  0
  9  8  1  0  0  0  0
  9 23  1  0  0  0  0
 11  8  2  0  0  0  0
 11 10  1  0  0  0  0
 12 17  2  0  0  0  0
 13  4  1  0  0  0  0
 13 10  1  0  0  0  0
 14  3  1  1  0  0  0
 14 15  1  0  0  0  0
 14  6  1  0  0  0  0
 15  5  1  0  0  0  0
 17  2  1  0  0  0  0
 17  7  1  0  0  0  0
 18 15  2  0  0  0  0
 19  3  2  0  0  0  0
 19 18  1  0  0  0  0
 20 28  1  0  0  0  0
 20 22  1  0  0  0  0
 21  1  1  6  0  0  0
 21  6  1  0  0  0  0
 21 11  1  0  0  0  0
 23 22  2  0  0  0  0
 23 16  1  0  0  0  0
 24  1  2  0  0  0  0
 24  2  1  0  0  0  0
 25  1  1  0  0  0  0
 26 25  3  0  0  0  0
 27 26  1  0  0  0  0
 28 29  3  0  0  0  0
 30 31  1  0  0  0  0
M  END
>  <MODEL>
7

>  <REMARK>
 VINA RESULT:      -6.8      3.908      8.016
  Name = 
  3 active torsions:
  status: ('A' for Active; 'I' for Inactive)
    1  A    between atoms: C_1  and  C_11
    2  A    between atoms: C_2  and  C_26
    3  A    between atoms: C_6  and  C_29
                            x       y       z     vdW  Elec       q    Type
                         _______ _______ _______ _____ _____    ______ ____

>  <TORSDO>
F 3

$$$$
=
 OpenBabel11042417153D

 31 35  0  0  1  0  0  0  0  0999 V2000
  191.2150  175.3920  143.0410 C   0  0  0  0  0  0  0  0  0  0  0  0
  189.2150  176.8550  143.5970 C   0  0  0  0  0  0  0  0  0  0  0  0
  191.1120  171.8990  142.7360 C   0  0  0  0  0  3  0  0  0  0  0  0
  193.9950  172.7510  145.7620 C   0  0  0  0  0  3  0  0  0  0  0  0
  193.9840  171.5420  145.0420 C   0  0  0  0  0  0  0  0  0  0  0  0
  192.0690  173.5220  144.4970 C   0  0  0  0  0  0  0  0  0  0  0  0
  186.9060  177.6570  143.2630 N   0  0  0  0  0  0  0  0  0  0  0  0
  190.6260  176.6240  145.7070 C   0  0  0  0  0  3  0  0  0  0  0  0
  189.3500  176.9940  145.0190 C   0  0  0  0  0  0  0  0  0  0  0  0
  192.9170  175.2830  146.3440 S   0  0  0  0  0  0  0  0  0  0  0  0
  191.4040  175.5840  145.4250 C   0  0  0  0  0  0  0  0  0  0  0  0
  188.1790  177.0760  141.5570 O   0  0  0  0  0  0  0  0  0  0  0  0
  193.0300  173.7290  145.4790 C   0  0  0  0  0  0  0  0  0  0  0  0
  192.0590  172.3140  143.7930 C   0  0  1  0  0  3  0  0  0  0  0  0
  193.0030  171.3500  144.0540 C   0  0  0  0  0  0  0  0  0  0  0  0
  188.7630  177.6850  147.2900 N   0  0  0  0  0  1  0  0  0  0  0  0
  188.0930  177.2090  142.8100 C   0  0  0  0  0  0  0  0  0  0  0  0
  192.8210  170.1590  143.1950 C   0  0  0  0  0  3  0  0  0  0  0  0
  191.6050  170.5060  142.3250 C   0  0  0  0  0  3  0  0  0  0  0  0
  186.4230  177.9540  144.4800 C   0  0  0  0  0  0  0  0  0  0  0  0
  191.0830  174.6320  144.3290 C   0  0  1  0  0  3  0  0  0  0  0  0
  187.1400  177.9150  145.6150 N   0  0  0  0  0  0  0  0  0  0  0  0
  188.4010  177.5440  145.9130 C   0  0  0  0  0  0  0  0  0  0  0  0
  190.3650  176.3800  142.7630 C   0  0  0  0  0  3  0  0  0  0  0  0
  192.2820  175.1350  142.1040 C   0  0  0  0  0  0  0  0  0  0  0  0
  193.1740  174.9150  141.3230 C   0  0  0  0  0  0  0  0  0  0  0  0
  194.1850  174.6630  140.4410 O   0  0  0  0  0  1  0  0  0  0  0  0
  185.0640  178.4040  144.5670 C   0  0  0  0  0  0  0  0  0  0  0  0
  183.9670  178.7670  144.6360 N   0  0  0  0  0  0  0  0  0  0  0  0
  194.5670  169.6290  146.2950 O   0  0  0  0  0  1  0  0  0  0  0  0
  195.0230  170.5090  145.3160 C   0  0  0  0  0  2  0  0  0  0  0  0
  2  9  2  0  0  0  0
  5 31  1  0  0  0  0
  5  4  2  0  0  0  0
  6 13  2  0  0  0  0
  7 20  2  0  0  0  0
  9  8  1  0  0  0  0
  9 23  1  0  0  0  0
 11  8  2  0  0  0  0
 11 10  1  0  0  0  0
 12 17  2  0  0  0  0
 13  4  1  0  0  0  0
 13 10  1  0  0  0  0
 14  3  1  1  0  0  0
 14 15  1  0  0  0  0
 14  6  1  0  0  0  0
 15  5  1  0  0  0  0
 17  7  1  0  0  0  0
 17  2  1  0  0  0  0
 18 15  2  0  0  0  0
 19  3  2  0  0  0  0
 19 18  1  0  0  0  0
 20 28  1  0  0  0  0
 20 22  1  0  0  0  0
 21  1  1  6  0  0  0
 21  6  1  0  0  0  0
 21 11  1  0  0  0  0
 22 23  2  0  0  0  0
 23 16  1  0  0  0  0
 24  1  2  0  0  0  0
 24  2  1  0  0  0  0
 25  1  1  0  0  0  0
 26 25  3  0  0  0  0
 27 26  1  0  0  0  0
 28 29  3  0  0  0  0
 31 30  1  0  0  0  0
M  END
>  <MODEL>
8

>  <REMARK>
 VINA RESULT:      -6.6      4.066      7.619
  Name = 
  3 active torsions:
  status: ('A' for Active; 'I' for Inactive)
    1  A    between atoms: C_1  and  C_11
    2  A    between atoms: C_2  and  C_26
    3  A    between atoms: C_6  and  C_29
                            x       y       z     vdW  Elec       q    Type
                         _______ _______ _______ _____ _____    ______ ____

>  <TORSDO>
F 3

$$$$
=
 OpenBabel11042417153D

 31 35  0  0  1  0  0  0  0  0999 V2000
  187.8450  177.7300  142.9750 C   0  0  0  0  0  0  0  0  0  0  0  0
  185.5410  178.3380  142.0980 C   0  0  0  0  0  0  0  0  0  0  0  0
  188.9360  174.4600  143.6250 C   0  0  0  0  0  3  0  0  0  0  0  0
  189.3390  176.6060  147.2890 C   0  0  0  0  0  3  0  0  0  0  0  0
  190.0680  175.4350  147.0110 C   0  0  0  0  0  0  0  0  0  0  0  0
  188.2750  176.4620  145.1100 C   0  0  0  0  0  0  0  0  0  0  0  0
  183.6630  178.1480  140.5090 N   0  0  0  0  0  0  0  0  0  0  0  0
  185.5860  178.8440  144.5950 C   0  0  0  0  0  3  0  0  0  0  0  0
  184.8410  178.6320  143.3160 C   0  0  0  0  0  0  0  0  0  0  0  0
  187.4420  178.5560  146.5770 S   0  0  0  0  0  0  0  0  0  0  0  0
  186.6540  178.1700  145.0100 C   0  0  0  0  0  0  0  0  0  0  0  0
  185.7570  177.9740  139.8390 O   0  0  0  0  0  0  0  0  0  0  0  0
  188.4470  177.1050  146.3300 C   0  0  0  0  0  0  0  0  0  0  0  0
  188.9960  175.2940  144.8450 C   0  0  1  0  0  3  0  0  0  0  0  0
  189.8800  174.7980  145.7720 C   0  0  0  0  0  0  0  0  0  0  0  0
  182.9520  179.2200  144.7530 N   0  0  0  0  0  1  0  0  0  0  0  0
  184.9760  178.1630  140.8120 C   0  0  0  0  0  0  0  0  0  0  0  0
  190.5430  173.5650  145.2920 C   0  0  0  0  0  3  0  0  0  0  0  0
  189.9500  173.3400  143.8940 C   0  0  0  0  0  3  0  0  0  0  0  0
  182.5390  178.3310  141.2210 C   0  0  0  0  0  0  0  0  0  0  0  0
  187.2660  177.0840  144.2000 C   0  0  1  0  0  3  0  0  0  0  0  0
  182.5050  178.6650  142.5210 N   0  0  0  0  0  0  0  0  0  0  0  0
  183.4490  178.8390  143.4670 C   0  0  0  0  0  0  0  0  0  0  0  0
  187.0380  178.2820  142.0710 C   0  0  0  0  0  3  0  0  0  0  0  0
  189.2690  177.8340  142.7630 C   0  0  0  0  0  0  0  0  0  0  0  0
  190.4590  177.9160  142.5890 C   0  0  0  0  0  0  0  0  0  0  0  0
  191.8070  178.0080  142.3940 O   0  0  0  0  0  1  0  0  0  0  0  0
  181.2870  178.2210  140.5290 C   0  0  0  0  0  0  0  0  0  0  0  0
  180.2770  178.1330  139.9710 N   0  0  0  0  0  0  0  0  0  0  0  0
  192.3340  175.2910  147.6550 O   0  0  0  0  0  1  0  0  0  0  0  0
  191.0410  174.9130  148.0130 C   0  0  0  0  0  2  0  0  0  0  0  0
  2  9  2  0  0  0  0
  3 19  2  0  0  0  0
  5  4  2  0  0  0  0
  5 31  1  0  0  0  0
  6 13  2  0  0  0  0
  7 17  1  0  0  0  0
  7 20  2  0  0  0  0
  8 11  2  0  0  0  0
  9 23  1  0  0  0  0
  9  8  1  0  0  0  0
 11 10  1  0  0  0  0
 12 17  2  0  0  0  0
 13 10  1  0  0  0  0
 13  4  1  0  0  0  0
 14  3  1  1  0  0  0
 14  6  1  0  0  0  0
 14 15  1  0  0  0  0
 15  5  1  0  0  0  0
 17  2  1  0  0  0  0
 18 15  2  0  0  0  0
 19 18  1  0  0  0  0
 20 22  1  0  0  0  0
 21  1  1  6  0  0  0
 21 11  1  0  0  0  0
 21  6  1  0  0  0  0
 22 23  2  0  0  0  0
 23 16  1  0  0  0  0
 24  2  1  0  0  0  0
 24  1  2  0  0  0  0
 25  1  1  0  0  0  0
 26 25  3  0  0  0  0
 27 26  1  0  0  0  0
 28 20  1  0  0  0  0
 29 28  3  0  0  0  0
 30 31  1  0  0  0  0
M  END
>  <MODEL>
9

>  <REMARK>
 VINA RESULT:      -6.5      5.369      8.238
  Name = 
  3 active torsions:
  status: ('A' for Active; 'I' for Inactive)
    1  A    between atoms: C_1  and  C_11
    2  A    between atoms: C_2  and  C_26
    3  A    between atoms: C_6  and  C_29
                            x       y       z     vdW  Elec       q    Type
                         _______ _______ _______ _____ _____    ______ ____

>  <TORSDO>
F 3

$$$$
