=
 OpenBabel11042415533D

 50 55  0  0  1  0  0  0  0  0999 V2000
  191.4500  173.8850  138.8110 N   0  0  0  0  0  2  0  0  0  0  0  0
  192.2250  173.4380  143.1560 C   0  0  1  0  0  3  0  0  0  0  0  0
  192.0650  173.8790  137.5200 C   0  0  0  0  0  0  0  0  0  0  0  0
  191.9050  174.8580  136.7470 O   0  0  0  0  0  0  0  0  0  0  0  0
  193.0140  171.1360  140.5430 N   0  0  0  0  0  2  0  0  0  0  0  0
  188.1050  175.2600  142.1990 O   0  0  0  0  0  0  0  0  0  0  0  0
  191.5530  173.9860  141.8760 C   0  0  1  0  0  3  0  0  0  0  0  0
  193.4980  171.9720  138.2690 C   0  0  2  0  0  3  0  0  0  0  0  0
  192.4170  171.5480  139.2710 C   0  0  2  0  0  3  0  0  0  0  0  0
  191.6060  172.7490  139.6650 C   0  0  1  0  0  3  0  0  0  0  0  0
  190.0060  175.4480  143.3030 C   0  0  0  0  0  0  0  0  0  0  0  0
  192.4240  175.8750  143.8970 C   0  0  0  0  0  2  0  0  0  0  0  0
  192.4160  171.8000  141.4750 C   0  0  2  0  0  3  0  0  0  0  0  0
  192.8770  172.6980  137.0690 C   0  0  0  0  0  2  0  0  0  0  0  0
  190.9770  175.8250  144.3920 C   0  0  0  0  0  2  0  0  0  0  0  0
  188.9900  174.5130  141.5740 C   0  0  0  0  0  0  0  0  0  0  0  0
  188.6800  175.8220  143.2380 C   0  0  0  0  0  0  0  0  0  0  0  0
  191.5480  172.8030  140.9830 C   0  0  1  0  0  3  0  0  0  0  0  0
  190.2130  174.5740  142.2410 C   0  0  0  0  0  0  0  0  0  0  0  0
  192.9790  172.1400  142.7980 C   0  0  2  0  0  3  0  0  0  0  0  0
  192.6360  171.0530  143.7960 C   0  0  0  0  0  1  0  0  0  0  0  0
  193.1000  174.4900  143.8450 C   0  0  1  0  0  3  0  0  0  0  0  0
  186.6740  176.7440  144.2750 C   0  0  0  0  0  3  0  0  0  0  0  0
  188.0000  176.7150  144.1810 C   0  0  0  0  0  3  0  0  0  0  0  0
  185.9350  177.6460  145.2280 C   0  0  1  0  0  0  0  0  0  0  0  0
  186.8820  178.4560  145.8590 O   0  0  0  0  0  1  0  0  0  0  0  0
  184.9510  178.5610  144.4700 C   0  0  2  0  0  3  0  0  0  0  0  0
  184.4430  177.9100  143.3420 O   0  0  0  0  0  1  0  0  0  0  0  0
  185.5580  179.8940  144.0430 C   0  0  0  0  0  1  0  0  0  0  0  0
  184.0970  177.5270  146.7890 O   0  0  0  0  0  1  0  0  0  0  0  0
  185.2010  176.8290  146.3000 C   0  0  0  0  0  2  0  0  0  0  0  0
  188.6880  173.7470  140.3600 C   0  0  0  0  0  3  0  0  0  0  0  0
  187.9090  172.6730  140.3960 C   0  0  0  0  0  2  0  0  0  0  0  0
  194.3290  170.7820  137.8060 C   0  0  0  0  0  2  0  0  0  0  0  0
  195.6860  171.1560  137.6070 O   0  0  0  0  0  0  0  0  0  0  0  0
  196.4100  170.8330  139.8790 O   0  0  0  0  0  1  0  0  0  0  0  0
  197.3410  172.4560  138.5590 O   0  0  0  0  0  0  0  0  0  0  0  0
  196.5100  171.5160  138.6740 C   0  0  0  0  0  0  0  0  0  0  0  0
  193.4630  174.0260  145.2500 C   0  0  0  0  0  2  0  0  0  0  0  0
  194.6060  174.7750  145.7450 N   0  0  0  0  0  2  0  0  0  0  0  0
  195.5960  172.2810  144.9450 O   0  0  0  0  0  0  0  0  0  0  0  0
  196.9350  173.7920  146.6030 O   0  0  0  0  0  1  0  0  0  0  0  0
  196.0490  173.8510  145.3780 P   0  0  2  0  0  0  0  0  0  0  0  0
  196.9660  174.6120  143.9990 C   0  0  0  0  0  2  0  0  0  0  0  0
  196.1640  174.0270  141.8610 C   0  0  0  0  0  2  0  0  0  0  0  0
  195.6750  176.7890  141.2480 C   0  0  0  0  0  2  0  0  0  0  0  0
  194.6190  175.7680  140.8180 C   0  0  0  0  0  2  0  0  0  0  0  0
  195.2240  174.3670  140.6920 C   0  0  0  0  0  2  0  0  0  0  0  0
  196.5160  176.2990  142.4390 C   0  0  0  0  0  2  0  0  0  0  0  0
  196.0460  175.0060  142.9430 N   0  0  0  0  0  0  0  0  0  0  0  0
  1 10  1  0  0  0  0
  2 22  1  0  0  0  0
  3  1  1  0  0  0  0
  4  3  2  0  0  0  0
  5 13  1  0  0  0  0
  6 17  1  0  0  0  0
  7 19  1  0  0  0  0
  7  2  1  0  0  0  0
  8  9  1  0  0  0  0
  9 10  1  0  0  0  0
  9  5  1  0  0  0  0
 10 18  1  0  0  0  0
 11 15  1  0  0  0  0
 12 15  1  0  0  0  0
 13 20  1  0  0  0  0
 14  3  1  0  0  0  0
 14  8  1  0  0  0  0
 16  6  1  0  0  0  0
 16 19  2  0  0  0  0
 17 11  2  0  0  0  0
 17 24  1  0  0  0  0
 18 13  1  0  0  0  0
 18  7  1  0  0  0  0
 19 11  1  0  0  0  0
 20  2  1  0  0  0  0
 20 21  1  0  0  0  0
 22 12  1  0  0  0  0
 22 39  1  0  0  0  0
 23 25  1  0  0  0  0
 24 23  2  0  0  0  0
 25 26  1  0  0  0  0
 25 31  1  0  0  0  0
 27 25  1  0  0  0  0
 28 27  1  0  0  0  0
 29 27  1  0  0  0  0
 31 30  1  0  0  0  0
 32 33  2  0  0  0  0
 32 16  1  0  0  0  0
 34  8  1  0  0  0  0
 35 34  1  0  0  0  0
 35 38  1  0  0  0  0
 37 38  2  0  0  0  0
 38 36  1  0  0  0  0
 39 40  1  0  0  0  0
 41 43  2  0  0  0  0
 43 40  1  0  0  0  0
 43 42  1  0  0  0  0
 44 43  1  0  0  0  0
 45 50  1  0  0  0  0
 46 49  1  0  0  0  0
 47 46  1  0  0  0  0
 48 47  1  0  0  0  0
 48 45  1  0  0  0  0
 49 50  1  0  0  0  0
 50 44  1  0  0  0  0
M  END
>  <MODEL>
1

>  <REMARK>
 VINA RESULT:      -6.0      0.000      0.000
  Name = 
  13 active torsions:
  status: ('A' for Active; 'I' for Inactive)
    1  A    between atoms: C_1  and  C_12
    2  A    between atoms: C_1  and  C_13
    3  A    between atoms: C_1  and  C_19
    4  A    between atoms: O_8  and  C_37
    5  A    between atoms: O_8  and  C_38
    6  A    between atoms: C_15  and  N_48
    7  A    between atoms: C_15  and  P_49
    8  A    between atoms: C_17  and  C_37
    9  A    between atoms: C_20  and  C_40
   10  A    between atoms: N_23  and  C_47
   11  A    between atoms: N_23  and  P_49
   12  A    between atoms: C_29  and  C_39
   13  A    between atoms: C_45  and  C_47
                            x       y       z     vdW  Elec       q    Type
                         _______ _______ _______ _____ _____    ______ ____

>  <TORSDO>
F 13

$$$$
=
 OpenBabel11042415533D

 50 55  0  0  1  0  0  0  0  0999 V2000
  194.4770  171.9870  145.4400 N   0  0  0  0  0  2  0  0  0  0  0  0
  192.2240  173.7780  142.0650 C   0  0  1  0  0  3  0  0  0  0  0  0
  195.3530  170.9180  145.8080 C   0  0  0  0  0  0  0  0  0  0  0  0
  195.0540  170.1670  146.7700 O   0  0  0  0  0  0  0  0  0  0  0  0
  195.7220  173.0870  142.2400 N   0  0  0  0  0  2  0  0  0  0  0  0
  190.9140  175.3480  146.1910 O   0  0  0  0  0  0  0  0  0  0  0  0
  192.5120  173.3600  143.5240 C   0  0  1  0  0  3  0  0  0  0  0  0
  196.5390  171.2120  143.6260 C   0  0  2  0  0  3  0  0  0  0  0  0
  196.1200  172.6860  143.5910 C   0  0  2  0  0  3  0  0  0  0  0  0
  194.8480  172.8590  144.3710 C   0  0  1  0  0  3  0  0  0  0  0  0
  190.3100  174.4340  144.2760 C   0  0  0  0  0  0  0  0  0  0  0  0
  189.8970  172.7810  142.4110 C   0  0  0  0  0  2  0  0  0  0  0  0
  194.5590  173.6380  142.3350 C   0  0  2  0  0  3  0  0  0  0  0  0
  196.6460  170.7070  145.0710 C   0  0  0  0  0  2  0  0  0  0  0  0
  189.4570  174.0830  143.0840 C   0  0  0  0  0  2  0  0  0  0  0  0
  191.9860  174.7830  145.6780 C   0  0  0  0  0  0  0  0  0  0  0  0
  189.9020  175.1640  145.3730 C   0  0  0  0  0  0  0  0  0  0  0  0
  193.9820  173.5180  143.6220 C   0  0  1  0  0  3  0  0  0  0  0  0
  191.6700  174.2040  144.4500 C   0  0  0  0  0  0  0  0  0  0  0  0
  193.5420  173.7120  141.2650 C   0  0  2  0  0  3  0  0  0  0  0  0
  193.7270  174.9880  140.4690 C   0  0  0  0  0  1  0  0  0  0  0  0
  191.0840  172.9640  141.4440 C   0  0  1  0  0  3  0  0  0  0  0  0
  188.1790  176.8840  145.2190 C   0  0  0  0  0  3  0  0  0  0  0  0
  188.5450  175.6650  145.6060 C   0  0  0  0  0  3  0  0  0  0  0  0
  186.7970  177.4390  145.4390 C   0  0  1  0  0  0  0  0  0  0  0  0
  185.8880  176.4020  145.2110 O   0  0  0  0  0  1  0  0  0  0  0  0
  186.6210  177.9190  146.8950 C   0  0  2  0  0  3  0  0  0  0  0  0
  186.1880  176.8700  147.7100 O   0  0  0  0  0  1  0  0  0  0  0  0
  185.6570  179.0920  147.0400 C   0  0  0  0  0  1  0  0  0  0  0  0
  187.1090  178.3390  143.2210 O   0  0  0  0  0  1  0  0  0  0  0  0
  186.4970  178.5750  144.4520 C   0  0  0  0  0  2  0  0  0  0  0  0
  193.2970  174.7890  146.3370 C   0  0  0  0  0  3  0  0  0  0  0  0
  194.0190  175.8970  146.4290 C   0  0  0  0  0  2  0  0  0  0  0  0
  197.8480  170.9850  142.8800 C   0  0  0  0  0  2  0  0  0  0  0  0
  197.8720  169.6990  142.2730 O   0  0  0  0  0  0  0  0  0  0  0  0
  196.0180  168.1660  142.2440 O   0  0  0  0  0  1  0  0  0  0  0  0
  196.3980  169.5960  140.4970 O   0  0  0  0  0  0  0  0  0  0  0  0
  196.7510  169.1720  141.6310 C   0  0  0  0  0  0  0  0  0  0  0  0
  190.6180  173.6220  140.1520 C   0  0  0  0  0  2  0  0  0  0  0  0
  191.0680  172.8490  139.0060 N   0  0  0  0  0  2  0  0  0  0  0  0
  189.4280  172.2560  136.8150 O   0  0  0  0  0  0  0  0  0  0  0  0
  188.4800  172.2390  139.2490 O   0  0  0  0  0  1  0  0  0  0  0  0
  189.7120  171.8930  138.4420 P   0  0  2  0  0  0  0  0  0  0  0  0
  190.0690  170.1130  138.6050 C   0  0  0  0  0  2  0  0  0  0  0  0
  191.9670  168.7990  139.0750 C   0  0  0  0  0  2  0  0  0  0  0  0
  191.5460  169.1330  141.8960 C   0  0  0  0  0  2  0  0  0  0  0  0
  192.9830  169.2240  141.3760 C   0  0  0  0  0  2  0  0  0  0  0  0
  193.1330  168.5020  140.0340 C   0  0  0  0  0  2  0  0  0  0  0  0
  190.5080  169.4770  140.8150 C   0  0  0  0  0  2  0  0  0  0  0  0
  191.1410  169.9040  139.5650 N   0  0  0  0  0  0  0  0  0  0  0  0
  1  3  1  0  0  0  0
  2  7  1  0  0  0  0
  3  4  2  0  0  0  0
  5 13  1  0  0  0  0
  5  9  1  0  0  0  0
  7 18  1  0  0  0  0
  7 19  1  0  0  0  0
  8 14  1  0  0  0  0
  9  8  1  0  0  0  0
  9 10  1  0  0  0  0
 10  1  1  0  0  0  0
 11 19  1  0  0  0  0
 11 17  2  0  0  0  0
 12 15  1  0  0  0  0
 13 18  1  0  0  0  0
 14  3  1  0  0  0  0
 15 11  1  0  0  0  0
 16  6  1  0  0  0  0
 16 32  1  0  0  0  0
 17 24  1  0  0  0  0
 17  6  1  0  0  0  0
 18 10  1  0  0  0  0
 19 16  2  0  0  0  0
 20  2  1  0  0  0  0
 20 13  1  0  0  0  0
 21 20  1  0  0  0  0
 22  2  1  0  0  0  0
 22 12  1  0  0  0  0
 23 25  1  0  0  0  0
 23 24  2  0  0  0  0
 25 27  1  0  0  0  0
 26 25  1  0  0  0  0
 27 29  1  0  0  0  0
 27 28  1  0  0  0  0
 30 31  1  0  0  0  0
 31 25  1  0  0  0  0
 32 33  2  0  0  0  0
 34  8  1  0  0  0  0
 35 34  1  0  0  0  0
 37 38  2  0  0  0  0
 38 36  1  0  0  0  0
 38 35  1  0  0  0  0
 39 22  1  0  0  0  0
 40 39  1  0  0  0  0
 41 43  2  0  0  0  0
 43 44  1  0  0  0  0
 43 40  1  0  0  0  0
 43 42  1  0  0  0  0
 44 50  1  0  0  0  0
 45 50  1  0  0  0  0
 45 48  1  0  0  0  0
 47 46  1  0  0  0  0
 48 47  1  0  0  0  0
 49 46  1  0  0  0  0
 50 49  1  0  0  0  0
M  END
>  <MODEL>
2

>  <REMARK>
 VINA RESULT:      -5.5      2.805      6.089
  Name = 
  13 active torsions:
  status: ('A' for Active; 'I' for Inactive)
    1  A    between atoms: C_1  and  C_12
    2  A    between atoms: C_1  and  C_13
    3  A    between atoms: C_1  and  C_19
    4  A    between atoms: O_8  and  C_37
    5  A    between atoms: O_8  and  C_38
    6  A    between atoms: C_15  and  N_48
    7  A    between atoms: C_15  and  P_49
    8  A    between atoms: C_17  and  C_37
    9  A    between atoms: C_20  and  C_40
   10  A    between atoms: N_23  and  C_47
   11  A    between atoms: N_23  and  P_49
   12  A    between atoms: C_29  and  C_39
   13  A    between atoms: C_45  and  C_47
                            x       y       z     vdW  Elec       q    Type
                         _______ _______ _______ _____ _____    ______ ____

>  <TORSDO>
F 13

$$$$
=
 OpenBabel11042415533D

 50 55  0  0  1  0  0  0  0  0999 V2000
  189.6360  176.0080  143.3050 N   0  0  0  0  0  2  0  0  0  0  0  0
  191.1190  173.1190  140.2840 C   0  0  1  0  0  3  0  0  0  0  0  0
  189.1740  177.3490  143.4950 C   0  0  0  0  0  0  0  0  0  0  0  0
  189.7200  178.0810  144.3580 O   0  0  0  0  0  0  0  0  0  0  0  0
  188.0600  174.9600  140.2360 N   0  0  0  0  0  2  0  0  0  0  0  0
  191.8650  171.7840  144.6280 O   0  0  0  0  0  0  0  0  0  0  0  0
  191.0030  173.8060  141.6630 C   0  0  1  0  0  3  0  0  0  0  0  0
  187.9370  177.1720  141.3290 C   0  0  2  0  0  3  0  0  0  0  0  0
  187.8340  175.6520  141.5060 C   0  0  2  0  0  3  0  0  0  0  0  0
  188.9820  175.1720  142.3480 C   0  0  1  0  0  3  0  0  0  0  0  0
  192.7220  172.1700  142.6320 C   0  0  0  0  0  0  0  0  0  0  0  0
  193.6490  173.3160  140.5800 C   0  0  0  0  0  2  0  0  0  0  0  0
  188.9710  174.0690  140.4460 C   0  0  2  0  0  3  0  0  0  0  0  0
  188.0220  177.8780  142.6890 C   0  0  0  0  0  2  0  0  0  0  0  0
  193.6310  172.0480  141.4360 C   0  0  0  0  0  2  0  0  0  0  0  0
  191.0410  172.6000  144.0050 C   0  0  0  0  0  0  0  0  0  0  0  0
  192.8710  171.5050  143.8300 C   0  0  0  0  0  0  0  0  0  0  0  0
  189.5670  174.1650  141.7260 C   0  0  1  0  0  3  0  0  0  0  0  0
  191.5210  172.8650  142.7230 C   0  0  0  0  0  0  0  0  0  0  0  0
  189.8920  173.5130  139.4340 C   0  0  2  0  0  3  0  0  0  0  0  0
  189.2800  172.2750  138.8080 C   0  0  0  0  0  1  0  0  0  0  0  0
  192.4600  173.4100  139.6030 C   0  0  1  0  0  3  0  0  0  0  0  0
  194.7130  170.8130  145.2710 C   0  0  0  0  0  3  0  0  0  0  0  0
  193.9820  170.6150  144.1780 C   0  0  0  0  0  3  0  0  0  0  0  0
  195.8640  169.9240  145.6660 C   0  0  1  0  0  0  0  0  0  0  0  0
  197.0170  170.7130  145.6790 O   0  0  0  0  0  1  0  0  0  0  0  0
  195.6580  169.3520  147.0840 C   0  0  2  0  0  3  0  0  0  0  0  0
  196.8810  168.9730  147.6440 O   0  0  0  0  0  1  0  0  0  0  0  0
  194.7000  168.1660  147.1330 C   0  0  0  0  0  1  0  0  0  0  0  0
  197.2030  169.0080  143.8780 O   0  0  0  0  0  1  0  0  0  0  0  0
  196.0590  168.7940  144.6470 C   0  0  0  0  0  2  0  0  0  0  0  0
  189.8110  173.1250  144.6090 C   0  0  0  0  0  3  0  0  0  0  0  0
  189.8280  173.7520  145.7780 C   0  0  0  0  0  2  0  0  0  0  0  0
  186.7740  177.7200  140.5120 C   0  0  0  0  0  2  0  0  0  0  0  0
  185.9370  178.5480  141.3080 O   0  0  0  0  0  0  0  0  0  0  0  0
  183.6860  178.4840  140.4610 O   0  0  0  0  0  0  0  0  0  0  0  0
  184.1680  177.7980  142.5910 O   0  0  0  0  0  1  0  0  0  0  0  0
  184.5840  178.2580  141.4940 C   0  0  0  0  0  0  0  0  0  0  0  0
  192.6640  172.4630  138.4280 C   0  0  0  0  0  2  0  0  0  0  0  0
  194.0790  172.1840  138.2490 N   0  0  0  0  0  2  0  0  0  0  0  0
  195.7580  170.8290  136.4630 O   0  0  0  0  0  1  0  0  0  0  0  0
  193.1760  170.9200  136.0780 O   0  0  0  0  0  0  0  0  0  0  0  0
  194.2200  170.8130  137.1670 P   0  0  2  0  0  0  0  0  0  0  0  0
  193.9950  169.2500  138.0770 C   0  0  0  0  0  2  0  0  0  0  0  0
  193.3260  168.5580  140.2280 C   0  0  0  0  0  2  0  0  0  0  0  0
  190.5650  168.9020  139.5210 C   0  0  0  0  0  2  0  0  0  0  0  0
  191.0070  169.3740  140.9080 C   0  0  0  0  0  2  0  0  0  0  0  0
  192.2840  168.6560  141.3550 C   0  0  0  0  0  2  0  0  0  0  0  0
  191.7250  168.8800  138.5110 C   0  0  0  0  0  2  0  0  0  0  0  0
  192.9630  169.4040  139.0900 N   0  0  0  0  0  0  0  0  0  0  0  0
  1  3  1  0  0  0  0
  2  7  1  0  0  0  0
  3  4  2  0  0  0  0
  5 13  1  0  0  0  0
  5  9  1  0  0  0  0
  7 18  1  0  0  0  0
  7 19  1  0  0  0  0
  8  9  1  0  0  0  0
  8 14  1  0  0  0  0
  9 10  1  0  0  0  0
 10  1  1  0  0  0  0
 11 19  1  0  0  0  0
 11 17  2  0  0  0  0
 12 15  1  0  0  0  0
 13 18  1  0  0  0  0
 14  3  1  0  0  0  0
 15 11  1  0  0  0  0
 16 32  1  0  0  0  0
 16  6  1  0  0  0  0
 17 24  1  0  0  0  0
 17  6  1  0  0  0  0
 18 10  1  0  0  0  0
 19 16  2  0  0  0  0
 20  2  1  0  0  0  0
 20 13  1  0  0  0  0
 21 20  1  0  0  0  0
 22  2  1  0  0  0  0
 22 12  1  0  0  0  0
 23 25  1  0  0  0  0
 24 23  2  0  0  0  0
 25 26  1  0  0  0  0
 25 27  1  0  0  0  0
 27 29  1  0  0  0  0
 27 28  1  0  0  0  0
 30 31  1  0  0  0  0
 31 25  1  0  0  0  0
 32 33  2  0  0  0  0
 34 35  1  0  0  0  0
 34  8  1  0  0  0  0
 35 38  1  0  0  0  0
 36 38  2  0  0  0  0
 38 37  1  0  0  0  0
 39 22  1  0  0  0  0
 40 39  1  0  0  0  0
 41 43  1  0  0  0  0
 42 43  2  0  0  0  0
 43 44  1  0  0  0  0
 43 40  1  0  0  0  0
 44 50  1  0  0  0  0
 45 48  1  0  0  0  0
 46 47  1  0  0  0  0
 47 48  1  0  0  0  0
 49 50  1  0  0  0  0
 49 46  1  0  0  0  0
 50 45  1  0  0  0  0
M  END
>  <MODEL>
3

>  <REMARK>
 VINA RESULT:      -5.4      3.054      9.071
  Name = 
  13 active torsions:
  status: ('A' for Active; 'I' for Inactive)
    1  A    between atoms: C_1  and  C_12
    2  A    between atoms: C_1  and  C_13
    3  A    between atoms: C_1  and  C_19
    4  A    between atoms: O_8  and  C_37
    5  A    between atoms: O_8  and  C_38
    6  A    between atoms: C_15  and  N_48
    7  A    between atoms: C_15  and  P_49
    8  A    between atoms: C_17  and  C_37
    9  A    between atoms: C_20  and  C_40
   10  A    between atoms: N_23  and  C_47
   11  A    between atoms: N_23  and  P_49
   12  A    between atoms: C_29  and  C_39
   13  A    between atoms: C_45  and  C_47
                            x       y       z     vdW  Elec       q    Type
                         _______ _______ _______ _____ _____    ______ ____

>  <TORSDO>
F 13

$$$$
=
 OpenBabel11042415533D

 50 55  0  0  1  0  0  0  0  0999 V2000
  194.2140  172.6740  144.4590 N   0  0  0  0  0  2  0  0  0  0  0  0
  192.0540  173.9050  140.7860 C   0  0  1  0  0  3  0  0  0  0  0  0
  194.9590  171.6120  145.0620 C   0  0  0  0  0  0  0  0  0  0  0  0
  194.6100  171.1630  146.1830 O   0  0  0  0  0  0  0  0  0  0  0  0
  195.4340  172.7910  141.0680 N   0  0  0  0  0  2  0  0  0  0  0  0
  191.1700  176.5850  144.4260 O   0  0  0  0  0  0  0  0  0  0  0  0
  192.3560  173.8120  142.2990 C   0  0  1  0  0  3  0  0  0  0  0  0
  196.0630  171.2060  142.8570 C   0  0  2  0  0  3  0  0  0  0  0  0
  195.8420  172.6730  142.4690 C   0  0  2  0  0  3  0  0  0  0  0  0
  194.6440  173.2050  143.2040 C   0  0  1  0  0  3  0  0  0  0  0  0
  190.3560  175.3330  142.8010 C   0  0  0  0  0  0  0  0  0  0  0  0
  189.6360  173.3570  141.4020 C   0  0  0  0  0  2  0  0  0  0  0  0
  194.3600  173.5070  141.0440 C   0  0  2  0  0  3  0  0  0  0  0  0
  196.1730  171.0510  144.3790 C   0  0  0  0  0  2  0  0  0  0  0  0
  189.4060  174.8310  141.7440 C   0  0  0  0  0  2  0  0  0  0  0  0
  192.1310  175.7680  144.0490 C   0  0  0  0  0  0  0  0  0  0  0  0
  190.1030  176.3540  143.6930 C   0  0  0  0  0  0  0  0  0  0  0  0
  193.8370  173.7800  142.3310 C   0  0  1  0  0  3  0  0  0  0  0  0
  191.6810  174.9620  143.0040 C   0  0  0  0  0  0  0  0  0  0  0  0
  193.3100  173.4640  140.0060 C   0  0  2  0  0  3  0  0  0  0  0  0
  193.6230  174.4740  138.9190 C   0  0  0  0  0  1  0  0  0  0  0  0
  190.7870  173.1340  140.4010 C   0  0  1  0  0  3  0  0  0  0  0  0
  187.8580  176.6400  144.6020 C   0  0  0  0  0  3  0  0  0  0  0  0
  188.8380  177.0820  143.8190 C   0  0  0  0  0  3  0  0  0  0  0  0
  186.5420  177.3550  144.7590 C   0  0  1  0  0  0  0  0  0  0  0  0
  185.5570  176.5560  144.1730 O   0  0  0  0  0  1  0  0  0  0  0  0
  186.1870  177.5350  146.2500 C   0  0  2  0  0  3  0  0  0  0  0  0
  186.7370  176.5030  147.0150 O   0  0  0  0  0  1  0  0  0  0  0  0
  184.6880  177.6090  146.5190 C   0  0  0  0  0  1  0  0  0  0  0  0
  185.6600  178.7220  142.9760 O   0  0  0  0  0  1  0  0  0  0  0  0
  186.5640  178.7090  144.0390 C   0  0  0  0  0  2  0  0  0  0  0  0
  193.4620  175.7470  144.6650 C   0  0  0  0  0  3  0  0  0  0  0  0
  193.6240  175.9320  145.9680 C   0  0  0  0  0  2  0  0  0  0  0  0
  197.2920  170.6250  142.1670 C   0  0  0  0  0  2  0  0  0  0  0  0
  196.9190  169.6640  141.1880 O   0  0  0  0  0  0  0  0  0  0  0  0
  197.3820  168.6200  139.0710 O   0  0  0  0  0  0  0  0  0  0  0  0
  197.7430  170.8580  139.3910 O   0  0  0  0  0  1  0  0  0  0  0  0
  197.3600  169.7560  139.8680 C   0  0  0  0  0  0  0  0  0  0  0  0
  190.3480  173.5230  138.9950 C   0  0  0  0  0  2  0  0  0  0  0  0
  189.4420  172.5210  138.4580 N   0  0  0  0  0  2  0  0  0  0  0  0
  191.7200  172.4310  136.8320 O   0  0  0  0  0  1  0  0  0  0  0  0
  189.4670  171.3620  136.0530 O   0  0  0  0  0  0  0  0  0  0  0  0
  190.3300  171.5780  137.2770 P   0  0  2  0  0  0  0  0  0  0  0  0
  190.8140  169.9660  137.9750 C   0  0  0  0  0  2  0  0  0  0  0  0
  192.8030  169.5620  139.1720 C   0  0  0  0  0  2  0  0  0  0  0  0
  191.3370  169.4230  141.6360 C   0  0  0  0  0  2  0  0  0  0  0  0
  192.6710  170.1730  141.6450 C   0  0  0  0  0  2  0  0  0  0  0  0
  193.5720  169.7110  140.4960 C   0  0  0  0  0  2  0  0  0  0  0  0
  190.6950  169.3830  140.2390 C   0  0  0  0  0  2  0  0  0  0  0  0
  191.4670  170.1530  139.2610 N   0  0  0  0  0  0  0  0  0  0  0  0
  1  3  1  0  0  0  0
  2  7  1  0  0  0  0
  3  4  2  0  0  0  0
  5  9  1  0  0  0  0
  7 18  1  0  0  0  0
  7 19  1  0  0  0  0
  8 14  1  0  0  0  0
  9  8  1  0  0  0  0
  9 10  1  0  0  0  0
 10  1  1  0  0  0  0
 11 19  1  0  0  0  0
 11 17  2  0  0  0  0
 12 15  1  0  0  0  0
 13  5  1  0  0  0  0
 13 18  1  0  0  0  0
 14  3  1  0  0  0  0
 15 11  1  0  0  0  0
 16  6  1  0  0  0  0
 16 32  1  0  0  0  0
 17 24  1  0  0  0  0
 17  6  1  0  0  0  0
 18 10  1  0  0  0  0
 19 16  2  0  0  0  0
 20  2  1  0  0  0  0
 20 13  1  0  0  0  0
 21 20  1  0  0  0  0
 22  2  1  0  0  0  0
 22 12  1  0  0  0  0
 23 25  1  0  0  0  0
 24 23  2  0  0  0  0
 25 27  1  0  0  0  0
 26 25  1  0  0  0  0
 27 29  1  0  0  0  0
 27 28  1  0  0  0  0
 30 31  1  0  0  0  0
 31 25  1  0  0  0  0
 32 33  2  0  0  0  0
 34  8  1  0  0  0  0
 35 34  1  0  0  0  0
 36 38  2  0  0  0  0
 37 38  1  0  0  0  0
 38 35  1  0  0  0  0
 39 22  1  0  0  0  0
 40 39  1  0  0  0  0
 41 43  1  0  0  0  0
 42 43  2  0  0  0  0
 43 44  1  0  0  0  0
 43 40  1  0  0  0  0
 44 50  1  0  0  0  0
 45 50  1  0  0  0  0
 45 48  1  0  0  0  0
 46 47  1  0  0  0  0
 48 47  1  0  0  0  0
 49 46  1  0  0  0  0
 50 49  1  0  0  0  0
M  END
>  <MODEL>
4

>  <REMARK>
 VINA RESULT:      -5.3      2.542      5.813
  Name = 
  13 active torsions:
  status: ('A' for Active; 'I' for Inactive)
    1  A    between atoms: C_1  and  C_12
    2  A    between atoms: C_1  and  C_13
    3  A    between atoms: C_1  and  C_19
    4  A    between atoms: O_8  and  C_37
    5  A    between atoms: O_8  and  C_38
    6  A    between atoms: C_15  and  N_48
    7  A    between atoms: C_15  and  P_49
    8  A    between atoms: C_17  and  C_37
    9  A    between atoms: C_20  and  C_40
   10  A    between atoms: N_23  and  C_47
   11  A    between atoms: N_23  and  P_49
   12  A    between atoms: C_29  and  C_39
   13  A    between atoms: C_45  and  C_47
                            x       y       z     vdW  Elec       q    Type
                         _______ _______ _______ _____ _____    ______ ____

>  <TORSDO>
F 13

$$$$
=
 OpenBabel11042415533D

 50 55  0  0  1  0  0  0  0  0999 V2000
  185.3450  177.2720  142.0070 N   0  0  0  0  0  2  0  0  0  0  0  0
  188.9640  174.9580  143.1130 C   0  0  1  0  0  3  0  0  0  0  0  0
  184.1600  177.8840  142.5250 C   0  0  0  0  0  0  0  0  0  0  0  0
  183.0400  177.5910  142.0350 O   0  0  0  0  0  0  0  0  0  0  0  0
  187.8920  178.1030  144.4200 N   0  0  0  0  0  2  0  0  0  0  0  0
  188.0980  174.9700  138.5900 O   0  0  0  0  0  0  0  0  0  0  0  0
  187.7710  175.4080  142.2390 C   0  0  1  0  0  3  0  0  0  0  0  0
  185.4830  178.6450  144.5050 C   0  0  2  0  0  3  0  0  0  0  0  0
  186.7620  178.6390  143.6590 C   0  0  2  0  0  3  0  0  0  0  0  0
  186.6160  177.6430  142.5450 C   0  0  1  0  0  3  0  0  0  0  0  0
  188.4880  173.7720  140.4010 C   0  0  0  0  0  0  0  0  0  0  0  0
  188.2210  172.5660  142.6050 C   0  0  0  0  0  2  0  0  0  0  0  0
  188.4270  177.1740  143.7000 C   0  0  2  0  0  3  0  0  0  0  0  0
  184.2480  178.8980  143.6300 C   0  0  0  0  0  2  0  0  0  0  0  0
  188.9650  172.6370  141.2690 C   0  0  0  0  0  2  0  0  0  0  0  0
  187.7960  175.7250  139.6240 C   0  0  0  0  0  0  0  0  0  0  0  0
  188.5210  173.8030  139.0230 C   0  0  0  0  0  0  0  0  0  0  0  0
  187.6760  176.8550  142.5440 C   0  0  1  0  0  3  0  0  0  0  0  0
  188.0440  175.0270  140.8050 C   0  0  0  0  0  0  0  0  0  0  0  0
  189.2030  176.0220  144.2040 C   0  0  2  0  0  3  0  0  0  0  0  0
  190.6750  176.3810  144.2600 C   0  0  0  0  0  1  0  0  0  0  0  0
  188.7740  173.5410  143.6640 C   0  0  1  0  0  3  0  0  0  0  0  0
  190.2490  172.4880  137.9120 C   0  0  0  0  0  3  0  0  0  0  0  0
  188.9600  172.7060  138.1560 C   0  0  0  0  0  3  0  0  0  0  0  0
  190.7430  171.3730  137.0280 C   0  0  1  0  0  0  0  0  0  0  0  0
  191.9610  171.7830  136.4780 O   0  0  0  0  0  1  0  0  0  0  0  0
  190.9940  170.0890  137.8460 C   0  0  2  0  0  3  0  0  0  0  0  0
  189.8430  169.2970  137.8840 O   0  0  0  0  0  1  0  0  0  0  0  0
  191.4620  170.3550  139.2730 C   0  0  0  0  0  1  0  0  0  0  0  0
  190.3450  171.3750  134.6470 O   0  0  0  0  0  1  0  0  0  0  0  0
  189.7580  171.1040  135.8830 C   0  0  0  0  0  2  0  0  0  0  0  0
  187.2810  177.0930  139.5030 C   0  0  0  0  0  3  0  0  0  0  0  0
  186.3040  177.3920  138.6570 C   0  0  0  0  0  2  0  0  0  0  0  0
  185.5620  179.6680  145.6310 C   0  0  0  0  0  2  0  0  0  0  0  0
  185.1990  179.0840  146.8760 O   0  0  0  0  0  0  0  0  0  0  0  0
  187.0610  179.0280  148.3980 O   0  0  0  0  0  1  0  0  0  0  0  0
  186.0930  177.0960  147.6400 O   0  0  0  0  0  0  0  0  0  0  0  0
  186.1130  178.3570  147.6380 C   0  0  0  0  0  0  0  0  0  0  0  0
  190.0910  173.0210  144.2260 C   0  0  0  0  0  2  0  0  0  0  0  0
  191.1740  173.2920  143.2960 N   0  0  0  0  0  2  0  0  0  0  0  0
  193.5560  172.1510  142.3630 O   0  0  0  0  0  0  0  0  0  0  0  0
  191.9380  170.8110  143.9170 O   0  0  0  0  0  1  0  0  0  0  0  0
  192.4900  172.1990  143.6750 P   0  0  2  0  0  0  0  0  0  0  0  0
  193.3890  172.7640  145.1570 C   0  0  0  0  0  2  0  0  0  0  0  0
  195.0540  174.4020  144.8450 C   0  0  0  0  0  2  0  0  0  0  0  0
  193.5950  176.2520  146.4860 C   0  0  0  0  0  2  0  0  0  0  0  0
  194.2430  176.7930  145.2080 C   0  0  0  0  0  2  0  0  0  0  0  0
  195.4000  175.8980  144.7540 C   0  0  0  0  0  2  0  0  0  0  0  0
  193.3010  174.7450  146.4020 C   0  0  0  0  0  2  0  0  0  0  0  0
  193.6240  174.1970  145.0820 N   0  0  0  0  0  0  0  0  0  0  0  0
  1  3  1  0  0  0  0
  1 10  1  0  0  0  0
  2 22  1  0  0  0  0
  2 20  1  0  0  0  0
  3 14  1  0  0  0  0
  4  3  2  0  0  0  0
  6 17  1  0  0  0  0
  6 16  1  0  0  0  0
  7 18  1  0  0  0  0
  7  2  1  0  0  0  0
  8 34  1  0  0  0  0
  9  5  1  0  0  0  0
  9  8  1  0  0  0  0
 10  9  1  0  0  0  0
 11 19  1  0  0  0  0
 11 15  1  0  0  0  0
 12 22  1  0  0  0  0
 13 20  1  0  0  0  0
 13  5  1  0  0  0  0
 14  8  1  0  0  0  0
 15 12  1  0  0  0  0
 16 19  2  0  0  0  0
 17 11  2  0  0  0  0
 18 10  1  0  0  0  0
 18 13  1  0  0  0  0
 19  7  1  0  0  0  0
 20 21  1  0  0  0  0
 22 39  1  0  0  0  0
 23 24  2  0  0  0  0
 24 17  1  0  0  0  0
 25 27  1  0  0  0  0
 25 23  1  0  0  0  0
 26 25  1  0  0  0  0
 27 28  1  0  0  0  0
 27 29  1  0  0  0  0
 30 31  1  0  0  0  0
 31 25  1  0  0  0  0
 32 16  1  0  0  0  0
 33 32  2  0  0  0  0
 34 35  1  0  0  0  0
 35 38  1  0  0  0  0
 38 37  2  0  0  0  0
 38 36  1  0  0  0  0
 40 43  1  0  0  0  0
 40 39  1  0  0  0  0
 41 43  2  0  0  0  0
 43 42  1  0  0  0  0
 43 44  1  0  0  0  0
 45 50  1  0  0  0  0
 47 46  1  0  0  0  0
 48 45  1  0  0  0  0
 48 47  1  0  0  0  0
 49 46  1  0  0  0  0
 50 44  1  0  0  0  0
 50 49  1  0  0  0  0
M  END
>  <MODEL>
5

>  <REMARK>
 VINA RESULT:      -5.2      2.937      8.749
  Name = 
  13 active torsions:
  status: ('A' for Active; 'I' for Inactive)
    1  A    between atoms: C_1  and  C_12
    2  A    between atoms: C_1  and  C_13
    3  A    between atoms: C_1  and  C_19
    4  A    between atoms: O_8  and  C_37
    5  A    between atoms: O_8  and  C_38
    6  A    between atoms: C_15  and  N_48
    7  A    between atoms: C_15  and  P_49
    8  A    between atoms: C_17  and  C_37
    9  A    between atoms: C_20  and  C_40
   10  A    between atoms: N_23  and  C_47
   11  A    between atoms: N_23  and  P_49
   12  A    between atoms: C_29  and  C_39
   13  A    between atoms: C_45  and  C_47
                            x       y       z     vdW  Elec       q    Type
                         _______ _______ _______ _____ _____    ______ ____

>  <TORSDO>
F 13

$$$$
=
 OpenBabel11042415533D

 50 55  0  0  1  0  0  0  0  0999 V2000
  189.5070  176.2250  143.4460 N   0  0  0  0  0  2  0  0  0  0  0  0
  190.9150  173.3990  140.3300 C   0  0  1  0  0  3  0  0  0  0  0  0
  189.0080  177.5470  143.6690 C   0  0  0  0  0  0  0  0  0  0  0  0
  189.5760  178.2970  144.5020 O   0  0  0  0  0  0  0  0  0  0  0  0
  187.7930  175.1250  140.4710 N   0  0  0  0  0  2  0  0  0  0  0  0
  191.9660  172.0850  144.6170 O   0  0  0  0  0  0  0  0  0  0  0  0
  190.8560  174.0790  141.7170 C   0  0  1  0  0  3  0  0  0  0  0  0
  187.6520  177.3290  141.5800 C   0  0  2  0  0  3  0  0  0  0  0  0
  187.6170  175.8060  141.7550 C   0  0  2  0  0  3  0  0  0  0  0  0
  188.8290  175.3670  142.5260 C   0  0  1  0  0  3  0  0  0  0  0  0
  192.6890  172.5070  142.5760 C   0  0  0  0  0  0  0  0  0  0  0  0
  193.4490  173.6910  140.4780 C   0  0  0  0  0  2  0  0  0  0  0  0
  188.7460  174.2680  140.6230 C   0  0  2  0  0  3  0  0  0  0  0  0
  187.7910  178.0340  142.9350 C   0  0  0  0  0  2  0  0  0  0  0  0
  193.5290  172.4200  141.3280 C   0  0  0  0  0  2  0  0  0  0  0  0
  191.0770  172.8700  144.0470 C   0  0  0  0  0  0  0  0  0  0  0  0
  192.9330  171.8440  143.7600 C   0  0  0  0  0  0  0  0  0  0  0  0
  189.4140  174.3840  141.8660 C   0  0  1  0  0  3  0  0  0  0  0  0
  191.4700  173.1560  142.7410 C   0  0  0  0  0  0  0  0  0  0  0  0
  189.6270  173.7490  139.5560 C   0  0  2  0  0  3  0  0  0  0  0  0
  189.0250  172.4910  138.9630 C   0  0  0  0  0  1  0  0  0  0  0  0
  192.2020  173.7420  139.5730 C   0  0  1  0  0  3  0  0  0  0  0  0
  194.6260  170.9230  145.2550 C   0  0  0  0  0  3  0  0  0  0  0  0
  194.0950  170.9960  144.0380 C   0  0  0  0  0  3  0  0  0  0  0  0
  195.8200  170.0660  145.5840 C   0  0  1  0  0  0  0  0  0  0  0  0
  195.9660  169.1370  144.5520 O   0  0  0  0  0  1  0  0  0  0  0  0
  197.1070  170.9150  145.6520 C   0  0  2  0  0  3  0  0  0  0  0  0
  196.8210  172.2060  146.1030 O   0  0  0  0  0  1  0  0  0  0  0  0
  197.8510  171.0050  144.3230 C   0  0  0  0  0  1  0  0  0  0  0  0
  194.6310  168.3140  146.7450 O   0  0  0  0  0  1  0  0  0  0  0  0
  195.6030  169.3040  146.8980 C   0  0  0  0  0  2  0  0  0  0  0  0
  189.8670  173.3470  144.7260 C   0  0  0  0  0  3  0  0  0  0  0  0
  189.9290  173.9720  145.8940 C   0  0  0  0  0  2  0  0  0  0  0  0
  186.4230  177.8340  140.8340 C   0  0  0  0  0  2  0  0  0  0  0  0
  185.6200  178.6530  141.6740 O   0  0  0  0  0  0  0  0  0  0  0  0
  184.0740  177.9370  143.3720 O   0  0  0  0  0  1  0  0  0  0  0  0
  183.3990  178.2270  141.2040 O   0  0  0  0  0  0  0  0  0  0  0  0
  184.3310  178.2730  142.0510 C   0  0  0  0  0  0  0  0  0  0  0  0
  192.3710  172.8050  138.3840 C   0  0  0  0  0  2  0  0  0  0  0  0
  192.7740  173.5580  137.2070 N   0  0  0  0  0  2  0  0  0  0  0  0
  193.0670  172.6450  134.5760 O   0  0  0  0  0  0  0  0  0  0  0  0
  193.4330  171.0410  136.6050 O   0  0  0  0  0  1  0  0  0  0  0  0
  193.6520  172.4680  136.1520 P   0  0  2  0  0  0  0  0  0  0  0  0
  195.4350  172.8480  136.1760 C   0  0  0  0  0  2  0  0  0  0  0  0
  196.7540  174.5580  137.1200 C   0  0  0  0  0  2  0  0  0  0  0  0
  196.9850  173.0790  139.5690 C   0  0  0  0  0  2  0  0  0  0  0  0
  196.7480  174.5870  139.6700 C   0  0  0  0  0  2  0  0  0  0  0  0
  197.1930  175.3040  138.3910 C   0  0  0  0  0  2  0  0  0  0  0  0
  196.4710  172.4910  138.2440 C   0  0  0  0  0  2  0  0  0  0  0  0
  195.7910  173.4980  137.4270 N   0  0  0  0  0  0  0  0  0  0  0  0
  1  3  1  0  0  0  0
  2  7  1  0  0  0  0
  3  4  2  0  0  0  0
  5 13  1  0  0  0  0
  5  9  1  0  0  0  0
  7 18  1  0  0  0  0
  7 19  1  0  0  0  0
  8  9  1  0  0  0  0
  8 14  1  0  0  0  0
  9 10  1  0  0  0  0
 10  1  1  0  0  0  0
 11 19  1  0  0  0  0
 11 17  2  0  0  0  0
 12 15  1  0  0  0  0
 13 18  1  0  0  0  0
 14  3  1  0  0  0  0
 15 11  1  0  0  0  0
 16  6  1  0  0  0  0
 16 32  1  0  0  0  0
 17 24  1  0  0  0  0
 17  6  1  0  0  0  0
 18 10  1  0  0  0  0
 19 16  2  0  0  0  0
 20  2  1  0  0  0  0
 20 13  1  0  0  0  0
 21 20  1  0  0  0  0
 22  2  1  0  0  0  0
 22 12  1  0  0  0  0
 23 25  1  0  0  0  0
 24 23  2  0  0  0  0
 25 27  1  0  0  0  0
 25 31  1  0  0  0  0
 26 25  1  0  0  0  0
 27 28  1  0  0  0  0
 29 27  1  0  0  0  0
 30 31  1  0  0  0  0
 32 33  2  0  0  0  0
 34  8  1  0  0  0  0
 34 35  1  0  0  0  0
 35 38  1  0  0  0  0
 37 38  2  0  0  0  0
 38 36  1  0  0  0  0
 39 22  1  0  0  0  0
 40 39  1  0  0  0  0
 41 43  2  0  0  0  0
 43 44  1  0  0  0  0
 43 42  1  0  0  0  0
 43 40  1  0  0  0  0
 44 50  1  0  0  0  0
 45 50  1  0  0  0  0
 45 48  1  0  0  0  0
 46 47  1  0  0  0  0
 48 47  1  0  0  0  0
 49 46  1  0  0  0  0
 50 49  1  0  0  0  0
M  END
>  <MODEL>
6

>  <REMARK>
 VINA RESULT:      -5.1      2.964      8.771
  Name = 
  13 active torsions:
  status: ('A' for Active; 'I' for Inactive)
    1  A    between atoms: C_1  and  C_12
    2  A    between atoms: C_1  and  C_13
    3  A    between atoms: C_1  and  C_19
    4  A    between atoms: O_8  and  C_37
    5  A    between atoms: O_8  and  C_38
    6  A    between atoms: C_15  and  N_48
    7  A    between atoms: C_15  and  P_49
    8  A    between atoms: C_17  and  C_37
    9  A    between atoms: C_20  and  C_40
   10  A    between atoms: N_23  and  C_47
   11  A    between atoms: N_23  and  P_49
   12  A    between atoms: C_29  and  C_39
   13  A    between atoms: C_45  and  C_47
                            x       y       z     vdW  Elec       q    Type
                         _______ _______ _______ _____ _____    ______ ____

>  <TORSDO>
F 13

$$$$
=
 OpenBabel11042415533D

 50 55  0  0  1  0  0  0  0  0999 V2000
  190.8470  172.8660  137.1820 N   0  0  0  0  0  2  0  0  0  0  0  0
  191.3470  171.5660  141.3930 C   0  0  1  0  0  3  0  0  0  0  0  0
  191.4220  172.7990  135.8740 C   0  0  0  0  0  0  0  0  0  0  0  0
  191.6630  173.8590  135.2420 O   0  0  0  0  0  0  0  0  0  0  0  0
  191.1980  169.5180  138.4720 N   0  0  0  0  0  2  0  0  0  0  0  0
  188.2740  174.9550  140.8670 O   0  0  0  0  0  0  0  0  0  0  0  0
  190.9540  172.5000  140.2260 C   0  0  1  0  0  3  0  0  0  0  0  0
  191.9900  170.4030  136.3050 C   0  0  2  0  0  3  0  0  0  0  0  0
  190.8210  170.2980  137.2920 C   0  0  2  0  0  3  0  0  0  0  0  0
  190.5390  171.6540  137.8740 C   0  0  1  0  0  3  0  0  0  0  0  0
  190.0880  174.2380  141.8980 C   0  0  0  0  0  0  0  0  0  0  0  0
  192.4760  173.6090  142.4320 C   0  0  0  0  0  2  0  0  0  0  0  0
  190.8980  170.2280  139.5080 C   0  0  2  0  0  3  0  0  0  0  0  0
  191.7120  171.4690  135.2380 C   0  0  0  0  0  2  0  0  0  0  0  0
  191.1190  174.0570  142.9820 C   0  0  0  0  0  2  0  0  0  0  0  0
  188.8030  174.0160  140.1110 C   0  0  0  0  0  0  0  0  0  0  0  0
  189.0140  175.1030  141.9430 C   0  0  0  0  0  0  0  0  0  0  0  0
  190.4950  171.5470  139.1890 C   0  0  1  0  0  3  0  0  0  0  0  0
  189.9460  173.5070  140.7240 C   0  0  0  0  0  0  0  0  0  0  0  0
  191.5380  170.1390  140.8370 C   0  0  2  0  0  3  0  0  0  0  0  0
  190.7890  169.1440  141.7010 C   0  0  0  0  0  1  0  0  0  0  0  0
  192.5570  172.0910  142.1720 C   0  0  1  0  0  3  0  0  0  0  0  0
  187.5300  176.1110  143.5940 C   0  0  0  0  0  3  0  0  0  0  0  0
  188.7290  176.0520  143.0220 C   0  0  0  0  0  3  0  0  0  0  0  0
  187.1930  177.0710  144.7050 C   0  0  1  0  0  0  0  0  0  0  0  0
  188.0280  178.1820  144.5660 O   0  0  0  0  0  1  0  0  0  0  0  0
  185.7310  177.5530  144.5930 C   0  0  2  0  0  3  0  0  0  0  0  0
  185.2620  177.4010  143.2850 O   0  0  0  0  0  1  0  0  0  0  0  0
  185.5280  179.0010  145.0290 C   0  0  0  0  0  1  0  0  0  0  0  0
  188.6440  176.9060  146.6270 O   0  0  0  0  0  1  0  0  0  0  0  0
  187.4510  176.4350  146.0770 C   0  0  0  0  0  2  0  0  0  0  0  0
  188.2360  173.6010  138.8240 C   0  0  0  0  0  3  0  0  0  0  0  0
  187.8270  174.4900  137.9280 C   0  0  0  0  0  2  0  0  0  0  0  0
  192.2950  169.0590  135.6550 C   0  0  0  0  0  2  0  0  0  0  0  0
  193.5270  168.5320  136.1300 O   0  0  0  0  0  0  0  0  0  0  0  0
  195.2100  169.8310  135.0040 O   0  0  0  0  0  0  0  0  0  0  0  0
  195.2640  169.5380  137.2740 O   0  0  0  0  0  1  0  0  0  0  0  0
  194.6850  169.3090  136.1780 C   0  0  0  0  0  0  0  0  0  0  0  0
  192.6980  171.3350  143.4870 C   0  0  0  0  0  2  0  0  0  0  0  0
  194.0390  170.7880  143.6080 N   0  0  0  0  0  2  0  0  0  0  0  0
  195.3280  170.3500  146.0560 O   0  0  0  0  0  1  0  0  0  0  0  0
  193.8010  172.4380  145.6930 O   0  0  0  0  0  0  0  0  0  0  0  0
  194.8030  171.5520  144.9880 P   0  0  2  0  0  0  0  0  0  0  0  0
  196.2350  172.5490  144.4600 C   0  0  0  0  0  2  0  0  0  0  0  0
  196.2960  173.8150  142.4730 C   0  0  0  0  0  2  0  0  0  0  0  0
  196.0850  176.2530  143.9760 C   0  0  0  0  0  2  0  0  0  0  0  0
  195.2650  176.1380  142.6880 C   0  0  0  0  0  2  0  0  0  0  0  0
  195.8670  175.0970  141.7400 C   0  0  0  0  0  2  0  0  0  0  0  0
  196.4120  174.8800  144.5870 C   0  0  0  0  0  2  0  0  0  0  0  0
  195.7820  173.7860  143.8440 N   0  0  0  0  0  0  0  0  0  0  0  0
  1 10  1  0  0  0  0
  2 22  1  0  0  0  0
  3  1  1  0  0  0  0
  4  3  2  0  0  0  0
  5 13  1  0  0  0  0
  6 17  1  0  0  0  0
  7 19  1  0  0  0  0
  7  2  1  0  0  0  0
  8  9  1  0  0  0  0
  9 10  1  0  0  0  0
  9  5  1  0  0  0  0
 10 18  1  0  0  0  0
 11 17  2  0  0  0  0
 11 15  1  0  0  0  0
 12 15  1  0  0  0  0
 13 20  1  0  0  0  0
 14  3  1  0  0  0  0
 14  8  1  0  0  0  0
 16 19  2  0  0  0  0
 16  6  1  0  0  0  0
 17 24  1  0  0  0  0
 18 13  1  0  0  0  0
 18  7  1  0  0  0  0
 19 11  1  0  0  0  0
 20  2  1  0  0  0  0
 20 21  1  0  0  0  0
 22 12  1  0  0  0  0
 22 39  1  0  0  0  0
 23 25  1  0  0  0  0
 24 23  2  0  0  0  0
 25 31  1  0  0  0  0
 26 25  1  0  0  0  0
 27 25  1  0  0  0  0
 27 29  1  0  0  0  0
 28 27  1  0  0  0  0
 31 30  1  0  0  0  0
 32 16  1  0  0  0  0
 33 32  2  0  0  0  0
 34 35  1  0  0  0  0
 34  8  1  0  0  0  0
 35 38  1  0  0  0  0
 36 38  2  0  0  0  0
 38 37  1  0  0  0  0
 39 40  1  0  0  0  0
 40 43  1  0  0  0  0
 43 42  2  0  0  0  0
 43 41  1  0  0  0  0
 44 43  1  0  0  0  0
 45 50  1  0  0  0  0
 46 49  1  0  0  0  0
 47 46  1  0  0  0  0
 48 45  1  0  0  0  0
 48 47  1  0  0  0  0
 50 44  1  0  0  0  0
 50 49  1  0  0  0  0
M  END
>  <MODEL>
7

>  <REMARK>
 VINA RESULT:      -5.1      1.940      2.649
  Name = 
  13 active torsions:
  status: ('A' for Active; 'I' for Inactive)
    1  A    between atoms: C_1  and  C_12
    2  A    between atoms: C_1  and  C_13
    3  A    between atoms: C_1  and  C_19
    4  A    between atoms: O_8  and  C_37
    5  A    between atoms: O_8  and  C_38
    6  A    between atoms: C_15  and  N_48
    7  A    between atoms: C_15  and  P_49
    8  A    between atoms: C_17  and  C_37
    9  A    between atoms: C_20  and  C_40
   10  A    between atoms: N_23  and  C_47
   11  A    between atoms: N_23  and  P_49
   12  A    between atoms: C_29  and  C_39
   13  A    between atoms: C_45  and  C_47
                            x       y       z     vdW  Elec       q    Type
                         _______ _______ _______ _____ _____    ______ ____

>  <TORSDO>
F 13

$$$$
=
 OpenBabel11042415533D

 50 55  0  0  1  0  0  0  0  0999 V2000
  192.3860  173.2070  136.7140 N   0  0  0  0  0  2  0  0  0  0  0  0
  192.6640  172.6440  141.1050 C   0  0  1  0  0  3  0  0  0  0  0  0
  193.1530  173.3840  135.5190 C   0  0  0  0  0  0  0  0  0  0  0  0
  192.9210  174.3640  134.7670 O   0  0  0  0  0  0  0  0  0  0  0  0
  194.1800  170.6700  138.5440 N   0  0  0  0  0  2  0  0  0  0  0  0
  188.4430  173.7840  139.6600 O   0  0  0  0  0  0  0  0  0  0  0  0
  192.0760  173.1430  139.7660 C   0  0  1  0  0  3  0  0  0  0  0  0
  194.7940  171.7110  136.3880 C   0  0  2  0  0  3  0  0  0  0  0  0
  193.6870  171.0480  137.2180 C   0  0  2  0  0  3  0  0  0  0  0  0
  192.6310  172.0670  137.5400 C   0  0  1  0  0  3  0  0  0  0  0  0
  190.1230  174.2300  141.0190 C   0  0  0  0  0  0  0  0  0  0  0  0
  192.3300  175.0310  141.9520 C   0  0  0  0  0  2  0  0  0  0  0  0
  193.3590  171.1660  139.4090 C   0  0  2  0  0  3  0  0  0  0  0  0
  194.2130  172.3890  135.1410 C   0  0  0  0  0  2  0  0  0  0  0  0
  190.8630  174.7040  142.2430 C   0  0  0  0  0  2  0  0  0  0  0  0
  189.5200  173.2390  139.1350 C   0  0  0  0  0  0  0  0  0  0  0  0
  188.7710  174.3750  140.7870 C   0  0  0  0  0  0  0  0  0  0  0  0
  192.3960  172.0320  138.8380 C   0  0  1  0  0  3  0  0  0  0  0  0
  190.6160  173.4700  139.9650 C   0  0  0  0  0  0  0  0  0  0  0  0
  193.6780  171.5190  140.8070 C   0  0  2  0  0  3  0  0  0  0  0  0
  193.4090  170.3310  141.7100 C   0  0  0  0  0  1  0  0  0  0  0  0
  193.2420  173.7890  141.9440 C   0  0  1  0  0  3  0  0  0  0  0  0
  187.5140  176.3560  141.4530 C   0  0  0  0  0  3  0  0  0  0  0  0
  187.8280  175.0800  141.6590 C   0  0  0  0  0  3  0  0  0  0  0  0
  186.5510  177.1190  142.3240 C   0  0  1  0  0  0  0  0  0  0  0  0
  185.9400  176.1990  143.1800 O   0  0  0  0  0  1  0  0  0  0  0  0
  187.2950  178.1580  143.1900 C   0  0  2  0  0  3  0  0  0  0  0  0
  188.6580  177.8570  143.2570 O   0  0  0  0  0  1  0  0  0  0  0  0
  186.7430  178.2820  144.6070 C   0  0  0  0  0  1  0  0  0  0  0  0
  185.8020  177.7770  140.1260 O   0  0  0  0  0  1  0  0  0  0  0  0
  185.4640  177.7950  141.4790 C   0  0  0  0  0  2  0  0  0  0  0  0
  189.5170  172.5050  137.8650 C   0  0  0  0  0  3  0  0  0  0  0  0
  188.9390  173.0020  136.7800 C   0  0  0  0  0  2  0  0  0  0  0  0
  195.8770  170.7110  136.0010 C   0  0  0  0  0  2  0  0  0  0  0  0
  197.0920  170.9860  136.6850 O   0  0  0  0  0  0  0  0  0  0  0  0
  197.9390  173.1010  135.9110 O   0  0  0  0  0  0  0  0  0  0  0  0
  197.4850  172.7480  138.1270 O   0  0  0  0  0  1  0  0  0  0  0  0
  197.5020  172.2930  136.9520 C   0  0  0  0  0  0  0  0  0  0  0  0
  193.5000  173.3110  143.3680 C   0  0  0  0  0  2  0  0  0  0  0  0
  194.7240  173.9030  143.8800 N   0  0  0  0  0  2  0  0  0  0  0  0
  193.9990  176.4710  144.7280 O   0  0  0  0  0  0  0  0  0  0  0  0
  195.4520  174.9140  146.2410 O   0  0  0  0  0  1  0  0  0  0  0  0
  194.3000  174.8950  145.2610 P   0  0  2  0  0  0  0  0  0  0  0  0
  192.8090  174.2470  146.0840 C   0  0  0  0  0  2  0  0  0  0  0  0
  191.7470  175.8100  147.4920 C   0  0  0  0  0  2  0  0  0  0  0  0
  189.3100  175.5600  145.9950 C   0  0  0  0  0  2  0  0  0  0  0  0
  189.7340  176.9630  146.4330 C   0  0  0  0  0  2  0  0  0  0  0  0
  190.6770  176.9050  147.6380 C   0  0  0  0  0  2  0  0  0  0  0  0
  190.5020  174.5950  145.8820 C   0  0  0  0  0  2  0  0  0  0  0  0
  191.7780  175.2710  146.1310 N   0  0  0  0  0  0  0  0  0  0  0  0
  1 10  1  0  0  0  0
  2 22  1  0  0  0  0
  3  1  1  0  0  0  0
  4  3  2  0  0  0  0
  5 13  1  0  0  0  0
  6 17  1  0  0  0  0
  7 19  1  0  0  0  0
  7  2  1  0  0  0  0
  8  9  1  0  0  0  0
  9 10  1  0  0  0  0
  9  5  1  0  0  0  0
 10 18  1  0  0  0  0
 11 15  1  0  0  0  0
 12 15  1  0  0  0  0
 13 20  1  0  0  0  0
 14  3  1  0  0  0  0
 14  8  1  0  0  0  0
 16  6  1  0  0  0  0
 16 19  2  0  0  0  0
 17 11  2  0  0  0  0
 17 24  1  0  0  0  0
 18 13  1  0  0  0  0
 18  7  1  0  0  0  0
 19 11  1  0  0  0  0
 20  2  1  0  0  0  0
 20 21  1  0  0  0  0
 22 12  1  0  0  0  0
 22 39  1  0  0  0  0
 23 24  2  0  0  0  0
 23 25  1  0  0  0  0
 25 26  1  0  0  0  0
 25 27  1  0  0  0  0
 27 28  1  0  0  0  0
 27 29  1  0  0  0  0
 30 31  1  0  0  0  0
 31 25  1  0  0  0  0
 32 16  1  0  0  0  0
 33 32  2  0  0  0  0
 34  8  1  0  0  0  0
 34 35  1  0  0  0  0
 35 38  1  0  0  0  0
 36 38  2  0  0  0  0
 38 37  1  0  0  0  0
 39 40  1  0  0  0  0
 40 43  1  0  0  0  0
 41 43  2  0  0  0  0
 43 44  1  0  0  0  0
 43 42  1  0  0  0  0
 44 50  1  0  0  0  0
 45 48  1  0  0  0  0
 46 47  1  0  0  0  0
 47 48  1  0  0  0  0
 49 46  1  0  0  0  0
 49 50  1  0  0  0  0
 50 45  1  0  0  0  0
M  END
>  <MODEL>
8

>  <REMARK>
 VINA RESULT:      -5.1      2.143      3.791
  Name = 
  13 active torsions:
  status: ('A' for Active; 'I' for Inactive)
    1  A    between atoms: C_1  and  C_12
    2  A    between atoms: C_1  and  C_13
    3  A    between atoms: C_1  and  C_19
    4  A    between atoms: O_8  and  C_37
    5  A    between atoms: O_8  and  C_38
    6  A    between atoms: C_15  and  N_48
    7  A    between atoms: C_15  and  P_49
    8  A    between atoms: C_17  and  C_37
    9  A    between atoms: C_20  and  C_40
   10  A    between atoms: N_23  and  C_47
   11  A    between atoms: N_23  and  P_49
   12  A    between atoms: C_29  and  C_39
   13  A    between atoms: C_45  and  C_47
                            x       y       z     vdW  Elec       q    Type
                         _______ _______ _______ _____ _____    ______ ____

>  <TORSDO>
F 13

$$$$
=
 OpenBabel11042415533D

 50 55  0  0  1  0  0  0  0  0999 V2000
  190.1100  176.1960  143.6800 N   0  0  0  0  0  2  0  0  0  0  0  0
  191.8130  173.4100  140.6780 C   0  0  1  0  0  3  0  0  0  0  0  0
  189.5030  177.4800  143.8540 C   0  0  0  0  0  0  0  0  0  0  0  0
  189.9880  178.2940  144.6790 O   0  0  0  0  0  0  0  0  0  0  0  0
  188.5620  174.8870  140.6980 N   0  0  0  0  0  2  0  0  0  0  0  0
  192.8550  172.2950  145.0240 O   0  0  0  0  0  0  0  0  0  0  0  0
  191.6660  174.1190  142.0440 C   0  0  1  0  0  3  0  0  0  0  0  0
  188.2210  177.1010  141.7410 C   0  0  2  0  0  3  0  0  0  0  0  0
  188.3010  175.5850  141.9580 C   0  0  2  0  0  3  0  0  0  0  0  0
  189.5240  175.2640  142.7690 C   0  0  1  0  0  3  0  0  0  0  0  0
  193.5940  172.7200  142.9880 C   0  0  0  0  0  0  0  0  0  0  0  0
  194.3120  173.9050  140.8760 C   0  0  0  0  0  2  0  0  0  0  0  0
  189.5760  174.1130  140.8970 C   0  0  2  0  0  3  0  0  0  0  0  0
  188.2700  177.8500  143.0790 C   0  0  0  0  0  2  0  0  0  0  0  0
  194.4690  172.6680  141.7630 C   0  0  0  0  0  2  0  0  0  0  0  0
  191.9220  172.9930  144.4110 C   0  0  0  0  0  0  0  0  0  0  0  0
  193.8590  172.1100  144.1970 C   0  0  0  0  0  0  0  0  0  0  0  0
  190.2010  174.3130  142.1510 C   0  0  1  0  0  3  0  0  0  0  0  0
  192.3240  173.2750  143.1070 C   0  0  0  0  0  0  0  0  0  0  0  0
  190.5210  173.6370  139.8650 C   0  0  2  0  0  3  0  0  0  0  0  0
  190.0350  172.3200  139.2930 C   0  0  0  0  0  1  0  0  0  0  0  0
  193.0880  173.8340  139.9420 C   0  0  1  0  0  3  0  0  0  0  0  0
  195.0220  170.1590  145.0860 C   0  0  0  0  0  3  0  0  0  0  0  0
  195.0770  171.3640  144.5250 C   0  0  0  0  0  3  0  0  0  0  0  0
  196.2470  169.3580  145.4400 C   0  0  1  0  0  0  0  0  0  0  0  0
  197.2720  170.2640  145.7240 O   0  0  0  0  0  1  0  0  0  0  0  0
  196.0010  168.5020  146.7000 C   0  0  2  0  0  3  0  0  0  0  0  0
  194.8510  168.9310  147.3690 O   0  0  0  0  0  1  0  0  0  0  0  0
  197.1720  168.5000  147.6770 C   0  0  0  0  0  1  0  0  0  0  0  0
  197.5510  169.1730  143.4170 O   0  0  0  0  0  1  0  0  0  0  0  0
  196.6870  168.4780  144.2630 C   0  0  0  0  0  2  0  0  0  0  0  0
  190.6610  173.3900  145.0480 C   0  0  0  0  0  3  0  0  0  0  0  0
  189.6840  172.5170  145.2520 C   0  0  0  0  0  2  0  0  0  0  0  0
  186.9760  177.4880  140.9540 C   0  0  0  0  0  2  0  0  0  0  0  0
  185.7960  177.1820  141.6850 O   0  0  0  0  0  0  0  0  0  0  0  0
  184.2770  178.6290  140.5070 O   0  0  0  0  0  0  0  0  0  0  0  0
  184.0800  178.2900  142.7630 O   0  0  0  0  0  1  0  0  0  0  0  0
  184.6960  178.0400  141.6920 C   0  0  0  0  0  0  0  0  0  0  0  0
  193.3600  172.8830  138.7830 C   0  0  0  0  0  2  0  0  0  0  0  0
  193.6840  173.6360  137.5830 N   0  0  0  0  0  2  0  0  0  0  0  0
  195.4050  171.4280  137.5040 O   0  0  0  0  0  1  0  0  0  0  0  0
  195.7050  173.4290  135.8510 O   0  0  0  0  0  0  0  0  0  0  0  0
  194.6490  172.6010  136.5490 P   0  0  2  0  0  0  0  0  0  0  0  0
  193.6000  171.7770  135.3060 C   0  0  0  0  0  2  0  0  0  0  0  0
  192.6220  169.6400  135.4770 C   0  0  0  0  0  2  0  0  0  0  0  0
  190.0700  170.8130  136.0720 C   0  0  0  0  0  2  0  0  0  0  0  0
  190.4900  169.5800  136.8750 C   0  0  0  0  0  2  0  0  0  0  0  0
  191.5380  168.7580  136.1200 C   0  0  0  0  0  2  0  0  0  0  0  0
  191.2760  171.5890  135.5150 C   0  0  0  0  0  2  0  0  0  0  0  0
  192.5480  171.0180  135.9640 N   0  0  0  0  0  0  0  0  0  0  0  0
  1  3  1  0  0  0  0
  2  7  1  0  0  0  0
  3  4  2  0  0  0  0
  5 13  1  0  0  0  0
  5  9  1  0  0  0  0
  7 18  1  0  0  0  0
  7 19  1  0  0  0  0
  8  9  1  0  0  0  0
  8 14  1  0  0  0  0
  9 10  1  0  0  0  0
 10  1  1  0  0  0  0
 11 19  1  0  0  0  0
 11 17  2  0  0  0  0
 12 15  1  0  0  0  0
 13 18  1  0  0  0  0
 14  3  1  0  0  0  0
 15 11  1  0  0  0  0
 16  6  1  0  0  0  0
 16 32  1  0  0  0  0
 17 24  1  0  0  0  0
 17  6  1  0  0  0  0
 18 10  1  0  0  0  0
 19 16  2  0  0  0  0
 20  2  1  0  0  0  0
 20 13  1  0  0  0  0
 21 20  1  0  0  0  0
 22  2  1  0  0  0  0
 22 12  1  0  0  0  0
 23 25  1  0  0  0  0
 24 23  2  0  0  0  0
 25 26  1  0  0  0  0
 25 27  1  0  0  0  0
 27 28  1  0  0  0  0
 27 29  1  0  0  0  0
 30 31  1  0  0  0  0
 31 25  1  0  0  0  0
 32 33  2  0  0  0  0
 34 35  1  0  0  0  0
 34  8  1  0  0  0  0
 35 38  1  0  0  0  0
 36 38  2  0  0  0  0
 38 37  1  0  0  0  0
 39 22  1  0  0  0  0
 40 39  1  0  0  0  0
 42 43  2  0  0  0  0
 43 41  1  0  0  0  0
 43 40  1  0  0  0  0
 44 50  1  0  0  0  0
 44 43  1  0  0  0  0
 45 50  1  0  0  0  0
 45 48  1  0  0  0  0
 46 47  1  0  0  0  0
 48 47  1  0  0  0  0
 49 50  1  0  0  0  0
 49 46  1  0  0  0  0
M  END
>  <MODEL>
9

>  <REMARK>
 VINA RESULT:      -5.0      3.107      9.246
  Name = 
  13 active torsions:
  status: ('A' for Active; 'I' for Inactive)
    1  A    between atoms: C_1  and  C_12
    2  A    between atoms: C_1  and  C_13
    3  A    between atoms: C_1  and  C_19
    4  A    between atoms: O_8  and  C_37
    5  A    between atoms: O_8  and  C_38
    6  A    between atoms: C_15  and  N_48
    7  A    between atoms: C_15  and  P_49
    8  A    between atoms: C_17  and  C_37
    9  A    between atoms: C_20  and  C_40
   10  A    between atoms: N_23  and  C_47
   11  A    between atoms: N_23  and  P_49
   12  A    between atoms: C_29  and  C_39
   13  A    between atoms: C_45  and  C_47
                            x       y       z     vdW  Elec       q    Type
                         _______ _______ _______ _____ _____    ______ ____

>  <TORSDO>
F 13

$$$$
