=
 OpenBabel11042413373D

 42 44  0  0  1  0  0  0  0  0999 V2000
  189.8350  174.8250  143.5340 C   0  0  2  0  0  3  0  0  0  0  0  0
  190.3470  175.0790  144.9220 C   0  0  0  0  0  0  0  0  0  0  0  0
  192.1160  175.7670  146.4440 C   0  0  0  0  0  0  0  0  0  0  0  0
  191.2650  175.5080  147.5320 C   0  0  0  0  0  3  0  0  0  0  0  0
  191.6500  175.5490  145.1440 C   0  0  0  0  0  3  0  0  0  0  0  0
  189.9680  175.0360  147.3150 C   0  0  0  0  0  3  0  0  0  0  0  0
  189.5110  174.8210  146.0120 C   0  0  0  0  0  3  0  0  0  0  0  0
  193.4210  176.2370  146.6250 O   0  0  0  0  0  0  0  0  0  0  0  0
  195.5010  174.8060  146.1080 C   0  0  0  0  0  0  0  0  0  0  0  0
  194.5270  175.4760  146.3490 C   0  0  0  0  0  0  0  0  0  0  0  0
  196.9250  173.8290  145.7580 S   0  0  0  0  0  0  0  0  0  0  0  0
  196.1110  173.0390  144.3400 C   0  0  0  0  0  2  0  0  0  0  0  0
  196.6560  173.5950  143.0650 C   0  0  0  0  0  0  0  0  0  0  0  0
  196.6930  172.8580  142.0450 O   0  0  0  0  0  0  0  0  0  0  0  0
  197.1140  174.9160  142.9680 O   0  0  0  0  0  0  0  0  0  0  0  0
  196.8240  177.1670  143.4670 O   0  0  0  0  0  1  0  0  0  0  0  0
  196.2720  176.0610  142.8160 C   0  0  1  0  0  3  0  0  0  0  0  0
  195.9930  176.3500  141.3710 C   0  0  0  0  0  0  0  0  0  0  0  0
  196.9590  176.0670  140.4140 O   0  0  0  0  0  0  0  0  0  0  0  0
  194.8860  176.8330  141.0120 O   0  0  0  0  0  1  0  0  0  0  0  0
  187.0010  177.2120  141.3060 C   0  0  2  0  0  3  0  0  0  0  0  0
  186.4250  176.2010  142.2960 C   0  0  0  0  0  2  0  0  0  0  0  0
  188.2930  177.7950  141.8750 C   0  0  0  0  0  2  0  0  0  0  0  0
  189.2680  176.7300  142.0960 N   0  0  0  0  0  2  0  0  0  0  0  0
  187.4690  175.1430  142.6370 C   0  0  0  0  0  2  0  0  0  0  0  0
  188.7520  175.8280  143.1260 C   0  0  1  0  0  3  0  0  0  0  0  0
  186.0470  178.2830  141.0770 N   0  0  0  0  0  2  0  0  0  0  0  0
  184.3860  178.5750  142.7300 C   0  0  0  0  0  0  0  0  0  0  0  0
  184.7030  178.1720  141.5320 C   0  0  0  0  0  3  0  0  0  0  0  0
  184.0700  178.9780  143.9280 C   0  0  0  0  0  3  0  0  0  0  0  0
  185.0300  179.8030  144.7120 C   0  0  0  0  0  2  0  0  0  0  0  0
  185.1270  176.8040  146.6250 C   0  0  0  0  0  2  0  0  0  0  0  0
  186.5380  176.8930  146.1010 C   0  0  0  0  0  2  0  0  0  0  0  0
  185.5140  179.0440  145.8530 N   0  0  0  0  0  0  0  0  0  0  0  0
  186.6130  178.2190  145.3760 C   0  0  0  0  0  2  0  0  0  0  0  0
  184.4650  178.1060  146.2280 C   0  0  0  0  0  2  0  0  0  0  0  0
  189.4140  173.3700  143.3140 C   0  0  0  0  0  2  0  0  0  0  0  0
  189.2160  173.0690  140.4850 O   0  0  0  0  0  0  0  0  0  0  0  0
  190.2250  172.5680  141.0540 C   0  0  0  0  0  0  0  0  0  0  0  0
  190.3790  172.6770  142.4710 N   0  0  0  0  0  2  0  0  0  0  0  0
  191.7490  172.4530  139.1290 C   0  0  0  0  0  1  0  0  0  0  0  0
  191.1980  171.8990  140.3130 O   0  0  0  0  0  0  0  0  0  0  0  0
  1 37  1  1  0  0  0
  1  2  1  0  0  0  0
  2  5  2  0  0  0  0
  2  7  1  0  0  0  0
  3  8  1  0  0  0  0
  3  4  2  0  0  0  0
  5  3  1  0  0  0  0
  6  4  1  0  0  0  0
  7  6  2  0  0  0  0
  9 10  3  0  0  0  0
 10  8  1  0  0  0  0
 11  9  1  0  0  0  0
 12 11  1  0  0  0  0
 13 12  1  0  0  0  0
 14 13  2  0  0  0  0
 15 13  1  0  0  0  0
 17 15  1  0  0  0  0
 17 16  1  6  0  0  0
 18 17  1  0  0  0  0
 19 18  2  0  0  0  0
 20 18  1  0  0  0  0
 21 27  1  1  0  0  0
 21 23  1  0  0  0  0
 21 22  1  0  0  0  0
 22 25  1  0  0  0  0
 23 24  1  0  0  0  0
 24 26  1  0  0  0  0
 25 26  1  0  0  0  0
 26  1  1  6  0  0  0
 27 29  1  0  0  0  0
 28 30  2  0  0  0  0
 29 28  2  0  0  0  0
 30 31  1  0  0  0  0
 31 34  1  0  0  0  0
 33 32  1  0  0  0  0
 34 36  1  0  0  0  0
 35 34  1  0  0  0  0
 35 33  1  0  0  0  0
 36 32  1  0  0  0  0
 38 39  2  0  0  0  0
 39 40  1  0  0  0  0
 40 37  1  0  0  0  0
 41 42  1  0  0  0  0
 42 39  1  0  0  0  0
M  END
>  <MODEL>
1

>  <REMARK>
 VINA RESULT:      -6.8      0.000      0.000
  Name = 
  17 active torsions:
  status: ('A' for Active; 'I' for Inactive)
    1  A    between atoms: C_4  and  S_42
    2  A    between atoms: O_5  and  C_12
    3  A    between atoms: O_5  and  C_14
    4  A    between atoms: C_6  and  C_8
    5  A    between atoms: C_8  and  C_35
    6  A    between atoms: C_8  and  C_40
    7  A    between atoms: C_9  and  N_16
    8  A    between atoms: N_10  and  C_11
    9  A    between atoms: C_11  and  C_38
   10  A    between atoms: C_13  and  C_32
   11  A    between atoms: C_13  and  O_37
   12  A    between atoms: N_16  and  C_31
   13  A    between atoms: C_18  and  C_26
   14  A    between atoms: C_26  and  O_37
   15  A    between atoms: C_29  and  O_34
   16  A    between atoms: C_32  and  S_42
   17  A    between atoms: C_35  and  N_41
                            x       y       z     vdW  Elec       q    Type
                         _______ _______ _______ _____ _____    ______ ____

>  <TORSDO>
F 17

$$$$
=
 OpenBabel11042413373D

 42 44  0  0  1  0  0  0  0  0999 V2000
  190.0300  174.3650  143.8830 C   0  0  2  0  0  3  0  0  0  0  0  0
  190.5550  174.7590  145.2330 C   0  0  0  0  0  0  0  0  0  0  0  0
  192.3670  175.5010  146.6780 C   0  0  0  0  0  0  0  0  0  0  0  0
  191.4940  175.4540  147.7780 C   0  0  0  0  0  3  0  0  0  0  0  0
  191.8910  175.1510  145.4110 C   0  0  0  0  0  3  0  0  0  0  0  0
  190.1650  175.0600  147.6060 C   0  0  0  0  0  3  0  0  0  0  0  0
  189.6970  174.7120  146.3360 C   0  0  0  0  0  3  0  0  0  0  0  0
  193.7050  175.8860  146.8140 O   0  0  0  0  0  0  0  0  0  0  0  0
  195.2710  176.2200  144.7960 C   0  0  0  0  0  0  0  0  0  0  0  0
  194.5390  176.0640  145.7410 C   0  0  0  0  0  0  0  0  0  0  0  0
  196.3410  176.4450  143.4140 S   0  0  0  0  0  0  0  0  0  0  0  0
  197.2560  174.9240  143.7960 C   0  0  0  0  0  2  0  0  0  0  0  0
  196.8820  173.8480  142.8300 C   0  0  0  0  0  0  0  0  0  0  0  0
  197.4430  173.8180  141.7030 O   0  0  0  0  0  0  0  0  0  0  0  0
  195.9360  172.8630  143.1460 O   0  0  0  0  0  0  0  0  0  0  0  0
  194.0450  172.5550  144.4610 O   0  0  0  0  0  1  0  0  0  0  0  0
  195.4420  172.6010  144.4610 C   0  0  1  0  0  3  0  0  0  0  0  0
  196.0380  171.3490  145.0330 C   0  0  0  0  0  0  0  0  0  0  0  0
  197.3110  171.3840  145.5860 O   0  0  0  0  0  1  0  0  0  0  0  0
  195.3900  170.2680  145.0320 O   0  0  0  0  0  0  0  0  0  0  0  0
  187.7970  176.9970  141.2800 C   0  0  2  0  0  3  0  0  0  0  0  0
  187.0240  175.8500  141.9300 C   0  0  0  0  0  2  0  0  0  0  0  0
  188.8500  177.5130  142.2570 C   0  0  0  0  0  2  0  0  0  0  0  0
  189.7810  176.4420  142.6030 N   0  0  0  0  0  2  0  0  0  0  0  0
  187.9880  174.7700  142.4100 C   0  0  0  0  0  2  0  0  0  0  0  0
  189.0500  175.3990  143.3220 C   0  0  1  0  0  3  0  0  0  0  0  0
  186.8870  178.0750  140.9340 N   0  0  0  0  0  2  0  0  0  0  0  0
  185.0410  178.4140  142.3670 C   0  0  0  0  0  0  0  0  0  0  0  0
  185.4970  177.9800  141.2260 C   0  0  0  0  0  3  0  0  0  0  0  0
  184.5860  178.8490  143.5070 C   0  0  0  0  0  3  0  0  0  0  0  0
  185.4490  179.6900  144.3810 C   0  0  0  0  0  2  0  0  0  0  0  0
  185.0930  176.8360  146.4760 C   0  0  0  0  0  2  0  0  0  0  0  0
  186.5490  176.7670  146.0880 C   0  0  0  0  0  2  0  0  0  0  0  0
  185.7550  178.9750  145.6080 N   0  0  0  0  0  0  0  0  0  0  0  0
  186.8120  178.0270  145.2930 C   0  0  0  0  0  2  0  0  0  0  0  0
  184.5930  178.1590  145.9360 C   0  0  0  0  0  2  0  0  0  0  0  0
  189.4740  172.9390  143.8560 C   0  0  0  0  0  2  0  0  0  0  0  0
  189.7410  171.8540  141.2330 O   0  0  0  0  0  0  0  0  0  0  0  0
  190.5850  171.4930  142.1000 C   0  0  0  0  0  0  0  0  0  0  0  0
  190.5010  171.9950  143.4360 N   0  0  0  0  0  2  0  0  0  0  0  0
  191.3740  169.4790  140.9320 C   0  0  0  0  0  1  0  0  0  0  0  0
  191.6040  170.6010  141.7710 O   0  0  0  0  0  0  0  0  0  0  0  0
  1 37  1  1  0  0  0
  1  2  1  0  0  0  0
  2  5  2  0  0  0  0
  2  7  1  0  0  0  0
  3  8  1  0  0  0  0
  3  4  2  0  0  0  0
  5  3  1  0  0  0  0
  6  4  1  0  0  0  0
  7  6  2  0  0  0  0
  9 10  3  0  0  0  0
 10  8  1  0  0  0  0
 11 12  1  0  0  0  0
 11  9  1  0  0  0  0
 13 15  1  0  0  0  0
 13 12  1  0  0  0  0
 14 13  2  0  0  0  0
 15 17  1  0  0  0  0
 17 16  1  6  0  0  0
 17 18  1  0  0  0  0
 18 19  1  0  0  0  0
 20 18  2  0  0  0  0
 21 27  1  1  0  0  0
 21 22  1  0  0  0  0
 21 23  1  0  0  0  0
 22 25  1  0  0  0  0
 23 24  1  0  0  0  0
 24 26  1  0  0  0  0
 25 26  1  0  0  0  0
 26  1  1  6  0  0  0
 27 29  1  0  0  0  0
 28 30  2  0  0  0  0
 29 28  2  0  0  0  0
 30 31  1  0  0  0  0
 31 34  1  0  0  0  0
 33 32  1  0  0  0  0
 34 36  1  0  0  0  0
 35 34  1  0  0  0  0
 35 33  1  0  0  0  0
 36 32  1  0  0  0  0
 38 39  2  0  0  0  0
 39 40  1  0  0  0  0
 40 37  1  0  0  0  0
 41 42  1  0  0  0  0
 42 39  1  0  0  0  0
M  END
>  <MODEL>
2

>  <REMARK>
 VINA RESULT:      -6.6      1.559      2.453
  Name = 
  17 active torsions:
  status: ('A' for Active; 'I' for Inactive)
    1  A    between atoms: C_4  and  S_42
    2  A    between atoms: O_5  and  C_12
    3  A    between atoms: O_5  and  C_14
    4  A    between atoms: C_6  and  C_8
    5  A    between atoms: C_8  and  C_35
    6  A    between atoms: C_8  and  C_40
    7  A    between atoms: C_9  and  N_16
    8  A    between atoms: N_10  and  C_11
    9  A    between atoms: C_11  and  C_38
   10  A    between atoms: C_13  and  C_32
   11  A    between atoms: C_13  and  O_37
   12  A    between atoms: N_16  and  C_31
   13  A    between atoms: C_18  and  C_26
   14  A    between atoms: C_26  and  O_37
   15  A    between atoms: C_29  and  O_34
   16  A    between atoms: C_32  and  S_42
   17  A    between atoms: C_35  and  N_41
                            x       y       z     vdW  Elec       q    Type
                         _______ _______ _______ _____ _____    ______ ____

>  <TORSDO>
F 17

$$$$
=
 OpenBabel11042413373D

 42 44  0  0  1  0  0  0  0  0999 V2000
  194.9480  175.0320  145.5110 C   0  0  2  0  0  3  0  0  0  0  0  0
  195.2540  173.5630  145.5380 C   0  0  0  0  0  0  0  0  0  0  0  0
  194.5870  171.2440  145.2240 C   0  0  0  0  0  0  0  0  0  0  0  0
  195.8650  170.8320  145.6370 C   0  0  0  0  0  3  0  0  0  0  0  0
  194.2890  172.6100  145.1790 C   0  0  0  0  0  3  0  0  0  0  0  0
  196.8280  171.7780  146.0000 C   0  0  0  0  0  3  0  0  0  0  0  0
  196.5220  173.1400  145.9510 C   0  0  0  0  0  3  0  0  0  0  0  0
  193.5980  170.3250  144.8580 O   0  0  0  0  0  0  0  0  0  0  0  0
  191.6430  170.9280  143.2910 C   0  0  0  0  0  0  0  0  0  0  0  0
  192.5580  170.6470  144.0250 C   0  0  0  0  0  0  0  0  0  0  0  0
  190.3080  171.3390  142.2170 S   0  0  0  0  0  0  0  0  0  0  0  0
  190.9530  173.0160  141.9540 C   0  0  0  0  0  2  0  0  0  0  0  0
  190.1180  174.0050  142.6990 C   0  0  0  0  0  0  0  0  0  0  0  0
  189.8130  173.7670  143.8970 O   0  0  0  0  0  0  0  0  0  0  0  0
  189.6780  175.1980  142.1090 O   0  0  0  0  0  0  0  0  0  0  0  0
  187.4410  174.5670  142.1420 O   0  0  0  0  0  1  0  0  0  0  0  0
  188.3890  175.3880  141.5230 C   0  0  1  0  0  3  0  0  0  0  0  0
  187.9770  176.8300  141.5540 C   0  0  0  0  0  0  0  0  0  0  0  0
  186.8050  177.2240  140.9230 O   0  0  0  0  0  0  0  0  0  0  0  0
  188.6750  177.6860  142.1600 O   0  0  0  0  0  1  0  0  0  0  0  0
  190.9670  176.6760  145.8830 C   0  0  2  0  0  3  0  0  0  0  0  0
  191.6460  176.8140  144.5210 C   0  0  0  0  0  2  0  0  0  0  0  0
  191.3630  175.3420  146.5120 C   0  0  0  0  0  2  0  0  0  0  0  0
  192.8120  175.2830  146.6900 N   0  0  0  0  0  2  0  0  0  0  0  0
  193.1540  176.6350  144.6640 C   0  0  0  0  0  2  0  0  0  0  0  0
  193.4480  175.3060  145.3720 C   0  0  1  0  0  3  0  0  0  0  0  0
  189.5240  176.7260  145.7250 N   0  0  0  0  0  2  0  0  0  0  0  0
  187.5460  176.3700  146.9650 C   0  0  0  0  0  0  0  0  0  0  0  0
  188.6740  175.9000  146.5130 C   0  0  0  0  0  3  0  0  0  0  0  0
  186.4180  176.8410  147.4160 C   0  0  0  0  0  3  0  0  0  0  0  0
  185.8840  178.1260  146.8870 C   0  0  0  0  0  2  0  0  0  0  0  0
  184.0850  179.2710  144.0400 C   0  0  0  0  0  2  0  0  0  0  0  0
  185.5130  179.3260  143.5570 C   0  0  0  0  0  2  0  0  0  0  0  0
  185.4410  177.9490  145.5150 N   0  0  0  0  0  0  0  0  0  0  0  0
  186.3370  178.7300  144.6770 C   0  0  0  0  0  2  0  0  0  0  0  0
  184.1410  178.5950  145.3920 C   0  0  0  0  0  2  0  0  0  0  0  0
  195.7910  175.7950  144.4850 C   0  0  0  0  0  2  0  0  0  0  0  0
  196.2760  176.9660  141.9310 O   0  0  0  0  0  0  0  0  0  0  0  0
  196.1000  175.7170  141.9740 C   0  0  0  0  0  0  0  0  0  0  0  0
  195.8440  175.0700  143.2220 N   0  0  0  0  0  2  0  0  0  0  0  0
  195.3150  175.2350  139.6940 C   0  0  0  0  0  1  0  0  0  0  0  0
  196.1470  174.9530  140.8090 O   0  0  0  0  0  0  0  0  0  0  0  0
  1 37  1  6  0  0  0
  1  2  1  0  0  0  0
  2  7  1  0  0  0  0
  3  4  2  0  0  0  0
  4  6  1  0  0  0  0
  5  3  1  0  0  0  0
  5  2  2  0  0  0  0
  7  6  2  0  0  0  0
  8  3  1  0  0  0  0
  9 10  3  0  0  0  0
 10  8  1  0  0  0  0
 11  9  1  0  0  0  0
 12 11  1  0  0  0  0
 12 13  1  0  0  0  0
 13 14  2  0  0  0  0
 15 13  1  0  0  0  0
 17 18  1  0  0  0  0
 17 15  1  0  0  0  0
 17 16  1  1  0  0  0
 18 20  1  0  0  0  0
 19 18  2  0  0  0  0
 21 27  1  6  0  0  0
 21 23  1  0  0  0  0
 22 25  1  0  0  0  0
 22 21  1  0  0  0  0
 23 24  1  0  0  0  0
 25 26  1  0  0  0  0
 26  1  1  1  0  0  0
 26 24  1  0  0  0  0
 27 29  1  0  0  0  0
 28 30  2  0  0  0  0
 29 28  2  0  0  0  0
 31 30  1  0  0  0  0
 32 36  1  0  0  0  0
 33 32  1  0  0  0  0
 33 35  1  0  0  0  0
 34 31  1  0  0  0  0
 35 34  1  0  0  0  0
 36 34  1  0  0  0  0
 38 39  2  0  0  0  0
 39 40  1  0  0  0  0
 40 37  1  0  0  0  0
 41 42  1  0  0  0  0
 42 39  1  0  0  0  0
M  END
>  <MODEL>
3

>  <REMARK>
 VINA RESULT:      -6.5      2.847      6.208
  Name = 
  17 active torsions:
  status: ('A' for Active; 'I' for Inactive)
    1  A    between atoms: C_4  and  S_42
    2  A    between atoms: O_5  and  C_12
    3  A    between atoms: O_5  and  C_14
    4  A    between atoms: C_6  and  C_8
    5  A    between atoms: C_8  and  C_35
    6  A    between atoms: C_8  and  C_40
    7  A    between atoms: C_9  and  N_16
    8  A    between atoms: N_10  and  C_11
    9  A    between atoms: C_11  and  C_38
   10  A    between atoms: C_13  and  C_32
   11  A    between atoms: C_13  and  O_37
   12  A    between atoms: N_16  and  C_31
   13  A    between atoms: C_18  and  C_26
   14  A    between atoms: C_26  and  O_37
   15  A    between atoms: C_29  and  O_34
   16  A    between atoms: C_32  and  S_42
   17  A    between atoms: C_35  and  N_41
                            x       y       z     vdW  Elec       q    Type
                         _______ _______ _______ _____ _____    ______ ____

>  <TORSDO>
F 17

$$$$
=
 OpenBabel11042413373D

 42 44  0  0  1  0  0  0  0  0999 V2000
  194.4270  175.7610  145.6090 C   0  0  2  0  0  3  0  0  0  0  0  0
  194.9600  174.3590  145.6540 C   0  0  0  0  0  0  0  0  0  0  0  0
  194.6390  171.9530  145.4770 C   0  0  0  0  0  0  0  0  0  0  0  0
  195.9970  171.7610  145.7820 C   0  0  0  0  0  3  0  0  0  0  0  0
  194.1290  173.2540  145.4170 C   0  0  0  0  0  3  0  0  0  0  0  0
  196.8280  172.8580  146.0230 C   0  0  0  0  0  3  0  0  0  0  0  0
  196.3090  174.1540  145.9610 C   0  0  0  0  0  3  0  0  0  0  0  0
  193.7780  170.8780  145.2330 O   0  0  0  0  0  0  0  0  0  0  0  0
  192.1100  170.8450  143.2700 C   0  0  0  0  0  0  0  0  0  0  0  0
  192.8900  170.8600  144.1890 C   0  0  0  0  0  0  0  0  0  0  0  0
  190.9670  170.8270  141.9290 S   0  0  0  0  0  0  0  0  0  0  0  0
  191.6380  172.3730  141.2540 C   0  0  0  0  0  2  0  0  0  0  0  0
  190.7750  173.5230  141.6590 C   0  0  0  0  0  0  0  0  0  0  0  0
  190.8280  173.9370  142.8470 O   0  0  0  0  0  0  0  0  0  0  0  0
  189.9190  174.1640  140.7530 O   0  0  0  0  0  0  0  0  0  0  0  0
  188.0670  172.8810  141.3230 O   0  0  0  0  0  1  0  0  0  0  0  0
  188.4920  174.1070  140.8020 C   0  0  1  0  0  3  0  0  0  0  0  0
  187.9210  175.2630  141.5680 C   0  0  0  0  0  0  0  0  0  0  0  0
  188.2460  176.5610  141.1960 O   0  0  0  0  0  0  0  0  0  0  0  0
  187.1380  175.0710  142.5350 O   0  0  0  0  0  1  0  0  0  0  0  0
  190.4310  177.0720  146.6120 C   0  0  2  0  0  3  0  0  0  0  0  0
  190.6520  176.5550  145.1910 C   0  0  0  0  0  2  0  0  0  0  0  0
  191.2960  176.2700  147.5810 C   0  0  0  0  0  2  0  0  0  0  0  0
  192.7060  176.4140  147.2310 N   0  0  0  0  0  2  0  0  0  0  0  0
  192.1370  176.5840  144.8450 C   0  0  0  0  0  2  0  0  0  0  0  0
  192.9270  175.8170  145.9140 C   0  0  1  0  0  3  0  0  0  0  0  0
  189.0330  176.9310  146.9800 N   0  0  0  0  0  2  0  0  0  0  0  0
  187.1010  176.7580  145.6320 C   0  0  0  0  0  0  0  0  0  0  0  0
  188.1370  176.1780  146.1690 C   0  0  0  0  0  3  0  0  0  0  0  0
  186.0660  177.3400  145.0960 C   0  0  0  0  0  3  0  0  0  0  0  0
  185.9670  178.8250  145.0910 C   0  0  0  0  0  2  0  0  0  0  0  0
  185.2020  178.3250  141.6520 C   0  0  0  0  0  2  0  0  0  0  0  0
  183.8380  178.2740  142.2930 C   0  0  0  0  0  2  0  0  0  0  0  0
  185.3550  179.2750  143.8520 N   0  0  0  0  0  0  0  0  0  0  0  0
  184.0670  178.6070  143.7510 C   0  0  0  0  0  2  0  0  0  0  0  0
  186.1510  178.7410  142.7560 C   0  0  0  0  0  2  0  0  0  0  0  0
  194.8020  176.4970  144.3200 C   0  0  0  0  0  2  0  0  0  0  0  0
  193.5450  175.8880  141.8340 O   0  0  0  0  0  0  0  0  0  0  0  0
  194.6360  175.3080  142.0920 C   0  0  0  0  0  0  0  0  0  0  0  0
  195.3120  175.5640  143.3250 N   0  0  0  0  0  2  0  0  0  0  0  0
  195.9830  173.3080  141.6080 C   0  0  0  0  0  1  0  0  0  0  0  0
  195.1940  174.4090  141.1840 O   0  0  0  0  0  0  0  0  0  0  0  0
  1 37  1  6  0  0  0
  1  2  1  0  0  0  0
  2  7  1  0  0  0  0
  3  4  2  0  0  0  0
  4  6  1  0  0  0  0
  5  3  1  0  0  0  0
  5  2  2  0  0  0  0
  7  6  2  0  0  0  0
  8  3  1  0  0  0  0
  9 10  3  0  0  0  0
 10  8  1  0  0  0  0
 11  9  1  0  0  0  0
 12 13  1  0  0  0  0
 12 11  1  0  0  0  0
 13 14  2  0  0  0  0
 15 17  1  0  0  0  0
 15 13  1  0  0  0  0
 17 16  1  1  0  0  0
 17 18  1  0  0  0  0
 18 20  1  0  0  0  0
 19 18  2  0  0  0  0
 21 27  1  1  0  0  0
 21 23  1  0  0  0  0
 22 21  1  0  0  0  0
 24 23  1  0  0  0  0
 25 22  1  0  0  0  0
 25 26  1  0  0  0  0
 26  1  1  6  0  0  0
 26 24  1  0  0  0  0
 28 29  2  0  0  0  0
 29 27  1  0  0  0  0
 30 28  2  0  0  0  0
 31 30  1  0  0  0  0
 32 33  1  0  0  0  0
 32 36  1  0  0  0  0
 33 35  1  0  0  0  0
 34 31  1  0  0  0  0
 35 34  1  0  0  0  0
 36 34  1  0  0  0  0
 38 39  2  0  0  0  0
 39 40  1  0  0  0  0
 40 37  1  0  0  0  0
 42 41  1  0  0  0  0
 42 39  1  0  0  0  0
M  END
>  <MODEL>
4

>  <REMARK>
 VINA RESULT:      -6.4      2.711      5.943
  Name = 
  17 active torsions:
  status: ('A' for Active; 'I' for Inactive)
    1  A    between atoms: C_4  and  S_42
    2  A    between atoms: O_5  and  C_12
    3  A    between atoms: O_5  and  C_14
    4  A    between atoms: C_6  and  C_8
    5  A    between atoms: C_8  and  C_35
    6  A    between atoms: C_8  and  C_40
    7  A    between atoms: C_9  and  N_16
    8  A    between atoms: N_10  and  C_11
    9  A    between atoms: C_11  and  C_38
   10  A    between atoms: C_13  and  C_32
   11  A    between atoms: C_13  and  O_37
   12  A    between atoms: N_16  and  C_31
   13  A    between atoms: C_18  and  C_26
   14  A    between atoms: C_26  and  O_37
   15  A    between atoms: C_29  and  O_34
   16  A    between atoms: C_32  and  S_42
   17  A    between atoms: C_35  and  N_41
                            x       y       z     vdW  Elec       q    Type
                         _______ _______ _______ _____ _____    ______ ____

>  <TORSDO>
F 17

$$$$
=
 OpenBabel11042413373D

 42 44  0  0  1  0  0  0  0  0999 V2000
  191.5650  175.9450  143.5600 C   0  0  2  0  0  3  0  0  0  0  0  0
  192.8780  175.7740  142.8540 C   0  0  0  0  0  0  0  0  0  0  0  0
  194.1890  174.9910  140.9590 C   0  0  0  0  0  0  0  0  0  0  0  0
  195.3570  175.4500  141.5920 C   0  0  0  0  0  3  0  0  0  0  0  0
  192.9560  175.1550  141.5970 C   0  0  0  0  0  3  0  0  0  0  0  0
  195.2850  176.0630  142.8460 C   0  0  0  0  0  3  0  0  0  0  0  0
  194.0470  176.2230  143.4750 C   0  0  0  0  0  3  0  0  0  0  0  0
  194.2250  174.3700  139.7070 O   0  0  0  0  0  0  0  0  0  0  0  0
  193.0920  172.1030  139.2430 C   0  0  0  0  0  0  0  0  0  0  0  0
  193.6230  173.1640  139.4590 C   0  0  0  0  0  0  0  0  0  0  0  0
  192.3190  170.5510  138.9290 S   0  0  0  0  0  0  0  0  0  0  0  0
  190.6640  171.2960  138.9690 C   0  0  0  0  0  2  0  0  0  0  0  0
  190.3550  171.7770  140.3490 C   0  0  0  0  0  0  0  0  0  0  0  0
  190.0790  172.9920  140.5240 O   0  0  0  0  0  0  0  0  0  0  0  0
  190.3480  170.9120  141.4520 O   0  0  0  0  0  0  0  0  0  0  0  0
  192.2580  171.7820  142.4500 O   0  0  0  0  0  1  0  0  0  0  0  0
  191.0290  171.1580  142.6840 C   0  0  1  0  0  3  0  0  0  0  0  0
  190.1780  171.9480  143.6340 C   0  0  0  0  0  0  0  0  0  0  0  0
  190.7810  172.7000  144.6330 O   0  0  0  0  0  1  0  0  0  0  0  0
  188.9240  171.9500  143.5260 O   0  0  0  0  0  0  0  0  0  0  0  0
  187.8140  177.3040  141.8930 C   0  0  2  0  0  3  0  0  0  0  0  0
  188.9740  178.2990  141.8860 C   0  0  0  0  0  2  0  0  0  0  0  0
  188.3550  175.8970  141.6520 C   0  0  0  0  0  2  0  0  0  0  0  0
  189.3030  175.5370  142.7020 N   0  0  0  0  0  2  0  0  0  0  0  0
  190.0380  177.8760  142.8930 C   0  0  0  0  0  2  0  0  0  0  0  0
  190.4610  176.4280  142.6150 C   0  0  1  0  0  3  0  0  0  0  0  0
  186.8620  177.6430  140.8500 N   0  0  0  0  0  2  0  0  0  0  0  0
  185.0650  178.3040  142.2320 C   0  0  0  0  0  0  0  0  0  0  0  0
  185.4700  177.7320  141.1330 C   0  0  0  0  0  3  0  0  0  0  0  0
  184.6600  178.8760  143.3300 C   0  0  0  0  0  3  0  0  0  0  0  0
  185.6140  179.6780  144.1450 C   0  0  0  0  0  2  0  0  0  0  0  0
  184.8320  177.1240  146.4960 C   0  0  0  0  0  2  0  0  0  0  0  0
  186.3060  176.9040  146.2640 C   0  0  0  0  0  2  0  0  0  0  0  0
  185.7460  179.0920  145.4680 N   0  0  0  0  0  0  0  0  0  0  0  0
  186.7440  178.0390  145.3660 C   0  0  0  0  0  2  0  0  0  0  0  0
  184.4960  178.4070  145.7670 C   0  0  0  0  0  2  0  0  0  0  0  0
  191.6790  176.7960  144.8280 C   0  0  0  0  0  2  0  0  0  0  0  0
  192.4430  175.0130  146.9180 O   0  0  0  0  0  0  0  0  0  0  0  0
  191.2430  175.4020  146.8950 C   0  0  0  0  0  0  0  0  0  0  0  0
  190.7940  176.2890  145.8680 N   0  0  0  0  0  2  0  0  0  0  0  0
  189.0010  174.6230  147.5380 C   0  0  0  0  0  1  0  0  0  0  0  0
  190.3380  174.9690  147.8640 O   0  0  0  0  0  0  0  0  0  0  0  0
  1 37  1  1  0  0  0
  2  7  1  0  0  0  0
  2  1  1  0  0  0  0
  3  4  2  0  0  0  0
  3  5  1  0  0  0  0
  4  6  1  0  0  0  0
  5  2  2  0  0  0  0
  6  7  2  0  0  0  0
  8  3  1  0  0  0  0
  9 10  3  0  0  0  0
 10  8  1  0  0  0  0
 11 12  1  0  0  0  0
 11  9  1  0  0  0  0
 12 13  1  0  0  0  0
 13 14  2  0  0  0  0
 13 15  1  0  0  0  0
 15 17  1  0  0  0  0
 17 16  1  6  0  0  0
 17 18  1  0  0  0  0
 18 19  1  0  0  0  0
 20 18  2  0  0  0  0
 21 27  1  6  0  0  0
 22 21  1  0  0  0  0
 22 25  1  0  0  0  0
 23 21  1  0  0  0  0
 23 24  1  0  0  0  0
 26 24  1  0  0  0  0
 26 25  1  0  0  0  0
 26  1  1  1  0  0  0
 27 29  1  0  0  0  0
 28 30  2  0  0  0  0
 29 28  2  0  0  0  0
 30 31  1  0  0  0  0
 31 34  1  0  0  0  0
 33 32  1  0  0  0  0
 34 36  1  0  0  0  0
 35 34  1  0  0  0  0
 35 33  1  0  0  0  0
 36 32  1  0  0  0  0
 37 40  1  0  0  0  0
 39 38  2  0  0  0  0
 39 42  1  0  0  0  0
 40 39  1  0  0  0  0
 41 42  1  0  0  0  0
M  END
>  <MODEL>
5

>  <REMARK>
 VINA RESULT:      -6.3      2.453      5.539
  Name = 
  17 active torsions:
  status: ('A' for Active; 'I' for Inactive)
    1  A    between atoms: C_4  and  S_42
    2  A    between atoms: O_5  and  C_12
    3  A    between atoms: O_5  and  C_14
    4  A    between atoms: C_6  and  C_8
    5  A    between atoms: C_8  and  C_35
    6  A    between atoms: C_8  and  C_40
    7  A    between atoms: C_9  and  N_16
    8  A    between atoms: N_10  and  C_11
    9  A    between atoms: C_11  and  C_38
   10  A    between atoms: C_13  and  C_32
   11  A    between atoms: C_13  and  O_37
   12  A    between atoms: N_16  and  C_31
   13  A    between atoms: C_18  and  C_26
   14  A    between atoms: C_26  and  O_37
   15  A    between atoms: C_29  and  O_34
   16  A    between atoms: C_32  and  S_42
   17  A    between atoms: C_35  and  N_41
                            x       y       z     vdW  Elec       q    Type
                         _______ _______ _______ _____ _____    ______ ____

>  <TORSDO>
F 17

$$$$
=
 OpenBabel11042413373D

 42 44  0  0  1  0  0  0  0  0999 V2000
  194.4140  175.8630  145.8640 C   0  0  2  0  0  3  0  0  0  0  0  0
  194.9020  174.4510  145.7230 C   0  0  0  0  0  0  0  0  0  0  0  0
  194.5010  172.1000  145.2410 C   0  0  0  0  0  0  0  0  0  0  0  0
  195.8530  171.8270  145.5050 C   0  0  0  0  0  3  0  0  0  0  0  0
  194.0330  173.4130  145.3540 C   0  0  0  0  0  3  0  0  0  0  0  0
  196.7210  172.8570  145.8770 C   0  0  0  0  0  3  0  0  0  0  0  0
  196.2450  174.1660  145.9870 C   0  0  0  0  0  3  0  0  0  0  0  0
  193.6040  171.0920  144.8700 O   0  0  0  0  0  0  0  0  0  0  0  0
  191.3560  171.5830  143.7100 C   0  0  0  0  0  0  0  0  0  0  0  0
  192.4080  171.3540  144.2530 C   0  0  0  0  0  0  0  0  0  0  0  0
  189.8200  171.9160  142.9130 S   0  0  0  0  0  0  0  0  0  0  0  0
  190.0700  173.7090  143.0430 C   0  0  0  0  0  2  0  0  0  0  0  0
  189.0860  174.4250  142.1770 C   0  0  0  0  0  0  0  0  0  0  0  0
  188.0520  174.9140  142.7040 O   0  0  0  0  0  0  0  0  0  0  0  0
  189.2860  174.5820  140.7990 O   0  0  0  0  0  0  0  0  0  0  0  0
  188.0370  174.5460  138.8390 O   0  0  0  0  0  1  0  0  0  0  0  0
  188.6930  173.7600  139.7910 C   0  0  1  0  0  3  0  0  0  0  0  0
  189.7030  172.8500  139.1580 C   0  0  0  0  0  0  0  0  0  0  0  0
  190.8830  173.3790  138.6540 O   0  0  0  0  0  0  0  0  0  0  0  0
  189.5000  171.6090  139.0930 O   0  0  0  0  0  1  0  0  0  0  0  0
  190.3720  177.2070  146.6030 C   0  0  2  0  0  3  0  0  0  0  0  0
  190.6820  176.6920  145.1990 C   0  0  0  0  0  2  0  0  0  0  0  0
  191.1640  176.3950  147.6260 C   0  0  0  0  0  2  0  0  0  0  0  0
  192.5960  176.5280  147.3700 N   0  0  0  0  0  2  0  0  0  0  0  0
  192.1870  176.7080  144.9520 C   0  0  0  0  0  2  0  0  0  0  0  0
  192.8980  175.9320  146.0690 C   0  0  1  0  0  3  0  0  0  0  0  0
  188.9510  177.0780  146.8780 N   0  0  0  0  0  2  0  0  0  0  0  0
  187.0770  176.7930  145.4690 C   0  0  0  0  0  0  0  0  0  0  0  0
  188.1190  176.2700  146.0520 C   0  0  0  0  0  3  0  0  0  0  0  0
  186.0360  177.3170  144.8870 C   0  0  0  0  0  3  0  0  0  0  0  0
  185.8700  178.7960  144.8510 C   0  0  0  0  0  2  0  0  0  0  0  0
  185.5450  178.2380  141.3530 C   0  0  0  0  0  2  0  0  0  0  0  0
  184.1190  178.1190  141.8280 C   0  0  0  0  0  2  0  0  0  0  0  0
  185.3870  179.2060  143.5430 N   0  0  0  0  0  0  0  0  0  0  0  0
  184.1560  178.4720  143.2980 C   0  0  0  0  0  2  0  0  0  0  0  0
  186.3340  178.7070  142.5550 C   0  0  0  0  0  2  0  0  0  0  0  0
  194.9060  176.7760  144.7380 C   0  0  0  0  0  2  0  0  0  0  0  0
  193.9920  176.3780  142.0660 O   0  0  0  0  0  0  0  0  0  0  0  0
  195.0920  175.8480  142.3900 C   0  0  0  0  0  0  0  0  0  0  0  0
  195.6000  176.0030  143.7160 N   0  0  0  0  0  2  0  0  0  0  0  0
  196.8110  175.6970  140.6390 C   0  0  0  0  0  1  0  0  0  0  0  0
  195.8200  175.1030  141.4640 O   0  0  0  0  0  0  0  0  0  0  0  0
  1 37  1  6  0  0  0
  2  1  1  0  0  0  0
  2  7  1  0  0  0  0
  3  5  1  0  0  0  0
  3  4  2  0  0  0  0
  4  6  1  0  0  0  0
  5  2  2  0  0  0  0
  6  7  2  0  0  0  0
  8  3  1  0  0  0  0
  9 10  3  0  0  0  0
 10  8  1  0  0  0  0
 11 12  1  0  0  0  0
 11  9  1  0  0  0  0
 13 14  2  0  0  0  0
 13 12  1  0  0  0  0
 15 13  1  0  0  0  0
 17 16  1  6  0  0  0
 17 15  1  0  0  0  0
 18 17  1  0  0  0  0
 19 18  2  0  0  0  0
 20 18  1  0  0  0  0
 21 27  1  1  0  0  0
 21 23  1  0  0  0  0
 22 21  1  0  0  0  0
 24 23  1  0  0  0  0
 25 22  1  0  0  0  0
 25 26  1  0  0  0  0
 26  1  1  6  0  0  0
 26 24  1  0  0  0  0
 28 29  2  0  0  0  0
 29 27  1  0  0  0  0
 30 28  2  0  0  0  0
 31 30  1  0  0  0  0
 32 33  1  0  0  0  0
 32 36  1  0  0  0  0
 33 35  1  0  0  0  0
 34 31  1  0  0  0  0
 35 34  1  0  0  0  0
 36 34  1  0  0  0  0
 38 39  2  0  0  0  0
 39 40  1  0  0  0  0
 40 37  1  0  0  0  0
 41 42  1  0  0  0  0
 42 39  1  0  0  0  0
M  END
>  <MODEL>
6

>  <REMARK>
 VINA RESULT:      -6.3      2.655      6.132
  Name = 
  17 active torsions:
  status: ('A' for Active; 'I' for Inactive)
    1  A    between atoms: C_4  and  S_42
    2  A    between atoms: O_5  and  C_12
    3  A    between atoms: O_5  and  C_14
    4  A    between atoms: C_6  and  C_8
    5  A    between atoms: C_8  and  C_35
    6  A    between atoms: C_8  and  C_40
    7  A    between atoms: C_9  and  N_16
    8  A    between atoms: N_10  and  C_11
    9  A    between atoms: C_11  and  C_38
   10  A    between atoms: C_13  and  C_32
   11  A    between atoms: C_13  and  O_37
   12  A    between atoms: N_16  and  C_31
   13  A    between atoms: C_18  and  C_26
   14  A    between atoms: C_26  and  O_37
   15  A    between atoms: C_29  and  O_34
   16  A    between atoms: C_32  and  S_42
   17  A    between atoms: C_35  and  N_41
                            x       y       z     vdW  Elec       q    Type
                         _______ _______ _______ _____ _____    ______ ____

>  <TORSDO>
F 17

$$$$
=
 OpenBabel11042413373D

 42 44  0  0  1  0  0  0  0  0999 V2000
  192.6910  175.3070  144.5860 C   0  0  2  0  0  3  0  0  0  0  0  0
  192.7690  173.8140  144.4520 C   0  0  0  0  0  0  0  0  0  0  0  0
  191.9560  171.7160  143.5260 C   0  0  0  0  0  0  0  0  0  0  0  0
  192.9360  171.0260  144.2580 C   0  0  0  0  0  3  0  0  0  0  0  0
  191.8780  173.1080  143.6290 C   0  0  0  0  0  3  0  0  0  0  0  0
  193.8230  171.7240  145.0820 C   0  0  0  0  0  3  0  0  0  0  0  0
  193.7390  173.1160  145.1780 C   0  0  0  0  0  3  0  0  0  0  0  0
  191.0490  171.0480  142.6960 O   0  0  0  0  0  0  0  0  0  0  0  0
  190.8890  171.4930  140.1630 C   0  0  0  0  0  0  0  0  0  0  0  0
  190.9650  171.2840  141.3480 C   0  0  0  0  0  0  0  0  0  0  0  0
  190.7770  171.7940  138.4300 S   0  0  0  0  0  0  0  0  0  0  0  0
  188.9780  172.0180  138.5220 C   0  0  0  0  0  2  0  0  0  0  0  0
  188.6570  173.4430  138.8340 C   0  0  0  0  0  0  0  0  0  0  0  0
  188.1450  174.1630  137.9370 O   0  0  0  0  0  0  0  0  0  0  0  0
  188.8950  173.9980  140.0990 O   0  0  0  0  0  0  0  0  0  0  0  0
  188.2030  173.2000  142.1690 O   0  0  0  0  0  1  0  0  0  0  0  0
  187.9210  174.1020  141.1390 C   0  0  1  0  0  3  0  0  0  0  0  0
  187.8090  175.5080  141.6480 C   0  0  0  0  0  0  0  0  0  0  0  0
  188.0210  175.7700  142.9960 O   0  0  0  0  0  1  0  0  0  0  0  0
  187.5400  176.4580  140.8660 O   0  0  0  0  0  0  0  0  0  0  0  0
  189.4410  177.2340  146.6880 C   0  0  2  0  0  3  0  0  0  0  0  0
  189.6550  177.6360  145.2300 C   0  0  0  0  0  2  0  0  0  0  0  0
  189.7560  175.7490  146.8530 C   0  0  0  0  0  2  0  0  0  0  0  0
  191.1440  175.4860  146.4820 N   0  0  0  0  0  2  0  0  0  0  0  0
  191.0630  177.2610  144.7800 C   0  0  0  0  0  2  0  0  0  0  0  0
  191.3090  175.7710  145.0560 C   0  0  1  0  0  3  0  0  0  0  0  0
  188.0630  177.4820  147.0750 N   0  0  0  0  0  2  0  0  0  0  0  0
  185.8360  177.0870  146.3970 C   0  0  0  0  0  0  0  0  0  0  0  0
  187.0190  176.6090  146.6590 C   0  0  0  0  0  3  0  0  0  0  0  0
  184.6540  177.5670  146.1340 C   0  0  0  0  0  3  0  0  0  0  0  0
  184.4620  179.0370  145.9930 C   0  0  0  0  0  2  0  0  0  0  0  0
  186.1510  178.9270  142.8640 C   0  0  0  0  0  2  0  0  0  0  0  0
  184.8720  178.1880  142.5610 C   0  0  0  0  0  2  0  0  0  0  0  0
  184.5600  179.4150  144.5940 N   0  0  0  0  0  0  0  0  0  0  0  0
  184.0370  178.3020  143.8170 C   0  0  0  0  0  2  0  0  0  0  0  0
  185.9760  179.4830  144.2610 C   0  0  0  0  0  2  0  0  0  0  0  0
  193.1740  176.0420  143.3330 C   0  0  0  0  0  2  0  0  0  0  0  0
  195.2370  177.1680  144.9480 O   0  0  0  0  0  0  0  0  0  0  0  0
  195.5880  176.4270  143.9890 C   0  0  0  0  0  0  0  0  0  0  0  0
  194.6030  175.8390  143.1370 N   0  0  0  0  0  2  0  0  0  0  0  0
  197.3620  175.3350  142.6820 C   0  0  0  0  0  1  0  0  0  0  0  0
  196.9380  176.1760  143.7430 O   0  0  0  0  0  0  0  0  0  0  0  0
  1 37  1  6  0  0  0
  2  1  1  0  0  0  0
  2  7  1  0  0  0  0
  3  5  1  0  0  0  0
  3  4  2  0  0  0  0
  4  6  1  0  0  0  0
  5  2  2  0  0  0  0
  6  7  2  0  0  0  0
  8  3  1  0  0  0  0
  9 10  3  0  0  0  0
 10  8  1  0  0  0  0
 11 12  1  0  0  0  0
 11  9  1  0  0  0  0
 12 13  1  0  0  0  0
 13 15  1  0  0  0  0
 14 13  2  0  0  0  0
 15 17  1  0  0  0  0
 17 18  1  0  0  0  0
 17 16  1  1  0  0  0
 18 19  1  0  0  0  0
 20 18  2  0  0  0  0
 21 23  1  0  0  0  0
 21 27  1  6  0  0  0
 22 21  1  0  0  0  0
 24 23  1  0  0  0  0
 25 26  1  0  0  0  0
 25 22  1  0  0  0  0
 26  1  1  1  0  0  0
 26 24  1  0  0  0  0
 28 29  2  0  0  0  0
 29 27  1  0  0  0  0
 30 28  2  0  0  0  0
 31 30  1  0  0  0  0
 32 36  1  0  0  0  0
 33 32  1  0  0  0  0
 33 35  1  0  0  0  0
 34 31  1  0  0  0  0
 35 34  1  0  0  0  0
 36 34  1  0  0  0  0
 39 38  2  0  0  0  0
 40 37  1  0  0  0  0
 40 39  1  0  0  0  0
 41 42  1  0  0  0  0
 42 39  1  0  0  0  0
M  END
>  <MODEL>
7

>  <REMARK>
 VINA RESULT:      -6.1      2.789      6.377
  Name = 
  17 active torsions:
  status: ('A' for Active; 'I' for Inactive)
    1  A    between atoms: C_4  and  S_42
    2  A    between atoms: O_5  and  C_12
    3  A    between atoms: O_5  and  C_14
    4  A    between atoms: C_6  and  C_8
    5  A    between atoms: C_8  and  C_35
    6  A    between atoms: C_8  and  C_40
    7  A    between atoms: C_9  and  N_16
    8  A    between atoms: N_10  and  C_11
    9  A    between atoms: C_11  and  C_38
   10  A    between atoms: C_13  and  C_32
   11  A    between atoms: C_13  and  O_37
   12  A    between atoms: N_16  and  C_31
   13  A    between atoms: C_18  and  C_26
   14  A    between atoms: C_26  and  O_37
   15  A    between atoms: C_29  and  O_34
   16  A    between atoms: C_32  and  S_42
   17  A    between atoms: C_35  and  N_41
                            x       y       z     vdW  Elec       q    Type
                         _______ _______ _______ _____ _____    ______ ____

>  <TORSDO>
F 17

$$$$
=
 OpenBabel11042413373D

 42 44  0  0  1  0  0  0  0  0999 V2000
  189.1530  176.7850  145.0940 C   0  0  2  0  0  3  0  0  0  0  0  0
  188.5710  176.6360  143.7190 C   0  0  0  0  0  0  0  0  0  0  0  0
  187.2150  177.4730  141.8800 C   0  0  0  0  0  0  0  0  0  0  0  0
  187.4830  176.2960  141.1610 C   0  0  0  0  0  3  0  0  0  0  0  0
  187.7610  177.6350  143.1570 C   0  0  0  0  0  3  0  0  0  0  0  0
  188.2860  175.2970  141.7180 C   0  0  0  0  0  3  0  0  0  0  0  0
  188.8270  175.4670  142.9950 C   0  0  0  0  0  3  0  0  0  0  0  0
  186.4130  178.4920  141.3540 O   0  0  0  0  0  0  0  0  0  0  0  0
  183.9190  178.1580  140.8010 C   0  0  0  0  0  0  0  0  0  0  0  0
  185.0860  178.3140  141.0610 C   0  0  0  0  0  0  0  0  0  0  0  0
  182.2130  177.9320  140.4210 S   0  0  0  0  0  0  0  0  0  0  0  0
  181.6990  178.6730  141.9960 C   0  0  0  0  0  2  0  0  0  0  0  0
  180.2540  179.0450  141.9370 C   0  0  0  0  0  0  0  0  0  0  0  0
  179.4300  178.4090  142.6450 O   0  0  0  0  0  0  0  0  0  0  0  0
  179.7890  180.0920  141.1270 O   0  0  0  0  0  0  0  0  0  0  0  0
  178.2570  179.0450  139.7290 O   0  0  0  0  0  1  0  0  0  0  0  0
  179.3310  179.9390  139.7830 C   0  0  1  0  0  3  0  0  0  0  0  0
  178.9830  181.2610  139.1660 C   0  0  0  0  0  0  0  0  0  0  0  0
  177.9970  181.3260  138.1900 O   0  0  0  0  0  0  0  0  0  0  0  0
  179.5630  182.3160  139.5350 O   0  0  0  0  0  1  0  0  0  0  0  0
  193.3960  176.5470  145.8840 C   0  0  2  0  0  3  0  0  0  0  0  0
  192.5130  175.4820  146.5320 C   0  0  0  0  0  2  0  0  0  0  0  0
  192.8390  176.8940  144.5060 C   0  0  0  0  0  2  0  0  0  0  0  0
  191.4790  177.4110  144.6310 N   0  0  0  0  0  2  0  0  0  0  0  0
  191.0620  175.9500  146.5650 C   0  0  0  0  0  2  0  0  0  0  0  0
  190.6190  176.3470  145.1500 C   0  0  1  0  0  3  0  0  0  0  0  0
  194.7540  176.0480  145.7460 N   0  0  0  0  0  2  0  0  0  0  0  0
  195.0450  174.5370  143.9550 C   0  0  0  0  0  0  0  0  0  0  0  0
  195.2810  175.7110  144.4670 C   0  0  0  0  0  3  0  0  0  0  0  0
  194.8090  173.3620  143.4440 C   0  0  0  0  0  3  0  0  0  0  0  0
  193.7720  172.4820  144.0510 C   0  0  0  0  0  2  0  0  0  0  0  0
  190.8160  172.5660  142.0720 C   0  0  0  0  0  2  0  0  0  0  0  0
  190.3070  172.0190  143.3810 C   0  0  0  0  0  2  0  0  0  0  0  0
  192.4490  173.0160  143.7730 N   0  0  0  0  0  0  0  0  0  0  0  0
  191.4890  172.0730  144.3240 C   0  0  0  0  0  2  0  0  0  0  0  0
  192.2530  172.9630  142.3310 C   0  0  0  0  0  2  0  0  0  0  0  0
  188.2920  176.1290  146.1770 C   0  0  0  0  0  2  0  0  0  0  0  0
  185.5650  176.4190  145.3960 O   0  0  0  0  0  0  0  0  0  0  0  0
  185.9920  177.1790  146.3080 C   0  0  0  0  0  0  0  0  0  0  0  0
  187.3520  177.0900  146.7390 N   0  0  0  0  0  2  0  0  0  0  0  0
  184.0590  178.6940  146.2030 C   0  0  0  0  0  1  0  0  0  0  0  0
  185.1500  178.1170  146.9030 O   0  0  0  0  0  0  0  0  0  0  0  0
  1 37  1  1  0  0  0
  2  1  1  0  0  0  0
  3  5  2  0  0  0  0
  4  6  2  0  0  0  0
  4  3  1  0  0  0  0
  5  2  1  0  0  0  0
  6  7  1  0  0  0  0
  7  2  2  0  0  0  0
  8  3  1  0  0  0  0
  9 10  3  0  0  0  0
 10  8  1  0  0  0  0
 11  9  1  0  0  0  0
 11 12  1  0  0  0  0
 13 12  1  0  0  0  0
 13 14  2  0  0  0  0
 15 13  1  0  0  0  0
 17 16  1  1  0  0  0
 17 15  1  0  0  0  0
 18 20  1  0  0  0  0
 18 17  1  0  0  0  0
 19 18  2  0  0  0  0
 21 27  1  6  0  0  0
 21 22  1  0  0  0  0
 22 25  1  0  0  0  0
 23 24  1  0  0  0  0
 23 21  1  0  0  0  0
 24 26  1  0  0  0  0
 26  1  1  1  0  0  0
 26 25  1  0  0  0  0
 28 29  2  0  0  0  0
 29 27  1  0  0  0  0
 30 28  2  0  0  0  0
 30 31  1  0  0  0  0
 32 36  1  0  0  0  0
 32 33  1  0  0  0  0
 33 35  1  0  0  0  0
 34 31  1  0  0  0  0
 34 35  1  0  0  0  0
 36 34  1  0  0  0  0
 37 40  1  0  0  0  0
 38 39  2  0  0  0  0
 39 40  1  0  0  0  0
 39 42  1  0  0  0  0
 41 42  1  0  0  0  0
M  END
>  <MODEL>
8

>  <REMARK>
 VINA RESULT:      -6.0      5.890     11.267
  Name = 
  17 active torsions:
  status: ('A' for Active; 'I' for Inactive)
    1  A    between atoms: C_4  and  S_42
    2  A    between atoms: O_5  and  C_12
    3  A    between atoms: O_5  and  C_14
    4  A    between atoms: C_6  and  C_8
    5  A    between atoms: C_8  and  C_35
    6  A    between atoms: C_8  and  C_40
    7  A    between atoms: C_9  and  N_16
    8  A    between atoms: N_10  and  C_11
    9  A    between atoms: C_11  and  C_38
   10  A    between atoms: C_13  and  C_32
   11  A    between atoms: C_13  and  O_37
   12  A    between atoms: N_16  and  C_31
   13  A    between atoms: C_18  and  C_26
   14  A    between atoms: C_26  and  O_37
   15  A    between atoms: C_29  and  O_34
   16  A    between atoms: C_32  and  S_42
   17  A    between atoms: C_35  and  N_41
                            x       y       z     vdW  Elec       q    Type
                         _______ _______ _______ _____ _____    ______ ____

>  <TORSDO>
F 17

$$$$
=
 OpenBabel11042413373D

 42 44  0  0  1  0  0  0  0  0999 V2000
  191.0920  173.9950  142.4220 C   0  0  2  0  0  3  0  0  0  0  0  0
  190.5040  174.0690  143.8010 C   0  0  0  0  0  0  0  0  0  0  0  0
  189.7380  175.3530  145.7210 C   0  0  0  0  0  0  0  0  0  0  0  0
  189.4360  174.1540  146.3880 C   0  0  0  0  0  3  0  0  0  0  0  0
  190.2730  175.3020  144.4300 C   0  0  0  0  0  3  0  0  0  0  0  0
  189.6690  172.9240  145.7670 C   0  0  0  0  0  3  0  0  0  0  0  0
  190.2030  172.8830  144.4770 C   0  0  0  0  0  3  0  0  0  0  0  0
  189.5220  176.6020  146.3140 O   0  0  0  0  0  0  0  0  0  0  0  0
  187.1720  177.6180  146.6020 C   0  0  0  0  0  0  0  0  0  0  0  0
  188.2720  177.1430  146.4670 C   0  0  0  0  0  0  0  0  0  0  0  0
  185.5640  178.3130  146.7950 S   0  0  0  0  0  0  0  0  0  0  0  0
  185.0760  177.8060  145.1220 C   0  0  0  0  0  2  0  0  0  0  0  0
  185.8510  178.5820  144.1080 C   0  0  0  0  0  0  0  0  0  0  0  0
  185.5770  179.7980  143.9310 O   0  0  0  0  0  0  0  0  0  0  0  0
  186.8830  178.0000  143.3590 O   0  0  0  0  0  0  0  0  0  0  0  0
  188.6660  178.2650  141.8920 O   0  0  0  0  0  1  0  0  0  0  0  0
  187.2880  178.4320  142.0580 C   0  0  1  0  0  3  0  0  0  0  0  0
  186.5110  177.7350  140.9810 C   0  0  0  0  0  0  0  0  0  0  0  0
  187.0650  176.6370  140.3350 O   0  0  0  0  0  0  0  0  0  0  0  0
  185.3550  178.1230  140.6660 O   0  0  0  0  0  1  0  0  0  0  0  0
  195.1320  175.0170  141.2690 C   0  0  2  0  0  3  0  0  0  0  0  0
  194.4230  175.9760  142.2240 C   0  0  0  0  0  2  0  0  0  0  0  0
  194.7090  173.5840  141.5870 C   0  0  0  0  0  2  0  0  0  0  0  0
  193.2650  173.4410  141.4260 N   0  0  0  0  0  2  0  0  0  0  0  0
  192.9140  175.7610  142.1630 C   0  0  0  0  0  2  0  0  0  0  0  0
  192.5960  174.2820  142.4200 C   0  0  1  0  0  3  0  0  0  0  0  0
  196.5710  175.1410  141.4180 N   0  0  0  0  0  2  0  0  0  0  0  0
  197.5990  173.7550  143.0290 C   0  0  0  0  0  0  0  0  0  0  0  0
  197.3680  174.0170  141.7740 C   0  0  0  0  0  3  0  0  0  0  0  0
  197.8300  173.4930  144.2850 C   0  0  0  0  0  3  0  0  0  0  0  0
  197.0450  174.1850  145.3440 C   0  0  0  0  0  2  0  0  0  0  0  0
  193.5920  173.4390  145.7610 C   0  0  0  0  0  2  0  0  0  0  0  0
  193.6360  174.9180  146.0530 C   0  0  0  0  0  2  0  0  0  0  0  0
  195.6610  174.3220  144.9240 N   0  0  0  0  0  0  0  0  0  0  0  0
  195.0610  175.3400  145.7710 C   0  0  0  0  0  2  0  0  0  0  0  0
  194.9780  173.0830  145.2700 C   0  0  0  0  0  2  0  0  0  0  0  0
  190.3230  174.8390  141.4030 C   0  0  0  0  0  2  0  0  0  0  0  0
  187.8190  173.4740  141.4030 O   0  0  0  0  0  0  0  0  0  0  0  0
  188.5480  173.3520  140.3790 C   0  0  0  0  0  0  0  0  0  0  0  0
  189.8180  174.0050  140.3200 N   0  0  0  0  0  2  0  0  0  0  0  0
  188.5850  172.8290  137.9770 C   0  0  0  0  0  1  0  0  0  0  0  0
  188.1280  172.5790  139.2980 O   0  0  0  0  0  0  0  0  0  0  0  0
  1 37  1  6  0  0  0
  1  2  1  0  0  0  0
  2  5  2  0  0  0  0
  2  7  1  0  0  0  0
  3  8  1  0  0  0  0
  3  4  2  0  0  0  0
  5  3  1  0  0  0  0
  6  4  1  0  0  0  0
  7  6  2  0  0  0  0
  8 10  1  0  0  0  0
  9 11  1  0  0  0  0
 10  9  3  0  0  0  0
 12 11  1  0  0  0  0
 13 12  1  0  0  0  0
 14 13  2  0  0  0  0
 15 13  1  0  0  0  0
 17 16  1  6  0  0  0
 17 15  1  0  0  0  0
 18 17  1  0  0  0  0
 19 18  2  0  0  0  0
 20 18  1  0  0  0  0
 21 27  1  1  0  0  0
 21 23  1  0  0  0  0
 21 22  1  0  0  0  0
 24 23  1  0  0  0  0
 24 26  1  0  0  0  0
 25 22  1  0  0  0  0
 25 26  1  0  0  0  0
 26  1  1  6  0  0  0
 27 29  1  0  0  0  0
 28 30  2  0  0  0  0
 29 28  2  0  0  0  0
 30 31  1  0  0  0  0
 32 33  1  0  0  0  0
 34 36  1  0  0  0  0
 34 31  1  0  0  0  0
 34 35  1  0  0  0  0
 35 33  1  0  0  0  0
 36 32  1  0  0  0  0
 39 38  2  0  0  0  0
 40 39  1  0  0  0  0
 40 37  1  0  0  0  0
 41 42  1  0  0  0  0
 42 39  1  0  0  0  0
M  END
>  <MODEL>
9

>  <REMARK>
 VINA RESULT:      -6.0      4.140      8.482
  Name = 
  17 active torsions:
  status: ('A' for Active; 'I' for Inactive)
    1  A    between atoms: C_4  and  S_42
    2  A    between atoms: O_5  and  C_12
    3  A    between atoms: O_5  and  C_14
    4  A    between atoms: C_6  and  C_8
    5  A    between atoms: C_8  and  C_35
    6  A    between atoms: C_8  and  C_40
    7  A    between atoms: C_9  and  N_16
    8  A    between atoms: N_10  and  C_11
    9  A    between atoms: C_11  and  C_38
   10  A    between atoms: C_13  and  C_32
   11  A    between atoms: C_13  and  O_37
   12  A    between atoms: N_16  and  C_31
   13  A    between atoms: C_18  and  C_26
   14  A    between atoms: C_26  and  O_37
   15  A    between atoms: C_29  and  O_34
   16  A    between atoms: C_32  and  S_42
   17  A    between atoms: C_35  and  N_41
                            x       y       z     vdW  Elec       q    Type
                         _______ _______ _______ _____ _____    ______ ____

>  <TORSDO>
F 17

$$$$
