=
 OpenBabel11042418213D

 37 40  0  0  1  0  0  0  0  0999 V2000
  189.3140  174.1710  141.3110 C   0  0  0  0  0  0  0  0  0  0  0  0
  190.1420  175.0260  143.3800 N   0  0  0  0  0  0  0  0  0  0  0  0
  187.9230  175.6060  142.6900 C   0  0  0  0  0  0  0  0  0  0  0  0
  188.1150  174.8430  141.5380 C   0  0  0  0  0  3  0  0  0  0  0  0
  188.9760  175.6860  143.6300 C   0  0  0  0  0  0  0  0  0  0  0  0
  190.3500  174.2790  142.2610 C   0  0  0  0  0  0  0  0  0  0  0  0
  189.4300  173.1260  139.8560 S   0  0  0  0  0  1  0  0  0  0  0  0
  194.7120  173.3730  142.1680 C   0  0  0  0  0  3  0  0  0  0  0  0
  190.7710  171.4140  142.7930 O   0  0  0  0  0  1  0  0  0  0  0  0
  193.0400  171.8170  143.1570 C   0  0  0  0  0  3  0  0  0  0  0  0
  191.6580  173.6120  142.0930 C   0  0  0  0  0  0  0  0  0  0  0  0
  193.8850  173.6280  140.9540 C   0  0  0  0  0  2  0  0  0  0  0  0
  192.5650  174.2210  141.3180 C   0  0  0  0  0  3  0  0  0  0  0  0
  194.3330  172.5300  143.1280 C   0  0  0  0  0  3  0  0  0  0  0  0
  191.8700  172.2570  142.6730 C   0  0  0  0  0  0  0  0  0  0  0  0
  189.4050  175.1740  146.8190 C   0  0  0  0  0  2  0  0  0  0  0  0
  190.5380  177.1330  145.3470 S   0  0  0  0  0  0  0  0  0  0  0  0
  190.4640  176.2430  146.9330 C   0  0  2  0  0  3  0  0  0  0  0  0
  188.2710  175.7720  146.0230 C   0  0  0  0  0  2  0  0  0  0  0  0
  188.8840  176.5370  144.8620 C   0  0  2  0  0  3  0  0  0  0  0  0
  191.8040  175.6050  147.2470 C   0  0  0  0  0  2  0  0  0  0  0  0
  192.4230  175.1300  146.0220 N   0  0  0  0  0  2  0  0  0  0  0  0
  193.8560  175.2880  146.1890 C   0  0  0  0  0  2  0  0  0  0  0  0
  194.3320  176.4440  145.3820 C   0  0  0  0  0  0  0  0  0  0  0  0
  194.7120  177.4990  145.9530 O   0  0  0  0  0  1  0  0  0  0  0  0
  194.3280  176.3700  143.9950 O   0  0  0  0  0  0  0  0  0  0  0  0
  186.6620  176.2750  142.8430 N   0  0  0  0  0  2  0  0  0  0  0  0
  186.8690  178.4590  142.0650 O   0  0  0  0  0  1  0  0  0  0  0  0
  186.1190  177.2880  141.9510 C   0  0  2  0  0  3  0  0  0  0  0  0
  184.7950  177.5520  142.3010 O   0  0  0  0  0  0  0  0  0  0  0  0
  184.8360  178.7960  142.9360 C   0  0  0  0  0  2  0  0  0  0  0  0
  184.0420  178.7470  144.2300 C   0  0  0  0  0  2  0  0  0  0  0  0
  186.0210  178.6600  145.5060 C   0  0  0  0  0  2  0  0  0  0  0  0
  186.3250  178.3480  147.9390 C   0  0  0  0  0  1  0  0  0  0  0  0
  185.5780  179.1260  146.8740 C   0  0  2  0  0  3  0  0  0  0  0  0
  184.2860  178.4120  146.5400 C   0  0  0  0  0  2  0  0  0  0  0  0
  184.7640  177.9720  145.2340 N   0  0  0  0  0  0  0  0  0  0  0  0
  1  4  2  0  0  0  0
  1  6  1  0  0  0  0
  2  5  1  0  0  0  0
  3 27  1  0  0  0  0
  3  5  2  0  0  0  0
  4  3  1  0  0  0  0
  6  2  2  0  0  0  0
  7  1  1  0  0  0  0
  8 14  2  0  0  0  0
 11  6  1  0  0  0  0
 11 15  1  0  0  0  0
 12 13  1  0  0  0  0
 12  8  1  0  0  0  0
 13 11  2  0  0  0  0
 14 10  1  0  0  0  0
 15  9  1  0  0  0  0
 15 10  2  0  0  0  0
 16 18  1  0  0  0  0
 17 18  1  0  0  0  0
 18 21  1  6  0  0  0
 19 16  1  0  0  0  0
 20  5  1  6  0  0  0
 20 17  1  0  0  0  0
 20 19  1  0  0  0  0
 22 23  1  0  0  0  0
 22 21  1  0  0  0  0
 24 25  1  0  0  0  0
 24 23  1  0  0  0  0
 26 24  2  0  0  0  0
 29 28  1  1  0  0  0
 29 30  1  0  0  0  0
 29 27  1  0  0  0  0
 30 31  1  0  0  0  0
 31 32  1  0  0  0  0
 32 37  1  0  0  0  0
 33 35  1  0  0  0  0
 35 34  1  1  0  0  0
 36 35  1  0  0  0  0
 37 33  1  0  0  0  0
 37 36  1  0  0  0  0
M  END
>  <MODEL>
1

>  <REMARK>
 VINA RESULT:      -6.6      0.000      0.000
  Name = 
  12 active torsions:
  status: ('A' for Active; 'I' for Inactive)
    1  A    between atoms: C_1  and  C_9
    2  A    between atoms: C_1  and  N_13
    3  A    between atoms: C_5  and  N_29
    4  A    between atoms: C_11  and  C_35
    5  A    between atoms: C_12  and  C_20
    6  A    between atoms: N_13  and  C_17
    7  A    between atoms: C_15  and  N_32
    8  A    between atoms: C_15  and  C_37
    9  A    between atoms: C_17  and  C_18
   10  A    between atoms: N_29  and  C_31
   11  A    between atoms: C_31  and  O_34
   12  A    between atoms: O_34  and  C_37
                            x       y       z     vdW  Elec       q    Type
                         _______ _______ _______ _____ _____    ______ ____

>  <TORSDO>
F 12

$$$$
=
 OpenBabel11042418213D

 37 40  0  0  1  0  0  0  0  0999 V2000
  189.4780  173.6370  141.7760 C   0  0  0  0  0  0  0  0  0  0  0  0
  190.0870  174.7850  143.7780 N   0  0  0  0  0  0  0  0  0  0  0  0
  188.0020  175.3160  142.7260 C   0  0  0  0  0  0  0  0  0  0  0  0
  188.2950  174.3730  141.7400 C   0  0  0  0  0  3  0  0  0  0  0  0
  188.9350  175.5120  143.7710 C   0  0  0  0  0  0  0  0  0  0  0  0
  190.3930  173.8640  142.8250 C   0  0  0  0  0  0  0  0  0  0  0  0
  189.7190  172.3710  140.5280 S   0  0  0  0  0  1  0  0  0  0  0  0
  193.5080  170.6830  143.0220 C   0  0  0  0  0  3  0  0  0  0  0  0
  192.9120  174.8820  141.6920 O   0  0  0  0  0  1  0  0  0  0  0  0
  193.7450  172.7050  141.5910 C   0  0  0  0  0  3  0  0  0  0  0  0
  191.6760  173.1380  142.9310 C   0  0  0  0  0  0  0  0  0  0  0  0
  193.0360  171.4660  144.2000 C   0  0  0  0  0  2  0  0  0  0  0  0
  191.7790  172.2040  143.8860 C   0  0  0  0  0  3  0  0  0  0  0  0
  193.8560  171.2610  141.8720 C   0  0  0  0  0  3  0  0  0  0  0  0
  192.8250  173.5500  142.0760 C   0  0  0  0  0  0  0  0  0  0  0  0
  189.3850  175.6200  146.9960 C   0  0  0  0  0  2  0  0  0  0  0  0
  190.3070  177.4040  145.1910 S   0  0  0  0  0  0  0  0  0  0  0  0
  190.3160  176.8050  146.9100 C   0  0  2  0  0  3  0  0  0  0  0  0
  188.1990  175.9380  146.1180 C   0  0  0  0  0  2  0  0  0  0  0  0
  188.7350  176.5510  144.8340 C   0  0  2  0  0  3  0  0  0  0  0  0
  191.7150  176.3860  147.3190 C   0  0  0  0  0  2  0  0  0  0  0  0
  192.3750  175.7210  146.2090 N   0  0  0  0  0  2  0  0  0  0  0  0
  193.8020  175.8110  146.4570 C   0  0  0  0  0  2  0  0  0  0  0  0
  194.4330  176.7070  145.4500 C   0  0  0  0  0  0  0  0  0  0  0  0
  194.5800  176.3180  144.2630 O   0  0  0  0  0  0  0  0  0  0  0  0
  194.8870  177.9640  145.8290 O   0  0  0  0  0  1  0  0  0  0  0  0
  186.7670  176.0390  142.6100 N   0  0  0  0  0  2  0  0  0  0  0  0
  187.3000  178.1780  141.8640 O   0  0  0  0  0  1  0  0  0  0  0  0
  186.4750  177.0770  141.6340 C   0  0  2  0  0  3  0  0  0  0  0  0
  185.1400  177.4660  141.7570 O   0  0  0  0  0  0  0  0  0  0  0  0
  185.1830  178.6540  142.4910 C   0  0  0  0  0  2  0  0  0  0  0  0
  184.0730  178.6660  143.5270 C   0  0  0  0  0  2  0  0  0  0  0  0
  184.0260  178.7180  145.8820 C   0  0  0  0  0  2  0  0  0  0  0  0
  185.8680  179.0550  147.4960 C   0  0  0  0  0  1  0  0  0  0  0  0
  185.4200  178.2830  146.2710 C   0  0  2  0  0  3  0  0  0  0  0  0
  185.8450  179.0240  145.0230 C   0  0  0  0  0  2  0  0  0  0  0  0
  184.4840  179.4350  144.6970 N   0  0  0  0  0  0  0  0  0  0  0  0
  1  6  1  0  0  0  0
  3  5  2  0  0  0  0
  4  1  2  0  0  0  0
  4  3  1  0  0  0  0
  5  2  1  0  0  0  0
  6 11  1  0  0  0  0
  6  2  2  0  0  0  0
  7  1  1  0  0  0  0
  8 12  1  0  0  0  0
  9 15  1  0  0  0  0
 10 14  1  0  0  0  0
 10 15  2  0  0  0  0
 11 13  2  0  0  0  0
 13 12  1  0  0  0  0
 14  8  2  0  0  0  0
 15 11  1  0  0  0  0
 17 18  1  0  0  0  0
 18 16  1  0  0  0  0
 18 21  1  6  0  0  0
 19 16  1  0  0  0  0
 20  5  1  6  0  0  0
 20 17  1  0  0  0  0
 20 19  1  0  0  0  0
 22 23  1  0  0  0  0
 22 21  1  0  0  0  0
 24 26  1  0  0  0  0
 24 23  1  0  0  0  0
 25 24  2  0  0  0  0
 27  3  1  0  0  0  0
 29 30  1  0  0  0  0
 29 28  1  1  0  0  0
 29 27  1  0  0  0  0
 30 31  1  0  0  0  0
 31 32  1  0  0  0  0
 32 37  1  0  0  0  0
 33 35  1  0  0  0  0
 35 34  1  1  0  0  0
 36 35  1  0  0  0  0
 37 36  1  0  0  0  0
 37 33  1  0  0  0  0
M  END
>  <MODEL>
2

>  <REMARK>
 VINA RESULT:      -6.5      1.039      1.616
  Name = 
  12 active torsions:
  status: ('A' for Active; 'I' for Inactive)
    1  A    between atoms: C_1  and  C_9
    2  A    between atoms: C_1  and  N_13
    3  A    between atoms: C_5  and  N_29
    4  A    between atoms: C_11  and  C_35
    5  A    between atoms: C_12  and  C_20
    6  A    between atoms: N_13  and  C_17
    7  A    between atoms: C_15  and  N_32
    8  A    between atoms: C_15  and  C_37
    9  A    between atoms: C_17  and  C_18
   10  A    between atoms: N_29  and  C_31
   11  A    between atoms: C_31  and  O_34
   12  A    between atoms: O_34  and  C_37
                            x       y       z     vdW  Elec       q    Type
                         _______ _______ _______ _____ _____    ______ ____

>  <TORSDO>
F 12

$$$$
=
 OpenBabel11042418213D

 37 40  0  0  1  0  0  0  0  0999 V2000
  190.3560  177.3840  143.2520 C   0  0  0  0  0  0  0  0  0  0  0  0
  190.0340  175.0860  142.6930 N   0  0  0  0  0  0  0  0  0  0  0  0
  188.5860  176.7290  141.7240 C   0  0  0  0  0  0  0  0  0  0  0  0
  189.2840  177.7130  142.4240 C   0  0  0  0  0  3  0  0  0  0  0  0
  188.9880  175.3820  141.8710 C   0  0  0  0  0  0  0  0  0  0  0  0
  190.7260  176.0310  143.3870 C   0  0  0  0  0  0  0  0  0  0  0  0
  191.2640  178.7260  144.0250 S   0  0  0  0  0  1  0  0  0  0  0  0
  194.6830  175.6310  145.3960 C   0  0  0  0  0  3  0  0  0  0  0  0
  190.3360  175.0900  146.1490 O   0  0  0  0  0  1  0  0  0  0  0  0
  192.5370  175.6720  146.6560 C   0  0  0  0  0  3  0  0  0  0  0  0
  191.8400  175.5930  144.2540 C   0  0  0  0  0  0  0  0  0  0  0  0
  194.1640  174.6780  144.3740 C   0  0  0  0  0  2  0  0  0  0  0  0
  192.9870  175.2480  143.6560 C   0  0  0  0  0  3  0  0  0  0  0  0
  193.9500  176.0370  146.4330 C   0  0  0  0  0  3  0  0  0  0  0  0
  191.6110  175.4340  145.7170 C   0  0  0  0  0  0  0  0  0  0  0  0
  189.7380  173.1520  139.6160 C   0  0  0  0  0  2  0  0  0  0  0  0
  188.6430  172.6740  142.0370 S   0  0  0  0  0  0  0  0  0  0  0  0
  189.4000  171.9970  140.5260 C   0  0  2  0  0  3  0  0  0  0  0  0
  188.6060  174.1430  139.7380 C   0  0  0  0  0  2  0  0  0  0  0  0
  188.2530  174.2520  141.2120 C   0  0  2  0  0  3  0  0  0  0  0  0
  190.6610  171.2260  140.8650 C   0  0  0  0  0  2  0  0  0  0  0  0
  190.6330  170.8210  142.2590 N   0  0  0  0  0  2  0  0  0  0  0  0
  192.0140  170.7520  142.7020 C   0  0  0  0  0  2  0  0  0  0  0  0
  192.1480  171.4000  144.0340 C   0  0  0  0  0  0  0  0  0  0  0  0
  193.2040  171.2550  144.7040 O   0  0  0  0  0  1  0  0  0  0  0  0
  191.0960  172.1430  144.5530 O   0  0  0  0  0  0  0  0  0  0  0  0
  187.4880  177.1510  140.9010 N   0  0  0  0  0  2  0  0  0  0  0  0
  185.3140  177.7200  140.2920 O   0  0  0  0  0  1  0  0  0  0  0  0
  186.1850  177.5920  141.3750 C   0  0  2  0  0  3  0  0  0  0  0  0
  186.3160  178.8260  142.0110 O   0  0  0  0  0  0  0  0  0  0  0  0
  185.3040  178.8380  142.9750 C   0  0  0  0  0  2  0  0  0  0  0  0
  185.2700  177.5090  143.7100 C   0  0  0  0  0  2  0  0  0  0  0  0
  185.7420  176.8600  145.9250 C   0  0  0  0  0  2  0  0  0  0  0  0
  186.1820  178.2470  147.9230 C   0  0  0  0  0  1  0  0  0  0  0  0
  186.5430  178.0210  146.4690 C   0  0  2  0  0  3  0  0  0  0  0  0
  185.6480  178.8640  145.5880 C   0  0  0  0  0  2  0  0  0  0  0  0
  184.8920  177.7150  145.1040 N   0  0  0  0  0  0  0  0  0  0  0  0
  1  6  1  0  0  0  0
  1  7  1  0  0  0  0
  2  6  2  0  0  0  0
  3  5  2  0  0  0  0
  3  4  1  0  0  0  0
  4  1  2  0  0  0  0
  5  2  1  0  0  0  0
  6 11  1  0  0  0  0
  8 14  2  0  0  0  0
 11 15  1  0  0  0  0
 12  8  1  0  0  0  0
 13 11  2  0  0  0  0
 13 12  1  0  0  0  0
 14 10  1  0  0  0  0
 15  9  1  0  0  0  0
 15 10  2  0  0  0  0
 16 19  1  0  0  0  0
 16 18  1  0  0  0  0
 18 21  1  1  0  0  0
 18 17  1  0  0  0  0
 19 20  1  0  0  0  0
 20  5  1  1  0  0  0
 20 17  1  0  0  0  0
 21 22  1  0  0  0  0
 22 23  1  0  0  0  0
 23 24  1  0  0  0  0
 24 26  2  0  0  0  0
 24 25  1  0  0  0  0
 27 29  1  0  0  0  0
 27  3  1  0  0  0  0
 29 28  1  6  0  0  0
 29 30  1  0  0  0  0
 30 31  1  0  0  0  0
 31 32  1  0  0  0  0
 32 37  1  0  0  0  0
 33 35  1  0  0  0  0
 35 34  1  1  0  0  0
 36 35  1  0  0  0  0
 37 36  1  0  0  0  0
 37 33  1  0  0  0  0
M  END
>  <MODEL>
3

>  <REMARK>
 VINA RESULT:      -6.2      2.165      4.363
  Name = 
  12 active torsions:
  status: ('A' for Active; 'I' for Inactive)
    1  A    between atoms: C_1  and  C_9
    2  A    between atoms: C_1  and  N_13
    3  A    between atoms: C_5  and  N_29
    4  A    between atoms: C_11  and  C_35
    5  A    between atoms: C_12  and  C_20
    6  A    between atoms: N_13  and  C_17
    7  A    between atoms: C_15  and  N_32
    8  A    between atoms: C_15  and  C_37
    9  A    between atoms: C_17  and  C_18
   10  A    between atoms: N_29  and  C_31
   11  A    between atoms: C_31  and  O_34
   12  A    between atoms: O_34  and  C_37
                            x       y       z     vdW  Elec       q    Type
                         _______ _______ _______ _____ _____    ______ ____

>  <TORSDO>
F 12

$$$$
=
 OpenBabel11042418213D

 37 40  0  0  1  0  0  0  0  0999 V2000
  188.8880  174.2720  140.9180 C   0  0  0  0  0  0  0  0  0  0  0  0
  190.1980  175.2260  142.6690 N   0  0  0  0  0  0  0  0  0  0  0  0
  188.3240  176.4540  141.8230 C   0  0  0  0  0  0  0  0  0  0  0  0
  188.0790  175.4070  140.9340 C   0  0  0  0  0  3  0  0  0  0  0  0
  189.4180  176.3420  142.7120 C   0  0  0  0  0  0  0  0  0  0  0  0
  189.9770  174.1950  141.8090 C   0  0  0  0  0  0  0  0  0  0  0  0
  188.4300  172.9300  139.8180 S   0  0  0  0  0  1  0  0  0  0  0  0
  191.6570  170.0700  141.9500 C   0  0  0  0  0  3  0  0  0  0  0  0
  192.5410  174.1270  140.3630 O   0  0  0  0  0  1  0  0  0  0  0  0
  192.4700  171.7950  140.3510 C   0  0  0  0  0  3  0  0  0  0  0  0
  190.8940  173.0360  141.8470 C   0  0  0  0  0  0  0  0  0  0  0  0
  191.6600  171.0150  143.1040 C   0  0  0  0  0  2  0  0  0  0  0  0
  190.7480  172.1680  142.8560 C   0  0  0  0  0  3  0  0  0  0  0  0
  192.0580  170.4290  140.7310 C   0  0  0  0  0  3  0  0  0  0  0  0
  192.0020  172.9440  140.8560 C   0  0  0  0  0  0  0  0  0  0  0  0
  189.7050  176.6140  145.9470 C   0  0  0  0  0  2  0  0  0  0  0  0
  191.5580  177.3130  144.1120 S   0  0  0  0  0  0  0  0  0  0  0  0
  191.1470  177.0500  145.8660 C   0  0  2  0  0  3  0  0  0  0  0  0
  188.9520  177.4190  144.9150 C   0  0  0  0  0  2  0  0  0  0  0  0
  189.7980  177.4470  143.6530 C   0  0  2  0  0  3  0  0  0  0  0  0
  192.0390  175.9790  146.4650 C   0  0  0  0  0  2  0  0  0  0  0  0
  193.4340  176.3170  146.2410 N   0  0  0  0  0  2  0  0  0  0  0  0
  194.1360  175.0670  146.0160 C   0  0  0  0  0  2  0  0  0  0  0  0
  195.4160  175.3300  145.3050 C   0  0  0  0  0  0  0  0  0  0  0  0
  195.5080  176.2980  144.5060 O   0  0  0  0  0  0  0  0  0  0  0  0
  196.5030  174.4880  145.5000 O   0  0  0  0  0  1  0  0  0  0  0  0
  187.4500  177.5910  141.7700 N   0  0  0  0  0  2  0  0  0  0  0  0
  186.1350  177.7960  139.8590 O   0  0  0  0  0  1  0  0  0  0  0  0
  186.0940  177.6020  141.2400 C   0  0  2  0  0  3  0  0  0  0  0  0
  185.3740  178.6400  141.8320 O   0  0  0  0  0  0  0  0  0  0  0  0
  184.4110  178.0000  142.6170 C   0  0  0  0  0  2  0  0  0  0  0  0
  184.1650  178.7940  143.8890 C   0  0  0  0  0  2  0  0  0  0  0  0
  184.7460  178.7070  146.1700 C   0  0  0  0  0  2  0  0  0  0  0  0
  186.0600  177.0180  147.4060 C   0  0  0  0  0  1  0  0  0  0  0  0
  184.9180  177.2280  146.4330 C   0  0  2  0  0  3  0  0  0  0  0  0
  185.4470  177.1850  145.0160 C   0  0  0  0  0  2  0  0  0  0  0  0
  185.2780  178.6190  144.8150 N   0  0  0  0  0  0  0  0  0  0  0  0
  1  4  2  0  0  0  0
  1  6  1  0  0  0  0
  2  5  1  0  0  0  0
  3  5  2  0  0  0  0
  4  3  1  0  0  0  0
  6 11  1  0  0  0  0
  6  2  2  0  0  0  0
  7  1  1  0  0  0  0
  8 12  1  0  0  0  0
  9 15  1  0  0  0  0
 10 14  1  0  0  0  0
 10 15  2  0  0  0  0
 11 13  2  0  0  0  0
 13 12  1  0  0  0  0
 14  8  2  0  0  0  0
 15 11  1  0  0  0  0
 17 18  1  0  0  0  0
 18 16  1  0  0  0  0
 18 21  1  6  0  0  0
 19 16  1  0  0  0  0
 20  5  1  6  0  0  0
 20 17  1  0  0  0  0
 20 19  1  0  0  0  0
 22 21  1  0  0  0  0
 23 22  1  0  0  0  0
 24 26  1  0  0  0  0
 24 23  1  0  0  0  0
 25 24  2  0  0  0  0
 27  3  1  0  0  0  0
 29 28  1  6  0  0  0
 29 27  1  0  0  0  0
 29 30  1  0  0  0  0
 30 31  1  0  0  0  0
 31 32  1  0  0  0  0
 32 37  1  0  0  0  0
 33 35  1  0  0  0  0
 35 34  1  1  0  0  0
 36 35  1  0  0  0  0
 37 36  1  0  0  0  0
 37 33  1  0  0  0  0
M  END
>  <MODEL>
4

>  <REMARK>
 VINA RESULT:      -6.2      1.611      2.082
  Name = 
  12 active torsions:
  status: ('A' for Active; 'I' for Inactive)
    1  A    between atoms: C_1  and  C_9
    2  A    between atoms: C_1  and  N_13
    3  A    between atoms: C_5  and  N_29
    4  A    between atoms: C_11  and  C_35
    5  A    between atoms: C_12  and  C_20
    6  A    between atoms: N_13  and  C_17
    7  A    between atoms: C_15  and  N_32
    8  A    between atoms: C_15  and  C_37
    9  A    between atoms: C_17  and  C_18
   10  A    between atoms: N_29  and  C_31
   11  A    between atoms: C_31  and  O_34
   12  A    between atoms: O_34  and  C_37
                            x       y       z     vdW  Elec       q    Type
                         _______ _______ _______ _____ _____    ______ ____

>  <TORSDO>
F 12

$$$$
=
 OpenBabel11042418213D

 37 40  0  0  1  0  0  0  0  0999 V2000
  189.8580  177.2660  147.0940 C   0  0  0  0  0  0  0  0  0  0  0  0
  189.5200  175.6710  145.3500 N   0  0  0  0  0  0  0  0  0  0  0  0
  191.6660  175.7990  146.4050 C   0  0  0  0  0  0  0  0  0  0  0  0
  191.1730  176.8230  147.2140 C   0  0  0  0  0  3  0  0  0  0  0  0
  190.7990  175.2140  145.4530 C   0  0  0  0  0  0  0  0  0  0  0  0
  189.0210  176.6710  146.1280 C   0  0  0  0  0  0  0  0  0  0  0  0
  189.2800  178.5100  148.2510 S   0  0  0  0  0  1  0  0  0  0  0  0
  184.8490  178.1070  146.7520 C   0  0  0  0  0  3  0  0  0  0  0  0
  188.1100  178.1190  143.7320 O   0  0  0  0  0  1  0  0  0  0  0  0
  186.3130  178.9850  144.9410 C   0  0  0  0  0  3  0  0  0  0  0  0
  187.6180  177.0890  145.9240 C   0  0  0  0  0  0  0  0  0  0  0  0
  185.2130  176.6870  146.4760 C   0  0  0  0  0  2  0  0  0  0  0  0
  186.6780  176.4660  146.6440 C   0  0  0  0  0  3  0  0  0  0  0  0
  185.3250  179.1200  146.0290 C   0  0  0  0  0  3  0  0  0  0  0  0
  187.2960  178.0780  144.8570 C   0  0  0  0  0  0  0  0  0  0  0  0
  189.3670  172.7430  143.8850 C   0  0  0  0  0  2  0  0  0  0  0  0
  190.9130  174.6590  142.7770 S   0  0  0  0  0  0  0  0  0  0  0  0
  189.7840  173.2530  142.5270 C   0  0  2  0  0  3  0  0  0  0  0  0
  190.5870  172.8230  144.7700 C   0  0  0  0  0  2  0  0  0  0  0  0
  191.2620  174.1570  144.4950 C   0  0  2  0  0  3  0  0  0  0  0  0
  188.5590  173.6900  141.7460 C   0  0  0  0  0  2  0  0  0  0  0  0
  188.3560  175.1190  141.9050 N   0  0  0  0  0  2  0  0  0  0  0  0
  187.7570  175.5950  140.6720 C   0  0  0  0  0  2  0  0  0  0  0  0
  187.1460  176.9340  140.8940 C   0  0  0  0  0  0  0  0  0  0  0  0
  187.7710  177.9750  140.5650 O   0  0  0  0  0  0  0  0  0  0  0  0
  185.8970  177.0360  141.4920 O   0  0  0  0  0  1  0  0  0  0  0  0
  193.0360  175.4080  146.5860 N   0  0  0  0  0  2  0  0  0  0  0  0
  194.4050  177.2710  146.8550 O   0  0  0  0  0  1  0  0  0  0  0  0
  194.2010  176.1240  146.0880 C   0  0  2  0  0  3  0  0  0  0  0  0
  193.9880  176.4880  144.7580 O   0  0  0  0  0  0  0  0  0  0  0  0
  194.6240  175.4930  144.0110 C   0  0  0  0  0  2  0  0  0  0  0  0
  196.1180  175.5150  144.2830 C   0  0  0  0  0  2  0  0  0  0  0  0
  197.4790  173.8840  145.3030 C   0  0  0  0  0  2  0  0  0  0  0  0
  197.0480  171.4820  145.6990 C   0  0  0  0  0  1  0  0  0  0  0  0
  196.4840  172.8820  145.8410 C   0  0  2  0  0  3  0  0  0  0  0  0
  195.6820  173.2320  144.6080 C   0  0  0  0  0  2  0  0  0  0  0  0
  196.6790  174.1770  144.1190 N   0  0  0  0  0  0  0  0  0  0  0  0
  1  4  1  0  0  0  0
  1  7  1  0  0  0  0
  2  5  2  0  0  0  0
  2  6  1  0  0  0  0
  3 27  1  0  0  0  0
  3  4  2  0  0  0  0
  5  3  1  0  0  0  0
  6  1  2  0  0  0  0
  9 15  1  0  0  0  0
 10 14  1  0  0  0  0
 11  6  1  0  0  0  0
 11 13  2  0  0  0  0
 12 13  1  0  0  0  0
 12  8  1  0  0  0  0
 14  8  2  0  0  0  0
 15 10  2  0  0  0  0
 15 11  1  0  0  0  0
 16 19  1  0  0  0  0
 17 20  1  0  0  0  0
 18 21  1  6  0  0  0
 18 17  1  0  0  0  0
 18 16  1  0  0  0  0
 20 19  1  0  0  0  0
 20  5  1  1  0  0  0
 21 22  1  0  0  0  0
 23 24  1  0  0  0  0
 23 22  1  0  0  0  0
 24 26  1  0  0  0  0
 25 24  2  0  0  0  0
 29 27  1  0  0  0  0
 29 28  1  1  0  0  0
 30 29  1  0  0  0  0
 31 32  1  0  0  0  0
 31 30  1  0  0  0  0
 33 35  1  0  0  0  0
 35 34  1  6  0  0  0
 36 35  1  0  0  0  0
 37 32  1  0  0  0  0
 37 36  1  0  0  0  0
 37 33  1  0  0  0  0
M  END
>  <MODEL>
5

>  <REMARK>
 VINA RESULT:      -6.2      2.366      8.688
  Name = 
  12 active torsions:
  status: ('A' for Active; 'I' for Inactive)
    1  A    between atoms: C_1  and  C_9
    2  A    between atoms: C_1  and  N_13
    3  A    between atoms: C_5  and  N_29
    4  A    between atoms: C_11  and  C_35
    5  A    between atoms: C_12  and  C_20
    6  A    between atoms: N_13  and  C_17
    7  A    between atoms: C_15  and  N_32
    8  A    between atoms: C_15  and  C_37
    9  A    between atoms: C_17  and  C_18
   10  A    between atoms: N_29  and  C_31
   11  A    between atoms: C_31  and  O_34
   12  A    between atoms: O_34  and  C_37
                            x       y       z     vdW  Elec       q    Type
                         _______ _______ _______ _____ _____    ______ ____

>  <TORSDO>
F 12

$$$$
=
 OpenBabel11042418213D

 37 40  0  0  1  0  0  0  0  0999 V2000
  188.6920  174.2480  140.6030 C   0  0  0  0  0  0  0  0  0  0  0  0
  189.7770  175.3490  142.4220 N   0  0  0  0  0  0  0  0  0  0  0  0
  188.0080  176.4810  141.2690 C   0  0  0  0  0  0  0  0  0  0  0  0
  187.8780  175.3670  140.4390 C   0  0  0  0  0  3  0  0  0  0  0  0
  188.9890  176.4530  142.2880 C   0  0  0  0  0  0  0  0  0  0  0  0
  189.6680  174.2550  141.6210 C   0  0  0  0  0  0  0  0  0  0  0  0
  188.3790  172.8210  139.5610 S   0  0  0  0  0  1  0  0  0  0  0  0
  193.2820  171.7350  142.2880 C   0  0  0  0  0  3  0  0  0  0  0  0
  188.9620  171.9510  143.3120 O   0  0  0  0  0  1  0  0  0  0  0  0
  191.2270  171.5260  143.6760 C   0  0  0  0  0  3  0  0  0  0  0  0
  190.5810  173.1170  141.8540 C   0  0  0  0  0  0  0  0  0  0  0  0
  192.5170  171.7780  141.0080 C   0  0  0  0  0  2  0  0  0  0  0  0
  191.5810  172.9390  140.9820 C   0  0  0  0  0  3  0  0  0  0  0  0
  192.6880  171.5840  143.4710 C   0  0  0  0  0  3  0  0  0  0  0  0
  190.2890  172.1560  142.9550 C   0  0  0  0  0  0  0  0  0  0  0  0
  189.1560  176.9030  145.5110 C   0  0  0  0  0  2  0  0  0  0  0  0
  190.9960  177.6710  143.6900 S   0  0  0  0  0  0  0  0  0  0  0  0
  190.5580  177.4570  145.4440 C   0  0  2  0  0  3  0  0  0  0  0  0
  188.3680  177.5890  144.4220 C   0  0  0  0  0  2  0  0  0  0  0  0
  189.2450  177.6300  143.1820 C   0  0  2  0  0  3  0  0  0  0  0  0
  191.5210  176.4980  146.1180 C   0  0  0  0  0  2  0  0  0  0  0  0
  192.7720  176.4570  145.3830 N   0  0  0  0  0  2  0  0  0  0  0  0
  192.9860  175.0740  144.9980 C   0  0  0  0  0  2  0  0  0  0  0  0
  193.9800  175.0070  143.8930 C   0  0  0  0  0  0  0  0  0  0  0  0
  193.6280  175.2550  142.7110 O   0  0  0  0  0  0  0  0  0  0  0  0
  195.2920  174.6420  144.1630 O   0  0  0  0  0  1  0  0  0  0  0  0
  187.1380  177.5970  141.0270 N   0  0  0  0  0  2  0  0  0  0  0  0
  185.0070  178.0470  140.2060 O   0  0  0  0  0  1  0  0  0  0  0  0
  185.7190  177.6570  141.3410 C   0  0  2  0  0  3  0  0  0  0  0  0
  185.5080  178.5840  142.3610 O   0  0  0  0  0  0  0  0  0  0  0  0
  184.1810  178.3850  142.7530 C   0  0  0  0  0  2  0  0  0  0  0  0
  184.0160  178.7320  144.2230 C   0  0  0  0  0  2  0  0  0  0  0  0
  185.5090  179.3770  145.9270 C   0  0  0  0  0  2  0  0  0  0  0  0
  186.2620  178.1360  147.9280 C   0  0  0  0  0  1  0  0  0  0  0  0
  185.0540  178.5650  147.1190 C   0  0  2  0  0  3  0  0  0  0  0  0
  184.7310  177.5040  146.0910 C   0  0  0  0  0  2  0  0  0  0  0  0
  185.1970  178.3190  144.9740 N   0  0  0  0  0  0  0  0  0  0  0  0
  1  6  1  0  0  0  0
  3  5  2  0  0  0  0
  4  1  2  0  0  0  0
  4  3  1  0  0  0  0
  5  2  1  0  0  0  0
  6 11  1  0  0  0  0
  6  2  2  0  0  0  0
  7  1  1  0  0  0  0
  8 14  2  0  0  0  0
 11 15  1  0  0  0  0
 12  8  1  0  0  0  0
 13 12  1  0  0  0  0
 13 11  2  0  0  0  0
 14 10  1  0  0  0  0
 15  9  1  0  0  0  0
 15 10  2  0  0  0  0
 17 18  1  0  0  0  0
 18 16  1  0  0  0  0
 18 21  1  6  0  0  0
 19 16  1  0  0  0  0
 20  5  1  6  0  0  0
 20 17  1  0  0  0  0
 20 19  1  0  0  0  0
 22 21  1  0  0  0  0
 23 22  1  0  0  0  0
 24 26  1  0  0  0  0
 24 23  1  0  0  0  0
 25 24  2  0  0  0  0
 27  3  1  0  0  0  0
 27 29  1  0  0  0  0
 29 28  1  6  0  0  0
 29 30  1  0  0  0  0
 30 31  1  0  0  0  0
 31 32  1  0  0  0  0
 32 37  1  0  0  0  0
 33 35  1  0  0  0  0
 35 34  1  1  0  0  0
 36 35  1  0  0  0  0
 37 33  1  0  0  0  0
 37 36  1  0  0  0  0
M  END
>  <MODEL>
6

>  <REMARK>
 VINA RESULT:      -6.2      1.502      1.731
  Name = 
  12 active torsions:
  status: ('A' for Active; 'I' for Inactive)
    1  A    between atoms: C_1  and  C_9
    2  A    between atoms: C_1  and  N_13
    3  A    between atoms: C_5  and  N_29
    4  A    between atoms: C_11  and  C_35
    5  A    between atoms: C_12  and  C_20
    6  A    between atoms: N_13  and  C_17
    7  A    between atoms: C_15  and  N_32
    8  A    between atoms: C_15  and  C_37
    9  A    between atoms: C_17  and  C_18
   10  A    between atoms: N_29  and  C_31
   11  A    between atoms: C_31  and  O_34
   12  A    between atoms: O_34  and  C_37
                            x       y       z     vdW  Elec       q    Type
                         _______ _______ _______ _____ _____    ______ ____

>  <TORSDO>
F 12

$$$$
=
 OpenBabel11042418213D

 37 40  0  0  1  0  0  0  0  0999 V2000
  190.4090  177.3760  143.1340 C   0  0  0  0  0  0  0  0  0  0  0  0
  190.1540  175.1080  142.4350 N   0  0  0  0  0  0  0  0  0  0  0  0
  188.5380  176.7280  141.7290 C   0  0  0  0  0  0  0  0  0  0  0  0
  189.2480  177.6990  142.4350 C   0  0  0  0  0  3  0  0  0  0  0  0
  189.0210  175.3990  141.7360 C   0  0  0  0  0  0  0  0  0  0  0  0
  190.8590  176.0400  143.1320 C   0  0  0  0  0  0  0  0  0  0  0  0
  191.3150  178.7100  143.9210 S   0  0  0  0  0  1  0  0  0  0  0  0
  193.7720  173.7760  145.6320 C   0  0  0  0  0  3  0  0  0  0  0  0
  193.5860  176.4910  142.1170 O   0  0  0  0  0  1  0  0  0  0  0  0
  194.3560  174.6970  143.3950 C   0  0  0  0  0  3  0  0  0  0  0  0
  192.0720  175.6080  143.8590 C   0  0  0  0  0  0  0  0  0  0  0  0
  193.0940  175.0310  146.0670 C   0  0  0  0  0  2  0  0  0  0  0  0
  191.9500  175.3620  145.1700 C   0  0  0  0  0  3  0  0  0  0  0  0
  194.3640  173.6580  144.4440 C   0  0  0  0  0  3  0  0  0  0  0  0
  193.3820  175.5840  143.1510 C   0  0  0  0  0  0  0  0  0  0  0  0
  189.7820  173.1760  139.4790 C   0  0  0  0  0  2  0  0  0  0  0  0
  188.6560  172.6920  141.8850 S   0  0  0  0  0  0  0  0  0  0  0  0
  189.4260  172.0180  140.3790 C   0  0  2  0  0  3  0  0  0  0  0  0
  188.6550  174.1740  139.5930 C   0  0  0  0  0  2  0  0  0  0  0  0
  188.2860  174.2780  141.0630 C   0  0  2  0  0  3  0  0  0  0  0  0
  190.6780  171.2370  140.7280 C   0  0  0  0  0  2  0  0  0  0  0  0
  190.4950  170.5510  141.9950 N   0  0  0  0  0  2  0  0  0  0  0  0
  191.8150  170.1540  142.4490 C   0  0  0  0  0  2  0  0  0  0  0  0
  192.1040  170.7830  143.7660 C   0  0  0  0  0  0  0  0  0  0  0  0
  193.0800  170.3860  144.4550 O   0  0  0  0  0  1  0  0  0  0  0  0
  191.2790  171.7900  144.2500 O   0  0  0  0  0  0  0  0  0  0  0  0
  187.3460  177.1410  141.0430 N   0  0  0  0  0  2  0  0  0  0  0  0
  185.9540  178.7070  142.0570 O   0  0  0  0  0  1  0  0  0  0  0  0
  186.0460  177.3740  141.6530 C   0  0  2  0  0  3  0  0  0  0  0  0
  185.9000  176.5430  142.7640 O   0  0  0  0  0  0  0  0  0  0  0  0
  185.2780  177.3430  143.7260 C   0  0  0  0  0  2  0  0  0  0  0  0
  185.7660  176.9610  145.1140 C   0  0  0  0  0  2  0  0  0  0  0  0
  187.2780  177.7010  146.7620 C   0  0  0  0  0  2  0  0  0  0  0  0
  189.6180  177.0260  147.1830 C   0  0  0  0  0  1  0  0  0  0  0  0
  188.2090  176.5240  146.9390 C   0  0  2  0  0  3  0  0  0  0  0  0
  187.9960  176.3160  145.4560 C   0  0  0  0  0  2  0  0  0  0  0  0
  187.1150  177.4720  145.3300 N   0  0  0  0  0  0  0  0  0  0  0  0
  1  7  1  0  0  0  0
  2  6  2  0  0  0  0
  3  5  2  0  0  0  0
  3  4  1  0  0  0  0
  4  1  2  0  0  0  0
  5  2  1  0  0  0  0
  6  1  1  0  0  0  0
  6 11  1  0  0  0  0
  8 12  1  0  0  0  0
  9 15  1  0  0  0  0
 10 14  1  0  0  0  0
 11 13  2  0  0  0  0
 13 12  1  0  0  0  0
 14  8  2  0  0  0  0
 15 10  2  0  0  0  0
 15 11  1  0  0  0  0
 16 19  1  0  0  0  0
 16 18  1  0  0  0  0
 18 21  1  1  0  0  0
 18 17  1  0  0  0  0
 19 20  1  0  0  0  0
 20  5  1  1  0  0  0
 20 17  1  0  0  0  0
 21 22  1  0  0  0  0
 22 23  1  0  0  0  0
 23 24  1  0  0  0  0
 24 26  2  0  0  0  0
 24 25  1  0  0  0  0
 27 29  1  0  0  0  0
 27  3  1  0  0  0  0
 29 28  1  1  0  0  0
 29 30  1  0  0  0  0
 30 31  1  0  0  0  0
 31 32  1  0  0  0  0
 32 37  1  0  0  0  0
 33 35  1  0  0  0  0
 35 34  1  6  0  0  0
 36 35  1  0  0  0  0
 37 36  1  0  0  0  0
 37 33  1  0  0  0  0
M  END
>  <MODEL>
7

>  <REMARK>
 VINA RESULT:      -6.1      2.000      4.593
  Name = 
  12 active torsions:
  status: ('A' for Active; 'I' for Inactive)
    1  A    between atoms: C_1  and  C_9
    2  A    between atoms: C_1  and  N_13
    3  A    between atoms: C_5  and  N_29
    4  A    between atoms: C_11  and  C_35
    5  A    between atoms: C_12  and  C_20
    6  A    between atoms: N_13  and  C_17
    7  A    between atoms: C_15  and  N_32
    8  A    between atoms: C_15  and  C_37
    9  A    between atoms: C_17  and  C_18
   10  A    between atoms: N_29  and  C_31
   11  A    between atoms: C_31  and  O_34
   12  A    between atoms: O_34  and  C_37
                            x       y       z     vdW  Elec       q    Type
                         _______ _______ _______ _____ _____    ______ ____

>  <TORSDO>
F 12

$$$$
=
 OpenBabel11042418213D

 37 40  0  0  1  0  0  0  0  0999 V2000
  189.7970  177.2010  146.8760 C   0  0  0  0  0  0  0  0  0  0  0  0
  189.5440  175.6300  145.0980 N   0  0  0  0  0  0  0  0  0  0  0  0
  191.6340  175.7350  146.2640 C   0  0  0  0  0  0  0  0  0  0  0  0
  191.1030  176.7520  147.0590 C   0  0  0  0  0  3  0  0  0  0  0  0
  190.8150  175.1660  145.2610 C   0  0  0  0  0  0  0  0  0  0  0  0
  189.0100  176.6220  145.8610 C   0  0  0  0  0  0  0  0  0  0  0  0
  189.1660  178.4340  148.0180 S   0  0  0  0  0  1  0  0  0  0  0  0
  184.8740  178.2350  146.2520 C   0  0  0  0  0  3  0  0  0  0  0  0
  188.1600  177.7850  143.2930 O   0  0  0  0  0  1  0  0  0  0  0  0
  186.3770  178.8420  144.3640 C   0  0  0  0  0  3  0  0  0  0  0  0
  187.6210  177.0490  145.5900 C   0  0  0  0  0  0  0  0  0  0  0  0
  185.2000  176.7830  146.1590 C   0  0  0  0  0  2  0  0  0  0  0  0
  186.6570  176.5450  146.3710 C   0  0  0  0  0  3  0  0  0  0  0  0
  185.3840  179.1380  145.4150 C   0  0  0  0  0  3  0  0  0  0  0  0
  187.3350  177.9060  144.4050 C   0  0  0  0  0  0  0  0  0  0  0  0
  189.6120  172.3990  144.0300 C   0  0  0  0  0  2  0  0  0  0  0  0
  190.7040  174.4320  142.6290 S   0  0  0  0  0  0  0  0  0  0  0  0
  189.7860  172.8600  142.6040 C   0  0  2  0  0  3  0  0  0  0  0  0
  190.8990  172.7250  144.7490 C   0  0  0  0  0  2  0  0  0  0  0  0
  191.3230  174.1180  144.3150 C   0  0  2  0  0  3  0  0  0  0  0  0
  188.4260  173.0510  141.9590 C   0  0  0  0  0  2  0  0  0  0  0  0
  188.5480  173.9120  140.7960 N   0  0  0  0  0  2  0  0  0  0  0  0
  188.2060  173.1040  139.6400 C   0  0  0  0  0  2  0  0  0  0  0  0
  189.4480  172.6160  138.9820 C   0  0  0  0  0  0  0  0  0  0  0  0
  190.4690  173.3500  138.9350 O   0  0  0  0  0  1  0  0  0  0  0  0
  189.4720  171.3580  138.3930 O   0  0  0  0  0  0  0  0  0  0  0  0
  192.9910  175.3370  146.5100 N   0  0  0  0  0  2  0  0  0  0  0  0
  194.0020  176.7940  145.0020 O   0  0  0  0  0  1  0  0  0  0  0  0
  194.1790  176.1220  146.2120 C   0  0  2  0  0  3  0  0  0  0  0  0
  195.2820  175.2740  146.1140 O   0  0  0  0  0  0  0  0  0  0  0  0
  195.4890  175.1190  144.7410 C   0  0  0  0  0  2  0  0  0  0  0  0
  195.6790  173.6490  144.4060 C   0  0  0  0  0  2  0  0  0  0  0  0
  194.5360  171.8330  145.3780 C   0  0  0  0  0  2  0  0  0  0  0  0
  195.4250  169.8320  146.5240 C   0  0  0  0  0  1  0  0  0  0  0  0
  195.5330  170.7010  145.2870 C   0  0  2  0  0  3  0  0  0  0  0  0
  196.5650  171.7820  145.5180 C   0  0  0  0  0  2  0  0  0  0  0  0
  195.5650  172.8390  145.6150 N   0  0  0  0  0  0  0  0  0  0  0  0
  1  4  1  0  0  0  0
  1  7  1  0  0  0  0
  2  5  2  0  0  0  0
  2  6  1  0  0  0  0
  3 27  1  0  0  0  0
  3  4  2  0  0  0  0
  5  3  1  0  0  0  0
  6  1  2  0  0  0  0
  9 15  1  0  0  0  0
 10 15  2  0  0  0  0
 10 14  1  0  0  0  0
 11  6  1  0  0  0  0
 11 13  2  0  0  0  0
 12  8  1  0  0  0  0
 12 13  1  0  0  0  0
 14  8  2  0  0  0  0
 15 11  1  0  0  0  0
 16 19  1  0  0  0  0
 17 20  1  0  0  0  0
 18 21  1  1  0  0  0
 18 17  1  0  0  0  0
 18 16  1  0  0  0  0
 20 19  1  0  0  0  0
 20  5  1  1  0  0  0
 22 21  1  0  0  0  0
 23 22  1  0  0  0  0
 24 23  1  0  0  0  0
 25 24  1  0  0  0  0
 26 24  2  0  0  0  0
 29 28  1  6  0  0  0
 29 27  1  0  0  0  0
 30 29  1  0  0  0  0
 31 30  1  0  0  0  0
 32 31  1  0  0  0  0
 32 37  1  0  0  0  0
 33 37  1  0  0  0  0
 35 33  1  0  0  0  0
 35 36  1  0  0  0  0
 35 34  1  1  0  0  0
 36 37  1  0  0  0  0
M  END
>  <MODEL>
8

>  <REMARK>
 VINA RESULT:      -5.9      2.416      8.750
  Name = 
  12 active torsions:
  status: ('A' for Active; 'I' for Inactive)
    1  A    between atoms: C_1  and  C_9
    2  A    between atoms: C_1  and  N_13
    3  A    between atoms: C_5  and  N_29
    4  A    between atoms: C_11  and  C_35
    5  A    between atoms: C_12  and  C_20
    6  A    between atoms: N_13  and  C_17
    7  A    between atoms: C_15  and  N_32
    8  A    between atoms: C_15  and  C_37
    9  A    between atoms: C_17  and  C_18
   10  A    between atoms: N_29  and  C_31
   11  A    between atoms: C_31  and  O_34
   12  A    between atoms: O_34  and  C_37
                            x       y       z     vdW  Elec       q    Type
                         _______ _______ _______ _____ _____    ______ ____

>  <TORSDO>
F 12

$$$$
=
 OpenBabel11042418213D

 37 40  0  0  1  0  0  0  0  0999 V2000
  189.8200  177.0110  146.7600 C   0  0  0  0  0  0  0  0  0  0  0  0
  189.4080  175.4670  144.9880 N   0  0  0  0  0  0  0  0  0  0  0  0
  191.5670  175.4930  146.0250 C   0  0  0  0  0  0  0  0  0  0  0  0
  191.1200  176.5180  146.8590 C   0  0  0  0  0  3  0  0  0  0  0  0
  190.6710  174.9610  145.0690 C   0  0  0  0  0  0  0  0  0  0  0  0
  188.9540  176.4680  145.7900 C   0  0  0  0  0  0  0  0  0  0  0  0
  189.3000  178.2520  147.9480 S   0  0  0  0  0  1  0  0  0  0  0  0
  184.8820  178.1480  146.4630 C   0  0  0  0  0  3  0  0  0  0  0  0
  188.0230  177.8030  143.3370 O   0  0  0  0  0  1  0  0  0  0  0  0
  186.3160  178.8340  144.5480 C   0  0  0  0  0  3  0  0  0  0  0  0
  187.5660  176.9420  145.6080 C   0  0  0  0  0  0  0  0  0  0  0  0
  185.1670  176.6970  146.2680 C   0  0  0  0  0  2  0  0  0  0  0  0
  186.6250  176.4130  146.4000 C   0  0  0  0  0  3  0  0  0  0  0  0
  185.3770  179.0880  145.6590 C   0  0  0  0  0  3  0  0  0  0  0  0
  187.2510  177.8750  144.4900 C   0  0  0  0  0  0  0  0  0  0  0  0
  189.2710  172.2930  143.8270 C   0  0  0  0  0  2  0  0  0  0  0  0
  190.4300  174.2910  142.4280 S   0  0  0  0  0  0  0  0  0  0  0  0
  189.4220  172.7750  142.4050 C   0  0  2  0  0  3  0  0  0  0  0  0
  190.5980  172.5300  144.5060 C   0  0  0  0  0  2  0  0  0  0  0  0
  191.0860  173.9060  144.0860 C   0  0  2  0  0  3  0  0  0  0  0  0
  188.0550  173.0560  141.8120 C   0  0  0  0  0  2  0  0  0  0  0  0
  188.1830  173.9600  140.6830 N   0  0  0  0  0  2  0  0  0  0  0  0
  188.1890  173.1380  139.4870 C   0  0  0  0  0  2  0  0  0  0  0  0
  189.3590  173.4930  138.6380 C   0  0  0  0  0  0  0  0  0  0  0  0
  189.1900  174.1190  137.5600 O   0  0  0  0  0  0  0  0  0  0  0  0
  190.6370  173.1080  139.0220 O   0  0  0  0  0  1  0  0  0  0  0  0
  192.9230  175.0480  146.1840 N   0  0  0  0  0  2  0  0  0  0  0  0
  194.6840  176.5110  146.6040 O   0  0  0  0  0  1  0  0  0  0  0  0
  194.1040  175.6950  145.6330 C   0  0  2  0  0  3  0  0  0  0  0  0
  193.7370  176.4720  144.5340 O   0  0  0  0  0  0  0  0  0  0  0  0
  194.5120  175.9830  143.4790 C   0  0  0  0  0  2  0  0  0  0  0  0
  195.9850  176.2270  143.7590 C   0  0  0  0  0  2  0  0  0  0  0  0
  197.7900  175.8360  142.2980 C   0  0  0  0  0  2  0  0  0  0  0  0
  197.8240  175.6610  139.8320 C   0  0  0  0  0  1  0  0  0  0  0  0
  197.1380  175.1880  141.0980 C   0  0  2  0  0  3  0  0  0  0  0  0
  195.9760  176.1030  141.4160 C   0  0  0  0  0  2  0  0  0  0  0  0
  196.6530  176.7120  142.5560 N   0  0  0  0  0  0  0  0  0  0  0  0
  1  4  1  0  0  0  0
  1  7  1  0  0  0  0
  2  5  2  0  0  0  0
  2  6  1  0  0  0  0
  3 27  1  0  0  0  0
  3  4  2  0  0  0  0
  5  3  1  0  0  0  0
  6  1  2  0  0  0  0
  9 15  1  0  0  0  0
 10 14  1  0  0  0  0
 11  6  1  0  0  0  0
 11 13  2  0  0  0  0
 12 13  1  0  0  0  0
 12  8  1  0  0  0  0
 14  8  2  0  0  0  0
 15 10  2  0  0  0  0
 15 11  1  0  0  0  0
 16 19  1  0  0  0  0
 17 20  1  0  0  0  0
 18 21  1  1  0  0  0
 18 17  1  0  0  0  0
 18 16  1  0  0  0  0
 20 19  1  0  0  0  0
 20  5  1  1  0  0  0
 22 21  1  0  0  0  0
 23 22  1  0  0  0  0
 24 26  1  0  0  0  0
 24 23  1  0  0  0  0
 25 24  2  0  0  0  0
 29 27  1  0  0  0  0
 29 28  1  1  0  0  0
 30 29  1  0  0  0  0
 31 32  1  0  0  0  0
 31 30  1  0  0  0  0
 33 37  1  0  0  0  0
 35 34  1  6  0  0  0
 35 36  1  0  0  0  0
 35 33  1  0  0  0  0
 36 37  1  0  0  0  0
 37 32  1  0  0  0  0
M  END
>  <MODEL>
9

>  <REMARK>
 VINA RESULT:      -5.9      2.606      8.770
  Name = 
  12 active torsions:
  status: ('A' for Active; 'I' for Inactive)
    1  A    between atoms: C_1  and  C_9
    2  A    between atoms: C_1  and  N_13
    3  A    between atoms: C_5  and  N_29
    4  A    between atoms: C_11  and  C_35
    5  A    between atoms: C_12  and  C_20
    6  A    between atoms: N_13  and  C_17
    7  A    between atoms: C_15  and  N_32
    8  A    between atoms: C_15  and  C_37
    9  A    between atoms: C_17  and  C_18
   10  A    between atoms: N_29  and  C_31
   11  A    between atoms: C_31  and  O_34
   12  A    between atoms: O_34  and  C_37
                            x       y       z     vdW  Elec       q    Type
                         _______ _______ _______ _____ _____    ______ ____

>  <TORSDO>
F 12

$$$$
