=
 OpenBabel11042416063D

 34 37  0  0  1  0  0  0  0  0999 V2000
  187.8010  177.0140  144.1730 C   0  0  1  0  0  3  0  0  0  0  0  0
  183.5550  178.7120  145.9660 O   0  0  0  0  0  0  0  0  0  0  0  0
  186.4500  179.0380  144.0870 N   0  0  0  0  0  0  0  0  0  0  0  0
  185.2340  179.6590  144.5430 C   0  0  0  0  0  2  0  0  0  0  0  0
  184.6250  178.5990  145.3890 C   0  0  0  0  0  0  0  0  0  0  0  0
  185.4820  177.3840  145.4270 C   0  0  1  0  0  3  0  0  0  0  0  0
  186.6050  177.8480  144.5470 C   0  0  0  0  0  0  0  0  0  0  0  0
  185.9460  177.0860  146.8250 C   0  0  0  0  0  3  0  0  0  0  0  0
  186.3260  177.9710  147.5750 O   0  0  0  0  0  0  0  0  0  0  0  0
  187.7880  176.6640  142.6880 C   0  0  1  0  0  3  0  0  0  0  0  0
  189.1150  176.4590  142.2290 O   0  0  0  0  0  0  0  0  0  0  0  0
  189.3360  175.1820  141.7860 N   0  0  0  0  0  0  0  0  0  0  0  0
  187.1250  175.3020  142.4560 C   0  0  0  0  0  2  0  0  0  0  0  0
  188.2520  174.4980  141.8930 C   0  0  0  0  0  0  0  0  0  0  0  0
  188.3020  172.8680  139.9820 C   0  0  0  0  0  1  0  0  0  0  0  0
  188.1820  173.0560  141.4880 C   0  0  1  0  0  3  0  0  0  0  0  0
  189.2210  172.2500  142.1980 C   0  0  0  0  0  0  0  0  0  0  0  0
  189.0210  171.8880  143.5240 O   0  0  0  0  0  1  0  0  0  0  0  0
  190.2930  171.9230  141.6180 O   0  0  0  0  0  0  0  0  0  0  0  0
  189.0310  177.7250  144.5030 N   0  0  0  0  0  2  0  0  0  0  0  0
  189.4430  177.5990  146.7860 O   0  0  0  0  0  1  0  0  0  0  0  0
  189.6970  176.9880  145.5600 C   0  0  1  0  0  3  0  0  0  0  0  0
  189.1750  175.5610  145.5780 C   0  0  0  0  0  2  0  0  0  0  0  0
  190.2860  174.5820  145.2350 C   0  0  0  0  0  2  0  0  0  0  0  0
  191.3560  175.2640  144.6460 O   0  0  0  0  0  0  0  0  0  0  0  0
  195.1870  175.4720  142.8360 C   0  0  0  0  0  3  0  0  0  0  0  0
  192.5020  174.6460  145.1550 C   0  0  1  0  0  3  0  0  0  0  0  0
  194.5450  176.0490  144.8560 C   0  0  0  0  0  0  0  0  0  0  0  0
  193.6800  175.1170  144.4260 N   0  0  0  0  0  0  0  0  0  0  0  0
  192.6380  174.9660  146.6500 C   0  0  0  0  0  2  0  0  0  0  0  0
  193.1100  176.4100  146.8540 C   0  0  0  0  0  2  0  0  0  0  0  0
  195.5160  176.2930  143.9090 C   0  0  0  0  0  3  0  0  0  0  0  0
  194.4960  176.6280  146.2360 C   0  0  0  0  0  2  0  0  0  0  0  0
  194.0440  174.7620  143.1840 C   0  0  0  0  0  3  0  0  0  0  0  0
  1 20  1  6  0  0  0
  1  7  1  0  0  0  0
  3  4  1  0  0  0  0
  3  7  2  0  0  0  0
  4  5  1  0  0  0  0
  5  6  1  0  0  0  0
  5  2  2  0  0  0  0
  6  8  1  1  0  0  0
  7  6  1  0  0  0  0
  8  9  2  0  0  0  0
 10  1  1  1  0  0  0
 11 10  1  0  0  0  0
 12 14  2  0  0  0  0
 12 11  1  0  0  0  0
 13 10  1  0  0  0  0
 14 13  1  0  0  0  0
 16 15  1  6  0  0  0
 16 14  1  0  0  0  0
 16 17  1  0  0  0  0
 17 18  1  0  0  0  0
 19 17  2  0  0  0  0
 20 22  1  0  0  0  0
 22 23  1  0  0  0  0
 22 21  1  1  0  0  0
 24 23  1  0  0  0  0
 25 24  1  0  0  0  0
 26 34  2  0  0  0  0
 26 32  1  0  0  0  0
 27 25  1  6  0  0  0
 27 30  1  0  0  0  0
 28 33  1  0  0  0  0
 29 28  1  0  0  0  0
 29 27  1  0  0  0  0
 30 31  1  0  0  0  0
 32 28  2  0  0  0  0
 33 31  1  0  0  0  0
 34 29  1  0  0  0  0
M  END
>  <MODEL>
1

>  <REMARK>
 VINA RESULT:      -6.8      0.000      0.000
  Name = 
  11 active torsions:
  status: ('A' for Active; 'I' for Inactive)
    1  A    between atoms: C_2  and  C_25
    2  A    between atoms: C_3  and  O_13
    3  A    between atoms: C_5  and  C_15
    4  A    between atoms: C_5  and  C_30
    5  A    between atoms: N_8  and  C_25
    6  A    between atoms: N_8  and  C_30
    7  A    between atoms: C_9  and  C_33
    8  A    between atoms: O_13  and  C_15
    9  A    between atoms: C_19  and  C_28
   10  A    between atoms: C_25  and  C_31
   11  A    between atoms: C_27  and  C_33
                            x       y       z     vdW  Elec       q    Type
                         _______ _______ _______ _____ _____    ______ ____

>  <TORSDO>
F 11

$$$$
=
 OpenBabel11042416063D

 34 37  0  0  1  0  0  0  0  0999 V2000
  191.2110  174.4640  144.3270 C   0  0  1  0  0  3  0  0  0  0  0  0
  189.2120  177.7910  147.3370 O   0  0  0  0  0  0  0  0  0  0  0  0
  189.4560  174.5990  146.0080 N   0  0  0  0  0  0  0  0  0  0  0  0
  188.7800  175.4700  146.9350 C   0  0  0  0  0  2  0  0  0  0  0  0
  189.4730  176.7680  146.7250 C   0  0  0  0  0  0  0  0  0  0  0  0
  190.5300  176.6510  145.6850 C   0  0  1  0  0  3  0  0  0  0  0  0
  190.3710  175.2000  145.3350 C   0  0  0  0  0  0  0  0  0  0  0  0
  190.2470  177.5490  144.5140 C   0  0  0  0  0  3  0  0  0  0  0  0
  191.1480  178.0350  143.8490 O   0  0  0  0  0  0  0  0  0  0  0  0
  192.2410  173.5710  145.0150 C   0  0  1  0  0  3  0  0  0  0  0  0
  193.0620  172.9450  144.0400 O   0  0  0  0  0  0  0  0  0  0  0  0
  194.3790  173.3060  144.1390 N   0  0  0  0  0  0  0  0  0  0  0  0
  193.2380  174.4120  145.8200 C   0  0  0  0  0  2  0  0  0  0  0  0
  194.5270  174.1240  145.1200 C   0  0  0  0  0  0  0  0  0  0  0  0
  196.8070  173.6620  146.0690 C   0  0  0  0  0  1  0  0  0  0  0  0
  195.8650  174.7010  145.4770 C   0  0  1  0  0  3  0  0  0  0  0  0
  196.4940  175.3610  144.2930 C   0  0  0  0  0  0  0  0  0  0  0  0
  195.9120  176.5010  143.7530 O   0  0  0  0  0  0  0  0  0  0  0  0
  197.5290  174.8760  143.7580 O   0  0  0  0  0  1  0  0  0  0  0  0
  190.3620  173.6600  143.4560 N   0  0  0  0  0  2  0  0  0  0  0  0
  190.3740  174.2510  141.2100 O   0  0  0  0  0  1  0  0  0  0  0  0
  189.8050  174.5410  142.4480 C   0  0  1  0  0  3  0  0  0  0  0  0
  188.3010  174.3380  142.3830 C   0  0  0  0  0  2  0  0  0  0  0  0
  187.5860  175.6750  142.2660 C   0  0  0  0  0  2  0  0  0  0  0  0
  187.3640  176.2090  143.5390 O   0  0  0  0  0  0  0  0  0  0  0  0
  185.3210  177.7210  146.9360 C   0  0  0  0  0  3  0  0  0  0  0  0
  186.0110  176.5610  143.5520 C   0  0  1  0  0  3  0  0  0  0  0  0
  185.5770  178.5930  144.9360 C   0  0  0  0  0  0  0  0  0  0  0  0
  185.6980  177.2630  144.7970 N   0  0  0  0  0  0  0  0  0  0  0  0
  185.7000  177.4560  142.3440 C   0  0  0  0  0  2  0  0  0  0  0  0
  186.2540  178.8690  142.5600 C   0  0  0  0  0  2  0  0  0  0  0  0
  185.3210  178.9290  146.2480 C   0  0  0  0  0  3  0  0  0  0  0  0
  185.5980  179.5370  143.7740 C   0  0  0  0  0  2  0  0  0  0  0  0
  185.5620  176.7100  146.0120 C   0  0  0  0  0  3  0  0  0  0  0  0
  1 20  1  1  0  0  0
  1  7  1  0  0  0  0
  3  4  1  0  0  0  0
  5  4  1  0  0  0  0
  5  2  2  0  0  0  0
  6  8  1  6  0  0  0
  6  5  1  0  0  0  0
  7  6  1  0  0  0  0
  7  3  2  0  0  0  0
  9  8  2  0  0  0  0
 10  1  1  6  0  0  0
 10 13  1  0  0  0  0
 11 12  1  0  0  0  0
 11 10  1  0  0  0  0
 12 14  2  0  0  0  0
 14 16  1  0  0  0  0
 14 13  1  0  0  0  0
 16 15  1  6  0  0  0
 17 16  1  0  0  0  0
 18 17  2  0  0  0  0
 19 17  1  0  0  0  0
 22 21  1  6  0  0  0
 22 20  1  0  0  0  0
 23 22  1  0  0  0  0
 24 23  1  0  0  0  0
 24 25  1  0  0  0  0
 27 25  1  1  0  0  0
 27 29  1  0  0  0  0
 28 32  2  0  0  0  0
 29 28  1  0  0  0  0
 29 34  1  0  0  0  0
 30 31  1  0  0  0  0
 30 27  1  0  0  0  0
 31 33  1  0  0  0  0
 32 26  1  0  0  0  0
 33 28  1  0  0  0  0
 34 26  2  0  0  0  0
M  END
>  <MODEL>
2

>  <REMARK>
 VINA RESULT:      -6.7      2.237      7.144
  Name = 
  11 active torsions:
  status: ('A' for Active; 'I' for Inactive)
    1  A    between atoms: C_2  and  C_25
    2  A    between atoms: C_3  and  O_13
    3  A    between atoms: C_5  and  C_15
    4  A    between atoms: C_5  and  C_30
    5  A    between atoms: N_8  and  C_25
    6  A    between atoms: N_8  and  C_30
    7  A    between atoms: C_9  and  C_33
    8  A    between atoms: O_13  and  C_15
    9  A    between atoms: C_19  and  C_28
   10  A    between atoms: C_25  and  C_31
   11  A    between atoms: C_27  and  C_33
                            x       y       z     vdW  Elec       q    Type
                         _______ _______ _______ _____ _____    ______ ____

>  <TORSDO>
F 11

$$$$
=
 OpenBabel11042416063D

 34 37  0  0  1  0  0  0  0  0999 V2000
  190.6160  175.2260  143.5360 C   0  0  1  0  0  3  0  0  0  0  0  0
  188.5440  173.4130  139.4690 O   0  0  0  0  0  0  0  0  0  0  0  0
  188.8170  175.7750  141.9910 N   0  0  0  0  0  0  0  0  0  0  0  0
  188.1190  175.3560  140.8040 C   0  0  0  0  0  2  0  0  0  0  0  0
  188.8180  174.0960  140.4420 C   0  0  0  0  0  0  0  0  0  0  0  0
  189.9020  173.7860  141.4140 C   0  0  1  0  0  3  0  0  0  0  0  0
  189.7500  174.9610  142.3340 C   0  0  0  0  0  0  0  0  0  0  0  0
  189.6510  172.4810  142.1160 C   0  0  0  0  0  3  0  0  0  0  0  0
  188.6070  172.2660  142.7110 O   0  0  0  0  0  0  0  0  0  0  0  0
  191.7700  176.1620  143.1890 C   0  0  1  0  0  3  0  0  0  0  0  0
  191.8890  177.1690  144.1820 O   0  0  0  0  0  0  0  0  0  0  0  0
  193.0820  177.1220  144.8520 N   0  0  0  0  0  0  0  0  0  0  0  0
  193.1120  175.4260  143.2790 C   0  0  0  0  0  2  0  0  0  0  0  0
  193.8000  176.1640  144.3810 C   0  0  0  0  0  0  0  0  0  0  0  0
  195.2110  174.5490  145.6900 C   0  0  0  0  0  1  0  0  0  0  0  0
  195.1670  175.8610  144.9180 C   0  0  1  0  0  3  0  0  0  0  0  0
  196.1820  175.8540  143.8210 C   0  0  0  0  0  0  0  0  0  0  0  0
  196.7460  177.0520  143.4010 O   0  0  0  0  0  1  0  0  0  0  0  0
  196.5080  174.7780  143.2490 O   0  0  0  0  0  0  0  0  0  0  0  0
  189.8180  175.8010  144.6120 N   0  0  0  0  0  2  0  0  0  0  0  0
  190.2390  173.7030  145.5170 O   0  0  0  0  0  1  0  0  0  0  0  0
  189.2800  174.7070  145.3970 C   0  0  1  0  0  3  0  0  0  0  0  0
  188.8980  175.2210  146.7750 C   0  0  0  0  0  2  0  0  0  0  0  0
  188.4700  176.6780  146.7010 C   0  0  0  0  0  2  0  0  0  0  0  0
  187.1190  176.7590  146.3510 O   0  0  0  0  0  0  0  0  0  0  0  0
  185.8200  178.3600  142.6430 C   0  0  0  0  0  3  0  0  0  0  0  0
  186.8870  178.1190  146.1170 C   0  0  1  0  0  3  0  0  0  0  0  0
  184.9130  178.5010  144.6380 C   0  0  0  0  0  0  0  0  0  0  0  0
  186.2260  178.2890  144.8230 N   0  0  0  0  0  0  0  0  0  0  0  0
  186.0140  178.6920  147.2420 C   0  0  0  0  0  2  0  0  0  0  0  0
  184.5590  178.2350  147.0840 C   0  0  0  0  0  2  0  0  0  0  0  0
  184.6110  178.5730  143.2950 C   0  0  0  0  0  3  0  0  0  0  0  0
  183.9620  178.7460  145.7680 C   0  0  0  0  0  2  0  0  0  0  0  0
  186.7980  178.1830  143.6140 C   0  0  0  0  0  3  0  0  0  0  0  0
  1 20  1  1  0  0  0
  2  5  2  0  0  0  0
  3  7  2  0  0  0  0
  4  3  1  0  0  0  0
  5  4  1  0  0  0  0
  5  6  1  0  0  0  0
  6  8  1  1  0  0  0
  6  7  1  0  0  0  0
  7  1  1  0  0  0  0
  8  9  2  0  0  0  0
 10 13  1  0  0  0  0
 10  1  1  1  0  0  0
 10 11  1  0  0  0  0
 11 12  1  0  0  0  0
 13 14  1  0  0  0  0
 14 12  2  0  0  0  0
 14 16  1  0  0  0  0
 16 15  1  6  0  0  0
 17 16  1  0  0  0  0
 18 17  1  0  0  0  0
 19 17  2  0  0  0  0
 20 22  1  0  0  0  0
 22 21  1  1  0  0  0
 22 23  1  0  0  0  0
 24 23  1  0  0  0  0
 25 24  1  0  0  0  0
 26 32  1  0  0  0  0
 26 34  2  0  0  0  0
 27 25  1  1  0  0  0
 27 30  1  0  0  0  0
 28 29  1  0  0  0  0
 28 33  1  0  0  0  0
 29 27  1  0  0  0  0
 31 30  1  0  0  0  0
 32 28  2  0  0  0  0
 33 31  1  0  0  0  0
 34 29  1  0  0  0  0
M  END
>  <MODEL>
3

>  <REMARK>
 VINA RESULT:      -6.6      2.077      7.092
  Name = 
  11 active torsions:
  status: ('A' for Active; 'I' for Inactive)
    1  A    between atoms: C_2  and  C_25
    2  A    between atoms: C_3  and  O_13
    3  A    between atoms: C_5  and  C_15
    4  A    between atoms: C_5  and  C_30
    5  A    between atoms: N_8  and  C_25
    6  A    between atoms: N_8  and  C_30
    7  A    between atoms: C_9  and  C_33
    8  A    between atoms: O_13  and  C_15
    9  A    between atoms: C_19  and  C_28
   10  A    between atoms: C_25  and  C_31
   11  A    between atoms: C_27  and  C_33
                            x       y       z     vdW  Elec       q    Type
                         _______ _______ _______ _____ _____    ______ ____

>  <TORSDO>
F 11

$$$$
=
 OpenBabel11042416063D

 34 37  0  0  1  0  0  0  0  0999 V2000
  191.3250  175.7740  145.2270 C   0  0  1  0  0  3  0  0  0  0  0  0
  196.1090  174.6630  145.2290 O   0  0  0  0  0  0  0  0  0  0  0  0
  192.7510  173.8020  145.2280 N   0  0  0  0  0  0  0  0  0  0  0  0
  194.1140  173.3370  145.2310 C   0  0  0  0  0  2  0  0  0  0  0  0
  194.8900  174.6040  145.2400 C   0  0  0  0  0  0  0  0  0  0  0  0
  193.9870  175.7860  145.2510 C   0  0  1  0  0  3  0  0  0  0  0  0
  192.6620  175.0830  145.2480 C   0  0  0  0  0  0  0  0  0  0  0  0
  194.1850  176.6150  146.4880 C   0  0  0  0  0  3  0  0  0  0  0  0
  194.7410  177.7020  146.4480 O   0  0  0  0  0  0  0  0  0  0  0  0
  190.9800  176.2650  143.8240 C   0  0  1  0  0  3  0  0  0  0  0  0
  191.5770  175.4160  142.8560 O   0  0  0  0  0  0  0  0  0  0  0  0
  190.6570  174.7720  142.0710 N   0  0  0  0  0  0  0  0  0  0  0  0
  189.4810  176.1090  143.5470 C   0  0  0  0  0  2  0  0  0  0  0  0
  189.4720  175.1280  142.4200 C   0  0  0  0  0  0  0  0  0  0  0  0
  187.9490  175.2960  140.4280 C   0  0  0  0  0  1  0  0  0  0  0  0
  188.2500  174.5850  141.7400 C   0  0  1  0  0  3  0  0  0  0  0  0
  188.3710  173.1120  141.5190 C   0  0  0  0  0  0  0  0  0  0  0  0
  188.4100  172.2550  142.6120 O   0  0  0  0  0  1  0  0  0  0  0  0
  188.4730  172.6410  140.3530 O   0  0  0  0  0  0  0  0  0  0  0  0
  190.2850  174.8700  145.7050 N   0  0  0  0  0  2  0  0  0  0  0  0
  190.5450  176.4870  147.3530 O   0  0  0  0  0  1  0  0  0  0  0  0
  189.9490  175.2620  147.0600 C   0  0  1  0  0  3  0  0  0  0  0  0
  188.4390  175.3820  147.1850 C   0  0  0  0  0  2  0  0  0  0  0  0
  187.9830  176.7870  146.8220 C   0  0  0  0  0  2  0  0  0  0  0  0
  186.9650  176.7240  145.8650 O   0  0  0  0  0  0  0  0  0  0  0  0
  185.1470  177.8890  142.2140 C   0  0  0  0  0  3  0  0  0  0  0  0
  186.7480  178.0510  145.4820 C   0  0  1  0  0  3  0  0  0  0  0  0
  184.5770  178.3470  144.2850 C   0  0  0  0  0  0  0  0  0  0  0  0
  185.8940  178.0860  144.2940 N   0  0  0  0  0  0  0  0  0  0  0  0
  186.0880  178.8190  146.6350 C   0  0  0  0  0  2  0  0  0  0  0  0
  184.6110  178.4290  146.7690 C   0  0  0  0  0  2  0  0  0  0  0  0
  184.0670  178.2560  143.0080 C   0  0  0  0  0  3  0  0  0  0  0  0
  183.8290  178.7940  145.5020 C   0  0  0  0  0  2  0  0  0  0  0  0
  186.2610  177.7870  143.0380 C   0  0  0  0  0  3  0  0  0  0  0  0
  1  7  1  0  0  0  0
  1 20  1  6  0  0  0
  2  5  2  0  0  0  0
  3  4  1  0  0  0  0
  3  7  2  0  0  0  0
  4  5  1  0  0  0  0
  5  6  1  0  0  0  0
  6  8  1  1  0  0  0
  7  6  1  0  0  0  0
  9  8  2  0  0  0  0
 10  1  1  1  0  0  0
 11 10  1  0  0  0  0
 12 14  2  0  0  0  0
 12 11  1  0  0  0  0
 13 10  1  0  0  0  0
 14 13  1  0  0  0  0
 16 15  1  6  0  0  0
 16 14  1  0  0  0  0
 17 16  1  0  0  0  0
 17 18  1  0  0  0  0
 19 17  2  0  0  0  0
 20 22  1  0  0  0  0
 22 23  1  0  0  0  0
 22 21  1  6  0  0  0
 24 23  1  0  0  0  0
 25 24  1  0  0  0  0
 26 32  1  0  0  0  0
 26 34  2  0  0  0  0
 27 25  1  1  0  0  0
 27 30  1  0  0  0  0
 28 29  1  0  0  0  0
 28 33  1  0  0  0  0
 29 27  1  0  0  0  0
 30 31  1  0  0  0  0
 32 28  2  0  0  0  0
 33 31  1  0  0  0  0
 34 29  1  0  0  0  0
M  END
>  <MODEL>
4

>  <REMARK>
 VINA RESULT:      -6.5      2.011      6.966
  Name = 
  11 active torsions:
  status: ('A' for Active; 'I' for Inactive)
    1  A    between atoms: C_2  and  C_25
    2  A    between atoms: C_3  and  O_13
    3  A    between atoms: C_5  and  C_15
    4  A    between atoms: C_5  and  C_30
    5  A    between atoms: N_8  and  C_25
    6  A    between atoms: N_8  and  C_30
    7  A    between atoms: C_9  and  C_33
    8  A    between atoms: O_13  and  C_15
    9  A    between atoms: C_19  and  C_28
   10  A    between atoms: C_25  and  C_31
   11  A    between atoms: C_27  and  C_33
                            x       y       z     vdW  Elec       q    Type
                         _______ _______ _______ _____ _____    ______ ____

>  <TORSDO>
F 11

$$$$
=
 OpenBabel11042416063D

 34 37  0  0  1  0  0  0  0  0999 V2000
  192.5600  175.4900  143.8230 C   0  0  1  0  0  3  0  0  0  0  0  0
  197.3570  174.6580  144.4760 O   0  0  0  0  0  0  0  0  0  0  0  0
  194.1400  175.1900  145.6510 N   0  0  0  0  0  0  0  0  0  0  0  0
  195.5200  174.9510  145.9850 C   0  0  0  0  0  2  0  0  0  0  0  0
  196.1680  174.8700  144.6500 C   0  0  0  0  0  0  0  0  0  0  0  0
  195.1760  175.0690  143.5590 C   0  0  1  0  0  3  0  0  0  0  0  0
  193.9390  175.2660  144.3840 C   0  0  0  0  0  0  0  0  0  0  0  0
  195.5050  176.2820  142.7350 C   0  0  0  0  0  3  0  0  0  0  0  0
  195.1840  176.3630  141.5590 O   0  0  0  0  0  0  0  0  0  0  0  0
  191.9690  174.1930  143.2780 C   0  0  1  0  0  3  0  0  0  0  0  0
  191.0120  173.6780  144.1920 O   0  0  0  0  0  0  0  0  0  0  0  0
  189.7480  173.6260  143.6680 N   0  0  0  0  0  0  0  0  0  0  0  0
  191.1370  174.4610  142.0190 C   0  0  0  0  0  2  0  0  0  0  0  0
  189.7680  174.0530  142.4550 C   0  0  0  0  0  0  0  0  0  0  0  0
  187.6220  172.9090  141.8220 C   0  0  0  0  0  1  0  0  0  0  0  0
  188.5260  174.1170  141.6170 C   0  0  1  0  0  3  0  0  0  0  0  0
  187.7730  175.3820  141.8740 C   0  0  0  0  0  0  0  0  0  0  0  0
  188.2570  176.5820  141.3700 O   0  0  0  0  0  0  0  0  0  0  0  0
  186.7220  175.3770  142.5720 O   0  0  0  0  0  1  0  0  0  0  0  0
  191.6840  176.0410  144.8500 N   0  0  0  0  0  2  0  0  0  0  0  0
  191.8250  177.6400  143.1700 O   0  0  0  0  0  1  0  0  0  0  0  0
  191.3160  177.3830  144.4420 C   0  0  1  0  0  3  0  0  0  0  0  0
  189.8010  177.5010  144.4220 C   0  0  0  0  0  2  0  0  0  0  0  0
  189.1800  176.5640  145.4470 C   0  0  0  0  0  2  0  0  0  0  0  0
  187.7910  176.5370  145.2860 O   0  0  0  0  0  0  0  0  0  0  0  0
  185.0820  178.8790  143.0120 C   0  0  0  0  0  3  0  0  0  0  0  0
  187.3610  177.8180  145.6480 C   0  0  1  0  0  3  0  0  0  0  0  0
  184.9560  178.1980  145.0970 C   0  0  0  0  0  0  0  0  0  0  0  0
  186.2590  178.2300  144.7770 N   0  0  0  0  0  0  0  0  0  0  0  0
  186.9080  177.8130  147.1150 C   0  0  0  0  0  2  0  0  0  0  0  0
  185.5470  177.1210  147.2580 C   0  0  0  0  0  2  0  0  0  0  0  0
  184.1800  178.6120  144.0360 C   0  0  0  0  0  3  0  0  0  0  0  0
  184.4640  177.8700  146.4720 C   0  0  0  0  0  2  0  0  0  0  0  0
  186.3580  178.6280  143.5000 C   0  0  0  0  0  3  0  0  0  0  0  0
  1  7  1  0  0  0  0
  1 20  1  1  0  0  0
  2  5  2  0  0  0  0
  3  4  1  0  0  0  0
  5  4  1  0  0  0  0
  6  8  1  1  0  0  0
  6  7  1  0  0  0  0
  6  5  1  0  0  0  0
  7  3  2  0  0  0  0
  9  8  2  0  0  0  0
 10  1  1  1  0  0  0
 10 11  1  0  0  0  0
 12 11  1  0  0  0  0
 13 14  1  0  0  0  0
 13 10  1  0  0  0  0
 14 12  2  0  0  0  0
 16 15  1  1  0  0  0
 16 17  1  0  0  0  0
 16 14  1  0  0  0  0
 17 19  1  0  0  0  0
 18 17  2  0  0  0  0
 22 21  1  6  0  0  0
 22 20  1  0  0  0  0
 23 22  1  0  0  0  0
 23 24  1  0  0  0  0
 25 24  1  0  0  0  0
 26 34  2  0  0  0  0
 26 32  1  0  0  0  0
 27 25  1  6  0  0  0
 27 30  1  0  0  0  0
 28 33  1  0  0  0  0
 29 28  1  0  0  0  0
 29 27  1  0  0  0  0
 30 31  1  0  0  0  0
 32 28  2  0  0  0  0
 33 31  1  0  0  0  0
 34 29  1  0  0  0  0
M  END
>  <MODEL>
5

>  <REMARK>
 VINA RESULT:      -6.5      2.088      7.460
  Name = 
  11 active torsions:
  status: ('A' for Active; 'I' for Inactive)
    1  A    between atoms: C_2  and  C_25
    2  A    between atoms: C_3  and  O_13
    3  A    between atoms: C_5  and  C_15
    4  A    between atoms: C_5  and  C_30
    5  A    between atoms: N_8  and  C_25
    6  A    between atoms: N_8  and  C_30
    7  A    between atoms: C_9  and  C_33
    8  A    between atoms: O_13  and  C_15
    9  A    between atoms: C_19  and  C_28
   10  A    between atoms: C_25  and  C_31
   11  A    between atoms: C_27  and  C_33
                            x       y       z     vdW  Elec       q    Type
                         _______ _______ _______ _____ _____    ______ ____

>  <TORSDO>
F 11

$$$$
=
 OpenBabel11042416063D

 34 37  0  0  1  0  0  0  0  0999 V2000
  187.3180  176.9560  143.7620 C   0  0  1  0  0  3  0  0  0  0  0  0
  183.7840  178.2910  146.9020 O   0  0  0  0  0  0  0  0  0  0  0  0
  185.8100  178.8290  144.1410 N   0  0  0  0  0  0  0  0  0  0  0  0
  184.7640  179.3440  144.9860 C   0  0  0  0  0  2  0  0  0  0  0  0
  184.5980  178.2630  145.9930 C   0  0  0  0  0  0  0  0  0  0  0  0
  185.5420  177.1420  145.7370 C   0  0  1  0  0  3  0  0  0  0  0  0
  186.2390  177.6800  144.5230 C   0  0  0  0  0  0  0  0  0  0  0  0
  186.4850  176.9460  146.8910 C   0  0  0  0  0  3  0  0  0  0  0  0
  187.2750  177.8150  147.2250 O   0  0  0  0  0  0  0  0  0  0  0  0
  186.7300  176.1370  142.6160 C   0  0  1  0  0  3  0  0  0  0  0  0
  187.0300  176.7610  141.3760 O   0  0  0  0  0  0  0  0  0  0  0  0
  187.8160  175.9860  140.5650 N   0  0  0  0  0  0  0  0  0  0  0  0
  187.4330  174.7800  142.5010 C   0  0  0  0  0  2  0  0  0  0  0  0
  188.0670  174.8690  141.1510 C   0  0  0  0  0  0  0  0  0  0  0  0
  188.7010  173.7310  139.0030 C   0  0  0  0  0  1  0  0  0  0  0  0
  188.9110  173.8090  140.5090 C   0  0  1  0  0  3  0  0  0  0  0  0
  190.3580  174.0150  140.8240 C   0  0  0  0  0  0  0  0  0  0  0  0
  191.3180  173.7150  139.8660 O   0  0  0  0  0  0  0  0  0  0  0  0
  190.7180  174.4270  141.9610 O   0  0  0  0  0  1  0  0  0  0  0  0
  188.2910  177.9090  143.2420 N   0  0  0  0  0  2  0  0  0  0  0  0
  190.5360  177.8830  142.6450 O   0  0  0  0  0  1  0  0  0  0  0  0
  189.6130  177.4190  143.5800 C   0  0  1  0  0  3  0  0  0  0  0  0
  189.9910  177.9150  144.9660 C   0  0  0  0  0  2  0  0  0  0  0  0
  190.4120  176.7540  145.8520 C   0  0  0  0  0  2  0  0  0  0  0  0
  191.3500  175.9610  145.1830 O   0  0  0  0  0  0  0  0  0  0  0  0
  193.5100  172.3860  144.4400 C   0  0  0  0  0  3  0  0  0  0  0  0
  191.9300  175.1700  146.1790 C   0  0  1  0  0  3  0  0  0  0  0  0
  194.1300  174.2240  145.4720 C   0  0  0  0  0  0  0  0  0  0  0  0
  192.7920  174.1590  145.5640 N   0  0  0  0  0  0  0  0  0  0  0  0
  192.7450  176.0580  147.1300 C   0  0  0  0  0  2  0  0  0  0  0  0
  194.0560  176.5000  146.4680 C   0  0  0  0  0  2  0  0  0  0  0  0
  194.6290  173.1310  144.7970 C   0  0  0  0  0  3  0  0  0  0  0  0
  194.9400  175.2920  146.1380 C   0  0  0  0  0  2  0  0  0  0  0  0
  192.3900  173.0510  144.9240 C   0  0  0  0  0  3  0  0  0  0  0  0
  1 20  1  6  0  0  0
  1  7  1  0  0  0  0
  3  7  2  0  0  0  0
  3  4  1  0  0  0  0
  4  5  1  0  0  0  0
  5  2  2  0  0  0  0
  6  5  1  0  0  0  0
  6  8  1  1  0  0  0
  7  6  1  0  0  0  0
  8  9  2  0  0  0  0
 10  1  1  1  0  0  0
 11 10  1  0  0  0  0
 12 14  2  0  0  0  0
 12 11  1  0  0  0  0
 13 10  1  0  0  0  0
 14 13  1  0  0  0  0
 16 15  1  6  0  0  0
 16 17  1  0  0  0  0
 16 14  1  0  0  0  0
 17 19  1  0  0  0  0
 18 17  2  0  0  0  0
 20 22  1  0  0  0  0
 22 21  1  6  0  0  0
 22 23  1  0  0  0  0
 23 24  1  0  0  0  0
 25 24  1  0  0  0  0
 26 32  1  0  0  0  0
 26 34  2  0  0  0  0
 27 25  1  6  0  0  0
 27 30  1  0  0  0  0
 28 29  1  0  0  0  0
 28 33  1  0  0  0  0
 29 27  1  0  0  0  0
 31 30  1  0  0  0  0
 32 28  2  0  0  0  0
 33 31  1  0  0  0  0
 34 29  1  0  0  0  0
M  END
>  <MODEL>
6

>  <REMARK>
 VINA RESULT:      -6.3      1.613      2.036
  Name = 
  11 active torsions:
  status: ('A' for Active; 'I' for Inactive)
    1  A    between atoms: C_2  and  C_25
    2  A    between atoms: C_3  and  O_13
    3  A    between atoms: C_5  and  C_15
    4  A    between atoms: C_5  and  C_30
    5  A    between atoms: N_8  and  C_25
    6  A    between atoms: N_8  and  C_30
    7  A    between atoms: C_9  and  C_33
    8  A    between atoms: O_13  and  C_15
    9  A    between atoms: C_19  and  C_28
   10  A    between atoms: C_25  and  C_31
   11  A    between atoms: C_27  and  C_33
                            x       y       z     vdW  Elec       q    Type
                         _______ _______ _______ _____ _____    ______ ____

>  <TORSDO>
F 11

$$$$
=
 OpenBabel11042416063D

 34 37  0  0  1  0  0  0  0  0999 V2000
  191.0570  174.6120  144.3450 C   0  0  1  0  0  3  0  0  0  0  0  0
  187.4790  172.6660  141.6010 O   0  0  0  0  0  0  0  0  0  0  0  0
  190.5130  172.4980  143.2690 N   0  0  0  0  0  0  0  0  0  0  0  0
  189.5420  171.8050  142.4620 C   0  0  0  0  0  2  0  0  0  0  0  0
  188.5050  172.8460  142.2370 C   0  0  0  0  0  0  0  0  0  0  0  0
  188.8760  174.1260  142.8990 C   0  0  1  0  0  3  0  0  0  0  0  0
  190.1880  173.7190  143.5020 C   0  0  0  0  0  0  0  0  0  0  0  0
  189.0330  175.2340  141.8960 C   0  0  0  0  0  3  0  0  0  0  0  0
  188.1550  175.4960  141.0900 O   0  0  0  0  0  0  0  0  0  0  0  0
  192.1690  175.2460  143.5130 C   0  0  1  0  0  3  0  0  0  0  0  0
  192.3700  176.5900  143.9220 O   0  0  0  0  0  0  0  0  0  0  0  0
  193.6200  176.8110  144.4360 N   0  0  0  0  0  0  0  0  0  0  0  0
  193.5180  174.5850  143.8170 C   0  0  0  0  0  2  0  0  0  0  0  0
  194.2980  175.7200  144.3980 C   0  0  0  0  0  0  0  0  0  0  0  0
  195.9600  174.4170  145.7600 C   0  0  0  0  0  1  0  0  0  0  0  0
  195.7110  175.6460  144.8970 C   0  0  1  0  0  3  0  0  0  0  0  0
  196.6820  175.6920  143.7610 C   0  0  0  0  0  0  0  0  0  0  0  0
  196.6940  176.7910  142.9130 O   0  0  0  0  0  0  0  0  0  0  0  0
  197.4670  174.7280  143.5450 O   0  0  0  0  0  1  0  0  0  0  0  0
  190.2500  175.6550  144.9690 N   0  0  0  0  0  2  0  0  0  0  0  0
  190.6400  176.6310  147.0400 O   0  0  0  0  0  1  0  0  0  0  0  0
  190.2880  175.4430  146.4030 C   0  0  1  0  0  3  0  0  0  0  0  0
  188.9160  174.9920  146.8770 C   0  0  0  0  0  2  0  0  0  0  0  0
  188.0660  176.1910  147.2670 C   0  0  0  0  0  2  0  0  0  0  0  0
  187.0790  176.4090  146.3000 O   0  0  0  0  0  0  0  0  0  0  0  0
  186.6030  178.3470  142.5570 C   0  0  0  0  0  3  0  0  0  0  0  0
  187.0410  177.7970  146.1310 C   0  0  1  0  0  3  0  0  0  0  0  0
  185.3950  178.4900  144.3860 C   0  0  0  0  0  0  0  0  0  0  0  0
  186.6270  178.1130  144.7630 N   0  0  0  0  0  0  0  0  0  0  0  0
  186.0600  178.4110  147.1400 C   0  0  0  0  0  2  0  0  0  0  0  0
  184.6100  178.1400  146.7190 C   0  0  0  0  0  2  0  0  0  0  0  0
  185.3320  178.6680  143.0210 C   0  0  0  0  0  3  0  0  0  0  0  0
  184.3010  178.7870  145.3640 C   0  0  0  0  0  2  0  0  0  0  0  0
  187.3790  178.0030  143.6570 C   0  0  0  0  0  3  0  0  0  0  0  0
  1 20  1  6  0  0  0
  2  5  2  0  0  0  0
  3  7  2  0  0  0  0
  4  3  1  0  0  0  0
  5  4  1  0  0  0  0
  5  6  1  0  0  0  0
  6  8  1  6  0  0  0
  6  7  1  0  0  0  0
  7  1  1  0  0  0  0
  9  8  2  0  0  0  0
 10 13  1  0  0  0  0
 10 11  1  0  0  0  0
 10  1  1  1  0  0  0
 11 12  1  0  0  0  0
 13 14  1  0  0  0  0
 14 12  2  0  0  0  0
 14 16  1  0  0  0  0
 16 15  1  6  0  0  0
 17 16  1  0  0  0  0
 18 17  2  0  0  0  0
 19 17  1  0  0  0  0
 20 22  1  0  0  0  0
 22 23  1  0  0  0  0
 22 21  1  1  0  0  0
 23 24  1  0  0  0  0
 25 24  1  0  0  0  0
 26 32  1  0  0  0  0
 26 34  2  0  0  0  0
 27 25  1  6  0  0  0
 27 30  1  0  0  0  0
 28 29  1  0  0  0  0
 28 33  1  0  0  0  0
 29 27  1  0  0  0  0
 31 30  1  0  0  0  0
 32 28  2  0  0  0  0
 33 31  1  0  0  0  0
 34 29  1  0  0  0  0
M  END
>  <MODEL>
7

>  <REMARK>
 VINA RESULT:      -6.3      2.174      7.071
  Name = 
  11 active torsions:
  status: ('A' for Active; 'I' for Inactive)
    1  A    between atoms: C_2  and  C_25
    2  A    between atoms: C_3  and  O_13
    3  A    between atoms: C_5  and  C_15
    4  A    between atoms: C_5  and  C_30
    5  A    between atoms: N_8  and  C_25
    6  A    between atoms: N_8  and  C_30
    7  A    between atoms: C_9  and  C_33
    8  A    between atoms: O_13  and  C_15
    9  A    between atoms: C_19  and  C_28
   10  A    between atoms: C_25  and  C_31
   11  A    between atoms: C_27  and  C_33
                            x       y       z     vdW  Elec       q    Type
                         _______ _______ _______ _____ _____    ______ ____

>  <TORSDO>
F 11

$$$$
=
 OpenBabel11042416063D

 34 37  0  0  1  0  0  0  0  0999 V2000
  190.4680  174.1070  144.8570 C   0  0  1  0  0  3  0  0  0  0  0  0
  187.9170  176.1490  141.1900 O   0  0  0  0  0  0  0  0  0  0  0  0
  189.4590  173.4580  142.7380 N   0  0  0  0  0  0  0  0  0  0  0  0
  188.7120  173.9260  141.6000 C   0  0  0  0  0  2  0  0  0  0  0  0
  188.5250  175.3690  141.9050 C   0  0  0  0  0  0  0  0  0  0  0  0
  189.1640  175.7310  143.1990 C   0  0  1  0  0  3  0  0  0  0  0  0
  189.7150  174.3900  143.5850 C   0  0  0  0  0  0  0  0  0  0  0  0
  190.2470  176.7550  143.0080 C   0  0  0  0  0  3  0  0  0  0  0  0
  190.2850  177.7770  143.6740 O   0  0  0  0  0  0  0  0  0  0  0  0
  191.9140  173.7130  144.5660 C   0  0  1  0  0  3  0  0  0  0  0  0
  192.2340  174.0170  143.2170 O   0  0  0  0  0  0  0  0  0  0  0  0
  193.2270  174.9530  143.1010 N   0  0  0  0  0  0  0  0  0  0  0  0
  192.8860  174.5920  145.3600 C   0  0  0  0  0  2  0  0  0  0  0  0
  193.6240  175.3040  144.2730 C   0  0  0  0  0  0  0  0  0  0  0  0
  194.5860  177.0490  145.8030 C   0  0  0  0  0  1  0  0  0  0  0  0
  194.7070  176.3220  144.4710 C   0  0  1  0  0  3  0  0  0  0  0  0
  196.0590  175.6970  144.3390 C   0  0  0  0  0  0  0  0  0  0  0  0
  196.4440  174.7030  145.2300 O   0  0  0  0  0  1  0  0  0  0  0  0
  196.8650  176.0840  143.4500 O   0  0  0  0  0  0  0  0  0  0  0  0
  190.4380  175.2750  145.7290 N   0  0  0  0  0  2  0  0  0  0  0  0
  190.8010  175.3220  148.0230 O   0  0  0  0  0  1  0  0  0  0  0  0
  189.9520  174.8450  147.0260 C   0  0  1  0  0  3  0  0  0  0  0  0
  188.5500  175.3900  147.2390 C   0  0  0  0  0  2  0  0  0  0  0  0
  188.4120  176.7680  146.6100 C   0  0  0  0  0  2  0  0  0  0  0  0
  187.2700  176.8100  145.8040 O   0  0  0  0  0  0  0  0  0  0  0  0
  185.1910  178.5630  142.5480 C   0  0  0  0  0  3  0  0  0  0  0  0
  186.9380  178.1660  145.7190 C   0  0  1  0  0  3  0  0  0  0  0  0
  184.6940  178.5270  144.6870 C   0  0  0  0  0  0  0  0  0  0  0  0
  186.0250  178.3790  144.5960 N   0  0  0  0  0  0  0  0  0  0  0  0
  186.2830  178.6180  147.0320 C   0  0  0  0  0  2  0  0  0  0  0  0
  184.8470  178.0900  147.1290 C   0  0  0  0  0  2  0  0  0  0  0  0
  184.1280  178.6660  143.4380 C   0  0  0  0  0  3  0  0  0  0  0  0
  183.9780  178.6470  145.9960 C   0  0  0  0  0  2  0  0  0  0  0  0
  186.3490  178.3810  143.2940 C   0  0  0  0  0  3  0  0  0  0  0  0
  1 20  1  1  0  0  0
  2  5  2  0  0  0  0
  3  7  2  0  0  0  0
  4  5  1  0  0  0  0
  4  3  1  0  0  0  0
  5  6  1  0  0  0  0
  6  8  1  6  0  0  0
  6  7  1  0  0  0  0
  7  1  1  0  0  0  0
  8  9  2  0  0  0  0
 10  1  1  1  0  0  0
 10 13  1  0  0  0  0
 11 10  1  0  0  0  0
 12 11  1  0  0  0  0
 12 14  2  0  0  0  0
 14 16  1  0  0  0  0
 14 13  1  0  0  0  0
 16 15  1  1  0  0  0
 17 16  1  0  0  0  0
 17 18  1  0  0  0  0
 19 17  2  0  0  0  0
 20 22  1  0  0  0  0
 22 23  1  0  0  0  0
 22 21  1  1  0  0  0
 24 23  1  0  0  0  0
 25 24  1  0  0  0  0
 26 34  2  0  0  0  0
 26 32  1  0  0  0  0
 27 25  1  1  0  0  0
 27 30  1  0  0  0  0
 28 33  1  0  0  0  0
 29 28  1  0  0  0  0
 29 27  1  0  0  0  0
 30 31  1  0  0  0  0
 32 28  2  0  0  0  0
 33 31  1  0  0  0  0
 34 29  1  0  0  0  0
M  END
>  <MODEL>
8

>  <REMARK>
 VINA RESULT:      -6.2      2.085      6.911
  Name = 
  11 active torsions:
  status: ('A' for Active; 'I' for Inactive)
    1  A    between atoms: C_2  and  C_25
    2  A    between atoms: C_3  and  O_13
    3  A    between atoms: C_5  and  C_15
    4  A    between atoms: C_5  and  C_30
    5  A    between atoms: N_8  and  C_25
    6  A    between atoms: N_8  and  C_30
    7  A    between atoms: C_9  and  C_33
    8  A    between atoms: O_13  and  C_15
    9  A    between atoms: C_19  and  C_28
   10  A    between atoms: C_25  and  C_31
   11  A    between atoms: C_27  and  C_33
                            x       y       z     vdW  Elec       q    Type
                         _______ _______ _______ _____ _____    ______ ____

>  <TORSDO>
F 11

$$$$
=
 OpenBabel11042416063D

 34 37  0  0  1  0  0  0  0  0999 V2000
  191.9950  176.0900  145.0520 C   0  0  1  0  0  3  0  0  0  0  0  0
  189.3950  171.9230  145.0710 O   0  0  0  0  0  0  0  0  0  0  0  0
  191.3030  174.3510  143.4960 N   0  0  0  0  0  0  0  0  0  0  0  0
  190.5690  173.1200  143.3590 C   0  0  0  0  0  2  0  0  0  0  0  0
  190.0650  172.8870  144.7380 C   0  0  0  0  0  0  0  0  0  0  0  0
  190.4970  173.9740  145.6580 C   0  0  1  0  0  3  0  0  0  0  0  0
  191.2710  174.8210  144.6910 C   0  0  0  0  0  0  0  0  0  0  0  0
  189.3170  174.7060  146.2320 C   0  0  0  0  0  3  0  0  0  0  0  0
  188.9540  174.5290  147.3850 O   0  0  0  0  0  0  0  0  0  0  0  0
  193.3870  175.7930  145.6040 C   0  0  1  0  0  3  0  0  0  0  0  0
  193.7800  174.4790  145.2380 O   0  0  0  0  0  0  0  0  0  0  0  0
  194.8870  174.4580  144.4320 N   0  0  0  0  0  0  0  0  0  0  0  0
  194.4400  176.6740  144.9240 C   0  0  0  0  0  2  0  0  0  0  0  0
  195.2920  175.6610  144.2290 C   0  0  0  0  0  0  0  0  0  0  0  0
  197.6440  175.0020  143.6390 C   0  0  0  0  0  1  0  0  0  0  0  0
  196.4900  175.9610  143.3780 C   0  0  1  0  0  3  0  0  0  0  0  0
  196.1280  175.9590  141.9270 C   0  0  0  0  0  0  0  0  0  0  0  0
  195.9390  177.1660  141.2660 O   0  0  0  0  0  0  0  0  0  0  0  0
  195.9600  174.8740  141.3060 O   0  0  0  0  0  1  0  0  0  0  0  0
  192.1000  176.9580  143.8850 N   0  0  0  0  0  2  0  0  0  0  0  0
  191.5460  179.2140  143.8850 O   0  0  0  0  0  1  0  0  0  0  0  0
  191.0210  177.9250  143.9550 C   0  0  1  0  0  3  0  0  0  0  0  0
  190.0680  177.6940  142.7950 C   0  0  0  0  0  2  0  0  0  0  0  0
  188.7740  177.0620  143.2860 C   0  0  0  0  0  2  0  0  0  0  0  0
  188.0300  178.0010  144.0060 O   0  0  0  0  0  0  0  0  0  0  0  0
  186.2550  178.1370  147.8570 C   0  0  0  0  0  3  0  0  0  0  0  0
  186.8490  177.3360  144.3540 C   0  0  1  0  0  3  0  0  0  0  0  0
  185.4250  178.6850  145.8980 C   0  0  0  0  0  0  0  0  0  0  0  0
  186.3990  177.7900  145.6700 N   0  0  0  0  0  0  0  0  0  0  0  0
  185.7720  177.6160  143.2970 C   0  0  0  0  0  2  0  0  0  0  0  0
  185.2240  179.0400  143.4460 C   0  0  0  0  0  2  0  0  0  0  0  0
  185.2810  178.9210  147.2480 C   0  0  0  0  0  3  0  0  0  0  0  0
  184.5530  179.2310  144.8110 C   0  0  0  0  0  2  0  0  0  0  0  0
  186.9330  177.4540  146.8550 C   0  0  0  0  0  3  0  0  0  0  0  0
  1 20  1  6  0  0  0
  3  7  2  0  0  0  0
  4  3  1  0  0  0  0
  4  5  1  0  0  0  0
  5  2  2  0  0  0  0
  5  6  1  0  0  0  0
  6  8  1  6  0  0  0
  7  1  1  0  0  0  0
  7  6  1  0  0  0  0
  8  9  2  0  0  0  0
 10  1  1  6  0  0  0
 11 10  1  0  0  0  0
 12 11  1  0  0  0  0
 13 10  1  0  0  0  0
 14 12  2  0  0  0  0
 14 13  1  0  0  0  0
 16 15  1  6  0  0  0
 16 14  1  0  0  0  0
 17 16  1  0  0  0  0
 18 17  2  0  0  0  0
 19 17  1  0  0  0  0
 20 22  1  0  0  0  0
 22 21  1  6  0  0  0
 23 24  1  0  0  0  0
 23 22  1  0  0  0  0
 24 25  1  0  0  0  0
 27 25  1  6  0  0  0
 27 29  1  0  0  0  0
 28 32  2  0  0  0  0
 29 28  1  0  0  0  0
 29 34  1  0  0  0  0
 30 31  1  0  0  0  0
 30 27  1  0  0  0  0
 31 33  1  0  0  0  0
 32 26  1  0  0  0  0
 33 28  1  0  0  0  0
 34 26  2  0  0  0  0
M  END
>  <MODEL>
9

>  <REMARK>
 VINA RESULT:      -6.2      2.305      7.305
  Name = 
  11 active torsions:
  status: ('A' for Active; 'I' for Inactive)
    1  A    between atoms: C_2  and  C_25
    2  A    between atoms: C_3  and  O_13
    3  A    between atoms: C_5  and  C_15
    4  A    between atoms: C_5  and  C_30
    5  A    between atoms: N_8  and  C_25
    6  A    between atoms: N_8  and  C_30
    7  A    between atoms: C_9  and  C_33
    8  A    between atoms: O_13  and  C_15
    9  A    between atoms: C_19  and  C_28
   10  A    between atoms: C_25  and  C_31
   11  A    between atoms: C_27  and  C_33
                            x       y       z     vdW  Elec       q    Type
                         _______ _______ _______ _____ _____    ______ ____

>  <TORSDO>
F 11

$$$$
