=
 OpenBabel11042417263D

 29 32  0  0  1  0  0  0  0  0999 V2000
  185.1860  178.5380  144.6320 C   0  0  0  0  0  0  0  0  0  0  0  0
  189.1290  177.3750  146.6040 O   0  0  0  0  0  1  0  0  0  0  0  0
  185.9610  178.1490  146.6630 C   0  0  0  0  0  0  0  0  0  0  0  0
  183.9070  178.7020  142.5390 C   0  0  0  0  0  3  0  0  0  0  0  0
  185.0530  177.7340  140.6040 C   0  0  0  0  0  3  0  0  0  0  0  0
  186.7610  177.7550  147.7720 N   0  0  0  0  0  1  0  0  0  0  0  0
  185.1640  178.5680  143.2930 C   0  0  0  0  0  0  0  0  0  0  0  0
  186.4640  178.4540  142.5030 C   0  0  2  0  0  3  0  0  0  0  0  0
  186.2520  177.7360  141.1980 C   0  0  0  0  0  3  0  0  0  0  0  0
  189.8260  177.2410  144.2600 C   0  0  0  0  0  0  0  0  0  0  0  0
  184.0960  178.6460  145.5940 C   0  0  0  0  0  3  0  0  0  0  0  0
  189.1580  177.5290  142.7430 S   0  0  0  0  0  0  0  0  0  0  0  0
  187.6220  177.8570  144.7090 C   0  0  0  0  0  0  0  0  0  0  0  0
  184.5630  178.4250  146.7840 N   0  0  0  0  0  0  0  0  0  0  0  0
  183.8630  178.3420  141.2520 C   0  0  0  0  0  0  0  0  0  0  0  0
  188.8660  177.4770  145.2450 C   0  0  0  0  0  0  0  0  0  0  0  0
  187.6200  177.9080  143.3140 C   0  0  0  0  0  0  0  0  0  0  0  0
  186.3640  178.2060  145.4000 C   0  0  0  0  0  0  0  0  0  0  0  0
  191.1920  176.8640  144.4630 N   0  0  0  0  0  2  0  0  0  0  0  0
  191.6600  175.4860  144.5110 C   0  0  1  0  0  3  0  0  0  0  0  0
  193.0950  176.4440  142.8310 O   0  0  0  0  0  1  0  0  0  0  0  0
  192.7030  175.2400  143.4210 C   0  0  0  0  0  2  0  0  0  0  0  0
  192.2270  175.1890  145.8900 C   0  0  0  0  0  2  0  0  0  0  0  0
  192.8820  176.4070  146.4570 C   0  0  0  0  0  3  0  0  0  0  0  0
  194.2020  176.5120  146.5810 C   0  0  0  0  0  3  0  0  0  0  0  0
  195.0760  175.4620  146.1760 N   0  0  0  0  0  1  0  0  0  0  0  0
  182.6300  178.4720  140.5410 N   0  0  0  0  0  2  0  0  0  0  0  0
  181.3360  178.4100  141.2000 C   0  0  0  0  0  2  0  0  0  0  0  0
  180.4420  179.5060  140.6620 C   0  0  0  0  0  1  0  0  0  0  0  0
  1 18  1  0  0  0  0
  1 11  1  0  0  0  0
  3 14  1  0  0  0  0
  3  6  1  0  0  0  0
  4  7  1  0  0  0  0
  5  9  2  0  0  0  0
  5 15  1  0  0  0  0
  7  1  2  0  0  0  0
  8  9  1  6  0  0  0
  8  7  1  0  0  0  0
  8 17  1  0  0  0  0
 10 19  1  0  0  0  0
 10 16  2  0  0  0  0
 11 14  2  0  0  0  0
 12 17  1  0  0  0  0
 12 10  1  0  0  0  0
 13 16  1  0  0  0  0
 13 18  1  0  0  0  0
 15  4  2  0  0  0  0
 16  2  1  0  0  0  0
 17 13  2  0  0  0  0
 18  3  2  0  0  0  0
 19 20  1  0  0  0  0
 20 22  1  6  0  0  0
 20 23  1  0  0  0  0
 21 22  1  0  0  0  0
 23 24  1  0  0  0  0
 24 25  2  0  0  0  0
 26 25  1  0  0  0  0
 27 28  1  0  0  0  0
 27 15  1  0  0  0  0
 29 28  1  0  0  0  0
M  END
>  <MODEL>
1

>  <REMARK>
 VINA RESULT:      -7.5      0.000      0.000
  Name = 
  7 active torsions:
  status: ('A' for Active; 'I' for Inactive)
    1  A    between atoms: C_1  and  C_15
    2  A    between atoms: N_5  and  C_17
    3  A    between atoms: N_5  and  CA_23
    4  A    between atoms: C_9  and  N_13
    5  A    between atoms: N_13  and  C_25
    6  A    between atoms: C_15  and  CA_23
    7  A    between atoms: CA_23  and  C_27
                            x       y       z     vdW  Elec       q    Type
                         _______ _______ _______ _____ _____    ______ ____

>  <TORSDO>
F 7

$$$$
=
 OpenBabel11042417263D

 29 32  0  0  1  0  0  0  0  0999 V2000
  185.1930  178.5040  144.5770 C   0  0  0  0  0  0  0  0  0  0  0  0
  189.1650  177.3880  146.5190 O   0  0  0  0  0  1  0  0  0  0  0  0
  185.9860  178.1120  146.6010 C   0  0  0  0  0  0  0  0  0  0  0  0
  183.9000  178.6640  142.4930 C   0  0  0  0  0  3  0  0  0  0  0  0
  185.0510  177.7280  140.5430 C   0  0  0  0  0  3  0  0  0  0  0  0
  186.7970  177.7220  147.7020 N   0  0  0  0  0  1  0  0  0  0  0  0
  185.1640  178.5440  143.2380 C   0  0  0  0  0  0  0  0  0  0  0  0
  186.4600  178.4570  142.4410 C   0  0  2  0  0  3  0  0  0  0  0  0
  186.2530  177.7450  141.1310 C   0  0  0  0  0  3  0  0  0  0  0  0
  189.8510  177.2830  144.1700 C   0  0  0  0  0  0  0  0  0  0  0  0
  184.1070  178.5880  145.5460 C   0  0  0  0  0  3  0  0  0  0  0  0
  189.1700  177.5720  142.6590 S   0  0  0  0  0  0  0  0  0  0  0  0
  187.6400  177.8610  144.6360 C   0  0  0  0  0  0  0  0  0  0  0  0
  184.5840  178.3650  146.7310 N   0  0  0  0  0  0  0  0  0  0  0  0
  183.8540  178.3130  141.2020 C   0  0  0  0  0  0  0  0  0  0  0  0
  188.8930  177.4970  145.1620 C   0  0  0  0  0  0  0  0  0  0  0  0
  187.6300  177.9230  143.2410 C   0  0  0  0  0  0  0  0  0  0  0  0
  186.3810  178.1850  145.3360 C   0  0  0  0  0  0  0  0  0  0  0  0
  191.2240  176.9260  144.3620 N   0  0  0  0  0  2  0  0  0  0  0  0
  191.7130  175.5540  144.4000 C   0  0  1  0  0  3  0  0  0  0  0  0
  192.3380  176.3670  146.5790 O   0  0  0  0  0  1  0  0  0  0  0  0
  192.2400  175.2160  145.7940 C   0  0  0  0  0  2  0  0  0  0  0  0
  190.6000  174.6050  143.9880 C   0  0  0  0  0  2  0  0  0  0  0  0
  190.2960  173.6480  145.0940 C   0  0  0  0  0  3  0  0  0  0  0  0
  189.7620  172.4500  144.8720 C   0  0  0  0  0  3  0  0  0  0  0  0
  189.4460  172.0060  143.5550 N   0  0  0  0  0  1  0  0  0  0  0  0
  182.6160  178.4290  140.5000 N   0  0  0  0  0  2  0  0  0  0  0  0
  181.3260  178.3460  141.1660 C   0  0  0  0  0  2  0  0  0  0  0  0
  180.4820  179.5420  140.7830 C   0  0  0  0  0  1  0  0  0  0  0  0
  1 18  1  0  0  0  0
  1 11  1  0  0  0  0
  3 14  1  0  0  0  0
  3  6  1  0  0  0  0
  4  7  1  0  0  0  0
  5  9  2  0  0  0  0
  5 15  1  0  0  0  0
  7  1  2  0  0  0  0
  8  9  1  6  0  0  0
  8  7  1  0  0  0  0
  8 17  1  0  0  0  0
 10 19  1  0  0  0  0
 10 16  2  0  0  0  0
 11 14  2  0  0  0  0
 12 17  1  0  0  0  0
 12 10  1  0  0  0  0
 13 16  1  0  0  0  0
 13 18  1  0  0  0  0
 15  4  2  0  0  0  0
 16  2  1  0  0  0  0
 17 13  2  0  0  0  0
 18  3  2  0  0  0  0
 19 20  1  0  0  0  0
 20 23  1  1  0  0  0
 20 22  1  0  0  0  0
 22 21  1  0  0  0  0
 23 24  1  0  0  0  0
 25 24  2  0  0  0  0
 26 25  1  0  0  0  0
 27 28  1  0  0  0  0
 27 15  1  0  0  0  0
 29 28  1  0  0  0  0
M  END
>  <MODEL>
2

>  <REMARK>
 VINA RESULT:      -7.3      1.434      2.142
  Name = 
  7 active torsions:
  status: ('A' for Active; 'I' for Inactive)
    1  A    between atoms: C_1  and  C_15
    2  A    between atoms: N_5  and  C_17
    3  A    between atoms: N_5  and  CA_23
    4  A    between atoms: C_9  and  N_13
    5  A    between atoms: N_13  and  C_25
    6  A    between atoms: C_15  and  CA_23
    7  A    between atoms: CA_23  and  C_27
                            x       y       z     vdW  Elec       q    Type
                         _______ _______ _______ _____ _____    ______ ____

>  <TORSDO>
F 7

$$$$
=
 OpenBabel11042417263D

 29 32  0  0  1  0  0  0  0  0999 V2000
  185.2980  178.4630  144.4920 C   0  0  0  0  0  0  0  0  0  0  0  0
  189.3330  177.4960  146.3850 O   0  0  0  0  0  1  0  0  0  0  0  0
  186.1250  178.0760  146.5030 C   0  0  0  0  0  0  0  0  0  0  0  0
  183.9820  178.5970  142.4210 C   0  0  0  0  0  3  0  0  0  0  0  0
  185.1570  177.7430  140.4480 C   0  0  0  0  0  3  0  0  0  0  0  0
  186.9630  177.7070  147.5920 N   0  0  0  0  0  1  0  0  0  0  0  0
  185.2560  178.5210  143.1540 C   0  0  0  0  0  0  0  0  0  0  0  0
  186.5480  178.5050  142.3450 C   0  0  2  0  0  3  0  0  0  0  0  0
  186.3620  177.8040  141.0270 C   0  0  0  0  0  3  0  0  0  0  0  0
  190.0020  177.4570  144.0300 C   0  0  0  0  0  0  0  0  0  0  0  0
  184.2180  178.4830  145.4700 C   0  0  0  0  0  3  0  0  0  0  0  0
  189.2970  177.7380  142.5290 S   0  0  0  0  0  0  0  0  0  0  0  0
  187.7720  177.9290  144.5220 C   0  0  0  0  0  0  0  0  0  0  0  0
  184.7150  178.2650  146.6490 N   0  0  0  0  0  0  0  0  0  0  0  0
  183.9410  178.2640  141.1260 C   0  0  0  0  0  0  0  0  0  0  0  0
  189.0440  177.6130  145.0330 C   0  0  0  0  0  0  0  0  0  0  0  0
  187.7470  178.0110  143.1290 C   0  0  0  0  0  0  0  0  0  0  0  0
  186.5060  178.1860  145.2370 C   0  0  0  0  0  0  0  0  0  0  0  0
  191.3910  177.1590  144.2060 N   0  0  0  0  0  2  0  0  0  0  0  0
  191.9970  175.8730  143.8890 C   0  0  1  0  0  3  0  0  0  0  0  0
  191.1530  173.9550  145.0780 O   0  0  0  0  0  1  0  0  0  0  0  0
  190.9500  174.7620  143.9550 C   0  0  0  0  0  2  0  0  0  0  0  0
  192.6420  175.9380  142.5140 C   0  0  0  0  0  2  0  0  0  0  0  0
  194.1270  175.8280  142.6300 C   0  0  0  0  0  3  0  0  0  0  0  0
  194.7670  174.6690  142.5010 C   0  0  0  0  0  3  0  0  0  0  0  0
  194.0670  173.4550  142.2420 N   0  0  0  0  0  1  0  0  0  0  0  0
  182.6930  178.3340  140.4350 N   0  0  0  0  0  2  0  0  0  0  0  0
  181.4130  178.2870  141.1220 C   0  0  0  0  0  2  0  0  0  0  0  0
  180.5740  179.4770  140.7090 C   0  0  0  0  0  1  0  0  0  0  0  0
  1 18  1  0  0  0  0
  1 11  1  0  0  0  0
  3 14  1  0  0  0  0
  3  6  1  0  0  0  0
  4  7  1  0  0  0  0
  5  9  2  0  0  0  0
  5 15  1  0  0  0  0
  7  1  2  0  0  0  0
  8  9  1  6  0  0  0
  8 17  1  0  0  0  0
  8  7  1  0  0  0  0
 10 19  1  0  0  0  0
 10 16  2  0  0  0  0
 11 14  2  0  0  0  0
 12 17  1  0  0  0  0
 12 10  1  0  0  0  0
 13 16  1  0  0  0  0
 13 18  1  0  0  0  0
 15  4  2  0  0  0  0
 16  2  1  0  0  0  0
 17 13  2  0  0  0  0
 18  3  2  0  0  0  0
 20 23  1  6  0  0  0
 20 22  1  0  0  0  0
 20 19  1  0  0  0  0
 22 21  1  0  0  0  0
 23 24  1  0  0  0  0
 25 24  2  0  0  0  0
 26 25  1  0  0  0  0
 27 28  1  0  0  0  0
 27 15  1  0  0  0  0
 29 28  1  0  0  0  0
M  END
>  <MODEL>
3

>  <REMARK>
 VINA RESULT:      -6.8      1.476      1.763
  Name = 
  7 active torsions:
  status: ('A' for Active; 'I' for Inactive)
    1  A    between atoms: C_1  and  C_15
    2  A    between atoms: N_5  and  C_17
    3  A    between atoms: N_5  and  CA_23
    4  A    between atoms: C_9  and  N_13
    5  A    between atoms: N_13  and  C_25
    6  A    between atoms: C_15  and  CA_23
    7  A    between atoms: CA_23  and  C_27
                            x       y       z     vdW  Elec       q    Type
                         _______ _______ _______ _____ _____    ______ ____

>  <TORSDO>
F 7

$$$$
=
 OpenBabel11042417263D

 29 32  0  0  1  0  0  0  0  0999 V2000
  191.7620  174.8990  142.8560 C   0  0  0  0  0  0  0  0  0  0  0  0
  187.3020  175.4500  142.0820 O   0  0  0  0  0  1  0  0  0  0  0  0
  190.2310  174.1680  141.4400 C   0  0  0  0  0  0  0  0  0  0  0  0
  193.6270  175.2150  144.4240 C   0  0  0  0  0  3  0  0  0  0  0  0
  192.9390  176.0480  146.6220 C   0  0  0  0  0  3  0  0  0  0  0  0
  189.0060  173.8560  140.7880 N   0  0  0  0  0  1  0  0  0  0  0  0
  192.2660  175.5000  143.9410 C   0  0  2  0  0  3  0  0  0  0  0  0
  191.4270  176.5070  144.7190 C   0  0  0  0  0  0  0  0  0  0  0  0
  191.7430  176.4650  146.1900 C   0  0  0  0  0  3  0  0  0  0  0  0
  187.4980  176.7890  144.1230 C   0  0  0  0  0  0  0  0  0  0  0  0
  192.3650  173.9300  141.9490 C   0  0  0  0  0  3  0  0  0  0  0  0
  188.7130  177.2830  145.1770 S   0  0  0  0  0  0  0  0  0  0  0  0
  189.4270  175.7710  143.2960 C   0  0  0  0  0  0  0  0  0  0  0  0
  191.4620  173.5150  141.1160 N   0  0  0  0  0  0  0  0  0  0  0  0
  193.9600  175.5100  145.6860 C   0  0  0  0  0  0  0  0  0  0  0  0
  188.0450  175.9740  143.1310 C   0  0  0  0  0  0  0  0  0  0  0  0
  189.9450  176.4230  144.4170 C   0  0  0  0  0  0  0  0  0  0  0  0
  190.3720  174.9950  142.4680 C   0  0  0  0  0  0  0  0  0  0  0  0
  186.1360  177.2110  144.2360 N   0  0  0  0  0  2  0  0  0  0  0  0
  185.6610  178.5440  143.8880 C   0  0  1  0  0  3  0  0  0  0  0  0
  184.4770  177.6270  142.0010 O   0  0  0  0  0  1  0  0  0  0  0  0
  184.3440  178.4550  143.1190 C   0  0  0  0  0  2  0  0  0  0  0  0
  185.5050  179.3740  145.1510 C   0  0  0  0  0  2  0  0  0  0  0  0
  184.4480  178.7900  146.0310 C   0  0  0  0  0  3  0  0  0  0  0  0
  184.7160  178.3060  147.2400 C   0  0  0  0  0  3  0  0  0  0  0  0
  186.0380  178.3170  147.7720 N   0  0  0  0  0  1  0  0  0  0  0  0
  195.2830  175.2160  146.1370 N   0  0  0  0  0  2  0  0  0  0  0  0
  196.2470  174.4960  145.3220 C   0  0  0  0  0  2  0  0  0  0  0  0
  196.8980  173.4100  146.1510 C   0  0  0  0  0  1  0  0  0  0  0  0
  1  7  1  0  0  0  0
  2 16  1  0  0  0  0
  3 18  1  0  0  0  0
  4 15  2  0  0  0  0
  6  3  1  0  0  0  0
  7  4  1  1  0  0  0
  7  8  1  0  0  0  0
  8  9  1  0  0  0  0
  9  5  2  0  0  0  0
 10 19  1  0  0  0  0
 10 12  1  0  0  0  0
 11  1  2  0  0  0  0
 13 17  1  0  0  0  0
 14  3  2  0  0  0  0
 14 11  1  0  0  0  0
 15 27  1  0  0  0  0
 15  5  1  0  0  0  0
 16 13  1  0  0  0  0
 16 10  2  0  0  0  0
 17  8  2  0  0  0  0
 17 12  1  0  0  0  0
 18  1  1  0  0  0  0
 18 13  2  0  0  0  0
 20 22  1  1  0  0  0
 20 19  1  0  0  0  0
 20 23  1  0  0  0  0
 21 22  1  0  0  0  0
 23 24  1  0  0  0  0
 24 25  2  0  0  0  0
 25 26  1  0  0  0  0
 28 27  1  0  0  0  0
 28 29  1  0  0  0  0
M  END
>  <MODEL>
4

>  <REMARK>
 VINA RESULT:      -6.7      2.679      8.980
  Name = 
  7 active torsions:
  status: ('A' for Active; 'I' for Inactive)
    1  A    between atoms: C_1  and  C_15
    2  A    between atoms: N_5  and  C_17
    3  A    between atoms: N_5  and  CA_23
    4  A    between atoms: C_9  and  N_13
    5  A    between atoms: N_13  and  C_25
    6  A    between atoms: C_15  and  CA_23
    7  A    between atoms: CA_23  and  C_27
                            x       y       z     vdW  Elec       q    Type
                         _______ _______ _______ _____ _____    ______ ____

>  <TORSDO>
F 7

$$$$
=
 OpenBabel11042417263D

 29 32  0  0  1  0  0  0  0  0999 V2000
  185.4800  178.4770  143.4120 C   0  0  0  0  0  0  0  0  0  0  0  0
  187.3230  177.9980  147.5550 O   0  0  0  0  0  1  0  0  0  0  0  0
  184.8760  178.7210  145.5230 C   0  0  0  0  0  0  0  0  0  0  0  0
  185.6760  177.9950  141.0100 C   0  0  0  0  0  3  0  0  0  0  0  0
  187.5370  176.5030  140.4510 C   0  0  0  0  0  3  0  0  0  0  0  0
  184.8180  178.6860  146.9440 N   0  0  0  0  0  1  0  0  0  0  0  0
  186.2320  178.1040  142.3680 C   0  0  0  0  0  0  0  0  0  0  0  0
  187.7070  177.7740  142.5660 C   0  0  0  0  0  0  0  0  0  0  0  0
  188.1610  176.6960  141.6200 C   0  0  0  0  0  2  0  0  0  0  0  0
  189.1980  177.1770  146.2110 C   0  0  0  0  0  0  0  0  0  0  0  0
  184.0740  178.8560  143.4720 C   0  0  0  0  0  3  0  0  0  0  0  0
  189.5770  176.9910  144.5830 S   0  0  0  0  0  0  0  0  0  0  0  0
  187.2760  177.8760  145.0900 C   0  0  0  0  0  0  0  0  0  0  0  0
  183.7320  179.0060  144.7140 N   0  0  0  0  0  0  0  0  0  0  0  0
  186.3140  177.2650  140.0880 C   0  0  0  0  0  0  0  0  0  0  0  0
  187.9050  177.6870  146.3340 C   0  0  0  0  0  0  0  0  0  0  0  0
  188.0800  177.5080  144.0100 C   0  0  0  0  0  0  0  0  0  0  0  0
  185.9310  178.4030  144.7830 C   0  0  0  0  0  0  0  0  0  0  0  0
  190.1160  176.8930  147.2730 N   0  0  0  0  0  2  0  0  0  0  0  0
  190.5100  175.5490  147.6730 C   0  0  1  0  0  3  0  0  0  0  0  0
  189.6930  173.8330  146.1930 O   0  0  0  0  0  1  0  0  0  0  0  0
  189.3980  174.5510  147.3540 C   0  0  0  0  0  2  0  0  0  0  0  0
  191.8050  175.1690  146.9720 C   0  0  0  0  0  2  0  0  0  0  0  0
  192.7170  176.3500  146.8870 C   0  0  0  0  0  3  0  0  0  0  0  0
  193.3940  176.6470  145.7820 C   0  0  0  0  0  3  0  0  0  0  0  0
  193.2890  175.8510  144.6050 N   0  0  0  0  0  1  0  0  0  0  0  0
  185.7520  177.1630  138.7780 N   0  0  0  0  0  2  0  0  0  0  0  0
  186.4120  176.4530  137.6950 C   0  0  0  0  0  2  0  0  0  0  0  0
  185.3850  176.0400  136.6630 C   0  0  0  0  0  1  0  0  0  0  0  0
  1 11  2  0  0  0  0
  1 18  1  0  0  0  0
  3  6  1  0  0  0  0
  4  7  2  0  0  0  0
  5  9  1  0  0  0  0
  7  8  1  0  0  0  0
  7  1  1  0  0  0  0
  8 17  2  0  0  0  0
  9  8  1  0  0  0  0
 10 16  2  0  0  0  0
 10 19  1  0  0  0  0
 11 14  1  0  0  0  0
 12 10  1  0  0  0  0
 13 16  1  0  0  0  0
 14  3  2  0  0  0  0
 15  5  2  0  0  0  0
 15  4  1  0  0  0  0
 16  2  1  0  0  0  0
 17 12  1  0  0  0  0
 17 13  1  0  0  0  0
 18 13  2  0  0  0  0
 18  3  1  0  0  0  0
 19 20  1  0  0  0  0
 20 23  1  6  0  0  0
 21 22  1  0  0  0  0
 22 20  1  0  0  0  0
 24 23  1  0  0  0  0
 25 24  2  0  0  0  0
 26 25  1  0  0  0  0
 27 15  1  0  0  0  0
 28 27  1  0  0  0  0
 29 28  1  0  0  0  0
M  END
>  <MODEL>
5

>  <REMARK>
 VINA RESULT:      -6.7      2.167      3.005
  Name = 
  7 active torsions:
  status: ('A' for Active; 'I' for Inactive)
    1  A    between atoms: C_1  and  C_15
    2  A    between atoms: N_5  and  C_17
    3  A    between atoms: N_5  and  CA_23
    4  A    between atoms: C_9  and  N_13
    5  A    between atoms: N_13  and  C_25
    6  A    between atoms: C_15  and  CA_23
    7  A    between atoms: CA_23  and  C_27
                            x       y       z     vdW  Elec       q    Type
                         _______ _______ _______ _____ _____    ______ ____

>  <TORSDO>
F 7

$$$$
=
 OpenBabel11042417263D

 29 32  0  0  1  0  0  0  0  0999 V2000
  189.7110  173.7360  143.3450 C   0  0  0  0  0  0  0  0  0  0  0  0
  188.1780  177.7420  144.8940 O   0  0  0  0  0  1  0  0  0  0  0  0
  189.9330  175.0040  145.1400 C   0  0  0  0  0  0  0  0  0  0  0  0
  189.9770  172.2520  141.4040 C   0  0  0  0  0  3  0  0  0  0  0  0
  189.3070  173.2730  139.2810 C   0  0  0  0  0  3  0  0  0  0  0  0
  189.9070  176.0830  146.0670 N   0  0  0  0  0  1  0  0  0  0  0  0
  189.3650  173.3990  142.0960 C   0  0  0  0  0  0  0  0  0  0  0  0
  188.3160  174.2110  141.3440 C   0  0  2  0  0  3  0  0  0  0  0  0
  188.6060  174.2510  139.8680 C   0  0  0  0  0  3  0  0  0  0  0  0
  187.1740  177.7930  142.6600 C   0  0  0  0  0  0  0  0  0  0  0  0
  190.6580  173.1140  144.2610 C   0  0  0  0  0  3  0  0  0  0  0  0
  187.0730  176.7850  141.3170 S   0  0  0  0  0  0  0  0  0  0  0  0
  188.4480  175.9270  143.2420 C   0  0  0  0  0  0  0  0  0  0  0  0
  190.7750  173.8610  145.3160 N   0  0  0  0  0  0  0  0  0  0  0  0
  189.9170  172.1720  140.0700 C   0  0  0  0  0  0  0  0  0  0  0  0
  187.9510  177.1800  143.6450 C   0  0  0  0  0  0  0  0  0  0  0  0
  188.0610  175.5770  141.9480 C   0  0  0  0  0  0  0  0  0  0  0  0
  189.2880  174.9640  143.9810 C   0  0  0  0  0  0  0  0  0  0  0  0
  186.5040  179.0540  142.7540 N   0  0  0  0  0  2  0  0  0  0  0  0
  185.1880  179.2370  143.3520 C   0  0  1  0  0  3  0  0  0  0  0  0
  183.6340  178.1310  141.8820 O   0  0  0  0  0  1  0  0  0  0  0  0
  184.3130  178.0110  143.0970 C   0  0  0  0  0  2  0  0  0  0  0  0
  185.3390  179.5040  144.8410 C   0  0  0  0  0  2  0  0  0  0  0  0
  184.2600  178.8100  145.6060 C   0  0  0  0  0  3  0  0  0  0  0  0
  184.4570  178.3160  146.8250 C   0  0  0  0  0  3  0  0  0  0  0  0
  185.7200  178.4220  147.4780 N   0  0  0  0  0  1  0  0  0  0  0  0
  190.5260  171.0560  139.4180 N   0  0  0  0  0  2  0  0  0  0  0  0
  190.4920  170.8770  137.9760 C   0  0  0  0  0  2  0  0  0  0  0  0
  189.8160  169.5650  137.6460 C   0  0  0  0  0  1  0  0  0  0  0  0
  1 18  1  0  0  0  0
  1 11  1  0  0  0  0
  3 14  1  0  0  0  0
  3  6  1  0  0  0  0
  4  7  1  0  0  0  0
  5  9  2  0  0  0  0
  5 15  1  0  0  0  0
  7  1  2  0  0  0  0
  8  9  1  6  0  0  0
  8 17  1  0  0  0  0
  8  7  1  0  0  0  0
 10 19  1  0  0  0  0
 10 16  2  0  0  0  0
 11 14  2  0  0  0  0
 12 17  1  0  0  0  0
 12 10  1  0  0  0  0
 13 16  1  0  0  0  0
 13 18  1  0  0  0  0
 15  4  2  0  0  0  0
 16  2  1  0  0  0  0
 17 13  2  0  0  0  0
 18  3  2  0  0  0  0
 19 20  1  0  0  0  0
 20 22  1  1  0  0  0
 20 23  1  0  0  0  0
 21 22  1  0  0  0  0
 23 24  1  0  0  0  0
 24 25  2  0  0  0  0
 25 26  1  0  0  0  0
 27 15  1  0  0  0  0
 28 27  1  0  0  0  0
 29 28  1  0  0  0  0
M  END
>  <MODEL>
6

>  <REMARK>
 VINA RESULT:      -6.6      3.993      7.513
  Name = 
  7 active torsions:
  status: ('A' for Active; 'I' for Inactive)
    1  A    between atoms: C_1  and  C_15
    2  A    between atoms: N_5  and  C_17
    3  A    between atoms: N_5  and  CA_23
    4  A    between atoms: C_9  and  N_13
    5  A    between atoms: N_13  and  C_25
    6  A    between atoms: C_15  and  CA_23
    7  A    between atoms: CA_23  and  C_27
                            x       y       z     vdW  Elec       q    Type
                         _______ _______ _______ _____ _____    ______ ____

>  <TORSDO>
F 7

$$$$
=
 OpenBabel11042417263D

 29 32  0  0  1  0  0  0  0  0999 V2000
  188.2140  176.9360  145.4510 C   0  0  0  0  0  0  0  0  0  0  0  0
  192.4180  175.4530  146.4130 O   0  0  0  0  0  1  0  0  0  0  0  0
  189.2190  175.7180  146.9950 C   0  0  0  0  0  0  0  0  0  0  0  0
  186.7220  177.9270  143.7680 C   0  0  0  0  0  3  0  0  0  0  0  0
  187.7430  178.1490  141.5520 C   0  0  0  0  0  3  0  0  0  0  0  0
  190.1550  174.9410  147.7320 N   0  0  0  0  0  1  0  0  0  0  0  0
  188.0560  177.6000  144.2980 C   0  0  0  0  0  0  0  0  0  0  0  0
  189.2740  178.0360  143.4910 C   0  0  2  0  0  3  0  0  0  0  0  0
  188.9920  178.0100  142.0140 C   0  0  0  0  0  3  0  0  0  0  0  0
  192.8840  176.5420  144.2700 C   0  0  0  0  0  0  0  0  0  0  0  0
  187.2220  176.4390  146.3950 C   0  0  0  0  0  3  0  0  0  0  0  0
  192.0450  177.4390  143.1200 S   0  0  0  0  0  0  0  0  0  0  0  0
  190.6930  176.5990  145.0690 C   0  0  0  0  0  0  0  0  0  0  0  0
  187.8220  175.7330  147.3030 N   0  0  0  0  0  0  0  0  0  0  0  0
  186.5780  178.2250  142.4720 C   0  0  0  0  0  0  0  0  0  0  0  0
  192.0110  176.1610  145.2910 C   0  0  0  0  0  0  0  0  0  0  0  0
  190.5470  177.3110  143.8770 C   0  0  0  0  0  0  0  0  0  0  0  0
  189.4870  176.4210  145.9020 C   0  0  0  0  0  0  0  0  0  0  0  0
  194.2890  176.2810  144.1970 N   0  0  0  0  0  2  0  0  0  0  0  0
  194.9160  175.4650  143.1660 C   0  0  1  0  0  3  0  0  0  0  0  0
  196.7930  176.8020  142.4660 O   0  0  0  0  0  1  0  0  0  0  0  0
  195.5270  176.3540  142.0830 C   0  0  0  0  0  2  0  0  0  0  0  0
  195.9670  174.5670  143.7970 C   0  0  0  0  0  2  0  0  0  0  0  0
  195.9600  174.7220  145.2830 C   0  0  0  0  0  3  0  0  0  0  0  0
  196.5180  173.8280  146.0940 C   0  0  0  0  0  3  0  0  0  0  0  0
  197.1620  172.6610  145.5890 N   0  0  0  0  0  1  0  0  0  0  0  0
  185.2740  178.5300  141.9750 N   0  0  0  0  0  2  0  0  0  0  0  0
  184.8670  178.2360  140.6110 C   0  0  0  0  0  2  0  0  0  0  0  0
  183.3580  178.3020  140.5090 C   0  0  0  0  0  1  0  0  0  0  0  0
  1 18  1  0  0  0  0
  1 11  1  0  0  0  0
  3 14  1  0  0  0  0
  3  6  1  0  0  0  0
  4  7  1  0  0  0  0
  5  9  2  0  0  0  0
  5 15  1  0  0  0  0
  7  1  2  0  0  0  0
  8  9  1  6  0  0  0
  8 17  1  0  0  0  0
  8  7  1  0  0  0  0
 10 16  2  0  0  0  0
 11 14  2  0  0  0  0
 12 17  1  0  0  0  0
 12 10  1  0  0  0  0
 13 16  1  0  0  0  0
 13 18  1  0  0  0  0
 15  4  2  0  0  0  0
 16  2  1  0  0  0  0
 17 13  2  0  0  0  0
 18  3  2  0  0  0  0
 19 10  1  0  0  0  0
 20 22  1  6  0  0  0
 20 23  1  0  0  0  0
 20 19  1  0  0  0  0
 22 21  1  0  0  0  0
 23 24  1  0  0  0  0
 24 25  2  0  0  0  0
 26 25  1  0  0  0  0
 27 15  1  0  0  0  0
 28 27  1  0  0  0  0
 29 28  1  0  0  0  0
M  END
>  <MODEL>
7

>  <REMARK>
 VINA RESULT:      -6.5      2.366      3.483
  Name = 
  7 active torsions:
  status: ('A' for Active; 'I' for Inactive)
    1  A    between atoms: C_1  and  C_15
    2  A    between atoms: N_5  and  C_17
    3  A    between atoms: N_5  and  CA_23
    4  A    between atoms: C_9  and  N_13
    5  A    between atoms: N_13  and  C_25
    6  A    between atoms: C_15  and  CA_23
    7  A    between atoms: CA_23  and  C_27
                            x       y       z     vdW  Elec       q    Type
                         _______ _______ _______ _____ _____    ______ ____

>  <TORSDO>
F 7

$$$$
=
 OpenBabel11042417263D

 29 32  0  0  1  0  0  0  0  0999 V2000
  191.1400  175.3600  143.3020 C   0  0  0  0  0  0  0  0  0  0  0  0
  186.5930  175.6380  143.0890 O   0  0  0  0  0  1  0  0  0  0  0  0
  189.5200  174.8380  141.8930 C   0  0  0  0  0  0  0  0  0  0  0  0
  193.1390  175.4790  144.7270 C   0  0  0  0  0  3  0  0  0  0  0  0
  192.6380  175.6970  147.1150 C   0  0  0  0  0  3  0  0  0  0  0  0
  188.2570  174.5700  141.2970 N   0  0  0  0  0  1  0  0  0  0  0  0
  191.7150  175.7340  144.4520 C   0  0  2  0  0  3  0  0  0  0  0  0
  190.8950  176.4410  145.5250 C   0  0  0  0  0  0  0  0  0  0  0  0
  191.3740  176.0850  146.9070 C   0  0  0  0  0  3  0  0  0  0  0  0
  186.9150  176.4700  145.3700 C   0  0  0  0  0  0  0  0  0  0  0  0
  191.7090  174.6980  142.1350 C   0  0  0  0  0  3  0  0  0  0  0  0
  188.1990  176.8170  146.4000 S   0  0  0  0  0  0  0  0  0  0  0  0
  188.8100  175.8700  144.1500 C   0  0  0  0  0  0  0  0  0  0  0  0
  190.7520  174.4030  141.3100 N   0  0  0  0  0  0  0  0  0  0  0  0
  193.5860  175.4980  145.9880 C   0  0  0  0  0  0  0  0  0  0  0  0
  187.4070  175.9690  144.1630 C   0  0  0  0  0  0  0  0  0  0  0  0
  189.3990  176.2860  145.3450 C   0  0  0  0  0  0  0  0  0  0  0  0
  189.7130  175.4080  143.0760 C   0  0  0  0  0  0  0  0  0  0  0  0
  185.5450  176.7170  145.7050 N   0  0  0  0  0  2  0  0  0  0  0  0
  185.0190  178.0220  146.0790 C   0  0  1  0  0  3  0  0  0  0  0  0
  185.9350  179.6950  147.5510 O   0  0  0  0  0  1  0  0  0  0  0  0
  185.4550  178.3840  147.4980 C   0  0  0  0  0  2  0  0  0  0  0  0
  185.4880  179.0660  145.0780 C   0  0  0  0  0  2  0  0  0  0  0  0
  184.6830  178.9810  143.8220 C   0  0  0  0  0  3  0  0  0  0  0  0
  185.2470  178.8830  142.6220 C   0  0  0  0  0  3  0  0  0  0  0  0
  186.6630  178.8520  142.4620 N   0  0  0  0  0  1  0  0  0  0  0  0
  194.9690  175.2370  146.2330 N   0  0  0  0  0  2  0  0  0  0  0  0
  195.8660  174.7360  145.2050 C   0  0  0  0  0  2  0  0  0  0  0  0
  196.9040  173.8340  145.8370 C   0  0  0  0  0  1  0  0  0  0  0  0
  1  7  1  0  0  0  0
  2 16  1  0  0  0  0
  3 18  1  0  0  0  0
  4 15  2  0  0  0  0
  6  3  1  0  0  0  0
  7  4  1  1  0  0  0
  7  8  1  0  0  0  0
  8  9  1  0  0  0  0
  9  5  2  0  0  0  0
 10 19  1  0  0  0  0
 10 12  1  0  0  0  0
 11  1  2  0  0  0  0
 13 16  1  0  0  0  0
 13 17  1  0  0  0  0
 14  3  2  0  0  0  0
 14 11  1  0  0  0  0
 15 27  1  0  0  0  0
 15  5  1  0  0  0  0
 16 10  2  0  0  0  0
 17  8  2  0  0  0  0
 17 12  1  0  0  0  0
 18  1  1  0  0  0  0
 18 13  2  0  0  0  0
 19 20  1  0  0  0  0
 20 23  1  6  0  0  0
 20 22  1  0  0  0  0
 22 21  1  0  0  0  0
 24 23  1  0  0  0  0
 25 24  2  0  0  0  0
 26 25  1  0  0  0  0
 28 29  1  0  0  0  0
 28 27  1  0  0  0  0
M  END
>  <MODEL>
8

>  <REMARK>
 VINA RESULT:      -6.5      2.678      8.791
  Name = 
  7 active torsions:
  status: ('A' for Active; 'I' for Inactive)
    1  A    between atoms: C_1  and  C_15
    2  A    between atoms: N_5  and  C_17
    3  A    between atoms: N_5  and  CA_23
    4  A    between atoms: C_9  and  N_13
    5  A    between atoms: N_13  and  C_25
    6  A    between atoms: C_15  and  CA_23
    7  A    between atoms: CA_23  and  C_27
                            x       y       z     vdW  Elec       q    Type
                         _______ _______ _______ _____ _____    ______ ____

>  <TORSDO>
F 7

$$$$
=
 OpenBabel11042417263D

 29 32  0  0  1  0  0  0  0  0999 V2000
  191.8410  175.7800  145.5980 C   0  0  0  0  0  0  0  0  0  0  0  0
  187.5020  177.1330  145.2180 O   0  0  0  0  0  1  0  0  0  0  0  0
  190.3280  176.8290  146.8190 C   0  0  0  0  0  0  0  0  0  0  0  0
  193.8490  174.9740  144.4330 C   0  0  0  0  0  3  0  0  0  0  0  0
  193.6410  174.9740  141.9920 C   0  0  0  0  0  3  0  0  0  0  0  0
  189.1680  177.5210  147.2650 N   0  0  0  0  0  1  0  0  0  0  0  0
  192.4030  175.2380  144.5090 C   0  0  0  0  0  0  0  0  0  0  0  0
  191.5450  174.8800  143.3010 C   0  0  2  0  0  3  0  0  0  0  0  0
  192.3050  175.0580  142.0150 C   0  0  0  0  0  3  0  0  0  0  0  0
  187.8270  176.2650  142.9510 C   0  0  0  0  0  0  0  0  0  0  0  0
  192.4380  176.1850  146.8640 C   0  0  0  0  0  3  0  0  0  0  0  0
  189.0380  175.4950  142.0730 S   0  0  0  0  0  0  0  0  0  0  0  0
  189.6230  176.1400  144.4340 C   0  0  0  0  0  0  0  0  0  0  0  0
  191.5400  176.7910  147.5780 N   0  0  0  0  0  0  0  0  0  0  0  0
  194.4320  174.8110  143.2390 C   0  0  0  0  0  0  0  0  0  0  0  0
  188.2900  176.5450  144.2370 C   0  0  0  0  0  0  0  0  0  0  0  0
  190.1880  175.5540  143.3000 C   0  0  0  0  0  0  0  0  0  0  0  0
  190.4710  176.2390  145.6380 C   0  0  0  0  0  0  0  0  0  0  0  0
  186.5180  176.5240  142.4320 N   0  0  0  0  0  2  0  0  0  0  0  0
  186.0200  177.8510  142.0960 C   0  0  1  0  0  3  0  0  0  0  0  0
  186.6530  177.4110  139.8140 O   0  0  0  0  0  1  0  0  0  0  0  0
  185.6290  177.9140  140.6210 C   0  0  0  0  0  2  0  0  0  0  0  0
  184.8410  178.1930  142.9920 C   0  0  0  0  0  2  0  0  0  0  0  0
  185.1600  179.3790  143.8430 C   0  0  0  0  0  3  0  0  0  0  0  0
  184.8840  179.4170  145.1430 C   0  0  0  0  0  3  0  0  0  0  0  0
  184.2630  178.3190  145.8070 N   0  0  0  0  0  1  0  0  0  0  0  0
  195.8380  174.5660  143.1860 N   0  0  0  0  0  2  0  0  0  0  0  0
  196.7580  175.4330  142.4680 C   0  0  0  0  0  2  0  0  0  0  0  0
  196.8170  176.7820  143.1500 C   0  0  0  0  0  1  0  0  0  0  0  0
  1 18  1  0  0  0  0
  1 11  1  0  0  0  0
  3  6  1  0  0  0  0
  3 14  1  0  0  0  0
  4  7  1  0  0  0  0
  5  9  2  0  0  0  0
  5 15  1  0  0  0  0
  7  1  2  0  0  0  0
  8  9  1  6  0  0  0
  8  7  1  0  0  0  0
 10 16  2  0  0  0  0
 11 14  2  0  0  0  0
 12 10  1  0  0  0  0
 12 17  1  0  0  0  0
 13 18  1  0  0  0  0
 15  4  2  0  0  0  0
 16 13  1  0  0  0  0
 16  2  1  0  0  0  0
 17  8  1  0  0  0  0
 17 13  2  0  0  0  0
 18  3  2  0  0  0  0
 19 10  1  0  0  0  0
 20 22  1  6  0  0  0
 20 19  1  0  0  0  0
 20 23  1  0  0  0  0
 21 22  1  0  0  0  0
 23 24  1  0  0  0  0
 24 25  2  0  0  0  0
 25 26  1  0  0  0  0
 27 15  1  0  0  0  0
 28 29  1  0  0  0  0
 28 27  1  0  0  0  0
M  END
>  <MODEL>
9

>  <REMARK>
 VINA RESULT:      -6.3      2.507      8.358
  Name = 
  7 active torsions:
  status: ('A' for Active; 'I' for Inactive)
    1  A    between atoms: C_1  and  C_15
    2  A    between atoms: N_5  and  C_17
    3  A    between atoms: N_5  and  CA_23
    4  A    between atoms: C_9  and  N_13
    5  A    between atoms: N_13  and  C_25
    6  A    between atoms: C_15  and  CA_23
    7  A    between atoms: CA_23  and  C_27
                            x       y       z     vdW  Elec       q    Type
                         _______ _______ _______ _____ _____    ______ ____

>  <TORSDO>
F 7

$$$$
