=
 OpenBabel11042415483D

 50 54  0  0  1  0  0  0  0  0999 V2000
  194.0900  174.8490  143.7400 C   0  0  2  0  0  3  0  0  0  0  0  0
  193.8340  173.5850  140.7200 C   0  0  1  0  0  3  0  0  0  0  0  0
  196.1550  173.5420  145.3120 C   0  0  1  0  0  3  0  0  0  0  0  0
  196.0790  173.4710  142.9400 C   0  0  0  0  0  2  0  0  0  0  0  0
  188.4990  173.2400  142.0550 N   0  0  0  0  0  1  0  0  0  0  0  0
  191.0590  173.3110  139.5020 C   0  0  0  0  0  0  0  0  0  0  0  0
  192.5050  176.6090  143.2490 O   0  0  0  0  0  0  0  0  0  0  0  0
  192.7530  175.3710  143.2720 C   0  0  0  0  0  0  0  0  0  0  0  0
  197.0240  172.9840  146.4170 C   0  0  0  0  0  1  0  0  0  0  0  0
  194.2610  176.8720  145.4100 C   0  0  0  0  0  1  0  0  0  0  0  0
  194.6590  175.4960  144.9950 C   0  0  0  0  0  0  0  0  0  0  0  0
  191.7900  174.3840  142.7410 C   0  0  0  0  0  3  0  0  0  0  0  0
  195.6070  174.8770  145.7150 C   0  0  0  0  0  3  0  0  0  0  0  0
  189.8800  173.4170  141.6270 C   0  0  1  0  0  3  0  0  0  0  0  0
  195.1770  174.6820  142.6590 C   0  0  1  0  0  3  0  0  0  0  0  0
  193.4420  173.8050  139.2600 C   0  0  2  0  0  3  0  0  0  0  0  0
  194.4480  172.3390  140.8920 O   0  0  0  0  0  1  0  0  0  0  0  0
  196.9460  173.7000  144.0910 N   0  0  0  0  0  2  0  0  0  0  0  0
  189.9370  173.5480  140.1350 C   0  0  0  0  0  3  0  0  0  0  0  0
  190.5460  174.5950  142.3070 C   0  0  0  0  0  0  0  0  0  0  0  0
  192.1890  173.0730  138.8830 C   0  0  0  0  0  3  0  0  0  0  0  0
  194.7410  174.7290  141.1850 C   0  0  0  0  0  2  0  0  0  0  0  0
  189.0210  176.2490  143.2580 C   0  0  0  0  0  0  0  0  0  0  0  0
  189.9320  175.9360  142.3750 C   0  0  0  0  0  3  0  0  0  0  0  0
  186.3340  176.9720  146.3950 C   0  0  1  0  0  3  0  0  0  0  0  0
  188.6710  176.9610  145.5150 C   0  0  0  0  0  3  0  0  0  0  0  0
  188.1660  176.5620  144.1940 C   0  0  0  0  0  0  0  0  0  0  0  0
  185.8840  176.4630  145.0320 C   0  0  0  0  0  3  0  0  0  0  0  0
  187.8340  177.1590  146.5360 C   0  0  0  0  0  3  0  0  0  0  0  0
  186.7310  176.2800  144.0150 C   0  0  0  0  0  3  0  0  0  0  0  0
  184.3260  180.0390  144.9400 O   0  0  0  0  0  0  0  0  0  0  0  0
  185.7170  179.8640  144.9210 C   0  0  0  0  0  2  0  0  0  0  0  0
  184.0250  178.1130  146.3840 C   0  0  0  0  0  2  0  0  0  0  0  0
  183.7910  178.7390  144.9970 C   0  0  0  0  0  2  0  0  0  0  0  0
  186.1870  179.5180  146.3330 C   0  0  0  0  0  2  0  0  0  0  0  0
  185.5150  178.2110  146.7830 C   0  0  0  0  0  3  0  0  0  0  0  0
  194.5500  173.5330  138.3500 N   0  0  0  0  0  2  0  0  0  0  0  0
  194.2570  175.3270  136.8800 O   0  0  0  0  0  0  0  0  0  0  0  0
  194.8370  174.2380  137.1300 C   0  0  0  0  0  0  0  0  0  0  0  0
  195.8250  172.3430  135.9610 C   0  0  0  0  0  3  0  0  0  0  0  0
  196.8700  174.5200  135.5960 C   0  0  0  0  0  0  0  0  0  0  0  0
  195.8620  173.7200  136.2160 C   0  0  0  0  0  0  0  0  0  0  0  0
  197.7720  172.5120  134.5450 C   0  0  0  0  0  3  0  0  0  0  0  0
  197.8130  173.8900  134.7730 C   0  0  0  0  0  3  0  0  0  0  0  0
  196.7710  171.7340  135.1310 C   0  0  0  0  0  0  0  0  0  0  0  0
  195.6600  169.6240  135.8070 C   0  0  0  0  0  1  0  0  0  0  0  0
  196.6960  170.2580  134.8990 C   0  0  2  0  0  3  0  0  0  0  0  0
  197.9410  169.6690  135.1160 O   0  0  0  0  0  1  0  0  0  0  0  0
  197.0010  175.9160  135.7250 O   0  0  0  0  0  0  0  0  0  0  0  0
  196.7530  176.8800  134.7120 C   0  0  0  0  0  1  0  0  0  0  0  0
  1  8  1  6  0  0  0
  1 11  1  0  0  0  0
  2 17  1  6  0  0  0
  2 22  1  0  0  0  0
  3 13  1  0  0  0  0
  3  9  1  1  0  0  0
  4 18  1  0  0  0  0
  6 19  2  0  0  0  0
  7  8  2  0  0  0  0
 11 10  1  0  0  0  0
 11 13  2  0  0  0  0
 12  8  1  0  0  0  0
 14  5  1  1  0  0  0
 14 20  1  0  0  0  0
 15 22  1  6  0  0  0
 15  4  1  0  0  0  0
 15  1  1  0  0  0  0
 16 37  1  6  0  0  0
 16  2  1  0  0  0  0
 18  3  1  0  0  0  0
 19 14  1  0  0  0  0
 20 24  1  0  0  0  0
 20 12  2  0  0  0  0
 21 16  1  0  0  0  0
 21  6  2  0  0  0  0
 23 27  2  0  0  0  0
 24 23  2  0  0  0  0
 25 29  1  0  0  0  0
 25 36  1  6  0  0  0
 26 29  2  0  0  0  0
 27 26  1  0  0  0  0
 28 25  1  0  0  0  0
 30 27  1  0  0  0  0
 30 28  2  0  0  0  0
 31 34  1  0  0  0  0
 32 31  1  0  0  0  0
 32 35  1  0  0  0  0
 33 36  1  0  0  0  0
 34 33  1  0  0  0  0
 35 36  1  0  0  0  0
 38 39  2  0  0  0  0
 39 37  1  0  0  0  0
 40 42  1  0  0  0  0
 41 49  1  0  0  0  0
 41 42  2  0  0  0  0
 42 39  1  0  0  0  0
 43 44  2  0  0  0  0
 43 45  1  0  0  0  0
 44 41  1  0  0  0  0
 45 40  2  0  0  0  0
 47 48  1  0  0  0  0
 47 45  1  0  0  0  0
 47 46  1  1  0  0  0
 50 49  1  0  0  0  0
M  END
>  <MODEL>
1

>  <REMARK>
 VINA RESULT:      -8.1      0.000      0.000
  Name = 
  6 active torsions:
  status: ('A' for Active; 'I' for Inactive)
    1  A    between atoms: C_5  and  C_46
    2  A    between atoms: C_10  and  C_45
    3  A    between atoms: O_12  and  C_27
    4  A    between atoms: N_13  and  C_33
    5  A    between atoms: C_28  and  C_44
    6  A    between atoms: C_36  and  C_43
                            x       y       z     vdW  Elec       q    Type
                         _______ _______ _______ _____ _____    ______ ____

>  <TORSDO>
F 6

$$$$
=
 OpenBabel11042415483D

 50 54  0  0  1  0  0  0  0  0999 V2000
  195.3460  171.1370  143.4620 C   0  0  2  0  0  3  0  0  0  0  0  0
  193.7490  173.9960  143.7190 C   0  0  1  0  0  3  0  0  0  0  0  0
  196.0850  170.0490  146.0530 C   0  0  1  0  0  3  0  0  0  0  0  0
  194.3670  171.6620  145.7560 C   0  0  0  0  0  2  0  0  0  0  0  0
  197.5290  175.6540  140.0680 N   0  0  0  0  0  1  0  0  0  0  0  0
  194.3160  176.1550  141.6510 C   0  0  0  0  0  0  0  0  0  0  0  0
  194.9850  171.0340  141.0720 O   0  0  0  0  0  0  0  0  0  0  0  0
  195.4230  171.6900  142.0600 C   0  0  0  0  0  0  0  0  0  0  0  0
  196.7330  169.3100  147.2030 C   0  0  0  0  0  1  0  0  0  0  0  0
  195.6350  168.7120  142.4900 C   0  0  0  0  0  1  0  0  0  0  0  0
  195.7270  169.6730  143.6270 C   0  0  0  0  0  0  0  0  0  0  0  0
  195.9270  173.0690  141.9020 C   0  0  0  0  0  3  0  0  0  0  0  0
  196.0740  169.1870  144.8290 C   0  0  0  0  0  3  0  0  0  0  0  0
  196.4510  175.2230  140.9470 C   0  0  1  0  0  3  0  0  0  0  0  0
  194.0700  171.4720  144.2610 C   0  0  1  0  0  3  0  0  0  0  0  0
  192.7460  174.9720  143.1060 C   0  0  2  0  0  3  0  0  0  0  0  0
  194.1220  174.4020  145.0060 O   0  0  0  0  0  1  0  0  0  0  0  0
  194.7070  170.3980  146.4030 N   0  0  0  0  0  2  0  0  0  0  0  0
  195.2420  176.0810  140.7270 C   0  0  0  0  0  3  0  0  0  0  0  0
  196.1210  173.7550  140.7740 C   0  0  0  0  0  0  0  0  0  0  0  0
  193.3990  176.2160  142.5840 C   0  0  0  0  0  3  0  0  0  0  0  0
  193.1530  172.5840  143.7240 C   0  0  0  0  0  2  0  0  0  0  0  0
  194.7100  173.1020  138.8910 C   0  0  0  0  0  0  0  0  0  0  0  0
  195.8880  173.1340  139.4550 C   0  0  0  0  0  3  0  0  0  0  0  0
  190.8580  173.4330  137.2690 C   0  0  1  0  0  3  0  0  0  0  0  0
  193.1570  174.3560  137.5710 C   0  0  0  0  0  3  0  0  0  0  0  0
  193.5400  173.1470  138.3120 C   0  0  0  0  0  0  0  0  0  0  0  0
  191.2860  172.2500  138.1280 C   0  0  0  0  0  3  0  0  0  0  0  0
  191.9230  174.4960  137.0800 C   0  0  0  0  0  3  0  0  0  0  0  0
  192.5270  172.1180  138.6040 C   0  0  0  0  0  3  0  0  0  0  0  0
  191.1300  170.6240  134.5130 O   0  0  0  0  0  0  0  0  0  0  0  0
  192.0300  171.6780  134.7260 C   0  0  0  0  0  2  0  0  0  0  0  0
  189.5420  171.5570  136.0920 C   0  0  0  0  0  2  0  0  0  0  0  0
  190.5120  170.4090  135.7580 C   0  0  0  0  0  2  0  0  0  0  0  0
  191.2450  172.9880  134.7860 C   0  0  0  0  0  2  0  0  0  0  0  0
  190.2470  172.9260  135.9550 C   0  0  0  0  0  3  0  0  0  0  0  0
  191.6350  175.2520  144.0090 N   0  0  0  0  0  2  0  0  0  0  0  0
  189.9520  174.0840  142.8830 O   0  0  0  0  0  0  0  0  0  0  0  0
  190.2590  174.8960  143.7940 C   0  0  0  0  0  0  0  0  0  0  0  0
  188.1410  176.0670  144.0760 C   0  0  0  0  0  3  0  0  0  0  0  0
  189.2650  175.3300  146.1160 C   0  0  0  0  0  0  0  0  0  0  0  0
  189.2240  175.4250  144.6910 C   0  0  0  0  0  0  0  0  0  0  0  0
  187.1650  176.5660  146.2260 C   0  0  0  0  0  3  0  0  0  0  0  0
  188.2280  175.9130  146.8560 C   0  0  0  0  0  3  0  0  0  0  0  0
  187.1130  176.6380  144.8320 C   0  0  0  0  0  0  0  0  0  0  0  0
  186.4790  178.5460  143.3820 C   0  0  0  0  0  1  0  0  0  0  0  0
  185.9840  177.3220  144.1290 C   0  0  2  0  0  3  0  0  0  0  0  0
  184.9970  177.6910  145.0420 O   0  0  0  0  0  1  0  0  0  0  0  0
  190.2630  174.6780  146.8650 O   0  0  0  0  0  0  0  0  0  0  0  0
  191.3850  175.2910  147.4830 C   0  0  0  0  0  1  0  0  0  0  0  0
  1  8  1  6  0  0  0
  1 11  1  0  0  0  0
  1 15  1  0  0  0  0
  2 22  1  0  0  0  0
  2 17  1  1  0  0  0
  3 18  1  0  0  0  0
  3  9  1  1  0  0  0
  4 18  1  0  0  0  0
  6 21  2  0  0  0  0
  7  8  2  0  0  0  0
 10 11  1  0  0  0  0
 11 13  2  0  0  0  0
 12  8  1  0  0  0  0
 13  3  1  0  0  0  0
 14  5  1  6  0  0  0
 15 22  1  6  0  0  0
 15  4  1  0  0  0  0
 16  2  1  0  0  0  0
 16 37  1  1  0  0  0
 19 14  1  0  0  0  0
 19  6  2  0  0  0  0
 20 14  1  0  0  0  0
 20 12  2  0  0  0  0
 21 16  1  0  0  0  0
 23 24  2  0  0  0  0
 24 20  1  0  0  0  0
 25 36  1  6  0  0  0
 25 28  1  0  0  0  0
 26 27  1  0  0  0  0
 27 30  1  0  0  0  0
 27 23  2  0  0  0  0
 28 30  2  0  0  0  0
 29 25  1  0  0  0  0
 29 26  2  0  0  0  0
 31 32  1  0  0  0  0
 31 34  1  0  0  0  0
 32 35  1  0  0  0  0
 34 33  1  0  0  0  0
 35 36  1  0  0  0  0
 36 33  1  0  0  0  0
 38 39  2  0  0  0  0
 39 37  1  0  0  0  0
 39 42  1  0  0  0  0
 40 42  2  0  0  0  0
 40 45  1  0  0  0  0
 41 44  2  0  0  0  0
 41 49  1  0  0  0  0
 42 41  1  0  0  0  0
 43 44  1  0  0  0  0
 45 43  2  0  0  0  0
 47 46  1  1  0  0  0
 47 45  1  0  0  0  0
 47 48  1  0  0  0  0
 49 50  1  0  0  0  0
M  END
>  <MODEL>
2

>  <REMARK>
 VINA RESULT:      -8.0      3.226     10.003
  Name = 
  6 active torsions:
  status: ('A' for Active; 'I' for Inactive)
    1  A    between atoms: C_5  and  C_46
    2  A    between atoms: C_10  and  C_45
    3  A    between atoms: O_12  and  C_27
    4  A    between atoms: N_13  and  C_33
    5  A    between atoms: C_28  and  C_44
    6  A    between atoms: C_36  and  C_43
                            x       y       z     vdW  Elec       q    Type
                         _______ _______ _______ _____ _____    ______ ____

>  <TORSDO>
F 6

$$$$
=
 OpenBabel11042415483D

 50 54  0  0  1  0  0  0  0  0999 V2000
  189.4490  175.8410  145.3400 C   0  0  2  0  0  3  0  0  0  0  0  0
  190.8910  175.4050  142.4220 C   0  0  1  0  0  3  0  0  0  0  0  0
  186.9770  177.3550  145.1340 C   0  0  1  0  0  3  0  0  0  0  0  0
  187.9680  176.2160  143.3000 C   0  0  0  0  0  2  0  0  0  0  0  0
  195.3030  177.3730  145.0730 N   0  0  0  0  0  1  0  0  0  0  0  0
  193.9290  175.5300  142.2820 C   0  0  0  0  0  0  0  0  0  0  0  0
  191.0460  174.4080  146.4580 O   0  0  0  0  0  0  0  0  0  0  0  0
  190.8460  175.4130  145.7190 C   0  0  0  0  0  0  0  0  0  0  0  0
  185.7660  178.2260  145.3830 C   0  0  0  0  0  1  0  0  0  0  0  0
  188.5840  174.9650  147.6620 C   0  0  0  0  0  1  0  0  0  0  0  0
  188.4190  175.8320  146.4610 C   0  0  0  0  0  0  0  0  0  0  0  0
  191.9700  176.1490  145.1020 C   0  0  0  0  0  3  0  0  0  0  0  0
  187.2860  176.5430  146.3540 C   0  0  0  0  0  3  0  0  0  0  0  0
  194.1900  176.7480  144.3710 C   0  0  1  0  0  3  0  0  0  0  0  0
  188.8710  175.2250  144.0490 C   0  0  1  0  0  3  0  0  0  0  0  0
  191.8110  174.5470  141.5540 C   0  0  2  0  0  3  0  0  0  0  0  0
  190.2970  176.4240  141.6680 O   0  0  0  0  0  1  0  0  0  0  0  0
  186.7160  176.4500  144.0130 N   0  0  0  0  0  2  0  0  0  0  0  0
  194.7110  175.8650  143.2780 C   0  0  0  0  0  3  0  0  0  0  0  0
  193.2780  175.9840  145.3070 C   0  0  0  0  0  0  0  0  0  0  0  0
  193.1340  175.2030  141.2930 C   0  0  0  0  0  3  0  0  0  0  0  0
  189.8410  174.5130  143.0920 C   0  0  0  0  0  2  0  0  0  0  0  0
  194.1940  173.8160  145.9610 C   0  0  0  0  0  0  0  0  0  0  0  0
  193.7770  175.0080  146.2970 C   0  0  0  0  0  3  0  0  0  0  0  0
  195.7090  170.1950  144.4880 C   0  0  1  0  0  3  0  0  0  0  0  0
  196.0680  172.5790  145.1340 C   0  0  0  0  0  3  0  0  0  0  0  0
  194.6760  172.6580  145.5960 C   0  0  0  0  0  0  0  0  0  0  0  0
  194.2500  170.3680  144.8910 C   0  0  0  0  0  3  0  0  0  0  0  0
  196.5570  171.4450  144.6260 C   0  0  0  0  0  3  0  0  0  0  0  0
  193.7770  171.5060  145.4080 C   0  0  0  0  0  3  0  0  0  0  0  0
  196.5340  168.6410  148.0180 O   0  0  0  0  0  0  0  0  0  0  0  0
  197.1940  169.7130  147.4000 C   0  0  0  0  0  2  0  0  0  0  0  0
  195.2580  168.1660  146.0100 C   0  0  0  0  0  2  0  0  0  0  0  0
  195.2360  168.6430  147.4730 C   0  0  0  0  0  2  0  0  0  0  0  0
  197.5750  169.2990  145.9790 C   0  0  0  0  0  2  0  0  0  0  0  0
  196.2980  168.9640  145.1910 C   0  0  0  0  0  3  0  0  0  0  0  0
  191.1500  174.1030  140.3300 N   0  0  0  0  0  2  0  0  0  0  0  0
  190.7670  171.8730  140.9180 O   0  0  0  0  0  0  0  0  0  0  0  0
  190.7640  172.7540  140.0190 C   0  0  0  0  0  0  0  0  0  0  0  0
  189.9100  173.5100  137.8660 C   0  0  0  0  0  3  0  0  0  0  0  0
  190.2080  171.1020  138.1410 C   0  0  0  0  0  0  0  0  0  0  0  0
  190.2960  172.4280  138.6660 C   0  0  0  0  0  0  0  0  0  0  0  0
  189.3090  172.0180  136.0670 C   0  0  0  0  0  3  0  0  0  0  0  0
  189.7060  170.9270  136.8440 C   0  0  0  0  0  3  0  0  0  0  0  0
  189.4180  173.3160  136.5720 C   0  0  0  0  0  0  0  0  0  0  0  0
  190.2160  175.3520  135.4060 C   0  0  0  0  0  1  0  0  0  0  0  0
  189.0090  174.5050  135.7610 C   0  0  2  0  0  3  0  0  0  0  0  0
  188.0790  175.2730  136.4610 O   0  0  0  0  0  1  0  0  0  0  0  0
  190.6000  169.9280  138.8110 O   0  0  0  0  0  0  0  0  0  0  0  0
  190.4180  168.5960  138.3510 C   0  0  0  0  0  1  0  0  0  0  0  0
  1  8  1  1  0  0  0
  1 11  1  0  0  0  0
  2 17  1  6  0  0  0
  2 22  1  0  0  0  0
  3  9  1  1  0  0  0
  3 13  1  0  0  0  0
  4 18  1  0  0  0  0
  4 15  1  0  0  0  0
  6 19  2  0  0  0  0
  8  7  2  0  0  0  0
 11 10  1  0  0  0  0
 12 20  2  0  0  0  0
 12  8  1  0  0  0  0
 13 11  2  0  0  0  0
 14  5  1  1  0  0  0
 14 20  1  0  0  0  0
 15 22  1  6  0  0  0
 15  1  1  0  0  0  0
 16 37  1  6  0  0  0
 16  2  1  0  0  0  0
 18  3  1  0  0  0  0
 19 14  1  0  0  0  0
 20 24  1  0  0  0  0
 21 16  1  0  0  0  0
 21  6  2  0  0  0  0
 23 24  2  0  0  0  0
 25 29  1  0  0  0  0
 25 28  1  0  0  0  0
 25 36  1  1  0  0  0
 26 27  1  0  0  0  0
 27 23  2  0  0  0  0
 28 30  2  0  0  0  0
 29 26  2  0  0  0  0
 30 27  1  0  0  0  0
 32 31  1  0  0  0  0
 33 34  1  0  0  0  0
 34 31  1  0  0  0  0
 35 32  1  0  0  0  0
 36 35  1  0  0  0  0
 36 33  1  0  0  0  0
 39 37  1  0  0  0  0
 39 38  2  0  0  0  0
 40 42  1  0  0  0  0
 41 42  2  0  0  0  0
 41 49  1  0  0  0  0
 42 39  1  0  0  0  0
 43 45  1  0  0  0  0
 43 44  2  0  0  0  0
 44 41  1  0  0  0  0
 45 40  2  0  0  0  0
 47 46  1  1  0  0  0
 47 48  1  0  0  0  0
 47 45  1  0  0  0  0
 50 49  1  0  0  0  0
M  END
>  <MODEL>
3

>  <REMARK>
 VINA RESULT:      -8.0      4.085      8.905
  Name = 
  6 active torsions:
  status: ('A' for Active; 'I' for Inactive)
    1  A    between atoms: C_5  and  C_46
    2  A    between atoms: C_10  and  C_45
    3  A    between atoms: O_12  and  C_27
    4  A    between atoms: N_13  and  C_33
    5  A    between atoms: C_28  and  C_44
    6  A    between atoms: C_36  and  C_43
                            x       y       z     vdW  Elec       q    Type
                         _______ _______ _______ _____ _____    ______ ____

>  <TORSDO>
F 6

$$$$
=
 OpenBabel11042415483D

 50 54  0  0  1  0  0  0  0  0999 V2000
  189.2810  176.0290  145.3800 C   0  0  2  0  0  3  0  0  0  0  0  0
  190.7620  175.5040  142.4960 C   0  0  1  0  0  3  0  0  0  0  0  0
  186.9330  177.7220  145.1240 C   0  0  1  0  0  3  0  0  0  0  0  0
  187.8840  176.5240  143.3070 C   0  0  0  0  0  2  0  0  0  0  0  0
  195.2370  177.1280  145.2730 N   0  0  0  0  0  1  0  0  0  0  0  0
  193.8030  175.4070  142.4340 C   0  0  0  0  0  0  0  0  0  0  0  0
  190.7390  174.4760  146.5270 O   0  0  0  0  0  0  0  0  0  0  0  0
  190.6330  175.4980  145.7910 C   0  0  0  0  0  0  0  0  0  0  0  0
  185.7830  178.6780  145.3490 C   0  0  0  0  0  1  0  0  0  0  0  0
  188.2950  175.2060  147.6740 C   0  0  0  0  0  1  0  0  0  0  0  0
  188.2250  176.0900  146.4750 C   0  0  0  0  0  0  0  0  0  0  0  0
  191.8230  176.1520  145.2090 C   0  0  0  0  0  3  0  0  0  0  0  0
  187.1500  176.8820  146.3460 C   0  0  0  0  0  3  0  0  0  0  0  0
  194.0990  176.5910  144.5380 C   0  0  1  0  0  3  0  0  0  0  0  0
  188.6920  175.4650  144.0710 C   0  0  1  0  0  3  0  0  0  0  0  0
  191.6380  174.5870  141.6450 C   0  0  2  0  0  3  0  0  0  0  0  0
  190.2630  176.5690  141.7360 O   0  0  0  0  0  1  0  0  0  0  0  0
  186.6350  176.8450  143.9910 N   0  0  0  0  0  2  0  0  0  0  0  0
  194.5810  175.6780  143.4520 C   0  0  0  0  0  3  0  0  0  0  0  0
  193.1090  175.8900  145.4450 C   0  0  0  0  0  0  0  0  0  0  0  0
  193.0120  175.1440  141.4230 C   0  0  0  0  0  3  0  0  0  0  0  0
  189.6310  174.6890  143.1340 C   0  0  0  0  0  2  0  0  0  0  0  0
  193.9950  173.7100  146.1000 C   0  0  0  0  0  0  0  0  0  0  0  0
  193.5100  174.8740  146.4390 C   0  0  0  0  0  3  0  0  0  0  0  0
  195.7680  170.1990  144.6480 C   0  0  1  0  0  3  0  0  0  0  0  0
  195.9860  172.5530  145.4480 C   0  0  0  0  0  3  0  0  0  0  0  0
  194.5470  172.5820  145.7400 C   0  0  0  0  0  0  0  0  0  0  0  0
  194.2680  170.3230  144.8780 C   0  0  0  0  0  3  0  0  0  0  0  0
  196.5610  171.4570  144.9490 C   0  0  0  0  0  3  0  0  0  0  0  0
  193.7070  171.4240  145.3880 C   0  0  0  0  0  3  0  0  0  0  0  0
  196.4610  168.6010  148.1870 O   0  0  0  0  0  0  0  0  0  0  0  0
  197.1700  169.6520  147.5900 C   0  0  0  0  0  2  0  0  0  0  0  0
  195.2160  168.1790  146.1480 C   0  0  0  0  0  2  0  0  0  0  0  0
  195.1770  168.6490  147.6130 C   0  0  0  0  0  2  0  0  0  0  0  0
  197.5700  169.2330  146.1750 C   0  0  0  0  0  2  0  0  0  0  0  0
  196.3000  168.9450  145.3570 C   0  0  0  0  0  3  0  0  0  0  0  0
  190.9770  174.1990  140.4030 N   0  0  0  0  0  2  0  0  0  0  0  0
  190.2420  172.0720  141.0340 O   0  0  0  0  0  0  0  0  0  0  0  0
  190.4120  172.9100  140.1110 C   0  0  0  0  0  0  0  0  0  0  0  0
  190.5540  171.4920  138.1350 C   0  0  0  0  0  3  0  0  0  0  0  0
  188.9960  173.3690  138.0250 C   0  0  0  0  0  0  0  0  0  0  0  0
  189.9650  172.6060  138.7460 C   0  0  0  0  0  0  0  0  0  0  0  0
  189.3000  171.8870  136.1110 C   0  0  0  0  0  3  0  0  0  0  0  0
  188.6880  172.9910  136.7110 C   0  0  0  0  0  3  0  0  0  0  0  0
  190.2300  171.1270  136.8250 C   0  0  0  0  0  0  0  0  0  0  0  0
  190.8370  168.7460  137.1560 C   0  0  0  0  0  1  0  0  0  0  0  0
  190.8940  169.9340  136.2140 C   0  0  2  0  0  3  0  0  0  0  0  0
  192.2210  170.2270  135.9000 O   0  0  0  0  0  1  0  0  0  0  0  0
  188.2930  174.4820  138.5240 O   0  0  0  0  0  0  0  0  0  0  0  0
  187.4690  175.3620  137.7730 C   0  0  0  0  0  1  0  0  0  0  0  0
  1  8  1  1  0  0  0
  1 11  1  0  0  0  0
  2 17  1  6  0  0  0
  2 22  1  0  0  0  0
  3  9  1  1  0  0  0
  3 13  1  0  0  0  0
  4 18  1  0  0  0  0
  4 15  1  0  0  0  0
  6 19  2  0  0  0  0
  8  7  2  0  0  0  0
 11 10  1  0  0  0  0
 12 20  2  0  0  0  0
 12  8  1  0  0  0  0
 13 11  2  0  0  0  0
 14  5  1  1  0  0  0
 14 20  1  0  0  0  0
 15 22  1  6  0  0  0
 15  1  1  0  0  0  0
 16 37  1  6  0  0  0
 16  2  1  0  0  0  0
 18  3  1  0  0  0  0
 19 14  1  0  0  0  0
 20 24  1  0  0  0  0
 21 16  1  0  0  0  0
 21  6  2  0  0  0  0
 23 24  2  0  0  0  0
 25 28  1  0  0  0  0
 25 29  1  0  0  0  0
 25 36  1  1  0  0  0
 26 27  1  0  0  0  0
 27 23  2  0  0  0  0
 28 30  2  0  0  0  0
 29 26  2  0  0  0  0
 30 27  1  0  0  0  0
 32 31  1  0  0  0  0
 33 34  1  0  0  0  0
 34 31  1  0  0  0  0
 35 32  1  0  0  0  0
 36 33  1  0  0  0  0
 36 35  1  0  0  0  0
 39 37  1  0  0  0  0
 39 38  2  0  0  0  0
 40 42  1  0  0  0  0
 41 49  1  0  0  0  0
 41 42  2  0  0  0  0
 42 39  1  0  0  0  0
 43 44  2  0  0  0  0
 43 45  1  0  0  0  0
 44 41  1  0  0  0  0
 45 40  2  0  0  0  0
 47 45  1  0  0  0  0
 47 46  1  1  0  0  0
 48 47  1  0  0  0  0
 50 49  1  0  0  0  0
M  END
>  <MODEL>
4

>  <REMARK>
 VINA RESULT:      -7.8      3.840      8.723
  Name = 
  6 active torsions:
  status: ('A' for Active; 'I' for Inactive)
    1  A    between atoms: C_5  and  C_46
    2  A    between atoms: C_10  and  C_45
    3  A    between atoms: O_12  and  C_27
    4  A    between atoms: N_13  and  C_33
    5  A    between atoms: C_28  and  C_44
    6  A    between atoms: C_36  and  C_43
                            x       y       z     vdW  Elec       q    Type
                         _______ _______ _______ _____ _____    ______ ____

>  <TORSDO>
F 6

$$$$
=
 OpenBabel11042415483D

 50 54  0  0  1  0  0  0  0  0999 V2000
  193.9280  174.1140  144.2000 C   0  0  2  0  0  3  0  0  0  0  0  0
  193.7180  173.8630  140.9330 C   0  0  1  0  0  3  0  0  0  0  0  0
  196.6740  173.9930  145.1430 C   0  0  1  0  0  3  0  0  0  0  0  0
  196.0820  174.5510  142.9110 C   0  0  0  0  0  2  0  0  0  0  0  0
  190.0420  169.9420  142.1530 N   0  0  0  0  0  1  0  0  0  0  0  0
  191.3990  172.2840  139.7540 C   0  0  0  0  0  0  0  0  0  0  0  0
  191.5610  174.5660  144.4200 O   0  0  0  0  0  0  0  0  0  0  0  0
  192.4670  173.8020  143.9830 C   0  0  0  0  0  0  0  0  0  0  0  0
  197.9410  173.8130  145.9480 C   0  0  0  0  0  1  0  0  0  0  0  0
  193.3120  175.2450  146.4920 C   0  0  0  0  0  1  0  0  0  0  0  0
  194.3090  174.5940  145.5940 C   0  0  0  0  0  0  0  0  0  0  0  0
  192.1430  172.6280  143.1460 C   0  0  0  0  0  3  0  0  0  0  0  0
  195.5800  174.5250  146.0170 C   0  0  0  0  0  3  0  0  0  0  0  0
  190.9240  171.0440  141.7920 C   0  0  1  0  0  3  0  0  0  0  0  0
  194.6160  174.9620  143.1120 C   0  0  1  0  0  3  0  0  0  0  0  0
  192.9320  174.1870  139.6630 C   0  0  2  0  0  3  0  0  0  0  0  0
  194.9510  173.2770  140.6240 O   0  0  0  0  0  1  0  0  0  0  0  0
  196.9110  174.9370  144.0490 N   0  0  0  0  0  2  0  0  0  0  0  0
  190.5350  171.5890  140.4520 C   0  0  0  0  0  3  0  0  0  0  0  0
  190.9410  172.1340  142.8440 C   0  0  0  0  0  0  0  0  0  0  0  0
  192.2730  172.9790  139.0690 C   0  0  0  0  0  3  0  0  0  0  0  0
  193.8910  175.1360  141.7670 C   0  0  0  0  0  2  0  0  0  0  0  0
  189.3070  173.9290  143.1140 C   0  0  0  0  0  0  0  0  0  0  0  0
  189.7110  172.7220  143.4110 C   0  0  0  0  0  3  0  0  0  0  0  0
  188.1760  177.7190  141.7230 C   0  0  1  0  0  3  0  0  0  0  0  0
  188.1120  175.2330  141.5030 C   0  0  0  0  0  3  0  0  0  0  0  0
  188.8820  175.1080  142.7480 C   0  0  0  0  0  0  0  0  0  0  0  0
  189.0560  177.5270  142.9510 C   0  0  0  0  0  3  0  0  0  0  0  0
  187.7760  176.4330  141.0240 C   0  0  0  0  0  3  0  0  0  0  0  0
  189.3760  176.3190  143.4260 C   0  0  0  0  0  3  0  0  0  0  0  0
  184.4980  177.7510  143.1450 O   0  0  0  0  0  0  0  0  0  0  0  0
  184.9080  177.2640  141.8970 C   0  0  0  0  0  2  0  0  0  0  0  0
  186.6890  178.6970  143.5840 C   0  0  0  0  0  2  0  0  0  0  0  0
  185.6320  177.6470  143.9730 C   0  0  0  0  0  2  0  0  0  0  0  0
  185.7540  178.3330  141.2070 C   0  0  0  0  0  2  0  0  0  0  0  0
  186.9920  178.6320  142.0700 C   0  0  0  0  0  3  0  0  0  0  0  0
  193.7390  174.9240  138.6950 N   0  0  0  0  0  2  0  0  0  0  0  0
  192.2250  174.9520  136.9130 O   0  0  0  0  0  0  0  0  0  0  0  0
  193.3960  175.1700  137.3210 C   0  0  0  0  0  0  0  0  0  0  0  0
  194.1200  177.0260  135.9180 C   0  0  0  0  0  3  0  0  0  0  0  0
  195.6020  175.0880  136.0200 C   0  0  0  0  0  0  0  0  0  0  0  0
  194.3980  175.7470  136.4150 C   0  0  0  0  0  0  0  0  0  0  0  0
  196.1530  177.0060  134.6170 C   0  0  0  0  0  3  0  0  0  0  0  0
  196.4560  175.7370  135.1180 C   0  0  0  0  0  3  0  0  0  0  0  0
  194.9870  177.6600  135.0240 C   0  0  0  0  0  0  0  0  0  0  0  0
  195.8440  179.9430  134.5800 C   0  0  0  0  0  1  0  0  0  0  0  0
  194.6400  179.0230  134.5130 C   0  0  2  0  0  3  0  0  0  0  0  0
  193.5880  179.5630  135.2510 O   0  0  0  0  0  1  0  0  0  0  0  0
  196.0320  173.8260  136.4720 O   0  0  0  0  0  0  0  0  0  0  0  0
  196.8100  173.5680  137.6320 C   0  0  0  0  0  1  0  0  0  0  0  0
  1  8  1  6  0  0  0
  1 11  1  0  0  0  0
  2 17  1  6  0  0  0
  2 22  1  0  0  0  0
  3  9  1  1  0  0  0
  3 13  1  0  0  0  0
  4 15  1  0  0  0  0
  4 18  1  0  0  0  0
  6 19  2  0  0  0  0
  8  7  2  0  0  0  0
 11 13  2  0  0  0  0
 11 10  1  0  0  0  0
 12  8  1  0  0  0  0
 14  5  1  1  0  0  0
 14 20  1  0  0  0  0
 15 22  1  6  0  0  0
 15  1  1  0  0  0  0
 16 37  1  6  0  0  0
 16  2  1  0  0  0  0
 18  3  1  0  0  0  0
 19 14  1  0  0  0  0
 20 12  2  0  0  0  0
 20 24  1  0  0  0  0
 21 16  1  0  0  0  0
 21  6  2  0  0  0  0
 23 24  2  0  0  0  0
 25 36  1  1  0  0  0
 25 28  1  0  0  0  0
 26 27  1  0  0  0  0
 27 23  2  0  0  0  0
 27 30  1  0  0  0  0
 28 30  2  0  0  0  0
 29 26  2  0  0  0  0
 29 25  1  0  0  0  0
 31 34  1  0  0  0  0
 32 31  1  0  0  0  0
 33 34  1  0  0  0  0
 35 32  1  0  0  0  0
 35 36  1  0  0  0  0
 36 33  1  0  0  0  0
 38 39  2  0  0  0  0
 39 37  1  0  0  0  0
 40 42  1  0  0  0  0
 41 42  2  0  0  0  0
 41 49  1  0  0  0  0
 42 39  1  0  0  0  0
 43 45  1  0  0  0  0
 43 44  2  0  0  0  0
 44 41  1  0  0  0  0
 45 40  2  0  0  0  0
 47 46  1  1  0  0  0
 47 45  1  0  0  0  0
 47 48  1  0  0  0  0
 49 50  1  0  0  0  0
M  END
>  <MODEL>
5

>  <REMARK>
 VINA RESULT:      -6.8      2.195      3.797
  Name = 
  6 active torsions:
  status: ('A' for Active; 'I' for Inactive)
    1  A    between atoms: C_5  and  C_46
    2  A    between atoms: C_10  and  C_45
    3  A    between atoms: O_12  and  C_27
    4  A    between atoms: N_13  and  C_33
    5  A    between atoms: C_28  and  C_44
    6  A    between atoms: C_36  and  C_43
                            x       y       z     vdW  Elec       q    Type
                         _______ _______ _______ _____ _____    ______ ____

>  <TORSDO>
F 6

$$$$
=
 OpenBabel11042415483D

 50 54  0  0  1  0  0  0  0  0999 V2000
  195.1090  172.0610  144.1880 C   0  0  2  0  0  3  0  0  0  0  0  0
  193.3840  171.6870  141.4190 C   0  0  1  0  0  3  0  0  0  0  0  0
  196.9950  169.8930  144.6150 C   0  0  1  0  0  3  0  0  0  0  0  0
  196.0710  170.4210  142.4920 C   0  0  0  0  0  2  0  0  0  0  0  0
  189.0980  172.5270  144.7800 N   0  0  0  0  0  1  0  0  0  0  0  0
  190.4500  172.4980  141.4260 C   0  0  0  0  0  0  0  0  0  0  0  0
  194.1780  174.2580  144.5920 O   0  0  0  0  0  0  0  0  0  0  0  0
  193.9670  173.0310  144.3730 C   0  0  0  0  0  0  0  0  0  0  0  0
  197.9410  168.8650  145.1950 C   0  0  0  0  0  1  0  0  0  0  0  0
  196.5520  173.4920  145.8560 C   0  0  0  0  0  1  0  0  0  0  0  0
  196.2700  172.2020  145.1620 C   0  0  0  0  0  0  0  0  0  0  0  0
  192.5980  172.5100  144.1770 C   0  0  0  0  0  3  0  0  0  0  0  0
  197.1290  171.1890  145.3540 C   0  0  0  0  0  3  0  0  0  0  0  0
  190.2090  172.4110  143.8450 C   0  0  1  0  0  3  0  0  0  0  0  0
  195.6140  171.8650  142.7440 C   0  0  1  0  0  3  0  0  0  0  0  0
  192.6080  172.3540  140.2840 C   0  0  2  0  0  3  0  0  0  0  0  0
  193.5400  170.3170  141.1830 O   0  0  0  0  0  1  0  0  0  0  0  0
  197.3090  170.1150  143.2030 N   0  0  0  0  0  2  0  0  0  0  0  0
  189.7820  172.8770  142.4870 C   0  0  0  0  0  3  0  0  0  0  0  0
  191.4390  173.1560  144.3200 C   0  0  0  0  0  0  0  0  0  0  0  0
  191.1310  172.1130  140.3750 C   0  0  0  0  0  3  0  0  0  0  0  0
  194.7360  172.3870  141.5960 C   0  0  0  0  0  2  0  0  0  0  0  0
  190.3260  175.2960  144.7030 C   0  0  0  0  0  0  0  0  0  0  0  0
  191.4000  174.5580  144.7840 C   0  0  0  0  0  3  0  0  0  0  0  0
  186.6300  177.2690  144.5370 C   0  0  1  0  0  3  0  0  0  0  0  0
  188.2530  175.8290  145.7720 C   0  0  0  0  0  3  0  0  0  0  0  0
  189.2210  175.9930  144.6800 C   0  0  0  0  0  0  0  0  0  0  0  0
  187.6370  177.3200  143.3960 C   0  0  0  0  0  3  0  0  0  0  0  0
  187.0560  176.4180  145.7190 C   0  0  0  0  0  3  0  0  0  0  0  0
  188.8360  176.7340  143.4660 C   0  0  0  0  0  3  0  0  0  0  0  0
  183.5080  179.5830  145.2120 O   0  0  0  0  0  0  0  0  0  0  0  0
  183.9260  179.0830  143.9710 C   0  0  0  0  0  2  0  0  0  0  0  0
  185.5220  178.7830  146.3020 C   0  0  0  0  0  2  0  0  0  0  0  0
  183.9930  178.6660  146.1630 C   0  0  0  0  0  2  0  0  0  0  0  0
  185.4140  179.3860  143.7970 C   0  0  0  0  0  2  0  0  0  0  0  0
  186.2060  178.6940  144.9190 C   0  0  0  0  0  3  0  0  0  0  0  0
  193.1560  172.0130  138.9740 N   0  0  0  0  0  2  0  0  0  0  0  0
  191.8130  170.1600  138.4940 O   0  0  0  0  0  0  0  0  0  0  0  0
  192.8160  170.8580  138.1890 C   0  0  0  0  0  0  0  0  0  0  0  0
  194.7690  169.7970  137.1900 C   0  0  0  0  0  3  0  0  0  0  0  0
  193.2460  170.9450  135.6650 C   0  0  0  0  0  0  0  0  0  0  0  0
  193.5990  170.5400  136.9880 C   0  0  0  0  0  0  0  0  0  0  0  0
  195.2770  169.8800  134.8320 C   0  0  0  0  0  3  0  0  0  0  0  0
  194.1040  170.6070  134.6100 C   0  0  0  0  0  3  0  0  0  0  0  0
  195.6090  169.4650  136.1240 C   0  0  0  0  0  0  0  0  0  0  0  0
  197.5850  169.2280  137.6020 C   0  0  0  0  0  1  0  0  0  0  0  0
  196.8530  168.6780  136.3930 C   0  0  2  0  0  3  0  0  0  0  0  0
  197.6920  168.7020  135.2790 O   0  0  0  0  0  1  0  0  0  0  0  0
  192.0830  171.6530  135.3080 O   0  0  0  0  0  0  0  0  0  0  0  0
  190.8240  171.0880  134.9680 C   0  0  0  0  0  1  0  0  0  0  0  0
  1  8  1  6  0  0  0
  1 11  1  0  0  0  0
  2 17  1  6  0  0  0
  2 22  1  0  0  0  0
  3  9  1  1  0  0  0
  3 13  1  0  0  0  0
  4 15  1  0  0  0  0
  4 18  1  0  0  0  0
  6 19  2  0  0  0  0
  8  7  2  0  0  0  0
 11 13  2  0  0  0  0
 11 10  1  0  0  0  0
 12 20  2  0  0  0  0
 12  8  1  0  0  0  0
 14 20  1  0  0  0  0
 14  5  1  1  0  0  0
 15 22  1  6  0  0  0
 15  1  1  0  0  0  0
 16 37  1  6  0  0  0
 16 21  1  0  0  0  0
 16  2  1  0  0  0  0
 18  3  1  0  0  0  0
 19 14  1  0  0  0  0
 20 24  1  0  0  0  0
 21  6  2  0  0  0  0
 23 24  2  0  0  0  0
 25 36  1  1  0  0  0
 25 29  1  0  0  0  0
 27 23  2  0  0  0  0
 27 26  1  0  0  0  0
 28 30  2  0  0  0  0
 28 25  1  0  0  0  0
 29 26  2  0  0  0  0
 30 27  1  0  0  0  0
 31 34  1  0  0  0  0
 32 31  1  0  0  0  0
 34 33  1  0  0  0  0
 35 32  1  0  0  0  0
 35 36  1  0  0  0  0
 36 33  1  0  0  0  0
 39 38  2  0  0  0  0
 39 37  1  0  0  0  0
 41 42  2  0  0  0  0
 42 40  1  0  0  0  0
 42 39  1  0  0  0  0
 43 45  1  0  0  0  0
 44 43  2  0  0  0  0
 44 41  1  0  0  0  0
 45 47  1  0  0  0  0
 45 40  2  0  0  0  0
 47 46  1  1  0  0  0
 48 47  1  0  0  0  0
 49 41  1  0  0  0  0
 50 49  1  0  0  0  0
M  END
>  <MODEL>
6

>  <REMARK>
 VINA RESULT:      -6.8      2.635      3.264
  Name = 
  6 active torsions:
  status: ('A' for Active; 'I' for Inactive)
    1  A    between atoms: C_5  and  C_46
    2  A    between atoms: C_10  and  C_45
    3  A    between atoms: O_12  and  C_27
    4  A    between atoms: N_13  and  C_33
    5  A    between atoms: C_28  and  C_44
    6  A    between atoms: C_36  and  C_43
                            x       y       z     vdW  Elec       q    Type
                         _______ _______ _______ _____ _____    ______ ____

>  <TORSDO>
F 6

$$$$
=
 OpenBabel11042415483D

 50 54  0  0  1  0  0  0  0  0999 V2000
  190.1340  175.8080  145.3570 C   0  0  2  0  0  3  0  0  0  0  0  0
  191.7940  175.8480  142.5240 C   0  0  1  0  0  3  0  0  0  0  0  0
  187.5370  177.0920  145.1330 C   0  0  1  0  0  3  0  0  0  0  0  0
  188.7530  176.2700  143.2660 C   0  0  0  0  0  2  0  0  0  0  0  0
  195.8040  177.9150  145.6890 N   0  0  0  0  0  1  0  0  0  0  0  0
  194.8060  176.2800  142.6230 C   0  0  0  0  0  0  0  0  0  0  0  0
  191.7980  174.4180  146.4300 O   0  0  0  0  0  0  0  0  0  0  0  0
  191.5420  175.4770  145.7900 C   0  0  0  0  0  0  0  0  0  0  0  0
  186.2290  177.8090  145.3840 C   0  0  0  0  0  1  0  0  0  0  0  0
  189.2210  174.5950  147.5030 C   0  0  0  0  0  1  0  0  0  0  0  0
  189.0430  175.5740  146.3920 C   0  0  0  0  0  0  0  0  0  0  0  0
  192.6200  176.3820  145.3410 C   0  0  0  0  0  3  0  0  0  0  0  0
  187.8510  176.1800  146.2790 C   0  0  0  0  0  3  0  0  0  0  0  0
  194.8080  177.2710  144.8440 C   0  0  1  0  0  3  0  0  0  0  0  0
  189.7050  175.2910  143.9690 C   0  0  1  0  0  3  0  0  0  0  0  0
  192.8510  175.1870  141.6390 C   0  0  2  0  0  3  0  0  0  0  0  0
  191.1460  176.8850  141.8420 O   0  0  0  0  0  1  0  0  0  0  0  0
  187.4410  176.3000  143.9060 N   0  0  0  0  0  2  0  0  0  0  0  0
  195.4840  176.5720  143.7040 C   0  0  0  0  0  3  0  0  0  0  0  0
  193.9220  176.3210  145.6230 C   0  0  0  0  0  0  0  0  0  0  0  0
  194.1120  175.9920  141.5490 C   0  0  0  0  0  3  0  0  0  0  0  0
  190.8020  174.7890  143.0160 C   0  0  0  0  0  2  0  0  0  0  0  0
  194.7650  174.0860  146.1350 C   0  0  0  0  0  0  0  0  0  0  0  0
  194.4570  175.2910  146.5360 C   0  0  0  0  0  3  0  0  0  0  0  0
  195.9020  170.4230  144.4410 C   0  0  1  0  0  3  0  0  0  0  0  0
  196.4680  172.7640  145.0980 C   0  0  0  0  0  3  0  0  0  0  0  0
  195.1360  172.9120  145.6990 C   0  0  0  0  0  0  0  0  0  0  0  0
  194.5040  170.6710  144.9930 C   0  0  0  0  0  3  0  0  0  0  0  0
  196.8340  171.6180  144.5200 C   0  0  0  0  0  3  0  0  0  0  0  0
  194.1540  171.8210  145.5790 C   0  0  0  0  0  3  0  0  0  0  0  0
  196.3150  168.4180  147.8120 O   0  0  0  0  0  0  0  0  0  0  0  0
  196.9660  169.6080  147.4620 C   0  0  0  0  0  2  0  0  0  0  0  0
  195.4030  168.1660  145.5780 C   0  0  0  0  0  2  0  0  0  0  0  0
  195.1190  168.4180  147.0700 C   0  0  0  0  0  2  0  0  0  0  0  0
  197.5920  169.4360  146.0780 C   0  0  0  0  0  2  0  0  0  0  0  0
  196.4820  169.1410  145.0550 C   0  0  0  0  0  3  0  0  0  0  0  0
  192.3170  174.8240  140.3300 N   0  0  0  0  0  2  0  0  0  0  0  0
  193.0400  172.6020  140.2510 O   0  0  0  0  0  0  0  0  0  0  0  0
  192.5390  173.5830  139.6410 C   0  0  0  0  0  0  0  0  0  0  0  0
  191.1290  172.4730  137.9920 C   0  0  0  0  0  3  0  0  0  0  0  0
  192.6270  174.2120  137.1580 C   0  0  0  0  0  0  0  0  0  0  0  0
  192.1090  173.4420  138.2440 C   0  0  0  0  0  0  0  0  0  0  0  0
  191.1910  172.9660  135.6300 C   0  0  0  0  0  3  0  0  0  0  0  0
  192.1550  173.9490  135.8650 C   0  0  0  0  0  3  0  0  0  0  0  0
  190.6670  172.2290  136.6960 C   0  0  0  0  0  0  0  0  0  0  0  0
  189.9270  169.9450  137.3100 C   0  0  0  0  0  1  0  0  0  0  0  0
  189.6270  171.1760  136.4770 C   0  0  2  0  0  3  0  0  0  0  0  0
  189.5620  170.8320  135.1270 O   0  0  0  0  0  1  0  0  0  0  0  0
  193.5770  175.2450  137.2670 O   0  0  0  0  0  0  0  0  0  0  0  0
  194.9880  175.0870  137.3220 C   0  0  0  0  0  1  0  0  0  0  0  0
  1  8  1  1  0  0  0
  1 11  1  0  0  0  0
  2 17  1  6  0  0  0
  2 22  1  0  0  0  0
  3  9  1  1  0  0  0
  3 13  1  0  0  0  0
  4 18  1  0  0  0  0
  4 15  1  0  0  0  0
  6 19  2  0  0  0  0
  8  7  2  0  0  0  0
 11 10  1  0  0  0  0
 12 20  2  0  0  0  0
 12  8  1  0  0  0  0
 13 11  2  0  0  0  0
 14 20  1  0  0  0  0
 14  5  1  1  0  0  0
 15 22  1  6  0  0  0
 15  1  1  0  0  0  0
 16 37  1  6  0  0  0
 16  2  1  0  0  0  0
 18  3  1  0  0  0  0
 19 14  1  0  0  0  0
 20 24  1  0  0  0  0
 21 16  1  0  0  0  0
 21  6  2  0  0  0  0
 23 24  2  0  0  0  0
 25 29  1  0  0  0  0
 25 28  1  0  0  0  0
 25 36  1  1  0  0  0
 26 27  1  0  0  0  0
 27 23  2  0  0  0  0
 28 30  2  0  0  0  0
 29 26  2  0  0  0  0
 30 27  1  0  0  0  0
 32 31  1  0  0  0  0
 33 34  1  0  0  0  0
 34 31  1  0  0  0  0
 35 32  1  0  0  0  0
 36 33  1  0  0  0  0
 36 35  1  0  0  0  0
 39 38  2  0  0  0  0
 39 37  1  0  0  0  0
 40 42  1  0  0  0  0
 41 49  1  0  0  0  0
 41 42  2  0  0  0  0
 42 39  1  0  0  0  0
 43 44  2  0  0  0  0
 43 45  1  0  0  0  0
 44 41  1  0  0  0  0
 45 40  2  0  0  0  0
 47 45  1  0  0  0  0
 47 46  1  1  0  0  0
 48 47  1  0  0  0  0
 49 50  1  0  0  0  0
M  END
>  <MODEL>
7

>  <REMARK>
 VINA RESULT:      -6.4      2.938      8.310
  Name = 
  6 active torsions:
  status: ('A' for Active; 'I' for Inactive)
    1  A    between atoms: C_5  and  C_46
    2  A    between atoms: C_10  and  C_45
    3  A    between atoms: O_12  and  C_27
    4  A    between atoms: N_13  and  C_33
    5  A    between atoms: C_28  and  C_44
    6  A    between atoms: C_36  and  C_43
                            x       y       z     vdW  Elec       q    Type
                         _______ _______ _______ _____ _____    ______ ____

>  <TORSDO>
F 6

$$$$
=
 OpenBabel11042415483D

 50 54  0  0  1  0  0  0  0  0999 V2000
  193.7740  173.4100  143.7880 C   0  0  2  0  0  3  0  0  0  0  0  0
  193.5400  173.4910  140.5130 C   0  0  1  0  0  3  0  0  0  0  0  0
  196.5000  173.8100  144.7100 C   0  0  1  0  0  3  0  0  0  0  0  0
  195.7390  174.4690  142.5590 C   0  0  0  0  0  2  0  0  0  0  0  0
  190.8790  168.7250  141.2660 N   0  0  0  0  0  1  0  0  0  0  0  0
  191.6070  171.5710  139.1570 C   0  0  0  0  0  0  0  0  0  0  0  0
  191.3730  173.2840  144.0580 O   0  0  0  0  0  0  0  0  0  0  0  0
  192.4170  172.8000  143.5350 C   0  0  0  0  0  0  0  0  0  0  0  0
  197.7970  173.8320  145.4890 C   0  0  0  0  0  1  0  0  0  0  0  0
  192.9800  174.1030  146.1950 C   0  0  0  0  0  1  0  0  0  0  0  0
  194.0740  173.8030  145.2270 C   0  0  0  0  0  0  0  0  0  0  0  0
  192.3440  171.6870  142.5660 C   0  0  0  0  0  3  0  0  0  0  0  0
  195.3380  173.9760  145.6400 C   0  0  0  0  0  3  0  0  0  0  0  0
  191.4790  170.0320  141.0360 C   0  0  1  0  0  3  0  0  0  0  0  0
  194.2240  174.5110  142.8060 C   0  0  1  0  0  3  0  0  0  0  0  0
  192.6680  173.7710  139.2890 C   0  0  2  0  0  3  0  0  0  0  0  0
  194.8650  173.2410  140.1380 O   0  0  0  0  0  1  0  0  0  0  0  0
  196.4890  174.9010  143.7340 N   0  0  0  0  0  2  0  0  0  0  0  0
  190.9420  170.6230  139.7690 C   0  0  0  0  0  3  0  0  0  0  0  0
  191.2770  170.9700  142.2080 C   0  0  0  0  0  0  0  0  0  0  0  0
  192.2840  172.5200  138.5580 C   0  0  0  0  0  3  0  0  0  0  0  0
  193.4430  174.6670  141.4910 C   0  0  0  0  0  2  0  0  0  0  0  0
  189.3360  172.3400  142.7740 C   0  0  0  0  0  0  0  0  0  0  0  0
  189.9610  171.1950  142.8400 C   0  0  0  0  0  3  0  0  0  0  0  0
  187.5050  176.0550  142.1210 C   0  0  1  0  0  3  0  0  0  0  0  0
  187.9080  173.6950  141.4140 C   0  0  0  0  0  3  0  0  0  0  0  0
  188.6950  173.4690  142.6340 C   0  0  0  0  0  0  0  0  0  0  0  0
  188.4120  175.7880  143.3150 C   0  0  0  0  0  3  0  0  0  0  0  0
  187.3500  174.8830  141.1700 C   0  0  0  0  0  3  0  0  0  0  0  0
  188.9560  174.5910  143.5530 C   0  0  0  0  0  3  0  0  0  0  0  0
  185.8870  179.0720  144.0790 O   0  0  0  0  0  0  0  0  0  0  0  0
  186.6470  178.0290  144.6280 C   0  0  0  0  0  2  0  0  0  0  0  0
  185.8050  177.9790  141.9150 C   0  0  0  0  0  2  0  0  0  0  0  0
  186.3110  179.1750  142.7420 C   0  0  0  0  0  2  0  0  0  0  0  0
  186.0790  176.6980  144.1370 C   0  0  0  0  0  2  0  0  0  0  0  0
  186.1720  176.6440  142.6030 C   0  0  0  0  0  3  0  0  0  0  0  0
  193.2620  174.7770  138.4140 N   0  0  0  0  0  2  0  0  0  0  0  0
  192.0530  174.3180  136.4670 O   0  0  0  0  0  0  0  0  0  0  0  0
  193.0130  174.9270  137.0070 C   0  0  0  0  0  0  0  0  0  0  0  0
  195.2150  175.5990  136.2090 C   0  0  0  0  0  3  0  0  0  0  0  0
  193.3250  176.9680  135.4880 C   0  0  0  0  0  0  0  0  0  0  0  0
  193.8370  175.8520  136.2190 C   0  0  0  0  0  0  0  0  0  0  0  0
  195.6020  177.5380  134.8250 C   0  0  0  0  0  3  0  0  0  0  0  0
  194.2290  177.7950  134.8080 C   0  0  0  0  0  3  0  0  0  0  0  0
  196.1000  176.4330  135.5200 C   0  0  0  0  0  0  0  0  0  0  0  0
  197.9130  175.0740  134.5130 C   0  0  0  0  0  1  0  0  0  0  0  0
  197.5640  176.1260  135.5490 C   0  0  2  0  0  3  0  0  0  0  0  0
  197.9410  175.6870  136.8180 O   0  0  0  0  0  1  0  0  0  0  0  0
  191.9660  177.3160  135.3720 O   0  0  0  0  0  0  0  0  0  0  0  0
  190.9450  176.5300  134.7730 C   0  0  0  0  0  1  0  0  0  0  0  0
  1  8  1  1  0  0  0
  1 11  1  0  0  0  0
  2 17  1  6  0  0  0
  2 22  1  0  0  0  0
  3  9  1  1  0  0  0
  3 13  1  0  0  0  0
  4 15  1  0  0  0  0
  4 18  1  0  0  0  0
  6 19  2  0  0  0  0
  8  7  2  0  0  0  0
 11 13  2  0  0  0  0
 11 10  1  0  0  0  0
 12  8  1  0  0  0  0
 14  5  1  1  0  0  0
 14 20  1  0  0  0  0
 15 22  1  6  0  0  0
 15  1  1  0  0  0  0
 16 37  1  6  0  0  0
 16  2  1  0  0  0  0
 18  3  1  0  0  0  0
 19 14  1  0  0  0  0
 20 12  2  0  0  0  0
 20 24  1  0  0  0  0
 21  6  2  0  0  0  0
 21 16  1  0  0  0  0
 23 24  2  0  0  0  0
 25 36  1  1  0  0  0
 25 28  1  0  0  0  0
 26 27  1  0  0  0  0
 27 23  2  0  0  0  0
 27 30  1  0  0  0  0
 28 30  2  0  0  0  0
 29 26  2  0  0  0  0
 29 25  1  0  0  0  0
 31 32  1  0  0  0  0
 33 36  1  0  0  0  0
 33 34  1  0  0  0  0
 34 31  1  0  0  0  0
 35 32  1  0  0  0  0
 36 35  1  0  0  0  0
 38 39  2  0  0  0  0
 39 37  1  0  0  0  0
 40 42  1  0  0  0  0
 41 42  2  0  0  0  0
 42 39  1  0  0  0  0
 43 45  1  0  0  0  0
 44 43  2  0  0  0  0
 44 41  1  0  0  0  0
 45 47  1  0  0  0  0
 45 40  2  0  0  0  0
 47 46  1  6  0  0  0
 47 48  1  0  0  0  0
 49 41  1  0  0  0  0
 50 49  1  0  0  0  0
M  END
>  <MODEL>
8

>  <REMARK>
 VINA RESULT:      -6.1      2.422      3.619
  Name = 
  6 active torsions:
  status: ('A' for Active; 'I' for Inactive)
    1  A    between atoms: C_5  and  C_46
    2  A    between atoms: C_10  and  C_45
    3  A    between atoms: O_12  and  C_27
    4  A    between atoms: N_13  and  C_33
    5  A    between atoms: C_28  and  C_44
    6  A    between atoms: C_36  and  C_43
                            x       y       z     vdW  Elec       q    Type
                         _______ _______ _______ _____ _____    ______ ____

>  <TORSDO>
F 6

$$$$
=
 OpenBabel11042415483D

 50 54  0  0  1  0  0  0  0  0999 V2000
  190.0500  174.1900  139.8320 C   0  0  2  0  0  3  0  0  0  0  0  0
  191.8170  174.6300  142.5650 C   0  0  1  0  0  3  0  0  0  0  0  0
  191.7070  174.1110  137.4460 C   0  0  1  0  0  3  0  0  0  0  0  0
  192.5440  173.7090  139.6320 C   0  0  0  0  0  2  0  0  0  0  0  0
  188.1770  178.6720  143.4510 N   0  0  0  0  0  1  0  0  0  0  0  0
  190.6630  176.3950  144.7600 C   0  0  0  0  0  0  0  0  0  0  0  0
  188.0070  173.8560  141.0840 O   0  0  0  0  0  0  0  0  0  0  0  0
  189.0050  174.5930  140.8440 C   0  0  0  0  0  0  0  0  0  0  0  0
  192.2540  174.1770  136.0380 C   0  0  0  0  0  1  0  0  0  0  0  0
  188.1850  172.9710  138.4380 C   0  0  0  0  0  1  0  0  0  0  0  0
  189.5270  173.6140  138.5230 C   0  0  0  0  0  0  0  0  0  0  0  0
  189.2520  175.8270  141.6190 C   0  0  0  0  0  3  0  0  0  0  0  0
  190.3020  173.5920  137.4280 C   0  0  0  0  0  3  0  0  0  0  0  0
  189.0890  177.5450  143.3050 C   0  0  1  0  0  3  0  0  0  0  0  0
  191.2390  173.3670  140.3660 C   0  0  1  0  0  3  0  0  0  0  0  0
  191.9320  174.4190  144.0740 C   0  0  2  0  0  3  0  0  0  0  0  0
  193.0010  175.1640  142.0420 O   0  0  0  0  0  1  0  0  0  0  0  0
  192.5350  173.2170  138.2580 N   0  0  0  0  0  2  0  0  0  0  0  0
  189.5620  177.0960  144.6540 C   0  0  0  0  0  3  0  0  0  0  0  0
  188.4680  176.4010  142.5320 C   0  0  0  0  0  0  0  0  0  0  0  0
  191.7660  175.6920  144.8480 C   0  0  0  0  0  3  0  0  0  0  0  0
  191.4480  173.3060  141.8880 C   0  0  0  0  0  2  0  0  0  0  0  0
  186.0390  176.5560  142.7450 C   0  0  0  0  0  0  0  0  0  0  0  0
  187.1340  175.8500  142.8460 C   0  0  0  0  0  3  0  0  0  0  0  0
  182.7280  179.0300  142.0430 C   0  0  1  0  0  3  0  0  0  0  0  0
  184.3670  177.3350  141.2220 C   0  0  0  0  0  3  0  0  0  0  0  0
  184.9520  177.2560  142.5670 C   0  0  0  0  0  0  0  0  0  0  0  0
  183.4400  178.9770  143.3890 C   0  0  0  0  0  3  0  0  0  0  0  0
  183.3370  178.1460  140.9700 C   0  0  0  0  0  3  0  0  0  0  0  0
  184.4640  178.1530  143.6300 C   0  0  0  0  0  3  0  0  0  0  0  0
  179.2200  179.2460  140.2530 O   0  0  0  0  0  0  0  0  0  0  0  0
  180.0250  180.3230  140.6500 C   0  0  0  0  0  2  0  0  0  0  0  0
  180.6470  177.6540  141.4000 C   0  0  0  0  0  2  0  0  0  0  0  0
  180.1100  178.1740  140.0540 C   0  0  0  0  0  2  0  0  0  0  0  0
  180.4240  180.1240  142.1120 C   0  0  0  0  0  2  0  0  0  0  0  0
  181.2210  178.8150  142.2440 C   0  0  0  0  0  3  0  0  0  0  0  0
  193.1460  173.6940  144.4330 N   0  0  0  0  0  2  0  0  0  0  0  0
  192.2620  171.5310  144.5140 O   0  0  0  0  0  0  0  0  0  0  0  0
  193.2320  172.2960  144.7550 C   0  0  0  0  0  0  0  0  0  0  0  0
  194.4330  170.4360  145.7730 C   0  0  0  0  0  3  0  0  0  0  0  0
  195.7140  172.4760  145.3700 C   0  0  0  0  0  0  0  0  0  0  0  0
  194.4840  171.7520  145.2970 C   0  0  0  0  0  0  0  0  0  0  0  0
  196.7520  170.5420  146.4340 C   0  0  0  0  0  3  0  0  0  0  0  0
  196.8260  171.8500  145.9470 C   0  0  0  0  0  3  0  0  0  0  0  0
  195.5560  169.8260  146.3400 C   0  0  0  0  0  0  0  0  0  0  0  0
  194.0840  168.1760  147.4600 C   0  0  0  0  0  1  0  0  0  0  0  0
  195.4480  168.4220  146.8440 C   0  0  2  0  0  3  0  0  0  0  0  0
  196.4460  168.1660  147.7830 O   0  0  0  0  0  1  0  0  0  0  0  0
  195.9230  173.7840  144.8930 O   0  0  0  0  0  0  0  0  0  0  0  0
  197.1790  174.3830  144.6080 C   0  0  0  0  0  1  0  0  0  0  0  0
  1 11  1  6  0  0  0
  1 15  1  0  0  0  0
  1  8  1  0  0  0  0
  2 17  1  6  0  0  0
  2 16  1  0  0  0  0
  3  9  1  6  0  0  0
  3 18  1  0  0  0  0
  6 21  2  0  0  0  0
  8  7  2  0  0  0  0
  8 12  1  0  0  0  0
 10 11  1  0  0  0  0
 12 20  2  0  0  0  0
 13  3  1  0  0  0  0
 13 11  2  0  0  0  0
 14  5  1  1  0  0  0
 14 19  1  0  0  0  0
 15  4  1  6  0  0  0
 15 22  1  0  0  0  0
 16 37  1  6  0  0  0
 16 21  1  0  0  0  0
 18  4  1  0  0  0  0
 19  6  2  0  0  0  0
 20 24  1  0  0  0  0
 20 14  1  0  0  0  0
 22  2  1  0  0  0  0
 23 24  2  0  0  0  0
 25 36  1  1  0  0  0
 25 28  1  0  0  0  0
 26 27  1  0  0  0  0
 27 23  2  0  0  0  0
 27 30  1  0  0  0  0
 28 30  2  0  0  0  0
 29 26  2  0  0  0  0
 29 25  1  0  0  0  0
 31 32  1  0  0  0  0
 32 35  1  0  0  0  0
 33 36  1  0  0  0  0
 34 31  1  0  0  0  0
 34 33  1  0  0  0  0
 35 36  1  0  0  0  0
 37 39  1  0  0  0  0
 38 39  2  0  0  0  0
 39 42  1  0  0  0  0
 40 45  1  0  0  0  0
 41 44  2  0  0  0  0
 42 41  1  0  0  0  0
 42 40  2  0  0  0  0
 44 43  1  0  0  0  0
 45 43  2  0  0  0  0
 45 47  1  0  0  0  0
 47 46  1  1  0  0  0
 47 48  1  0  0  0  0
 49 41  1  0  0  0  0
 50 49  1  0  0  0  0
M  END
>  <MODEL>
9

>  <REMARK>
 VINA RESULT:      -6.0      3.694      7.592
  Name = 
  6 active torsions:
  status: ('A' for Active; 'I' for Inactive)
    1  A    between atoms: C_5  and  C_46
    2  A    between atoms: C_10  and  C_45
    3  A    between atoms: O_12  and  C_27
    4  A    between atoms: N_13  and  C_33
    5  A    between atoms: C_28  and  C_44
    6  A    between atoms: C_36  and  C_43
                            x       y       z     vdW  Elec       q    Type
                         _______ _______ _______ _____ _____    ______ ____

>  <TORSDO>
F 6

$$$$
