=
 OpenBabel11042414323D

 64 71  0  0  1  0  0  0  0  0999 V2000
  186.6210  176.8090  142.2760 C   0  0  0  0  0  0  0  0  0  0  0  0
  186.2900  175.5350  142.7120 F   0  0  0  0  0  0  0  0  0  0  0  0
  185.6000  177.2670  141.4590 F   0  0  0  0  0  0  0  0  0  0  0  0
  187.8600  177.6960  140.4020 O   0  0  0  0  0  1  0  0  0  0  0  0
  187.9120  176.7650  141.4430 C   0  0  2  0  0  3  0  0  0  0  0  0
  188.7740  174.4830  141.6250 N   0  0  0  0  0  2  0  0  0  0  0  0
  188.4550  173.7260  139.5520 C   0  0  0  0  0  0  0  0  0  0  0  0
  188.2040  175.4390  140.9050 N   0  0  0  0  0  0  0  0  0  0  0  0
  189.4390  172.3350  141.1650 O   0  0  0  0  0  0  0  0  0  0  0  0
  188.0100  175.0320  139.6290 C   0  0  0  0  0  3  0  0  0  0  0  0
  188.9290  173.4290  140.8080 C   0  0  0  0  0  0  0  0  0  0  0  0
  188.4930  172.8660  138.3360 C   0  0  0  0  0  2  0  0  0  0  0  0
  189.6510  172.5280  135.9430 C   0  0  0  0  0  1  0  0  0  0  0  0
  189.9480  173.2550  137.3490 S   0  0  2  0  0  3  0  0  0  0  0  0
  191.1630  172.2830  138.0410 O   0  0  0  0  0  0  0  0  0  0  0  0
  191.8980  171.8010  136.9550 C   0  0  0  0  0  2  0  0  0  0  0  0
  193.3790  171.7400  137.3030 C   0  0  1  0  0  3  0  0  0  0  0  0
  193.8430  170.3200  137.3900 C   0  0  0  0  0  3  0  0  0  0  0  0
  193.6510  169.6660  138.4030 O   0  0  0  0  0  0  0  0  0  0  0  0
  194.1890  172.5230  136.2740 C   0  0  0  0  0  2  0  0  0  0  0  0
  195.4560  171.9360  136.0820 O   0  0  0  0  0  0  0  0  0  0  0  0
  196.5380  174.3750  135.5800 P   0  0  2  0  0  0  0  0  0  0  0  0
  196.7850  175.5070  136.9590 C   0  0  2  0  0  3  0  0  0  0  0  0
  195.2460  174.6790  134.8550 O   0  0  0  0  0  1  0  0  0  0  0  0
  197.9290  175.1110  137.6950 O   0  0  0  0  0  0  0  0  0  0  0  0
  196.6820  174.6850  138.1880 C   0  0  2  0  0  0  0  0  0  0  0  0
  196.4700  172.8250  136.5140 C   0  0  1  0  0  3  0  0  0  0  0  0
  196.4330  173.1770  138.0050 C   0  0  0  0  0  2  0  0  0  0  0  0
  197.8490  174.3990  134.5130 O   0  0  0  0  0  0  0  0  0  0  0  0
  196.2740  175.4070  139.4640 C   0  0  1  0  0  3  0  0  0  0  0  0
  194.8880  175.3520  139.6150 O   0  0  0  0  0  1  0  0  0  0  0  0
  196.9420  174.7740  140.6700 C   0  0  0  0  0  1  0  0  0  0  0  0
  186.7660  177.7650  143.4710 C   0  0  1  0  0  3  0  0  0  0  0  0
  189.3500  175.7490  146.3550 C   0  0  0  0  0  0  0  0  0  0  0  0
  188.1750  177.9660  143.8170 N   0  0  0  0  0  2  0  0  0  0  0  0
  188.8850  177.2390  144.8270 C   0  0  0  0  0  0  0  0  0  0  0  0
  190.6220  176.5230  146.2750 C   0  0  2  0  0  3  0  0  0  0  0  0
  188.3610  176.2570  145.4800 N   0  0  0  0  0  0  0  0  0  0  0  0
  190.3050  177.5390  145.1780 C   0  0  0  0  0  2  0  0  0  0  0  0
  189.0570  174.9080  147.3360 C   0  0  0  0  0  2  0  0  0  0  0  0
  191.7720  175.6390  145.8070 C   0  0  0  0  0  2  0  0  0  0  0  0
  193.7530  175.1650  142.7720 O   0  0  0  0  0  0  0  0  0  0  0  0
  191.6240  174.4830  143.5310 C   0  0  1  0  0  3  0  0  0  0  0  0
  191.9720  173.3450  144.2730 O   0  0  0  0  0  1  0  0  0  0  0  0
  191.9850  175.7380  144.2890 C   0  0  2  0  0  3  0  0  0  0  0  0
  192.7680  173.3040  141.6080 C   0  0  0  0  0  1  0  0  0  0  0  0
  193.4190  176.0540  143.8180 C   0  0  1  0  0  3  0  0  0  0  0  0
  192.5370  174.6210  142.3310 C   0  0  2  0  0  3  0  0  0  0  0  0
  194.9480  177.3010  145.1940 O   0  0  0  0  0  1  0  0  0  0  0  0
  194.4800  176.0070  144.9280 C   0  0  2  0  0  3  0  0  0  0  0  0
  196.7190  175.8260  144.0580 O   0  0  0  0  0  1  0  0  0  0  0  0
  195.6550  175.0870  144.5820 C   0  0  1  0  0  3  0  0  0  0  0  0
  196.1150  174.3440  145.7930 C   0  0  0  0  0  3  0  0  0  0  0  0
  197.2360  173.8590  145.8280 O   0  0  0  0  0  0  0  0  0  0  0  0
  186.1390  178.9960  143.2110 O   0  0  0  0  0  0  0  0  0  0  0  0
  185.7060  178.9920  145.6690 C   0  0  0  0  0  0  0  0  0  0  0  0
  184.4150  178.0310  144.3620 C   0  0  2  0  0  3  0  0  0  0  0  0
  184.6600  177.1590  146.8970 N   0  0  0  0  0  0  0  0  0  0  0  0
  185.2510  179.2330  144.2700 C   0  0  2  0  0  0  0  0  0  0  0  0
  185.4410  177.5240  147.9700 C   0  0  0  0  0  3  0  0  0  0  0  0
  183.7670  179.3390  144.0010 C   0  0  0  0  0  2  0  0  0  0  0  0
  184.8160  177.9100  145.7920 C   0  0  0  0  0  0  0  0  0  0  0  0
  186.5030  179.4010  146.7220 C   0  0  0  0  0  3  0  0  0  0  0  0
  186.3560  178.6270  147.9020 C   0  0  0  0  0  3  0  0  0  0  0  0
  1  2  1  0  0  0  0
  1 33  1  0  0  0  0
  3  1  1  0  0  0  0
  5  4  1  6  0  0  0
  5  1  1  0  0  0  0
  7 10  2  0  0  0  0
  7 11  1  0  0  0  0
  8  5  1  0  0  0  0
  8  6  1  0  0  0  0
 10  8  1  0  0  0  0
 11  9  2  0  0  0  0
 11  6  1  0  0  0  0
 12  7  1  0  0  0  0
 14 13  1  6  0  0  0
 14 15  1  0  0  0  0
 14 12  1  0  0  0  0
 16 17  1  0  0  0  0
 16 15  1  0  0  0  0
 17 20  1  6  0  0  0
 17 18  1  0  0  0  0
 18 19  2  0  0  0  0
 21 20  1  0  0  0  0
 22 29  2  6  0  0  0
 22 27  1  0  0  0  0
 22 23  1  0  0  0  0
 23 25  1  6  0  0  0
 23 26  1  0  0  0  0
 24 22  1  0  0  0  0
 25 26  1  0  0  0  0
 26 30  1  1  0  0  0
 27 21  1  6  0  0  0
 27 28  1  0  0  0  0
 28 26  1  0  0  0  0
 30 31  1  0  0  0  0
 30 32  1  1  0  0  0
 33 55  1  6  0  0  0
 33 35  1  0  0  0  0
 34 40  2  0  0  0  0
 35 36  1  0  0  0  0
 36 39  1  0  0  0  0
 36 38  2  0  0  0  0
 37 41  1  6  0  0  0
 37 34  1  0  0  0  0
 38 34  1  0  0  0  0
 39 37  1  0  0  0  0
 42 47  1  0  0  0  0
 43 44  1  1  0  0  0
 43 45  1  0  0  0  0
 45 41  1  1  0  0  0
 47 45  1  0  0  0  0
 47 50  1  1  0  0  0
 48 46  1  1  0  0  0
 48 42  1  0  0  0  0
 48 43  1  0  0  0  0
 50 49  1  6  0  0  0
 52 51  1  1  0  0  0
 52 50  1  0  0  0  0
 52 53  1  0  0  0  0
 53 54  2  0  0  0  0
 56 62  2  0  0  0  0
 56 63  1  0  0  0  0
 57 61  1  1  0  0  0
 57 62  1  0  0  0  0
 58 60  2  0  0  0  0
 59 55  1  6  0  0  0
 59 57  1  0  0  0  0
 59 56  1  0  0  0  0
 61 59  1  0  0  0  0
 62 58  1  0  0  0  0
 63 64  2  0  0  0  0
 64 60  1  0  0  0  0
M  END
>  <MODEL>
1

>  <REMARK>
 VINA RESULT:      -6.8      0.000      0.000
  Name = 
  21 active torsions:
  status: ('A' for Active; 'I' for Inactive)
    1  A    between atoms: C_4  and  C_35
    2  A    between atoms: O_6  and  C_28
    3  A    between atoms: O_6  and  C_30
    4  A    between atoms: C_7  and  C_9
    5  A    between atoms: C_7  and  N_20
    6  A    between atoms: C_9  and  C_28
    7  A    between atoms: C_11  and  C_17
    8  A    between atoms: C_11  and  S_36
    9  A    between atoms: C_13  and  O_16
   10  A    between atoms: C_13  and  C_56
   11  A    between atoms: N_15  and  C_28
   12  A    between atoms: O_16  and  S_36
   13  A    between atoms: C_23  and  C_42
   14  A    between atoms: C_25  and  C_56
   15  A    between atoms: C_27  and  C_34
   16  A    between atoms: C_33  and  C_34
   17  A    between atoms: C_42  and  C_49
   18  A    between atoms: O_43  and  C_44
   19  A    between atoms: O_43  and  C_47
   20  A    between atoms: C_47  and  C_56
   21  A    between atoms: C_48  and  C_49
                            x       y       z     vdW  Elec       q    Type
                         _______ _______ _______ _____ _____    ______ ____

>  <TORSDO>
F 21

$$$$
=
 OpenBabel11042414323D

 64 71  0  0  1  0  0  0  0  0999 V2000
  188.5110  174.7540  142.6920 C   0  0  0  0  0  0  0  0  0  0  0  0
  188.8360  173.9490  143.7730 F   0  0  0  0  0  0  0  0  0  0  0  0
  187.2080  174.4690  142.3160 F   0  0  0  0  0  0  0  0  0  0  0  0
  188.7480  174.6100  140.2930 O   0  0  0  0  0  1  0  0  0  0  0  0
  189.4290  174.4360  141.5000 C   0  0  2  0  0  3  0  0  0  0  0  0
  190.7380  172.6700  142.5720 N   0  0  0  0  0  2  0  0  0  0  0  0
  190.6270  171.0510  141.0430 C   0  0  0  0  0  0  0  0  0  0  0  0
  189.9990  173.0930  141.5570 N   0  0  0  0  0  0  0  0  0  0  0  0
  191.8420  170.7080  143.0220 O   0  0  0  0  0  0  0  0  0  0  0  0
  189.9210  172.1480  140.5900 C   0  0  0  0  0  3  0  0  0  0  0  0
  191.1250  171.4210  142.2710 C   0  0  0  0  0  0  0  0  0  0  0  0
  190.8680  169.7780  140.3080 C   0  0  0  0  0  2  0  0  0  0  0  0
  191.1650  168.9450  137.7780 C   0  0  0  0  0  1  0  0  0  0  0  0
  191.7000  170.1140  138.7460 S   0  0  2  0  0  3  0  0  0  0  0  0
  193.3120  169.6600  139.0530 O   0  0  0  0  0  0  0  0  0  0  0  0
  193.9070  170.7990  139.6010 C   0  0  0  0  0  2  0  0  0  0  0  0
  195.4190  170.6290  139.6620 C   0  0  1  0  0  3  0  0  0  0  0  0
  195.7920  169.1840  139.5420 C   0  0  0  0  0  3  0  0  0  0  0  0
  196.9570  168.8350  139.6420 O   0  0  0  0  0  0  0  0  0  0  0  0
  196.0820  171.4630  138.5690 C   0  0  0  0  0  2  0  0  0  0  0  0
  195.1300  171.9010  137.6260 O   0  0  0  0  0  0  0  0  0  0  0  0
  196.2240  173.4180  135.6580 P   0  0  2  0  0  0  0  0  0  0  0  0
  195.2800  174.8140  135.0220 C   0  0  2  0  0  3  0  0  0  0  0  0
  196.0540  172.2020  134.7740 O   0  0  0  0  0  0  0  0  0  0  0  0
  195.3520  175.8890  135.9410 O   0  0  0  0  0  0  0  0  0  0  0  0
  194.2100  175.0710  136.0140 C   0  0  2  0  0  0  0  0  0  0  0  0
  195.3980  173.2410  137.2590 C   0  0  1  0  0  3  0  0  0  0  0  0
  194.1800  174.1710  137.2630 C   0  0  0  0  0  2  0  0  0  0  0  0
  197.8590  173.8050  135.8430 O   0  0  0  0  0  1  0  0  0  0  0  0
  192.9550  175.7640  135.5060 C   0  0  1  0  0  3  0  0  0  0  0  0
  191.8500  175.3460  136.2490 O   0  0  0  0  0  1  0  0  0  0  0  0
  193.0970  177.2700  135.6130 C   0  0  0  0  0  1  0  0  0  0  0  0
  188.6010  176.2380  143.0800 C   0  0  1  0  0  3  0  0  0  0  0  0
  192.1140  176.1450  145.6710 C   0  0  0  0  0  0  0  0  0  0  0  0
  189.9610  176.7500  142.8900 N   0  0  0  0  0  2  0  0  0  0  0  0
  191.0100  176.6750  143.8620 C   0  0  0  0  0  0  0  0  0  0  0  0
  193.1200  176.9420  144.9130 C   0  0  2  0  0  3  0  0  0  0  0  0
  190.8790  176.0570  144.9870 N   0  0  0  0  0  0  0  0  0  0  0  0
  192.3570  177.2780  143.6320 C   0  0  0  0  0  2  0  0  0  0  0  0
  192.2320  175.8330  146.9530 C   0  0  0  0  0  2  0  0  0  0  0  0
  194.3330  176.0920  144.5520 C   0  0  0  0  0  2  0  0  0  0  0  0
  194.9360  173.4760  142.0710 O   0  0  0  0  0  0  0  0  0  0  0  0
  194.4590  173.5440  144.3830 C   0  0  1  0  0  3  0  0  0  0  0  0
  195.7470  173.7400  144.9020 O   0  0  0  0  0  1  0  0  0  0  0  0
  193.9310  174.8250  143.7820 C   0  0  2  0  0  3  0  0  0  0  0  0
  195.4490  171.4780  143.3100 C   0  0  0  0  0  1  0  0  0  0  0  0
  194.3730  174.7510  142.3070 C   0  0  1  0  0  3  0  0  0  0  0  0
  194.5240  172.6730  143.1460 C   0  0  2  0  0  3  0  0  0  0  0  0
  194.9230  176.4170  140.6620 O   0  0  0  0  0  1  0  0  0  0  0  0
  195.3460  175.8600  141.8760 C   0  0  2  0  0  3  0  0  0  0  0  0
  197.3170  175.7010  140.5000 O   0  0  0  0  0  1  0  0  0  0  0  0
  196.7900  175.3620  141.7490 C   0  0  1  0  0  3  0  0  0  0  0  0
  197.6440  175.9460  142.8250 C   0  0  0  0  0  3  0  0  0  0  0  0
  197.4150  177.0680  143.2500 O   0  0  0  0  0  0  0  0  0  0  0  0
  187.6760  177.0060  142.3530 O   0  0  0  0  0  0  0  0  0  0  0  0
  187.1530  177.5690  144.7280 C   0  0  0  0  0  0  0  0  0  0  0  0
  185.6440  177.4270  143.3140 C   0  0  2  0  0  3  0  0  0  0  0  0
  185.1160  176.9060  145.9010 N   0  0  0  0  0  0  0  0  0  0  0  0
  187.0450  177.8590  143.2710 C   0  0  2  0  0  0  0  0  0  0  0  0
  185.8760  176.8550  147.0480 C   0  0  0  0  0  3  0  0  0  0  0  0
  185.9620  178.8050  142.8000 C   0  0  0  0  0  2  0  0  0  0  0  0
  185.7800  177.2680  144.7880 C   0  0  0  0  0  0  0  0  0  0  0  0
  187.9530  177.5410  145.8550 C   0  0  0  0  0  3  0  0  0  0  0  0
  187.2770  177.1650  147.0440 C   0  0  0  0  0  3  0  0  0  0  0  0
  1 33  1  0  0  0  0
  1  2  1  0  0  0  0
  3  1  1  0  0  0  0
  5  4  1  6  0  0  0
  5  8  1  0  0  0  0
  5  1  1  0  0  0  0
  7 11  1  0  0  0  0
  8  6  1  0  0  0  0
 10  7  2  0  0  0  0
 10  8  1  0  0  0  0
 11  6  1  0  0  0  0
 11  9  2  0  0  0  0
 12  7  1  0  0  0  0
 14 13  1  6  0  0  0
 14 15  1  0  0  0  0
 14 12  1  0  0  0  0
 15 16  1  0  0  0  0
 16 17  1  0  0  0  0
 17 20  1  6  0  0  0
 18 19  2  0  0  0  0
 18 17  1  0  0  0  0
 21 20  1  0  0  0  0
 22 24  2  6  0  0  0
 22 29  1  0  0  0  0
 22 27  1  0  0  0  0
 23 22  1  0  0  0  0
 23 25  1  1  0  0  0
 23 26  1  0  0  0  0
 25 26  1  0  0  0  0
 26 30  1  6  0  0  0
 26 28  1  0  0  0  0
 27 28  1  0  0  0  0
 27 21  1  6  0  0  0
 30 32  1  1  0  0  0
 30 31  1  0  0  0  0
 33 55  1  6  0  0  0
 34 40  2  0  0  0  0
 35 33  1  0  0  0  0
 35 36  1  0  0  0  0
 36 38  2  0  0  0  0
 37 41  1  6  0  0  0
 37 34  1  0  0  0  0
 38 34  1  0  0  0  0
 39 36  1  0  0  0  0
 39 37  1  0  0  0  0
 42 47  1  0  0  0  0
 42 48  1  0  0  0  0
 43 44  1  6  0  0  0
 45 43  1  0  0  0  0
 45 41  1  1  0  0  0
 47 50  1  1  0  0  0
 47 45  1  0  0  0  0
 48 46  1  1  0  0  0
 48 43  1  0  0  0  0
 50 49  1  6  0  0  0
 52 51  1  6  0  0  0
 52 50  1  0  0  0  0
 52 53  1  0  0  0  0
 53 54  2  0  0  0  0
 56 62  2  0  0  0  0
 56 63  1  0  0  0  0
 57 61  1  1  0  0  0
 57 62  1  0  0  0  0
 58 60  2  0  0  0  0
 59 55  1  6  0  0  0
 59 57  1  0  0  0  0
 59 56  1  0  0  0  0
 61 59  1  0  0  0  0
 62 58  1  0  0  0  0
 63 64  2  0  0  0  0
 64 60  1  0  0  0  0
M  END
>  <MODEL>
2

>  <REMARK>
 VINA RESULT:      -6.6      2.247      3.143
  Name = 
  21 active torsions:
  status: ('A' for Active; 'I' for Inactive)
    1  A    between atoms: C_4  and  C_35
    2  A    between atoms: O_6  and  C_28
    3  A    between atoms: O_6  and  C_30
    4  A    between atoms: C_7  and  C_9
    5  A    between atoms: C_7  and  N_20
    6  A    between atoms: C_9  and  C_28
    7  A    between atoms: C_11  and  C_17
    8  A    between atoms: C_11  and  S_36
    9  A    between atoms: C_13  and  O_16
   10  A    between atoms: C_13  and  C_56
   11  A    between atoms: N_15  and  C_28
   12  A    between atoms: O_16  and  S_36
   13  A    between atoms: C_23  and  C_42
   14  A    between atoms: C_25  and  C_56
   15  A    between atoms: C_27  and  C_34
   16  A    between atoms: C_33  and  C_34
   17  A    between atoms: C_42  and  C_49
   18  A    between atoms: O_43  and  C_44
   19  A    between atoms: O_43  and  C_47
   20  A    between atoms: C_47  and  C_56
   21  A    between atoms: C_48  and  C_49
                            x       y       z     vdW  Elec       q    Type
                         _______ _______ _______ _____ _____    ______ ____

>  <TORSDO>
F 21

$$$$
=
 OpenBabel11042414323D

 64 71  0  0  1  0  0  0  0  0999 V2000
  190.1860  177.4010  144.5030 C   0  0  0  0  0  0  0  0  0  0  0  0
  191.4820  177.8710  144.3550 F   0  0  0  0  0  0  0  0  0  0  0  0
  189.4170  178.4170  145.0500 F   0  0  0  0  0  0  0  0  0  0  0  0
  189.6190  176.5900  146.7060 O   0  0  0  0  0  1  0  0  0  0  0  0
  190.1610  176.2110  145.4760 C   0  0  2  0  0  3  0  0  0  0  0  0
  192.4730  176.2470  146.2730 N   0  0  0  0  0  2  0  0  0  0  0  0
  193.1940  174.2400  145.6210 C   0  0  0  0  0  0  0  0  0  0  0  0
  191.4760  175.6090  145.6790 N   0  0  0  0  0  0  0  0  0  0  0  0
  194.6560  175.7020  146.7320 O   0  0  0  0  0  0  0  0  0  0  0  0
  191.8730  174.3890  145.2450 C   0  0  0  0  0  3  0  0  0  0  0  0
  193.5290  175.4190  146.2470 C   0  0  0  0  0  0  0  0  0  0  0  0
  194.0820  173.0810  145.3240 C   0  0  0  0  0  2  0  0  0  0  0  0
  193.4990  171.3690  143.3470 C   0  0  0  0  0  1  0  0  0  0  0  0
  194.1770  172.8160  143.5450 S   0  0  2  0  0  3  0  0  0  0  0  0
  195.8310  172.5110  143.2810 O   0  0  0  0  0  0  0  0  0  0  0  0
  196.4900  173.6170  143.8240 C   0  0  0  0  0  2  0  0  0  0  0  0
  196.4600  174.7830  142.8450 C   0  0  1  0  0  3  0  0  0  0  0  0
  196.9550  176.0350  143.5010 C   0  0  0  0  0  3  0  0  0  0  0  0
  196.1680  176.8780  143.9020 O   0  0  0  0  0  0  0  0  0  0  0  0
  197.2860  174.4460  141.6070 C   0  0  0  0  0  2  0  0  0  0  0  0
  196.7510  175.0710  140.4620 O   0  0  0  0  0  0  0  0  0  0  0  0
  196.3160  172.8990  138.8930 P   0  0  2  0  0  0  0  0  0  0  0  0
  196.1690  173.1380  137.1140 C   0  0  2  0  0  3  0  0  0  0  0  0
  194.9520  172.8360  139.5450 O   0  0  0  0  0  1  0  0  0  0  0  0
  197.4570  173.3280  136.5560 O   0  0  0  0  0  0  0  0  0  0  0  0
  196.7130  174.4880  136.8350 C   0  0  2  0  0  0  0  0  0  0  0  0
  197.2150  174.4180  139.2950 C   0  0  1  0  0  3  0  0  0  0  0  0
  197.2510  175.2890  138.0350 C   0  0  0  0  0  2  0  0  0  0  0  0
  197.2250  171.5230  139.2640 O   0  0  0  0  0  0  0  0  0  0  0  0
  196.2110  175.1830  135.5790 C   0  0  1  0  0  3  0  0  0  0  0  0
  194.8180  175.2560  135.6020 O   0  0  0  0  0  1  0  0  0  0  0  0
  196.7900  176.5820  135.4770 C   0  0  0  0  0  1  0  0  0  0  0  0
  189.5950  177.0140  143.1390 C   0  0  1  0  0  3  0  0  0  0  0  0
  188.5180  172.9680  141.9010 C   0  0  0  0  0  0  0  0  0  0  0  0
  190.3810  175.9500  142.5080 N   0  0  0  0  0  2  0  0  0  0  0  0
  189.8890  174.6430  142.1910 C   0  0  0  0  0  0  0  0  0  0  0  0
  189.8140  172.3940  141.4410 C   0  0  2  0  0  3  0  0  0  0  0  0
  188.6560  174.3010  142.3550 N   0  0  0  0  0  0  0  0  0  0  0  0
  190.7630  173.5800  141.6090 C   0  0  0  0  0  2  0  0  0  0  0  0
  187.4400  172.2430  142.1640 C   0  0  0  0  0  2  0  0  0  0  0  0
  189.7530  172.0200  139.9640 C   0  0  0  0  0  2  0  0  0  0  0  0
  191.5220  172.9950  136.9170 O   0  0  0  0  0  0  0  0  0  0  0  0
  189.6240  173.7600  138.0950 C   0  0  1  0  0  3  0  0  0  0  0  0
  188.6440  172.8960  137.5850 O   0  0  0  0  0  1  0  0  0  0  0  0
  190.5020  173.0360  139.0890 C   0  0  2  0  0  3  0  0  0  0  0  0
  190.0060  174.3910  135.6760 C   0  0  0  0  0  1  0  0  0  0  0  0
  191.6540  172.4810  138.2270 C   0  0  1  0  0  3  0  0  0  0  0  0
  190.6420  174.0830  137.0220 C   0  0  2  0  0  3  0  0  0  0  0  0
  193.0930  170.5550  138.1690 O   0  0  0  0  0  1  0  0  0  0  0  0
  191.7480  170.9470  138.1990 C   0  0  2  0  0  3  0  0  0  0  0  0
  191.8860  169.6950  136.1460 O   0  0  0  0  0  1  0  0  0  0  0  0
  190.9960  170.3310  137.0150 C   0  0  1  0  0  3  0  0  0  0  0  0
  189.9780  169.3480  137.4930 C   0  0  0  0  0  3  0  0  0  0  0  0
  190.2520  168.5700  138.3950 O   0  0  0  0  0  0  0  0  0  0  0  0
  188.2500  176.6290  143.2620 O   0  0  0  0  0  0  0  0  0  0  0  0
  186.4490  178.3440  143.4800 C   0  0  0  0  0  0  0  0  0  0  0  0
  186.4040  176.9470  141.9490 C   0  0  2  0  0  3  0  0  0  0  0  0
  184.1080  177.9900  142.8870 N   0  0  0  0  0  0  0  0  0  0  0  0
  187.4800  177.6390  142.6660 C   0  0  2  0  0  0  0  0  0  0  0  0
  183.7900  178.8680  143.8990 C   0  0  0  0  0  3  0  0  0  0  0  0
  187.4070  177.7430  141.1590 C   0  0  0  0  0  2  0  0  0  0  0  0
  185.4220  177.7680  142.7110 C   0  0  0  0  0  0  0  0  0  0  0  0
  186.1800  179.2390  144.4990 C   0  0  0  0  0  3  0  0  0  0  0  0
  184.8000  179.4940  144.7040 C   0  0  0  0  0  3  0  0  0  0  0  0
  1  3  1  0  0  0  0
  1  5  1  0  0  0  0
  2  1  1  0  0  0  0
  5  8  1  0  0  0  0
  5  4  1  1  0  0  0
  7 11  1  0  0  0  0
  8  6  1  0  0  0  0
 10  7  2  0  0  0  0
 10  8  1  0  0  0  0
 11  6  1  0  0  0  0
 11  9  2  0  0  0  0
 12  7  1  0  0  0  0
 14 13  1  1  0  0  0
 14 12  1  0  0  0  0
 15 14  1  0  0  0  0
 15 16  1  0  0  0  0
 17 20  1  6  0  0  0
 17 18  1  0  0  0  0
 17 16  1  0  0  0  0
 18 19  2  0  0  0  0
 21 20  1  0  0  0  0
 22 29  2  1  0  0  0
 22 27  1  0  0  0  0
 22 24  1  0  0  0  0
 23 25  1  6  0  0  0
 23 22  1  0  0  0  0
 25 26  1  0  0  0  0
 26 30  1  6  0  0  0
 26 23  1  0  0  0  0
 26 28  1  0  0  0  0
 27 21  1  1  0  0  0
 28 27  1  0  0  0  0
 30 32  1  1  0  0  0
 30 31  1  0  0  0  0
 33 35  1  1  0  0  0
 33 55  1  0  0  0  0
 33  1  1  0  0  0  0
 34 40  2  0  0  0  0
 34 38  1  0  0  0  0
 36 38  2  0  0  0  0
 36 35  1  0  0  0  0
 37 41  1  6  0  0  0
 37 39  1  0  0  0  0
 37 34  1  0  0  0  0
 39 36  1  0  0  0  0
 42 48  1  0  0  0  0
 42 47  1  0  0  0  0
 43 44  1  6  0  0  0
 43 45  1  0  0  0  0
 45 41  1  6  0  0  0
 47 50  1  6  0  0  0
 47 45  1  0  0  0  0
 48 46  1  6  0  0  0
 48 43  1  0  0  0  0
 50 49  1  6  0  0  0
 52 51  1  6  0  0  0
 52 53  1  0  0  0  0
 52 50  1  0  0  0  0
 53 54  2  0  0  0  0
 56 63  1  0  0  0  0
 57 61  1  6  0  0  0
 57 59  1  0  0  0  0
 57 62  1  0  0  0  0
 58 60  2  0  0  0  0
 59 55  1  1  0  0  0
 59 56  1  0  0  0  0
 60 64  1  0  0  0  0
 61 59  1  0  0  0  0
 62 58  1  0  0  0  0
 62 56  2  0  0  0  0
 63 64  2  0  0  0  0
M  END
>  <MODEL>
3

>  <REMARK>
 VINA RESULT:      -6.5      2.491      6.310
  Name = 
  21 active torsions:
  status: ('A' for Active; 'I' for Inactive)
    1  A    between atoms: C_4  and  C_35
    2  A    between atoms: O_6  and  C_28
    3  A    between atoms: O_6  and  C_30
    4  A    between atoms: C_7  and  C_9
    5  A    between atoms: C_7  and  N_20
    6  A    between atoms: C_9  and  C_28
    7  A    between atoms: C_11  and  C_17
    8  A    between atoms: C_11  and  S_36
    9  A    between atoms: C_13  and  O_16
   10  A    between atoms: C_13  and  C_56
   11  A    between atoms: N_15  and  C_28
   12  A    between atoms: O_16  and  S_36
   13  A    between atoms: C_23  and  C_42
   14  A    between atoms: C_25  and  C_56
   15  A    between atoms: C_27  and  C_34
   16  A    between atoms: C_33  and  C_34
   17  A    between atoms: C_42  and  C_49
   18  A    between atoms: O_43  and  C_44
   19  A    between atoms: O_43  and  C_47
   20  A    between atoms: C_47  and  C_56
   21  A    between atoms: C_48  and  C_49
                            x       y       z     vdW  Elec       q    Type
                         _______ _______ _______ _____ _____    ______ ____

>  <TORSDO>
F 21

$$$$
=
 OpenBabel11042414323D

 64 71  0  0  1  0  0  0  0  0999 V2000
  191.8300  171.6180  142.0450 C   0  0  0  0  0  0  0  0  0  0  0  0
  192.9350  171.1220  141.3710 F   0  0  0  0  0  0  0  0  0  0  0  0
  190.7870  170.7190  141.8890 F   0  0  0  0  0  0  0  0  0  0  0  0
  190.7520  172.7620  140.2120 O   0  0  0  0  0  1  0  0  0  0  0  0
  191.3960  172.9610  141.4360 C   0  0  2  0  0  3  0  0  0  0  0  0
  192.6840  174.9440  142.0590 N   0  0  0  0  0  2  0  0  0  0  0  0
  194.2540  174.9630  140.4750 C   0  0  0  0  0  0  0  0  0  0  0  0
  192.5020  173.8990  141.2660 N   0  0  0  0  0  0  0  0  0  0  0  0
  194.2200  176.6500  142.1070 O   0  0  0  0  0  0  0  0  0  0  0  0
  193.4210  173.8800  140.2720 C   0  0  0  0  0  3  0  0  0  0  0  0
  193.7560  175.6010  141.5880 C   0  0  0  0  0  0  0  0  0  0  0  0
  195.3910  175.3920  139.6120 C   0  0  0  0  0  2  0  0  0  0  0  0
  197.8830  174.7590  138.8560 C   0  0  0  0  0  1  0  0  0  0  0  0
  196.5550  174.0330  139.4040 S   0  0  2  0  0  3  0  0  0  0  0  0
  195.9630  173.2150  138.0330 O   0  0  0  0  0  0  0  0  0  0  0  0
  195.8040  174.2090  137.0650 C   0  0  0  0  0  2  0  0  0  0  0  0
  194.3510  174.2800  136.6140 C   0  0  1  0  0  3  0  0  0  0  0  0
  194.0170  175.6540  136.1240 C   0  0  0  0  0  3  0  0  0  0  0  0
  192.9940  176.2110  136.4890 O   0  0  0  0  0  0  0  0  0  0  0  0
  194.0870  173.2310  135.5370 C   0  0  0  0  0  2  0  0  0  0  0  0
  193.6430  172.0230  136.1120 O   0  0  0  0  0  0  0  0  0  0  0  0
  191.4380  170.5570  136.7110 P   0  0  2  0  0  0  0  0  0  0  0  0
  189.8350  171.3780  136.7230 C   0  0  2  0  0  3  0  0  0  0  0  0
  192.0100  170.4660  138.1090 O   0  0  0  0  0  1  0  0  0  0  0  0
  189.3920  171.5670  135.3910 O   0  0  0  0  0  0  0  0  0  0  0  0
  190.0260  172.6610  136.0060 C   0  0  2  0  0  0  0  0  0  0  0  0
  192.3330  171.7290  135.6620 C   0  0  1  0  0  3  0  0  0  0  0  0
  191.4310  172.9500  135.4470 C   0  0  0  0  0  2  0  0  0  0  0  0
  191.3480  169.0280  135.9960 O   0  0  0  0  0  0  0  0  0  0  0  0
  189.0620  173.7880  136.3460 C   0  0  1  0  0  3  0  0  0  0  0  0
  189.2830  174.2220  137.6530 O   0  0  0  0  0  1  0  0  0  0  0  0
  189.2420  174.9500  135.3880 C   0  0  0  0  0  1  0  0  0  0  0  0
  192.1370  171.7640  143.5440 C   0  0  1  0  0  3  0  0  0  0  0  0
  191.6830  175.1830  146.2200 C   0  0  0  0  0  0  0  0  0  0  0  0
  190.9740  172.2790  144.2720 N   0  0  0  0  0  2  0  0  0  0  0  0
  190.9910  173.4070  145.1540 C   0  0  0  0  0  0  0  0  0  0  0  0
  190.2760  175.0620  146.6960 C   0  0  2  0  0  3  0  0  0  0  0  0
  192.0350  174.1450  145.3260 N   0  0  0  0  0  0  0  0  0  0  0  0
  189.7840  173.8420  145.9190 C   0  0  0  0  0  2  0  0  0  0  0  0
  192.5930  175.9570  146.7940 C   0  0  0  0  0  2  0  0  0  0  0  0
  189.4510  176.2740  146.2800 C   0  0  0  0  0  2  0  0  0  0  0  0
  187.3330  177.3370  143.4970 O   0  0  0  0  0  0  0  0  0  0  0  0
  189.6330  176.9020  143.8090 C   0  0  1  0  0  3  0  0  0  0  0  0
  190.0560  178.1360  144.3250 O   0  0  0  0  0  1  0  0  0  0  0  0
  188.8860  176.1170  144.8600 C   0  0  2  0  0  3  0  0  0  0  0  0
  188.8120  178.2620  141.8400 C   0  0  0  0  0  1  0  0  0  0  0  0
  187.4160  176.5360  144.6590 C   0  0  1  0  0  3  0  0  0  0  0  0
  188.5280  177.1140  142.7950 C   0  0  2  0  0  3  0  0  0  0  0  0
  186.1160  176.3360  146.6720 O   0  0  0  0  0  1  0  0  0  0  0  0
  186.7870  177.2590  145.8600 C   0  0  2  0  0  3  0  0  0  0  0  0
  184.7770  177.8650  144.6780 O   0  0  0  0  0  1  0  0  0  0  0  0
  185.8300  178.3790  145.4390 C   0  0  1  0  0  3  0  0  0  0  0  0
  185.2800  179.0790  146.6380 C   0  0  0  0  0  3  0  0  0  0  0  0
  186.0350  179.5150  147.4950 O   0  0  0  0  0  0  0  0  0  0  0  0
  192.5630  170.5430  144.0930 O   0  0  0  0  0  0  0  0  0  0  0  0
  194.7400  171.7640  144.0870 C   0  0  0  0  0  0  0  0  0  0  0  0
  194.6830  169.6980  144.2450 C   0  0  2  0  0  3  0  0  0  0  0  0
  196.8180  170.9040  143.1360 N   0  0  0  0  0  0  0  0  0  0  0  0
  193.8050  170.7810  144.7020 C   0  0  2  0  0  0  0  0  0  0  0  0
  197.1410  172.2090  142.8380 C   0  0  0  0  0  3  0  0  0  0  0  0
  194.3520  169.7950  145.7100 C   0  0  0  0  0  2  0  0  0  0  0  0
  195.6360  170.7320  143.7550 C   0  0  0  0  0  0  0  0  0  0  0  0
  195.0250  173.0900  143.8160 C   0  0  0  0  0  3  0  0  0  0  0  0
  196.2680  173.3000  143.1650 C   0  0  0  0  0  3  0  0  0  0  0  0
  1 33  1  0  0  0  0
  2  1  1  0  0  0  0
  3  1  1  0  0  0  0
  5  4  1  6  0  0  0
  5  1  1  0  0  0  0
  7 11  1  0  0  0  0
  8  5  1  0  0  0  0
  8  6  1  0  0  0  0
 10  7  2  0  0  0  0
 10  8  1  0  0  0  0
 11  6  1  0  0  0  0
 11  9  2  0  0  0  0
 12  7  1  0  0  0  0
 14 13  1  6  0  0  0
 14 12  1  0  0  0  0
 15 14  1  0  0  0  0
 16 15  1  0  0  0  0
 17 20  1  6  0  0  0
 17 16  1  0  0  0  0
 18 19  2  0  0  0  0
 18 17  1  0  0  0  0
 20 21  1  0  0  0  0
 22 29  2  6  0  0  0
 22 23  1  0  0  0  0
 22 24  1  0  0  0  0
 23 25  1  6  0  0  0
 25 26  1  0  0  0  0
 26 30  1  1  0  0  0
 26 23  1  0  0  0  0
 27 21  1  1  0  0  0
 27 22  1  0  0  0  0
 28 27  1  0  0  0  0
 28 26  1  0  0  0  0
 30 32  1  6  0  0  0
 30 31  1  0  0  0  0
 33 55  1  1  0  0  0
 33 35  1  0  0  0  0
 34 37  1  0  0  0  0
 34 40  2  0  0  0  0
 35 36  1  0  0  0  0
 36 38  2  0  0  0  0
 36 39  1  0  0  0  0
 37 41  1  6  0  0  0
 38 34  1  0  0  0  0
 39 37  1  0  0  0  0
 42 47  1  0  0  0  0
 43 44  1  1  0  0  0
 43 45  1  0  0  0  0
 45 41  1  1  0  0  0
 47 45  1  0  0  0  0
 47 50  1  1  0  0  0
 48 46  1  1  0  0  0
 48 42  1  0  0  0  0
 48 43  1  0  0  0  0
 50 49  1  6  0  0  0
 52 51  1  1  0  0  0
 52 50  1  0  0  0  0
 52 53  1  0  0  0  0
 53 54  2  0  0  0  0
 56 59  1  0  0  0  0
 57 59  1  0  0  0  0
 57 61  1  1  0  0  0
 58 62  1  0  0  0  0
 59 55  1  6  0  0  0
 59 61  1  0  0  0  0
 60 58  2  0  0  0  0
 60 64  1  0  0  0  0
 62 56  2  0  0  0  0
 62 57  1  0  0  0  0
 63 56  1  0  0  0  0
 64 63  2  0  0  0  0
M  END
>  <MODEL>
4

>  <REMARK>
 VINA RESULT:      -6.1      3.250      7.938
  Name = 
  21 active torsions:
  status: ('A' for Active; 'I' for Inactive)
    1  A    between atoms: C_4  and  C_35
    2  A    between atoms: O_6  and  C_28
    3  A    between atoms: O_6  and  C_30
    4  A    between atoms: C_7  and  C_9
    5  A    between atoms: C_7  and  N_20
    6  A    between atoms: C_9  and  C_28
    7  A    between atoms: C_11  and  C_17
    8  A    between atoms: C_11  and  S_36
    9  A    between atoms: C_13  and  O_16
   10  A    between atoms: C_13  and  C_56
   11  A    between atoms: N_15  and  C_28
   12  A    between atoms: O_16  and  S_36
   13  A    between atoms: C_23  and  C_42
   14  A    between atoms: C_25  and  C_56
   15  A    between atoms: C_27  and  C_34
   16  A    between atoms: C_33  and  C_34
   17  A    between atoms: C_42  and  C_49
   18  A    between atoms: O_43  and  C_44
   19  A    between atoms: O_43  and  C_47
   20  A    between atoms: C_47  and  C_56
   21  A    between atoms: C_48  and  C_49
                            x       y       z     vdW  Elec       q    Type
                         _______ _______ _______ _____ _____    ______ ____

>  <TORSDO>
F 21

$$$$
=
 OpenBabel11042414323D

 64 71  0  0  1  0  0  0  0  0999 V2000
  190.7440  171.5750  138.9400 C   0  0  0  0  0  0  0  0  0  0  0  0
  189.6070  170.8330  138.6600 F   0  0  0  0  0  0  0  0  0  0  0  0
  191.1140  171.3240  140.2510 F   0  0  0  0  0  0  0  0  0  0  0  0
  191.5630  173.7680  138.3470 O   0  0  0  0  0  1  0  0  0  0  0  0
  190.4420  173.0770  138.8110 C   0  0  2  0  0  3  0  0  0  0  0  0
  188.7130  174.0430  140.2460 N   0  0  0  0  0  2  0  0  0  0  0  0
  189.8940  174.5720  142.0620 C   0  0  0  0  0  0  0  0  0  0  0  0
  189.9720  173.6760  140.0570 N   0  0  0  0  0  0  0  0  0  0  0  0
  187.5970  175.0460  141.9850 O   0  0  0  0  0  0  0  0  0  0  0  0
  190.7350  173.9980  141.1280 C   0  0  0  0  0  3  0  0  0  0  0  0
  188.6520  174.5890  141.4710 C   0  0  0  0  0  0  0  0  0  0  0  0
  190.2810  175.1330  143.3870 C   0  0  0  0  0  2  0  0  0  0  0  0
  192.4520  176.5760  142.7650 C   0  0  0  0  0  1  0  0  0  0  0  0
  190.9160  176.8070  143.1870 S   0  0  2  0  0  3  0  0  0  0  0  0
  191.0320  177.3770  144.7880 O   0  0  0  0  0  0  0  0  0  0  0  0
  190.8430  176.2450  145.5850 C   0  0  0  0  0  2  0  0  0  0  0  0
  189.7940  176.5210  146.6540 C   0  0  1  0  0  3  0  0  0  0  0  0
  190.3750  177.3400  147.7640 C   0  0  0  0  0  3  0  0  0  0  0  0
  191.3920  176.9800  148.3340 O   0  0  0  0  0  0  0  0  0  0  0  0
  188.5840  177.2130  146.0320 C   0  0  0  0  0  2  0  0  0  0  0  0
  187.4160  176.9430  146.7740 O   0  0  0  0  0  0  0  0  0  0  0  0
  185.3070  178.5850  146.2980 P   0  0  2  0  0  0  0  0  0  0  0  0
  184.9780  179.0940  144.6010 C   0  0  2  0  0  3  0  0  0  0  0  0
  186.1000  179.6410  147.0350 O   0  0  0  0  0  0  0  0  0  0  0  0
  184.3550  178.0310  143.9020 O   0  0  0  0  0  0  0  0  0  0  0  0
  185.7460  178.1650  143.7380 C   0  0  2  0  0  0  0  0  0  0  0  0
  186.2760  177.0960  145.9490 C   0  0  1  0  0  3  0  0  0  0  0  0
  186.5560  177.0610  144.4420 C   0  0  0  0  0  2  0  0  0  0  0  0
  183.8790  178.2160  147.1240 O   0  0  0  0  0  1  0  0  0  0  0  0
  186.1300  178.6720  142.3560 C   0  0  1  0  0  3  0  0  0  0  0  0
  187.4580  178.3400  142.0840 O   0  0  0  0  0  1  0  0  0  0  0  0
  185.2290  178.0660  141.2970 C   0  0  0  0  0  1  0  0  0  0  0  0
  191.8970  171.1610  138.0130 C   0  0  1  0  0  3  0  0  0  0  0  0
  195.2610  173.2410  139.8630 C   0  0  0  0  0  0  0  0  0  0  0  0
  193.0400  170.6650  138.7840 N   0  0  0  0  0  2  0  0  0  0  0  0
  194.0980  171.4790  139.3010 C   0  0  0  0  0  0  0  0  0  0  0  0
  196.1070  172.1300  140.3830 C   0  0  2  0  0  3  0  0  0  0  0  0
  194.0980  172.7660  139.2110 N   0  0  0  0  0  0  0  0  0  0  0  0
  195.2720  170.9020  140.0230 C   0  0  0  0  0  2  0  0  0  0  0  0
  195.6820  174.4910  139.7290 C   0  0  0  0  0  2  0  0  0  0  0  0
  196.2380  172.2060  141.8990 C   0  0  0  0  0  2  0  0  0  0  0  0
  193.8690  172.4580  144.6720 O   0  0  0  0  0  0  0  0  0  0  0  0
  195.1790  173.9690  143.4190 C   0  0  1  0  0  3  0  0  0  0  0  0
  196.4000  173.8730  144.1020 O   0  0  0  0  0  1  0  0  0  0  0  0
  194.9600  172.7500  142.5550 C   0  0  2  0  0  3  0  0  0  0  0  0
  194.2270  174.6170  145.6700 C   0  0  0  0  0  1  0  0  0  0  0  0
  194.1960  171.7780  143.4760 C   0  0  1  0  0  3  0  0  0  0  0  0
  194.0270  173.8230  144.3900 C   0  0  2  0  0  3  0  0  0  0  0  0
  194.3780  169.4180  143.0500 O   0  0  0  0  0  1  0  0  0  0  0  0
  194.9420  170.4710  143.7840 C   0  0  2  0  0  3  0  0  0  0  0  0
  193.9080  169.2350  145.5740 O   0  0  0  0  0  1  0  0  0  0  0  0
  194.9410  170.1280  145.2770 C   0  0  1  0  0  3  0  0  0  0  0  0
  196.2470  169.5280  145.6790 C   0  0  0  0  0  3  0  0  0  0  0  0
  197.2300  170.2380  145.8280 O   0  0  0  0  0  0  0  0  0  0  0  0
  191.4750  170.2000  137.0790 O   0  0  0  0  0  0  0  0  0  0  0  0
  192.6080  171.9470  135.7020 C   0  0  0  0  0  0  0  0  0  0  0  0
  190.6500  171.3910  135.3100 C   0  0  2  0  0  3  0  0  0  0  0  0
  191.4930  173.8740  134.7030 N   0  0  0  0  0  0  0  0  0  0  0  0
  191.8310  170.6790  135.8100 C   0  0  2  0  0  0  0  0  0  0  0  0
  192.6730  174.5610  134.8760 C   0  0  0  0  0  3  0  0  0  0  0  0
  191.1180  170.1620  134.5800 C   0  0  0  0  0  2  0  0  0  0  0  0
  191.5070  172.5940  135.1140 C   0  0  0  0  0  0  0  0  0  0  0  0
  193.8170  172.5910  135.8880 C   0  0  0  0  0  3  0  0  0  0  0  0
  193.8300  173.9440  135.4600 C   0  0  0  0  0  3  0  0  0  0  0  0
  1  3  1  0  0  0  0
  2  1  1  0  0  0  0
  5  4  1  1  0  0  0
  5  1  1  0  0  0  0
  5  8  1  0  0  0  0
  6 11  1  0  0  0  0
  7 12  1  0  0  0  0
  8  6  1  0  0  0  0
  8 10  1  0  0  0  0
 10  7  2  0  0  0  0
 11  9  2  0  0  0  0
 11  7  1  0  0  0  0
 14 13  1  1  0  0  0
 14 12  1  0  0  0  0
 14 15  1  0  0  0  0
 15 16  1  0  0  0  0
 17 16  1  6  0  0  0
 17 18  1  0  0  0  0
 18 19  2  0  0  0  0
 20 17  1  0  0  0  0
 20 21  1  0  0  0  0
 22 24  2  1  0  0  0
 22 29  1  0  0  0  0
 23 25  1  6  0  0  0
 23 22  1  0  0  0  0
 26 30  1  6  0  0  0
 26 25  1  0  0  0  0
 26 28  1  0  0  0  0
 26 23  1  0  0  0  0
 27 22  1  0  0  0  0
 27 21  1  1  0  0  0
 28 27  1  0  0  0  0
 30 32  1  6  0  0  0
 31 30  1  0  0  0  0
 33 55  1  6  0  0  0
 33 35  1  0  0  0  0
 33  1  1  0  0  0  0
 34 37  1  0  0  0  0
 35 36  1  0  0  0  0
 36 39  1  0  0  0  0
 37 41  1  1  0  0  0
 38 36  2  0  0  0  0
 38 34  1  0  0  0  0
 39 37  1  0  0  0  0
 40 34  2  0  0  0  0
 43 44  1  1  0  0  0
 43 48  1  0  0  0  0
 45 41  1  1  0  0  0
 45 43  1  0  0  0  0
 45 47  1  0  0  0  0
 47 50  1  1  0  0  0
 47 42  1  0  0  0  0
 48 42  1  0  0  0  0
 48 46  1  1  0  0  0
 50 49  1  6  0  0  0
 50 52  1  0  0  0  0
 52 51  1  6  0  0  0
 52 53  1  0  0  0  0
 53 54  2  0  0  0  0
 56 59  1  0  0  0  0
 56 63  1  0  0  0  0
 57 61  1  6  0  0  0
 57 59  1  0  0  0  0
 58 60  2  0  0  0  0
 58 62  1  0  0  0  0
 59 55  1  1  0  0  0
 60 64  1  0  0  0  0
 61 59  1  0  0  0  0
 62 57  1  0  0  0  0
 62 56  2  0  0  0  0
 64 63  2  0  0  0  0
M  END
>  <MODEL>
5

>  <REMARK>
 VINA RESULT:      -6.1      3.787     10.232
  Name = 
  21 active torsions:
  status: ('A' for Active; 'I' for Inactive)
    1  A    between atoms: C_4  and  C_35
    2  A    between atoms: O_6  and  C_28
    3  A    between atoms: O_6  and  C_30
    4  A    between atoms: C_7  and  C_9
    5  A    between atoms: C_7  and  N_20
    6  A    between atoms: C_9  and  C_28
    7  A    between atoms: C_11  and  C_17
    8  A    between atoms: C_11  and  S_36
    9  A    between atoms: C_13  and  O_16
   10  A    between atoms: C_13  and  C_56
   11  A    between atoms: N_15  and  C_28
   12  A    between atoms: O_16  and  S_36
   13  A    between atoms: C_23  and  C_42
   14  A    between atoms: C_25  and  C_56
   15  A    between atoms: C_27  and  C_34
   16  A    between atoms: C_33  and  C_34
   17  A    between atoms: C_42  and  C_49
   18  A    between atoms: O_43  and  C_44
   19  A    between atoms: O_43  and  C_47
   20  A    between atoms: C_47  and  C_56
   21  A    between atoms: C_48  and  C_49
                            x       y       z     vdW  Elec       q    Type
                         _______ _______ _______ _____ _____    ______ ____

>  <TORSDO>
F 21

$$$$
=
 OpenBabel11042414323D

 64 71  0  0  1  0  0  0  0  0999 V2000
  190.6720  172.5970  139.8380 C   0  0  0  0  0  0  0  0  0  0  0  0
  189.7400  173.0750  138.9300 F   0  0  0  0  0  0  0  0  0  0  0  0
  189.9950  171.9000  140.8270 F   0  0  0  0  0  0  0  0  0  0  0  0
  192.7440  173.8120  140.0860 O   0  0  0  0  0  1  0  0  0  0  0  0
  191.4120  173.7670  140.5050 C   0  0  2  0  0  3  0  0  0  0  0  0
  190.6600  172.8160  142.6280 N   0  0  0  0  0  2  0  0  0  0  0  0
  191.5800  174.2250  144.0920 C   0  0  0  0  0  0  0  0  0  0  0  0
  191.3530  173.7280  141.9630 N   0  0  0  0  0  0  0  0  0  0  0  0
  190.2660  172.4380  144.8590 O   0  0  0  0  0  0  0  0  0  0  0  0
  191.9150  174.6220  142.8110 C   0  0  0  0  0  3  0  0  0  0  0  0
  190.7940  173.1070  143.9320 C   0  0  0  0  0  0  0  0  0  0  0  0
  191.9270  174.9220  145.3620 C   0  0  0  0  0  2  0  0  0  0  0  0
  193.6690  176.6870  146.3760 C   0  0  0  0  0  1  0  0  0  0  0  0
  192.8600  176.4210  145.0100 S   0  0  2  0  0  3  0  0  0  0  0  0
  191.6680  177.6370  145.0190 O   0  0  0  0  0  0  0  0  0  0  0  0
  190.5260  177.0140  145.5270 C   0  0  0  0  0  2  0  0  0  0  0  0
  189.2810  177.5390  144.8250 C   0  0  1  0  0  3  0  0  0  0  0  0
  189.6310  178.1120  143.4870 C   0  0  0  0  0  3  0  0  0  0  0  0
  189.4680  177.4580  142.4700 O   0  0  0  0  0  0  0  0  0  0  0  0
  188.2460  176.4250  144.6950 C   0  0  0  0  0  2  0  0  0  0  0  0
  187.1720  176.6320  145.5840 O   0  0  0  0  0  0  0  0  0  0  0  0
  185.2930  178.5520  145.1900 P   0  0  2  0  0  0  0  0  0  0  0  0
  184.8790  179.0170  143.5000 C   0  0  2  0  0  3  0  0  0  0  0  0
  186.3030  179.5100  145.7830 O   0  0  0  0  0  0  0  0  0  0  0  0
  184.0400  178.0280  142.9310 O   0  0  0  0  0  0  0  0  0  0  0  0
  185.4120  177.9380  142.6350 C   0  0  2  0  0  0  0  0  0  0  0  0
  185.9920  176.9150  144.8550 C   0  0  1  0  0  3  0  0  0  0  0  0
  186.1140  176.7600  143.3360 C   0  0  0  0  0  2  0  0  0  0  0  0
  183.9150  178.4500  146.1630 O   0  0  0  0  0  1  0  0  0  0  0  0
  185.7300  178.3070  141.1940 C   0  0  1  0  0  3  0  0  0  0  0  0
  186.4720  177.2870  140.5970 O   0  0  0  0  0  1  0  0  0  0  0  0
  184.4530  178.5320  140.4080 C   0  0  0  0  0  1  0  0  0  0  0  0
  191.6560  171.6410  139.1460 C   0  0  1  0  0  3  0  0  0  0  0  0
  195.6930  170.8070  140.5830 C   0  0  0  0  0  0  0  0  0  0  0  0
  192.1640  170.6370  140.0840 N   0  0  0  0  0  2  0  0  0  0  0  0
  193.5420  170.4610  140.4330 C   0  0  0  0  0  0  0  0  0  0  0  0
  195.5130  169.5890  141.4230 C   0  0  2  0  0  3  0  0  0  0  0  0
  194.4750  171.2450  140.0110 N   0  0  0  0  0  0  0  0  0  0  0  0
  194.0020  169.3730  141.3470 C   0  0  0  0  0  2  0  0  0  0  0  0
  196.8690  171.2420  140.1540 C   0  0  0  0  0  2  0  0  0  0  0  0
  195.8960  169.8620  142.8730 C   0  0  0  0  0  2  0  0  0  0  0  0
  194.5390  171.7540  145.6910 O   0  0  0  0  0  0  0  0  0  0  0  0
  195.8860  172.2390  143.8130 C   0  0  1  0  0  3  0  0  0  0  0  0
  197.1470  171.8720  144.3040 O   0  0  0  0  0  1  0  0  0  0  0  0
  195.0740  171.0120  143.4720 C   0  0  2  0  0  3  0  0  0  0  0  0
  195.8100  173.7930  145.8070 C   0  0  0  0  0  1  0  0  0  0  0  0
  194.3100  170.7020  144.7750 C   0  0  1  0  0  3  0  0  0  0  0  0
  195.0420  172.8200  144.9290 C   0  0  2  0  0  3  0  0  0  0  0  0
  193.5650  168.4750  145.2960 O   0  0  0  0  0  1  0  0  0  0  0  0
  194.6560  169.3460  145.4110 C   0  0  2  0  0  3  0  0  0  0  0  0
  194.2730  168.6610  147.6880 O   0  0  0  0  0  1  0  0  0  0  0  0
  195.0730  169.4730  146.8790 C   0  0  1  0  0  3  0  0  0  0  0  0
  196.5060  169.0890  147.0540 C   0  0  0  0  0  3  0  0  0  0  0  0
  197.0690  168.4120  146.2070 O   0  0  0  0  0  0  0  0  0  0  0  0
  191.0600  171.0230  138.0330 O   0  0  0  0  0  0  0  0  0  0  0  0
  191.8680  172.8710  136.5620 C   0  0  0  0  0  0  0  0  0  0  0  0
  190.8950  171.2250  135.7610 C   0  0  2  0  0  3  0  0  0  0  0  0
  190.7620  173.6060  134.5130 N   0  0  0  0  0  0  0  0  0  0  0  0
  191.7920  171.4220  136.9050 C   0  0  2  0  0  0  0  0  0  0  0  0
  191.2310  174.8690  134.7950 C   0  0  0  0  0  3  0  0  0  0  0  0
  192.1550  170.4080  135.8430 C   0  0  0  0  0  2  0  0  0  0  0  0
  191.1040  172.6550  135.4010 C   0  0  0  0  0  0  0  0  0  0  0  0
  192.3690  174.1190  136.8810 C   0  0  0  0  0  3  0  0  0  0  0  0
  192.0250  175.1410  135.9590 C   0  0  0  0  0  3  0  0  0  0  0  0
  1  5  1  0  0  0  0
  1  3  1  0  0  0  0
  2  1  1  0  0  0  0
  5  4  1  1  0  0  0
  5  8  1  0  0  0  0
  6 11  1  0  0  0  0
  7 12  1  0  0  0  0
  8  6  1  0  0  0  0
  8 10  1  0  0  0  0
 10  7  2  0  0  0  0
 11  7  1  0  0  0  0
 11  9  2  0  0  0  0
 14 15  1  0  0  0  0
 14 12  1  0  0  0  0
 14 13  1  1  0  0  0
 15 16  1  0  0  0  0
 17 18  1  6  0  0  0
 17 16  1  0  0  0  0
 19 18  2  0  0  0  0
 20 17  1  0  0  0  0
 20 21  1  0  0  0  0
 22 24  2  1  0  0  0
 22 29  1  0  0  0  0
 23 25  1  1  0  0  0
 23 22  1  0  0  0  0
 26 30  1  6  0  0  0
 26 25  1  0  0  0  0
 26 28  1  0  0  0  0
 26 23  1  0  0  0  0
 27 22  1  0  0  0  0
 27 21  1  1  0  0  0
 28 27  1  0  0  0  0
 30 32  1  6  0  0  0
 31 30  1  0  0  0  0
 33 55  1  6  0  0  0
 33  1  1  0  0  0  0
 33 35  1  0  0  0  0
 34 37  1  0  0  0  0
 35 36  1  0  0  0  0
 36 39  1  0  0  0  0
 37 41  1  1  0  0  0
 38 36  2  0  0  0  0
 38 34  1  0  0  0  0
 39 37  1  0  0  0  0
 40 34  2  0  0  0  0
 43 44  1  1  0  0  0
 43 48  1  0  0  0  0
 45 41  1  1  0  0  0
 45 43  1  0  0  0  0
 45 47  1  0  0  0  0
 47 50  1  1  0  0  0
 47 42  1  0  0  0  0
 48 42  1  0  0  0  0
 48 46  1  1  0  0  0
 50 49  1  1  0  0  0
 50 52  1  0  0  0  0
 52 53  1  0  0  0  0
 52 51  1  1  0  0  0
 54 53  2  0  0  0  0
 56 63  1  0  0  0  0
 56 59  1  0  0  0  0
 57 61  1  6  0  0  0
 57 59  1  0  0  0  0
 58 60  2  0  0  0  0
 58 62  1  0  0  0  0
 59 55  1  1  0  0  0
 60 64  1  0  0  0  0
 61 59  1  0  0  0  0
 62 57  1  0  0  0  0
 62 56  2  0  0  0  0
 64 63  2  0  0  0  0
M  END
>  <MODEL>
6

>  <REMARK>
 VINA RESULT:      -6.0      3.959     10.084
  Name = 
  21 active torsions:
  status: ('A' for Active; 'I' for Inactive)
    1  A    between atoms: C_4  and  C_35
    2  A    between atoms: O_6  and  C_28
    3  A    between atoms: O_6  and  C_30
    4  A    between atoms: C_7  and  C_9
    5  A    between atoms: C_7  and  N_20
    6  A    between atoms: C_9  and  C_28
    7  A    between atoms: C_11  and  C_17
    8  A    between atoms: C_11  and  S_36
    9  A    between atoms: C_13  and  O_16
   10  A    between atoms: C_13  and  C_56
   11  A    between atoms: N_15  and  C_28
   12  A    between atoms: O_16  and  S_36
   13  A    between atoms: C_23  and  C_42
   14  A    between atoms: C_25  and  C_56
   15  A    between atoms: C_27  and  C_34
   16  A    between atoms: C_33  and  C_34
   17  A    between atoms: C_42  and  C_49
   18  A    between atoms: O_43  and  C_44
   19  A    between atoms: O_43  and  C_47
   20  A    between atoms: C_47  and  C_56
   21  A    between atoms: C_48  and  C_49
                            x       y       z     vdW  Elec       q    Type
                         _______ _______ _______ _____ _____    ______ ____

>  <TORSDO>
F 21

$$$$
=
 OpenBabel11042414323D

 64 71  0  0  1  0  0  0  0  0999 V2000
  195.6740  175.5940  142.2220 C   0  0  0  0  0  0  0  0  0  0  0  0
  195.4600  176.7980  141.5680 F   0  0  0  0  0  0  0  0  0  0  0  0
  197.0070  175.5360  142.5980 F   0  0  0  0  0  0  0  0  0  0  0  0
  196.3720  173.4270  141.4150 O   0  0  0  0  0  1  0  0  0  0  0  0
  195.3980  174.4180  141.2700 C   0  0  2  0  0  3  0  0  0  0  0  0
  194.1540  174.9330  139.2290 N   0  0  0  0  0  2  0  0  0  0  0  0
  195.8120  175.3750  137.8040 C   0  0  0  0  0  0  0  0  0  0  0  0
  195.3080  174.8220  139.8700 N   0  0  0  0  0  0  0  0  0  0  0  0
  193.5840  175.4710  137.0710 O   0  0  0  0  0  0  0  0  0  0  0  0
  196.3490  175.0600  139.0370 C   0  0  0  0  0  3  0  0  0  0  0  0
  194.4490  175.2750  137.9650 C   0  0  0  0  0  0  0  0  0  0  0  0
  196.5630  175.6680  136.5510 C   0  0  0  0  0  2  0  0  0  0  0  0
  195.7630  173.8430  134.7570 C   0  0  0  0  0  1  0  0  0  0  0  0
  197.0150  174.1300  135.7280 S   0  0  2  0  0  3  0  0  0  0  0  0
  196.8350  172.9620  136.9530 O   0  0  0  0  0  0  0  0  0  0  0  0
  196.2630  171.8590  136.3150 C   0  0  0  0  0  2  0  0  0  0  0  0
  195.8120  170.8280  137.3410 C   0  0  1  0  0  3  0  0  0  0  0  0
  196.8480  170.6590  138.4090 C   0  0  0  0  0  3  0  0  0  0  0  0
  197.2670  169.5490  138.6950 O   0  0  0  0  0  0  0  0  0  0  0  0
  194.4680  171.2390  137.9370 C   0  0  0  0  0  2  0  0  0  0  0  0
  193.6870  170.1050  138.2400 O   0  0  0  0  0  0  0  0  0  0  0  0
  191.0090  169.7260  138.4790 P   0  0  2  0  0  0  0  0  0  0  0  0
  189.9000  170.9990  137.8500 C   0  0  2  0  0  3  0  0  0  0  0  0
  191.2280  169.8880  139.9670 O   0  0  0  0  0  1  0  0  0  0  0  0
  189.8250  170.9020  136.4380 O   0  0  0  0  0  0  0  0  0  0  0  0
  190.7210  171.8540  136.9590 C   0  0  2  0  0  0  0  0  0  0  0  0
  192.4770  170.1440  137.5050 C   0  0  1  0  0  3  0  0  0  0  0  0
  192.2000  171.4650  136.7810 C   0  0  0  0  0  2  0  0  0  0  0  0
  190.4450  168.1750  138.1170 O   0  0  0  0  0  0  0  0  0  0  0  0
  190.2470  173.2850  136.7540 C   0  0  1  0  0  3  0  0  0  0  0  0
  190.6750  174.0820  137.8160 O   0  0  0  0  0  1  0  0  0  0  0  0
  190.7870  173.8430  135.4510 C   0  0  0  0  0  1  0  0  0  0  0  0
  194.8000  175.5030  143.4820 C   0  0  1  0  0  3  0  0  0  0  0  0
  190.5540  175.4740  142.4630 C   0  0  0  0  0  0  0  0  0  0  0  0
  193.7900  176.5650  143.4990 N   0  0  0  0  0  2  0  0  0  0  0  0
  192.4250  176.4080  143.0950 C   0  0  0  0  0  0  0  0  0  0  0  0
  190.1610  176.9060  142.5940 C   0  0  2  0  0  3  0  0  0  0  0  0
  191.9230  175.2690  142.7540 N   0  0  0  0  0  0  0  0  0  0  0  0
  191.4610  177.5490  143.0740 C   0  0  0  0  0  2  0  0  0  0  0  0
  189.8220  174.5600  141.8440 C   0  0  0  0  0  2  0  0  0  0  0  0
  189.0980  177.0850  143.6720 C   0  0  0  0  0  2  0  0  0  0  0  0
  185.4470  177.0320  143.8490 O   0  0  0  0  0  0  0  0  0  0  0  0
  187.0580  177.5330  142.1970 C   0  0  1  0  0  3  0  0  0  0  0  0
  187.3340  178.8720  142.5090 O   0  0  0  0  0  1  0  0  0  0  0  0
  187.7170  176.6100  143.1950 C   0  0  2  0  0  3  0  0  0  0  0  0
  184.6630  178.3130  141.9690 C   0  0  0  0  0  1  0  0  0  0  0  0
  186.6440  176.4200  144.2860 C   0  0  1  0  0  3  0  0  0  0  0  0
  185.6000  177.2250  142.4670 C   0  0  2  0  0  3  0  0  0  0  0  0
  187.6730  175.9270  146.4030 O   0  0  0  0  0  1  0  0  0  0  0  0
  187.0440  176.9450  145.6730 C   0  0  2  0  0  3  0  0  0  0  0  0
  185.7930  176.9110  147.7310 O   0  0  0  0  0  1  0  0  0  0  0  0
  185.8520  177.4940  146.4630 C   0  0  1  0  0  3  0  0  0  0  0  0
  185.9520  178.9770  146.6020 C   0  0  0  0  0  3  0  0  0  0  0  0
  185.6200  179.7050  145.6790 O   0  0  0  0  0  0  0  0  0  0  0  0
  194.1920  174.2400  143.5850 O   0  0  0  0  0  0  0  0  0  0  0  0
  195.4730  172.8940  145.2530 C   0  0  0  0  0  0  0  0  0  0  0  0
  193.4140  172.7060  145.0910 C   0  0  2  0  0  3  0  0  0  0  0  0
  194.8930  170.6290  145.9550 N   0  0  0  0  0  0  0  0  0  0  0  0
  194.3540  173.8180  144.9130 C   0  0  2  0  0  0  0  0  0  0  0  0
  196.2420  170.4090  146.1200 C   0  0  0  0  0  3  0  0  0  0  0  0
  193.2110  173.9610  145.8940 C   0  0  0  0  0  2  0  0  0  0  0  0
  194.5590  171.8630  145.5360 C   0  0  0  0  0  0  0  0  0  0  0  0
  196.8350  172.7240  145.4130 C   0  0  0  0  0  3  0  0  0  0  0  0
  197.2140  171.4310  145.8570 C   0  0  0  0  0  3  0  0  0  0  0  0
  1  3  1  0  0  0  0
  1 33  1  0  0  0  0
  2  1  1  0  0  0  0
  5  4  1  6  0  0  0
  5  1  1  0  0  0  0
  6  8  1  0  0  0  0
  7 11  1  0  0  0  0
  7 10  2  0  0  0  0
  8  5  1  0  0  0  0
  9 11  2  0  0  0  0
 10  8  1  0  0  0  0
 11  6  1  0  0  0  0
 12  7  1  0  0  0  0
 14 13  1  6  0  0  0
 14 12  1  0  0  0  0
 14 15  1  0  0  0  0
 16 15  1  0  0  0  0
 17 16  1  6  0  0  0
 17 20  1  0  0  0  0
 17 18  1  0  0  0  0
 18 19  2  0  0  0  0
 20 21  1  0  0  0  0
 22 29  2  6  0  0  0
 22 24  1  0  0  0  0
 23 25  1  6  0  0  0
 23 22  1  0  0  0  0
 25 26  1  0  0  0  0
 26 30  1  6  0  0  0
 26 23  1  0  0  0  0
 27 21  1  1  0  0  0
 27 22  1  0  0  0  0
 28 26  1  0  0  0  0
 28 27  1  0  0  0  0
 30 32  1  6  0  0  0
 30 31  1  0  0  0  0
 33 35  1  6  0  0  0
 33 55  1  0  0  0  0
 34 37  1  0  0  0  0
 34 38  1  0  0  0  0
 36 35  1  0  0  0  0
 37 39  1  0  0  0  0
 37 41  1  1  0  0  0
 38 36  2  0  0  0  0
 39 36  1  0  0  0  0
 40 34  2  0  0  0  0
 42 47  1  0  0  0  0
 43 48  1  0  0  0  0
 43 44  1  1  0  0  0
 43 45  1  0  0  0  0
 45 41  1  1  0  0  0
 45 47  1  0  0  0  0
 47 50  1  1  0  0  0
 48 46  1  1  0  0  0
 48 42  1  0  0  0  0
 50 49  1  1  0  0  0
 50 52  1  0  0  0  0
 52 53  1  0  0  0  0
 52 51  1  1  0  0  0
 54 53  2  0  0  0  0
 56 63  2  0  0  0  0
 56 62  1  0  0  0  0
 57 62  1  0  0  0  0
 57 61  1  1  0  0  0
 58 60  1  0  0  0  0
 59 55  1  6  0  0  0
 59 57  1  0  0  0  0
 59 56  1  0  0  0  0
 59 61  1  0  0  0  0
 62 58  2  0  0  0  0
 63 64  1  0  0  0  0
 64 60  2  0  0  0  0
M  END
>  <MODEL>
7

>  <REMARK>
 VINA RESULT:      -5.9      3.503      8.127
  Name = 
  21 active torsions:
  status: ('A' for Active; 'I' for Inactive)
    1  A    between atoms: C_4  and  C_35
    2  A    between atoms: O_6  and  C_28
    3  A    between atoms: O_6  and  C_30
    4  A    between atoms: C_7  and  C_9
    5  A    between atoms: C_7  and  N_20
    6  A    between atoms: C_9  and  C_28
    7  A    between atoms: C_11  and  C_17
    8  A    between atoms: C_11  and  S_36
    9  A    between atoms: C_13  and  O_16
   10  A    between atoms: C_13  and  C_56
   11  A    between atoms: N_15  and  C_28
   12  A    between atoms: O_16  and  S_36
   13  A    between atoms: C_23  and  C_42
   14  A    between atoms: C_25  and  C_56
   15  A    between atoms: C_27  and  C_34
   16  A    between atoms: C_33  and  C_34
   17  A    between atoms: C_42  and  C_49
   18  A    between atoms: O_43  and  C_44
   19  A    between atoms: O_43  and  C_47
   20  A    between atoms: C_47  and  C_56
   21  A    between atoms: C_48  and  C_49
                            x       y       z     vdW  Elec       q    Type
                         _______ _______ _______ _____ _____    ______ ____

>  <TORSDO>
F 21

$$$$
=
 OpenBabel11042414323D

 64 71  0  0  1  0  0  0  0  0999 V2000
  189.9900  177.4220  144.3750 C   0  0  0  0  0  0  0  0  0  0  0  0
  191.0720  178.2820  144.2680 F   0  0  0  0  0  0  0  0  0  0  0  0
  188.9890  178.0710  145.0800 F   0  0  0  0  0  0  0  0  0  0  0  0
  189.6260  176.0500  146.3290 O   0  0  0  0  0  1  0  0  0  0  0  0
  190.3880  176.1650  145.1650 C   0  0  2  0  0  3  0  0  0  0  0  0
  192.3950  177.0360  146.2580 N   0  0  0  0  0  2  0  0  0  0  0  0
  193.9370  175.5760  145.5750 C   0  0  0  0  0  0  0  0  0  0  0  0
  191.8100  176.1230  145.4980 N   0  0  0  0  0  0  0  0  0  0  0  0
  194.5550  177.3660  146.9620 O   0  0  0  0  0  0  0  0  0  0  0  0
  192.7130  175.2240  145.0400 C   0  0  0  0  0  3  0  0  0  0  0  0
  193.6960  176.7110  146.3160 C   0  0  0  0  0  0  0  0  0  0  0  0
  195.2470  174.9150  145.3210 C   0  0  0  0  0  2  0  0  0  0  0  0
  195.4460  175.8990  142.8360 C   0  0  0  0  0  1  0  0  0  0  0  0
  196.2530  175.9350  144.2290 S   0  0  2  0  0  3  0  0  0  0  0  0
  197.6110  174.9560  143.9190 O   0  0  0  0  0  0  0  0  0  0  0  0
  197.6330  174.0320  144.9650 C   0  0  0  0  0  2  0  0  0  0  0  0
  197.9400  172.6380  144.4340 C   0  0  1  0  0  3  0  0  0  0  0  0
  197.2570  171.5950  145.2620 C   0  0  0  0  0  3  0  0  0  0  0  0
  196.1240  171.7760  145.6760 O   0  0  0  0  0  0  0  0  0  0  0  0
  197.5270  172.5360  142.9680 C   0  0  0  0  0  2  0  0  0  0  0  0
  196.7420  171.3860  142.7470 O   0  0  0  0  0  0  0  0  0  0  0  0
  194.2790  171.9780  141.7710 P   0  0  2  0  0  0  0  0  0  0  0  0
  194.1450  173.2020  140.4560 C   0  0  2  0  0  3  0  0  0  0  0  0
  194.0120  172.6040  143.1230 O   0  0  0  0  0  1  0  0  0  0  0  0
  194.5320  172.6160  139.2260 O   0  0  0  0  0  0  0  0  0  0  0  0
  195.5120  173.3620  139.9060 C   0  0  2  0  0  0  0  0  0  0  0  0
  196.0160  171.5230  141.5400 C   0  0  1  0  0  3  0  0  0  0  0  0
  196.6240  172.4950  140.5240 C   0  0  0  0  0  2  0  0  0  0  0  0
  193.2520  170.6620  141.5030 O   0  0  0  0  0  0  0  0  0  0  0  0
  195.8250  174.6850  139.2220 C   0  0  1  0  0  3  0  0  0  0  0  0
  196.8460  174.5040  138.2880 O   0  0  0  0  0  1  0  0  0  0  0  0
  194.5920  175.2300  138.5260 C   0  0  0  0  0  1  0  0  0  0  0  0
  189.4560  177.0550  142.9820 C   0  0  1  0  0  3  0  0  0  0  0  0
  188.3810  172.9750  141.8610 C   0  0  0  0  0  0  0  0  0  0  0  0
  190.2430  175.9740  142.3840 N   0  0  0  0  0  2  0  0  0  0  0  0
  189.7520  174.6580  142.1050 C   0  0  0  0  0  0  0  0  0  0  0  0
  189.6780  172.3880  141.4210 C   0  0  2  0  0  3  0  0  0  0  0  0
  188.5190  174.3200  142.2760 N   0  0  0  0  0  0  0  0  0  0  0  0
  190.6260  173.5780  141.5560 C   0  0  0  0  0  2  0  0  0  0  0  0
  187.3030  172.2580  142.1440 C   0  0  0  0  0  2  0  0  0  0  0  0
  189.6210  171.9700  139.9560 C   0  0  0  0  0  2  0  0  0  0  0  0
  190.9890  173.0670  136.7480 O   0  0  0  0  0  0  0  0  0  0  0  0
  189.3090  173.8260  138.2240 C   0  0  1  0  0  3  0  0  0  0  0  0
  188.2310  173.0310  137.8110 O   0  0  0  0  0  1  0  0  0  0  0  0
  190.2840  173.0110  139.0410 C   0  0  2  0  0  3  0  0  0  0  0  0
  189.3780  174.5910  135.8140 C   0  0  0  0  0  1  0  0  0  0  0  0
  191.2790  172.4690  137.9960 C   0  0  1  0  0  3  0  0  0  0  0  0
  190.1810  174.1780  137.0370 C   0  0  2  0  0  3  0  0  0  0  0  0
  192.3990  170.4190  138.5670 O   0  0  0  0  0  1  0  0  0  0  0  0
  191.3010  170.9380  137.8690 C   0  0  2  0  0  3  0  0  0  0  0  0
  192.5470  170.8200  135.8110 O   0  0  0  0  0  1  0  0  0  0  0  0
  191.3360  170.4670  136.4110 C   0  0  1  0  0  3  0  0  0  0  0  0
  191.1560  168.9870  136.3330 C   0  0  0  0  0  3  0  0  0  0  0  0
  191.9890  168.2390  136.8230 O   0  0  0  0  0  0  0  0  0  0  0  0
  188.0960  176.7050  143.0390 O   0  0  0  0  0  0  0  0  0  0  0  0
  186.2960  178.4250  143.2320 C   0  0  0  0  0  0  0  0  0  0  0  0
  186.3530  177.1240  141.6180 C   0  0  2  0  0  3  0  0  0  0  0  0
  184.0010  178.1330  142.4510 N   0  0  0  0  0  0  0  0  0  0  0  0
  187.3790  177.7590  142.4530 C   0  0  2  0  0  0  0  0  0  0  0  0
  183.6170  178.9520  143.4900 C   0  0  0  0  0  3  0  0  0  0  0  0
  187.4160  177.9550  140.9540 C   0  0  0  0  0  2  0  0  0  0  0  0
  185.3240  177.9080  142.3570 C   0  0  0  0  0  0  0  0  0  0  0  0
  185.9600  179.2580  144.2820 C   0  0  0  0  0  3  0  0  0  0  0  0
  184.5700  179.5150  144.4030 C   0  0  0  0  0  3  0  0  0  0  0  0
  1  3  1  0  0  0  0
  1  5  1  0  0  0  0
  2  1  1  0  0  0  0
  5  8  1  0  0  0  0
  5  4  1  1  0  0  0
  6 11  1  0  0  0  0
  7 11  1  0  0  0  0
  8  6  1  0  0  0  0
 10  8  1  0  0  0  0
 10  7  2  0  0  0  0
 11  9  2  0  0  0  0
 12  7  1  0  0  0  0
 14 13  1  6  0  0  0
 14 12  1  0  0  0  0
 15 14  1  0  0  0  0
 15 16  1  0  0  0  0
 17 20  1  6  0  0  0
 17 16  1  0  0  0  0
 17 18  1  0  0  0  0
 18 19  2  0  0  0  0
 21 20  1  0  0  0  0
 22 29  2  6  0  0  0
 22 24  1  0  0  0  0
 23 25  1  6  0  0  0
 23 22  1  0  0  0  0
 25 26  1  0  0  0  0
 26 30  1  6  0  0  0
 26 23  1  0  0  0  0
 26 28  1  0  0  0  0
 27 22  1  0  0  0  0
 27 21  1  1  0  0  0
 28 27  1  0  0  0  0
 30 32  1  6  0  0  0
 31 30  1  0  0  0  0
 33 35  1  1  0  0  0
 33 55  1  0  0  0  0
 33  1  1  0  0  0  0
 34 40  2  0  0  0  0
 34 38  1  0  0  0  0
 36 38  2  0  0  0  0
 36 35  1  0  0  0  0
 37 41  1  6  0  0  0
 37 39  1  0  0  0  0
 37 34  1  0  0  0  0
 39 36  1  0  0  0  0
 42 48  1  0  0  0  0
 42 47  1  0  0  0  0
 43 44  1  6  0  0  0
 43 45  1  0  0  0  0
 45 41  1  6  0  0  0
 47 50  1  6  0  0  0
 47 45  1  0  0  0  0
 48 46  1  6  0  0  0
 48 43  1  0  0  0  0
 50 49  1  1  0  0  0
 52 51  1  1  0  0  0
 52 50  1  0  0  0  0
 53 52  1  0  0  0  0
 53 54  2  0  0  0  0
 56 63  1  0  0  0  0
 57 61  1  6  0  0  0
 57 62  1  0  0  0  0
 57 59  1  0  0  0  0
 58 60  2  0  0  0  0
 59 55  1  1  0  0  0
 59 56  1  0  0  0  0
 60 64  1  0  0  0  0
 61 59  1  0  0  0  0
 62 58  1  0  0  0  0
 62 56  2  0  0  0  0
 63 64  2  0  0  0  0
M  END
>  <MODEL>
8

>  <REMARK>
 VINA RESULT:      -5.8      2.779      6.784
  Name = 
  21 active torsions:
  status: ('A' for Active; 'I' for Inactive)
    1  A    between atoms: C_4  and  C_35
    2  A    between atoms: O_6  and  C_28
    3  A    between atoms: O_6  and  C_30
    4  A    between atoms: C_7  and  C_9
    5  A    between atoms: C_7  and  N_20
    6  A    between atoms: C_9  and  C_28
    7  A    between atoms: C_11  and  C_17
    8  A    between atoms: C_11  and  S_36
    9  A    between atoms: C_13  and  O_16
   10  A    between atoms: C_13  and  C_56
   11  A    between atoms: N_15  and  C_28
   12  A    between atoms: O_16  and  S_36
   13  A    between atoms: C_23  and  C_42
   14  A    between atoms: C_25  and  C_56
   15  A    between atoms: C_27  and  C_34
   16  A    between atoms: C_33  and  C_34
   17  A    between atoms: C_42  and  C_49
   18  A    between atoms: O_43  and  C_44
   19  A    between atoms: O_43  and  C_47
   20  A    between atoms: C_47  and  C_56
   21  A    between atoms: C_48  and  C_49
                            x       y       z     vdW  Elec       q    Type
                         _______ _______ _______ _____ _____    ______ ____

>  <TORSDO>
F 21

$$$$
=
 OpenBabel11042414323D

 64 71  0  0  1  0  0  0  0  0999 V2000
  189.8470  172.3700  139.8640 C   0  0  0  0  0  0  0  0  0  0  0  0
  188.8770  173.0080  139.1070 F   0  0  0  0  0  0  0  0  0  0  0  0
  189.2740  171.9810  141.0650 F   0  0  0  0  0  0  0  0  0  0  0  0
  192.0910  173.0940  139.3440 O   0  0  0  0  0  1  0  0  0  0  0  0
  190.9980  173.3390  140.1780 C   0  0  2  0  0  3  0  0  0  0  0  0
  191.0470  172.3330  142.4070 N   0  0  0  0  0  2  0  0  0  0  0  0
  192.2970  173.8030  143.5250 C   0  0  0  0  0  0  0  0  0  0  0  0
  191.4210  173.2930  141.5750 N   0  0  0  0  0  0  0  0  0  0  0  0
  191.4300  171.9250  144.6340 O   0  0  0  0  0  0  0  0  0  0  0  0
  192.1670  174.2250  142.2160 C   0  0  0  0  0  3  0  0  0  0  0  0
  191.5800  172.6320  143.6020 C   0  0  0  0  0  0  0  0  0  0  0  0
  192.9920  174.5210  144.6300 C   0  0  0  0  0  2  0  0  0  0  0  0
  194.9610  176.3100  144.9520 C   0  0  0  0  0  1  0  0  0  0  0  0
  193.6620  176.0810  144.0290 S   0  0  2  0  0  3  0  0  0  0  0  0
  192.5570  177.2350  144.6150 O   0  0  0  0  0  0  0  0  0  0  0  0
  191.8080  176.5560  145.5800 C   0  0  0  0  0  2  0  0  0  0  0  0
  190.3220  176.6510  145.2600 C   0  0  1  0  0  3  0  0  0  0  0  0
  189.5220  176.8210  146.5130 C   0  0  0  0  0  3  0  0  0  0  0  0
  189.8130  177.6890  147.3210 O   0  0  0  0  0  0  0  0  0  0  0  0
  190.0710  177.7970  144.2840 C   0  0  0  0  0  2  0  0  0  0  0  0
  190.0120  177.3220  142.9580 O   0  0  0  0  0  0  0  0  0  0  0  0
  187.9220  175.7680  142.1900 P   0  0  2  0  0  0  0  0  0  0  0  0
  186.2980  176.1020  142.8920 C   0  0  2  0  0  3  0  0  0  0  0  0
  188.6170  174.6520  142.9390 O   0  0  0  0  0  1  0  0  0  0  0  0
  185.7340  177.2360  142.2580 O   0  0  0  0  0  0  0  0  0  0  0  0
  186.3790  177.4560  143.4890 C   0  0  2  0  0  0  0  0  0  0  0  0
  188.6800  177.3860  142.4830 C   0  0  1  0  0  3  0  0  0  0  0  0
  187.7190  178.2030  143.3540 C   0  0  0  0  0  2  0  0  0  0  0  0
  187.8270  175.4180  140.5390 O   0  0  0  0  0  0  0  0  0  0  0  0
  185.4070  177.7690  144.6160 C   0  0  1  0  0  3  0  0  0  0  0  0
  186.1100  178.2100  145.7380 O   0  0  0  0  0  1  0  0  0  0  0  0
  184.4180  178.8350  144.1870 C   0  0  0  0  0  1  0  0  0  0  0  0
  190.3600  171.1190  139.1340 C   0  0  1  0  0  3  0  0  0  0  0  0
  194.3920  169.5600  139.7520 C   0  0  0  0  0  0  0  0  0  0  0  0
  190.8850  170.1330  140.0830 N   0  0  0  0  0  2  0  0  0  0  0  0
  192.2460  169.6910  140.1400 C   0  0  0  0  0  0  0  0  0  0  0  0
  194.1980  168.5110  140.7920 C   0  0  2  0  0  3  0  0  0  0  0  0
  193.1770  170.1960  139.4030 N   0  0  0  0  0  0  0  0  0  0  0  0
  192.7030  168.6320  141.0890 C   0  0  0  0  0  2  0  0  0  0  0  0
  195.4830  169.6710  139.0090 C   0  0  0  0  0  2  0  0  0  0  0  0
  194.9780  168.8450  142.0590 C   0  0  0  0  0  2  0  0  0  0  0  0
  195.0850  171.4620  144.6090 O   0  0  0  0  0  0  0  0  0  0  0  0
  195.6490  171.2980  142.3220 C   0  0  1  0  0  3  0  0  0  0  0  0
  196.9410  170.7620  142.4180 O   0  0  0  0  0  1  0  0  0  0  0  0
  194.6130  170.2350  142.6010 C   0  0  2  0  0  3  0  0  0  0  0  0
  196.5600  173.1650  143.7650 C   0  0  0  0  0  1  0  0  0  0  0  0
  194.3800  170.3370  144.1220 C   0  0  1  0  0  3  0  0  0  0  0  0
  195.3900  172.2390  143.4800 C   0  0  2  0  0  3  0  0  0  0  0  0
  193.6330  168.2680  145.0920 O   0  0  0  0  0  1  0  0  0  0  0  0
  194.7630  169.0770  144.9120 C   0  0  2  0  0  3  0  0  0  0  0  0
  194.6200  168.8800  147.3090 O   0  0  0  0  0  1  0  0  0  0  0  0
  195.3960  169.4000  146.2700 C   0  0  1  0  0  3  0  0  0  0  0  0
  196.7780  168.8400  146.3520 C   0  0  0  0  0  3  0  0  0  0  0  0
  197.6170  169.1500  145.5200 O   0  0  0  0  0  0  0  0  0  0  0  0
  189.3520  170.5500  138.3370 O   0  0  0  0  0  0  0  0  0  0  0  0
  191.1010  169.8200  136.7110 C   0  0  0  0  0  0  0  0  0  0  0  0
  190.5430  171.8120  136.8470 C   0  0  2  0  0  3  0  0  0  0  0  0
  193.0270  171.1610  136.0400 N   0  0  0  0  0  0  0  0  0  0  0  0
  189.8330  170.5400  137.0190 C   0  0  2  0  0  0  0  0  0  0  0  0
  193.7160  169.9780  135.8990 C   0  0  0  0  0  3  0  0  0  0  0  0
  189.3150  171.5500  136.0190 C   0  0  0  0  0  2  0  0  0  0  0  0
  191.7470  171.0380  136.4330 C   0  0  0  0  0  0  0  0  0  0  0  0
  191.7470  168.6060  136.5730 C   0  0  0  0  0  3  0  0  0  0  0  0
  193.1000  168.7070  136.1570 C   0  0  0  0  0  3  0  0  0  0  0  0
  1  5  1  0  0  0  0
  1  3  1  0  0  0  0
  2  1  1  0  0  0  0
  5  4  1  6  0  0  0
  5  8  1  0  0  0  0
  6 11  1  0  0  0  0
  7 11  1  0  0  0  0
  7 12  1  0  0  0  0
  8 10  1  0  0  0  0
  8  6  1  0  0  0  0
 10  7  2  0  0  0  0
 11  9  2  0  0  0  0
 14 15  1  0  0  0  0
 14 12  1  0  0  0  0
 14 13  1  1  0  0  0
 15 16  1  0  0  0  0
 17 20  1  6  0  0  0
 17 16  1  0  0  0  0
 17 18  1  0  0  0  0
 18 19  2  0  0  0  0
 21 20  1  0  0  0  0
 22 29  2  6  0  0  0
 22 27  1  0  0  0  0
 22 23  1  0  0  0  0
 22 24  1  0  0  0  0
 23 25  1  6  0  0  0
 23 26  1  0  0  0  0
 25 26  1  0  0  0  0
 26 30  1  1  0  0  0
 27 21  1  1  0  0  0
 27 28  1  0  0  0  0
 28 26  1  0  0  0  0
 30 32  1  6  0  0  0
 30 31  1  0  0  0  0
 33 55  1  1  0  0  0
 33  1  1  0  0  0  0
 33 35  1  0  0  0  0
 34 37  1  0  0  0  0
 35 36  1  0  0  0  0
 36 39  1  0  0  0  0
 37 39  1  0  0  0  0
 37 41  1  1  0  0  0
 38 34  1  0  0  0  0
 38 36  2  0  0  0  0
 40 34  2  0  0  0  0
 43 44  1  1  0  0  0
 43 45  1  0  0  0  0
 43 48  1  0  0  0  0
 45 41  1  1  0  0  0
 45 47  1  0  0  0  0
 47 42  1  0  0  0  0
 47 50  1  1  0  0  0
 48 46  1  1  0  0  0
 48 42  1  0  0  0  0
 50 49  1  1  0  0  0
 50 52  1  0  0  0  0
 52 53  1  0  0  0  0
 52 51  1  1  0  0  0
 54 53  2  0  0  0  0
 56 59  1  0  0  0  0
 57 61  1  6  0  0  0
 57 59  1  0  0  0  0
 58 62  1  0  0  0  0
 59 55  1  1  0  0  0
 60 58  2  0  0  0  0
 60 64  1  0  0  0  0
 61 59  1  0  0  0  0
 62 56  2  0  0  0  0
 62 57  1  0  0  0  0
 63 56  1  0  0  0  0
 64 63  2  0  0  0  0
M  END
>  <MODEL>
9

>  <REMARK>
 VINA RESULT:      -5.8      3.782      9.789
  Name = 
  21 active torsions:
  status: ('A' for Active; 'I' for Inactive)
    1  A    between atoms: C_4  and  C_35
    2  A    between atoms: O_6  and  C_28
    3  A    between atoms: O_6  and  C_30
    4  A    between atoms: C_7  and  C_9
    5  A    between atoms: C_7  and  N_20
    6  A    between atoms: C_9  and  C_28
    7  A    between atoms: C_11  and  C_17
    8  A    between atoms: C_11  and  S_36
    9  A    between atoms: C_13  and  O_16
   10  A    between atoms: C_13  and  C_56
   11  A    between atoms: N_15  and  C_28
   12  A    between atoms: O_16  and  S_36
   13  A    between atoms: C_23  and  C_42
   14  A    between atoms: C_25  and  C_56
   15  A    between atoms: C_27  and  C_34
   16  A    between atoms: C_33  and  C_34
   17  A    between atoms: C_42  and  C_49
   18  A    between atoms: O_43  and  C_44
   19  A    between atoms: O_43  and  C_47
   20  A    between atoms: C_47  and  C_56
   21  A    between atoms: C_48  and  C_49
                            x       y       z     vdW  Elec       q    Type
                         _______ _______ _______ _____ _____    ______ ____

>  <TORSDO>
F 21

$$$$
