=
 OpenBabel11042414453D

 36 38  0  0  1  0  0  0  0  0999 V2000
  191.0690  175.6290  144.2890 C   0  0  2  0  0  3  0  0  0  0  0  0
  190.1590  176.1790  145.3800 C   0  0  0  0  0  0  0  0  0  0  0  0
  189.0190  177.3410  143.5150 C   0  0  0  0  0  2  0  0  0  0  0  0
  190.3380  175.2500  142.9800 C   0  0  2  0  0  3  0  0  0  0  0  0
  189.0300  176.0390  142.7260 C   0  0  2  0  0  3  0  0  0  0  0  0
  189.1880  177.0340  144.9790 C   0  0  0  0  0  0  0  0  0  0  0  0
  188.3230  177.5950  145.8510 F   0  0  0  0  0  0  0  0  0  0  0  0
  190.3940  175.8470  146.8410 C   0  0  0  0  0  0  0  0  0  0  0  0
  191.6940  175.4610  147.0740 F   0  0  0  0  0  0  0  0  0  0  0  0
  190.1510  176.9640  147.6040 F   0  0  0  0  0  0  0  0  0  0  0  0
  189.4510  174.7470  147.2880 C   0  0  0  0  0  3  0  0  0  0  0  0
  189.3990  173.7290  146.3630 F   0  0  0  0  0  0  0  0  0  0  0  0
  188.1810  175.2510  147.4810 F   0  0  0  0  0  0  0  0  0  0  0  0
  190.1810  173.8630  142.7740 O   0  0  0  0  0  0  0  0  0  0  0  0
  188.8890  173.4900  143.1580 C   0  0  0  0  0  1  0  0  0  0  0  0
  192.2200  174.7540  144.6910 C   0  0  0  0  0  0  0  0  0  0  0  0
  192.0280  173.5440  144.9960 O   0  0  0  0  0  0  0  0  0  0  0  0
  193.5750  175.2930  144.7550 C   0  0  0  0  0  0  0  0  0  0  0  0
  195.3700  176.7750  144.7550 N   0  0  0  0  0  0  0  0  0  0  0  0
  195.7280  175.4220  144.6730 N   0  0  0  0  0  0  0  0  0  0  0  0
  194.6280  174.5760  144.6280 N   0  0  0  0  0  0  0  0  0  0  0  0
  193.9050  176.7380  144.8900 C   0  0  0  0  0  2  0  0  0  0  0  0
  188.8770  176.2950  141.3620 O   0  0  0  0  0  0  0  0  0  0  0  0
  187.4900  176.3730  141.1500 C   0  0  0  0  0  2  0  0  0  0  0  0
  187.1550  177.7030  140.4970 C   0  0  0  0  0  2  0  0  0  0  0  0
  185.7390  178.1350  140.8580 C   0  0  0  0  0  2  0  0  0  0  0  0
  185.2620  177.4520  142.0190 O   0  0  0  0  0  0  0  0  0  0  0  0
  185.5220  179.8300  144.8610 C   0  0  0  0  0  3  0  0  0  0  0  0
  185.3900  178.9530  145.9520 C   0  0  0  0  0  0  0  0  0  0  0  0
  185.3020  177.9780  143.3140 C   0  0  0  0  0  0  0  0  0  0  0  0
  185.0540  176.6110  146.8370 C   0  0  0  0  0  1  0  0  0  0  0  0
  185.1570  177.1070  144.3970 C   0  0  0  0  0  3  0  0  0  0  0  0
  185.2020  177.5820  145.7090 C   0  0  0  0  0  0  0  0  0  0  0  0
  185.4820  179.3420  143.5540 C   0  0  0  0  0  3  0  0  0  0  0  0
  185.4870  179.4000  147.2710 O   0  0  0  0  0  0  0  0  0  0  0  0
  186.6830  179.2830  148.0310 C   0  0  0  0  0  1  0  0  0  0  0  0
  1 16  1  1  0  0  0
  1  2  1  0  0  0  0
  2  8  1  0  0  0  0
  3  6  1  0  0  0  0
  4 14  1  1  0  0  0
  4  1  1  0  0  0  0
  5 23  1  6  0  0  0
  5  4  1  0  0  0  0
  5  3  1  0  0  0  0
  6  2  2  0  0  0  0
  6  7  1  0  0  0  0
  8  9  1  0  0  0  0
  8 11  1  0  0  0  0
  8 10  1  0  0  0  0
 11 13  1  0  0  0  0
 12 11  1  0  0  0  0
 14 15  1  0  0  0  0
 16 18  1  0  0  0  0
 16 17  2  0  0  0  0
 18 22  1  0  0  0  0
 19 22  1  0  0  0  0
 20 19  2  0  0  0  0
 21 20  1  0  0  0  0
 21 18  2  0  0  0  0
 24 23  1  0  0  0  0
 25 26  1  0  0  0  0
 25 24  1  0  0  0  0
 26 27  1  0  0  0  0
 27 30  1  0  0  0  0
 28 29  1  0  0  0  0
 29 35  1  0  0  0  0
 30 34  1  0  0  0  0
 30 32  2  0  0  0  0
 32 33  1  0  0  0  0
 33 29  2  0  0  0  0
 33 31  1  0  0  0  0
 34 28  2  0  0  0  0
 35 36  1  0  0  0  0
M  END
>  <MODEL>
1

>  <REMARK>
 VINA RESULT:      -6.9      0.000      0.000
  Name = 
  12 active torsions:
  status: ('A' for Active; 'I' for Inactive)
    1  A    between atoms: C_2  and  O_22
    2  A    between atoms: C_3  and  C_18
    3  A    between atoms: C_4  and  C_6
    4  A    between atoms: C_5  and  C_18
    5  A    between atoms: C_6  and  C_8
    6  A    between atoms: O_7  and  C_9
    7  A    between atoms: O_7  and  C_14
    8  A    between atoms: C_9  and  C_16
    9  A    between atoms: O_10  and  C_19
   10  A    between atoms: C_16  and  C_30
   11  A    between atoms: C_23  and  O_36
   12  A    between atoms: C_30  and  O_36
                            x       y       z     vdW  Elec       q    Type
                         _______ _______ _______ _____ _____    ______ ____

>  <TORSDO>
F 12

$$$$
=
 OpenBabel11042414453D

 36 38  0  0  1  0  0  0  0  0999 V2000
  188.2720  176.6230  144.0740 C   0  0  2  0  0  3  0  0  0  0  0  0
  186.9510  177.0280  144.7140 C   0  0  0  0  0  0  0  0  0  0  0  0
  188.0820  176.4690  146.8440 C   0  0  0  0  0  2  0  0  0  0  0  0
  189.5260  177.0770  144.8580 C   0  0  2  0  0  3  0  0  0  0  0  0
  189.2990  177.2570  146.3790 C   0  0  2  0  0  3  0  0  0  0  0  0
  186.8750  176.9140  146.0610 C   0  0  0  0  0  0  0  0  0  0  0  0
  185.7560  177.2340  146.7460 F   0  0  0  0  0  0  0  0  0  0  0  0
  185.7640  177.4510  143.8690 C   0  0  0  0  0  0  0  0  0  0  0  0
  185.5780  176.6110  142.7950 F   0  0  0  0  0  0  0  0  0  0  0  0
  184.6230  177.4020  144.6340 F   0  0  0  0  0  0  0  0  0  0  0  0
  185.9510  178.8720  143.3750 C   0  0  0  0  0  3  0  0  0  0  0  0
  185.3180  179.7730  144.2010 F   0  0  0  0  0  0  0  0  0  0  0  0
  185.4570  179.0050  142.0930 F   0  0  0  0  0  0  0  0  0  0  0  0
  190.2190  178.1630  144.2830 O   0  0  0  0  0  0  0  0  0  0  0  0
  191.4510  177.7120  143.7980 C   0  0  0  0  0  1  0  0  0  0  0  0
  188.3770  176.6390  142.5770 C   0  0  0  0  0  0  0  0  0  0  0  0
  188.4090  177.7340  141.9490 O   0  0  0  0  0  0  0  0  0  0  0  0
  188.4210  175.3900  141.8230 C   0  0  0  0  0  0  0  0  0  0  0  0
  188.8670  173.1890  141.2100 N   0  0  0  0  0  0  0  0  0  0  0  0
  188.3640  173.9940  140.1780 N   0  0  0  0  0  0  0  0  0  0  0  0
  188.1560  175.3080  140.5730 N   0  0  0  0  0  0  0  0  0  0  0  0
  188.8550  174.0800  142.3810 C   0  0  0  0  0  2  0  0  0  0  0  0
  190.4350  176.8610  147.0880 O   0  0  0  0  0  0  0  0  0  0  0  0
  190.6150  175.5030  146.7770 C   0  0  0  0  0  2  0  0  0  0  0  0
  192.0920  175.1590  146.8610 C   0  0  0  0  0  2  0  0  0  0  0  0
  192.9430  176.4190  146.7610 C   0  0  0  0  0  2  0  0  0  0  0  0
  194.3380  176.1170  146.8400 O   0  0  0  0  0  0  0  0  0  0  0  0
  195.9660  175.9700  143.5040 C   0  0  0  0  0  3  0  0  0  0  0  0
  196.6880  174.7690  143.6140 C   0  0  0  0  0  0  0  0  0  0  0  0
  195.1150  175.6960  145.7560 C   0  0  0  0  0  0  0  0  0  0  0  0
  197.3770  172.7590  144.9800 C   0  0  0  0  0  1  0  0  0  0  0  0
  195.8430  174.5090  145.8730 C   0  0  0  0  0  3  0  0  0  0  0  0
  196.6250  174.0410  144.8140 C   0  0  0  0  0  0  0  0  0  0  0  0
  195.1840  176.4250  144.5660 C   0  0  0  0  0  3  0  0  0  0  0  0
  197.4310  174.2560  142.5500 O   0  0  0  0  0  0  0  0  0  0  0  0
  196.8220  173.7260  141.3800 C   0  0  0  0  0  1  0  0  0  0  0  0
  1 16  1  6  0  0  0
  1  2  1  0  0  0  0
  1  4  1  0  0  0  0
  2  6  2  0  0  0  0
  4 14  1  6  0  0  0
  4  5  1  0  0  0  0
  5  3  1  0  0  0  0
  5 23  1  1  0  0  0
  6  7  1  0  0  0  0
  6  3  1  0  0  0  0
  8 10  1  0  0  0  0
  8  2  1  0  0  0  0
  9  8  1  0  0  0  0
 11  8  1  0  0  0  0
 11 12  1  0  0  0  0
 13 11  1  0  0  0  0
 15 14  1  0  0  0  0
 17 16  2  0  0  0  0
 18 22  1  0  0  0  0
 18 16  1  0  0  0  0
 19 22  1  0  0  0  0
 20 21  1  0  0  0  0
 20 19  2  0  0  0  0
 21 18  2  0  0  0  0
 24 25  1  0  0  0  0
 24 23  1  0  0  0  0
 26 27  1  0  0  0  0
 26 25  1  0  0  0  0
 28 29  2  0  0  0  0
 28 34  1  0  0  0  0
 29 33  1  0  0  0  0
 30 32  1  0  0  0  0
 30 27  1  0  0  0  0
 33 31  1  0  0  0  0
 33 32  2  0  0  0  0
 34 30  2  0  0  0  0
 35 29  1  0  0  0  0
 36 35  1  0  0  0  0
M  END
>  <MODEL>
2

>  <REMARK>
 VINA RESULT:      -6.6      3.539      8.126
  Name = 
  12 active torsions:
  status: ('A' for Active; 'I' for Inactive)
    1  A    between atoms: C_2  and  O_22
    2  A    between atoms: C_3  and  C_18
    3  A    between atoms: C_4  and  C_6
    4  A    between atoms: C_5  and  C_18
    5  A    between atoms: C_6  and  C_8
    6  A    between atoms: O_7  and  C_9
    7  A    between atoms: O_7  and  C_14
    8  A    between atoms: C_9  and  C_16
    9  A    between atoms: O_10  and  C_19
   10  A    between atoms: C_16  and  C_30
   11  A    between atoms: C_23  and  O_36
   12  A    between atoms: C_30  and  O_36
                            x       y       z     vdW  Elec       q    Type
                         _______ _______ _______ _____ _____    ______ ____

>  <TORSDO>
F 12

$$$$
=
 OpenBabel11042414453D

 36 38  0  0  1  0  0  0  0  0999 V2000
  191.4080  175.8460  143.5450 C   0  0  2  0  0  3  0  0  0  0  0  0
  191.0280  176.2150  144.9730 C   0  0  0  0  0  0  0  0  0  0  0  0
  190.0540  178.2430  143.9400 C   0  0  0  0  0  2  0  0  0  0  0  0
  190.3300  176.1890  142.4890 C   0  0  2  0  0  3  0  0  0  0  0  0
  189.4010  177.3650  142.8830 C   0  0  2  0  0  3  0  0  0  0  0  0
  190.3970  177.4020  145.1410 C   0  0  0  0  0  0  0  0  0  0  0  0
  190.0150  177.8450  146.3580 F   0  0  0  0  0  0  0  0  0  0  0  0
  191.4190  175.3330  146.1440 C   0  0  0  0  0  0  0  0  0  0  0  0
  190.6220  174.2140  146.2280 F   0  0  0  0  0  0  0  0  0  0  0  0
  192.7150  174.9060  145.9750 F   0  0  0  0  0  0  0  0  0  0  0  0
  191.3360  176.1130  147.4400 C   0  0  0  0  0  3  0  0  0  0  0  0
  192.4820  176.8450  147.6560 F   0  0  0  0  0  0  0  0  0  0  0  0
  191.1350  175.2590  148.5050 F   0  0  0  0  0  0  0  0  0  0  0  0
  189.6150  175.0770  141.9960 O   0  0  0  0  0  0  0  0  0  0  0  0
  188.5520  174.7990  142.8610 C   0  0  0  0  0  1  0  0  0  0  0  0
  192.1930  174.5880  143.3150 C   0  0  0  0  0  0  0  0  0  0  0  0
  191.6430  173.4590  143.4400 O   0  0  0  0  0  0  0  0  0  0  0  0
  193.6090  174.6510  142.9650 C   0  0  0  0  0  0  0  0  0  0  0  0
  195.6750  175.4320  142.2310 N   0  0  0  0  0  0  0  0  0  0  0  0
  195.6060  174.0440  142.4180 N   0  0  0  0  0  0  0  0  0  0  0  0
  194.3450  173.6160  142.8100 N   0  0  0  0  0  2  0  0  0  0  0  0
  194.3510  175.9060  142.6670 C   0  0  0  0  0  3  0  0  0  0  0  0
  189.0750  178.1210  141.7550 O   0  0  0  0  0  0  0  0  0  0  0  0
  187.7690  177.7340  141.4110 C   0  0  0  0  0  2  0  0  0  0  0  0
  186.7740  178.6590  142.0890 C   0  0  0  0  0  2  0  0  0  0  0  0
  185.3450  178.2400  141.7660 C   0  0  0  0  0  2  0  0  0  0  0  0
  184.7630  177.4940  142.8360 O   0  0  0  0  0  0  0  0  0  0  0  0
  184.7600  178.8260  146.3030 C   0  0  0  0  0  3  0  0  0  0  0  0
  185.7520  178.0250  146.8960 C   0  0  0  0  0  0  0  0  0  0  0  0
  185.0670  177.6870  144.1870 C   0  0  0  0  0  0  0  0  0  0  0  0
  187.4500  176.1650  146.7070 C   0  0  0  0  0  1  0  0  0  0  0  0
  186.0430  176.8800  144.7780 C   0  0  0  0  0  3  0  0  0  0  0  0
  186.3900  177.0430  146.1210 C   0  0  0  0  0  0  0  0  0  0  0  0
  184.4260  178.6580  144.9590 C   0  0  0  0  0  3  0  0  0  0  0  0
  186.1520  178.2080  148.2210 O   0  0  0  0  0  0  0  0  0  0  0  0
  187.0030  179.2740  148.6200 C   0  0  0  0  0  1  0  0  0  0  0  0
  1 16  1  1  0  0  0
  1  2  1  0  0  0  0
  2  6  2  0  0  0  0
  2  8  1  0  0  0  0
  3  6  1  0  0  0  0
  4 14  1  1  0  0  0
  4  5  1  0  0  0  0
  4  1  1  0  0  0  0
  5 23  1  6  0  0  0
  5  3  1  0  0  0  0
  6  7  1  0  0  0  0
  8  9  1  0  0  0  0
  8 11  1  0  0  0  0
 10  8  1  0  0  0  0
 11 12  1  0  0  0  0
 11 13  1  0  0  0  0
 14 15  1  0  0  0  0
 16 17  2  0  0  0  0
 18 16  1  0  0  0  0
 19 20  2  0  0  0  0
 19 22  1  0  0  0  0
 20 21  1  0  0  0  0
 21 18  1  0  0  0  0
 22 18  2  0  0  0  0
 24 23  1  0  0  0  0
 24 25  1  0  0  0  0
 26 25  1  0  0  0  0
 26 27  1  0  0  0  0
 27 30  1  0  0  0  0
 28 29  1  0  0  0  0
 29 35  1  0  0  0  0
 30 32  2  0  0  0  0
 30 34  1  0  0  0  0
 32 33  1  0  0  0  0
 33 31  1  0  0  0  0
 33 29  2  0  0  0  0
 34 28  2  0  0  0  0
 35 36  1  0  0  0  0
M  END
>  <MODEL>
3

>  <REMARK>
 VINA RESULT:      -6.4      1.593      1.953
  Name = 
  12 active torsions:
  status: ('A' for Active; 'I' for Inactive)
    1  A    between atoms: C_2  and  O_22
    2  A    between atoms: C_3  and  C_18
    3  A    between atoms: C_4  and  C_6
    4  A    between atoms: C_5  and  C_18
    5  A    between atoms: C_6  and  C_8
    6  A    between atoms: O_7  and  C_9
    7  A    between atoms: O_7  and  C_14
    8  A    between atoms: C_9  and  C_16
    9  A    between atoms: O_10  and  C_19
   10  A    between atoms: C_16  and  C_30
   11  A    between atoms: C_23  and  O_36
   12  A    between atoms: C_30  and  O_36
                            x       y       z     vdW  Elec       q    Type
                         _______ _______ _______ _____ _____    ______ ____

>  <TORSDO>
F 12

$$$$
=
 OpenBabel11042414453D

 36 38  0  0  1  0  0  0  0  0999 V2000
  192.0800  174.7920  144.0510 C   0  0  2  0  0  3  0  0  0  0  0  0
  191.6700  175.5140  145.3270 C   0  0  0  0  0  0  0  0  0  0  0  0
  189.7470  176.3030  143.9830 C   0  0  0  0  0  2  0  0  0  0  0  0
  190.9030  174.1710  143.2620 C   0  0  2  0  0  3  0  0  0  0  0  0
  189.5440  174.8810  143.4790 C   0  0  2  0  0  3  0  0  0  0  0  0
  190.5470  176.2680  145.2580 C   0  0  0  0  0  0  0  0  0  0  0  0
  190.0820  176.9620  146.3190 F   0  0  0  0  0  0  0  0  0  0  0  0
  192.5300  175.4540  146.5760 C   0  0  0  0  0  0  0  0  0  0  0  0
  191.7730  175.5510  147.7210 F   0  0  0  0  0  0  0  0  0  0  0  0
  193.1870  174.2470  146.6150 F   0  0  0  0  0  0  0  0  0  0  0  0
  193.5630  176.5620  146.5550 C   0  0  0  0  0  3  0  0  0  0  0  0
  193.5330  177.2500  145.3640 F   0  0  0  0  0  0  0  0  0  0  0  0
  194.8280  176.0450  146.7490 F   0  0  0  0  0  0  0  0  0  0  0  0
  190.8020  172.7680  143.3630 O   0  0  0  0  0  0  0  0  0  0  0  0
  189.9150  172.4480  144.3950 C   0  0  0  0  0  1  0  0  0  0  0  0
  193.3690  174.0220  144.0460 C   0  0  0  0  0  0  0  0  0  0  0  0
  193.3930  172.8130  144.4110 O   0  0  0  0  0  0  0  0  0  0  0  0
  194.6150  174.6640  143.6410 C   0  0  0  0  0  0  0  0  0  0  0  0
  196.8440  175.3340  143.5850 N   0  0  0  0  0  0  0  0  0  0  0  0
  195.9970  176.0430  142.7210 N   0  0  0  0  0  0  0  0  0  0  0  0
  194.6710  175.6440  142.8190 N   0  0  0  0  0  0  0  0  0  0  0  0
  195.9580  174.3240  144.1860 C   0  0  0  0  0  2  0  0  0  0  0  0
  188.8060  174.8850  142.2940 O   0  0  0  0  0  0  0  0  0  0  0  0
  188.6490  176.2390  141.9550 C   0  0  0  0  0  2  0  0  0  0  0  0
  187.4910  176.3850  140.9840 C   0  0  0  0  0  2  0  0  0  0  0  0
  186.6880  177.6430  141.2920 C   0  0  0  0  0  2  0  0  0  0  0  0
  185.5320  177.3470  142.0780 O   0  0  0  0  0  0  0  0  0  0  0  0
  184.4140  179.0110  145.2050 C   0  0  0  0  0  3  0  0  0  0  0  0
  185.1770  178.3180  146.1610 C   0  0  0  0  0  0  0  0  0  0  0  0
  185.3900  177.6860  143.4270 C   0  0  0  0  0  0  0  0  0  0  0  0
  186.8700  176.5270  146.7150 C   0  0  0  0  0  1  0  0  0  0  0  0
  186.1380  176.9850  144.3770 C   0  0  0  0  0  3  0  0  0  0  0  0
  186.0400  177.2940  145.7360 C   0  0  0  0  0  0  0  0  0  0  0  0
  184.5260  178.6970  143.8500 C   0  0  0  0  0  3  0  0  0  0  0  0
  185.1350  178.6480  147.5170 O   0  0  0  0  0  0  0  0  0  0  0  0
  186.0430  179.5680  148.1070 C   0  0  0  0  0  1  0  0  0  0  0  0
  1 16  1  1  0  0  0
  1  2  1  0  0  0  0
  2  8  1  0  0  0  0
  3  6  1  0  0  0  0
  4 14  1  1  0  0  0
  4  5  1  0  0  0  0
  4  1  1  0  0  0  0
  5 23  1  6  0  0  0
  5  3  1  0  0  0  0
  6  2  2  0  0  0  0
  6  7  1  0  0  0  0
  8 10  1  0  0  0  0
  8  9  1  0  0  0  0
 11  8  1  0  0  0  0
 11 13  1  0  0  0  0
 12 11  1  0  0  0  0
 14 15  1  0  0  0  0
 16 17  2  0  0  0  0
 18 16  1  0  0  0  0
 18 22  1  0  0  0  0
 19 22  1  0  0  0  0
 20 21  1  0  0  0  0
 20 19  2  0  0  0  0
 21 18  2  0  0  0  0
 24 23  1  0  0  0  0
 25 26  1  0  0  0  0
 25 24  1  0  0  0  0
 26 27  1  0  0  0  0
 27 30  1  0  0  0  0
 28 29  1  0  0  0  0
 29 35  1  0  0  0  0
 30 34  1  0  0  0  0
 30 32  2  0  0  0  0
 32 33  1  0  0  0  0
 33 29  2  0  0  0  0
 33 31  1  0  0  0  0
 34 28  2  0  0  0  0
 35 36  1  0  0  0  0
M  END
>  <MODEL>
4

>  <REMARK>
 VINA RESULT:      -6.4      1.535      2.313
  Name = 
  12 active torsions:
  status: ('A' for Active; 'I' for Inactive)
    1  A    between atoms: C_2  and  O_22
    2  A    between atoms: C_3  and  C_18
    3  A    between atoms: C_4  and  C_6
    4  A    between atoms: C_5  and  C_18
    5  A    between atoms: C_6  and  C_8
    6  A    between atoms: O_7  and  C_9
    7  A    between atoms: O_7  and  C_14
    8  A    between atoms: C_9  and  C_16
    9  A    between atoms: O_10  and  C_19
   10  A    between atoms: C_16  and  C_30
   11  A    between atoms: C_23  and  O_36
   12  A    between atoms: C_30  and  O_36
                            x       y       z     vdW  Elec       q    Type
                         _______ _______ _______ _____ _____    ______ ____

>  <TORSDO>
F 12

$$$$
=
 OpenBabel11042414453D

 36 38  0  0  1  0  0  0  0  0999 V2000
  188.8130  175.6250  143.4810 C   0  0  2  0  0  3  0  0  0  0  0  0
  189.9190  175.7880  144.5160 C   0  0  0  0  0  0  0  0  0  0  0  0
  189.7750  173.3250  144.7130 C   0  0  0  0  0  2  0  0  0  0  0  0
  188.9770  174.3910  142.5620 C   0  0  2  0  0  3  0  0  0  0  0  0
  189.7770  173.2250  143.1940 C   0  0  2  0  0  3  0  0  0  0  0  0
  190.3470  174.6560  145.1230 C   0  0  0  0  0  0  0  0  0  0  0  0
  191.3160  174.6690  146.0630 F   0  0  0  0  0  0  0  0  0  0  0  0
  190.4410  177.1600  144.8990 C   0  0  0  0  0  0  0  0  0  0  0  0
  189.4790  178.1320  144.7480 F   0  0  0  0  0  0  0  0  0  0  0  0
  190.8140  177.1490  146.2220 F   0  0  0  0  0  0  0  0  0  0  0  0
  191.6540  177.5130  144.0620 C   0  0  0  0  0  3  0  0  0  0  0  0
  191.7320  176.7210  142.9390 F   0  0  0  0  0  0  0  0  0  0  0  0
  192.8100  177.3670  144.8020 F   0  0  0  0  0  0  0  0  0  0  0  0
  189.4000  174.6870  141.2490 O   0  0  0  0  0  0  0  0  0  0  0  0
  188.4460  174.2090  140.3450 C   0  0  0  0  0  1  0  0  0  0  0  0
  188.2360  176.8580  142.8490 C   0  0  0  0  0  0  0  0  0  0  0  0
  188.9370  177.5680  142.0750 O   0  0  0  0  0  0  0  0  0  0  0  0
  186.8650  177.2660  143.1370 C   0  0  0  0  0  0  0  0  0  0  0  0
  184.9190  177.8420  144.2790 N   0  0  0  0  0  0  0  0  0  0  0  0
  184.7500  177.6270  142.9030 N   0  0  0  0  0  0  0  0  0  0  0  0
  185.9230  177.2400  142.2700 N   0  0  0  0  0  0  0  0  0  0  0  0
  186.3690  177.6800  144.4770 C   0  0  0  0  0  2  0  0  0  0  0  0
  189.2480  171.9990  142.7850 O   0  0  0  0  0  0  0  0  0  0  0  0
  190.3590  171.1820  142.5210 C   0  0  0  0  0  2  0  0  0  0  0  0
  190.7370  171.3040  141.0550 C   0  0  0  0  0  2  0  0  0  0  0  0
  192.1850  171.7570  140.9100 C   0  0  0  0  0  2  0  0  0  0  0  0
  192.2750  173.1700  140.7130 O   0  0  0  0  0  0  0  0  0  0  0  0
  194.6780  175.8770  141.5450 C   0  0  0  0  0  3  0  0  0  0  0  0
  194.8790  175.6410  142.9160 C   0  0  0  0  0  0  0  0  0  0  0  0
  193.1410  174.0090  141.4220 C   0  0  0  0  0  0  0  0  0  0  0  0
  194.3700  174.2960  144.9920 C   0  0  0  0  0  1  0  0  0  0  0  0
  193.3280  173.7820  142.7880 C   0  0  0  0  0  3  0  0  0  0  0  0
  194.1910  174.5850  143.5360 C   0  0  0  0  0  0  0  0  0  0  0  0
  193.8180  175.0640  140.8070 C   0  0  0  0  0  3  0  0  0  0  0  0
  195.7780  176.3980  143.6690 O   0  0  0  0  0  0  0  0  0  0  0  0
  197.0590  176.7730  143.1790 C   0  0  0  0  0  1  0  0  0  0  0  0
  1 16  1  6  0  0  0
  1  2  1  0  0  0  0
  2  8  1  0  0  0  0
  2  6  2  0  0  0  0
  3  6  1  0  0  0  0
  4 14  1  6  0  0  0
  4  5  1  0  0  0  0
  4  1  1  0  0  0  0
  5 23  1  1  0  0  0
  5  3  1  0  0  0  0
  6  7  1  0  0  0  0
  8 10  1  0  0  0  0
  9  8  1  0  0  0  0
 11 13  1  0  0  0  0
 11  8  1  0  0  0  0
 12 11  1  0  0  0  0
 15 14  1  0  0  0  0
 16 18  1  0  0  0  0
 17 16  2  0  0  0  0
 18 22  1  0  0  0  0
 19 22  1  0  0  0  0
 20 19  2  0  0  0  0
 21 20  1  0  0  0  0
 21 18  2  0  0  0  0
 24 23  1  0  0  0  0
 25 24  1  0  0  0  0
 26 25  1  0  0  0  0
 27 26  1  0  0  0  0
 27 30  1  0  0  0  0
 28 29  1  0  0  0  0
 29 33  2  0  0  0  0
 29 35  1  0  0  0  0
 30 32  2  0  0  0  0
 32 33  1  0  0  0  0
 33 31  1  0  0  0  0
 34 30  1  0  0  0  0
 34 28  2  0  0  0  0
 36 35  1  0  0  0  0
M  END
>  <MODEL>
5

>  <REMARK>
 VINA RESULT:      -6.3      3.782      7.210
  Name = 
  12 active torsions:
  status: ('A' for Active; 'I' for Inactive)
    1  A    between atoms: C_2  and  O_22
    2  A    between atoms: C_3  and  C_18
    3  A    between atoms: C_4  and  C_6
    4  A    between atoms: C_5  and  C_18
    5  A    between atoms: C_6  and  C_8
    6  A    between atoms: O_7  and  C_9
    7  A    between atoms: O_7  and  C_14
    8  A    between atoms: C_9  and  C_16
    9  A    between atoms: O_10  and  C_19
   10  A    between atoms: C_16  and  C_30
   11  A    between atoms: C_23  and  O_36
   12  A    between atoms: C_30  and  O_36
                            x       y       z     vdW  Elec       q    Type
                         _______ _______ _______ _____ _____    ______ ____

>  <TORSDO>
F 12

$$$$
=
 OpenBabel11042414453D

 36 38  0  0  1  0  0  0  0  0999 V2000
  194.5000  174.5650  144.7440 C   0  0  2  0  0  3  0  0  0  0  0  0
  194.4990  175.0650  143.3050 C   0  0  0  0  0  0  0  0  0  0  0  0
  192.1570  175.7130  143.7800 C   0  0  0  0  0  2  0  0  0  0  0  0
  193.7430  175.4790  145.7370 C   0  0  2  0  0  3  0  0  0  0  0  0
  192.6170  176.3260  145.0950 C   0  0  2  0  0  3  0  0  0  0  0  0
  193.3360  175.5910  142.8510 C   0  0  0  0  0  0  0  0  0  0  0  0
  193.2050  176.0620  141.5930 F   0  0  0  0  0  0  0  0  0  0  0  0
  195.7140  174.8960  142.4130 C   0  0  0  0  0  0  0  0  0  0  0  0
  196.5410  173.8920  142.8630 F   0  0  0  0  0  0  0  0  0  0  0  0
  195.3020  174.5560  141.1470 F   0  0  0  0  0  0  0  0  0  0  0  0
  196.4910  176.1950  142.3320 C   0  0  0  0  0  3  0  0  0  0  0  0
  196.4620  176.8680  143.5320 F   0  0  0  0  0  0  0  0  0  0  0  0
  195.9710  177.0060  141.3440 F   0  0  0  0  0  0  0  0  0  0  0  0
  194.5740  176.2390  146.5870 O   0  0  0  0  0  0  0  0  0  0  0  0
  194.6500  177.5470  146.0980 C   0  0  0  0  0  1  0  0  0  0  0  0
  195.7320  173.8860  145.2650 C   0  0  0  0  0  0  0  0  0  0  0  0
  196.7890  174.5460  145.4690 O   0  0  0  0  0  0  0  0  0  0  0  0
  195.7340  172.4490  145.5240 C   0  0  0  0  0  0  0  0  0  0  0  0
  195.0200  170.2820  145.9850 N   0  0  0  0  0  0  0  0  0  0  0  0
  196.4060  170.4760  146.0810 N   0  0  0  0  0  0  0  0  0  0  0  0
  196.7840  171.7900  145.8450 N   0  0  0  0  0  2  0  0  0  0  0  0
  194.5200  171.5900  145.5320 C   0  0  0  0  0  3  0  0  0  0  0  0
  191.5420  176.4490  145.9780 O   0  0  0  0  0  0  0  0  0  0  0  0
  191.3690  175.1710  146.5360 C   0  0  0  0  0  2  0  0  0  0  0  0
  190.3180  175.2370  147.6300 C   0  0  0  0  0  2  0  0  0  0  0  0
  188.9390  174.9090  147.0710 C   0  0  0  0  0  2  0  0  0  0  0  0
  188.1310  176.0810  146.9460 O   0  0  0  0  0  0  0  0  0  0  0  0
  187.9530  176.8580  143.3190 C   0  0  0  0  0  3  0  0  0  0  0  0
  187.0180  177.9090  143.3180 C   0  0  0  0  0  0  0  0  0  0  0  0
  187.7750  176.6660  145.7270 C   0  0  0  0  0  0  0  0  0  0  0  0
  185.4560  179.4350  144.5880 C   0  0  0  0  0  1  0  0  0  0  0  0
  186.8350  177.7000  145.7280 C   0  0  0  0  0  3  0  0  0  0  0  0
  186.4550  178.3230  144.5370 C   0  0  0  0  0  0  0  0  0  0  0  0
  188.3280  176.2470  144.5150 C   0  0  0  0  0  3  0  0  0  0  0  0
  186.6660  178.5810  142.1470 O   0  0  0  0  0  0  0  0  0  0  0  0
  186.4890  177.9120  140.9060 C   0  0  0  0  0  1  0  0  0  0  0  0
  1 16  1  1  0  0  0
  1  4  1  0  0  0  0
  2  1  1  0  0  0  0
  3  5  1  0  0  0  0
  4 14  1  6  0  0  0
  5  4  1  0  0  0  0
  5 23  1  1  0  0  0
  6  2  2  0  0  0  0
  6  3  1  0  0  0  0
  7  6  1  0  0  0  0
  8  9  1  0  0  0  0
  8  2  1  0  0  0  0
 10  8  1  0  0  0  0
 11  8  1  0  0  0  0
 11 12  1  0  0  0  0
 13 11  1  0  0  0  0
 15 14  1  0  0  0  0
 16 17  2  0  0  0  0
 16 18  1  0  0  0  0
 18 22  2  0  0  0  0
 18 21  1  0  0  0  0
 19 20  2  0  0  0  0
 21 20  1  0  0  0  0
 22 19  1  0  0  0  0
 23 24  1  0  0  0  0
 24 25  1  0  0  0  0
 26 25  1  0  0  0  0
 27 26  1  0  0  0  0
 28 34  1  0  0  0  0
 29 28  2  0  0  0  0
 29 33  1  0  0  0  0
 30 32  1  0  0  0  0
 30 27  1  0  0  0  0
 33 31  1  0  0  0  0
 33 32  2  0  0  0  0
 34 30  2  0  0  0  0
 35 29  1  0  0  0  0
 36 35  1  0  0  0  0
M  END
>  <MODEL>
6

>  <REMARK>
 VINA RESULT:      -6.3      3.480      5.835
  Name = 
  12 active torsions:
  status: ('A' for Active; 'I' for Inactive)
    1  A    between atoms: C_2  and  O_22
    2  A    between atoms: C_3  and  C_18
    3  A    between atoms: C_4  and  C_6
    4  A    between atoms: C_5  and  C_18
    5  A    between atoms: C_6  and  C_8
    6  A    between atoms: O_7  and  C_9
    7  A    between atoms: O_7  and  C_14
    8  A    between atoms: C_9  and  C_16
    9  A    between atoms: O_10  and  C_19
   10  A    between atoms: C_16  and  C_30
   11  A    between atoms: C_23  and  O_36
   12  A    between atoms: C_30  and  O_36
                            x       y       z     vdW  Elec       q    Type
                         _______ _______ _______ _____ _____    ______ ____

>  <TORSDO>
F 12

$$$$
=
 OpenBabel11042414453D

 36 38  0  0  1  0  0  0  0  0999 V2000
  188.9010  175.8900  144.1200 C   0  0  2  0  0  3  0  0  0  0  0  0
  189.2860  174.9180  145.2280 C   0  0  0  0  0  0  0  0  0  0  0  0
  189.7520  173.3520  143.3680 C   0  0  0  0  0  2  0  0  0  0  0  0
  189.8160  175.8330  142.8740 C   0  0  2  0  0  3  0  0  0  0  0  0
  190.5040  174.4630  142.6500 C   0  0  2  0  0  3  0  0  0  0  0  0
  189.6660  173.6790  144.8350 C   0  0  0  0  0  0  0  0  0  0  0  0
  190.0240  172.7250  145.7210 F   0  0  0  0  0  0  0  0  0  0  0  0
  189.1600  175.3020  146.6900 C   0  0  0  0  0  0  0  0  0  0  0  0
  188.0990  176.1520  146.9050 F   0  0  0  0  0  0  0  0  0  0  0  0
  188.9410  174.1690  147.4380 F   0  0  0  0  0  0  0  0  0  0  0  0
  190.4390  175.9560  147.1730 C   0  0  0  0  0  3  0  0  0  0  0  0
  191.4050  175.9470  146.1920 F   0  0  0  0  0  0  0  0  0  0  0  0
  190.9200  175.3060  148.2910 F   0  0  0  0  0  0  0  0  0  0  0  0
  190.7130  176.9150  142.7520 O   0  0  0  0  0  0  0  0  0  0  0  0
  191.9770  176.5100  143.1890 C   0  0  0  0  0  1  0  0  0  0  0  0
  188.3800  177.2440  144.5050 C   0  0  0  0  0  0  0  0  0  0  0  0
  189.1510  178.1070  145.0100 O   0  0  0  0  0  0  0  0  0  0  0  0
  186.9700  177.5760  144.3220 C   0  0  0  0  0  0  0  0  0  0  0  0
  184.7820  178.2520  144.7420 N   0  0  0  0  0  0  0  0  0  0  0  0
  184.9780  177.6380  143.4960 N   0  0  0  0  0  0  0  0  0  0  0  0
  186.2840  177.2090  143.3060 N   0  0  0  0  0  0  0  0  0  0  0  0
  186.1360  178.3020  145.3180 C   0  0  0  0  0  2  0  0  0  0  0  0
  190.5960  174.1860  141.2850 O   0  0  0  0  0  0  0  0  0  0  0  0
  190.5700  172.7860  141.1850 C   0  0  0  0  0  2  0  0  0  0  0  0
  191.6700  172.3270  140.2440 C   0  0  0  0  0  2  0  0  0  0  0  0
  193.0240  172.8500  140.7070 C   0  0  0  0  0  2  0  0  0  0  0  0
  193.3660  172.3490  142.0010 O   0  0  0  0  0  0  0  0  0  0  0  0
  193.7960  173.7950  145.3950 C   0  0  0  0  0  3  0  0  0  0  0  0
  194.7410  174.8020  145.1370 C   0  0  0  0  0  0  0  0  0  0  0  0
  193.8100  173.1450  143.0620 C   0  0  0  0  0  0  0  0  0  0  0  0
  196.2340  176.0210  143.5030 C   0  0  0  0  0  1  0  0  0  0  0  0
  194.7600  174.1360  142.8050 C   0  0  0  0  0  3  0  0  0  0  0  0
  195.2260  174.9650  143.8280 C   0  0  0  0  0  0  0  0  0  0  0  0
  193.3330  172.9780  144.3640 C   0  0  0  0  0  3  0  0  0  0  0  0
  195.1790  175.6760  146.1330 O   0  0  0  0  0  0  0  0  0  0  0  0
  194.4490  176.8390  146.5030 C   0  0  0  0  0  1  0  0  0  0  0  0
  1 16  1  1  0  0  0
  1  2  1  0  0  0  0
  2  8  1  0  0  0  0
  3  6  1  0  0  0  0
  4 14  1  1  0  0  0
  4  1  1  0  0  0  0
  5 23  1  6  0  0  0
  5  4  1  0  0  0  0
  5  3  1  0  0  0  0
  6  2  2  0  0  0  0
  6  7  1  0  0  0  0
  8  9  1  0  0  0  0
  8 11  1  0  0  0  0
  8 10  1  0  0  0  0
 11 13  1  0  0  0  0
 12 11  1  0  0  0  0
 14 15  1  0  0  0  0
 16 17  2  0  0  0  0
 18 16  1  0  0  0  0
 18 22  1  0  0  0  0
 19 22  1  0  0  0  0
 20 19  2  0  0  0  0
 21 20  1  0  0  0  0
 21 18  2  0  0  0  0
 24 23  1  0  0  0  0
 25 26  1  0  0  0  0
 25 24  1  0  0  0  0
 26 27  1  0  0  0  0
 27 30  1  0  0  0  0
 29 28  1  0  0  0  0
 29 35  1  0  0  0  0
 30 34  1  0  0  0  0
 31 33  1  0  0  0  0
 32 30  2  0  0  0  0
 32 33  1  0  0  0  0
 33 29  2  0  0  0  0
 34 28  2  0  0  0  0
 35 36  1  0  0  0  0
M  END
>  <MODEL>
7

>  <REMARK>
 VINA RESULT:      -6.2      3.547      7.082
  Name = 
  12 active torsions:
  status: ('A' for Active; 'I' for Inactive)
    1  A    between atoms: C_2  and  O_22
    2  A    between atoms: C_3  and  C_18
    3  A    between atoms: C_4  and  C_6
    4  A    between atoms: C_5  and  C_18
    5  A    between atoms: C_6  and  C_8
    6  A    between atoms: O_7  and  C_9
    7  A    between atoms: O_7  and  C_14
    8  A    between atoms: C_9  and  C_16
    9  A    between atoms: O_10  and  C_19
   10  A    between atoms: C_16  and  C_30
   11  A    between atoms: C_23  and  O_36
   12  A    between atoms: C_30  and  O_36
                            x       y       z     vdW  Elec       q    Type
                         _______ _______ _______ _____ _____    ______ ____

>  <TORSDO>
F 12

$$$$
=
 OpenBabel11042414453D

 36 38  0  0  1  0  0  0  0  0999 V2000
  188.2360  177.3080  143.9920 C   0  0  2  0  0  3  0  0  0  0  0  0
  186.9940  178.0660  144.4430 C   0  0  0  0  0  0  0  0  0  0  0  0
  187.7560  177.4850  146.7250 C   0  0  0  0  0  2  0  0  0  0  0  0
  189.4830  177.5430  144.8770 C   0  0  2  0  0  3  0  0  0  0  0  0
  189.1630  177.9250  146.3430 C   0  0  2  0  0  3  0  0  0  0  0  0
  186.7680  178.1100  145.7770 C   0  0  0  0  0  0  0  0  0  0  0  0
  185.6970  178.7450  146.3020 F   0  0  0  0  0  0  0  0  0  0  0  0
  186.0260  178.6580  143.4360 C   0  0  0  0  0  0  0  0  0  0  0  0
  185.2360  179.6330  144.0010 F   0  0  0  0  0  0  0  0  0  0  0  0
  186.7360  179.2410  142.4140 F   0  0  0  0  0  0  0  0  0  0  0  0
  185.1470  177.5700  142.8500 C   0  0  0  0  0  3  0  0  0  0  0  0
  185.3650  176.3630  143.4750 F   0  0  0  0  0  0  0  0  0  0  0  0
  185.3880  177.4330  141.4980 F   0  0  0  0  0  0  0  0  0  0  0  0
  190.4630  178.3790  144.3030 O   0  0  0  0  0  0  0  0  0  0  0  0
  191.5790  177.6070  143.9650 C   0  0  0  0  0  1  0  0  0  0  0  0
  188.4810  177.1460  142.5200 C   0  0  0  0  0  0  0  0  0  0  0  0
  188.7700  178.1470  141.8060 O   0  0  0  0  0  0  0  0  0  0  0  0
  188.3690  175.8350  141.8890 C   0  0  0  0  0  0  0  0  0  0  0  0
  188.5020  173.5420  141.5090 N   0  0  0  0  0  0  0  0  0  0  0  0
  188.1740  174.3060  140.3800 N   0  0  0  0  0  0  0  0  0  0  0  0
  188.1510  175.6690  140.6390 N   0  0  0  0  0  0  0  0  0  0  0  0
  188.5730  174.5390  142.5900 C   0  0  0  0  0  2  0  0  0  0  0  0
  190.1020  177.3560  147.2070 O   0  0  0  0  0  0  0  0  0  0  0  0
  190.0300  175.9720  146.9780 C   0  0  0  0  0  2  0  0  0  0  0  0
  191.2350  175.2940  147.6070 C   0  0  0  0  0  2  0  0  0  0  0  0
  192.5200  175.7390  146.9220 C   0  0  0  0  0  2  0  0  0  0  0  0
  192.7560  175.0030  145.7200 O   0  0  0  0  0  0  0  0  0  0  0  0
  194.5070  171.7550  145.2940 C   0  0  0  0  0  3  0  0  0  0  0  0
  195.8490  172.1760  145.2870 C   0  0  0  0  0  0  0  0  0  0  0  0
  193.7620  174.0440  145.5690 C   0  0  0  0  0  0  0  0  0  0  0  0
  197.5460  174.0430  145.4080 C   0  0  0  0  0  1  0  0  0  0  0  0
  195.0940  174.4670  145.5480 C   0  0  0  0  0  3  0  0  0  0  0  0
  196.1360  173.5460  145.4110 C   0  0  0  0  0  0  0  0  0  0  0  0
  193.4760  172.6840  145.4370 C   0  0  0  0  0  3  0  0  0  0  0  0
  196.9050  171.2680  145.2070 O   0  0  0  0  0  0  0  0  0  0  0  0
  197.1990  170.5410  144.0210 C   0  0  0  0  0  1  0  0  0  0  0  0
  1 16  1  6  0  0  0
  1  2  1  0  0  0  0
  1  4  1  0  0  0  0
  2  6  2  0  0  0  0
  4 14  1  6  0  0  0
  4  5  1  0  0  0  0
  5  3  1  0  0  0  0
  5 23  1  1  0  0  0
  6  7  1  0  0  0  0
  6  3  1  0  0  0  0
  8  9  1  0  0  0  0
  8  2  1  0  0  0  0
 10  8  1  0  0  0  0
 11  8  1  0  0  0  0
 11 12  1  0  0  0  0
 13 11  1  0  0  0  0
 15 14  1  0  0  0  0
 17 16  2  0  0  0  0
 18 16  1  0  0  0  0
 18 22  1  0  0  0  0
 19 22  1  0  0  0  0
 20 21  1  0  0  0  0
 20 19  2  0  0  0  0
 21 18  2  0  0  0  0
 24 23  1  0  0  0  0
 24 25  1  0  0  0  0
 26 25  1  0  0  0  0
 27 26  1  0  0  0  0
 28 34  1  0  0  0  0
 29 28  2  0  0  0  0
 29 33  1  0  0  0  0
 30 27  1  0  0  0  0
 31 33  1  0  0  0  0
 32 30  1  0  0  0  0
 33 32  2  0  0  0  0
 34 30  2  0  0  0  0
 35 29  1  0  0  0  0
 36 35  1  0  0  0  0
M  END
>  <MODEL>
8

>  <REMARK>
 VINA RESULT:      -6.1      3.592      8.132
  Name = 
  12 active torsions:
  status: ('A' for Active; 'I' for Inactive)
    1  A    between atoms: C_2  and  O_22
    2  A    between atoms: C_3  and  C_18
    3  A    between atoms: C_4  and  C_6
    4  A    between atoms: C_5  and  C_18
    5  A    between atoms: C_6  and  C_8
    6  A    between atoms: O_7  and  C_9
    7  A    between atoms: O_7  and  C_14
    8  A    between atoms: C_9  and  C_16
    9  A    between atoms: O_10  and  C_19
   10  A    between atoms: C_16  and  C_30
   11  A    between atoms: C_23  and  O_36
   12  A    between atoms: C_30  and  O_36
                            x       y       z     vdW  Elec       q    Type
                         _______ _______ _______ _____ _____    ______ ____

>  <TORSDO>
F 12

$$$$
=
 OpenBabel11042414453D

 36 38  0  0  1  0  0  0  0  0999 V2000
  191.5400  174.8410  144.3730 C   0  0  2  0  0  3  0  0  0  0  0  0
  190.9180  173.4510  144.4090 C   0  0  0  0  0  0  0  0  0  0  0  0
  189.4830  174.3970  146.1910 C   0  0  0  0  0  2  0  0  0  0  0  0
  190.5250  175.9980  144.5320 C   0  0  2  0  0  3  0  0  0  0  0  0
  189.2450  175.6210  145.3180 C   0  0  2  0  0  3  0  0  0  0  0  0
  189.9400  173.2530  145.3240 C   0  0  0  0  0  0  0  0  0  0  0  0
  189.3160  172.0640  145.4610 F   0  0  0  0  0  0  0  0  0  0  0  0
  191.4370  172.3340  143.5230 C   0  0  0  0  0  0  0  0  0  0  0  0
  192.7750  172.4870  143.2410 F   0  0  0  0  0  0  0  0  0  0  0  0
  191.2850  171.1330  144.1730 F   0  0  0  0  0  0  0  0  0  0  0  0
  190.6490  172.2820  142.2290 C   0  0  0  0  0  3  0  0  0  0  0  0
  189.4210  171.6890  142.4160 F   0  0  0  0  0  0  0  0  0  0  0  0
  191.3490  171.5840  141.2660 F   0  0  0  0  0  0  0  0  0  0  0  0
  190.2410  176.7000  143.3420 O   0  0  0  0  0  0  0  0  0  0  0  0
  190.6730  178.0230  143.4800 C   0  0  0  0  0  1  0  0  0  0  0  0
  192.6930  175.0860  143.4430 C   0  0  0  0  0  0  0  0  0  0  0  0
  192.5050  175.1640  142.1970 O   0  0  0  0  0  0  0  0  0  0  0  0
  194.0500  175.2160  143.9640 C   0  0  0  0  0  0  0  0  0  0  0  0
  196.3060  175.7590  144.1540 N   0  0  0  0  0  0  0  0  0  0  0  0
  195.8360  174.8580  145.1210 N   0  0  0  0  0  0  0  0  0  0  0  0
  194.5000  174.5250  144.9440 N   0  0  0  0  0  2  0  0  0  0  0  0
  195.1000  176.0950  143.3800 C   0  0  0  0  0  3  0  0  0  0  0  0
  188.8220  176.7000  146.0980 O   0  0  0  0  0  0  0  0  0  0  0  0
  188.0200  176.1400  147.1060 C   0  0  0  0  0  2  0  0  0  0  0  0
  186.6440  176.7810  147.0700 C   0  0  0  0  0  2  0  0  0  0  0  0
  186.7510  178.2930  147.2210 C   0  0  0  0  0  2  0  0  0  0  0  0
  185.6820  178.9640  146.5510 O   0  0  0  0  0  0  0  0  0  0  0  0
  183.8130  178.6580  143.3560 C   0  0  0  0  0  3  0  0  0  0  0  0
  184.8700  178.4770  142.4470 C   0  0  0  0  0  0  0  0  0  0  0  0
  185.3840  178.8110  145.1930 C   0  0  0  0  0  0  0  0  0  0  0  0
  187.3490  178.2910  141.9970 C   0  0  0  0  0  1  0  0  0  0  0  0
  186.4370  178.6450  144.2890 C   0  0  0  0  0  3  0  0  0  0  0  0
  186.1910  178.4770  142.9250 C   0  0  0  0  0  0  0  0  0  0  0  0
  184.0720  178.8190  144.7170 C   0  0  0  0  0  3  0  0  0  0  0  0
  184.6420  178.2520  141.0880 O   0  0  0  0  0  0  0  0  0  0  0  0
  183.3420  178.2920  140.5150 C   0  0  0  0  0  1  0  0  0  0  0  0
  1 16  1  6  0  0  0
  1  2  1  0  0  0  0
  1  4  1  0  0  0  0
  2  6  2  0  0  0  0
  4 14  1  6  0  0  0
  4  5  1  0  0  0  0
  5 23  1  1  0  0  0
  5  3  1  0  0  0  0
  6  7  1  0  0  0  0
  6  3  1  0  0  0  0
  8 10  1  0  0  0  0
  8  2  1  0  0  0  0
  9  8  1  0  0  0  0
 11 12  1  0  0  0  0
 11  8  1  0  0  0  0
 13 11  1  0  0  0  0
 14 15  1  0  0  0  0
 16 18  1  0  0  0  0
 17 16  2  0  0  0  0
 18 21  1  0  0  0  0
 19 20  2  0  0  0  0
 21 20  1  0  0  0  0
 22 18  2  0  0  0  0
 22 19  1  0  0  0  0
 23 24  1  0  0  0  0
 25 24  1  0  0  0  0
 25 26  1  0  0  0  0
 27 26  1  0  0  0  0
 28 34  1  0  0  0  0
 29 33  1  0  0  0  0
 29 28  2  0  0  0  0
 30 27  1  0  0  0  0
 31 33  1  0  0  0  0
 32 30  1  0  0  0  0
 33 32  2  0  0  0  0
 34 30  2  0  0  0  0
 35 29  1  0  0  0  0
 36 35  1  0  0  0  0
M  END
>  <MODEL>
9

>  <REMARK>
 VINA RESULT:      -6.1      2.336      4.393
  Name = 
  12 active torsions:
  status: ('A' for Active; 'I' for Inactive)
    1  A    between atoms: C_2  and  O_22
    2  A    between atoms: C_3  and  C_18
    3  A    between atoms: C_4  and  C_6
    4  A    between atoms: C_5  and  C_18
    5  A    between atoms: C_6  and  C_8
    6  A    between atoms: O_7  and  C_9
    7  A    between atoms: O_7  and  C_14
    8  A    between atoms: C_9  and  C_16
    9  A    between atoms: O_10  and  C_19
   10  A    between atoms: C_16  and  C_30
   11  A    between atoms: C_23  and  O_36
   12  A    between atoms: C_30  and  O_36
                            x       y       z     vdW  Elec       q    Type
                         _______ _______ _______ _____ _____    ______ ____

>  <TORSDO>
F 12

$$$$
