=
 OpenBabel11042416483D

 29 31  0  0  1  0  0  0  0  0999 V2000
  192.0310  176.5540  143.3440 C   0  0  0  0  0  0  0  0  0  0  0  0
  192.4240  176.3470  144.7210 C   0  0  0  0  0  0  0  0  0  0  0  0
  190.3470  176.9690  144.5770 C   0  0  0  0  0  0  0  0  0  0  0  0
  192.7540  176.4280  142.3210 O   0  0  0  0  0  0  0  0  0  0  0  0
  190.6730  176.9510  143.3200 N   0  0  0  0  0  0  0  0  0  0  0  0
  191.4110  176.6090  145.4750 N   0  0  0  0  0  0  0  0  0  0  0  0
  188.6730  177.2230  146.4020 C   0  0  0  0  0  3  0  0  0  0  0  0
  186.4390  178.0630  145.9550 C   0  0  0  0  0  0  0  0  0  0  0  0
  189.0030  177.3450  145.0470 C   0  0  0  0  0  0  0  0  0  0  0  0
  187.4000  177.5790  146.8540 C   0  0  0  0  0  3  0  0  0  0  0  0
  186.7700  178.1850  144.5980 C   0  0  0  0  0  3  0  0  0  0  0  0
  188.0430  177.8280  144.1460 C   0  0  0  0  0  3  0  0  0  0  0  0
  184.0910  178.7330  145.5110 O   0  0  0  0  0  0  0  0  0  0  0  0
  184.8460  178.5000  147.6580 O   0  0  0  0  0  1  0  0  0  0  0  0
  185.0970  178.4400  146.4250 C   0  0  0  0  0  0  0  0  0  0  0  0
  193.7770  175.9960  145.2600 C   0  0  1  0  0  3  0  0  0  0  0  0
  193.9190  176.3310  146.7370 C   0  0  0  0  0  1  0  0  0  0  0  0
  194.4810  172.8660  143.2660 C   0  0  0  0  0  2  0  0  0  0  0  0
  196.8750  172.3780  145.7490 C   0  0  0  0  0  2  0  0  0  0  0  0
  196.1650  174.4310  143.7780 N   0  0  0  0  0  0  0  0  0  0  0  0
  194.1400  174.6030  145.0030 N   0  0  0  0  0  2  0  0  0  0  0  0
  196.7860  173.8760  146.0720 C   0  0  0  0  0  2  0  0  0  0  0  0
  195.5170  171.7720  145.3590 C   0  0  1  0  0  3  0  0  0  0  0  0
  194.8980  174.1600  143.8700 C   0  0  0  0  0  0  0  0  0  0  0  0
  196.9460  174.6660  144.8910 O   0  0  0  0  0  0  0  0  0  0  0  0
  195.3320  171.7120  143.8320 C   0  0  0  0  0  2  0  0  0  0  0  0
  194.3380  169.7400  145.7380 O   0  0  0  0  0  0  0  0  0  0  0  0
  196.4410  169.8410  146.7150 N   0  0  0  0  0  1  0  0  0  0  0  0
  195.3880  170.4030  145.9380 C   0  0  0  0  0  0  0  0  0  0  0  0
  1  2  1  0  0  0  0
  2 16  1  0  0  0  0
  2  6  2  0  0  0  0
  3  9  1  0  0  0  0
  3  6  1  0  0  0  0
  4  1  2  0  0  0  0
  5  1  1  0  0  0  0
  5  3  2  0  0  0  0
  7 10  1  0  0  0  0
  8 15  1  0  0  0  0
  8 10  2  0  0  0  0
  9  7  2  0  0  0  0
 11  8  1  0  0  0  0
 12 11  2  0  0  0  0
 12  9  1  0  0  0  0
 13 15  2  0  0  0  0
 15 14  1  0  0  0  0
 16 17  1  1  0  0  0
 18 26  1  0  0  0  0
 18 24  1  0  0  0  0
 19 22  1  0  0  0  0
 20 24  2  0  0  0  0
 20 25  1  0  0  0  0
 21 16  1  0  0  0  0
 23 19  1  0  0  0  0
 23 29  1  6  0  0  0
 24 21  1  0  0  0  0
 25 22  1  0  0  0  0
 26 23  1  0  0  0  0
 27 29  2  0  0  0  0
 29 28  1  0  0  0  0
M  END
>  <MODEL>
1

>  <REMARK>
 VINA RESULT:      -7.3      0.000      0.000
  Name = 
  5 active torsions:
  status: ('A' for Active; 'I' for Inactive)
    1  A    between atoms: C_7  and  C_23
    2  A    between atoms: N_8  and  C_13
    3  A    between atoms: C_12  and  C_13
    4  A    between atoms: C_14  and  C_16
    5  A    between atoms: C_18  and  C_24
                            x       y       z     vdW  Elec       q    Type
                         _______ _______ _______ _____ _____    ______ ____

>  <TORSDO>
F 5

$$$$
=
 OpenBabel11042416483D

 29 31  0  0  1  0  0  0  0  0999 V2000
  191.1920  175.6780  147.2170 C   0  0  0  0  0  0  0  0  0  0  0  0
  191.7620  176.2580  146.0200 C   0  0  0  0  0  0  0  0  0  0  0  0
  189.6140  176.5750  146.1060 C   0  0  0  0  0  0  0  0  0  0  0  0
  191.8010  175.0430  148.1170 O   0  0  0  0  0  0  0  0  0  0  0  0
  189.7980  175.9220  147.2140 N   0  0  0  0  0  0  0  0  0  0  0  0
  190.8080  176.7930  145.3360 N   0  0  0  0  0  0  0  0  0  0  0  0
  187.1530  176.7470  146.4320 C   0  0  0  0  0  3  0  0  0  0  0  0
  185.7490  177.9170  144.8320 C   0  0  0  0  0  0  0  0  0  0  0  0
  188.2880  177.0370  145.6640 C   0  0  0  0  0  0  0  0  0  0  0  0
  185.8920  177.1840  146.0190 C   0  0  0  0  0  3  0  0  0  0  0  0
  186.8860  178.2060  144.0640 C   0  0  0  0  0  3  0  0  0  0  0  0
  188.1470  177.7690  144.4770 C   0  0  0  0  0  3  0  0  0  0  0  0
  184.0090  178.1750  143.0810 O   0  0  0  0  0  0  0  0  0  0  0  0
  183.6510  178.9640  145.1990 O   0  0  0  0  0  1  0  0  0  0  0  0
  184.4230  178.3800  144.3920 C   0  0  0  0  0  0  0  0  0  0  0  0
  193.1800  176.1980  145.5410 C   0  0  1  0  0  3  0  0  0  0  0  0
  194.1480  176.8700  146.5030 C   0  0  0  0  0  1  0  0  0  0  0  0
  193.5350  172.9910  143.5750 C   0  0  0  0  0  2  0  0  0  0  0  0
  196.7070  173.0020  145.0140 C   0  0  0  0  0  2  0  0  0  0  0  0
  195.0590  174.7730  143.3530 N   0  0  0  0  0  0  0  0  0  0  0  0
  193.6110  174.8350  145.2320 N   0  0  0  0  0  2  0  0  0  0  0  0
  196.5380  174.5050  145.2770 C   0  0  0  0  0  2  0  0  0  0  0  0
  195.3960  172.2170  145.1840 C   0  0  1  0  0  3  0  0  0  0  0  0
  193.9620  174.3740  143.9210 C   0  0  0  0  0  0  0  0  0  0  0  0
  196.1510  175.1950  144.0860 O   0  0  0  0  0  0  0  0  0  0  0  0
  194.6810  171.9960  143.8380 C   0  0  0  0  0  2  0  0  0  0  0  0
  196.8260  170.6540  146.2670 O   0  0  0  0  0  0  0  0  0  0  0  0
  194.6430  169.9260  145.9630 N   0  0  0  0  0  1  0  0  0  0  0  0
  195.6720  170.9030  145.8320 C   0  0  0  0  0  0  0  0  0  0  0  0
  1  4  2  0  0  0  0
  2  1  1  0  0  0  0
  3  5  2  0  0  0  0
  5  1  1  0  0  0  0
  6  2  2  0  0  0  0
  6  3  1  0  0  0  0
  8 10  2  0  0  0  0
  9  3  1  0  0  0  0
  9  7  2  0  0  0  0
 10  7  1  0  0  0  0
 11 12  2  0  0  0  0
 11  8  1  0  0  0  0
 12  9  1  0  0  0  0
 13 15  2  0  0  0  0
 15  8  1  0  0  0  0
 15 14  1  0  0  0  0
 16  2  1  0  0  0  0
 16 17  1  1  0  0  0
 18 26  1  0  0  0  0
 18 24  1  0  0  0  0
 19 23  1  0  0  0  0
 19 22  1  0  0  0  0
 20 24  2  0  0  0  0
 20 25  1  0  0  0  0
 21 16  1  0  0  0  0
 23 29  1  6  0  0  0
 24 21  1  0  0  0  0
 25 22  1  0  0  0  0
 26 23  1  0  0  0  0
 29 28  1  0  0  0  0
 29 27  2  0  0  0  0
M  END
>  <MODEL>
2

>  <REMARK>
 VINA RESULT:      -7.2      1.767      2.062
  Name = 
  5 active torsions:
  status: ('A' for Active; 'I' for Inactive)
    1  A    between atoms: C_7  and  C_23
    2  A    between atoms: N_8  and  C_13
    3  A    between atoms: C_12  and  C_13
    4  A    between atoms: C_14  and  C_16
    5  A    between atoms: C_18  and  C_24
                            x       y       z     vdW  Elec       q    Type
                         _______ _______ _______ _____ _____    ______ ____

>  <TORSDO>
F 5

$$$$
=
 OpenBabel11042416483D

 29 31  0  0  1  0  0  0  0  0999 V2000
  191.1030  175.3390  146.8410 C   0  0  0  0  0  0  0  0  0  0  0  0
  190.9990  174.7340  145.5310 C   0  0  0  0  0  0  0  0  0  0  0  0
  189.2940  176.0150  145.9470 C   0  0  0  0  0  0  0  0  0  0  0  0
  192.0220  175.1700  147.6840 O   0  0  0  0  0  0  0  0  0  0  0  0
  189.9690  176.1600  147.0470 N   0  0  0  0  0  0  0  0  0  0  0  0
  189.8980  175.1300  144.9890 N   0  0  0  0  0  0  0  0  0  0  0  0
  187.8430  177.5180  144.5940 C   0  0  0  0  0  3  0  0  0  0  0  0
  185.5470  177.9710  145.2420 C   0  0  0  0  0  0  0  0  0  0  0  0
  188.0050  176.6850  145.7080 C   0  0  0  0  0  0  0  0  0  0  0  0
  186.6220  178.1560  144.3620 C   0  0  0  0  0  3  0  0  0  0  0  0
  185.7090  177.1370  146.3580 C   0  0  0  0  0  3  0  0  0  0  0  0
  186.9300  176.4990  146.5900 C   0  0  0  0  0  3  0  0  0  0  0  0
  183.8440  178.9160  143.7040 O   0  0  0  0  0  0  0  0  0  0  0  0
  183.5190  178.9680  145.9680 O   0  0  0  0  0  1  0  0  0  0  0  0
  184.2580  178.6400  145.0020 C   0  0  0  0  0  0  0  0  0  0  0  0
  191.9140  173.7340  144.8920 C   0  0  1  0  0  3  0  0  0  0  0  0
  191.3500  173.1770  143.5940 C   0  0  0  0  0  1  0  0  0  0  0  0
  195.4280  174.7940  145.7830 C   0  0  0  0  0  2  0  0  0  0  0  0
  196.1140  173.5530  142.6020 C   0  0  0  0  0  2  0  0  0  0  0  0
  194.9160  172.5980  145.1040 N   0  0  0  0  0  0  0  0  0  0  0  0
  193.2650  174.2540  144.6950 N   0  0  0  0  0  2  0  0  0  0  0  0
  194.8000  172.7630  142.6710 C   0  0  0  0  0  2  0  0  0  0  0  0
  196.0160  174.9310  143.2760 C   0  0  1  0  0  3  0  0  0  0  0  0
  194.4280  173.7690  145.3810 C   0  0  0  0  0  0  0  0  0  0  0  0
  194.7240  171.9970  143.8760 O   0  0  0  0  0  0  0  0  0  0  0  0
  196.5410  174.9010  144.7230 C   0  0  0  0  0  2  0  0  0  0  0  0
  197.4750  176.8010  143.0770 O   0  0  0  0  0  0  0  0  0  0  0  0
  196.7230  175.9350  141.0590 N   0  0  0  0  0  1  0  0  0  0  0  0
  196.7780  175.9390  142.4830 C   0  0  0  0  0  0  0  0  0  0  0  0
  1  5  1  0  0  0  0
  1  4  2  0  0  0  0
  2  1  1  0  0  0  0
  3  5  2  0  0  0  0
  6  2  2  0  0  0  0
  6  3  1  0  0  0  0
  7  9  1  0  0  0  0
  8 11  2  0  0  0  0
  9  3  1  0  0  0  0
  9 12  2  0  0  0  0
 10  7  2  0  0  0  0
 10  8  1  0  0  0  0
 11 12  1  0  0  0  0
 13 15  2  0  0  0  0
 15  8  1  0  0  0  0
 15 14  1  0  0  0  0
 16 17  1  6  0  0  0
 16  2  1  0  0  0  0
 19 22  1  0  0  0  0
 19 23  1  0  0  0  0
 20 24  2  0  0  0  0
 21 16  1  0  0  0  0
 21 24  1  0  0  0  0
 22 25  1  0  0  0  0
 23 29  1  6  0  0  0
 23 26  1  0  0  0  0
 24 18  1  0  0  0  0
 25 20  1  0  0  0  0
 26 18  1  0  0  0  0
 28 29  1  0  0  0  0
 29 27  2  0  0  0  0
M  END
>  <MODEL>
3

>  <REMARK>
 VINA RESULT:      -7.0      2.247      3.804
  Name = 
  5 active torsions:
  status: ('A' for Active; 'I' for Inactive)
    1  A    between atoms: C_7  and  C_23
    2  A    between atoms: N_8  and  C_13
    3  A    between atoms: C_12  and  C_13
    4  A    between atoms: C_14  and  C_16
    5  A    between atoms: C_18  and  C_24
                            x       y       z     vdW  Elec       q    Type
                         _______ _______ _______ _____ _____    ______ ____

>  <TORSDO>
F 5

$$$$
=
 OpenBabel11042416483D

 29 31  0  0  1  0  0  0  0  0999 V2000
  190.5850  175.4200  146.9890 C   0  0  0  0  0  0  0  0  0  0  0  0
  191.0740  174.9730  145.7030 C   0  0  0  0  0  0  0  0  0  0  0  0
  189.1810  176.0210  145.5080 C   0  0  0  0  0  0  0  0  0  0  0  0
  191.1270  175.2390  148.1110 O   0  0  0  0  0  0  0  0  0  0  0  0
  189.3570  176.0950  146.7930 N   0  0  0  0  0  0  0  0  0  0  0  0
  190.2210  175.3240  144.8020 N   0  0  0  0  0  0  0  0  0  0  0  0
  187.3900  177.7410  145.3380 C   0  0  0  0  0  3  0  0  0  0  0  0
  185.7500  177.6790  143.5480 C   0  0  0  0  0  0  0  0  0  0  0  0
  188.0020  176.5870  144.8320 C   0  0  0  0  0  0  0  0  0  0  0  0
  186.2720  178.2840  144.7000 C   0  0  0  0  0  3  0  0  0  0  0  0
  186.3620  176.5240  143.0420 C   0  0  0  0  0  3  0  0  0  0  0  0
  187.4810  175.9810  143.6800 C   0  0  0  0  0  3  0  0  0  0  0  0
  184.4950  178.2480  141.4840 O   0  0  0  0  0  0  0  0  0  0  0  0
  183.6240  178.7350  143.5430 O   0  0  0  0  0  1  0  0  0  0  0  0
  184.5720  178.2470  142.8720 C   0  0  0  0  0  0  0  0  0  0  0  0
  192.2920  174.1530  145.4030 C   0  0  1  0  0  3  0  0  0  0  0  0
  191.9730  172.9240  144.5660 C   0  0  0  0  0  1  0  0  0  0  0  0
  194.8190  176.9330  145.0170 C   0  0  0  0  0  2  0  0  0  0  0  0
  196.7070  174.3900  143.5680 C   0  0  0  0  0  2  0  0  0  0  0  0
  195.3370  174.9120  146.1090 N   0  0  0  0  0  0  0  0  0  0  0  0
  193.3620  174.9390  144.7920 N   0  0  0  0  0  2  0  0  0  0  0  0
  195.8020  173.3710  144.2740 C   0  0  0  0  0  2  0  0  0  0  0  0
  195.9440  175.6360  143.0920 C   0  0  1  0  0  3  0  0  0  0  0  0
  194.4020  175.6000  145.5260 C   0  0  0  0  0  0  0  0  0  0  0  0
  195.7020  173.6550  145.6720 O   0  0  0  0  0  0  0  0  0  0  0  0
  196.0500  176.7950  144.1000 C   0  0  0  0  0  2  0  0  0  0  0  0
  196.0540  177.1500  141.2590 O   0  0  0  0  0  0  0  0  0  0  0  0
  197.4150  175.2810  141.0600 N   0  0  0  0  0  1  0  0  0  0  0  0
  196.4630  176.0720  141.7630 C   0  0  0  0  0  0  0  0  0  0  0  0
  1  4  2  0  0  0  0
  2  1  1  0  0  0  0
  3  5  2  0  0  0  0
  5  1  1  0  0  0  0
  6  3  1  0  0  0  0
  6  2  2  0  0  0  0
  8 10  1  0  0  0  0
  9  7  1  0  0  0  0
  9  3  1  0  0  0  0
 10  7  2  0  0  0  0
 11  8  2  0  0  0  0
 11 12  1  0  0  0  0
 12  9  2  0  0  0  0
 13 15  2  0  0  0  0
 15 14  1  0  0  0  0
 15  8  1  0  0  0  0
 16 17  1  6  0  0  0
 16  2  1  0  0  0  0
 18 24  1  0  0  0  0
 19 22  1  0  0  0  0
 21 16  1  0  0  0  0
 21 24  1  0  0  0  0
 22 25  1  0  0  0  0
 23 29  1  6  0  0  0
 23 19  1  0  0  0  0
 23 26  1  0  0  0  0
 24 20  2  0  0  0  0
 25 20  1  0  0  0  0
 26 18  1  0  0  0  0
 27 29  2  0  0  0  0
 28 29  1  0  0  0  0
M  END
>  <MODEL>
4

>  <REMARK>
 VINA RESULT:      -6.9      2.463      4.012
  Name = 
  5 active torsions:
  status: ('A' for Active; 'I' for Inactive)
    1  A    between atoms: C_7  and  C_23
    2  A    between atoms: N_8  and  C_13
    3  A    between atoms: C_12  and  C_13
    4  A    between atoms: C_14  and  C_16
    5  A    between atoms: C_18  and  C_24
                            x       y       z     vdW  Elec       q    Type
                         _______ _______ _______ _____ _____    ______ ____

>  <TORSDO>
F 5

$$$$
=
 OpenBabel11042416483D

 29 31  0  0  1  0  0  0  0  0999 V2000
  188.7980  175.5540  142.1420 C   0  0  0  0  0  0  0  0  0  0  0  0
  189.0530  176.9740  142.2550 C   0  0  0  0  0  0  0  0  0  0  0  0
  190.7640  175.8080  142.9160 C   0  0  0  0  0  0  0  0  0  0  0  0
  187.7390  175.0030  141.7420 O   0  0  0  0  0  0  0  0  0  0  0  0
  189.9470  174.8550  142.5820 N   0  0  0  0  0  0  0  0  0  0  0  0
  190.2390  177.1340  142.7350 N   0  0  0  0  0  0  0  0  0  0  0  0
  192.8410  176.5920  144.0410 C   0  0  0  0  0  3  0  0  0  0  0  0
  194.6820  175.0720  144.4870 C   0  0  0  0  0  0  0  0  0  0  0  0
  192.1100  175.5520  143.4540 C   0  0  0  0  0  0  0  0  0  0  0  0
  194.1180  176.3540  144.5550 C   0  0  0  0  0  3  0  0  0  0  0  0
  193.9500  174.0310  143.8990 C   0  0  0  0  0  3  0  0  0  0  0  0
  192.6720  174.2690  143.3860 C   0  0  0  0  0  3  0  0  0  0  0  0
  197.1540  175.1080  144.2670 O   0  0  0  0  0  0  0  0  0  0  0  0
  196.1700  174.3330  146.1820 O   0  0  0  0  0  1  0  0  0  0  0  0
  196.0270  174.8160  145.0270 C   0  0  0  0  0  0  0  0  0  0  0  0
  188.1180  178.1130  141.9820 C   0  0  1  0  0  3  0  0  0  0  0  0
  187.2130  177.8480  140.7890 C   0  0  0  0  0  1  0  0  0  0  0  0
  185.4110  179.8110  143.9960 C   0  0  0  0  0  2  0  0  0  0  0  0
  185.5440  176.8430  145.8140 C   0  0  0  0  0  2  0  0  0  0  0  0
  185.1100  177.6810  143.0360 N   0  0  0  0  0  0  0  0  0  0  0  0
  187.3370  178.4920  143.1580 N   0  0  0  0  0  2  0  0  0  0  0  0
  186.2250  176.1820  144.6070 C   0  0  0  0  0  2  0  0  0  0  0  0
  185.9740  178.3050  146.0120 C   0  0  1  0  0  3  0  0  0  0  0  0
  185.9170  178.6910  143.1570 C   0  0  0  0  0  0  0  0  0  0  0  0
  185.4750  176.4040  143.4100 O   0  0  0  0  0  0  0  0  0  0  0  0
  184.9740  179.2890  145.3780 C   0  0  0  0  0  2  0  0  0  0  0  0
  186.0780  177.6550  148.2990 O   0  0  0  0  0  0  0  0  0  0  0  0
  186.3010  179.9350  147.9250 N   0  0  0  0  0  1  0  0  0  0  0  0
  186.1190  178.5980  147.4680 C   0  0  0  0  0  0  0  0  0  0  0  0
  1  2  1  0  0  0  0
  1  5  1  0  0  0  0
  2  6  2  0  0  0  0
  3  9  1  0  0  0  0
  4  1  2  0  0  0  0
  5  3  2  0  0  0  0
  6  3  1  0  0  0  0
  7 10  1  0  0  0  0
  8 10  2  0  0  0  0
  8 15  1  0  0  0  0
  9  7  2  0  0  0  0
 11  8  1  0  0  0  0
 12  9  1  0  0  0  0
 12 11  2  0  0  0  0
 13 15  2  0  0  0  0
 15 14  1  0  0  0  0
 16 17  1  6  0  0  0
 16  2  1  0  0  0  0
 16 21  1  0  0  0  0
 18 26  1  0  0  0  0
 19 23  1  0  0  0  0
 20 24  2  0  0  0  0
 20 25  1  0  0  0  0
 22 19  1  0  0  0  0
 23 29  1  1  0  0  0
 24 21  1  0  0  0  0
 24 18  1  0  0  0  0
 25 22  1  0  0  0  0
 26 23  1  0  0  0  0
 29 28  1  0  0  0  0
 29 27  2  0  0  0  0
M  END
>  <MODEL>
5

>  <REMARK>
 VINA RESULT:      -6.7      3.276      9.439
  Name = 
  5 active torsions:
  status: ('A' for Active; 'I' for Inactive)
    1  A    between atoms: C_7  and  C_23
    2  A    between atoms: N_8  and  C_13
    3  A    between atoms: C_12  and  C_13
    4  A    between atoms: C_14  and  C_16
    5  A    between atoms: C_18  and  C_24
                            x       y       z     vdW  Elec       q    Type
                         _______ _______ _______ _____ _____    ______ ____

>  <TORSDO>
F 5

$$$$
=
 OpenBabel11042416483D

 29 31  0  0  1  0  0  0  0  0999 V2000
  191.7320  175.7270  146.2740 C   0  0  0  0  0  0  0  0  0  0  0  0
  191.3390  174.6610  145.3780 C   0  0  0  0  0  0  0  0  0  0  0  0
  189.7320  176.0990  145.6490 C   0  0  0  0  0  0  0  0  0  0  0  0
  192.8350  175.8510  146.8680 O   0  0  0  0  0  0  0  0  0  0  0  0
  190.6480  176.6270  146.4040 N   0  0  0  0  0  0  0  0  0  0  0  0
  190.1230  174.8740  145.0050 N   0  0  0  0  0  0  0  0  0  0  0  0
  188.1450  177.5630  144.4120 C   0  0  0  0  0  3  0  0  0  0  0  0
  185.8480  177.8380  145.1510 C   0  0  0  0  0  0  0  0  0  0  0  0
  188.3970  176.6950  145.4820 C   0  0  0  0  0  0  0  0  0  0  0  0
  186.8790  178.1310  144.2470 C   0  0  0  0  0  3  0  0  0  0  0  0
  186.1000  176.9690  146.2220 C   0  0  0  0  0  3  0  0  0  0  0  0
  187.3660  176.4010  146.3860 C   0  0  0  0  0  3  0  0  0  0  0  0
  183.7040  178.6650  146.0890 O   0  0  0  0  0  1  0  0  0  0  0  0
  184.0900  178.7380  143.8350 O   0  0  0  0  0  0  0  0  0  0  0  0
  184.5120  178.4330  144.9820 C   0  0  0  0  0  0  0  0  0  0  0  0
  192.1130  173.4390  144.9880 C   0  0  1  0  0  3  0  0  0  0  0  0
  191.2500  172.4050  144.2800 C   0  0  0  0  0  1  0  0  0  0  0  0
  194.8470  172.9740  142.4230 C   0  0  0  0  0  2  0  0  0  0  0  0
  194.4540  176.4160  142.0600 C   0  0  0  0  0  2  0  0  0  0  0  0
  192.7950  174.0020  141.8960 N   0  0  0  0  0  0  0  0  0  0  0  0
  193.3030  173.7550  144.2010 N   0  0  0  0  0  2  0  0  0  0  0  0
  193.0710  176.2860  142.7120 C   0  0  0  0  0  2  0  0  0  0  0  0
  195.4920  175.4590  142.6690 C   0  0  1  0  0  3  0  0  0  0  0  0
  193.4790  173.4020  142.8220 C   0  0  0  0  0  0  0  0  0  0  0  0
  192.2910  175.2760  142.0660 O   0  0  0  0  0  0  0  0  0  0  0  0
  195.6340  174.1660  141.8450 C   0  0  0  0  0  2  0  0  0  0  0  0
  196.9340  177.1610  143.4980 O   0  0  0  0  0  0  0  0  0  0  0  0
  197.9410  175.6530  142.0490 N   0  0  0  0  0  1  0  0  0  0  0  0
  196.8140  176.1420  142.7700 C   0  0  0  0  0  0  0  0  0  0  0  0
  1  5  1  0  0  0  0
  1  4  2  0  0  0  0
  2  1  1  0  0  0  0
  3  5  2  0  0  0  0
  6  2  2  0  0  0  0
  6  3  1  0  0  0  0
  7  9  1  0  0  0  0
  8 11  2  0  0  0  0
  9  3  1  0  0  0  0
  9 12  2  0  0  0  0
 10  7  2  0  0  0  0
 10  8  1  0  0  0  0
 11 12  1  0  0  0  0
 14 15  2  0  0  0  0
 15  8  1  0  0  0  0
 15 13  1  0  0  0  0
 16 17  1  6  0  0  0
 16  2  1  0  0  0  0
 18 24  1  0  0  0  0
 19 23  1  0  0  0  0
 19 22  1  0  0  0  0
 20 25  1  0  0  0  0
 20 24  2  0  0  0  0
 21 16  1  0  0  0  0
 23 29  1  6  0  0  0
 24 21  1  0  0  0  0
 25 22  1  0  0  0  0
 26 18  1  0  0  0  0
 26 23  1  0  0  0  0
 28 29  1  0  0  0  0
 29 27  2  0  0  0  0
M  END
>  <MODEL>
6

>  <REMARK>
 VINA RESULT:      -6.7      2.623      3.950
  Name = 
  5 active torsions:
  status: ('A' for Active; 'I' for Inactive)
    1  A    between atoms: C_7  and  C_23
    2  A    between atoms: N_8  and  C_13
    3  A    between atoms: C_12  and  C_13
    4  A    between atoms: C_14  and  C_16
    5  A    between atoms: C_18  and  C_24
                            x       y       z     vdW  Elec       q    Type
                         _______ _______ _______ _____ _____    ______ ____

>  <TORSDO>
F 5

$$$$
=
 OpenBabel11042416483D

 29 31  0  0  1  0  0  0  0  0999 V2000
  191.0260  176.5190  146.7730 C   0  0  0  0  0  0  0  0  0  0  0  0
  191.0700  176.8500  145.3650 C   0  0  0  0  0  0  0  0  0  0  0  0
  192.4250  175.2180  145.8350 C   0  0  0  0  0  0  0  0  0  0  0  0
  190.3330  177.0790  147.6630 O   0  0  0  0  0  0  0  0  0  0  0  0
  191.9230  175.4520  147.0110 N   0  0  0  0  0  0  0  0  0  0  0  0
  191.9250  176.0730  144.7930 N   0  0  0  0  0  0  0  0  0  0  0  0
  194.7970  174.4700  145.7490 C   0  0  0  0  0  3  0  0  0  0  0  0
  195.3780  172.1930  145.1350 C   0  0  0  0  0  0  0  0  0  0  0  0
  193.4360  174.1770  145.5930 C   0  0  0  0  0  0  0  0  0  0  0  0
  195.7610  173.4850  145.5220 C   0  0  0  0  0  3  0  0  0  0  0  0
  194.0160  171.9000  144.9780 C   0  0  0  0  0  3  0  0  0  0  0  0
  193.0510  172.8850  145.2050 C   0  0  0  0  0  3  0  0  0  0  0  0
  197.7050  171.5050  144.6160 O   0  0  0  0  0  0  0  0  0  0  0  0
  196.0750  169.9330  144.9410 O   0  0  0  0  0  1  0  0  0  0  0  0
  196.3900  171.1520  144.8950 C   0  0  0  0  0  0  0  0  0  0  0  0
  190.3570  177.9550  144.6460 C   0  0  1  0  0  3  0  0  0  0  0  0
  191.2460  178.6540  143.6280 C   0  0  0  0  0  1  0  0  0  0  0  0
  187.8130  175.5630  143.2070 C   0  0  0  0  0  2  0  0  0  0  0  0
  185.5720  177.7880  144.6760 C   0  0  0  0  0  2  0  0  0  0  0  0
  187.8490  176.1280  145.4930 N   0  0  0  0  0  0  0  0  0  0  0  0
  189.1070  177.5110  144.0310 N   0  0  0  0  0  2  0  0  0  0  0  0
  186.7180  178.2900  145.5670 C   0  0  0  0  0  2  0  0  0  0  0  0
  186.0360  177.4320  143.2550 C   0  0  1  0  0  3  0  0  0  0  0  0
  188.4420  176.2810  144.3480 C   0  0  0  0  0  0  0  0  0  0  0  0
  187.3740  177.2000  146.2200 O   0  0  0  0  0  0  0  0  0  0  0  0
  186.3190  175.9260  143.1040 C   0  0  0  0  0  2  0  0  0  0  0  0
  185.2740  177.8250  141.0350 O   0  0  0  0  0  0  0  0  0  0  0  0
  183.7200  178.2930  142.6940 N   0  0  0  0  0  1  0  0  0  0  0  0
  185.0050  177.8550  142.2630 C   0  0  0  0  0  0  0  0  0  0  0  0
  1  5  1  0  0  0  0
  1  4  2  0  0  0  0
  2  1  1  0  0  0  0
  3  5  2  0  0  0  0
  6  2  2  0  0  0  0
  6  3  1  0  0  0  0
  8 10  1  0  0  0  0
  9  7  1  0  0  0  0
  9  3  1  0  0  0  0
 10  7  2  0  0  0  0
 11  8  2  0  0  0  0
 11 12  1  0  0  0  0
 12  9  2  0  0  0  0
 13 15  2  0  0  0  0
 15 14  1  0  0  0  0
 15  8  1  0  0  0  0
 16 17  1  6  0  0  0
 16  2  1  0  0  0  0
 18 24  1  0  0  0  0
 19 22  1  0  0  0  0
 20 25  1  0  0  0  0
 21 24  1  0  0  0  0
 21 16  1  0  0  0  0
 22 25  1  0  0  0  0
 23 29  1  6  0  0  0
 23 19  1  0  0  0  0
 24 20  2  0  0  0  0
 26 18  1  0  0  0  0
 26 23  1  0  0  0  0
 27 29  2  0  0  0  0
 29 28  1  0  0  0  0
M  END
>  <MODEL>
7

>  <REMARK>
 VINA RESULT:      -6.7      2.708      9.422
  Name = 
  5 active torsions:
  status: ('A' for Active; 'I' for Inactive)
    1  A    between atoms: C_7  and  C_23
    2  A    between atoms: N_8  and  C_13
    3  A    between atoms: C_12  and  C_13
    4  A    between atoms: C_14  and  C_16
    5  A    between atoms: C_18  and  C_24
                            x       y       z     vdW  Elec       q    Type
                         _______ _______ _______ _____ _____    ______ ____

>  <TORSDO>
F 5

$$$$
=
 OpenBabel11042416483D

 29 31  0  0  1  0  0  0  0  0999 V2000
  190.0370  174.3070  141.7850 C   0  0  0  0  0  0  0  0  0  0  0  0
  190.3140  174.0110  143.1740 C   0  0  0  0  0  0  0  0  0  0  0  0
  188.5980  175.3290  142.9740 C   0  0  0  0  0  0  0  0  0  0  0  0
  190.6810  173.9040  140.7810 O   0  0  0  0  0  0  0  0  0  0  0  0
  188.9120  175.1620  141.7250 N   0  0  0  0  0  0  0  0  0  0  0  0
  189.4530  174.6370  143.9010 N   0  0  0  0  0  0  0  0  0  0  0  0
  187.4260  176.6620  144.7190 C   0  0  0  0  0  3  0  0  0  0  0  0
  185.3270  177.7870  144.2460 C   0  0  0  0  0  0  0  0  0  0  0  0
  187.4730  176.1730  143.4080 C   0  0  0  0  0  0  0  0  0  0  0  0
  186.3610  177.4640  145.1350 C   0  0  0  0  0  3  0  0  0  0  0  0
  185.3740  177.2970  142.9330 C   0  0  0  0  0  3  0  0  0  0  0  0
  186.4390  176.4950  142.5170 C   0  0  0  0  0  3  0  0  0  0  0  0
  183.2990  179.1290  143.7460 O   0  0  0  0  0  0  0  0  0  0  0  0
  184.0480  178.9130  145.8980 O   0  0  0  0  0  1  0  0  0  0  0  0
  184.2030  178.6330  144.6790 C   0  0  0  0  0  0  0  0  0  0  0  0
  191.4450  173.2130  143.7490 C   0  0  1  0  0  3  0  0  0  0  0  0
  191.5060  171.8020  143.1840 C   0  0  0  0  0  1  0  0  0  0  0  0
  193.9760  175.7190  142.4900 C   0  0  0  0  0  2  0  0  0  0  0  0
  195.1560  175.4740  145.7580 C   0  0  0  0  0  2  0  0  0  0  0  0
  192.6450  176.1280  144.3900 N   0  0  0  0  0  0  0  0  0  0  0  0
  192.7350  173.8880  143.6110 N   0  0  0  0  0  2  0  0  0  0  0  0
  193.7900  174.9060  146.1660 C   0  0  0  0  0  2  0  0  0  0  0  0
  195.6020  175.0100  144.3620 C   0  0  1  0  0  3  0  0  0  0  0  0
  192.8940  175.3000  143.4210 C   0  0  0  0  0  0  0  0  0  0  0  0
  192.7270  175.7510  145.7150 O   0  0  0  0  0  0  0  0  0  0  0  0
  195.2610  176.0460  143.2760 C   0  0  0  0  0  2  0  0  0  0  0  0
  197.5950  174.1620  145.3480 O   0  0  0  0  0  0  0  0  0  0  0  0
  197.8790  175.1310  143.2570 N   0  0  0  0  0  1  0  0  0  0  0  0
  197.0690  174.7400  144.3620 C   0  0  0  0  0  0  0  0  0  0  0  0
  1  2  1  0  0  0  0
  2 16  1  0  0  0  0
  2  6  2  0  0  0  0
  3  9  1  0  0  0  0
  3  6  1  0  0  0  0
  4  1  2  0  0  0  0
  5  1  1  0  0  0  0
  5  3  2  0  0  0  0
  7 10  1  0  0  0  0
  8 15  1  0  0  0  0
  8 10  2  0  0  0  0
  9  7  2  0  0  0  0
 11  8  1  0  0  0  0
 12 11  2  0  0  0  0
 12  9  1  0  0  0  0
 13 15  2  0  0  0  0
 15 14  1  0  0  0  0
 16 17  1  6  0  0  0
 18 26  1  0  0  0  0
 18 24  1  0  0  0  0
 19 22  1  0  0  0  0
 20 25  1  0  0  0  0
 21 16  1  0  0  0  0
 23 29  1  1  0  0  0
 23 19  1  0  0  0  0
 24 21  1  0  0  0  0
 24 20  2  0  0  0  0
 25 22  1  0  0  0  0
 26 23  1  0  0  0  0
 28 29  1  0  0  0  0
 29 27  2  0  0  0  0
M  END
>  <MODEL>
8

>  <REMARK>
 VINA RESULT:      -6.6      2.672      3.553
  Name = 
  5 active torsions:
  status: ('A' for Active; 'I' for Inactive)
    1  A    between atoms: C_7  and  C_23
    2  A    between atoms: N_8  and  C_13
    3  A    between atoms: C_12  and  C_13
    4  A    between atoms: C_14  and  C_16
    5  A    between atoms: C_18  and  C_24
                            x       y       z     vdW  Elec       q    Type
                         _______ _______ _______ _____ _____    ______ ____

>  <TORSDO>
F 5

$$$$
=
 OpenBabel11042416483D

 29 31  0  0  1  0  0  0  0  0999 V2000
  190.5670  177.9070  143.3150 C   0  0  0  0  0  0  0  0  0  0  0  0
  190.0800  177.3160  144.5430 C   0  0  0  0  0  0  0  0  0  0  0  0
  188.4440  177.8050  143.1990 C   0  0  0  0  0  0  0  0  0  0  0  0
  191.7640  178.1510  143.0140 O   0  0  0  0  0  0  0  0  0  0  0  0
  189.4570  178.1970  142.4860 N   0  0  0  0  0  0  0  0  0  0  0  0
  188.7930  177.2630  144.4840 N   0  0  0  0  0  0  0  0  0  0  0  0
  186.0080  178.0070  143.6680 C   0  0  0  0  0  3  0  0  0  0  0  0
  184.3870  178.1560  141.8670 C   0  0  0  0  0  0  0  0  0  0  0  0
  187.0520  177.9250  142.7380 C   0  0  0  0  0  0  0  0  0  0  0  0
  184.6850  178.1220  143.2360 C   0  0  0  0  0  3  0  0  0  0  0  0
  185.4320  178.0740  140.9350 C   0  0  0  0  0  3  0  0  0  0  0  0
  186.7550  177.9590  141.3680 C   0  0  0  0  0  3  0  0  0  0  0  0
  182.6520  177.9190  140.1070 O   0  0  0  0  0  0  0  0  0  0  0  0
  182.1000  178.7070  142.1830 O   0  0  0  0  0  1  0  0  0  0  0  0
  182.9940  178.2780  141.4060 C   0  0  0  0  0  0  0  0  0  0  0  0
  190.8620  176.9100  145.7550 C   0  0  1  0  0  3  0  0  0  0  0  0
  190.1680  175.8190  146.5560 C   0  0  0  0  0  1  0  0  0  0  0  0
  194.3280  175.5050  146.2900 C   0  0  0  0  0  2  0  0  0  0  0  0
  193.9490  174.5420  142.9640 C   0  0  0  0  0  2  0  0  0  0  0  0
  192.5440  174.1790  145.5140 N   0  0  0  0  0  0  0  0  0  0  0  0
  192.2370  176.5310  145.4360 N   0  0  0  0  0  2  0  0  0  0  0  0
  192.4320  174.7040  143.1330 C   0  0  0  0  0  2  0  0  0  0  0  0
  194.7500  175.5950  143.7480 C   0  0  1  0  0  3  0  0  0  0  0  0
  192.8910  175.3570  145.9360 C   0  0  0  0  0  0  0  0  0  0  0  0
  191.9620  173.9860  144.2770 O   0  0  0  0  0  0  0  0  0  0  0  0
  195.2180  175.0610  145.1140 C   0  0  0  0  0  2  0  0  0  0  0  0
  197.0910  175.7840  143.3590 O   0  0  0  0  0  0  0  0  0  0  0  0
  195.7520  176.7350  141.7190 N   0  0  0  0  0  1  0  0  0  0  0  0
  195.9290  176.0340  142.9460 C   0  0  0  0  0  0  0  0  0  0  0  0
  1  2  1  0  0  0  0
  2 16  1  0  0  0  0
  3  6  1  0  0  0  0
  4  1  2  0  0  0  0
  5  3  2  0  0  0  0
  5  1  1  0  0  0  0
  6  2  2  0  0  0  0
  8 10  2  0  0  0  0
  9  3  1  0  0  0  0
  9  7  2  0  0  0  0
 10  7  1  0  0  0  0
 11 12  2  0  0  0  0
 11  8  1  0  0  0  0
 12  9  1  0  0  0  0
 13 15  2  0  0  0  0
 15  8  1  0  0  0  0
 15 14  1  0  0  0  0
 16 17  1  6  0  0  0
 19 22  1  0  0  0  0
 19 23  1  0  0  0  0
 20 24  2  0  0  0  0
 21 16  1  0  0  0  0
 21 24  1  0  0  0  0
 22 25  1  0  0  0  0
 23 29  1  6  0  0  0
 23 26  1  0  0  0  0
 24 18  1  0  0  0  0
 25 20  1  0  0  0  0
 26 18  1  0  0  0  0
 28 29  1  0  0  0  0
 29 27  2  0  0  0  0
M  END
>  <MODEL>
9

>  <REMARK>
 VINA RESULT:      -6.6      2.909      4.418
  Name = 
  5 active torsions:
  status: ('A' for Active; 'I' for Inactive)
    1  A    between atoms: C_7  and  C_23
    2  A    between atoms: N_8  and  C_13
    3  A    between atoms: C_12  and  C_13
    4  A    between atoms: C_14  and  C_16
    5  A    between atoms: C_18  and  C_24
                            x       y       z     vdW  Elec       q    Type
                         _______ _______ _______ _____ _____    ______ ____

>  <TORSDO>
F 5

$$$$
