=
 OpenBabel11042419393D

 70 75  0  0  1  0  0  0  0  0999 V2000
  190.8000  171.9110  140.1250 C   0  0  2  0  0  3  0  0  0  0  0  0
  190.9670  169.3220  141.4540 S   0  0  0  0  0  0  0  0  0  0  0  0
  191.6220  170.7040  140.5260 C   0  0  1  0  0  3  0  0  0  0  0  0
  193.4940  169.2540  140.4920 C   0  0  1  0  0  3  0  0  0  0  0  0
  192.3480  168.3100  140.8330 C   0  0  0  0  0  2  0  0  0  0  0  0
  192.8670  170.5470  140.0870 C   0  0  0  0  0  2  0  0  0  0  0  0
  195.7060  169.7610  141.6030 C   0  0  0  0  0  0  0  0  0  0  0  0
  194.3230  169.4350  141.6650 N   0  0  0  0  0  2  0  0  0  0  0  0
  196.2490  170.0590  140.5010 O   0  0  0  0  0  0  0  0  0  0  0  0
  197.7370  168.8530  142.7760 C   0  0  0  0  0  1  0  0  0  0  0  0
  196.5090  169.7390  142.8680 C   0  0  2  0  0  3  0  0  0  0  0  0
  195.6370  169.5000  144.1090 C   0  0  0  0  0  2  0  0  0  0  0  0
  195.2960  170.7400  144.9650 C   0  0  2  0  0  3  0  0  0  0  0  0
  194.9210  170.5110  146.3030 O   0  0  0  0  0  1  0  0  0  0  0  0
  193.2760  172.2550  144.8260 C   0  0  0  0  0  1  0  0  0  0  0  0
  194.6630  171.9690  144.2880 C   0  0  1  0  0  3  0  0  0  0  0  0
  195.4830  173.2940  144.2790 C   0  0  1  0  0  3  0  0  0  0  0  0
  195.6480  173.9230  145.6730 C   0  0  0  0  0  1  0  0  0  0  0  0
  196.7520  173.0420  143.7120 O   0  0  0  0  0  0  0  0  0  0  0  0
  197.9370  173.5240  141.7850 O   0  0  0  0  0  1  0  0  0  0  0  0
  196.6650  173.3450  142.3320 C   0  0  2  0  0  3  0  0  0  0  0  0
  195.8330  174.6160  142.1390 C   0  0  0  0  0  2  0  0  0  0  0  0
  196.1090  177.0100  141.4560 O   0  0  0  0  0  0  0  0  0  0  0  0
  197.9340  175.6400  141.7170 O   0  0  0  0  0  1  0  0  0  0  0  0
  196.6780  175.7770  141.7350 C   0  0  0  0  0  0  0  0  0  0  0  0
  189.6520  173.7760  141.2680 C   0  0  0  0  0  3  0  0  0  0  0  0
  190.0610  172.5410  141.2300 N   0  0  0  0  0  0  0  0  0  0  0  0
  185.8680  176.8800  145.7580 C   0  0  0  0  0  0  0  0  0  0  0  0
  185.5600  177.1510  144.3430 C   0  0  0  0  0  0  0  0  0  0  0  0
  188.1810  176.2910  145.0650 C   0  0  2  0  0  3  0  0  0  0  0  0
  185.4690  177.9670  141.6580 C   0  0  0  0  0  3  0  0  0  0  0  0
  187.7770  176.4440  141.1040 S   0  0  0  0  0  0  0  0  0  0  0  0
  189.1590  174.4460  142.4910 C   0  0  0  0  0  2  0  0  0  0  0  0
  186.4040  176.5840  143.3860 C   0  0  0  0  0  0  0  0  0  0  0  0
  184.5560  178.4950  142.5940 C   0  0  0  0  0  3  0  0  0  0  0  0
  184.5950  178.0860  143.9390 C   0  0  0  0  0  3  0  0  0  0  0  0
  187.5420  175.7110  143.7910 C   0  0  1  0  0  3  0  0  0  0  0  0
  184.9950  176.9920  146.6500 O   0  0  0  0  0  0  0  0  0  0  0  0
  188.3830  175.5430  142.5640 C   0  0  2  0  0  3  0  0  0  0  0  0
  187.1490  176.3600  146.0780 O   0  0  0  0  0  0  0  0  0  0  0  0
  186.3880  177.0010  142.0680 C   0  0  0  0  0  0  0  0  0  0  0  0
  188.6660  177.5860  144.8080 O   0  0  0  0  0  0  0  0  0  0  0  0
  189.9910  177.6110  145.2530 C   0  0  1  0  0  3  0  0  0  0  0  0
  190.0020  177.2150  146.7280 C   0  0  0  0  0  2  0  0  0  0  0  0
  190.9830  176.0700  146.9650 C   0  0  0  0  0  2  0  0  0  0  0  0
  192.3110  176.6290  147.4340 C   0  0  0  0  0  1  0  0  0  0  0  0
  190.7460  176.7120  144.4990 O   0  0  0  0  0  0  0  0  0  0  0  0
  191.3590  177.4620  143.4870 C   0  0  0  0  0  2  0  0  0  0  0  0
  192.7860  175.5390  143.6120 O   0  0  0  0  0  1  0  0  0  0  0  0
  192.4250  176.6230  142.8070 C   0  0  0  0  0  2  0  0  0  0  0  0
  189.8390  171.5550  139.0620 N   0  0  0  0  0  2  0  0  0  0  0  0
  190.7900  173.3630  137.8910 O   0  0  0  0  0  0  0  0  0  0  0  0
  189.6510  173.0940  135.8240 C   0  0  0  0  0  2  0  0  0  0  0  0
  190.3460  172.0410  137.7720 C   0  0  2  0  0  3  0  0  0  0  0  0
  190.2970  174.0590  136.7740 C   0  0  2  0  0  3  0  0  0  0  0  0
  189.2550  171.9880  136.7280 C   0  0  0  0  0  2  0  0  0  0  0  0
  191.4300  174.8540  136.1530 C   0  0  0  0  0  2  0  0  0  0  0  0
  192.6680  174.1210  136.1400 N   0  0  0  0  0  0  0  0  0  0  0  0
  193.5590  174.3010  135.2280 C   0  0  0  0  0  3  0  0  0  0  0  0
  196.4370  171.5900  136.9160 C   0  0  2  0  0  3  0  0  0  0  0  0
  195.7490  171.2470  135.5940 C   0  0  2  0  0  3  0  0  0  0  0  0
  195.8990  175.2250  136.6150 O   0  0  0  0  0  0  0  0  0  0  0  0
  194.4920  172.0630  135.4090 C   0  0  0  0  0  2  0  0  0  0  0  0
  194.8430  173.5380  135.2740 C   0  0  2  0  0  3  0  0  0  0  0  0
  196.4480  173.0360  137.2100 N   0  0  0  0  0  0  0  0  0  0  0  0
  197.0320  173.4890  138.4650 C   0  0  0  0  0  1  0  0  0  0  0  0
  195.7300  173.9920  136.4020 C   0  0  0  0  0  0  0  0  0  0  0  0
  195.4310  169.8820  135.5570 O   0  0  0  0  0  1  0  0  0  0  0  0
  197.9410  169.8780  137.6670 O   0  0  0  0  0  1  0  0  0  0  0  0
  197.8590  171.0410  136.8890 C   0  0  0  0  0  2  0  0  0  0  0  0
  1 51  1  6  0  0  0
  1 27  1  0  0  0  0
  3  1  1  6  0  0  0
  3  2  1  0  0  0  0
  4  5  1  0  0  0  0
  4  8  1  1  0  0  0
  5  2  1  0  0  0  0
  6  4  1  0  0  0  0
  6  3  1  0  0  0  0
  7  8  1  0  0  0  0
  7 11  1  0  0  0  0
  9  7  2  0  0  0  0
 11 10  1  6  0  0  0
 11 12  1  0  0  0  0
 12 13  1  0  0  0  0
 13 14  1  1  0  0  0
 16 15  1  1  0  0  0
 16 13  1  0  0  0  0
 17 16  1  0  0  0  0
 17 18  1  1  0  0  0
 19 17  1  0  0  0  0
 21 20  1  1  0  0  0
 21 19  1  0  0  0  0
 22 21  1  0  0  0  0
 23 25  2  0  0  0  0
 24 25  1  0  0  0  0
 25 22  1  0  0  0  0
 26 33  1  0  0  0  0
 27 26  2  0  0  0  0
 28 40  1  0  0  0  0
 28 38  2  0  0  0  0
 29 28  1  0  0  0  0
 30 42  1  6  0  0  0
 30 40  1  0  0  0  0
 31 41  2  0  0  0  0
 31 35  1  0  0  0  0
 32 41  1  0  0  0  0
 32 39  1  0  0  0  0
 34 29  2  0  0  0  0
 35 36  2  0  0  0  0
 36 29  1  0  0  0  0
 37 34  1  6  0  0  0
 37 30  1  0  0  0  0
 39 33  1  6  0  0  0
 39 37  1  0  0  0  0
 41 34  1  0  0  0  0
 42 43  1  0  0  0  0
 43 44  1  1  0  0  0
 44 45  1  0  0  0  0
 45 46  1  0  0  0  0
 47 43  1  0  0  0  0
 48 47  1  0  0  0  0
 50 48  1  0  0  0  0
 50 49  1  0  0  0  0
 53 56  1  0  0  0  0
 53 55  1  0  0  0  0
 54 52  1  0  0  0  0
 54 51  1  1  0  0  0
 55 57  1  6  0  0  0
 55 52  1  0  0  0  0
 56 54  1  0  0  0  0
 58 57  1  0  0  0  0
 59 58  2  0  0  0  0
 60 70  1  6  0  0  0
 60 65  1  0  0  0  0
 61 68  1  1  0  0  0
 61 60  1  0  0  0  0
 63 61  1  0  0  0  0
 64 59  1  1  0  0  0
 64 63  1  0  0  0  0
 64 67  1  0  0  0  0
 65 66  1  0  0  0  0
 67 62  2  0  0  0  0
 67 65  1  0  0  0  0
 70 69  1  0  0  0  0
M  END
>  <MODEL>
1

>  <REMARK>
 VINA RESULT:      -5.7      0.000      0.000
  Name = 
  26 active torsions:
  status: ('A' for Active; 'I' for Inactive)
    1  A    between atoms: C_1  and  C_28
    2  A    between atoms: C_1  and  C_69
    3  A    between atoms: C_2  and  O_10
    4  A    between atoms: C_2  and  C_39
    5  A    between atoms: C_2  and  O_59
    6  A    between atoms: N_4  and  C_18
    7  A    between atoms: C_6  and  C_39
    8  A    between atoms: O_10  and  C_29
    9  A    between atoms: C_11  and  C_29
   10  A    between atoms: C_12  and  O_24
   11  A    between atoms: C_12  and  C_28
   12  A    between atoms: C_13  and  C_67
   13  A    between atoms: C_15  and  C_35
   14  A    between atoms: N_16  and  C_44
   15  A    between atoms: N_16  and  C_54
   16  A    between atoms: C_17  and  C_26
   17  A    between atoms: C_18  and  C_47
   18  A    between atoms: C_20  and  O_59
   19  A    between atoms: O_24  and  C_65
   20  A    between atoms: C_26  and  C_69
   21  A    between atoms: N_30  and  C_54
   22  A    between atoms: C_31  and  C_54
   23  A    between atoms: C_37  and  N_55
   24  A    between atoms: C_38  and  C_49
   25  A    between atoms: C_38  and  C_65
   26  A    between atoms: C_48  and  C_64
                            x       y       z     vdW  Elec       q    Type
                         _______ _______ _______ _____ _____    ______ ____

>  <TORSDO>
F 26

$$$$
=
 OpenBabel11042419393D

 70 75  0  0  1  0  0  0  0  0999 V2000
  190.6410  171.7550  140.2950 C   0  0  2  0  0  3  0  0  0  0  0  0
  190.9750  169.3100  141.8470 S   0  0  0  0  0  0  0  0  0  0  0  0
  191.4860  170.5550  140.6680 C   0  0  1  0  0  3  0  0  0  0  0  0
  193.2720  169.0160  140.4480 C   0  0  1  0  0  3  0  0  0  0  0  0
  192.1830  168.1710  141.0960 C   0  0  0  0  0  2  0  0  0  0  0  0
  192.6200  170.2910  140.0270 C   0  0  0  0  0  2  0  0  0  0  0  0
  195.3930  170.1700  141.1920 C   0  0  0  0  0  0  0  0  0  0  0  0
  194.3130  169.2730  141.4200 N   0  0  0  0  0  2  0  0  0  0  0  0
  195.4120  170.9090  140.1670 O   0  0  0  0  0  0  0  0  0  0  0  0
  197.5460  169.1280  141.9710 C   0  0  0  0  0  1  0  0  0  0  0  0
  196.5120  170.2170  142.1880 C   0  0  2  0  0  3  0  0  0  0  0  0
  196.0050  170.3440  143.6320 C   0  0  0  0  0  2  0  0  0  0  0  0
  195.9080  171.7720  144.2090 C   0  0  2  0  0  3  0  0  0  0  0  0
  195.9780  171.9030  145.6090 O   0  0  0  0  0  1  0  0  0  0  0  0
  193.5710  172.5590  143.6480 C   0  0  0  0  0  1  0  0  0  0  0  0
  195.0530  172.8220  143.4760 C   0  0  1  0  0  3  0  0  0  0  0  0
  195.3360  174.3250  143.7770 C   0  0  1  0  0  3  0  0  0  0  0  0
  196.8330  174.6810  143.7690 C   0  0  0  0  0  1  0  0  0  0  0  0
  194.6490  175.1170  142.8310 O   0  0  0  0  0  0  0  0  0  0  0  0
  195.5010  176.7120  141.3880 O   0  0  0  0  0  1  0  0  0  0  0  0
  195.5420  175.3670  141.7610 C   0  0  2  0  0  3  0  0  0  0  0  0
  195.1670  174.4850  140.5660 C   0  0  0  0  0  2  0  0  0  0  0  0
  197.2980  174.8960  139.3140 O   0  0  0  0  0  1  0  0  0  0  0  0
  195.2600  175.1230  138.2800 O   0  0  0  0  0  0  0  0  0  0  0  0
  195.9110  174.8760  139.3340 C   0  0  0  0  0  0  0  0  0  0  0  0
  188.9340  173.1900  141.3570 C   0  0  0  0  0  3  0  0  0  0  0  0
  189.9680  172.4050  141.4310 N   0  0  0  0  0  0  0  0  0  0  0  0
  185.3920  177.3110  145.1760 C   0  0  0  0  0  0  0  0  0  0  0  0
  185.3070  177.5310  143.7220 C   0  0  0  0  0  0  0  0  0  0  0  0
  187.5970  176.2250  144.8090 C   0  0  2  0  0  3  0  0  0  0  0  0
  185.6870  178.1450  141.0090 C   0  0  0  0  0  3  0  0  0  0  0  0
  187.6790  176.1570  140.8260 S   0  0  0  0  0  0  0  0  0  0  0  0
  188.4560  174.0350  142.4740 C   0  0  0  0  0  2  0  0  0  0  0  0
  186.1180  176.7380  142.9080 C   0  0  0  0  0  0  0  0  0  0  0  0
  184.8030  178.9130  141.7950 C   0  0  0  0  0  3  0  0  0  0  0  0
  184.6070  178.6060  143.1530 C   0  0  0  0  0  3  0  0  0  0  0  0
  186.9990  175.6900  143.4950 C   0  0  1  0  0  3  0  0  0  0  0  0
  184.4660  177.6610  145.9460 O   0  0  0  0  0  0  0  0  0  0  0  0
  187.9190  175.2660  142.3930 C   0  0  2  0  0  3  0  0  0  0  0  0
  186.4950  176.5730  145.6800 O   0  0  0  0  0  0  0  0  0  0  0  0
  186.3350  177.0490  141.5780 C   0  0  0  0  0  0  0  0  0  0  0  0
  188.3640  177.3750  144.5480 O   0  0  0  0  0  0  0  0  0  0  0  0
  189.6520  177.1110  145.0210 C   0  0  1  0  0  3  0  0  0  0  0  0
  190.6100  178.1050  144.3680 C   0  0  0  0  0  2  0  0  0  0  0  0
  191.4260  177.4210  143.2760 C   0  0  0  0  0  2  0  0  0  0  0  0
  191.3460  175.9180  143.4480 C   0  0  0  0  0  1  0  0  0  0  0  0
  189.6700  177.2540  146.4100 O   0  0  0  0  0  0  0  0  0  0  0  0
  190.5860  176.3100  146.8920 C   0  0  0  0  0  2  0  0  0  0  0  0
  192.7510  176.6540  147.8650 O   0  0  0  0  0  1  0  0  0  0  0  0
  191.3870  176.9150  148.0300 C   0  0  0  0  0  2  0  0  0  0  0  0
  189.6190  171.3810  139.2970 N   0  0  0  0  0  2  0  0  0  0  0  0
  190.9630  172.9620  138.1850 O   0  0  0  0  0  0  0  0  0  0  0  0
  189.3340  173.8330  136.6910 C   0  0  0  0  0  2  0  0  0  0  0  0
  189.9360  172.0260  138.0170 C   0  0  2  0  0  3  0  0  0  0  0  0
  190.5810  174.1140  137.4770 C   0  0  2  0  0  3  0  0  0  0  0  0
  188.7180  172.7340  137.4720 C   0  0  0  0  0  2  0  0  0  0  0  0
  191.7470  174.5710  136.6210 C   0  0  0  0  0  2  0  0  0  0  0  0
  192.6960  173.5160  136.3830 N   0  0  0  0  0  0  0  0  0  0  0  0
  192.4520  172.5480  135.5700 C   0  0  0  0  0  3  0  0  0  0  0  0
  195.6090  169.8470  136.6760 C   0  0  2  0  0  3  0  0  0  0  0  0
  194.2680  169.2950  136.1890 C   0  0  2  0  0  3  0  0  0  0  0  0
  195.2150  173.1240  135.0320 O   0  0  0  0  0  0  0  0  0  0  0  0
  193.1840  170.3430  136.2860 C   0  0  0  0  0  2  0  0  0  0  0  0
  193.4820  171.4910  135.3320 C   0  0  2  0  0  3  0  0  0  0  0  0
  195.8730  171.2250  136.2200 N   0  0  0  0  0  0  0  0  0  0  0  0
  197.0970  171.8830  136.6560 C   0  0  0  0  0  1  0  0  0  0  0  0
  194.8810  172.0110  135.5270 C   0  0  0  0  0  0  0  0  0  0  0  0
  193.9060  168.1740  136.9480 O   0  0  0  0  0  1  0  0  0  0  0  0
  197.7740  168.9260  137.1440 O   0  0  0  0  0  1  0  0  0  0  0  0
  196.7230  168.9110  136.2170 C   0  0  0  0  0  2  0  0  0  0  0  0
  1 51  1  6  0  0  0
  1 27  1  0  0  0  0
  3  1  1  6  0  0  0
  3  2  1  0  0  0  0
  4  5  1  0  0  0  0
  4  8  1  1  0  0  0
  5  2  1  0  0  0  0
  6  4  1  0  0  0  0
  6  3  1  0  0  0  0
  7  8  1  0  0  0  0
  7 11  1  0  0  0  0
  9  7  2  0  0  0  0
 11 10  1  1  0  0  0
 11 12  1  0  0  0  0
 12 13  1  0  0  0  0
 13 14  1  1  0  0  0
 16 15  1  1  0  0  0
 16 17  1  0  0  0  0
 16 13  1  0  0  0  0
 17 18  1  6  0  0  0
 19 17  1  0  0  0  0
 21 20  1  6  0  0  0
 21 19  1  0  0  0  0
 22 21  1  0  0  0  0
 23 25  1  0  0  0  0
 24 25  2  0  0  0  0
 25 22  1  0  0  0  0
 26 27  2  0  0  0  0
 26 33  1  0  0  0  0
 28 40  1  0  0  0  0
 28 38  2  0  0  0  0
 29 28  1  0  0  0  0
 30 42  1  6  0  0  0
 30 40  1  0  0  0  0
 31 41  2  0  0  0  0
 31 35  1  0  0  0  0
 32 41  1  0  0  0  0
 32 39  1  0  0  0  0
 34 29  2  0  0  0  0
 35 36  2  0  0  0  0
 36 29  1  0  0  0  0
 37 34  1  6  0  0  0
 37 30  1  0  0  0  0
 39 33  1  6  0  0  0
 39 37  1  0  0  0  0
 41 34  1  0  0  0  0
 42 43  1  0  0  0  0
 43 44  1  6  0  0  0
 43 47  1  0  0  0  0
 45 46  1  0  0  0  0
 45 44  1  0  0  0  0
 47 48  1  0  0  0  0
 48 50  1  0  0  0  0
 49 50  1  0  0  0  0
 53 56  1  0  0  0  0
 53 55  1  0  0  0  0
 54 52  1  0  0  0  0
 54 51  1  1  0  0  0
 55 57  1  6  0  0  0
 55 52  1  0  0  0  0
 56 54  1  0  0  0  0
 58 57  1  0  0  0  0
 59 58  2  0  0  0  0
 60 70  1  6  0  0  0
 61 63  1  0  0  0  0
 61 60  1  0  0  0  0
 61 68  1  1  0  0  0
 62 67  2  0  0  0  0
 64 67  1  0  0  0  0
 64 59  1  1  0  0  0
 64 63  1  0  0  0  0
 65 66  1  0  0  0  0
 65 60  1  0  0  0  0
 67 65  1  0  0  0  0
 70 69  1  0  0  0  0
M  END
>  <MODEL>
2

>  <REMARK>
 VINA RESULT:      -5.2      1.341      1.987
  Name = 
  26 active torsions:
  status: ('A' for Active; 'I' for Inactive)
    1  A    between atoms: C_1  and  C_28
    2  A    between atoms: C_1  and  C_69
    3  A    between atoms: C_2  and  O_10
    4  A    between atoms: C_2  and  C_39
    5  A    between atoms: C_2  and  O_59
    6  A    between atoms: N_4  and  C_18
    7  A    between atoms: C_6  and  C_39
    8  A    between atoms: O_10  and  C_29
    9  A    between atoms: C_11  and  C_29
   10  A    between atoms: C_12  and  O_24
   11  A    between atoms: C_12  and  C_28
   12  A    between atoms: C_13  and  C_67
   13  A    between atoms: C_15  and  C_35
   14  A    between atoms: N_16  and  C_44
   15  A    between atoms: N_16  and  C_54
   16  A    between atoms: C_17  and  C_26
   17  A    between atoms: C_18  and  C_47
   18  A    between atoms: C_20  and  O_59
   19  A    between atoms: O_24  and  C_65
   20  A    between atoms: C_26  and  C_69
   21  A    between atoms: N_30  and  C_54
   22  A    between atoms: C_31  and  C_54
   23  A    between atoms: C_37  and  N_55
   24  A    between atoms: C_38  and  C_49
   25  A    between atoms: C_38  and  C_65
   26  A    between atoms: C_48  and  C_64
                            x       y       z     vdW  Elec       q    Type
                         _______ _______ _______ _____ _____    ______ ____

>  <TORSDO>
F 26

$$$$
=
 OpenBabel11042419393D

 70 75  0  0  1  0  0  0  0  0999 V2000
  190.5780  173.4940  141.1540 C   0  0  2  0  0  3  0  0  0  0  0  0
  190.7450  172.6870  143.9500 S   0  0  0  0  0  0  0  0  0  0  0  0
  191.3440  172.8140  142.2690 C   0  0  1  0  0  3  0  0  0  0  0  0
  193.0360  171.4520  143.2120 C   0  0  1  0  0  3  0  0  0  0  0  0
  191.8900  171.2930  144.2030 C   0  0  0  0  0  2  0  0  0  0  0  0
  192.4680  172.1480  142.0210 C   0  0  0  0  0  2  0  0  0  0  0  0
  195.4660  171.9640  143.6810 C   0  0  0  0  0  0  0  0  0  0  0  0
  194.0790  172.2510  143.8200 N   0  0  0  0  0  2  0  0  0  0  0  0
  195.8620  171.0670  142.8840 O   0  0  0  0  0  0  0  0  0  0  0  0
  195.8320  173.3410  145.7530 C   0  0  0  0  0  1  0  0  0  0  0  0
  196.4480  172.7420  144.5040 C   0  0  2  0  0  3  0  0  0  0  0  0
  197.2690  173.7250  143.6580 C   0  0  0  0  0  2  0  0  0  0  0  0
  196.5350  174.4130  142.4860 C   0  0  2  0  0  3  0  0  0  0  0  0
  196.9740  174.1040  141.1850 O   0  0  0  0  0  1  0  0  0  0  0  0
  196.6590  176.8450  141.8050 C   0  0  0  0  0  1  0  0  0  0  0  0
  195.9630  175.8280  142.6860 C   0  0  1  0  0  3  0  0  0  0  0  0
  194.4220  176.0120  142.5490 C   0  0  1  0  0  3  0  0  0  0  0  0
  193.8360  175.3620  141.2840 C   0  0  0  0  0  1  0  0  0  0  0  0
  193.7940  175.4820  143.6970 O   0  0  0  0  0  0  0  0  0  0  0  0
  193.3810  176.5790  145.6910 O   0  0  0  0  0  1  0  0  0  0  0  0
  193.0960  176.5410  144.3250 C   0  0  2  0  0  3  0  0  0  0  0  0
  191.5910  176.3590  144.1120 C   0  0  0  0  0  2  0  0  0  0  0  0
  189.6960  177.7390  144.9970 O   0  0  0  0  0  1  0  0  0  0  0  0
  191.3340  178.6830  143.6930 O   0  0  0  0  0  0  0  0  0  0  0  0
  190.8530  177.6490  144.2370 C   0  0  0  0  0  0  0  0  0  0  0  0
  188.4580  174.7430  141.3690 C   0  0  0  0  0  3  0  0  0  0  0  0
  189.7340  174.6180  141.5890 N   0  0  0  0  0  0  0  0  0  0  0  0
  185.6100  180.1000  144.0720 C   0  0  0  0  0  0  0  0  0  0  0  0
  185.7370  178.9170  144.9410 C   0  0  0  0  0  0  0  0  0  0  0  0
  185.6870  178.5750  142.1110 C   0  0  2  0  0  3  0  0  0  0  0  0
  185.5620  176.4450  146.2610 C   0  0  0  0  0  3  0  0  0  0  0  0
  186.4900  175.1300  143.9450 S   0  0  0  0  0  0  0  0  0  0  0  0
  187.7020  175.9970  141.5780 C   0  0  0  0  0  2  0  0  0  0  0  0
  186.2450  177.7520  144.3640 C   0  0  0  0  0  0  0  0  0  0  0  0
  185.1140  177.6230  146.8940 C   0  0  0  0  0  3  0  0  0  0  0  0
  185.2040  178.8640  146.2380 C   0  0  0  0  0  3  0  0  0  0  0  0
  186.6740  177.7290  142.9370 C   0  0  1  0  0  3  0  0  0  0  0  0
  185.5520  181.2580  144.5480 O   0  0  0  0  0  0  0  0  0  0  0  0
  186.8650  176.2860  142.5920 C   0  0  2  0  0  3  0  0  0  0  0  0
  185.6860  179.9110  142.6670 O   0  0  0  0  0  0  0  0  0  0  0  0
  186.1370  176.5250  144.9930 C   0  0  0  0  0  0  0  0  0  0  0  0
  184.3950  178.0300  142.2100 O   0  0  0  0  0  0  0  0  0  0  0  0
  183.9620  177.7900  140.9020 C   0  0  1  0  0  3  0  0  0  0  0  0
  182.7410  178.6680  140.6400 C   0  0  0  0  0  2  0  0  0  0  0  0
  181.5040  178.0760  141.3110 C   0  0  0  0  0  2  0  0  0  0  0  0
  180.7060  179.1830  141.9700 C   0  0  0  0  0  1  0  0  0  0  0  0
  184.9910  178.1050  140.0130 O   0  0  0  0  0  0  0  0  0  0  0  0
  185.0550  177.0500  139.0940 C   0  0  0  0  0  2  0  0  0  0  0  0
  186.4920  176.0610  137.4480 O   0  0  0  0  0  1  0  0  0  0  0  0
  186.4530  176.9690  138.5100 C   0  0  0  0  0  2  0  0  0  0  0  0
  189.7290  172.5200  140.4380 N   0  0  0  0  0  2  0  0  0  0  0  0
  189.9010  173.5290  138.3170 O   0  0  0  0  0  0  0  0  0  0  0  0
  189.5620  171.6000  136.9720 C   0  0  0  0  0  2  0  0  0  0  0  0
  190.2120  172.3820  139.0590 C   0  0  2  0  0  3  0  0  0  0  0  0
  189.4030  173.0880  137.0790 C   0  0  2  0  0  3  0  0  0  0  0  0
  189.5690  171.1870  138.3960 C   0  0  0  0  0  2  0  0  0  0  0  0
  190.1010  173.8530  135.9710 C   0  0  0  0  0  2  0  0  0  0  0  0
  191.3180  173.2120  135.5470 N   0  0  0  0  0  0  0  0  0  0  0  0
  192.4730  173.5900  135.9720 C   0  0  0  0  0  3  0  0  0  0  0  0
  195.9620  171.1300  136.4820 C   0  0  2  0  0  3  0  0  0  0  0  0
  194.8100  170.6480  135.5980 C   0  0  2  0  0  3  0  0  0  0  0  0
  195.1130  174.7050  136.1780 O   0  0  0  0  0  0  0  0  0  0  0  0
  193.5400  171.4070  135.9020 C   0  0  0  0  0  2  0  0  0  0  0  0
  193.7070  172.8730  135.5270 C   0  0  2  0  0  3  0  0  0  0  0  0
  196.0000  172.5970  136.6410 N   0  0  0  0  0  0  0  0  0  0  0  0
  197.0220  173.1790  137.4990 C   0  0  0  0  0  1  0  0  0  0  0  0
  194.9510  173.4530  136.1430 C   0  0  0  0  0  0  0  0  0  0  0  0
  194.5950  169.2760  135.7950 O   0  0  0  0  0  1  0  0  0  0  0  0
  197.8560  169.6850  136.7620 O   0  0  0  0  0  1  0  0  0  0  0  0
  197.2760  170.6230  135.8970 C   0  0  0  0  0  2  0  0  0  0  0  0
  1 51  1  1  0  0  0
  1 27  1  0  0  0  0
  2  5  1  0  0  0  0
  3  1  1  6  0  0  0
  3  2  1  0  0  0  0
  4  8  1  1  0  0  0
  4  5  1  0  0  0  0
  6  3  1  0  0  0  0
  6  4  1  0  0  0  0
  7  8  1  0  0  0  0
  7 11  1  0  0  0  0
  9  7  2  0  0  0  0
 11 10  1  1  0  0  0
 12 11  1  0  0  0  0
 13 14  1  6  0  0  0
 13 16  1  0  0  0  0
 13 12  1  0  0  0  0
 16 15  1  6  0  0  0
 17 18  1  6  0  0  0
 17 16  1  0  0  0  0
 17 19  1  0  0  0  0
 19 21  1  0  0  0  0
 21 20  1  1  0  0  0
 22 25  1  0  0  0  0
 22 21  1  0  0  0  0
 24 25  2  0  0  0  0
 25 23  1  0  0  0  0
 26 33  1  0  0  0  0
 26 27  2  0  0  0  0
 28 38  2  0  0  0  0
 28 29  1  0  0  0  0
 29 36  1  0  0  0  0
 30 42  1  1  0  0  0
 30 40  1  0  0  0  0
 30 37  1  0  0  0  0
 31 35  1  0  0  0  0
 32 41  1  0  0  0  0
 34 29  2  0  0  0  0
 34 41  1  0  0  0  0
 36 35  2  0  0  0  0
 37 34  1  1  0  0  0
 39 33  1  1  0  0  0
 39 37  1  0  0  0  0
 39 32  1  0  0  0  0
 40 28  1  0  0  0  0
 41 31  2  0  0  0  0
 43 44  1  6  0  0  0
 43 42  1  0  0  0  0
 44 45  1  0  0  0  0
 45 46  1  0  0  0  0
 47 43  1  0  0  0  0
 48 47  1  0  0  0  0
 49 50  1  0  0  0  0
 50 48  1  0  0  0  0
 52 54  1  0  0  0  0
 53 55  1  0  0  0  0
 53 56  1  0  0  0  0
 54 51  1  1  0  0  0
 55 57  1  6  0  0  0
 55 52  1  0  0  0  0
 56 54  1  0  0  0  0
 58 57  1  0  0  0  0
 58 59  2  0  0  0  0
 60 70  1  6  0  0  0
 60 65  1  0  0  0  0
 61 68  1  1  0  0  0
 61 63  1  0  0  0  0
 61 60  1  0  0  0  0
 64 63  1  0  0  0  0
 64 59  1  1  0  0  0
 64 67  1  0  0  0  0
 65 66  1  0  0  0  0
 67 62  2  0  0  0  0
 67 65  1  0  0  0  0
 70 69  1  0  0  0  0
M  END
>  <MODEL>
3

>  <REMARK>
 VINA RESULT:      -5.0      2.192      4.660
  Name = 
  26 active torsions:
  status: ('A' for Active; 'I' for Inactive)
    1  A    between atoms: C_1  and  C_28
    2  A    between atoms: C_1  and  C_69
    3  A    between atoms: C_2  and  O_10
    4  A    between atoms: C_2  and  C_39
    5  A    between atoms: C_2  and  O_59
    6  A    between atoms: N_4  and  C_18
    7  A    between atoms: C_6  and  C_39
    8  A    between atoms: O_10  and  C_29
    9  A    between atoms: C_11  and  C_29
   10  A    between atoms: C_12  and  O_24
   11  A    between atoms: C_12  and  C_28
   12  A    between atoms: C_13  and  C_67
   13  A    between atoms: C_15  and  C_35
   14  A    between atoms: N_16  and  C_44
   15  A    between atoms: N_16  and  C_54
   16  A    between atoms: C_17  and  C_26
   17  A    between atoms: C_18  and  C_47
   18  A    between atoms: C_20  and  O_59
   19  A    between atoms: O_24  and  C_65
   20  A    between atoms: C_26  and  C_69
   21  A    between atoms: N_30  and  C_54
   22  A    between atoms: C_31  and  C_54
   23  A    between atoms: C_37  and  N_55
   24  A    between atoms: C_38  and  C_49
   25  A    between atoms: C_38  and  C_65
   26  A    between atoms: C_48  and  C_64
                            x       y       z     vdW  Elec       q    Type
                         _______ _______ _______ _____ _____    ______ ____

>  <TORSDO>
F 26

$$$$
=
 OpenBabel11042419393D

 70 75  0  0  1  0  0  0  0  0999 V2000
  194.4780  174.5680  140.2700 C   0  0  2  0  0  3  0  0  0  0  0  0
  197.1730  173.5020  140.5820 S   0  0  0  0  0  0  0  0  0  0  0  0
  195.6240  174.1710  141.1760 C   0  0  1  0  0  3  0  0  0  0  0  0
  196.8390  174.0640  143.2060 C   0  0  1  0  0  3  0  0  0  0  0  0
  197.9400  174.0020  142.1560 C   0  0  0  0  0  2  0  0  0  0  0  0
  195.5860  174.4260  142.4810 C   0  0  0  0  0  2  0  0  0  0  0  0
  196.2590  172.5820  145.1690 C   0  0  0  0  0  0  0  0  0  0  0  0
  196.7090  172.7650  143.8320 N   0  0  0  0  0  2  0  0  0  0  0  0
  195.8040  173.5550  145.8350 O   0  0  0  0  0  0  0  0  0  0  0  0
  197.5060  170.3990  145.2460 C   0  0  0  0  0  1  0  0  0  0  0  0
  196.3410  171.2140  145.7760 C   0  0  2  0  0  3  0  0  0  0  0  0
  194.9890  170.4870  145.7620 C   0  0  0  0  0  2  0  0  0  0  0  0
  194.5460  169.8740  144.4150 C   0  0  2  0  0  3  0  0  0  0  0  0
  195.3080  168.8000  143.9180 O   0  0  0  0  0  1  0  0  0  0  0  0
  194.4900  170.5700  141.9840 C   0  0  0  0  0  1  0  0  0  0  0  0
  193.8880  170.7810  143.3590 C   0  0  1  0  0  3  0  0  0  0  0  0
  192.3350  170.7450  143.2390 C   0  0  1  0  0  3  0  0  0  0  0  0
  191.6130  171.4420  144.4050 C   0  0  0  0  0  1  0  0  0  0  0  0
  191.9580  171.3400  142.0150 O   0  0  0  0  0  0  0  0  0  0  0  0
  190.7590  169.6530  140.9830 O   0  0  0  0  0  1  0  0  0  0  0  0
  190.6690  170.8530  141.6880 C   0  0  2  0  0  3  0  0  0  0  0  0
  189.9270  171.8960  140.8470 C   0  0  0  0  0  2  0  0  0  0  0  0
  188.9710  173.1440  142.7980 O   0  0  0  0  0  1  0  0  0  0  0  0
  190.2040  174.2300  141.1940 O   0  0  0  0  0  0  0  0  0  0  0  0
  189.6870  173.1550  141.6100 C   0  0  0  0  0  0  0  0  0  0  0  0
  193.3350  176.3270  141.5740 C   0  0  0  0  0  3  0  0  0  0  0  0
  193.3330  175.1780  140.9650 N   0  0  0  0  0  0  0  0  0  0  0  0
  189.7920  177.9300  146.9580 C   0  0  0  0  0  0  0  0  0  0  0  0
  190.7700  176.8390  147.1190 C   0  0  0  0  0  0  0  0  0  0  0  0
  189.7290  177.4160  144.5280 C   0  0  2  0  0  3  0  0  0  0  0  0
  192.2580  174.4590  147.1030 C   0  0  0  0  0  3  0  0  0  0  0  0
  192.6380  174.7020  144.3190 S   0  0  0  0  0  0  0  0  0  0  0  0
  192.2620  176.7810  142.4860 C   0  0  0  0  0  2  0  0  0  0  0  0
  191.4550  176.4230  145.9770 C   0  0  0  0  0  0  0  0  0  0  0  0
  191.6370  174.9020  148.2900 C   0  0  0  0  0  3  0  0  0  0  0  0
  190.8940  176.0960  148.3030 C   0  0  0  0  0  3  0  0  0  0  0  0
  191.2270  177.0890  144.6630 C   0  0  1  0  0  3  0  0  0  0  0  0
  189.4270  178.6300  147.9320 O   0  0  0  0  0  0  0  0  0  0  0  0
  191.8770  176.2090  143.6420 C   0  0  2  0  0  3  0  0  0  0  0  0
  189.3650  178.2600  145.6460 O   0  0  0  0  0  0  0  0  0  0  0  0
  192.1660  175.2380  145.9500 C   0  0  0  0  0  0  0  0  0  0  0  0
  188.9770  176.2300  144.5760 O   0  0  0  0  0  0  0  0  0  0  0  0
  187.6360  176.6020  144.4480 C   0  0  1  0  0  3  0  0  0  0  0  0
  187.0130  176.6190  145.8420 C   0  0  0  0  0  2  0  0  0  0  0  0
  185.5010  176.8070  145.7490 C   0  0  0  0  0  2  0  0  0  0  0  0
  185.1400  178.2200  146.1610 C   0  0  0  0  0  1  0  0  0  0  0  0
  187.5650  177.8690  143.8650 O   0  0  0  0  0  0  0  0  0  0  0  0
  186.7230  177.7440  142.7510 C   0  0  0  0  0  2  0  0  0  0  0  0
  187.7640  176.3310  141.1160 O   0  0  0  0  0  1  0  0  0  0  0  0
  187.5620  177.6630  141.4890 C   0  0  0  0  0  2  0  0  0  0  0  0
  193.9940  173.4030  139.5030 N   0  0  0  0  0  2  0  0  0  0  0  0
  193.5620  172.7250  137.2900 O   0  0  0  0  0  0  0  0  0  0  0  0
  194.6030  174.5310  136.1500 C   0  0  0  0  0  2  0  0  0  0  0  0
  193.6420  173.8320  138.1440 C   0  0  2  0  0  3  0  0  0  0  0  0
  194.2300  173.0790  136.1050 C   0  0  2  0  0  3  0  0  0  0  0  0
  194.6870  174.7830  137.6090 C   0  0  0  0  0  2  0  0  0  0  0  0
  193.3510  172.7170  134.9230 C   0  0  0  0  0  2  0  0  0  0  0  0
  191.9740  173.0810  135.1330 N   0  0  0  0  0  0  0  0  0  0  0  0
  191.4270  174.0680  134.5140 C   0  0  0  0  0  3  0  0  0  0  0  0
  188.0910  175.8030  136.5980 C   0  0  2  0  0  3  0  0  0  0  0  0
  188.4500  176.2900  135.1930 C   0  0  2  0  0  3  0  0  0  0  0  0
  189.7090  172.5120  136.2110 O   0  0  0  0  0  0  0  0  0  0  0  0
  189.8650  175.9040  134.8320 C   0  0  0  0  0  2  0  0  0  0  0  0
  189.9850  174.3890  134.7420 C   0  0  2  0  0  3  0  0  0  0  0  0
  188.5790  174.4400  136.8850 N   0  0  0  0  0  0  0  0  0  0  0  0
  188.3430  173.8780  138.2080 C   0  0  0  0  0  1  0  0  0  0  0  0
  189.4470  173.7260  135.9810 C   0  0  0  0  0  0  0  0  0  0  0  0
  188.3110  177.6830  135.1180 O   0  0  0  0  0  1  0  0  0  0  0  0
  186.2620  176.5170  137.9760 O   0  0  0  0  0  1  0  0  0  0  0  0
  186.5770  175.8740  136.7720 C   0  0  0  0  0  2  0  0  0  0  0  0
  1 51  1  1  0  0  0
  1 27  1  0  0  0  0
  2  3  1  0  0  0  0
  2  5  1  0  0  0  0
  3  1  1  6  0  0  0
  3  6  1  0  0  0  0
  4  8  1  6  0  0  0
  5  4  1  0  0  0  0
  6  4  1  0  0  0  0
  7 11  1  0  0  0  0
  7  9  2  0  0  0  0
  8  7  1  0  0  0  0
 11 10  1  6  0  0  0
 12 11  1  0  0  0  0
 13 14  1  6  0  0  0
 13 12  1  0  0  0  0
 16 15  1  6  0  0  0
 16 13  1  0  0  0  0
 17 16  1  0  0  0  0
 17 18  1  1  0  0  0
 19 17  1  0  0  0  0
 21 20  1  6  0  0  0
 21 19  1  0  0  0  0
 22 25  1  0  0  0  0
 22 21  1  0  0  0  0
 24 25  2  0  0  0  0
 25 23  1  0  0  0  0
 26 33  1  0  0  0  0
 27 26  2  0  0  0  0
 28 29  1  0  0  0  0
 28 38  2  0  0  0  0
 29 36  1  0  0  0  0
 30 42  1  1  0  0  0
 30 37  1  0  0  0  0
 30 40  1  0  0  0  0
 31 35  1  0  0  0  0
 32 41  1  0  0  0  0
 34 29  2  0  0  0  0
 35 36  2  0  0  0  0
 37 34  1  1  0  0  0
 39 33  1  1  0  0  0
 39 32  1  0  0  0  0
 39 37  1  0  0  0  0
 40 28  1  0  0  0  0
 41 34  1  0  0  0  0
 41 31  2  0  0  0  0
 43 42  1  0  0  0  0
 43 44  1  1  0  0  0
 45 44  1  0  0  0  0
 45 46  1  0  0  0  0
 47 43  1  0  0  0  0
 48 47  1  0  0  0  0
 49 50  1  0  0  0  0
 50 48  1  0  0  0  0
 52 54  1  0  0  0  0
 53 56  1  0  0  0  0
 54 51  1  1  0  0  0
 55 57  1  6  0  0  0
 55 53  1  0  0  0  0
 55 52  1  0  0  0  0
 56 54  1  0  0  0  0
 57 58  1  0  0  0  0
 59 58  2  0  0  0  0
 60 70  1  6  0  0  0
 60 65  1  0  0  0  0
 61 68  1  1  0  0  0
 61 60  1  0  0  0  0
 63 61  1  0  0  0  0
 64 59  1  1  0  0  0
 64 63  1  0  0  0  0
 64 67  1  0  0  0  0
 65 66  1  0  0  0  0
 67 62  2  0  0  0  0
 67 65  1  0  0  0  0
 70 69  1  0  0  0  0
M  END
>  <MODEL>
4

>  <REMARK>
 VINA RESULT:      -4.7      2.687      6.048
  Name = 
  26 active torsions:
  status: ('A' for Active; 'I' for Inactive)
    1  A    between atoms: C_1  and  C_28
    2  A    between atoms: C_1  and  C_69
    3  A    between atoms: C_2  and  O_10
    4  A    between atoms: C_2  and  C_39
    5  A    between atoms: C_2  and  O_59
    6  A    between atoms: N_4  and  C_18
    7  A    between atoms: C_6  and  C_39
    8  A    between atoms: O_10  and  C_29
    9  A    between atoms: C_11  and  C_29
   10  A    between atoms: C_12  and  O_24
   11  A    between atoms: C_12  and  C_28
   12  A    between atoms: C_13  and  C_67
   13  A    between atoms: C_15  and  C_35
   14  A    between atoms: N_16  and  C_44
   15  A    between atoms: N_16  and  C_54
   16  A    between atoms: C_17  and  C_26
   17  A    between atoms: C_18  and  C_47
   18  A    between atoms: C_20  and  O_59
   19  A    between atoms: O_24  and  C_65
   20  A    between atoms: C_26  and  C_69
   21  A    between atoms: N_30  and  C_54
   22  A    between atoms: C_31  and  C_54
   23  A    between atoms: C_37  and  N_55
   24  A    between atoms: C_38  and  C_49
   25  A    between atoms: C_38  and  C_65
   26  A    between atoms: C_48  and  C_64
                            x       y       z     vdW  Elec       q    Type
                         _______ _______ _______ _____ _____    ______ ____

>  <TORSDO>
F 26

$$$$
=
 OpenBabel11042419393D

 70 75  0  0  1  0  0  0  0  0999 V2000
  194.5540  176.1150  145.3400 C   0  0  2  0  0  3  0  0  0  0  0  0
  196.2190  173.7480  145.6960 S   0  0  0  0  0  0  0  0  0  0  0  0
  194.6890  174.6070  145.3470 C   0  0  1  0  0  3  0  0  0  0  0  0
  193.9190  172.3670  145.3520 C   0  0  1  0  0  3  0  0  0  0  0  0
  195.2410  172.2660  146.1020 C   0  0  0  0  0  2  0  0  0  0  0  0
  193.6220  173.8240  145.2180 C   0  0  0  0  0  2  0  0  0  0  0  0
  194.5010  170.4140  143.8580 C   0  0  0  0  0  0  0  0  0  0  0  0
  194.0660  171.7550  144.0480 N   0  0  0  0  0  2  0  0  0  0  0  0
  194.6400  169.6350  144.8430 O   0  0  0  0  0  0  0  0  0  0  0  0
  196.0020  169.0240  142.3950 C   0  0  0  0  0  1  0  0  0  0  0  0
  194.7980  169.9440  142.4660 C   0  0  2  0  0  3  0  0  0  0  0  0
  194.8090  171.0960  141.4500 C   0  0  0  0  0  2  0  0  0  0  0  0
  193.7810  171.0150  140.3010 C   0  0  2  0  0  3  0  0  0  0  0  0
  192.6710  171.8780  140.3730 O   0  0  0  0  0  1  0  0  0  0  0  0
  192.5260  168.8190  140.3430 C   0  0  0  0  0  1  0  0  0  0  0  0
  193.5420  169.6650  139.6010 C   0  0  1  0  0  3  0  0  0  0  0  0
  193.1670  169.6890  138.0890 C   0  0  1  0  0  3  0  0  0  0  0  0
  193.9230  168.6430  137.2520 C   0  0  0  0  0  1  0  0  0  0  0  0
  191.7750  169.4930  137.9590 O   0  0  0  0  0  0  0  0  0  0  0  0
  190.1910  170.3060  136.4820 O   0  0  0  0  0  1  0  0  0  0  0  0
  191.2410  170.6470  137.3360 C   0  0  2  0  0  3  0  0  0  0  0  0
  192.3440  171.3570  136.5450 C   0  0  0  0  0  2  0  0  0  0  0  0
  192.8640  173.8040  136.6840 O   0  0  0  0  0  1  0  0  0  0  0  0
  190.9610  173.0600  135.6360 O   0  0  0  0  0  0  0  0  0  0  0  0
  192.0090  172.7870  136.2870 C   0  0  0  0  0  0  0  0  0  0  0  0
  192.1110  176.4260  145.1590 C   0  0  0  0  0  3  0  0  0  0  0  0
  193.3190  176.6150  144.7160 N   0  0  0  0  0  0  0  0  0  0  0  0
  186.0360  178.3310  143.2690 C   0  0  0  0  0  0  0  0  0  0  0  0
  186.1790  177.8940  144.6690 C   0  0  0  0  0  0  0  0  0  0  0  0
  188.0310  176.9570  142.7140 C   0  0  2  0  0  3  0  0  0  0  0  0
  186.5050  176.5330  147.1030 C   0  0  0  0  0  3  0  0  0  0  0  0
  189.1380  175.8350  146.3730 S   0  0  0  0  0  0  0  0  0  0  0  0
  190.8890  176.7040  144.3720 C   0  0  0  0  0  2  0  0  0  0  0  0
  187.4240  177.3990  145.0590 C   0  0  0  0  0  0  0  0  0  0  0  0
  185.2560  177.0930  146.7630 C   0  0  0  0  0  3  0  0  0  0  0  0
  185.0900  177.7790  145.5470 C   0  0  0  0  0  3  0  0  0  0  0  0
  188.5650  177.3570  144.1010 C   0  0  1  0  0  3  0  0  0  0  0  0
  185.1340  179.1290  142.9230 O   0  0  0  0  0  0  0  0  0  0  0  0
  189.6130  176.5100  144.7520 C   0  0  2  0  0  3  0  0  0  0  0  0
  187.0270  177.9290  142.3360 O   0  0  0  0  0  0  0  0  0  0  0  0
  187.5890  176.7020  146.2410 C   0  0  0  0  0  0  0  0  0  0  0  0
  187.4410  175.6830  142.7800 O   0  0  0  0  0  0  0  0  0  0  0  0
  188.3930  174.7780  142.3010 C   0  0  1  0  0  3  0  0  0  0  0  0
  187.8000  173.3730  142.3970 C   0  0  0  0  0  2  0  0  0  0  0  0
  188.8250  172.4000  142.9720 C   0  0  0  0  0  2  0  0  0  0  0  0
  190.1260  173.1300  143.2360 C   0  0  0  0  0  1  0  0  0  0  0  0
  188.6990  175.0910  140.9760 O   0  0  0  0  0  0  0  0  0  0  0  0
  187.8520  174.3080  140.1800 C   0  0  0  0  0  2  0  0  0  0  0  0
  189.4800  173.7660  138.5040 O   0  0  0  0  0  1  0  0  0  0  0  0
  188.2690  174.4280  138.7260 C   0  0  0  0  0  2  0  0  0  0  0  0
  195.7080  176.7360  144.6580 N   0  0  0  0  0  2  0  0  0  0  0  0
  196.9260  176.6350  142.6450 O   0  0  0  0  0  0  0  0  0  0  0  0
  195.3860  175.3670  141.3550 C   0  0  0  0  0  2  0  0  0  0  0  0
  196.0830  175.9150  143.5000 C   0  0  2  0  0  3  0  0  0  0  0  0
  196.4650  176.4090  141.3370 C   0  0  2  0  0  3  0  0  0  0  0  0
  194.8500  175.5010  142.7310 C   0  0  0  0  0  2  0  0  0  0  0  0
  197.6470  176.0410  140.4590 C   0  0  0  0  0  2  0  0  0  0  0  0
  197.3240  175.0050  139.5140 N   0  0  0  0  0  0  0  0  0  0  0  0
  196.2380  175.0250  138.8230 C   0  0  0  0  0  3  0  0  0  0  0  0
  197.2690  171.8660  136.0950 C   0  0  2  0  0  3  0  0  0  0  0  0
  196.4510  171.5550  137.3500 C   0  0  2  0  0  3  0  0  0  0  0  0
  196.3190  175.4270  135.9790 O   0  0  0  0  0  0  0  0  0  0  0  0
  196.5820  172.6610  138.3690 C   0  0  0  0  0  2  0  0  0  0  0  0
  195.9610  173.9430  137.8300 C   0  0  2  0  0  3  0  0  0  0  0  0
  197.1700  173.2750  135.6690 N   0  0  0  0  0  0  0  0  0  0  0  0
  197.9400  173.7110  134.5130 C   0  0  0  0  0  1  0  0  0  0  0  0
  196.5000  174.2750  136.4650 C   0  0  0  0  0  0  0  0  0  0  0  0
  196.8800  170.3450  137.9140 O   0  0  0  0  0  1  0  0  0  0  0  0
  195.4460  171.0910  134.7420 O   0  0  0  0  0  1  0  0  0  0  0  0
  196.8200  170.9370  134.9720 C   0  0  0  0  0  2  0  0  0  0  0  0
  1 51  1  6  0  0  0
  2  5  1  0  0  0  0
  3  1  1  1  0  0  0
  3  2  1  0  0  0  0
  4  8  1  6  0  0  0
  4  5  1  0  0  0  0
  6  3  1  0  0  0  0
  6  4  1  0  0  0  0
  7  8  1  0  0  0  0
  7  9  2  0  0  0  0
 11 10  1  1  0  0  0
 11  7  1  0  0  0  0
 12 11  1  0  0  0  0
 13 14  1  1  0  0  0
 13 12  1  0  0  0  0
 16 13  1  0  0  0  0
 16 15  1  1  0  0  0
 17 18  1  6  0  0  0
 17 16  1  0  0  0  0
 19 17  1  0  0  0  0
 21 20  1  6  0  0  0
 21 19  1  0  0  0  0
 22 21  1  0  0  0  0
 24 25  2  0  0  0  0
 25 22  1  0  0  0  0
 25 23  1  0  0  0  0
 27 26  2  0  0  0  0
 27  1  1  0  0  0  0
 28 29  1  0  0  0  0
 29 34  2  0  0  0  0
 29 36  1  0  0  0  0
 30 42  1  1  0  0  0
 30 37  1  0  0  0  0
 33 26  1  0  0  0  0
 34 41  1  0  0  0  0
 35 31  1  0  0  0  0
 36 35  2  0  0  0  0
 37 39  1  0  0  0  0
 37 34  1  1  0  0  0
 38 28  2  0  0  0  0
 39 33  1  1  0  0  0
 39 32  1  0  0  0  0
 40 30  1  0  0  0  0
 40 28  1  0  0  0  0
 41 32  1  0  0  0  0
 41 31  2  0  0  0  0
 43 44  1  6  0  0  0
 43 42  1  0  0  0  0
 44 45  1  0  0  0  0
 45 46  1  0  0  0  0
 47 43  1  0  0  0  0
 48 47  1  0  0  0  0
 49 50  1  0  0  0  0
 50 48  1  0  0  0  0
 52 54  1  0  0  0  0
 53 56  1  0  0  0  0
 54 51  1  1  0  0  0
 55 57  1  6  0  0  0
 55 53  1  0  0  0  0
 55 52  1  0  0  0  0
 56 54  1  0  0  0  0
 58 57  1  0  0  0  0
 59 58  2  0  0  0  0
 60 70  1  6  0  0  0
 60 61  1  0  0  0  0
 61 68  1  1  0  0  0
 61 63  1  0  0  0  0
 62 67  2  0  0  0  0
 64 63  1  0  0  0  0
 64 59  1  1  0  0  0
 65 60  1  0  0  0  0
 65 67  1  0  0  0  0
 66 65  1  0  0  0  0
 67 64  1  0  0  0  0
 69 70  1  0  0  0  0
M  END
>  <MODEL>
5

>  <REMARK>
 VINA RESULT:      -4.4      2.580      5.708
  Name = 
  26 active torsions:
  status: ('A' for Active; 'I' for Inactive)
    1  A    between atoms: C_1  and  C_28
    2  A    between atoms: C_1  and  C_69
    3  A    between atoms: C_2  and  O_10
    4  A    between atoms: C_2  and  C_39
    5  A    between atoms: C_2  and  O_59
    6  A    between atoms: N_4  and  C_18
    7  A    between atoms: C_6  and  C_39
    8  A    between atoms: O_10  and  C_29
    9  A    between atoms: C_11  and  C_29
   10  A    between atoms: C_12  and  O_24
   11  A    between atoms: C_12  and  C_28
   12  A    between atoms: C_13  and  C_67
   13  A    between atoms: C_15  and  C_35
   14  A    between atoms: N_16  and  C_44
   15  A    between atoms: N_16  and  C_54
   16  A    between atoms: C_17  and  C_26
   17  A    between atoms: C_18  and  C_47
   18  A    between atoms: C_20  and  O_59
   19  A    between atoms: O_24  and  C_65
   20  A    between atoms: C_26  and  C_69
   21  A    between atoms: N_30  and  C_54
   22  A    between atoms: C_31  and  C_54
   23  A    between atoms: C_37  and  N_55
   24  A    between atoms: C_38  and  C_49
   25  A    between atoms: C_38  and  C_65
   26  A    between atoms: C_48  and  C_64
                            x       y       z     vdW  Elec       q    Type
                         _______ _______ _______ _____ _____    ______ ____

>  <TORSDO>
F 26

$$$$
=
 OpenBabel11042419393D

 70 75  0  0  1  0  0  0  0  0999 V2000
  190.6390  173.6740  141.3180 C   0  0  2  0  0  3  0  0  0  0  0  0
  190.7360  172.7060  144.0660 S   0  0  0  0  0  0  0  0  0  0  0  0
  191.4110  173.0070  142.4370 C   0  0  1  0  0  3  0  0  0  0  0  0
  193.1860  171.7720  143.4030 C   0  0  1  0  0  3  0  0  0  0  0  0
  192.0100  171.4280  144.3080 C   0  0  0  0  0  2  0  0  0  0  0  0
  192.6130  172.4810  142.2210 C   0  0  0  0  0  2  0  0  0  0  0  0
  195.4670  172.7950  143.7670 C   0  0  0  0  0  0  0  0  0  0  0  0
  194.1000  172.6350  144.1220 N   0  0  0  0  0  2  0  0  0  0  0  0
  195.9190  172.2960  142.6980 O   0  0  0  0  0  0  0  0  0  0  0  0
  195.7630  173.7740  146.0650 C   0  0  0  0  0  1  0  0  0  0  0  0
  196.3650  173.5640  144.6890 C   0  0  2  0  0  3  0  0  0  0  0  0
  196.9270  174.8330  144.0330 C   0  0  0  0  0  2  0  0  0  0  0  0
  195.8990  175.8240  143.4450 C   0  0  2  0  0  3  0  0  0  0  0  0
  196.3790  176.7750  142.5260 O   0  0  0  0  0  1  0  0  0  0  0  0
  195.0160  177.5110  145.1110 C   0  0  0  0  0  1  0  0  0  0  0  0
  194.7020  176.2630  144.3090 C   0  0  1  0  0  3  0  0  0  0  0  0
  193.3280  176.4530  143.6000 C   0  0  1  0  0  3  0  0  0  0  0  0
  193.3280  176.0020  142.1290 C   0  0  0  0  0  1  0  0  0  0  0  0
  192.3410  175.7450  144.3190 O   0  0  0  0  0  0  0  0  0  0  0  0
  191.5060  177.8810  144.0140 O   0  0  0  0  0  1  0  0  0  0  0  0
  191.3470  176.6780  144.7040 C   0  0  2  0  0  3  0  0  0  0  0  0
  191.4370  176.9280  146.2120 C   0  0  0  0  0  2  0  0  0  0  0  0
  189.2230  176.0200  146.9510 O   0  0  0  0  0  0  0  0  0  0  0  0
  191.1840  175.0340  147.6230 O   0  0  0  0  0  1  0  0  0  0  0  0
  190.6080  175.9600  146.9850 C   0  0  0  0  0  0  0  0  0  0  0  0
  188.4760  174.8260  141.6160 C   0  0  0  0  0  3  0  0  0  0  0  0
  189.7680  174.7780  141.7500 N   0  0  0  0  0  0  0  0  0  0  0  0
  185.5660  180.2060  144.2060 C   0  0  0  0  0  0  0  0  0  0  0  0
  185.8330  179.0940  145.1360 C   0  0  0  0  0  0  0  0  0  0  0  0
  185.5640  178.5540  142.3490 C   0  0  2  0  0  3  0  0  0  0  0  0
  185.9120  176.7150  146.6240 C   0  0  0  0  0  3  0  0  0  0  0  0
  186.7140  175.2910  144.3260 S   0  0  0  0  0  0  0  0  0  0  0  0
  187.6700  176.0520  141.8100 C   0  0  0  0  0  2  0  0  0  0  0  0
  186.3560  177.9200  144.5930 C   0  0  0  0  0  0  0  0  0  0  0  0
  185.4530  177.9100  147.2160 C   0  0  0  0  0  3  0  0  0  0  0  0
  185.4160  179.1050  146.4760 C   0  0  0  0  0  3  0  0  0  0  0  0
  186.6630  177.8200  143.1380 C   0  0  1  0  0  3  0  0  0  0  0  0
  185.4820  181.3900  144.6090 O   0  0  0  0  0  0  0  0  0  0  0  0
  186.9060  176.3670  142.8720 C   0  0  2  0  0  3  0  0  0  0  0  0
  185.5340  179.9240  142.8160 O   0  0  0  0  0  0  0  0  0  0  0  0
  186.3720  176.7360  145.3070 C   0  0  0  0  0  0  0  0  0  0  0  0
  184.3180  177.9520  142.5970 O   0  0  0  0  0  0  0  0  0  0  0  0
  183.4780  178.3260  141.5450 C   0  0  1  0  0  3  0  0  0  0  0  0
  183.9010  177.5480  140.3010 C   0  0  0  0  0  2  0  0  0  0  0  0
  185.1890  178.1260  139.7220 C   0  0  0  0  0  2  0  0  0  0  0  0
  185.9950  177.0200  139.0730 C   0  0  0  0  0  1  0  0  0  0  0  0
  182.1560  178.0270  141.8830 O   0  0  0  0  0  0  0  0  0  0  0  0
  181.3490  178.7200  140.9710 C   0  0  0  0  0  2  0  0  0  0  0  0
  179.1500  178.3020  140.1100 O   0  0  0  0  0  1  0  0  0  0  0  0
  179.8880  178.4590  141.2870 C   0  0  0  0  0  2  0  0  0  0  0  0
  189.8170  172.6840  140.5930 N   0  0  0  0  0  2  0  0  0  0  0  0
  189.5700  173.7180  138.4920 O   0  0  0  0  0  0  0  0  0  0  0  0
  189.6020  171.7730  137.1270 C   0  0  0  0  0  2  0  0  0  0  0  0
  190.2070  172.6770  139.1780 C   0  0  2  0  0  3  0  0  0  0  0  0
  189.0970  173.1770  137.2840 C   0  0  2  0  0  3  0  0  0  0  0  0
  189.8220  171.3650  138.5350 C   0  0  0  0  0  2  0  0  0  0  0  0
  189.4990  174.0960  136.1460 C   0  0  0  0  0  2  0  0  0  0  0  0
  190.9210  174.3140  136.0960 N   0  0  0  0  0  0  0  0  0  0  0  0
  191.6530  173.8320  135.1520 C   0  0  0  0  0  3  0  0  0  0  0  0
  195.7190  173.5030  136.5090 C   0  0  2  0  0  3  0  0  0  0  0  0
  195.3300  172.9740  135.1280 C   0  0  2  0  0  3  0  0  0  0  0  0
  192.9040  175.8740  136.7400 O   0  0  0  0  0  0  0  0  0  0  0  0
  193.8370  172.7710  135.0260 C   0  0  0  0  0  2  0  0  0  0  0  0
  193.1210  174.1110  135.1260 C   0  0  2  0  0  3  0  0  0  0  0  0
  194.7990  174.5390  137.0180 N   0  0  0  0  0  0  0  0  0  0  0  0
  195.0330  175.0900  138.3450 C   0  0  0  0  0  1  0  0  0  0  0  0
  193.5720  174.8800  136.3380 C   0  0  0  0  0  0  0  0  0  0  0  0
  195.9860  171.7600  134.8760 O   0  0  0  0  0  1  0  0  0  0  0  0
  197.1500  175.4180  136.7070 O   0  0  0  0  0  1  0  0  0  0  0  0
  197.1450  174.0410  136.4470 C   0  0  0  0  0  2  0  0  0  0  0  0
  1 51  1  1  0  0  0
  1 27  1  0  0  0  0
  2  5  1  0  0  0  0
  3  1  1  6  0  0  0
  3  2  1  0  0  0  0
  4  8  1  1  0  0  0
  4  5  1  0  0  0  0
  6  3  1  0  0  0  0
  6  4  1  0  0  0  0
  7  8  1  0  0  0  0
  7 11  1  0  0  0  0
  9  7  2  0  0  0  0
 11 10  1  1  0  0  0
 12 11  1  0  0  0  0
 13 14  1  1  0  0  0
 13 12  1  0  0  0  0
 13 16  1  0  0  0  0
 16 15  1  6  0  0  0
 17 18  1  6  0  0  0
 17 16  1  0  0  0  0
 17 19  1  0  0  0  0
 19 21  1  0  0  0  0
 21 20  1  6  0  0  0
 21 22  1  0  0  0  0
 22 25  1  0  0  0  0
 23 25  2  0  0  0  0
 25 24  1  0  0  0  0
 26 27  2  0  0  0  0
 26 33  1  0  0  0  0
 28 38  2  0  0  0  0
 28 29  1  0  0  0  0
 29 36  1  0  0  0  0
 30 42  1  1  0  0  0
 30 40  1  0  0  0  0
 30 37  1  0  0  0  0
 31 35  1  0  0  0  0
 32 41  1  0  0  0  0
 34 29  2  0  0  0  0
 34 41  1  0  0  0  0
 36 35  2  0  0  0  0
 37 34  1  1  0  0  0
 39 33  1  1  0  0  0
 39 37  1  0  0  0  0
 39 32  1  0  0  0  0
 40 28  1  0  0  0  0
 41 31  2  0  0  0  0
 43 44  1  6  0  0  0
 43 47  1  0  0  0  0
 43 42  1  0  0  0  0
 45 44  1  0  0  0  0
 46 45  1  0  0  0  0
 48 50  1  0  0  0  0
 48 47  1  0  0  0  0
 49 50  1  0  0  0  0
 52 54  1  0  0  0  0
 53 55  1  0  0  0  0
 53 56  1  0  0  0  0
 54 51  1  1  0  0  0
 55 57  1  6  0  0  0
 55 52  1  0  0  0  0
 56 54  1  0  0  0  0
 58 57  1  0  0  0  0
 59 58  2  0  0  0  0
 60 70  1  6  0  0  0
 60 65  1  0  0  0  0
 61 68  1  1  0  0  0
 61 60  1  0  0  0  0
 63 64  1  0  0  0  0
 63 61  1  0  0  0  0
 64 59  1  1  0  0  0
 64 67  1  0  0  0  0
 65 66  1  0  0  0  0
 67 62  2  0  0  0  0
 67 65  1  0  0  0  0
 70 69  1  0  0  0  0
M  END
>  <MODEL>
6

>  <REMARK>
 VINA RESULT:      -4.3      2.479      5.349
  Name = 
  26 active torsions:
  status: ('A' for Active; 'I' for Inactive)
    1  A    between atoms: C_1  and  C_28
    2  A    between atoms: C_1  and  C_69
    3  A    between atoms: C_2  and  O_10
    4  A    between atoms: C_2  and  C_39
    5  A    between atoms: C_2  and  O_59
    6  A    between atoms: N_4  and  C_18
    7  A    between atoms: C_6  and  C_39
    8  A    between atoms: O_10  and  C_29
    9  A    between atoms: C_11  and  C_29
   10  A    between atoms: C_12  and  O_24
   11  A    between atoms: C_12  and  C_28
   12  A    between atoms: C_13  and  C_67
   13  A    between atoms: C_15  and  C_35
   14  A    between atoms: N_16  and  C_44
   15  A    between atoms: N_16  and  C_54
   16  A    between atoms: C_17  and  C_26
   17  A    between atoms: C_18  and  C_47
   18  A    between atoms: C_20  and  O_59
   19  A    between atoms: O_24  and  C_65
   20  A    between atoms: C_26  and  C_69
   21  A    between atoms: N_30  and  C_54
   22  A    between atoms: C_31  and  C_54
   23  A    between atoms: C_37  and  N_55
   24  A    between atoms: C_38  and  C_49
   25  A    between atoms: C_38  and  C_65
   26  A    between atoms: C_48  and  C_64
                            x       y       z     vdW  Elec       q    Type
                         _______ _______ _______ _____ _____    ______ ____

>  <TORSDO>
F 26

$$$$
=
 OpenBabel11042419393D

 70 75  0  0  1  0  0  0  0  0999 V2000
  189.8010  174.6770  142.0170 C   0  0  2  0  0  3  0  0  0  0  0  0
  191.5840  176.1840  143.7640 S   0  0  0  0  0  0  0  0  0  0  0  0
  190.6300  174.7490  143.2820 C   0  0  1  0  0  3  0  0  0  0  0  0
  191.3800  174.0540  145.4180 C   0  0  1  0  0  3  0  0  0  0  0  0
  191.5640  175.5650  145.4760 C   0  0  0  0  0  2  0  0  0  0  0  0
  190.5860  173.7740  144.1860 C   0  0  0  0  0  2  0  0  0  0  0  0
  192.8660  172.0540  144.9970 C   0  0  0  0  0  0  0  0  0  0  0  0
  192.6800  173.4210  145.3410 N   0  0  0  0  0  2  0  0  0  0  0  0
  191.8950  171.3530  144.5920 O   0  0  0  0  0  0  0  0  0  0  0  0
  195.3100  172.4930  145.3910 C   0  0  0  0  0  1  0  0  0  0  0  0
  194.2340  171.4570  145.1310 C   0  0  2  0  0  3  0  0  0  0  0  0
  194.5530  170.4690  144.0000 C   0  0  0  0  0  2  0  0  0  0  0  0
  195.2980  171.0380  142.7720 C   0  0  2  0  0  3  0  0  0  0  0  0
  194.6380  170.9610  141.5310 O   0  0  0  0  0  1  0  0  0  0  0  0
  197.3200  169.5470  142.4790 C   0  0  0  0  0  1  0  0  0  0  0  0
  196.8350  170.9620  142.7250 C   0  0  1  0  0  3  0  0  0  0  0  0
  197.5780  171.9260  141.7520 C   0  0  1  0  0  3  0  0  0  0  0  0
  197.9340  171.2820  140.4010 C   0  0  0  0  0  1  0  0  0  0  0  0
  196.7770  173.0700  141.5430 O   0  0  0  0  0  0  0  0  0  0  0  0
  196.3120  174.3920  143.3840 O   0  0  0  0  0  1  0  0  0  0  0  0
  197.2580  174.0860  142.4050 C   0  0  2  0  0  3  0  0  0  0  0  0
  197.5830  175.3390  141.5850 C   0  0  0  0  0  2  0  0  0  0  0  0
  195.6460  176.9060  141.3320 O   0  0  0  0  0  0  0  0  0  0  0  0
  197.1080  177.1130  143.0900 O   0  0  0  0  0  1  0  0  0  0  0  0
  196.7800  176.5140  142.0280 C   0  0  0  0  0  0  0  0  0  0  0  0
  191.2680  172.9180  141.0940 C   0  0  0  0  0  3  0  0  0  0  0  0
  190.4000  173.8740  140.9390 N   0  0  0  0  0  0  0  0  0  0  0  0
  196.1410  171.2310  136.9080 C   0  0  0  0  0  0  0  0  0  0  0  0
  196.2330  172.5710  137.5150 C   0  0  0  0  0  0  0  0  0  0  0  0
  193.6860  171.3100  137.2890 C   0  0  2  0  0  3  0  0  0  0  0  0
  195.9670  175.2480  138.3190 C   0  0  0  0  0  3  0  0  0  0  0  0
  193.4190  174.6850  139.3890 S   0  0  0  0  0  0  0  0  0  0  0  0
  192.0470  172.3220  139.9860 C   0  0  0  0  0  2  0  0  0  0  0  0
  195.1710  172.9820  138.3220 C   0  0  0  0  0  0  0  0  0  0  0  0
  197.0900  174.8380  137.5690 C   0  0  0  0  0  3  0  0  0  0  0  0
  197.2290  173.4980  137.1680 C   0  0  0  0  0  3  0  0  0  0  0  0
  194.0150  172.0770  138.5820 C   0  0  1  0  0  3  0  0  0  0  0  0
  197.1620  170.6210  136.5130 O   0  0  0  0  0  0  0  0  0  0  0  0
  192.9610  172.9340  139.2110 C   0  0  2  0  0  3  0  0  0  0  0  0
  194.8770  170.5860  136.8970 O   0  0  0  0  0  0  0  0  0  0  0  0
  195.0150  174.3020  138.6980 C   0  0  0  0  0  0  0  0  0  0  0  0
  193.3380  172.2170  136.2730 O   0  0  0  0  0  0  0  0  0  0  0  0
  192.1130  171.7860  135.7570 C   0  0  1  0  0  3  0  0  0  0  0  0
  191.7050  170.5170  136.5010 C   0  0  0  0  0  2  0  0  0  0  0  0
  190.1980  170.2980  136.3970 C   0  0  0  0  0  2  0  0  0  0  0  0
  189.5810  170.3550  137.7800 C   0  0  0  0  0  1  0  0  0  0  0  0
  191.1590  172.7890  135.9410 O   0  0  0  0  0  0  0  0  0  0  0  0
  191.3560  173.7160  134.9090 C   0  0  0  0  0  2  0  0  0  0  0  0
  192.0050  175.6930  136.1030 O   0  0  0  0  0  1  0  0  0  0  0  0
  190.9600  175.1000  135.3880 C   0  0  0  0  0  2  0  0  0  0  0  0
  189.5300  176.0320  141.4960 N   0  0  0  0  0  2  0  0  0  0  0  0
  187.7540  177.5400  141.1560 O   0  0  0  0  0  0  0  0  0  0  0  0
  186.0890  176.4330  142.4380 C   0  0  0  0  0  2  0  0  0  0  0  0
  188.0860  176.1860  141.2810 C   0  0  2  0  0  3  0  0  0  0  0  0
  186.6020  177.7490  141.9330 C   0  0  2  0  0  3  0  0  0  0  0  0
  187.3180  175.6040  142.4450 C   0  0  0  0  0  2  0  0  0  0  0  0
  185.5880  178.5180  141.1080 C   0  0  0  0  0  2  0  0  0  0  0  0
  184.2830  177.9120  141.1430 N   0  0  0  0  0  0  0  0  0  0  0  0
  183.2040  178.6100  141.0710 C   0  0  0  0  0  3  0  0  0  0  0  0
  179.0940  178.0540  139.9360 C   0  0  2  0  0  3  0  0  0  0  0  0
  180.1390  177.0010  139.5620 C   0  0  2  0  0  3  0  0  0  0  0  0
  181.0280  179.4200  142.7630 O   0  0  0  0  0  0  0  0  0  0  0  0
  181.5350  177.5720  139.6390 C   0  0  0  0  0  2  0  0  0  0  0  0
  181.8710  177.9330  141.0800 C   0  0  2  0  0  3  0  0  0  0  0  0
  179.4890  178.8810  141.0930 N   0  0  0  0  0  0  0  0  0  0  0  0
  178.6000  179.9520  141.5210 C   0  0  0  0  0  1  0  0  0  0  0  0
  180.8010  178.7980  141.6870 C   0  0  0  0  0  0  0  0  0  0  0  0
  179.8980  176.5260  138.2640 O   0  0  0  0  0  1  0  0  0  0  0  0
  177.8190  176.6890  141.4420 O   0  0  0  0  0  1  0  0  0  0  0  0
  177.7660  177.3550  140.2100 C   0  0  0  0  0  2  0  0  0  0  0  0
  1 27  1  6  0  0  0
  2  5  1  0  0  0  0
  3  1  1  1  0  0  0
  3  2  1  0  0  0  0
  3  6  1  0  0  0  0
  4  8  1  6  0  0  0
  4  5  1  0  0  0  0
  6  4  1  0  0  0  0
  7 11  1  0  0  0  0
  7  8  1  0  0  0  0
  9  7  2  0  0  0  0
 11 10  1  6  0  0  0
 12 11  1  0  0  0  0
 13 14  1  6  0  0  0
 13 12  1  0  0  0  0
 16 15  1  6  0  0  0
 16 13  1  0  0  0  0
 17 18  1  6  0  0  0
 17 16  1  0  0  0  0
 19 17  1  0  0  0  0
 19 21  1  0  0  0  0
 21 20  1  1  0  0  0
 22 25  1  0  0  0  0
 22 21  1  0  0  0  0
 23 25  2  0  0  0  0
 25 24  1  0  0  0  0
 27 26  2  0  0  0  0
 28 29  1  0  0  0  0
 29 34  1  0  0  0  0
 30 42  1  6  0  0  0
 30 37  1  0  0  0  0
 31 41  1  0  0  0  0
 33 26  1  0  0  0  0
 34 41  2  0  0  0  0
 35 31  2  0  0  0  0
 36 29  2  0  0  0  0
 36 35  1  0  0  0  0
 37 34  1  6  0  0  0
 37 39  1  0  0  0  0
 38 28  2  0  0  0  0
 39 32  1  0  0  0  0
 39 33  1  1  0  0  0
 40 28  1  0  0  0  0
 40 30  1  0  0  0  0
 41 32  1  0  0  0  0
 43 47  1  0  0  0  0
 43 42  1  0  0  0  0
 43 44  1  1  0  0  0
 45 44  1  0  0  0  0
 45 46  1  0  0  0  0
 48 50  1  0  0  0  0
 48 47  1  0  0  0  0
 50 49  1  0  0  0  0
 51  1  1  0  0  0  0
 52 54  1  0  0  0  0
 52 55  1  0  0  0  0
 53 56  1  0  0  0  0
 54 51  1  1  0  0  0
 54 56  1  0  0  0  0
 55 57  1  6  0  0  0
 55 53  1  0  0  0  0
 57 58  1  0  0  0  0
 59 58  2  0  0  0  0
 60 70  1  1  0  0  0
 60 65  1  0  0  0  0
 61 68  1  6  0  0  0
 61 63  1  0  0  0  0
 61 60  1  0  0  0  0
 63 64  1  0  0  0  0
 64 59  1  6  0  0  0
 64 67  1  0  0  0  0
 65 66  1  0  0  0  0
 65 67  1  0  0  0  0
 67 62  2  0  0  0  0
 70 69  1  0  0  0  0
M  END
>  <MODEL>
7

>  <REMARK>
 VINA RESULT:      -4.1      3.609     10.430
  Name = 
  26 active torsions:
  status: ('A' for Active; 'I' for Inactive)
    1  A    between atoms: C_1  and  C_28
    2  A    between atoms: C_1  and  C_69
    3  A    between atoms: C_2  and  O_10
    4  A    between atoms: C_2  and  C_39
    5  A    between atoms: C_2  and  O_59
    6  A    between atoms: N_4  and  C_18
    7  A    between atoms: C_6  and  C_39
    8  A    between atoms: O_10  and  C_29
    9  A    between atoms: C_11  and  C_29
   10  A    between atoms: C_12  and  O_24
   11  A    between atoms: C_12  and  C_28
   12  A    between atoms: C_13  and  C_67
   13  A    between atoms: C_15  and  C_35
   14  A    between atoms: N_16  and  C_44
   15  A    between atoms: N_16  and  C_54
   16  A    between atoms: C_17  and  C_26
   17  A    between atoms: C_18  and  C_47
   18  A    between atoms: C_20  and  O_59
   19  A    between atoms: O_24  and  C_65
   20  A    between atoms: C_26  and  C_69
   21  A    between atoms: N_30  and  C_54
   22  A    between atoms: C_31  and  C_54
   23  A    between atoms: C_37  and  N_55
   24  A    between atoms: C_38  and  C_49
   25  A    between atoms: C_38  and  C_65
   26  A    between atoms: C_48  and  C_64
                            x       y       z     vdW  Elec       q    Type
                         _______ _______ _______ _____ _____    ______ ____

>  <TORSDO>
F 26

$$$$
=
 OpenBabel11042419393D

 70 75  0  0  1  0  0  0  0  0999 V2000
  190.2890  173.4050  138.7760 C   0  0  2  0  0  3  0  0  0  0  0  0
  190.0590  170.5570  139.3600 S   0  0  0  0  0  0  0  0  0  0  0  0
  190.3660  171.9680  138.3030 C   0  0  1  0  0  3  0  0  0  0  0  0
  190.4880  170.2190  136.7100 C   0  0  1  0  0  3  0  0  0  0  0  0
  189.7410  169.5660  137.8650 C   0  0  0  0  0  2  0  0  0  0  0  0
  190.5410  171.6790  137.0160 C   0  0  0  0  0  2  0  0  0  0  0  0
  192.9440  170.3850  136.1380 C   0  0  0  0  0  0  0  0  0  0  0  0
  191.8230  169.6650  136.6360 N   0  0  0  0  0  2  0  0  0  0  0  0
  192.8510  171.6170  135.8690 O   0  0  0  0  0  0  0  0  0  0  0  0
  194.1250  168.1660  136.1980 C   0  0  0  0  0  1  0  0  0  0  0  0
  194.2360  169.6550  135.9320 C   0  0  2  0  0  3  0  0  0  0  0  0
  195.4160  170.3460  136.6300 C   0  0  0  0  0  2  0  0  0  0  0  0
  195.4170  170.3250  138.1740 C   0  0  2  0  0  3  0  0  0  0  0  0
  194.1660  170.4000  138.8160 O   0  0  0  0  0  1  0  0  0  0  0  0
  197.9320  170.5520  138.3210 C   0  0  0  0  0  1  0  0  0  0  0  0
  196.6030  170.9480  138.9320 C   0  0  1  0  0  3  0  0  0  0  0  0
  196.5900  172.4900  139.1550 C   0  0  1  0  0  3  0  0  0  0  0  0
  197.0170  172.9090  140.5730 C   0  0  0  0  0  1  0  0  0  0  0  0
  197.4350  173.0970  138.2000 O   0  0  0  0  0  0  0  0  0  0  0  0
  196.3640  175.0400  138.8540 O   0  0  0  0  0  1  0  0  0  0  0  0
  196.7980  174.2830  137.7650 C   0  0  2  0  0  3  0  0  0  0  0  0
  195.6060  173.9250  136.8730 C   0  0  0  0  0  2  0  0  0  0  0  0
  197.3380  173.8770  135.0630 O   0  0  0  0  0  1  0  0  0  0  0  0
  195.1410  173.3900  134.6060 O   0  0  0  0  0  0  0  0  0  0  0  0
  196.0130  173.7410  135.4500 C   0  0  0  0  0  0  0  0  0  0  0  0
  192.0340  172.9180  140.4540 C   0  0  0  0  0  3  0  0  0  0  0  0
  191.2490  173.7500  139.8360 N   0  0  0  0  0  0  0  0  0  0  0  0
  196.1400  172.7240  145.6710 C   0  0  0  0  0  0  0  0  0  0  0  0
  195.6190  171.4280  145.2000 C   0  0  0  0  0  0  0  0  0  0  0  0
  194.1510  173.8110  144.6540 C   0  0  2  0  0  3  0  0  0  0  0  0
  194.1270  169.1460  144.5300 C   0  0  0  0  0  3  0  0  0  0  0  0
  192.5350  170.6860  142.7830 S   0  0  0  0  0  0  0  0  0  0  0  0
  192.7810  173.2480  141.6880 C   0  0  0  0  0  2  0  0  0  0  0  0
  194.6810  171.4560  144.1660 C   0  0  0  0  0  0  0  0  0  0  0  0
  195.1250  169.0770  145.5240 C   0  0  0  0  0  3  0  0  0  0  0  0
  195.8770  170.2170  145.8590 C   0  0  0  0  0  3  0  0  0  0  0  0
  194.2610  172.7450  143.5480 C   0  0  1  0  0  3  0  0  0  0  0  0
  197.2310  172.8050  146.2830 O   0  0  0  0  0  0  0  0  0  0  0  0
  193.0570  172.4270  142.7180 C   0  0  2  0  0  3  0  0  0  0  0  0
  195.4410  173.9020  145.3020 O   0  0  0  0  0  0  0  0  0  0  0  0
  193.9200  170.3460  143.8490 C   0  0  0  0  0  0  0  0  0  0  0  0
  193.1840  173.4190  145.5960 O   0  0  0  0  0  0  0  0  0  0  0  0
  192.1640  174.3740  145.5420 C   0  0  1  0  0  3  0  0  0  0  0  0
  191.8750  174.8390  146.9670 C   0  0  0  0  0  2  0  0  0  0  0  0
  190.5300  175.5590  147.0310 C   0  0  0  0  0  2  0  0  0  0  0  0
  189.4540  174.5860  147.4670 C   0  0  0  0  0  1  0  0  0  0  0  0
  192.5810  175.4470  144.7520 O   0  0  0  0  0  0  0  0  0  0  0  0
  191.5800  175.6410  143.7910 C   0  0  0  0  0  2  0  0  0  0  0  0
  191.6830  177.9320  144.4950 O   0  0  0  0  0  1  0  0  0  0  0  0
  191.5500  177.1010  143.3780 C   0  0  0  0  0  2  0  0  0  0  0  0
  188.9280  173.7220  139.2540 N   0  0  0  0  0  2  0  0  0  0  0  0
  187.8630  175.7820  139.6570 O   0  0  0  0  0  0  0  0  0  0  0  0
  186.7230  176.0100  137.5850 C   0  0  0  0  0  2  0  0  0  0  0  0
  188.5040  175.0060  138.6840 C   0  0  2  0  0  3  0  0  0  0  0  0
  186.7160  176.3250  139.0520 C   0  0  2  0  0  3  0  0  0  0  0  0
  187.5470  174.7790  137.5370 C   0  0  0  0  0  2  0  0  0  0  0  0
  186.6620  177.8110  139.3520 C   0  0  0  0  0  2  0  0  0  0  0  0
  186.2410  178.0800  140.7020 N   0  0  0  0  0  0  0  0  0  0  0  0
  185.6440  177.1940  141.4210 C   0  0  0  0  0  3  0  0  0  0  0  0
  186.1240  178.9780  145.3030 C   0  0  2  0  0  3  0  0  0  0  0  0
  184.9690  179.4150  144.4000 C   0  0  2  0  0  3  0  0  0  0  0  0
  186.5550  175.6890  143.6920 O   0  0  0  0  0  0  0  0  0  0  0  0
  185.2290  179.0270  142.9640 C   0  0  0  0  0  2  0  0  0  0  0  0
  185.2540  177.5110  142.8280 C   0  0  2  0  0  3  0  0  0  0  0  0
  186.6370  177.6320  144.9840 N   0  0  0  0  0  0  0  0  0  0  0  0
  187.7690  177.1180  145.7420 C   0  0  0  0  0  1  0  0  0  0  0  0
  186.1920  176.8910  143.8290 C   0  0  0  0  0  0  0  0  0  0  0  0
  184.7900  180.8020  144.4860 O   0  0  0  0  0  1  0  0  0  0  0  0
  184.6920  178.0620  146.9960 O   0  0  0  0  0  1  0  0  0  0  0  0
  185.6640  179.0430  146.7560 C   0  0  0  0  0  2  0  0  0  0  0  0
  1 51  1  1  0  0  0
  1 27  1  0  0  0  0
  3  1  1  6  0  0  0
  3  2  1  0  0  0  0
  4  8  1  1  0  0  0
  4  6  1  0  0  0  0
  4  5  1  0  0  0  0
  5  2  1  0  0  0  0
  6  3  1  0  0  0  0
  7  8  1  0  0  0  0
  9  7  2  0  0  0  0
 11  7  1  0  0  0  0
 11 10  1  1  0  0  0
 11 12  1  0  0  0  0
 12 13  1  0  0  0  0
 13 14  1  1  0  0  0
 13 16  1  0  0  0  0
 16 15  1  6  0  0  0
 16 17  1  0  0  0  0
 17 18  1  1  0  0  0
 19 17  1  0  0  0  0
 21 19  1  0  0  0  0
 21 20  1  1  0  0  0
 22 21  1  0  0  0  0
 23 25  1  0  0  0  0
 24 25  2  0  0  0  0
 25 22  1  0  0  0  0
 26 33  1  0  0  0  0
 27 26  2  0  0  0  0
 28 38  2  0  0  0  0
 29 28  1  0  0  0  0
 29 36  1  0  0  0  0
 30 40  1  0  0  0  0
 30 42  1  1  0  0  0
 31 35  1  0  0  0  0
 32 41  1  0  0  0  0
 34 29  2  0  0  0  0
 35 36  2  0  0  0  0
 37 34  1  1  0  0  0
 37 30  1  0  0  0  0
 39 33  1  6  0  0  0
 39 32  1  0  0  0  0
 39 37  1  0  0  0  0
 40 28  1  0  0  0  0
 41 34  1  0  0  0  0
 41 31  2  0  0  0  0
 43 42  1  0  0  0  0
 43 44  1  1  0  0  0
 44 45  1  0  0  0  0
 45 46  1  0  0  0  0
 47 43  1  0  0  0  0
 48 47  1  0  0  0  0
 50 48  1  0  0  0  0
 50 49  1  0  0  0  0
 53 55  1  0  0  0  0
 54 51  1  1  0  0  0
 54 52  1  0  0  0  0
 55 57  1  6  0  0  0
 55 52  1  0  0  0  0
 56 53  1  0  0  0  0
 56 54  1  0  0  0  0
 57 58  1  0  0  0  0
 58 59  2  0  0  0  0
 60 70  1  1  0  0  0
 61 68  1  6  0  0  0
 61 60  1  0  0  0  0
 62 67  2  0  0  0  0
 63 61  1  0  0  0  0
 64 59  1  6  0  0  0
 64 63  1  0  0  0  0
 64 67  1  0  0  0  0
 65 60  1  0  0  0  0
 65 66  1  0  0  0  0
 67 65  1  0  0  0  0
 70 69  1  0  0  0  0
M  END
>  <MODEL>
8

>  <REMARK>
 VINA RESULT:      -3.8      2.538      8.597
  Name = 
  26 active torsions:
  status: ('A' for Active; 'I' for Inactive)
    1  A    between atoms: C_1  and  C_28
    2  A    between atoms: C_1  and  C_69
    3  A    between atoms: C_2  and  O_10
    4  A    between atoms: C_2  and  C_39
    5  A    between atoms: C_2  and  O_59
    6  A    between atoms: N_4  and  C_18
    7  A    between atoms: C_6  and  C_39
    8  A    between atoms: O_10  and  C_29
    9  A    between atoms: C_11  and  C_29
   10  A    between atoms: C_12  and  O_24
   11  A    between atoms: C_12  and  C_28
   12  A    between atoms: C_13  and  C_67
   13  A    between atoms: C_15  and  C_35
   14  A    between atoms: N_16  and  C_44
   15  A    between atoms: N_16  and  C_54
   16  A    between atoms: C_17  and  C_26
   17  A    between atoms: C_18  and  C_47
   18  A    between atoms: C_20  and  O_59
   19  A    between atoms: O_24  and  C_65
   20  A    between atoms: C_26  and  C_69
   21  A    between atoms: N_30  and  C_54
   22  A    between atoms: C_31  and  C_54
   23  A    between atoms: C_37  and  N_55
   24  A    between atoms: C_38  and  C_49
   25  A    between atoms: C_38  and  C_65
   26  A    between atoms: C_48  and  C_64
                            x       y       z     vdW  Elec       q    Type
                         _______ _______ _______ _____ _____    ______ ____

>  <TORSDO>
F 26

$$$$
=
 OpenBabel11042419393D

 70 75  0  0  1  0  0  0  0  0999 V2000
  188.6250  173.4880  142.6090 C   0  0  2  0  0  3  0  0  0  0  0  0
  188.9470  176.3710  142.9020 S   0  0  0  0  0  0  0  0  0  0  0  0
  188.1540  174.8900  142.2840 C   0  0  1  0  0  3  0  0  0  0  0  0
  186.9190  176.5410  141.1200 C   0  0  1  0  0  3  0  0  0  0  0  0
  188.1730  177.2970  141.5380 C   0  0  0  0  0  2  0  0  0  0  0  0
  187.1850  175.0990  141.3980 C   0  0  0  0  0  2  0  0  0  0  0  0
  185.7700  178.2810  142.5470 C   0  0  0  0  0  0  0  0  0  0  0  0
  185.7970  177.0130  141.9050 N   0  0  0  0  0  2  0  0  0  0  0  0
  186.6820  179.1310  142.3360 O   0  0  0  0  0  0  0  0  0  0  0  0
  183.3910  179.0630  142.7730 C   0  0  0  0  0  1  0  0  0  0  0  0
  184.6430  178.5890  143.4860 C   0  0  2  0  0  3  0  0  0  0  0  0
  185.0860  179.4720  144.6610 C   0  0  0  0  0  2  0  0  0  0  0  0
  185.1660  178.7940  146.0460 C   0  0  2  0  0  3  0  0  0  0  0  0
  183.9800  178.7430  146.8030 O   0  0  0  0  0  1  0  0  0  0  0  0
  186.2700  179.5580  148.1900 C   0  0  0  0  0  1  0  0  0  0  0  0
  186.4760  178.8800  146.8500 C   0  0  1  0  0  3  0  0  0  0  0  0
  187.2780  177.5620  147.0700 C   0  0  1  0  0  3  0  0  0  0  0  0
  186.4380  176.4260  147.6780 C   0  0  0  0  0  1  0  0  0  0  0  0
  187.8240  177.1490  145.8350 O   0  0  0  0  0  0  0  0  0  0  0  0
  188.7090  175.2300  146.7770 O   0  0  0  0  0  1  0  0  0  0  0  0
  189.0070  176.4240  146.1180 C   0  0  2  0  0  3  0  0  0  0  0  0
  189.9360  177.2780  146.9850 C   0  0  0  0  0  2  0  0  0  0  0  0
  191.4260  175.2670  146.9060 O   0  0  0  0  0  0  0  0  0  0  0  0
  191.9170  177.0450  148.2730 O   0  0  0  0  0  1  0  0  0  0  0  0
  191.1320  176.5120  147.4400 C   0  0  0  0  0  0  0  0  0  0  0  0
  191.0780  173.2060  142.6500 C   0  0  0  0  0  3  0  0  0  0  0  0
  189.9460  173.4210  143.2530 N   0  0  0  0  0  0  0  0  0  0  0  0
  197.0910  173.5220  145.4520 C   0  0  0  0  0  0  0  0  0  0  0  0
  196.8530  174.4220  144.3090 C   0  0  0  0  0  0  0  0  0  0  0  0
  195.3090  172.0380  144.5600 C   0  0  2  0  0  3  0  0  0  0  0  0
  196.4230  175.6490  141.8210 C   0  0  0  0  0  3  0  0  0  0  0  0
  193.9590  174.2990  141.5700 S   0  0  0  0  0  0  0  0  0  0  0  0
  192.3380  172.8760  143.3510 C   0  0  0  0  0  2  0  0  0  0  0  0
  195.6310  174.3030  143.6470 C   0  0  0  0  0  0  0  0  0  0  0  0
  197.6370  175.8450  142.5110 C   0  0  0  0  0  3  0  0  0  0  0  0
  197.8550  175.2360  143.7590 C   0  0  0  0  0  3  0  0  0  0  0  0
  194.6010  173.3290  144.1100 C   0  0  1  0  0  3  0  0  0  0  0  0
  197.9400  173.7950  146.3340 O   0  0  0  0  0  0  0  0  0  0  0  0
  193.5830  173.2610  143.0150 C   0  0  2  0  0  3  0  0  0  0  0  0
  196.2430  172.3950  145.6060 O   0  0  0  0  0  0  0  0  0  0  0  0
  195.4190  174.8780  142.4080 C   0  0  0  0  0  0  0  0  0  0  0  0
  196.0130  171.4800  143.4780 O   0  0  0  0  0  0  0  0  0  0  0  0
  195.5440  170.1720  143.3300 C   0  0  1  0  0  3  0  0  0  0  0  0
  194.8090  170.0810  141.9940 C   0  0  0  0  0  2  0  0  0  0  0  0
  193.4430  169.4260  142.1810 C   0  0  0  0  0  2  0  0  0  0  0  0
  193.1700  169.2350  143.6590 C   0  0  0  0  0  1  0  0  0  0  0  0
  196.6270  169.2910  143.3530 O   0  0  0  0  0  0  0  0  0  0  0  0
  196.5740  168.6330  144.5890 C   0  0  0  0  0  2  0  0  0  0  0  0
  197.5940  169.1090  146.7070 O   0  0  0  0  0  1  0  0  0  0  0  0
  197.8610  168.8840  145.3530 C   0  0  0  0  0  2  0  0  0  0  0  0
  188.6550  172.6550  141.3900 N   0  0  0  0  0  2  0  0  0  0  0  0
  189.9920  173.5530  139.6730 O   0  0  0  0  0  0  0  0  0  0  0  0
  191.3500  171.6520  139.2400 C   0  0  0  0  0  2  0  0  0  0  0  0
  189.9960  172.7170  140.7960 C   0  0  2  0  0  3  0  0  0  0  0  0
  190.7190  172.8890  138.6710 C   0  0  2  0  0  3  0  0  0  0  0  0
  190.4460  171.3390  140.3730 C   0  0  0  0  0  2  0  0  0  0  0  0
  191.7200  173.8570  138.0690 C   0  0  0  0  0  2  0  0  0  0  0  0
  192.8430  173.1820  137.4730 N   0  0  0  0  0  0  0  0  0  0  0  0
  194.0580  173.5020  137.7510 C   0  0  0  0  0  3  0  0  0  0  0  0
  196.5090  170.0530  136.9860 C   0  0  2  0  0  3  0  0  0  0  0  0
  195.7020  170.6830  135.8490 C   0  0  2  0  0  3  0  0  0  0  0  0
  196.5950  173.1130  139.0420 O   0  0  0  0  0  0  0  0  0  0  0  0
  194.5970  171.5600  136.3910 C   0  0  0  0  0  2  0  0  0  0  0  0
  195.1920  172.7510  137.1300 C   0  0  2  0  0  3  0  0  0  0  0  0
  196.7860  170.9890  138.0930 N   0  0  0  0  0  0  0  0  0  0  0  0
  197.5070  170.4970  139.2580 C   0  0  0  0  0  1  0  0  0  0  0  0
  196.2030  172.3070  138.1510 C   0  0  0  0  0  0  0  0  0  0  0  0
  195.1500  169.6810  135.0390 O   0  0  0  0  0  1  0  0  0  0  0  0
  197.6310  168.1710  136.0090 O   0  0  0  0  0  1  0  0  0  0  0  0
  197.8110  169.5000  136.4170 C   0  0  0  0  0  2  0  0  0  0  0  0
  1 51  1  6  0  0  0
  1 27  1  0  0  0  0
  3  1  1  6  0  0  0
  3  2  1  0  0  0  0
  4  6  1  0  0  0  0
  4  5  1  0  0  0  0
  4  8  1  1  0  0  0
  5  2  1  0  0  0  0
  6  3  1  0  0  0  0
  7 11  1  0  0  0  0
  8  7  1  0  0  0  0
  9  7  2  0  0  0  0
 11 10  1  6  0  0  0
 11 12  1  0  0  0  0
 12 13  1  0  0  0  0
 13 14  1  1  0  0  0
 13 16  1  0  0  0  0
 16 17  1  0  0  0  0
 16 15  1  1  0  0  0
 17 18  1  6  0  0  0
 19 21  1  0  0  0  0
 19 17  1  0  0  0  0
 21 20  1  1  0  0  0
 21 22  1  0  0  0  0
 22 25  1  0  0  0  0
 23 25  2  0  0  0  0
 25 24  1  0  0  0  0
 26 27  2  0  0  0  0
 26 33  1  0  0  0  0
 28 40  1  0  0  0  0
 28 38  2  0  0  0  0
 29 28  1  0  0  0  0
 30 42  1  6  0  0  0
 30 40  1  0  0  0  0
 31 41  2  0  0  0  0
 31 35  1  0  0  0  0
 32 41  1  0  0  0  0
 32 39  1  0  0  0  0
 34 29  2  0  0  0  0
 35 36  2  0  0  0  0
 36 29  1  0  0  0  0
 37 34  1  6  0  0  0
 37 30  1  0  0  0  0
 39 33  1  1  0  0  0
 39 37  1  0  0  0  0
 41 34  1  0  0  0  0
 43 44  1  6  0  0  0
 43 47  1  0  0  0  0
 43 42  1  0  0  0  0
 44 45  1  0  0  0  0
 45 46  1  0  0  0  0
 47 48  1  0  0  0  0
 48 50  1  0  0  0  0
 50 49  1  0  0  0  0
 52 54  1  0  0  0  0
 53 56  1  0  0  0  0
 54 51  1  6  0  0  0
 55 57  1  1  0  0  0
 55 53  1  0  0  0  0
 55 52  1  0  0  0  0
 56 54  1  0  0  0  0
 58 59  2  0  0  0  0
 58 57  1  0  0  0  0
 60 70  1  6  0  0  0
 60 65  1  0  0  0  0
 61 68  1  1  0  0  0
 61 63  1  0  0  0  0
 61 60  1  0  0  0  0
 63 64  1  0  0  0  0
 64 59  1  1  0  0  0
 64 67  1  0  0  0  0
 65 67  1  0  0  0  0
 65 66  1  0  0  0  0
 67 62  2  0  0  0  0
 69 70  1  0  0  0  0
M  END
>  <MODEL>
9

>  <REMARK>
 VINA RESULT:      -3.6      2.165      8.669
  Name = 
  26 active torsions:
  status: ('A' for Active; 'I' for Inactive)
    1  A    between atoms: C_1  and  C_28
    2  A    between atoms: C_1  and  C_69
    3  A    between atoms: C_2  and  O_10
    4  A    between atoms: C_2  and  C_39
    5  A    between atoms: C_2  and  O_59
    6  A    between atoms: N_4  and  C_18
    7  A    between atoms: C_6  and  C_39
    8  A    between atoms: O_10  and  C_29
    9  A    between atoms: C_11  and  C_29
   10  A    between atoms: C_12  and  O_24
   11  A    between atoms: C_12  and  C_28
   12  A    between atoms: C_13  and  C_67
   13  A    between atoms: C_15  and  C_35
   14  A    between atoms: N_16  and  C_44
   15  A    between atoms: N_16  and  C_54
   16  A    between atoms: C_17  and  C_26
   17  A    between atoms: C_18  and  C_47
   18  A    between atoms: C_20  and  O_59
   19  A    between atoms: O_24  and  C_65
   20  A    between atoms: C_26  and  C_69
   21  A    between atoms: N_30  and  C_54
   22  A    between atoms: C_31  and  C_54
   23  A    between atoms: C_37  and  N_55
   24  A    between atoms: C_38  and  C_49
   25  A    between atoms: C_38  and  C_65
   26  A    between atoms: C_48  and  C_64
                            x       y       z     vdW  Elec       q    Type
                         _______ _______ _______ _____ _____    ______ ____

>  <TORSDO>
F 26

$$$$
