=
 OpenBabel11042415093D

 69 76  0  0  1  0  0  0  0  0999 V2000
  193.2510  171.0950  143.2890 N   0  0  0  0  0  0  0  0  0  0  0  0
  191.7480  174.9050  144.2190 N   0  0  0  0  0  0  0  0  0  0  0  0
  193.8910  174.0260  143.9020 N   0  0  0  0  0  0  0  0  0  0  0  0
  191.8490  173.0390  142.7350 C   0  0  0  0  0  0  0  0  0  0  0  0
  191.5780  170.8560  141.5860 C   0  0  0  0  0  2  0  0  0  0  0  0
  190.3370  175.0380  143.9770 C   0  0  0  0  0  0  0  0  0  0  0  0
  192.2850  169.5220  141.7840 C   0  0  0  0  0  2  0  0  0  0  0  0
  188.0620  176.8530  143.0400 N   0  0  0  0  0  0  0  0  0  0  0  0
  187.6020  175.5630  142.6990 N   0  0  0  0  0  0  0  0  0  0  0  0
  193.1890  169.6750  142.9980 C   0  0  0  0  0  2  0  0  0  0  0  0
  190.6160  173.5510  142.0320 C   0  0  0  0  0  2  0  0  0  0  0  0
  187.6010  173.2270  142.2340 C   0  0  0  0  0  1  0  0  0  0  0  0
  192.2740  171.7840  142.5130 C   0  0  0  0  0  0  0  0  0  0  0  0
  196.0900  173.2900  144.3490 N   0  0  0  0  0  2  0  0  0  0  0  0
  189.0260  177.0680  144.0780 C   0  0  0  0  0  0  0  0  0  0  0  0
  192.4810  173.9720  143.6930 C   0  0  0  0  0  0  0  0  0  0  0  0
  194.2470  171.6350  144.1660 C   0  0  0  0  0  0  0  0  0  0  0  0
  197.9400  174.6870  144.5040 O   0  0  0  0  0  0  0  0  0  0  0  0
  189.5160  175.9080  144.8720 C   0  0  2  0  0  3  0  0  0  0  0  0
  189.7620  174.3900  142.9460 C   0  0  0  0  0  0  0  0  0  0  0  0
  194.8270  170.8630  144.9790 O   0  0  0  0  0  0  0  0  0  0  0  0
  196.8150  174.4710  143.9800 C   0  0  0  0  0  0  0  0  0  0  0  0
  188.3010  174.4660  142.6670 C   0  0  0  0  0  0  0  0  0  0  0  0
  189.4980  178.2220  144.2710 O   0  0  0  0  0  0  0  0  0  0  0  0
  194.7090  173.0320  144.0690 C   0  0  0  0  0  0  0  0  0  0  0  0
  190.2250  176.2940  146.1380 C   0  0  0  0  0  3  0  0  0  0  0  0
  189.5780  176.3100  147.3020 C   0  0  0  0  0  2  0  0  0  0  0  0
  187.3140  178.0020  142.5500 C   0  0  0  0  0  2  0  0  0  0  0  0
  187.3590  178.0620  141.0350 C   0  0  0  0  0  2  0  0  0  0  0  0
  186.0470  177.5710  140.4770 C   0  0  0  0  0  2  0  0  0  0  0  0
  184.9800  178.6420  140.6520 C   0  0  0  0  0  2  0  0  0  0  0  0
  183.9000  178.1450  141.5910 C   0  0  0  0  0  2  0  0  0  0  0  0
  182.5390  178.2440  140.9250 C   0  0  0  0  0  2  0  0  0  0  0  0
  181.6060  178.7670  141.8270 O   0  0  0  0  0  0  0  0  0  0  0  0
  180.0820  178.4350  141.1520 P   0  0  0  0  0  0  0  0  0  0  0  0
  179.2140  179.8760  140.9920 O   0  0  0  0  0  1  0  0  0  0  0  0
  179.2170  177.3970  142.1810 O   0  0  0  0  0  1  0  0  0  0  0  0
  180.2360  177.7910  139.7900 O   0  0  0  0  0  0  0  0  0  0  0  0
  196.3230  175.3790  142.9040 C   0  0  0  0  0  2  0  0  0  0  0  0
  197.6980  175.3160  140.8260 C   0  0  0  0  0  3  0  0  0  0  0  0
  195.7510  173.8830  140.9860 C   0  0  0  0  0  3  0  0  0  0  0  0
  195.9830  173.4230  139.6870 C   0  0  0  0  0  3  0  0  0  0  0  0
  196.6090  174.8290  141.5540 C   0  0  0  0  0  0  0  0  0  0  0  0
  197.9360  174.8510  139.5300 C   0  0  0  0  0  3  0  0  0  0  0  0
  197.0790  173.9000  138.9510 C   0  0  0  0  0  0  0  0  0  0  0  0
  197.2550  173.4500  137.5940 N   0  0  0  0  0  2  0  0  0  0  0  0
  196.2660  172.7540  136.7710 C   0  0  2  0  0  3  0  0  0  0  0  0
  196.9430  170.3220  136.2540 C   0  0  1  0  0  0  0  0  0  0  0  0
  196.9710  171.7950  135.8240 C   0  0  1  0  0  3  0  0  0  0  0  0
  195.9980  170.8100  135.1730 C   0  0  0  0  0  2  0  0  0  0  0  0
  197.9410  169.5080  135.7270 O   0  0  0  0  0  1  0  0  0  0  0  0
  196.3010  168.4160  137.5060 O   0  0  0  0  0  1  0  0  0  0  0  0
  196.2270  169.7710  137.4300 N   0  0  0  0  0  0  0  0  0  0  0  0
  194.8180  170.1730  137.4300 C   0  0  0  0  0  2  0  0  0  0  0  0
  192.9130  168.5970  137.4820 C   0  0  0  0  0  2  0  0  0  0  0  0
  193.9500  169.2990  138.3310 C   0  0  0  0  0  3  0  0  0  0  0  0
  192.5250  169.8120  138.2910 C   0  0  0  0  0  2  0  0  0  0  0  0
  195.7570  174.9630  135.7800 C   0  0  0  0  0  3  0  0  0  0  0  0
  195.3710  173.7170  136.0370 C   0  0  0  0  0  3  0  0  0  0  0  0
  195.4060  177.2830  134.9220 C   0  0  0  0  0  1  0  0  0  0  0  0
  194.8390  175.8770  135.0410 C   0  0  2  0  0  3  0  0  0  0  0  0
  193.5370  175.8660  135.5690 O   0  0  0  0  0  0  0  0  0  0  0  0
  192.7040  175.8440  134.5420 O   0  0  0  0  0  0  0  0  0  0  0  0
  191.4340  175.8470  135.1250 C   0  0  0  0  0  2  0  0  0  0  0  0
  190.6550  174.6340  134.6540 C   0  0  0  0  0  2  0  0  0  0  0  0
  191.5960  173.4490  134.5180 C   0  0  0  0  0  2  0  0  0  0  0  0
  191.3040  172.4330  135.6050 C   0  0  0  0  0  3  0  0  0  0  0  0
  190.1590  171.5480  135.1630 C   0  0  0  0  0  2  0  0  0  0  0  0
  191.5830  171.0370  135.0870 C   0  0  0  0  0  2  0  0  0  0  0  0
  1 17  1  0  0  0  0
  3 25  2  0  0  0  0
  4 16  1  0  0  0  0
  5  7  1  0  0  0  0
  5 13  1  0  0  0  0
  6  2  1  0  0  0  0
  6 19  1  0  0  0  0
  7 10  1  0  0  0  0
  8 15  1  0  0  0  0
  9  8  1  0  0  0  0
 10  1  1  0  0  0  0
 11  4  1  0  0  0  0
 11 20  1  0  0  0  0
 12 23  1  0  0  0  0
 13  4  2  0  0  0  0
 13  1  1  0  0  0  0
 15 24  2  0  0  0  0
 15 19  1  0  0  0  0
 16  3  1  0  0  0  0
 16  2  2  0  0  0  0
 17 21  2  0  0  0  0
 19 26  1  1  0  0  0
 20  6  2  0  0  0  0
 22 14  1  0  0  0  0
 22 18  2  0  0  0  0
 23  9  2  0  0  0  0
 23 20  1  0  0  0  0
 25 17  1  0  0  0  0
 25 14  1  0  0  0  0
 26 27  2  0  0  0  0
 28  8  1  0  0  0  0
 29 28  1  0  0  0  0
 30 31  1  0  0  0  0
 30 29  1  0  0  0  0
 31 32  1  0  0  0  0
 33 32  1  0  0  0  0
 33 34  1  0  0  0  0
 35 34  1  0  0  0  0
 35 37  1  0  0  0  0
 36 35  1  0  0  0  0
 38 35  2  0  0  0  0
 39 22  1  0  0  0  0
 40 43  1  0  0  0  0
 41 43  2  0  0  0  0
 42 41  1  0  0  0  0
 43 39  1  0  0  0  0
 44 40  2  0  0  0  0
 45 44  1  0  0  0  0
 45 42  2  0  0  0  0
 46 45  1  0  0  0  0
 47 59  1  6  0  0  0
 47 46  1  0  0  0  0
 48 51  1  6  0  0  0
 48 53  1  0  0  0  0
 49 48  1  0  0  0  0
 49 47  1  1  0  0  0
 50 49  1  0  0  0  0
 50 48  1  0  0  0  0
 53 52  1  0  0  0  0
 54 53  1  0  0  0  0
 54 56  1  0  0  0  0
 55 57  1  0  0  0  0
 55 56  1  0  0  0  0
 57 56  1  0  0  0  0
 58 59  2  0  0  0  0
 61 60  1  1  0  0  0
 61 62  1  0  0  0  0
 61 58  1  0  0  0  0
 63 64  1  0  0  0  0
 63 62  1  0  0  0  0
 65 64  1  0  0  0  0
 66 65  1  0  0  0  0
 66 67  1  0  0  0  0
 68 67  1  0  0  0  0
 69 68  1  0  0  0  0
 69 67  1  0  0  0  0
M  END
>  <MODEL>
1

>  <REMARK>
 VINA RESULT:      -5.1      0.000      0.000
  Name = 
  25 active torsions:
  status: ('A' for Active; 'I' for Inactive)
    1  A    between atoms: C_2  and  C_10
    2  A    between atoms: C_2  and  C_28
    3  A    between atoms: C_5  and  C_65
    4  A    between atoms: C_6  and  N_59
    5  A    between atoms: C_7  and  C_18
    6  A    between atoms: P_9  and  O_20
    7  A    between atoms: C_10  and  C_12
    8  A    between atoms: C_18  and  N_37
    9  A    between atoms: C_18  and  C_43
   10  A    between atoms: O_20  and  C_45
   11  A    between atoms: C_21  and  C_50
   12  A    between atoms: N_22  and  C_56
   13  A    between atoms: O_23  and  O_24
   14  A    between atoms: O_23  and  C_28
   15  A    between atoms: O_24  and  C_65
   16  A    between atoms: C_25  and  C_69
   17  A    between atoms: C_31  and  C_47
   18  A    between atoms: C_31  and  C_57
   19  A    between atoms: C_34  and  C_55
   20  A    between atoms: C_34  and  C_60
   21  A    between atoms: N_37  and  C_64
   22  A    between atoms: C_45  and  C_57
   23  A    between atoms: C_47  and  C_48
   24  A    between atoms: C_48  and  C_56
   25  A    between atoms: N_59  and  C_69
                            x       y       z     vdW  Elec       q    Type
                         _______ _______ _______ _____ _____    ______ ____

>  <TORSDO>
F 25

$$$$
=
 OpenBabel11042415093D

 69 76  0  0  1  0  0  0  0  0999 V2000
  195.8950  172.8700  142.8480 N   0  0  0  0  0  0  0  0  0  0  0  0
  192.0170  173.2020  141.2690 N   0  0  0  0  0  0  0  0  0  0  0  0
  193.1170  174.1290  143.1120 N   0  0  0  0  0  0  0  0  0  0  0  0
  194.3760  173.4480  141.0020 C   0  0  0  0  0  0  0  0  0  0  0  0
  196.8080  173.1130  140.6420 C   0  0  0  0  0  2  0  0  0  0  0  0
  191.9030  172.7070  139.9240 C   0  0  0  0  0  0  0  0  0  0  0  0
  197.9210  172.7140  141.6030 C   0  0  0  0  0  2  0  0  0  0  0  0
  190.6110  173.0480  137.1730 N   0  0  0  0  0  0  0  0  0  0  0  0
  191.8550  172.4520  136.8700 N   0  0  0  0  0  0  0  0  0  0  0  0
  197.2600  172.3840  142.9330 C   0  0  0  0  0  2  0  0  0  0  0  0
  194.1800  173.5530  139.5080 C   0  0  0  0  0  2  0  0  0  0  0  0
  194.1010  171.6960  137.1040 C   0  0  0  0  0  1  0  0  0  0  0  0
  195.6050  173.2420  141.5030 C   0  0  0  0  0  0  0  0  0  0  0  0
  193.7160  174.6040  145.3470 N   0  0  0  0  0  2  0  0  0  0  0  0
  189.9900  172.9030  138.4560 C   0  0  0  0  0  0  0  0  0  0  0  0
  193.1470  173.5240  141.8210 C   0  0  0  0  0  0  0  0  0  0  0  0
  195.0770  173.0090  144.0150 C   0  0  0  0  0  0  0  0  0  0  0  0
  192.5930  176.1030  146.7210 O   0  0  0  0  0  0  0  0  0  0  0  0
  190.6360  172.0460  139.4890 C   0  0  2  0  0  3  0  0  0  0  0  0
  192.9270  172.8460  139.0610 C   0  0  0  0  0  0  0  0  0  0  0  0
  195.3860  172.3660  145.0560 O   0  0  0  0  0  0  0  0  0  0  0  0
  192.9440  175.7940  145.5510 C   0  0  0  0  0  0  0  0  0  0  0  0
  192.8760  172.3260  137.6670 C   0  0  0  0  0  0  0  0  0  0  0  0
  188.9390  173.5470  138.7250 O   0  0  0  0  0  0  0  0  0  0  0  0
  193.9610  173.9690  144.0860 C   0  0  0  0  0  0  0  0  0  0  0  0
  189.7310  171.6860  140.6320 C   0  0  0  0  0  3  0  0  0  0  0  0
  190.1800  170.9540  141.6490 C   0  0  0  0  0  2  0  0  0  0  0  0
  189.8020  173.5480  136.0730 C   0  0  0  0  0  2  0  0  0  0  0  0
  190.6830  174.1150  134.9760 C   0  0  0  0  0  2  0  0  0  0  0  0
  190.6170  175.6210  135.0120 C   0  0  0  0  0  2  0  0  0  0  0  0
  191.9300  176.2060  134.5130 C   0  0  0  0  0  2  0  0  0  0  0  0
  193.0840  175.6380  135.3130 C   0  0  0  0  0  2  0  0  0  0  0  0
  194.0280  176.7500  135.7360 C   0  0  0  0  0  2  0  0  0  0  0  0
  195.1530  176.7590  134.9050 O   0  0  0  0  0  0  0  0  0  0  0  0
  196.2100  175.5950  135.5520 P   0  0  0  0  0  0  0  0  0  0  0  0
  197.8020  176.0060  135.1630 O   0  0  0  0  0  1  0  0  0  0  0  0
  195.8650  174.0750  134.8780 O   0  0  0  0  0  0  0  0  0  0  0  0
  196.0650  175.5290  137.0580 O   0  0  0  0  0  1  0  0  0  0  0  0
  192.6560  176.7360  144.4300 C   0  0  0  0  0  2  0  0  0  0  0  0
  190.7150  177.4400  143.0340 C   0  0  0  0  0  3  0  0  0  0  0  0
  190.6760  175.2530  144.0730 C   0  0  0  0  0  3  0  0  0  0  0  0
  189.4000  175.0280  143.5500 C   0  0  0  0  0  3  0  0  0  0  0  0
  191.3330  176.4590  143.8140 C   0  0  0  0  0  0  0  0  0  0  0  0
  189.4420  177.2140  142.5040 C   0  0  0  0  0  3  0  0  0  0  0  0
  188.7760  176.0040  142.7590 C   0  0  0  0  0  0  0  0  0  0  0  0
  187.4370  175.7640  142.2860 N   0  0  0  0  0  2  0  0  0  0  0  0
  186.3040  176.6860  142.3690 C   0  0  2  0  0  3  0  0  0  0  0  0
  185.1400  178.1160  140.5700 C   0  0  1  0  0  0  0  0  0  0  0  0
  186.4400  177.7630  141.3040 C   0  0  1  0  0  3  0  0  0  0  0  0
  185.6600  179.0280  141.6630 C   0  0  0  0  0  2  0  0  0  0  0  0
  185.2810  178.6960  139.3120 O   0  0  0  0  0  1  0  0  0  0  0  0
  183.1470  177.1170  139.7680 O   0  0  0  0  0  1  0  0  0  0  0  0
  183.7930  177.5740  140.8720 N   0  0  0  0  0  0  0  0  0  0  0  0
  182.9550  178.5770  141.5360 C   0  0  0  0  0  2  0  0  0  0  0  0
  180.7490  179.3980  140.7770 C   0  0  0  0  0  2  0  0  0  0  0  0
  181.4650  178.2530  141.4570 C   0  0  0  0  0  3  0  0  0  0  0  0
  180.6970  179.2660  142.2810 C   0  0  0  0  0  2  0  0  0  0  0  0
  184.9680  177.3740  144.3340 C   0  0  0  0  0  3  0  0  0  0  0  0
  186.1570  177.2700  143.7480 C   0  0  0  0  0  3  0  0  0  0  0  0
  183.6680  178.8640  145.8600 C   0  0  0  0  0  1  0  0  0  0  0  0
  184.8740  177.9510  145.7060 C   0  0  2  0  0  3  0  0  0  0  0  0
  186.0710  178.5670  146.1080 O   0  0  0  0  0  0  0  0  0  0  0  0
  185.7760  179.3520  147.1310 O   0  0  0  0  0  0  0  0  0  0  0  0
  186.5160  178.8280  148.1940 C   0  0  0  0  0  2  0  0  0  0  0  0
  187.6760  178.0130  147.6550 C   0  0  0  0  0  2  0  0  0  0  0  0
  187.3030  176.5390  147.6570 C   0  0  0  0  0  2  0  0  0  0  0  0
  188.2340  175.7730  146.7370 C   0  0  0  0  0  3  0  0  0  0  0  0
  189.6320  175.7980  147.3140 C   0  0  0  0  0  2  0  0  0  0  0  0
  188.7760  174.5570  147.4610 C   0  0  0  0  0  2  0  0  0  0  0  0
  1 10  1  0  0  0  0
  1 17  1  0  0  0  0
  2 16  2  0  0  0  0
  3 25  2  0  0  0  0
  4 13  2  0  0  0  0
  4 16  1  0  0  0  0
  5 13  1  0  0  0  0
  5  7  1  0  0  0  0
  6  2  1  0  0  0  0
  7 10  1  0  0  0  0
  8 15  1  0  0  0  0
  9  8  1  0  0  0  0
  9 23  2  0  0  0  0
 11  4  1  0  0  0  0
 12 23  1  0  0  0  0
 13  1  1  0  0  0  0
 14 22  1  0  0  0  0
 15 24  2  0  0  0  0
 15 19  1  0  0  0  0
 16  3  1  0  0  0  0
 17 25  1  0  0  0  0
 17 21  2  0  0  0  0
 19  6  1  0  0  0  0
 19 26  1  1  0  0  0
 20 11  1  0  0  0  0
 20  6  2  0  0  0  0
 22 18  2  0  0  0  0
 23 20  1  0  0  0  0
 25 14  1  0  0  0  0
 26 27  2  0  0  0  0
 28  8  1  0  0  0  0
 29 30  1  0  0  0  0
 29 28  1  0  0  0  0
 31 30  1  0  0  0  0
 31 32  1  0  0  0  0
 32 33  1  0  0  0  0
 34 35  1  0  0  0  0
 34 33  1  0  0  0  0
 35 38  1  0  0  0  0
 36 35  1  0  0  0  0
 37 35  2  0  0  0  0
 39 22  1  0  0  0  0
 40 43  1  0  0  0  0
 42 41  1  0  0  0  0
 43 41  2  0  0  0  0
 43 39  1  0  0  0  0
 44 45  1  0  0  0  0
 44 40  2  0  0  0  0
 45 42  2  0  0  0  0
 46 47  1  0  0  0  0
 46 45  1  0  0  0  0
 47 59  1  1  0  0  0
 48 51  1  6  0  0  0
 48 53  1  0  0  0  0
 48 49  1  0  0  0  0
 48 50  1  0  0  0  0
 49 50  1  0  0  0  0
 49 47  1  1  0  0  0
 52 53  1  0  0  0  0
 53 54  1  0  0  0  0
 55 56  1  0  0  0  0
 55 57  1  0  0  0  0
 56 54  1  0  0  0  0
 56 57  1  0  0  0  0
 58 61  1  0  0  0  0
 59 58  2  0  0  0  0
 61 60  1  6  0  0  0
 61 62  1  0  0  0  0
 62 63  1  0  0  0  0
 63 64  1  0  0  0  0
 65 66  1  0  0  0  0
 65 64  1  0  0  0  0
 67 68  1  0  0  0  0
 67 69  1  0  0  0  0
 67 66  1  0  0  0  0
 68 69  1  0  0  0  0
M  END
>  <MODEL>
2

>  <REMARK>
 VINA RESULT:      -4.9      3.376     10.896
  Name = 
  25 active torsions:
  status: ('A' for Active; 'I' for Inactive)
    1  A    between atoms: C_2  and  C_10
    2  A    between atoms: C_2  and  C_28
    3  A    between atoms: C_5  and  C_65
    4  A    between atoms: C_6  and  N_59
    5  A    between atoms: C_7  and  C_18
    6  A    between atoms: P_9  and  O_20
    7  A    between atoms: C_10  and  C_12
    8  A    between atoms: C_18  and  N_37
    9  A    between atoms: C_18  and  C_43
   10  A    between atoms: O_20  and  C_45
   11  A    between atoms: C_21  and  C_50
   12  A    between atoms: N_22  and  C_56
   13  A    between atoms: O_23  and  O_24
   14  A    between atoms: O_23  and  C_28
   15  A    between atoms: O_24  and  C_65
   16  A    between atoms: C_25  and  C_69
   17  A    between atoms: C_31  and  C_47
   18  A    between atoms: C_31  and  C_57
   19  A    between atoms: C_34  and  C_55
   20  A    between atoms: C_34  and  C_60
   21  A    between atoms: N_37  and  C_64
   22  A    between atoms: C_45  and  C_57
   23  A    between atoms: C_47  and  C_48
   24  A    between atoms: C_48  and  C_56
   25  A    between atoms: N_59  and  C_69
                            x       y       z     vdW  Elec       q    Type
                         _______ _______ _______ _____ _____    ______ ____

>  <TORSDO>
F 25

$$$$
=
 OpenBabel11042415093D

 69 76  0  0  1  0  0  0  0  0999 V2000
  196.9990  174.8490  142.3910 N   0  0  0  0  0  0  0  0  0  0  0  0
  196.4940  171.3420  140.1360 N   0  0  0  0  0  0  0  0  0  0  0  0
  195.7360  172.0650  142.2250 N   0  0  0  0  0  0  0  0  0  0  0  0
  196.2530  173.7070  140.3440 C   0  0  0  0  0  0  0  0  0  0  0  0
  196.5830  176.1650  140.4270 C   0  0  0  0  0  2  0  0  0  0  0  0
  196.8750  171.4880  138.7570 C   0  0  0  0  0  0  0  0  0  0  0  0
  197.0730  177.0760  141.5460 C   0  0  0  0  0  2  0  0  0  0  0  0
  196.2940  170.7440  135.8490 N   0  0  0  0  0  0  0  0  0  0  0  0
  196.8760  172.0250  135.7400 N   0  0  0  0  0  0  0  0  0  0  0  0
  197.5050  176.1750  142.6940 C   0  0  0  0  0  2  0  0  0  0  0  0
  196.0230  173.7990  138.8550 C   0  0  0  0  0  2  0  0  0  0  0  0
  197.6740  174.1890  136.3330 C   0  0  0  0  0  1  0  0  0  0  0  0
  196.5130  174.8190  141.0510 C   0  0  0  0  0  0  0  0  0  0  0  0
  195.4540  172.2240  144.5650 N   0  0  0  0  0  2  0  0  0  0  0  0
  196.5380  169.8900  136.9730 C   0  0  0  0  0  0  0  0  0  0  0  0
  196.2320  172.3440  140.9170 C   0  0  0  0  0  0  0  0  0  0  0  0
  196.9480  173.8220  143.3890 C   0  0  0  0  0  0  0  0  0  0  0  0
  194.0620  170.8520  145.8200 O   0  0  0  0  0  0  0  0  0  0  0  0
  197.4840  170.3310  138.0350 C   0  0  2  0  0  3  0  0  0  0  0  0
  196.6760  172.6580  138.1190 C   0  0  0  0  0  0  0  0  0  0  0  0
  197.6780  173.9310  144.4120 O   0  0  0  0  0  0  0  0  0  0  0  0
  194.2760  171.4220  144.7170 C   0  0  0  0  0  0  0  0  0  0  0  0
  197.0790  172.8770  136.7020 C   0  0  0  0  0  0  0  0  0  0  0  0
  195.9070  168.8040  137.0900 O   0  0  0  0  0  0  0  0  0  0  0  0
  195.9850  172.7080  143.3250 C   0  0  0  0  0  0  0  0  0  0  0  0
  197.9280  169.2270  138.9510 C   0  0  0  0  0  3  0  0  0  0  0  0
  197.0470  168.3630  139.4490 C   0  0  0  0  0  2  0  0  0  0  0  0
  195.6960  170.1560  134.6600 C   0  0  0  0  0  2  0  0  0  0  0  0
  194.1830  170.2480  134.7210 C   0  0  0  0  0  2  0  0  0  0  0  0
  193.6090  168.8790  134.9850 C   0  0  0  0  0  2  0  0  0  0  0  0
  192.1850  169.0080  135.5030 C   0  0  0  0  0  2  0  0  0  0  0  0
  191.3770  169.8940  134.5780 C   0  0  0  0  0  2  0  0  0  0  0  0
  190.6930  170.9950  135.3680 C   0  0  0  0  0  2  0  0  0  0  0  0
  191.6040  171.5830  136.2500 O   0  0  0  0  0  0  0  0  0  0  0  0
  190.6640  172.2690  137.4900 P   0  0  0  0  0  0  0  0  0  0  0  0
  190.0700  173.7660  136.9790 O   0  0  0  0  0  0  0  0  0  0  0  0
  191.6260  172.5130  138.8670 O   0  0  0  0  0  1  0  0  0  0  0  0
  189.5010  171.3620  137.8340 O   0  0  0  0  0  1  0  0  0  0  0  0
  193.2420  171.3480  143.6440 C   0  0  0  0  0  2  0  0  0  0  0  0
  191.9220  173.2680  144.5300 C   0  0  0  0  0  3  0  0  0  0  0  0
  192.5050  173.2340  142.1790 C   0  0  0  0  0  3  0  0  0  0  0  0
  191.8030  174.4270  141.9880 C   0  0  0  0  0  3  0  0  0  0  0  0
  192.5640  172.6550  143.4500 C   0  0  0  0  0  0  0  0  0  0  0  0
  191.2270  174.4650  144.3420 C   0  0  0  0  0  3  0  0  0  0  0  0
  191.1630  175.0530  143.0680 C   0  0  0  0  0  0  0  0  0  0  0  0
  190.3990  176.2500  142.8250 N   0  0  0  0  0  2  0  0  0  0  0  0
  189.0010  176.4810  143.1900 C   0  0  2  0  0  3  0  0  0  0  0  0
  187.9870  176.0780  140.8560 C   0  0  1  0  0  0  0  0  0  0  0  0
  188.2510  177.0640  142.0020 C   0  0  1  0  0  3  0  0  0  0  0  0
  186.8730  176.4250  141.8230 C   0  0  0  0  0  2  0  0  0  0  0  0
  187.7650  176.6380  139.6010 O   0  0  0  0  0  1  0  0  0  0  0  0
  188.1280  174.0460  139.6450 O   0  0  0  0  0  1  0  0  0  0  0  0
  188.3140  174.6320  140.8570 N   0  0  0  0  0  0  0  0  0  0  0  0
  187.5270  173.9110  141.8620 C   0  0  0  0  0  2  0  0  0  0  0  0
  189.0980  172.0470  142.2740 C   0  0  0  0  0  2  0  0  0  0  0  0
  188.3920  173.2210  142.9130 C   0  0  0  0  0  3  0  0  0  0  0  0
  187.8750  171.8140  143.1300 C   0  0  0  0  0  2  0  0  0  0  0  0
  188.6200  176.8230  145.6100 C   0  0  0  0  0  3  0  0  0  0  0  0
  188.8790  177.3470  144.4150 C   0  0  0  0  0  3  0  0  0  0  0  0
  189.7620  177.6580  147.6700 C   0  0  0  0  0  1  0  0  0  0  0  0
  188.5180  177.7200  146.7970 C   0  0  2  0  0  3  0  0  0  0  0  0
  187.3370  177.5050  147.5280 O   0  0  0  0  0  0  0  0  0  0  0  0
  187.1150  178.6010  148.2340 O   0  0  0  0  0  0  0  0  0  0  0  0
  186.0090  179.1920  147.6170 C   0  0  0  0  0  2  0  0  0  0  0  0
  184.9360  178.1450  147.3840 C   0  0  0  0  0  2  0  0  0  0  0  0
  184.5070  178.1760  145.9260 C   0  0  0  0  0  2  0  0  0  0  0  0
  185.2250  179.3000  145.2040 C   0  0  0  0  0  3  0  0  0  0  0  0
  185.6920  178.8030  143.8540 C   0  0  0  0  0  2  0  0  0  0  0  0
  184.4560  179.6730  143.9530 C   0  0  0  0  0  2  0  0  0  0  0  0
  1 10  1  0  0  0  0
  1 17  1  0  0  0  0
  2 16  2  0  0  0  0
  3 25  2  0  0  0  0
  4 16  1  0  0  0  0
  4 13  2  0  0  0  0
  5 13  1  0  0  0  0
  5  7  1  0  0  0  0
  6  2  1  0  0  0  0
  7 10  1  0  0  0  0
  8 15  1  0  0  0  0
  9  8  1  0  0  0  0
  9 23  2  0  0  0  0
 11  4  1  0  0  0  0
 12 23  1  0  0  0  0
 13  1  1  0  0  0  0
 14 22  1  0  0  0  0
 15 24  2  0  0  0  0
 15 19  1  0  0  0  0
 16  3  1  0  0  0  0
 17 21  2  0  0  0  0
 19  6  1  0  0  0  0
 19 26  1  1  0  0  0
 20  6  2  0  0  0  0
 20 11  1  0  0  0  0
 22 18  2  0  0  0  0
 23 20  1  0  0  0  0
 25 17  1  0  0  0  0
 25 14  1  0  0  0  0
 26 27  2  0  0  0  0
 28 29  1  0  0  0  0
 28  8  1  0  0  0  0
 29 30  1  0  0  0  0
 30 31  1  0  0  0  0
 32 33  1  0  0  0  0
 32 31  1  0  0  0  0
 33 34  1  0  0  0  0
 34 35  1  0  0  0  0
 35 38  1  0  0  0  0
 35 37  1  0  0  0  0
 36 35  2  0  0  0  0
 39 22  1  0  0  0  0
 41 43  1  0  0  0  0
 42 41  2  0  0  0  0
 42 45  1  0  0  0  0
 43 39  1  0  0  0  0
 43 40  2  0  0  0  0
 44 40  1  0  0  0  0
 45 44  2  0  0  0  0
 46 45  1  0  0  0  0
 46 47  1  0  0  0  0
 47 59  1  1  0  0  0
 48 51  1  6  0  0  0
 48 53  1  0  0  0  0
 48 50  1  0  0  0  0
 48 49  1  0  0  0  0
 49 47  1  1  0  0  0
 50 49  1  0  0  0  0
 52 53  1  0  0  0  0
 53 54  1  0  0  0  0
 54 56  1  0  0  0  0
 55 56  1  0  0  0  0
 55 57  1  0  0  0  0
 56 57  1  0  0  0  0
 58 61  1  0  0  0  0
 59 58  2  0  0  0  0
 61 62  1  0  0  0  0
 61 60  1  1  0  0  0
 62 63  1  0  0  0  0
 64 63  1  0  0  0  0
 65 64  1  0  0  0  0
 66 65  1  0  0  0  0
 67 66  1  0  0  0  0
 68 69  1  0  0  0  0
 68 67  1  0  0  0  0
 69 67  1  0  0  0  0
M  END
>  <MODEL>
3

>  <REMARK>
 VINA RESULT:      -4.2      3.288     10.471
  Name = 
  25 active torsions:
  status: ('A' for Active; 'I' for Inactive)
    1  A    between atoms: C_2  and  C_10
    2  A    between atoms: C_2  and  C_28
    3  A    between atoms: C_5  and  C_65
    4  A    between atoms: C_6  and  N_59
    5  A    between atoms: C_7  and  C_18
    6  A    between atoms: P_9  and  O_20
    7  A    between atoms: C_10  and  C_12
    8  A    between atoms: C_18  and  N_37
    9  A    between atoms: C_18  and  C_43
   10  A    between atoms: O_20  and  C_45
   11  A    between atoms: C_21  and  C_50
   12  A    between atoms: N_22  and  C_56
   13  A    between atoms: O_23  and  O_24
   14  A    between atoms: O_23  and  C_28
   15  A    between atoms: O_24  and  C_65
   16  A    between atoms: C_25  and  C_69
   17  A    between atoms: C_31  and  C_47
   18  A    between atoms: C_31  and  C_57
   19  A    between atoms: C_34  and  C_55
   20  A    between atoms: C_34  and  C_60
   21  A    between atoms: N_37  and  C_64
   22  A    between atoms: C_45  and  C_57
   23  A    between atoms: C_47  and  C_48
   24  A    between atoms: C_48  and  C_56
   25  A    between atoms: N_59  and  C_69
                            x       y       z     vdW  Elec       q    Type
                         _______ _______ _______ _____ _____    ______ ____

>  <TORSDO>
F 25

$$$$
=
 OpenBabel11042415093D

 69 76  0  0  1  0  0  0  0  0999 V2000
  194.1010  171.9280  144.6920 N   0  0  0  0  0  0  0  0  0  0  0  0
  192.5450  175.6390  145.8980 N   0  0  0  0  0  0  0  0  0  0  0  0
  194.2910  174.9770  144.4910 N   0  0  0  0  0  0  0  0  0  0  0  0
  192.2310  173.5180  144.8490 C   0  0  0  0  0  0  0  0  0  0  0  0
  191.8720  171.1200  144.3210 C   0  0  0  0  0  2  0  0  0  0  0  0
  191.2480  175.5430  146.5110 C   0  0  0  0  0  0  0  0  0  0  0  0
  192.8510  169.9570  144.2150 C   0  0  0  0  0  2  0  0  0  0  0  0
  188.4930  176.8170  146.8820 N   0  0  0  0  0  0  0  0  0  0  0  0
  188.2270  175.4370  147.0170 N   0  0  0  0  0  0  0  0  0  0  0  0
  194.2120  170.4820  144.6490 C   0  0  0  0  0  2  0  0  0  0  0  0
  190.7360  173.7090  144.9450 C   0  0  0  0  0  2  0  0  0  0  0  0
  188.4980  173.0740  146.8990 C   0  0  0  0  0  1  0  0  0  0  0  0
  192.7330  172.3060  144.5600 C   0  0  0  0  0  0  0  0  0  0  0  0
  196.4710  174.6310  143.6500 N   0  0  0  0  0  2  0  0  0  0  0  0
  189.7910  177.3700  147.1330 C   0  0  0  0  0  0  0  0  0  0  0  0
  193.0550  174.7080  145.1500 C   0  0  0  0  0  0  0  0  0  0  0  0
  195.2630  172.7650  144.7580 C   0  0  0  0  0  0  0  0  0  0  0  0
  197.7270  176.2420  142.5440 O   0  0  0  0  0  0  0  0  0  0  0  0
  190.8840  176.4810  147.6140 C   0  0  2  0  0  3  0  0  0  0  0  0
  190.3640  174.6180  146.0860 C   0  0  0  0  0  0  0  0  0  0  0  0
  196.3500  172.2670  145.1600 O   0  0  0  0  0  0  0  0  0  0  0  0
  196.5830  175.7810  142.8020 C   0  0  0  0  0  0  0  0  0  0  0  0
  189.0190  174.4530  146.7040 C   0  0  0  0  0  0  0  0  0  0  0  0
  190.0160  178.5860  146.8870 O   0  0  0  0  0  0  0  0  0  0  0  0
  195.2650  174.1510  144.2580 C   0  0  0  0  0  0  0  0  0  0  0  0
  192.0640  177.2200  148.1780 C   0  0  0  0  0  3  0  0  0  0  0  0
  191.9660  177.8760  149.3320 C   0  0  0  0  0  2  0  0  0  0  0  0
  187.3640  177.7300  146.7970 C   0  0  0  0  0  2  0  0  0  0  0  0
  186.0770  176.9670  146.5480 C   0  0  0  0  0  2  0  0  0  0  0  0
  185.4730  177.4190  145.2430 C   0  0  0  0  0  2  0  0  0  0  0  0
  186.5090  178.1810  144.4310 C   0  0  0  0  0  2  0  0  0  0  0  0
  186.1470  178.1380  142.9610 C   0  0  0  0  0  2  0  0  0  0  0  0
  187.4000  178.2280  142.1080 C   0  0  0  0  0  2  0  0  0  0  0  0
  188.3630  177.3330  142.5830 O   0  0  0  0  0  0  0  0  0  0  0  0
  188.0640  175.8670  141.7750 P   0  0  0  0  0  0  0  0  0  0  0  0
  186.9010  174.9860  142.6270 O   0  0  0  0  0  1  0  0  0  0  0  0
  189.4920  174.9520  141.7080 O   0  0  0  0  0  1  0  0  0  0  0  0
  187.5610  176.1310  140.3710 O   0  0  0  0  0  0  0  0  0  0  0  0
  195.3910  176.3640  142.1220 C   0  0  0  0  0  2  0  0  0  0  0  0
  194.0470  174.6580  140.8980 C   0  0  0  0  0  3  0  0  0  0  0  0
  195.7970  175.8410  139.7120 C   0  0  0  0  0  3  0  0  0  0  0  0
  195.5270  175.0900  138.5650 C   0  0  0  0  0  3  0  0  0  0  0  0
  195.0570  175.6240  140.8780 C   0  0  0  0  0  0  0  0  0  0  0  0
  193.7700  173.9110  139.7500 C   0  0  0  0  0  3  0  0  0  0  0  0
  194.5090  174.1230  138.5740 C   0  0  0  0  0  0  0  0  0  0  0  0
  194.2970  173.3260  137.3930 N   0  0  0  0  0  2  0  0  0  0  0  0
  194.5750  171.8970  137.2440 C   0  0  2  0  0  3  0  0  0  0  0  0
  192.6160  171.2380  135.7060 C   0  0  1  0  0  0  0  0  0  0  0  0
  194.1290  171.4300  135.8670 C   0  0  1  0  0  3  0  0  0  0  0  0
  193.2810  172.4810  135.1490 C   0  0  0  0  0  2  0  0  0  0  0  0
  192.2090  170.3790  134.6890 O   0  0  0  0  0  1  0  0  0  0  0  0
  191.2100  170.4660  137.4500 O   0  0  0  0  0  1  0  0  0  0  0  0
  191.5840  171.5520  136.7240 N   0  0  0  0  0  0  0  0  0  0  0  0
  190.3950  172.1470  136.1080 C   0  0  0  0  0  2  0  0  0  0  0  0
  189.5260  174.4550  135.9320 C   0  0  0  0  0  2  0  0  0  0  0  0
  189.8480  173.3350  136.8950 C   0  0  0  0  0  3  0  0  0  0  0  0
  190.7980  174.5050  136.7460 C   0  0  0  0  0  2  0  0  0  0  0  0
  194.6060  170.0910  138.9340 C   0  0  0  0  0  3  0  0  0  0  0  0
  193.9480  171.0860  138.3460 C   0  0  0  0  0  3  0  0  0  0  0  0
  192.7670  170.0730  140.6240 C   0  0  0  0  0  1  0  0  0  0  0  0
  193.9480  169.3230  140.0290 C   0  0  2  0  0  3  0  0  0  0  0  0
  194.8630  168.8970  141.0070 O   0  0  0  0  0  0  0  0  0  0  0  0
  196.0260  168.7310  140.4010 O   0  0  0  0  0  0  0  0  0  0  0  0
  196.9670  168.7870  141.4330 C   0  0  0  0  0  2  0  0  0  0  0  0
  196.7300  170.0290  142.2700 C   0  0  0  0  0  2  0  0  0  0  0  0
  197.7000  171.1190  141.8440 C   0  0  0  0  0  2  0  0  0  0  0  0
  196.9730  172.1560  141.0090 C   0  0  0  0  0  3  0  0  0  0  0  0
  197.9400  173.2560  140.6320 C   0  0  0  0  0  2  0  0  0  0  0  0
  197.5670  172.1960  139.6170 C   0  0  0  0  0  2  0  0  0  0  0  0
  1 17  1  0  0  0  0
  2  6  1  0  0  0  0
  3 16  1  0  0  0  0
  4 11  1  0  0  0  0
  4 16  1  0  0  0  0
  5 13  1  0  0  0  0
  6 19  1  0  0  0  0
  7  5  1  0  0  0  0
  7 10  1  0  0  0  0
  8  9  1  0  0  0  0
  8 15  1  0  0  0  0
 10  1  1  0  0  0  0
 11 20  1  0  0  0  0
 13  1  1  0  0  0  0
 13  4  2  0  0  0  0
 14 25  1  0  0  0  0
 15 19  1  0  0  0  0
 16  2  2  0  0  0  0
 17 21  2  0  0  0  0
 18 22  2  0  0  0  0
 19 26  1  6  0  0  0
 20  6  2  0  0  0  0
 20 23  1  0  0  0  0
 22 14  1  0  0  0  0
 23 12  1  0  0  0  0
 23  9  2  0  0  0  0
 24 15  2  0  0  0  0
 25  3  2  0  0  0  0
 25 17  1  0  0  0  0
 26 27  2  0  0  0  0
 28  8  1  0  0  0  0
 29 28  1  0  0  0  0
 30 29  1  0  0  0  0
 31 30  1  0  0  0  0
 32 31  1  0  0  0  0
 33 34  1  0  0  0  0
 33 32  1  0  0  0  0
 35 34  1  0  0  0  0
 35 36  1  0  0  0  0
 37 35  1  0  0  0  0
 38 35  2  0  0  0  0
 39 22  1  0  0  0  0
 41 43  2  0  0  0  0
 42 45  2  0  0  0  0
 42 41  1  0  0  0  0
 43 40  1  0  0  0  0
 43 39  1  0  0  0  0
 44 40  2  0  0  0  0
 45 44  1  0  0  0  0
 46 45  1  0  0  0  0
 47 46  1  0  0  0  0
 47 59  1  1  0  0  0
 48 51  1  6  0  0  0
 48 49  1  0  0  0  0
 48 53  1  0  0  0  0
 49 47  1  1  0  0  0
 50 48  1  0  0  0  0
 50 49  1  0  0  0  0
 53 52  1  0  0  0  0
 54 53  1  0  0  0  0
 54 56  1  0  0  0  0
 55 57  1  0  0  0  0
 55 56  1  0  0  0  0
 57 56  1  0  0  0  0
 58 61  1  0  0  0  0
 59 58  2  0  0  0  0
 61 60  1  1  0  0  0
 61 62  1  0  0  0  0
 63 62  1  0  0  0  0
 63 64  1  0  0  0  0
 64 65  1  0  0  0  0
 66 65  1  0  0  0  0
 67 66  1  0  0  0  0
 68 67  1  0  0  0  0
 69 68  1  0  0  0  0
 69 67  1  0  0  0  0
M  END
>  <MODEL>
4

>  <REMARK>
 VINA RESULT:      -4.1      3.285      5.338
  Name = 
  25 active torsions:
  status: ('A' for Active; 'I' for Inactive)
    1  A    between atoms: C_2  and  C_10
    2  A    between atoms: C_2  and  C_28
    3  A    between atoms: C_5  and  C_65
    4  A    between atoms: C_6  and  N_59
    5  A    between atoms: C_7  and  C_18
    6  A    between atoms: P_9  and  O_20
    7  A    between atoms: C_10  and  C_12
    8  A    between atoms: C_18  and  N_37
    9  A    between atoms: C_18  and  C_43
   10  A    between atoms: O_20  and  C_45
   11  A    between atoms: C_21  and  C_50
   12  A    between atoms: N_22  and  C_56
   13  A    between atoms: O_23  and  O_24
   14  A    between atoms: O_23  and  C_28
   15  A    between atoms: O_24  and  C_65
   16  A    between atoms: C_25  and  C_69
   17  A    between atoms: C_31  and  C_47
   18  A    between atoms: C_31  and  C_57
   19  A    between atoms: C_34  and  C_55
   20  A    between atoms: C_34  and  C_60
   21  A    between atoms: N_37  and  C_64
   22  A    between atoms: C_45  and  C_57
   23  A    between atoms: C_47  and  C_48
   24  A    between atoms: C_48  and  C_56
   25  A    between atoms: N_59  and  C_69
                            x       y       z     vdW  Elec       q    Type
                         _______ _______ _______ _____ _____    ______ ____

>  <TORSDO>
F 25

$$$$
=
 OpenBabel11042415093D

 69 76  0  0  1  0  0  0  0  0999 V2000
  193.6050  176.0170  142.7520 N   0  0  0  0  0  0  0  0  0  0  0  0
  195.8820  174.2340  139.7050 N   0  0  0  0  0  0  0  0  0  0  0  0
  195.8410  174.0520  142.0360 N   0  0  0  0  0  0  0  0  0  0  0  0
  193.7570  174.6660  140.7020 C   0  0  0  0  0  0  0  0  0  0  0  0
  191.6100  175.6450  141.4710 C   0  0  0  0  0  2  0  0  0  0  0  0
  195.3170  174.4060  138.3940 C   0  0  0  0  0  0  0  0  0  0  0  0
  191.2820  176.5370  142.6620 C   0  0  0  0  0  2  0  0  0  0  0  0
  194.8230  173.1740  135.6400 N   0  0  0  0  0  0  0  0  0  0  0  0
  193.7270  174.0480  135.7990 N   0  0  0  0  0  0  0  0  0  0  0  0
  192.6040  176.8990  143.3220 C   0  0  0  0  0  2  0  0  0  0  0  0
  193.0850  174.2250  139.4230 C   0  0  0  0  0  2  0  0  0  0  0  0
  192.1230  175.4780  136.8270 C   0  0  0  0  0  1  0  0  0  0  0  0
  193.0510  175.3250  141.6360 C   0  0  0  0  0  0  0  0  0  0  0  0
  196.4970  174.2140  144.2990 N   0  0  0  0  0  2  0  0  0  0  0  0
  196.0580  173.3660  136.3400 C   0  0  0  0  0  0  0  0  0  0  0  0
  195.2040  174.3800  140.8020 C   0  0  0  0  0  0  0  0  0  0  0  0
  194.8960  175.8620  143.3550 C   0  0  0  0  0  0  0  0  0  0  0  0
  197.9410  172.7370  145.3610 O   0  0  0  0  0  0  0  0  0  0  0  0
  196.2240  174.5580  137.2170 C   0  0  2  0  0  3  0  0  0  0  0  0
  193.9800  174.4210  138.2280 C   0  0  0  0  0  0  0  0  0  0  0  0
  195.3100  176.7540  144.1450 O   0  0  0  0  0  0  0  0  0  0  0  0
  197.0600  172.9080  144.4770 C   0  0  0  0  0  0  0  0  0  0  0  0
  193.3410  174.6270  136.8990 C   0  0  0  0  0  0  0  0  0  0  0  0
  196.9700  172.4980  136.2610 O   0  0  0  0  0  0  0  0  0  0  0  0
  195.7040  174.6410  143.1840 C   0  0  0  0  0  0  0  0  0  0  0  0
  197.6490  174.8390  137.5970 C   0  0  0  0  0  3  0  0  0  0  0  0
  197.9340  175.6700  138.5980 C   0  0  0  0  0  2  0  0  0  0  0  0
  194.8110  172.2530  134.5130 C   0  0  0  0  0  2  0  0  0  0  0  0
  193.7370  171.1970  134.6990 C   0  0  0  0  0  2  0  0  0  0  0  0
  194.3180  170.0180  135.4370 C   0  0  0  0  0  2  0  0  0  0  0  0
  193.7690  169.9770  136.8560 C   0  0  0  0  0  2  0  0  0  0  0  0
  192.3380  169.4820  136.8410 C   0  0  0  0  0  2  0  0  0  0  0  0
  191.4550  170.4490  136.0720 C   0  0  0  0  0  2  0  0  0  0  0  0
  191.2530  171.6090  136.8260 O   0  0  0  0  0  0  0  0  0  0  0  0
  189.9570  172.4190  136.0800 P   0  0  0  0  0  0  0  0  0  0  0  0
  188.8360  171.2860  135.5200 O   0  0  0  0  0  1  0  0  0  0  0  0
  190.5300  173.3110  134.7530 O   0  0  0  0  0  0  0  0  0  0  0  0
  189.2780  173.3490  137.0640 O   0  0  0  0  0  1  0  0  0  0  0  0
  196.5380  171.7290  143.7270 C   0  0  0  0  0  2  0  0  0  0  0  0
  194.4020  172.1550  144.9390 C   0  0  0  0  0  3  0  0  0  0  0  0
  194.3340  170.9630  142.8320 C   0  0  0  0  0  3  0  0  0  0  0  0
  192.9510  170.8130  142.9610 C   0  0  0  0  0  3  0  0  0  0  0  0
  195.0590  171.6340  143.8210 C   0  0  0  0  0  0  0  0  0  0  0  0
  193.0180  172.0130  145.0670 C   0  0  0  0  0  3  0  0  0  0  0  0
  192.2830  171.3400  144.0760 C   0  0  0  0  0  0  0  0  0  0  0  0
  190.8660  171.1160  144.2090 N   0  0  0  0  0  2  0  0  0  0  0  0
  189.7950  171.9820  143.7140 C   0  0  2  0  0  3  0  0  0  0  0  0
  188.7900  172.8720  141.5160 C   0  0  1  0  0  0  0  0  0  0  0  0
  189.6440  171.8040  142.2120 C   0  0  1  0  0  3  0  0  0  0  0  0
  190.3020  172.9410  141.4290 C   0  0  0  0  0  2  0  0  0  0  0  0
  188.2270  172.5100  140.2950 O   0  0  0  0  0  1  0  0  0  0  0  0
  186.8990  173.8970  142.5080 O   0  0  0  0  0  1  0  0  0  0  0  0
  188.2000  174.0710  142.1580 N   0  0  0  0  0  0  0  0  0  0  0  0
  188.3070  175.2450  141.2870 C   0  0  0  0  0  2  0  0  0  0  0  0
  186.3420  176.6620  141.7840 C   0  0  0  0  0  2  0  0  0  0  0  0
  187.8380  176.5320  141.9630 C   0  0  0  0  0  3  0  0  0  0  0  0
  187.2770  177.4640  140.9100 C   0  0  0  0  0  2  0  0  0  0  0  0
  189.8960  173.8340  145.3520 C   0  0  0  0  0  3  0  0  0  0  0  0
  190.0190  173.4220  144.0940 C   0  0  0  0  0  3  0  0  0  0  0  0
  190.9940  175.4330  146.9260 C   0  0  0  0  0  1  0  0  0  0  0  0
  190.1380  175.2680  145.6810 C   0  0  2  0  0  3  0  0  0  0  0  0
  188.9450  176.0080  145.7460 O   0  0  0  0  0  0  0  0  0  0  0  0
  188.4590  175.8500  146.9660 O   0  0  0  0  0  0  0  0  0  0  0  0
  187.4390  176.8000  147.0580 C   0  0  0  0  0  2  0  0  0  0  0  0
  186.7140  176.9000  145.7300 C   0  0  0  0  0  2  0  0  0  0  0  0
  185.8180  178.1280  145.7330 C   0  0  0  0  0  2  0  0  0  0  0  0
  185.7200  178.6960  144.3300 C   0  0  0  0  0  3  0  0  0  0  0  0
  184.2970  179.1370  144.0720 C   0  0  0  0  0  2  0  0  0  0  0  0
  185.3590  180.1660  144.4000 C   0  0  0  0  0  2  0  0  0  0  0  0
  1 10  1  0  0  0  0
  1 17  1  0  0  0  0
  2 16  2  0  0  0  0
  3 25  2  0  0  0  0
  4 16  1  0  0  0  0
  4 13  2  0  0  0  0
  5 13  1  0  0  0  0
  5  7  1  0  0  0  0
  6  2  1  0  0  0  0
  7 10  1  0  0  0  0
  8  9  1  0  0  0  0
  8 15  1  0  0  0  0
  9 23  2  0  0  0  0
 11  4  1  0  0  0  0
 12 23  1  0  0  0  0
 13  1  1  0  0  0  0
 14 22  1  0  0  0  0
 15 19  1  0  0  0  0
 16  3  1  0  0  0  0
 17 21  2  0  0  0  0
 19 26  1  1  0  0  0
 19  6  1  0  0  0  0
 20  6  2  0  0  0  0
 20 11  1  0  0  0  0
 22 18  2  0  0  0  0
 23 20  1  0  0  0  0
 24 15  2  0  0  0  0
 25 17  1  0  0  0  0
 25 14  1  0  0  0  0
 26 27  2  0  0  0  0
 28 29  1  0  0  0  0
 28  8  1  0  0  0  0
 29 30  1  0  0  0  0
 30 31  1  0  0  0  0
 32 31  1  0  0  0  0
 33 34  1  0  0  0  0
 33 32  1  0  0  0  0
 35 34  1  0  0  0  0
 35 38  1  0  0  0  0
 36 35  1  0  0  0  0
 37 35  2  0  0  0  0
 39 43  1  0  0  0  0
 39 22  1  0  0  0  0
 40 44  1  0  0  0  0
 41 42  2  0  0  0  0
 41 43  1  0  0  0  0
 42 45  1  0  0  0  0
 43 40  2  0  0  0  0
 45 46  1  0  0  0  0
 45 44  2  0  0  0  0
 47 59  1  6  0  0  0
 47 46  1  0  0  0  0
 48 51  1  6  0  0  0
 48 53  1  0  0  0  0
 48 49  1  0  0  0  0
 49 47  1  1  0  0  0
 50 48  1  0  0  0  0
 50 49  1  0  0  0  0
 53 52  1  0  0  0  0
 54 56  1  0  0  0  0
 54 53  1  0  0  0  0
 55 56  1  0  0  0  0
 57 55  1  0  0  0  0
 57 56  1  0  0  0  0
 58 61  1  0  0  0  0
 59 58  2  0  0  0  0
 61 62  1  0  0  0  0
 61 60  1  1  0  0  0
 62 63  1  0  0  0  0
 63 64  1  0  0  0  0
 65 66  1  0  0  0  0
 65 64  1  0  0  0  0
 67 69  1  0  0  0  0
 67 66  1  0  0  0  0
 68 67  1  0  0  0  0
 68 69  1  0  0  0  0
M  END
>  <MODEL>
5

>  <REMARK>
 VINA RESULT:      -4.0      3.312      9.663
  Name = 
  25 active torsions:
  status: ('A' for Active; 'I' for Inactive)
    1  A    between atoms: C_2  and  C_10
    2  A    between atoms: C_2  and  C_28
    3  A    between atoms: C_5  and  C_65
    4  A    between atoms: C_6  and  N_59
    5  A    between atoms: C_7  and  C_18
    6  A    between atoms: P_9  and  O_20
    7  A    between atoms: C_10  and  C_12
    8  A    between atoms: C_18  and  N_37
    9  A    between atoms: C_18  and  C_43
   10  A    between atoms: O_20  and  C_45
   11  A    between atoms: C_21  and  C_50
   12  A    between atoms: N_22  and  C_56
   13  A    between atoms: O_23  and  O_24
   14  A    between atoms: O_23  and  C_28
   15  A    between atoms: O_24  and  C_65
   16  A    between atoms: C_25  and  C_69
   17  A    between atoms: C_31  and  C_47
   18  A    between atoms: C_31  and  C_57
   19  A    between atoms: C_34  and  C_55
   20  A    between atoms: C_34  and  C_60
   21  A    between atoms: N_37  and  C_64
   22  A    between atoms: C_45  and  C_57
   23  A    between atoms: C_47  and  C_48
   24  A    between atoms: C_48  and  C_56
   25  A    between atoms: N_59  and  C_69
                            x       y       z     vdW  Elec       q    Type
                         _______ _______ _______ _____ _____    ______ ____

>  <TORSDO>
F 25

$$$$
=
 OpenBabel11042415093D

 69 76  0  0  1  0  0  0  0  0999 V2000
  196.1980  172.5630  143.6960 N   0  0  0  0  0  0  0  0  0  0  0  0
  192.0910  173.1160  143.0090 N   0  0  0  0  0  0  0  0  0  0  0  0
  193.7410  174.3380  144.1270 N   0  0  0  0  0  0  0  0  0  0  0  0
  194.3000  172.8240  142.1530 C   0  0  0  0  0  0  0  0  0  0  0  0
  196.4940  171.9470  141.3950 C   0  0  0  0  0  2  0  0  0  0  0  0
  191.5640  172.2650  141.9780 C   0  0  0  0  0  0  0  0  0  0  0  0
  197.7800  171.6600  142.1610 C   0  0  0  0  0  2  0  0  0  0  0  0
  189.6130  171.9860  139.6400 N   0  0  0  0  0  0  0  0  0  0  0  0
  190.6580  171.1050  139.2890 N   0  0  0  0  0  0  0  0  0  0  0  0
  197.4770  171.8800  143.6350 C   0  0  0  0  0  2  0  0  0  0  0  0
  193.7160  172.5020  140.7990 C   0  0  0  0  0  2  0  0  0  0  0  0
  192.7930  170.0500  139.2600 C   0  0  0  0  0  1  0  0  0  0  0  0
  195.5920  172.5540  142.4060 C   0  0  0  0  0  0  0  0  0  0  0  0
  194.9730  175.3520  145.8700 N   0  0  0  0  0  2  0  0  0  0  0  0
  189.3540  172.3580  140.9990 C   0  0  0  0  0  0  0  0  0  0  0  0
  193.3560  173.3740  143.1500 C   0  0  0  0  0  0  0  0  0  0  0  0
  195.7480  173.2020  144.8970 C   0  0  0  0  0  0  0  0  0  0  0  0
  194.4260  177.3810  146.8610 O   0  0  0  0  0  0  0  0  0  0  0  0
  190.1660  171.7510  142.0910 C   0  0  2  0  0  3  0  0  0  0  0  0
  192.3230  171.9400  140.9130 C   0  0  0  0  0  0  0  0  0  0  0  0
  196.2620  172.8610  145.9980 O   0  0  0  0  0  0  0  0  0  0  0  0
  194.4120  176.6700  145.8210 C   0  0  0  0  0  0  0  0  0  0  0  0
  191.8400  171.0380  139.8310 C   0  0  0  0  0  0  0  0  0  0  0  0
  188.4880  173.2370  141.2590 O   0  0  0  0  0  0  0  0  0  0  0  0
  194.7970  174.3280  144.8820 C   0  0  0  0  0  0  0  0  0  0  0  0
  189.5760  171.9330  143.4590 C   0  0  0  0  0  3  0  0  0  0  0  0
  190.0000  171.1980  144.4850 C   0  0  0  0  0  2  0  0  0  0  0  0
  188.5890  172.2680  138.6460 C   0  0  0  0  0  2  0  0  0  0  0  0
  189.2110  172.4470  137.2740 C   0  0  0  0  0  2  0  0  0  0  0  0
  189.4890  173.9100  137.0390 C   0  0  0  0  0  2  0  0  0  0  0  0
  190.8630  174.0790  136.4070 C   0  0  0  0  0  2  0  0  0  0  0  0
  191.9320  174.0400  137.4790 C   0  0  0  0  0  2  0  0  0  0  0  0
  193.2310  174.6180  136.9470 C   0  0  0  0  0  2  0  0  0  0  0  0
  194.3150  173.8870  137.4430 O   0  0  0  0  0  0  0  0  0  0  0  0
  195.6910  174.5380  136.6880 P   0  0  0  0  0  0  0  0  0  0  0  0
  196.5070  175.5400  137.7770 O   0  0  0  0  0  1  0  0  0  0  0  0
  195.2200  175.4700  135.3490 O   0  0  0  0  0  0  0  0  0  0  0  0
  196.6210  173.4310  136.2370 O   0  0  0  0  0  1  0  0  0  0  0  0
  193.9260  177.2610  144.5400 C   0  0  0  0  0  2  0  0  0  0  0  0
  192.1160  176.7700  142.8990 C   0  0  0  0  0  3  0  0  0  0  0  0
  191.6470  176.5350  145.2630 C   0  0  0  0  0  3  0  0  0  0  0  0
  190.3250  176.1940  144.9670 C   0  0  0  0  0  3  0  0  0  0  0  0
  192.5420  176.8220  144.2280 C   0  0  0  0  0  0  0  0  0  0  0  0
  190.7960  176.4210  142.6000 C   0  0  0  0  0  3  0  0  0  0  0  0
  189.8910  176.1300  143.6350 C   0  0  0  0  0  0  0  0  0  0  0  0
  188.5060  175.8340  143.3670 N   0  0  0  0  0  2  0  0  0  0  0  0
  187.4740  176.7860  142.9560 C   0  0  2  0  0  3  0  0  0  0  0  0
  187.2350  178.0260  140.7110 C   0  0  1  0  0  0  0  0  0  0  0  0
  188.0640  177.7930  141.9810 C   0  0  1  0  0  3  0  0  0  0  0  0
  187.1860  179.0380  141.8400 C   0  0  0  0  0  2  0  0  0  0  0  0
  187.9240  178.5260  139.6100 O   0  0  0  0  0  1  0  0  0  0  0  0
  185.7070  177.2220  139.0900 O   0  0  0  0  0  1  0  0  0  0  0  0
  185.9070  177.4370  140.4160 N   0  0  0  0  0  0  0  0  0  0  0  0
  184.8260  178.2820  140.9320 C   0  0  0  0  0  2  0  0  0  0  0  0
  182.4250  178.6720  140.4820 C   0  0  0  0  0  2  0  0  0  0  0  0
  183.4540  177.6200  140.8300 C   0  0  0  0  0  3  0  0  0  0  0  0
  182.5520  178.1860  141.9070 C   0  0  0  0  0  2  0  0  0  0  0  0
  185.5200  177.3570  144.3620 C   0  0  0  0  0  3  0  0  0  0  0  0
  186.8280  177.4560  144.1390 C   0  0  0  0  0  3  0  0  0  0  0  0
  183.9290  179.1090  145.1620 C   0  0  0  0  0  1  0  0  0  0  0  0
  184.9270  178.0300  145.5530 C   0  0  2  0  0  3  0  0  0  0  0  0
  185.9070  178.5010  146.4430 O   0  0  0  0  0  0  0  0  0  0  0  0
  185.3960  178.4170  147.6600 O   0  0  0  0  0  0  0  0  0  0  0  0
  186.4950  178.5730  148.5090 C   0  0  0  0  0  2  0  0  0  0  0  0
  187.7670  178.2090  147.7670 C   0  0  0  0  0  2  0  0  0  0  0  0
  188.9680  178.7410  148.5310 C   0  0  0  0  0  2  0  0  0  0  0  0
  189.9880  177.6340  148.7210 C   0  0  0  0  0  3  0  0  0  0  0  0
  191.1870  177.9080  147.8410 C   0  0  0  0  0  2  0  0  0  0  0  0
  191.2540  178.2070  149.3240 C   0  0  0  0  0  2  0  0  0  0  0  0
  1 17  1  0  0  0  0
  2 16  2  0  0  0  0
  3 25  2  0  0  0  0
  4 13  2  0  0  0  0
  4 16  1  0  0  0  0
  5  7  1  0  0  0  0
  5 13  1  0  0  0  0
  6 19  1  0  0  0  0
  6  2  1  0  0  0  0
  7 10  1  0  0  0  0
  8 15  1  0  0  0  0
  9  8  1  0  0  0  0
  9 23  2  0  0  0  0
 10  1  1  0  0  0  0
 11 20  1  0  0  0  0
 11  4  1  0  0  0  0
 12 23  1  0  0  0  0
 13  1  1  0  0  0  0
 15 24  2  0  0  0  0
 15 19  1  0  0  0  0
 16  3  1  0  0  0  0
 17 21  2  0  0  0  0
 19 26  1  1  0  0  0
 20  6  2  0  0  0  0
 22 14  1  0  0  0  0
 22 18  2  0  0  0  0
 23 20  1  0  0  0  0
 25 17  1  0  0  0  0
 25 14  1  0  0  0  0
 26 27  2  0  0  0  0
 28  8  1  0  0  0  0
 29 28  1  0  0  0  0
 30 29  1  0  0  0  0
 31 30  1  0  0  0  0
 31 32  1  0  0  0  0
 33 34  1  0  0  0  0
 33 32  1  0  0  0  0
 35 34  1  0  0  0  0
 35 36  1  0  0  0  0
 37 35  2  0  0  0  0
 38 35  1  0  0  0  0
 39 22  1  0  0  0  0
 40 43  1  0  0  0  0
 42 41  1  0  0  0  0
 43 39  1  0  0  0  0
 43 41  2  0  0  0  0
 44 40  2  0  0  0  0
 44 45  1  0  0  0  0
 45 42  2  0  0  0  0
 46 45  1  0  0  0  0
 47 46  1  0  0  0  0
 47 59  1  1  0  0  0
 48 51  1  6  0  0  0
 48 50  1  0  0  0  0
 48 49  1  0  0  0  0
 49 47  1  1  0  0  0
 50 49  1  0  0  0  0
 52 53  1  0  0  0  0
 53 48  1  0  0  0  0
 53 54  1  0  0  0  0
 55 56  1  0  0  0  0
 55 57  1  0  0  0  0
 56 54  1  0  0  0  0
 56 57  1  0  0  0  0
 58 61  1  0  0  0  0
 59 58  2  0  0  0  0
 61 60  1  6  0  0  0
 61 62  1  0  0  0  0
 62 63  1  0  0  0  0
 63 64  1  0  0  0  0
 65 64  1  0  0  0  0
 65 66  1  0  0  0  0
 66 67  1  0  0  0  0
 67 69  1  0  0  0  0
 68 67  1  0  0  0  0
 68 69  1  0  0  0  0
M  END
>  <MODEL>
6

>  <REMARK>
 VINA RESULT:      -3.6      3.648     10.301
  Name = 
  25 active torsions:
  status: ('A' for Active; 'I' for Inactive)
    1  A    between atoms: C_2  and  C_10
    2  A    between atoms: C_2  and  C_28
    3  A    between atoms: C_5  and  C_65
    4  A    between atoms: C_6  and  N_59
    5  A    between atoms: C_7  and  C_18
    6  A    between atoms: P_9  and  O_20
    7  A    between atoms: C_10  and  C_12
    8  A    between atoms: C_18  and  N_37
    9  A    between atoms: C_18  and  C_43
   10  A    between atoms: O_20  and  C_45
   11  A    between atoms: C_21  and  C_50
   12  A    between atoms: N_22  and  C_56
   13  A    between atoms: O_23  and  O_24
   14  A    between atoms: O_23  and  C_28
   15  A    between atoms: O_24  and  C_65
   16  A    between atoms: C_25  and  C_69
   17  A    between atoms: C_31  and  C_47
   18  A    between atoms: C_31  and  C_57
   19  A    between atoms: C_34  and  C_55
   20  A    between atoms: C_34  and  C_60
   21  A    between atoms: N_37  and  C_64
   22  A    between atoms: C_45  and  C_57
   23  A    between atoms: C_47  and  C_48
   24  A    between atoms: C_48  and  C_56
   25  A    between atoms: N_59  and  C_69
                            x       y       z     vdW  Elec       q    Type
                         _______ _______ _______ _____ _____    ______ ____

>  <TORSDO>
F 25

$$$$
=
 OpenBabel11042415093D

 69 76  0  0  1  0  0  0  0  0999 V2000
  193.8450  172.4940  144.9950 N   0  0  0  0  0  0  0  0  0  0  0  0
  192.2950  176.1330  146.4050 N   0  0  0  0  0  0  0  0  0  0  0  0
  194.1140  175.5430  145.0620 N   0  0  0  0  0  0  0  0  0  0  0  0
  192.0040  174.1150  145.1640 C   0  0  0  0  0  0  0  0  0  0  0  0
  191.6290  171.7790  144.4160 C   0  0  0  0  0  2  0  0  0  0  0  0
  190.9580  176.0230  146.9240 C   0  0  0  0  0  0  0  0  0  0  0  0
  192.5870  170.6030  144.2770 C   0  0  0  0  0  2  0  0  0  0  0  0
  188.2140  177.3370  147.2240 N   0  0  0  0  0  0  0  0  0  0  0  0
  187.9090  175.9590  147.2270 N   0  0  0  0  0  0  0  0  0  0  0  0
  193.9270  171.0530  144.8380 C   0  0  0  0  0  2  0  0  0  0  0  0
  190.5110  174.3380  145.1810 C   0  0  0  0  0  2  0  0  0  0  0  0
  188.1350  173.6060  146.9300 C   0  0  0  0  0  1  0  0  0  0  0  0
  192.4980  172.9180  144.8080 C   0  0  0  0  0  0  0  0  0  0  0  0
  196.3370  175.2070  144.3350 N   0  0  0  0  0  2  0  0  0  0  0  0
  189.5030  177.8320  147.6030 C   0  0  0  0  0  0  0  0  0  0  0  0
  192.8320  175.2540  145.6160 C   0  0  0  0  0  0  0  0  0  0  0  0
  195.0180  173.2900  145.2040 C   0  0  0  0  0  0  0  0  0  0  0  0
  197.6970  176.8680  143.4490 O   0  0  0  0  0  0  0  0  0  0  0  0
  190.5430  176.8770  148.0770 C   0  0  2  0  0  3  0  0  0  0  0  0
  190.0840  175.1610  146.3690 C   0  0  0  0  0  0  0  0  0  0  0  0
  196.0660  172.7310  145.6320 O   0  0  0  0  0  0  0  0  0  0  0  0
  196.5300  176.4190  143.5940 C   0  0  0  0  0  0  0  0  0  0  0  0
  188.6980  174.9820  146.8840 C   0  0  0  0  0  0  0  0  0  0  0  0
  189.7710  179.0580  147.4740 O   0  0  0  0  0  0  0  0  0  0  0  0
  195.0830  174.7120  144.8230 C   0  0  0  0  0  0  0  0  0  0  0  0
  191.6990  177.5350  148.7740 C   0  0  0  0  0  3  0  0  0  0  0  0
  191.6160  177.8680  150.0600 C   0  0  0  0  0  2  0  0  0  0  0  0
  187.1120  178.2840  147.1450 C   0  0  0  0  0  2  0  0  0  0  0  0
  186.6030  178.3930  145.7200 C   0  0  0  0  0  2  0  0  0  0  0  0
  186.0020  177.0750  145.3030 C   0  0  0  0  0  2  0  0  0  0  0  0
  185.1720  177.2630  144.0410 C   0  0  0  0  0  2  0  0  0  0  0  0
  186.0700  177.2220  142.8220 C   0  0  0  0  0  2  0  0  0  0  0  0
  186.3710  175.7840  142.4400 C   0  0  0  0  0  2  0  0  0  0  0  0
  187.5070  175.3380  143.1220 O   0  0  0  0  0  0  0  0  0  0  0  0
  188.7330  175.2290  141.9490 P   0  0  0  0  0  0  0  0  0  0  0  0
  189.9540  176.3400  142.3100 O   0  0  0  0  0  1  0  0  0  0  0  0
  188.0960  175.6060  140.4220 O   0  0  0  0  0  0  0  0  0  0  0  0
  189.3200  173.8330  141.9270 O   0  0  0  0  0  1  0  0  0  0  0  0
  195.3970  177.0880  142.8910 C   0  0  0  0  0  2  0  0  0  0  0  0
  193.5200  175.6700  142.0670 C   0  0  0  0  0  3  0  0  0  0  0  0
  195.5310  175.8450  140.7270 C   0  0  0  0  0  3  0  0  0  0  0  0
  194.9890  174.9540  139.7970 C   0  0  0  0  0  3  0  0  0  0  0  0
  194.7960  176.2020  141.8610 C   0  0  0  0  0  0  0  0  0  0  0  0
  192.9730  174.7840  141.1340 C   0  0  0  0  0  3  0  0  0  0  0  0
  193.7050  174.4210  139.9910 C   0  0  0  0  0  0  0  0  0  0  0  0
  193.2010  173.4590  139.0450 N   0  0  0  0  0  2  0  0  0  0  0  0
  193.4720  172.0220  139.0330 C   0  0  2  0  0  3  0  0  0  0  0  0
  191.3920  170.7010  139.7870 C   0  0  1  0  0  0  0  0  0  0  0  0
  192.7270  171.3500  140.1760 C   0  0  1  0  0  3  0  0  0  0  0  0
  192.6220  169.8360  139.9840 C   0  0  0  0  0  2  0  0  0  0  0  0
  190.4720  170.5190  140.8160 O   0  0  0  0  0  1  0  0  0  0  0  0
  189.5980  170.0480  138.3840 O   0  0  0  0  0  1  0  0  0  0  0  0
  190.8390  170.6010  138.4150 N   0  0  0  0  0  0  0  0  0  0  0  0
  191.7270  169.8300  137.5400 C   0  0  0  0  0  2  0  0  0  0  0  0
  192.0370  168.6010  135.4170 C   0  0  0  0  0  2  0  0  0  0  0  0
  191.0270  169.3210  136.2820 C   0  0  0  0  0  3  0  0  0  0  0  0
  191.6230  170.0120  135.0730 C   0  0  0  0  0  2  0  0  0  0  0  0
  195.7220  171.9280  138.0080 C   0  0  0  0  0  3  0  0  0  0  0  0
  194.9480  171.7290  139.0720 C   0  0  0  0  0  3  0  0  0  0  0  0
  197.8350  172.3390  139.2740 C   0  0  0  0  0  1  0  0  0  0  0  0
  197.1800  171.6330  138.0970 C   0  0  2  0  0  3  0  0  0  0  0  0
  197.8480  171.8750  136.8840 O   0  0  0  0  0  0  0  0  0  0  0  0
  197.7570  170.7690  136.1660 O   0  0  0  0  0  0  0  0  0  0  0  0
  197.9410  171.1950  134.8480 C   0  0  0  0  0  2  0  0  0  0  0  0
  197.0110  172.3570  134.5540 C   0  0  0  0  0  2  0  0  0  0  0  0
  197.7710  173.6650  134.7060 C   0  0  0  0  0  2  0  0  0  0  0  0
  196.9170  174.6700  135.4550 C   0  0  0  0  0  3  0  0  0  0  0  0
  197.7910  175.4430  136.4180 C   0  0  0  0  0  2  0  0  0  0  0  0
  197.3650  176.0750  135.1090 C   0  0  0  0  0  2  0  0  0  0  0  0
  1 17  1  0  0  0  0
  2  6  1  0  0  0  0
  3 16  1  0  0  0  0
  4 11  1  0  0  0  0
  4 16  1  0  0  0  0
  5 13  1  0  0  0  0
  6 19  1  0  0  0  0
  7  5  1  0  0  0  0
  7 10  1  0  0  0  0
  8  9  1  0  0  0  0
  8 15  1  0  0  0  0
 10  1  1  0  0  0  0
 11 20  1  0  0  0  0
 13  1  1  0  0  0  0
 13  4  2  0  0  0  0
 14 25  1  0  0  0  0
 15 19  1  0  0  0  0
 16  2  2  0  0  0  0
 17 21  2  0  0  0  0
 18 22  2  0  0  0  0
 19 26  1  6  0  0  0
 20 23  1  0  0  0  0
 20  6  2  0  0  0  0
 22 14  1  0  0  0  0
 23 12  1  0  0  0  0
 23  9  2  0  0  0  0
 24 15  2  0  0  0  0
 25  3  2  0  0  0  0
 25 17  1  0  0  0  0
 26 27  2  0  0  0  0
 28  8  1  0  0  0  0
 29 28  1  0  0  0  0
 30 29  1  0  0  0  0
 31 30  1  0  0  0  0
 32 31  1  0  0  0  0
 33 32  1  0  0  0  0
 33 34  1  0  0  0  0
 35 36  1  0  0  0  0
 35 34  1  0  0  0  0
 37 35  2  0  0  0  0
 38 35  1  0  0  0  0
 39 22  1  0  0  0  0
 41 43  2  0  0  0  0
 42 45  2  0  0  0  0
 42 41  1  0  0  0  0
 43 40  1  0  0  0  0
 43 39  1  0  0  0  0
 44 40  2  0  0  0  0
 45 44  1  0  0  0  0
 46 45  1  0  0  0  0
 47 46  1  0  0  0  0
 47 59  1  1  0  0  0
 48 50  1  0  0  0  0
 48 49  1  0  0  0  0
 48 51  1  1  0  0  0
 49 47  1  6  0  0  0
 50 49  1  0  0  0  0
 52 53  1  0  0  0  0
 53 48  1  0  0  0  0
 54 53  1  0  0  0  0
 55 56  1  0  0  0  0
 56 54  1  0  0  0  0
 57 55  1  0  0  0  0
 57 56  1  0  0  0  0
 58 61  1  0  0  0  0
 58 59  2  0  0  0  0
 61 60  1  1  0  0  0
 62 61  1  0  0  0  0
 63 62  1  0  0  0  0
 64 63  1  0  0  0  0
 65 66  1  0  0  0  0
 65 64  1  0  0  0  0
 66 67  1  0  0  0  0
 67 68  1  0  0  0  0
 69 67  1  0  0  0  0
 69 68  1  0  0  0  0
M  END
>  <MODEL>
7

>  <REMARK>
 VINA RESULT:      -3.4      3.502      5.053
  Name = 
  25 active torsions:
  status: ('A' for Active; 'I' for Inactive)
    1  A    between atoms: C_2  and  C_10
    2  A    between atoms: C_2  and  C_28
    3  A    between atoms: C_5  and  C_65
    4  A    between atoms: C_6  and  N_59
    5  A    between atoms: C_7  and  C_18
    6  A    between atoms: P_9  and  O_20
    7  A    between atoms: C_10  and  C_12
    8  A    between atoms: C_18  and  N_37
    9  A    between atoms: C_18  and  C_43
   10  A    between atoms: O_20  and  C_45
   11  A    between atoms: C_21  and  C_50
   12  A    between atoms: N_22  and  C_56
   13  A    between atoms: O_23  and  O_24
   14  A    between atoms: O_23  and  C_28
   15  A    between atoms: O_24  and  C_65
   16  A    between atoms: C_25  and  C_69
   17  A    between atoms: C_31  and  C_47
   18  A    between atoms: C_31  and  C_57
   19  A    between atoms: C_34  and  C_55
   20  A    between atoms: C_34  and  C_60
   21  A    between atoms: N_37  and  C_64
   22  A    between atoms: C_45  and  C_57
   23  A    between atoms: C_47  and  C_48
   24  A    between atoms: C_48  and  C_56
   25  A    between atoms: N_59  and  C_69
                            x       y       z     vdW  Elec       q    Type
                         _______ _______ _______ _____ _____    ______ ____

>  <TORSDO>
F 25

$$$$
=
 OpenBabel11042415093D

 69 76  0  0  1  0  0  0  0  0999 V2000
  193.7970  175.9850  144.4190 N   0  0  0  0  0  0  0  0  0  0  0  0
  192.0580  172.6500  142.5490 N   0  0  0  0  0  0  0  0  0  0  0  0
  191.2150  174.5780  143.5690 N   0  0  0  0  0  0  0  0  0  0  0  0
  193.5040  174.5470  142.4450 C   0  0  0  0  0  0  0  0  0  0  0  0
  195.3830  176.1570  142.6260 C   0  0  0  0  0  2  0  0  0  0  0  0
  192.9900  171.8810  141.7710 C   0  0  0  0  0  0  0  0  0  0  0  0
  195.7900  177.1040  143.7480 C   0  0  0  0  0  2  0  0  0  0  0  0
  193.4550  170.2140  139.2490 N   0  0  0  0  0  0  0  0  0  0  0  0
  194.7270  170.7700  139.5030 N   0  0  0  0  0  0  0  0  0  0  0  0
  194.8740  176.8150  144.9270 C   0  0  0  0  0  2  0  0  0  0  0  0
  194.1130  173.9940  141.1800 C   0  0  0  0  0  2  0  0  0  0  0  0
  196.4250  172.1870  140.3870 C   0  0  0  0  0  1  0  0  0  0  0  0
  194.1140  175.5490  143.0990 C   0  0  0  0  0  0  0  0  0  0  0  0
  190.1200  175.9870  145.1160 N   0  0  0  0  0  2  0  0  0  0  0  0
  192.4790  170.0420  140.2840 C   0  0  0  0  0  0  0  0  0  0  0  0
  192.2710  173.8770  142.9150 C   0  0  0  0  0  0  0  0  0  0  0  0
  192.5950  175.7780  145.1700 C   0  0  0  0  0  0  0  0  0  0  0  0
  187.8260  176.3430  145.1790 O   0  0  0  0  0  0  0  0  0  0  0  0
  192.8300  170.3980  141.6870 C   0  0  2  0  0  3  0  0  0  0  0  0
  193.9950  172.4930  141.1150 C   0  0  0  0  0  0  0  0  0  0  0  0
  192.6100  175.9890  146.4140 O   0  0  0  0  0  0  0  0  0  0  0  0
  188.8420  176.0930  144.4780 C   0  0  0  0  0  0  0  0  0  0  0  0
  195.0070  171.7440  140.3200 C   0  0  0  0  0  0  0  0  0  0  0  0
  191.3150  169.6530  139.9950 O   0  0  0  0  0  0  0  0  0  0  0  0
  191.3110  175.4480  144.5270 C   0  0  0  0  0  0  0  0  0  0  0  0
  191.8810  169.8440  142.7100 C   0  0  0  0  0  3  0  0  0  0  0  0
  191.9700  168.5760  143.1030 C   0  0  0  0  0  2  0  0  0  0  0  0
  193.2480  169.5160  137.9900 C   0  0  0  0  0  2  0  0  0  0  0  0
  192.7380  170.4710  136.9270 C   0  0  0  0  0  2  0  0  0  0  0  0
  193.8870  171.2930  136.4010 C   0  0  0  0  0  2  0  0  0  0  0  0
  193.3700  172.6200  135.8670 C   0  0  0  0  0  2  0  0  0  0  0  0
  191.9240  172.8120  136.2760 C   0  0  0  0  0  2  0  0  0  0  0  0
  191.8460  173.3960  137.6750 C   0  0  0  0  0  2  0  0  0  0  0  0
  190.6820  174.1590  137.8080 O   0  0  0  0  0  0  0  0  0  0  0  0
  189.5420  173.1320  138.5390 P   0  0  0  0  0  0  0  0  0  0  0  0
  189.5610  171.6310  137.7640 O   0  0  0  0  0  0  0  0  0  0  0  0
  187.9890  173.8010  138.3810 O   0  0  0  0  0  1  0  0  0  0  0  0
  189.8680  172.9410  140.0060 O   0  0  0  0  0  1  0  0  0  0  0  0
  188.7070  176.0360  142.9930 C   0  0  0  0  0  2  0  0  0  0  0  0
  187.3860  177.2790  141.2840 C   0  0  0  0  0  3  0  0  0  0  0  0
  186.3280  176.6940  143.3840 C   0  0  0  0  0  3  0  0  0  0  0  0
  185.1620  177.3470  142.9780 C   0  0  0  0  0  3  0  0  0  0  0  0
  187.4400  176.6610  142.5360 C   0  0  0  0  0  0  0  0  0  0  0  0
  186.2170  177.9260  140.8740 C   0  0  0  0  0  3  0  0  0  0  0  0
  185.0960  177.9640  141.7190 C   0  0  0  0  0  0  0  0  0  0  0  0
  183.8990  178.6790  141.3570 N   0  0  0  0  0  2  0  0  0  0  0  0
  182.8660  178.2350  140.4220 C   0  0  2  0  0  3  0  0  0  0  0  0
  180.4750  178.7920  141.2040 C   0  0  1  0  0  0  0  0  0  0  0  0
  181.6340  177.7870  141.1950 C   0  0  1  0  0  3  0  0  0  0  0  0
  180.4230  177.5900  140.2820 C   0  0  0  0  0  2  0  0  0  0  0  0
  179.5640  178.6710  142.2490 O   0  0  0  0  0  1  0  0  0  0  0  0
  180.2710  181.1510  141.2860 O   0  0  0  0  0  1  0  0  0  0  0  0
  180.4300  180.0780  140.4670 N   0  0  0  0  0  0  0  0  0  0  0  0
  179.3600  180.0780  139.4660 C   0  0  0  0  0  2  0  0  0  0  0  0
  178.3060  181.6360  137.8600 C   0  0  0  0  0  2  0  0  0  0  0  0
  178.6920  181.4430  139.3090 C   0  0  0  0  0  3  0  0  0  0  0  0
  179.5450  182.3070  138.4030 C   0  0  0  0  0  2  0  0  0  0  0  0
  182.6830  176.7930  138.4200 C   0  0  0  0  0  3  0  0  0  0  0  0
  183.3730  177.1620  139.4950 C   0  0  0  0  0  3  0  0  0  0  0  0
  184.6370  176.0580  137.0480 C   0  0  0  0  0  1  0  0  0  0  0  0
  183.2310  175.7330  137.5260 C   0  0  2  0  0  3  0  0  0  0  0  0
  182.3600  175.4270  136.4660 O   0  0  0  0  0  0  0  0  0  0  0  0
  181.7830  174.2740  136.7610 O   0  0  0  0  0  0  0  0  0  0  0  0
  180.5540  174.3210  136.0970 C   0  0  0  0  0  2  0  0  0  0  0  0
  179.6640  173.1980  136.5940 C   0  0  0  0  0  2  0  0  0  0  0  0
  180.5170  171.9860  136.9280 C   0  0  0  0  0  2  0  0  0  0  0  0
  179.6250  170.7920  137.2110 C   0  0  0  0  0  3  0  0  0  0  0  0
  180.0130  169.6540  136.2940 C   0  0  0  0  0  2  0  0  0  0  0  0
  180.4610  169.6450  137.7410 C   0  0  0  0  0  2  0  0  0  0  0  0
  1 10  1  0  0  0  0
  1 17  1  0  0  0  0
  2 16  2  0  0  0  0
  3 25  2  0  0  0  0
  4 16  1  0  0  0  0
  4 13  2  0  0  0  0
  5 13  1  0  0  0  0
  5  7  1  0  0  0  0
  6  2  1  0  0  0  0
  7 10  1  0  0  0  0
  8  9  1  0  0  0  0
  8 15  1  0  0  0  0
  9 23  2  0  0  0  0
 11  4  1  0  0  0  0
 13  1  1  0  0  0  0
 15 19  1  0  0  0  0
 16  3  1  0  0  0  0
 17 21  2  0  0  0  0
 19  6  1  0  0  0  0
 19 26  1  1  0  0  0
 20 11  1  0  0  0  0
 20  6  2  0  0  0  0
 22 14  1  0  0  0  0
 22 18  2  0  0  0  0
 23 12  1  0  0  0  0
 23 20  1  0  0  0  0
 24 15  2  0  0  0  0
 25 14  1  0  0  0  0
 25 17  1  0  0  0  0
 26 27  2  0  0  0  0
 28  8  1  0  0  0  0
 29 28  1  0  0  0  0
 30 29  1  0  0  0  0
 31 32  1  0  0  0  0
 31 30  1  0  0  0  0
 32 33  1  0  0  0  0
 33 34  1  0  0  0  0
 34 35  1  0  0  0  0
 35 38  1  0  0  0  0
 36 35  2  0  0  0  0
 37 35  1  0  0  0  0
 39 22  1  0  0  0  0
 40 43  1  0  0  0  0
 42 41  1  0  0  0  0
 43 39  1  0  0  0  0
 43 41  2  0  0  0  0
 44 40  2  0  0  0  0
 44 45  1  0  0  0  0
 45 42  2  0  0  0  0
 46 45  1  0  0  0  0
 47 59  1  1  0  0  0
 47 46  1  0  0  0  0
 48 51  1  1  0  0  0
 49 47  1  6  0  0  0
 49 48  1  0  0  0  0
 50 49  1  0  0  0  0
 50 48  1  0  0  0  0
 53 48  1  0  0  0  0
 53 52  1  0  0  0  0
 54 53  1  0  0  0  0
 55 57  1  0  0  0  0
 55 56  1  0  0  0  0
 56 54  1  0  0  0  0
 57 56  1  0  0  0  0
 58 59  2  0  0  0  0
 61 60  1  6  0  0  0
 61 58  1  0  0  0  0
 62 63  1  0  0  0  0
 62 61  1  0  0  0  0
 64 65  1  0  0  0  0
 64 63  1  0  0  0  0
 65 66  1  0  0  0  0
 66 67  1  0  0  0  0
 67 69  1  0  0  0  0
 68 67  1  0  0  0  0
 68 69  1  0  0  0  0
M  END
>  <MODEL>
8

>  <REMARK>
 VINA RESULT:      -2.7      4.127     11.543
  Name = 
  25 active torsions:
  status: ('A' for Active; 'I' for Inactive)
    1  A    between atoms: C_2  and  C_10
    2  A    between atoms: C_2  and  C_28
    3  A    between atoms: C_5  and  C_65
    4  A    between atoms: C_6  and  N_59
    5  A    between atoms: C_7  and  C_18
    6  A    between atoms: P_9  and  O_20
    7  A    between atoms: C_10  and  C_12
    8  A    between atoms: C_18  and  N_37
    9  A    between atoms: C_18  and  C_43
   10  A    between atoms: O_20  and  C_45
   11  A    between atoms: C_21  and  C_50
   12  A    between atoms: N_22  and  C_56
   13  A    between atoms: O_23  and  O_24
   14  A    between atoms: O_23  and  C_28
   15  A    between atoms: O_24  and  C_65
   16  A    between atoms: C_25  and  C_69
   17  A    between atoms: C_31  and  C_47
   18  A    between atoms: C_31  and  C_57
   19  A    between atoms: C_34  and  C_55
   20  A    between atoms: C_34  and  C_60
   21  A    between atoms: N_37  and  C_64
   22  A    between atoms: C_45  and  C_57
   23  A    between atoms: C_47  and  C_48
   24  A    between atoms: C_48  and  C_56
   25  A    between atoms: N_59  and  C_69
                            x       y       z     vdW  Elec       q    Type
                         _______ _______ _______ _____ _____    ______ ____

>  <TORSDO>
F 25

$$$$
=
 OpenBabel11042415093D

 69 76  0  0  1  0  0  0  0  0999 V2000
  192.6440  174.1180  139.2590 N   0  0  0  0  0  0  0  0  0  0  0  0
  189.6830  174.6450  136.3260 N   0  0  0  0  0  0  0  0  0  0  0  0
  191.5260  173.2240  136.5520 N   0  0  0  0  0  0  0  0  0  0  0  0
  190.2800  174.1370  138.5810 C   0  0  0  0  0  0  0  0  0  0  0  0
  190.9600  174.2010  140.9670 C   0  0  0  0  0  2  0  0  0  0  0  0
  188.5560  175.4130  136.7830 C   0  0  0  0  0  0  0  0  0  0  0  0
  192.3370  174.2420  141.6180 C   0  0  0  0  0  2  0  0  0  0  0  0
  185.5260  175.8140  136.6870 N   0  0  0  0  0  0  0  0  0  0  0  0
  185.8690  176.2820  137.9740 N   0  0  0  0  0  0  0  0  0  0  0  0
  193.3540  174.3840  140.4950 C   0  0  0  0  0  2  0  0  0  0  0  0
  188.8460  174.3640  138.9950 C   0  0  0  0  0  2  0  0  0  0  0  0
  187.1110  176.6610  139.9710 C   0  0  0  0  0  1  0  0  0  0  0  0
  191.2430  174.0680  139.5150 C   0  0  0  0  0  0  0  0  0  0  0  0
  193.6370  172.2310  136.1830 N   0  0  0  0  0  2  0  0  0  0  0  0
  186.4720  175.7810  135.6120 C   0  0  0  0  0  0  0  0  0  0  0  0
  190.5280  174.0670  137.1250 C   0  0  0  0  0  0  0  0  0  0  0  0
  193.3440  173.8600  138.0350 C   0  0  0  0  0  0  0  0  0  0  0  0
  194.0800  170.6540  134.5360 O   0  0  0  0  0  0  0  0  0  0  0  0
  187.8450  176.3160  135.8290 C   0  0  2  0  0  3  0  0  0  0  0  0
  188.1400  175.3110  138.0600 C   0  0  0  0  0  0  0  0  0  0  0  0
  194.5460  174.2310  137.9310 O   0  0  0  0  0  0  0  0  0  0  0  0
  193.2420  171.1410  135.3400 C   0  0  0  0  0  0  0  0  0  0  0  0
  186.9990  176.1040  138.5960 C   0  0  0  0  0  0  0  0  0  0  0  0
  186.1600  175.2460  134.5130 O   0  0  0  0  0  0  0  0  0  0  0  0
  192.7540  173.0680  136.9420 C   0  0  0  0  0  0  0  0  0  0  0  0
  188.6100  176.5590  134.5600 C   0  0  0  0  0  3  0  0  0  0  0  0
  189.8300  177.0910  134.5930 C   0  0  0  0  0  2  0  0  0  0  0  0
  184.1160  175.6620  136.3640 C   0  0  0  0  0  2  0  0  0  0  0  0
  183.9040  175.7100  134.8630 C   0  0  0  0  0  2  0  0  0  0  0  0
  182.7540  176.6330  134.5500 C   0  0  0  0  0  2  0  0  0  0  0  0
  181.5060  176.1690  135.2860 C   0  0  0  0  0  2  0  0  0  0  0  0
  181.1510  174.7580  134.8620 C   0  0  0  0  0  2  0  0  0  0  0  0
  181.0510  173.8540  136.0770 C   0  0  0  0  0  2  0  0  0  0  0  0
  180.6480  172.5740  135.6850 O   0  0  0  0  0  0  0  0  0  0  0  0
  179.4780  172.0930  136.8210 P   0  0  0  0  0  0  0  0  0  0  0  0
  179.4670  173.1850  138.1100 O   0  0  0  0  0  1  0  0  0  0  0  0
  179.8660  170.5540  137.4230 O   0  0  0  0  0  1  0  0  0  0  0  0
  178.1050  172.0600  136.1830 O   0  0  0  0  0  0  0  0  0  0  0  0
  191.9050  170.4940  135.4820 C   0  0  0  0  0  2  0  0  0  0  0  0
  190.3420  170.3590  137.4190 C   0  0  0  0  0  3  0  0  0  0  0  0
  192.6400  169.6570  137.7190 C   0  0  0  0  0  3  0  0  0  0  0  0
  192.3830  169.3940  139.0670 C   0  0  0  0  0  3  0  0  0  0  0  0
  191.6190  170.1390  136.8960 C   0  0  0  0  0  0  0  0  0  0  0  0
  190.0810  170.0900  138.7650 C   0  0  0  0  0  3  0  0  0  0  0  0
  191.1020  169.6040  139.5990 C   0  0  0  0  0  0  0  0  0  0  0  0
  190.8870  169.3800  141.0050 N   0  0  0  0  0  2  0  0  0  0  0  0
  191.4760  170.1360  142.1100 C   0  0  2  0  0  3  0  0  0  0  0  0
  193.7840  169.5490  143.0930 C   0  0  1  0  0  0  0  0  0  0  0  0
  192.2920  169.2040  142.9920 C   0  0  1  0  0  3  0  0  0  0  0  0
  192.8460  169.9180  144.2260 C   0  0  0  0  0  2  0  0  0  0  0  0
  194.6330  168.5070  143.4550 O   0  0  0  0  0  1  0  0  0  0  0  0
  194.6960  170.5820  141.1670 O   0  0  0  0  0  1  0  0  0  0  0  0
  194.4480  170.7310  142.4940 N   0  0  0  0  0  0  0  0  0  0  0  0
  195.7040  171.0390  143.1830 C   0  0  0  0  0  2  0  0  0  0  0  0
  196.7090  172.1620  145.1450 C   0  0  0  0  0  2  0  0  0  0  0  0
  195.5850  172.2270  144.1350 C   0  0  0  0  0  3  0  0  0  0  0  0
  195.3200  171.7130  145.5350 C   0  0  0  0  0  2  0  0  0  0  0  0
  189.5800  171.7140  142.2960 C   0  0  0  0  0  3  0  0  0  0  0  0
  190.4340  170.8880  142.8930 C   0  0  0  0  0  3  0  0  0  0  0  0
  187.1600  172.2900  142.5300 C   0  0  0  0  0  1  0  0  0  0  0  0
  188.5580  172.4290  143.1130 C   0  0  2  0  0  3  0  0  0  0  0  0
  188.9090  173.7680  143.3540 O   0  0  0  0  0  0  0  0  0  0  0  0
  190.0290  173.7530  144.0570 O   0  0  0  0  0  0  0  0  0  0  0  0
  189.8910  174.8160  144.9530 C   0  0  0  0  0  2  0  0  0  0  0  0
  190.6860  176.0080  144.4560 C   0  0  0  0  0  2  0  0  0  0  0  0
  191.5060  176.5820  145.6000 C   0  0  0  0  0  2  0  0  0  0  0  0
  192.8560  177.0430  145.0830 C   0  0  0  0  0  3  0  0  0  0  0  0
  193.8450  177.0610  146.2270 C   0  0  0  0  0  2  0  0  0  0  0  0
  193.8650  175.9230  145.2270 C   0  0  0  0  0  2  0  0  0  0  0  0
  1 13  1  0  0  0  0
  1 10  1  0  0  0  0
  2  6  1  0  0  0  0
  2 16  2  0  0  0  0
  3 25  2  0  0  0  0
  3 16  1  0  0  0  0
  4 11  1  0  0  0  0
  4 13  2  0  0  0  0
  5  7  1  0  0  0  0
  6 20  2  0  0  0  0
  8  9  1  0  0  0  0
  9 23  2  0  0  0  0
 10  7  1  0  0  0  0
 13  5  1  0  0  0  0
 14 25  1  0  0  0  0
 15 19  1  0  0  0  0
 15  8  1  0  0  0  0
 16  4  1  0  0  0  0
 17  1  1  0  0  0  0
 18 22  2  0  0  0  0
 19 26  1  6  0  0  0
 19  6  1  0  0  0  0
 20 23  1  0  0  0  0
 20 11  1  0  0  0  0
 21 17  2  0  0  0  0
 22 39  1  0  0  0  0
 22 14  1  0  0  0  0
 23 12  1  0  0  0  0
 24 15  2  0  0  0  0
 25 17  1  0  0  0  0
 26 27  2  0  0  0  0
 28  8  1  0  0  0  0
 29 28  1  0  0  0  0
 30 29  1  0  0  0  0
 30 31  1  0  0  0  0
 32 31  1  0  0  0  0
 32 33  1  0  0  0  0
 34 33  1  0  0  0  0
 34 35  1  0  0  0  0
 35 37  1  0  0  0  0
 35 36  1  0  0  0  0
 38 35  2  0  0  0  0
 39 43  1  0  0  0  0
 40 44  1  0  0  0  0
 41 42  2  0  0  0  0
 42 45  1  0  0  0  0
 43 40  2  0  0  0  0
 43 41  1  0  0  0  0
 44 45  2  0  0  0  0
 45 46  1  0  0  0  0
 46 47  1  0  0  0  0
 47 59  1  1  0  0  0
 48 51  1  1  0  0  0
 48 50  1  0  0  0  0
 49 47  1  6  0  0  0
 49 48  1  0  0  0  0
 49 50  1  0  0  0  0
 52 53  1  0  0  0  0
 53 48  1  0  0  0  0
 53 54  1  0  0  0  0
 54 56  1  0  0  0  0
 55 57  1  0  0  0  0
 56 55  1  0  0  0  0
 56 57  1  0  0  0  0
 58 59  2  0  0  0  0
 58 61  1  0  0  0  0
 61 60  1  6  0  0  0
 61 62  1  0  0  0  0
 62 63  1  0  0  0  0
 63 64  1  0  0  0  0
 65 64  1  0  0  0  0
 65 66  1  0  0  0  0
 67 69  1  0  0  0  0
 67 66  1  0  0  0  0
 67 68  1  0  0  0  0
 69 68  1  0  0  0  0
M  END
>  <MODEL>
9

>  <REMARK>
 VINA RESULT:      -2.5      3.875      8.263
  Name = 
  25 active torsions:
  status: ('A' for Active; 'I' for Inactive)
    1  A    between atoms: C_2  and  C_10
    2  A    between atoms: C_2  and  C_28
    3  A    between atoms: C_5  and  C_65
    4  A    between atoms: C_6  and  N_59
    5  A    between atoms: C_7  and  C_18
    6  A    between atoms: P_9  and  O_20
    7  A    between atoms: C_10  and  C_12
    8  A    between atoms: C_18  and  N_37
    9  A    between atoms: C_18  and  C_43
   10  A    between atoms: O_20  and  C_45
   11  A    between atoms: C_21  and  C_50
   12  A    between atoms: N_22  and  C_56
   13  A    between atoms: O_23  and  O_24
   14  A    between atoms: O_23  and  C_28
   15  A    between atoms: O_24  and  C_65
   16  A    between atoms: C_25  and  C_69
   17  A    between atoms: C_31  and  C_47
   18  A    between atoms: C_31  and  C_57
   19  A    between atoms: C_34  and  C_55
   20  A    between atoms: C_34  and  C_60
   21  A    between atoms: N_37  and  C_64
   22  A    between atoms: C_45  and  C_57
   23  A    between atoms: C_47  and  C_48
   24  A    between atoms: C_48  and  C_56
   25  A    between atoms: N_59  and  C_69
                            x       y       z     vdW  Elec       q    Type
                         _______ _______ _______ _____ _____    ______ ____

>  <TORSDO>
F 25

$$$$
