=
 OpenBabel11042419333D

 32 33  0  0  1  0  0  0  0  0999 V2000
  188.5820  175.4060  142.5800 C   0  0  0  0  0  0  0  0  0  0  0  0
  189.2250  176.6710  142.6250 C   0  0  0  0  0  0  0  0  0  0  0  0
  188.4400  177.8290  142.6490 C   0  0  0  0  0  3  0  0  0  0  0  0
  187.0450  177.7550  142.6280 C   0  0  0  0  0  0  0  0  0  0  0  0
  186.4180  176.5100  142.5730 C   0  0  0  0  0  3  0  0  0  0  0  0
  187.1830  175.3440  142.5540 C   0  0  0  0  0  3  0  0  0  0  0  0
  189.3230  174.1060  142.5990 C   0  0  0  0  0  2  0  0  0  0  0  0
  189.6420  173.6800  144.0250 C   0  0  0  0  0  2  0  0  0  0  0  0
  191.9550  170.8560  144.1660 O   0  0  0  0  0  0  0  0  0  0  0  0
  192.4960  173.1260  144.2660 N   0  0  0  0  0  2  0  0  0  0  0  0
  191.5560  172.0510  144.1590 C   0  0  0  0  0  0  0  0  0  0  0  0
  190.1610  172.3230  144.0400 N   0  0  0  0  0  2  0  0  0  0  0  0
  194.5670  172.9980  143.1180 N   0  0  0  0  0  1  0  0  0  0  0  0
  194.5160  173.9590  145.3380 C   0  0  0  0  0  1  0  0  0  0  0  0
  193.9270  172.9080  144.4170 C   0  0  1  0  0  3  0  0  0  0  0  0
  186.2280  179.0030  142.6300 C   0  0  0  0  0  2  0  0  0  0  0  0
  186.0130  178.9900  145.0820 C   0  0  0  0  0  3  0  0  0  0  0  0
  185.4320  179.1250  143.8890 C   0  0  0  0  0  3  0  0  0  0  0  0
  186.0680  179.1880  147.4360 O   0  0  0  0  0  1  0  0  0  0  0  0
  185.2100  179.1070  146.3380 C   0  0  2  0  0  3  0  0  0  0  0  0
  185.1090  176.6150  146.3460 C   0  0  0  0  0  1  0  0  0  0  0  0
  184.3090  177.8960  146.4960 C   0  0  0  0  0  2  0  0  0  0  0  0
  190.6500  176.8480  142.6400 N   0  0  0  0  0  2  0  0  0  0  0  0
  191.3930  177.7910  143.4600 C   0  0  0  0  0  2  0  0  0  0  0  0
  191.9190  177.1080  144.6320 N   0  0  0  0  0  2  0  0  0  0  0  0
  191.5130  175.6880  146.5200 C   0  0  0  0  0  3  0  0  0  0  0  0
  189.4120  174.7970  147.4740 C   0  0  0  0  0  3  0  0  0  0  0  0
  188.4840  175.5950  146.9470 C   0  0  0  0  0  3  0  0  0  0  0  0
  189.8590  177.4520  145.9720 C   0  0  0  0  0  3  0  0  0  0  0  0
  190.8030  175.2530  147.7600 C   0  0  0  0  0  2  0  0  0  0  0  0
  191.1080  176.6970  145.7360 C   0  0  0  0  0  0  0  0  0  0  0  0
  188.7210  176.9770  146.4910 C   0  0  0  0  0  3  0  0  0  0  0  0
  1  7  1  0  0  0  0
  1  2  1  0  0  0  0
  2 23  1  0  0  0  0
  2  3  2  0  0  0  0
  4 16  1  0  0  0  0
  4  3  1  0  0  0  0
  5  4  2  0  0  0  0
  6  5  1  0  0  0  0
  6  1  2  0  0  0  0
  7  8  1  0  0  0  0
  8 12  1  0  0  0  0
 10 15  1  0  0  0  0
 11  9  2  0  0  0  0
 11 10  1  0  0  0  0
 12 11  1  0  0  0  0
 13 15  1  0  0  0  0
 15 14  1  1  0  0  0
 16 18  1  0  0  0  0
 17 20  1  0  0  0  0
 18 17  2  0  0  0  0
 20 22  1  0  0  0  0
 20 19  1  1  0  0  0
 21 22  1  0  0  0  0
 23 24  1  0  0  0  0
 24 25  1  0  0  0  0
 25 31  1  0  0  0  0
 26 30  1  0  0  0  0
 27 30  1  0  0  0  0
 28 27  2  0  0  0  0
 29 32  2  0  0  0  0
 31 29  1  0  0  0  0
 31 26  2  0  0  0  0
 32 28  1  0  0  0  0
M  END
>  <MODEL>
1

>  <REMARK>
 VINA RESULT:      -6.9      0.000      0.000
  Name = 
  12 active torsions:
  status: ('A' for Active; 'I' for Inactive)
    1  A    between atoms: N_1  and  C_25
    2  A    between atoms: N_1  and  C_32
    3  A    between atoms: C_2  and  C_27
    4  A    between atoms: C_3  and  C_16
    5  A    between atoms: C_6  and  N_31
    6  A    between atoms: C_10  and  C_19
    7  A    between atoms: N_14  and  C_18
    8  A    between atoms: C_16  and  C_23
    9  A    between atoms: C_19  and  C_24
   10  A    between atoms: C_20  and  C_27
   11  A    between atoms: C_23  and  N_28
   12  A    between atoms: N_31  and  C_32
                            x       y       z     vdW  Elec       q    Type
                         _______ _______ _______ _____ _____    ______ ____

>  <TORSDO>
F 12

$$$$
=
 OpenBabel11042419333D

 32 33  0  0  1  0  0  0  0  0999 V2000
  188.5790  175.4500  142.8700 C   0  0  0  0  0  0  0  0  0  0  0  0
  189.1840  176.7250  142.7120 C   0  0  0  0  0  0  0  0  0  0  0  0
  188.3660  177.8550  142.6180 C   0  0  0  0  0  3  0  0  0  0  0  0
  186.9740  177.7450  142.6730 C   0  0  0  0  0  0  0  0  0  0  0  0
  186.3840  176.4890  142.8180 C   0  0  0  0  0  3  0  0  0  0  0  0
  187.1830  175.3510  142.9190 C   0  0  0  0  0  3  0  0  0  0  0  0
  189.3600  174.1830  143.0280 C   0  0  0  0  0  2  0  0  0  0  0  0
  188.9070  173.1330  142.0230 C   0  0  0  0  0  2  0  0  0  0  0  0
  190.6920  169.9470  142.1200 O   0  0  0  0  0  0  0  0  0  0  0  0
  190.9370  171.6530  140.5410 N   0  0  0  0  0  2  0  0  0  0  0  0
  190.3430  171.0890  141.7170 C   0  0  0  0  0  0  0  0  0  0  0  0
  189.3510  171.8140  142.4400 N   0  0  0  0  0  2  0  0  0  0  0  0
  191.3580  170.1880  138.7250 N   0  0  0  0  0  1  0  0  0  0  0  0
  192.9140  171.9880  139.1630 C   0  0  0  0  0  1  0  0  0  0  0  0
  191.9730  170.9710  139.7800 C   0  0  1  0  0  3  0  0  0  0  0  0
  186.1200  178.9620  142.5460 C   0  0  0  0  0  2  0  0  0  0  0  0
  185.8910  179.0400  144.9960 C   0  0  0  0  0  3  0  0  0  0  0  0
  185.3350  179.2030  143.7960 C   0  0  0  0  0  3  0  0  0  0  0  0
  185.9650  179.4390  147.3240 O   0  0  0  0  0  1  0  0  0  0  0  0
  185.0990  179.2770  146.2420 C   0  0  2  0  0  3  0  0  0  0  0  0
  184.9730  176.8020  146.5290 C   0  0  0  0  0  1  0  0  0  0  0  0
  184.1810  178.0960  146.5090 C   0  0  0  0  0  2  0  0  0  0  0  0
  190.6020  176.9370  142.6350 N   0  0  0  0  0  2  0  0  0  0  0  0
  191.3820  177.8590  143.4440 C   0  0  0  0  0  2  0  0  0  0  0  0
  191.8900  177.1660  144.6180 N   0  0  0  0  0  2  0  0  0  0  0  0
  191.4030  175.6130  146.3780 C   0  0  0  0  0  3  0  0  0  0  0  0
  189.2550  174.7630  147.2600 C   0  0  0  0  0  3  0  0  0  0  0  0
  188.3740  175.6540  146.8100 C   0  0  0  0  0  3  0  0  0  0  0  0
  189.8530  177.5090  145.9930 C   0  0  0  0  0  3  0  0  0  0  0  0
  190.6700  175.1110  147.5780 C   0  0  0  0  0  2  0  0  0  0  0  0
  191.0560  176.7070  145.6860 C   0  0  0  0  0  0  0  0  0  0  0  0
  188.6890  177.0560  146.4740 C   0  0  0  0  0  3  0  0  0  0  0  0
  1  6  1  0  0  0  0
  1  7  1  0  0  0  0
  2  1  2  0  0  0  0
  3  4  2  0  0  0  0
  3  2  1  0  0  0  0
  4  5  1  0  0  0  0
  5  6  2  0  0  0  0
  8 12  1  0  0  0  0
  8  7  1  0  0  0  0
 10 11  1  0  0  0  0
 11  9  2  0  0  0  0
 11 12  1  0  0  0  0
 13 15  1  0  0  0  0
 15 14  1  6  0  0  0
 15 10  1  0  0  0  0
 16  4  1  0  0  0  0
 16 18  1  0  0  0  0
 17 20  1  0  0  0  0
 18 17  2  0  0  0  0
 20 22  1  0  0  0  0
 20 19  1  1  0  0  0
 22 21  1  0  0  0  0
 23  2  1  0  0  0  0
 23 24  1  0  0  0  0
 24 25  1  0  0  0  0
 25 31  1  0  0  0  0
 26 30  1  0  0  0  0
 27 30  1  0  0  0  0
 28 27  2  0  0  0  0
 29 32  2  0  0  0  0
 31 29  1  0  0  0  0
 31 26  2  0  0  0  0
 32 28  1  0  0  0  0
M  END
>  <MODEL>
2

>  <REMARK>
 VINA RESULT:      -6.7      1.903      2.194
  Name = 
  12 active torsions:
  status: ('A' for Active; 'I' for Inactive)
    1  A    between atoms: N_1  and  C_25
    2  A    between atoms: N_1  and  C_32
    3  A    between atoms: C_2  and  C_27
    4  A    between atoms: C_3  and  C_16
    5  A    between atoms: C_6  and  N_31
    6  A    between atoms: C_10  and  C_19
    7  A    between atoms: N_14  and  C_18
    8  A    between atoms: C_16  and  C_23
    9  A    between atoms: C_19  and  C_24
   10  A    between atoms: C_20  and  C_27
   11  A    between atoms: C_23  and  N_28
   12  A    between atoms: N_31  and  C_32
                            x       y       z     vdW  Elec       q    Type
                         _______ _______ _______ _____ _____    ______ ____

>  <TORSDO>
F 12

$$$$
=
 OpenBabel11042419333D

 32 33  0  0  1  0  0  0  0  0999 V2000
  188.9010  174.8010  142.6270 C   0  0  0  0  0  0  0  0  0  0  0  0
  190.0980  175.5180  142.8910 C   0  0  0  0  0  0  0  0  0  0  0  0
  191.1420  174.8680  143.5590 C   0  0  0  0  0  3  0  0  0  0  0  0
  191.0190  173.5380  143.9690 C   0  0  0  0  0  0  0  0  0  0  0  0
  189.8370  172.8420  143.7170 C   0  0  0  0  0  3  0  0  0  0  0  0
  188.7870  173.4700  143.0470 C   0  0  0  0  0  3  0  0  0  0  0  0
  187.7420  175.3830  141.8790 C   0  0  0  0  0  2  0  0  0  0  0  0
  186.7170  175.9750  142.8350 C   0  0  0  0  0  2  0  0  0  0  0  0
  185.6970  179.4700  143.1320 O   0  0  0  0  0  0  0  0  0  0  0  0
  185.4650  177.7930  144.7410 N   0  0  0  0  0  2  0  0  0  0  0  0
  185.8750  178.2650  143.4530 C   0  0  0  0  0  0  0  0  0  0  0  0
  186.4870  177.3750  142.5210 N   0  0  0  0  0  2  0  0  0  0  0  0
  183.9550  177.8870  146.5680 N   0  0  0  0  0  1  0  0  0  0  0  0
  185.9410  179.2680  146.6180 C   0  0  0  0  0  1  0  0  0  0  0  0
  184.8620  178.6620  145.7420 C   0  0  1  0  0  3  0  0  0  0  0  0
  192.1360  172.8740  144.7020 C   0  0  0  0  0  2  0  0  0  0  0  0
  194.3780  173.8700  144.9020 C   0  0  0  0  0  3  0  0  0  0  0  0
  193.0930  173.8820  145.2550 C   0  0  0  0  0  3  0  0  0  0  0  0
  196.3580  174.2200  146.1430 O   0  0  0  0  0  1  0  0  0  0  0  0
  195.3320  174.8760  145.4620 C   0  0  2  0  0  3  0  0  0  0  0  0
  194.5480  177.2100  145.8590 C   0  0  0  0  0  1  0  0  0  0  0  0
  194.6070  175.8030  146.4230 C   0  0  0  0  0  2  0  0  0  0  0  0
  190.3140  176.8870  142.5180 N   0  0  0  0  0  2  0  0  0  0  0  0
  190.4340  178.0190  143.4230 C   0  0  0  0  0  2  0  0  0  0  0  0
  189.3960  177.9410  144.4400 N   0  0  0  0  0  2  0  0  0  0  0  0
  190.7410  177.2670  146.3070 C   0  0  0  0  0  3  0  0  0  0  0  0
  190.7320  175.2020  147.6680 C   0  0  0  0  0  3  0  0  0  0  0  0
  189.5400  174.6730  147.3990 C   0  0  0  0  0  3  0  0  0  0  0  0
  188.3680  176.5530  146.2230 C   0  0  0  0  0  3  0  0  0  0  0  0
  190.9880  176.6720  147.6540 C   0  0  0  0  0  2  0  0  0  0  0  0
  189.5570  177.2430  145.6790 C   0  0  0  0  0  0  0  0  0  0  0  0
  188.3570  175.4380  146.9630 C   0  0  0  0  0  3  0  0  0  0  0  0
  1  2  2  0  0  0  0
  1  6  1  0  0  0  0
  2  3  1  0  0  0  0
  3  4  2  0  0  0  0
  4 16  1  0  0  0  0
  5  4  1  0  0  0  0
  6  5  2  0  0  0  0
  7  1  1  0  0  0  0
  7  8  1  0  0  0  0
  9 11  2  0  0  0  0
 10 15  1  0  0  0  0
 11 10  1  0  0  0  0
 12  8  1  0  0  0  0
 12 11  1  0  0  0  0
 15 13  1  0  0  0  0
 15 14  1  1  0  0  0
 16 18  1  0  0  0  0
 17 18  2  0  0  0  0
 17 20  1  0  0  0  0
 20 19  1  1  0  0  0
 20 22  1  0  0  0  0
 21 22  1  0  0  0  0
 23  2  1  0  0  0  0
 23 24  1  0  0  0  0
 24 25  1  0  0  0  0
 25 31  1  0  0  0  0
 26 30  1  0  0  0  0
 28 27  2  0  0  0  0
 29 32  2  0  0  0  0
 30 27  1  0  0  0  0
 31 29  1  0  0  0  0
 31 26  2  0  0  0  0
 32 28  1  0  0  0  0
M  END
>  <MODEL>
3

>  <REMARK>
 VINA RESULT:      -6.7      2.558      6.882
  Name = 
  12 active torsions:
  status: ('A' for Active; 'I' for Inactive)
    1  A    between atoms: N_1  and  C_25
    2  A    between atoms: N_1  and  C_32
    3  A    between atoms: C_2  and  C_27
    4  A    between atoms: C_3  and  C_16
    5  A    between atoms: C_6  and  N_31
    6  A    between atoms: C_10  and  C_19
    7  A    between atoms: N_14  and  C_18
    8  A    between atoms: C_16  and  C_23
    9  A    between atoms: C_19  and  C_24
   10  A    between atoms: C_20  and  C_27
   11  A    between atoms: C_23  and  N_28
   12  A    between atoms: N_31  and  C_32
                            x       y       z     vdW  Elec       q    Type
                         _______ _______ _______ _____ _____    ______ ____

>  <TORSDO>
F 12

$$$$
=
 OpenBabel11042419333D

 32 33  0  0  1  0  0  0  0  0999 V2000
  191.5720  175.0480  146.3810 C   0  0  0  0  0  0  0  0  0  0  0  0
  190.4370  174.4460  145.7770 C   0  0  0  0  0  0  0  0  0  0  0  0
  189.1900  175.0650  145.9120 C   0  0  0  0  0  3  0  0  0  0  0  0
  189.0500  176.2560  146.6300 C   0  0  0  0  0  0  0  0  0  0  0  0
  190.1670  176.8380  147.2310 C   0  0  0  0  0  3  0  0  0  0  0  0
  191.4190  176.2390  147.1030 C   0  0  0  0  0  3  0  0  0  0  0  0
  192.9580  174.4970  146.2590 C   0  0  0  0  0  2  0  0  0  0  0  0
  193.9680  175.6090  146.0130 C   0  0  0  0  0  2  0  0  0  0  0  0
  197.2600  174.5240  144.8590 O   0  0  0  0  0  0  0  0  0  0  0  0
  195.5560  175.4720  143.5700 N   0  0  0  0  0  2  0  0  0  0  0  0
  196.0950  175.0020  144.8110 C   0  0  0  0  0  0  0  0  0  0  0  0
  195.3180  175.0690  146.0050 N   0  0  0  0  0  2  0  0  0  0  0  0
  195.9850  174.2530  141.5820 N   0  0  0  0  0  1  0  0  0  0  0  0
  195.9660  176.6710  141.4920 C   0  0  0  0  0  1  0  0  0  0  0  0
  196.3140  175.4530  142.3280 C   0  0  1  0  0  3  0  0  0  0  0  0
  187.7060  176.8850  146.7820 C   0  0  0  0  0  2  0  0  0  0  0  0
  185.8300  177.2470  145.2300 C   0  0  0  0  0  3  0  0  0  0  0  0
  187.1430  177.2830  145.4550 C   0  0  0  0  0  3  0  0  0  0  0  0
  185.6110  176.6770  142.9470 O   0  0  0  0  0  1  0  0  0  0  0  0
  185.2740  177.6400  143.8990 C   0  0  2  0  0  3  0  0  0  0  0  0
  185.2520  180.0990  144.3190 C   0  0  0  0  0  1  0  0  0  0  0  0
  185.8390  178.9840  143.4730 C   0  0  0  0  0  2  0  0  0  0  0  0
  190.4800  173.2210  145.0290 N   0  0  0  0  0  2  0  0  0  0  0  0
  189.8150  172.9590  143.7630 C   0  0  0  0  0  2  0  0  0  0  0  0
  190.5450  173.6120  142.6860 N   0  0  0  0  0  2  0  0  0  0  0  0
  191.9950  175.5170  142.8040 C   0  0  0  0  0  3  0  0  0  0  0  0
  191.6000  177.8250  143.6010 C   0  0  0  0  0  3  0  0  0  0  0  0
  190.2710  177.9180  143.5980 C   0  0  0  0  0  3  0  0  0  0  0  0
  189.5890  175.8720  142.3170 C   0  0  0  0  0  3  0  0  0  0  0  0
  192.3530  176.9590  142.6480 C   0  0  0  0  0  2  0  0  0  0  0  0
  190.7620  175.0250  142.6230 C   0  0  0  0  0  0  0  0  0  0  0  0
  189.3720  177.1230  142.7420 C   0  0  0  0  0  3  0  0  0  0  0  0
  1  6  1  0  0  0  0
  2  3  1  0  0  0  0
  2  1  2  0  0  0  0
  3  4  2  0  0  0  0
  4 16  1  0  0  0  0
  4  5  1  0  0  0  0
  6  5  2  0  0  0  0
  7  1  1  0  0  0  0
  8  7  1  0  0  0  0
 10 11  1  0  0  0  0
 11  9  2  0  0  0  0
 11 12  1  0  0  0  0
 12  8  1  0  0  0  0
 13 15  1  0  0  0  0
 15 14  1  6  0  0  0
 15 10  1  0  0  0  0
 17 18  2  0  0  0  0
 18 16  1  0  0  0  0
 20 19  1  6  0  0  0
 20 17  1  0  0  0  0
 22 20  1  0  0  0  0
 22 21  1  0  0  0  0
 23  2  1  0  0  0  0
 24 23  1  0  0  0  0
 25 24  1  0  0  0  0
 28 27  2  0  0  0  0
 29 31  1  0  0  0  0
 29 32  2  0  0  0  0
 30 26  1  0  0  0  0
 30 27  1  0  0  0  0
 31 25  1  0  0  0  0
 31 26  2  0  0  0  0
 32 28  1  0  0  0  0
M  END
>  <MODEL>
4

>  <REMARK>
 VINA RESULT:      -6.6      2.399      4.613
  Name = 
  12 active torsions:
  status: ('A' for Active; 'I' for Inactive)
    1  A    between atoms: N_1  and  C_25
    2  A    between atoms: N_1  and  C_32
    3  A    between atoms: C_2  and  C_27
    4  A    between atoms: C_3  and  C_16
    5  A    between atoms: C_6  and  N_31
    6  A    between atoms: C_10  and  C_19
    7  A    between atoms: N_14  and  C_18
    8  A    between atoms: C_16  and  C_23
    9  A    between atoms: C_19  and  C_24
   10  A    between atoms: C_20  and  C_27
   11  A    between atoms: C_23  and  N_28
   12  A    between atoms: N_31  and  C_32
                            x       y       z     vdW  Elec       q    Type
                         _______ _______ _______ _____ _____    ______ ____

>  <TORSDO>
F 12

$$$$
=
 OpenBabel11042419333D

 32 33  0  0  1  0  0  0  0  0999 V2000
  191.8000  176.1600  142.7280 C   0  0  0  0  0  0  0  0  0  0  0  0
  190.6730  175.3150  142.5440 C   0  0  0  0  0  0  0  0  0  0  0  0
  189.3920  175.8450  142.7300 C   0  0  0  0  0  3  0  0  0  0  0  0
  189.2100  177.1820  143.0930 C   0  0  0  0  0  0  0  0  0  0  0  0
  190.3200  178.0050  143.2820 C   0  0  0  0  0  3  0  0  0  0  0  0
  191.6050  177.4970  143.0960 C   0  0  0  0  0  3  0  0  0  0  0  0
  193.2100  175.7100  142.5090 C   0  0  0  0  0  2  0  0  0  0  0  0
  194.1330  176.2660  143.5830 C   0  0  0  0  0  2  0  0  0  0  0  0
  197.7190  175.7690  143.0940 O   0  0  0  0  0  0  0  0  0  0  0  0
  196.3410  174.6730  144.6300 N   0  0  0  0  0  2  0  0  0  0  0  0
  196.5650  175.6170  143.5760 C   0  0  0  0  0  0  0  0  0  0  0  0
  195.4850  176.3960  143.0650 N   0  0  0  0  0  2  0  0  0  0  0  0
  197.0930  173.5010  146.5490 N   0  0  0  0  0  1  0  0  0  0  0  0
  197.5080  172.5530  144.3610 C   0  0  0  0  0  1  0  0  0  0  0  0
  197.3990  173.8320  145.1700 C   0  0  1  0  0  3  0  0  0  0  0  0
  187.8350  177.7190  143.3090 C   0  0  0  0  0  2  0  0  0  0  0  0
  186.6710  177.4830  145.4660 C   0  0  0  0  0  3  0  0  0  0  0  0
  187.6180  178.0830  144.7430 C   0  0  0  0  0  3  0  0  0  0  0  0
  186.1830  176.7090  147.6440 O   0  0  0  0  0  1  0  0  0  0  0  0
  186.4540  177.8560  146.8970 C   0  0  2  0  0  3  0  0  0  0  0  0
  184.1780  178.4270  146.0530 C   0  0  0  0  0  1  0  0  0  0  0  0
  185.2850  178.8180  147.0150 C   0  0  0  0  0  2  0  0  0  0  0  0
  190.7600  173.9280  142.1810 N   0  0  0  0  0  2  0  0  0  0  0  0
  190.4550  172.7920  143.0350 C   0  0  0  0  0  2  0  0  0  0  0  0
  191.2750  172.8520  144.2360 N   0  0  0  0  0  2  0  0  0  0  0  0
  189.7450  173.9040  145.7520 C   0  0  0  0  0  3  0  0  0  0  0  0
  189.7760  176.1330  146.8220 C   0  0  0  0  0  3  0  0  0  0  0  0
  191.0460  176.5100  146.6890 C   0  0  0  0  0  3  0  0  0  0  0  0
  192.1680  174.3840  145.9730 C   0  0  0  0  0  3  0  0  0  0  0  0
  189.3630  174.7060  146.9530 C   0  0  0  0  0  2  0  0  0  0  0  0
  191.0060  173.7320  145.3320 C   0  0  0  0  0  0  0  0  0  0  0  0
  192.1900  175.5880  146.5570 C   0  0  0  0  0  3  0  0  0  0  0  0
  1  6  1  0  0  0  0
  2  1  2  0  0  0  0
  2  3  1  0  0  0  0
  3  4  2  0  0  0  0
  4  5  1  0  0  0  0
  4 16  1  0  0  0  0
  6  5  2  0  0  0  0
  7  1  1  0  0  0  0
  7  8  1  0  0  0  0
  9 11  2  0  0  0  0
 10 15  1  0  0  0  0
 11 10  1  0  0  0  0
 12 11  1  0  0  0  0
 12  8  1  0  0  0  0
 15 14  1  6  0  0  0
 15 13  1  0  0  0  0
 16 18  1  0  0  0  0
 17 20  1  0  0  0  0
 18 17  2  0  0  0  0
 20 22  1  0  0  0  0
 20 19  1  1  0  0  0
 21 22  1  0  0  0  0
 23  2  1  0  0  0  0
 23 24  1  0  0  0  0
 24 25  1  0  0  0  0
 25 31  1  0  0  0  0
 26 30  1  0  0  0  0
 27 30  1  0  0  0  0
 28 27  2  0  0  0  0
 29 32  2  0  0  0  0
 31 26  2  0  0  0  0
 31 29  1  0  0  0  0
 32 28  1  0  0  0  0
M  END
>  <MODEL>
5

>  <REMARK>
 VINA RESULT:      -6.5      2.470      3.778
  Name = 
  12 active torsions:
  status: ('A' for Active; 'I' for Inactive)
    1  A    between atoms: N_1  and  C_25
    2  A    between atoms: N_1  and  C_32
    3  A    between atoms: C_2  and  C_27
    4  A    between atoms: C_3  and  C_16
    5  A    between atoms: C_6  and  N_31
    6  A    between atoms: C_10  and  C_19
    7  A    between atoms: N_14  and  C_18
    8  A    between atoms: C_16  and  C_23
    9  A    between atoms: C_19  and  C_24
   10  A    between atoms: C_20  and  C_27
   11  A    between atoms: C_23  and  N_28
   12  A    between atoms: N_31  and  C_32
                            x       y       z     vdW  Elec       q    Type
                         _______ _______ _______ _____ _____    ______ ____

>  <TORSDO>
F 12

$$$$
=
 OpenBabel11042419333D

 32 33  0  0  1  0  0  0  0  0999 V2000
  189.8850  174.6640  142.9080 C   0  0  0  0  0  0  0  0  0  0  0  0
  190.1050  176.0370  142.6220 C   0  0  0  0  0  0  0  0  0  0  0  0
  189.0130  176.8380  142.2680 C   0  0  0  0  0  3  0  0  0  0  0  0
  187.7230  176.3060  142.1920 C   0  0  0  0  0  0  0  0  0  0  0  0
  187.5140  174.9540  142.4640 C   0  0  0  0  0  3  0  0  0  0  0  0
  188.5890  174.1410  142.8230 C   0  0  0  0  0  3  0  0  0  0  0  0
  190.9720  173.7300  143.3410 C   0  0  0  0  0  2  0  0  0  0  0  0
  191.2130  172.6510  142.2950 C   0  0  0  0  0  2  0  0  0  0  0  0
  192.3270  173.9280  139.0590 O   0  0  0  0  0  0  0  0  0  0  0  0
  190.1530  173.3220  139.6620 N   0  0  0  0  0  2  0  0  0  0  0  0
  191.5460  173.4900  139.9460 C   0  0  0  0  0  0  0  0  0  0  0  0
  192.0640  173.1620  141.2330 N   0  0  0  0  0  2  0  0  0  0  0  0
  189.4680  172.4730  137.5560 N   0  0  0  0  0  1  0  0  0  0  0  0
  188.1780  174.2450  138.5800 C   0  0  0  0  0  1  0  0  0  0  0  0
  189.5650  173.6660  138.3760 C   0  0  1  0  0  3  0  0  0  0  0  0
  186.5790  177.1730  141.7890 C   0  0  0  0  0  2  0  0  0  0  0  0
  185.3990  177.5050  143.9240 C   0  0  0  0  0  3  0  0  0  0  0  0
  186.1190  178.0240  142.9300 C   0  0  0  0  0  3  0  0  0  0  0  0
  185.8430  179.4050  145.2570 O   0  0  0  0  0  1  0  0  0  0  0  0
  184.9380  178.3620  145.0590 C   0  0  2  0  0  3  0  0  0  0  0  0
  185.3480  178.3310  147.5190 C   0  0  0  0  0  1  0  0  0  0  0  0
  184.8400  177.5370  146.3300 C   0  0  0  0  0  2  0  0  0  0  0  0
  191.3930  176.6710  142.6640 N   0  0  0  0  0  2  0  0  0  0  0  0
  191.7990  177.7410  143.5600 C   0  0  0  0  0  2  0  0  0  0  0  0
  192.0790  177.1920  144.8780 N   0  0  0  0  0  2  0  0  0  0  0  0
  191.2730  175.6610  146.5380 C   0  0  0  0  0  3  0  0  0  0  0  0
  188.9970  174.8220  147.0210 C   0  0  0  0  0  3  0  0  0  0  0  0
  188.2160  175.7080  146.4040 C   0  0  0  0  0  3  0  0  0  0  0  0
  189.8240  177.5520  145.8500 C   0  0  0  0  0  3  0  0  0  0  0  0
  190.3300  175.1750  147.5890 C   0  0  0  0  0  2  0  0  0  0  0  0
  191.0620  176.7460  145.7800 C   0  0  0  0  0  0  0  0  0  0  0  0
  188.5910  177.1050  146.1150 C   0  0  0  0  0  3  0  0  0  0  0  0
  1  7  1  0  0  0  0
  2 23  1  0  0  0  0
  2  1  2  0  0  0  0
  3  2  1  0  0  0  0
  4  3  2  0  0  0  0
  4  5  1  0  0  0  0
  5  6  2  0  0  0  0
  6  1  1  0  0  0  0
  8  7  1  0  0  0  0
  9 11  2  0  0  0  0
 10 11  1  0  0  0  0
 11 12  1  0  0  0  0
 12  8  1  0  0  0  0
 13 15  1  0  0  0  0
 15 14  1  1  0  0  0
 15 10  1  0  0  0  0
 16  4  1  0  0  0  0
 16 18  1  0  0  0  0
 17 20  1  0  0  0  0
 18 17  2  0  0  0  0
 20 19  1  1  0  0  0
 20 22  1  0  0  0  0
 22 21  1  0  0  0  0
 23 24  1  0  0  0  0
 24 25  1  0  0  0  0
 25 31  1  0  0  0  0
 26 30  1  0  0  0  0
 27 30  1  0  0  0  0
 28 27  2  0  0  0  0
 29 32  2  0  0  0  0
 31 29  1  0  0  0  0
 31 26  2  0  0  0  0
 32 28  1  0  0  0  0
M  END
>  <MODEL>
6

>  <REMARK>
 VINA RESULT:      -6.5      2.384      3.275
  Name = 
  12 active torsions:
  status: ('A' for Active; 'I' for Inactive)
    1  A    between atoms: N_1  and  C_25
    2  A    between atoms: N_1  and  C_32
    3  A    between atoms: C_2  and  C_27
    4  A    between atoms: C_3  and  C_16
    5  A    between atoms: C_6  and  N_31
    6  A    between atoms: C_10  and  C_19
    7  A    between atoms: N_14  and  C_18
    8  A    between atoms: C_16  and  C_23
    9  A    between atoms: C_19  and  C_24
   10  A    between atoms: C_20  and  C_27
   11  A    between atoms: C_23  and  N_28
   12  A    between atoms: N_31  and  C_32
                            x       y       z     vdW  Elec       q    Type
                         _______ _______ _______ _____ _____    ______ ____

>  <TORSDO>
F 12

$$$$
=
 OpenBabel11042419333D

 32 33  0  0  1  0  0  0  0  0999 V2000
  192.5380  176.1700  146.5480 C   0  0  0  0  0  0  0  0  0  0  0  0
  191.6290  176.6320  145.5590 C   0  0  0  0  0  0  0  0  0  0  0  0
  190.2610  176.4020  145.7370 C   0  0  0  0  0  3  0  0  0  0  0  0
  189.7840  175.7270  146.8640 C   0  0  0  0  0  0  0  0  0  0  0  0
  190.6820  175.2670  147.8280 C   0  0  0  0  0  3  0  0  0  0  0  0
  192.0490  175.4910  147.6710 C   0  0  0  0  0  3  0  0  0  0  0  0
  194.0150  176.4040  146.4800 C   0  0  0  0  0  2  0  0  0  0  0  0
  194.7510  175.1330  146.0800 C   0  0  0  0  0  2  0  0  0  0  0  0
  195.5830  175.0720  142.5230 O   0  0  0  0  0  0  0  0  0  0  0  0
  193.6730  174.1880  143.5400 N   0  0  0  0  0  2  0  0  0  0  0  0
  194.9300  174.8730  143.5830 C   0  0  0  0  0  0  0  0  0  0  0  0
  195.4570  175.3340  144.8260 N   0  0  0  0  0  2  0  0  0  0  0  0
  193.4990  172.3560  142.0440 N   0  0  0  0  0  1  0  0  0  0  0  0
  191.5630  173.7620  142.4040 C   0  0  0  0  0  1  0  0  0  0  0  0
  193.0760  173.7200  142.2980 C   0  0  1  0  0  3  0  0  0  0  0  0
  188.3230  175.4720  147.0220 C   0  0  0  0  0  2  0  0  0  0  0  0
  186.7550  177.3400  147.3550 C   0  0  0  0  0  3  0  0  0  0  0  0
  187.5160  176.6290  146.5240 C   0  0  0  0  0  3  0  0  0  0  0  0
  186.0150  179.5480  147.7600 O   0  0  0  0  0  1  0  0  0  0  0  0
  185.9460  178.4920  146.8500 C   0  0  2  0  0  3  0  0  0  0  0  0
  183.8800  178.7780  145.4820 C   0  0  0  0  0  1  0  0  0  0  0  0
  184.4960  178.0760  146.6780 C   0  0  0  0  0  2  0  0  0  0  0  0
  192.0250  177.3240  144.3650 N   0  0  0  0  0  2  0  0  0  0  0  0
  191.1700  178.1380  143.5160 C   0  0  0  0  0  2  0  0  0  0  0  0
  190.5670  177.3030  142.4890 N   0  0  0  0  0  2  0  0  0  0  0  0
  188.4040  178.2730  142.1300 C   0  0  0  0  0  3  0  0  0  0  0  0
  186.1550  177.5820  142.8940 C   0  0  0  0  0  3  0  0  0  0  0  0
  186.3350  176.3080  143.2370 C   0  0  0  0  0  3  0  0  0  0  0  0
  188.5980  175.8050  142.2790 C   0  0  0  0  0  3  0  0  0  0  0  0
  186.9440  178.2500  141.8180 C   0  0  0  0  0  2  0  0  0  0  0  0
  189.1530  177.1750  142.3040 C   0  0  0  0  0  0  0  0  0  0  0  0
  187.3810  175.4260  142.6870 C   0  0  0  0  0  3  0  0  0  0  0  0
  1  6  1  0  0  0  0
  2  3  1  0  0  0  0
  2  1  2  0  0  0  0
  3  4  2  0  0  0  0
  4 16  1  0  0  0  0
  4  5  1  0  0  0  0
  6  5  2  0  0  0  0
  7  1  1  0  0  0  0
  8  7  1  0  0  0  0
  9 11  2  0  0  0  0
 10 11  1  0  0  0  0
 11 12  1  0  0  0  0
 12  8  1  0  0  0  0
 13 15  1  0  0  0  0
 15 14  1  1  0  0  0
 15 10  1  0  0  0  0
 18 16  1  0  0  0  0
 18 17  2  0  0  0  0
 20 17  1  0  0  0  0
 20 19  1  1  0  0  0
 21 22  1  0  0  0  0
 22 20  1  0  0  0  0
 23  2  1  0  0  0  0
 24 23  1  0  0  0  0
 25 24  1  0  0  0  0
 26 31  2  0  0  0  0
 27 28  2  0  0  0  0
 29 31  1  0  0  0  0
 29 32  2  0  0  0  0
 30 26  1  0  0  0  0
 30 27  1  0  0  0  0
 31 25  1  0  0  0  0
 32 28  1  0  0  0  0
M  END
>  <MODEL>
7

>  <REMARK>
 VINA RESULT:      -6.4      1.765      4.578
  Name = 
  12 active torsions:
  status: ('A' for Active; 'I' for Inactive)
    1  A    between atoms: N_1  and  C_25
    2  A    between atoms: N_1  and  C_32
    3  A    between atoms: C_2  and  C_27
    4  A    between atoms: C_3  and  C_16
    5  A    between atoms: C_6  and  N_31
    6  A    between atoms: C_10  and  C_19
    7  A    between atoms: N_14  and  C_18
    8  A    between atoms: C_16  and  C_23
    9  A    between atoms: C_19  and  C_24
   10  A    between atoms: C_20  and  C_27
   11  A    between atoms: C_23  and  N_28
   12  A    between atoms: N_31  and  C_32
                            x       y       z     vdW  Elec       q    Type
                         _______ _______ _______ _____ _____    ______ ____

>  <TORSDO>
F 12

$$$$
=
 OpenBabel11042419333D

 32 33  0  0  1  0  0  0  0  0999 V2000
  190.6940  175.4560  145.8530 C   0  0  0  0  0  0  0  0  0  0  0  0
  190.3500  176.7700  145.4390 C   0  0  0  0  0  0  0  0  0  0  0  0
  189.1050  177.2910  145.8070 C   0  0  0  0  0  3  0  0  0  0  0  0
  188.2040  176.5400  146.5660 C   0  0  0  0  0  0  0  0  0  0  0  0
  188.5430  175.2450  146.9620 C   0  0  0  0  0  3  0  0  0  0  0  0
  189.7820  174.7100  146.6100 C   0  0  0  0  0  3  0  0  0  0  0  0
  192.0170  174.8200  145.5570 C   0  0  0  0  0  2  0  0  0  0  0  0
  192.9970  175.0410  146.7000 C   0  0  0  0  0  2  0  0  0  0  0  0
  195.1200  177.8410  145.6990 O   0  0  0  0  0  0  0  0  0  0  0  0
  195.2050  175.6500  144.8930 N   0  0  0  0  0  2  0  0  0  0  0  0
  194.6540  176.6710  145.7330 C   0  0  0  0  0  0  0  0  0  0  0  0
  193.5750  176.3720  146.6160 N   0  0  0  0  0  2  0  0  0  0  0  0
  197.0450  174.6830  143.7530 N   0  0  0  0  0  1  0  0  0  0  0  0
  195.7210  176.3640  142.6250 C   0  0  0  0  0  1  0  0  0  0  0  0
  196.2870  175.9030  143.9540 C   0  0  1  0  0  3  0  0  0  0  0  0
  186.8720  177.1070  146.9260 C   0  0  0  0  0  2  0  0  0  0  0  0
  186.1110  178.9170  145.4410 C   0  0  0  0  0  3  0  0  0  0  0  0
  186.1570  177.6130  145.7140 C   0  0  0  0  0  3  0  0  0  0  0  0
  185.3280  180.8110  144.2650 O   0  0  0  0  0  1  0  0  0  0  0  0
  185.3890  179.4180  144.2310 C   0  0  2  0  0  3  0  0  0  0  0  0
  183.6260  178.3920  142.7960 C   0  0  0  0  0  1  0  0  0  0  0  0
  183.9780  178.8570  144.1970 C   0  0  0  0  0  2  0  0  0  0  0  0
  191.2040  177.6130  144.6500 N   0  0  0  0  0  2  0  0  0  0  0  0
  191.5480  177.4240  143.2500 C   0  0  0  0  0  2  0  0  0  0  0  0
  190.4910  177.9700  142.4120 N   0  0  0  0  0  2  0  0  0  0  0  0
  188.1630  177.9670  141.8420 C   0  0  0  0  0  3  0  0  0  0  0  0
  186.3320  176.4200  142.4510 C   0  0  0  0  0  3  0  0  0  0  0  0
  186.9850  175.3330  142.8610 C   0  0  0  0  0  3  0  0  0  0  0  0
  189.3320  175.7970  142.1080 C   0  0  0  0  0  3  0  0  0  0  0  0
  186.8730  177.3470  141.4160 C   0  0  0  0  0  2  0  0  0  0  0  0
  189.2750  177.2740  142.1200 C   0  0  0  0  0  0  0  0  0  0  0  0
  188.3440  174.9550  142.4330 C   0  0  0  0  0  3  0  0  0  0  0  0
  1  6  1  0  0  0  0
  2  3  1  0  0  0  0
  2  1  2  0  0  0  0
  3  4  2  0  0  0  0
  4 16  1  0  0  0  0
  4  5  1  0  0  0  0
  6  5  2  0  0  0  0
  7  1  1  0  0  0  0
  7  8  1  0  0  0  0
  9 11  2  0  0  0  0
 10 11  1  0  0  0  0
 11 12  1  0  0  0  0
 12  8  1  0  0  0  0
 13 15  1  0  0  0  0
 15 14  1  6  0  0  0
 15 10  1  0  0  0  0
 17 18  2  0  0  0  0
 18 16  1  0  0  0  0
 20 19  1  1  0  0  0
 20 17  1  0  0  0  0
 21 22  1  0  0  0  0
 22 20  1  0  0  0  0
 23  2  1  0  0  0  0
 24 23  1  0  0  0  0
 25 24  1  0  0  0  0
 26 31  2  0  0  0  0
 27 28  2  0  0  0  0
 29 31  1  0  0  0  0
 29 32  2  0  0  0  0
 30 26  1  0  0  0  0
 30 27  1  0  0  0  0
 31 25  1  0  0  0  0
 32 28  1  0  0  0  0
M  END
>  <MODEL>
8

>  <REMARK>
 VINA RESULT:      -6.2      2.392      4.384
  Name = 
  12 active torsions:
  status: ('A' for Active; 'I' for Inactive)
    1  A    between atoms: N_1  and  C_25
    2  A    between atoms: N_1  and  C_32
    3  A    between atoms: C_2  and  C_27
    4  A    between atoms: C_3  and  C_16
    5  A    between atoms: C_6  and  N_31
    6  A    between atoms: C_10  and  C_19
    7  A    between atoms: N_14  and  C_18
    8  A    between atoms: C_16  and  C_23
    9  A    between atoms: C_19  and  C_24
   10  A    between atoms: C_20  and  C_27
   11  A    between atoms: C_23  and  N_28
   12  A    between atoms: N_31  and  C_32
                            x       y       z     vdW  Elec       q    Type
                         _______ _______ _______ _____ _____    ______ ____

>  <TORSDO>
F 12

$$$$
=
 OpenBabel11042419333D

 32 33  0  0  1  0  0  0  0  0999 V2000
  191.0600  173.6900  143.6970 C   0  0  0  0  0  0  0  0  0  0  0  0
  191.3250  174.9170  143.0330 C   0  0  0  0  0  0  0  0  0  0  0  0
  190.2770  175.5710  142.3750 C   0  0  0  0  0  3  0  0  0  0  0  0
  188.9870  175.0330  142.3620 C   0  0  0  0  0  0  0  0  0  0  0  0
  188.7340  173.8220  143.0070 C   0  0  0  0  0  3  0  0  0  0  0  0
  189.7640  173.1580  143.6730 C   0  0  0  0  0  3  0  0  0  0  0  0
  192.0950  172.9330  144.4700 C   0  0  0  0  0  2  0  0  0  0  0  0
  192.7730  171.8890  143.5960 C   0  0  0  0  0  2  0  0  0  0  0  0
  194.8300  169.7850  145.7620 O   0  0  0  0  0  0  0  0  0  0  0  0
  195.3550  171.9130  144.9520 N   0  0  0  0  0  2  0  0  0  0  0  0
  194.4860  170.7810  145.0710 C   0  0  0  0  0  0  0  0  0  0  0  0
  193.2240  170.7700  144.4070 N   0  0  0  0  0  2  0  0  0  0  0  0
  197.6970  171.6350  144.6980 N   0  0  0  0  0  1  0  0  0  0  0  0
  196.8760  173.4030  146.1320 C   0  0  0  0  0  1  0  0  0  0  0  0
  196.6420  171.9910  145.6280 C   0  0  1  0  0  3  0  0  0  0  0  0
  187.8910  175.7350  141.6330 C   0  0  0  0  0  2  0  0  0  0  0  0
  186.5040  177.3810  142.8290 C   0  0  0  0  0  3  0  0  0  0  0  0
  186.7770  176.1040  142.5600 C   0  0  0  0  0  3  0  0  0  0  0  0
  184.2120  177.9160  143.0380 O   0  0  0  0  0  1  0  0  0  0  0  0
  185.3930  177.7430  143.7610 C   0  0  2  0  0  3  0  0  0  0  0  0
  185.7290  178.8060  145.9930 C   0  0  0  0  0  1  0  0  0  0  0  0
  185.7250  179.0320  144.4920 C   0  0  0  0  0  2  0  0  0  0  0  0
  192.6170  175.5420  142.9830 N   0  0  0  0  0  2  0  0  0  0  0  0
  193.3250  176.1490  144.0980 C   0  0  0  0  0  2  0  0  0  0  0  0
  192.4660  177.1320  144.7420 N   0  0  0  0  0  2  0  0  0  0  0  0
  191.6010  175.8730  146.5890 C   0  0  0  0  0  3  0  0  0  0  0  0
  189.3400  174.9780  147.0420 C   0  0  0  0  0  3  0  0  0  0  0  0
  188.5700  175.6810  146.2130 C   0  0  0  0  0  3  0  0  0  0  0  0
  190.1170  177.5030  145.4530 C   0  0  0  0  0  3  0  0  0  0  0  0
  190.5960  175.5200  147.6360 C   0  0  0  0  0  2  0  0  0  0  0  0
  191.3980  176.7870  145.6300 C   0  0  0  0  0  0  0  0  0  0  0  0
  188.8920  177.0260  145.7000 C   0  0  0  0  0  3  0  0  0  0  0  0
  1  7  1  0  0  0  0
  2  1  2  0  0  0  0
  3  2  1  0  0  0  0
  4  3  2  0  0  0  0
  4  5  1  0  0  0  0
  5  6  2  0  0  0  0
  6  1  1  0  0  0  0
  8 12  1  0  0  0  0
  8  7  1  0  0  0  0
 10 11  1  0  0  0  0
 10 15  1  0  0  0  0
 11  9  2  0  0  0  0
 12 11  1  0  0  0  0
 13 15  1  0  0  0  0
 15 14  1  6  0  0  0
 16  4  1  0  0  0  0
 16 18  1  0  0  0  0
 17 20  1  0  0  0  0
 18 17  2  0  0  0  0
 20 19  1  6  0  0  0
 20 22  1  0  0  0  0
 22 21  1  0  0  0  0
 23  2  1  0  0  0  0
 23 24  1  0  0  0  0
 24 25  1  0  0  0  0
 25 31  1  0  0  0  0
 26 30  1  0  0  0  0
 27 30  1  0  0  0  0
 28 27  2  0  0  0  0
 29 31  1  0  0  0  0
 29 32  2  0  0  0  0
 31 26  2  0  0  0  0
 32 28  1  0  0  0  0
M  END
>  <MODEL>
9

>  <REMARK>
 VINA RESULT:      -6.2      1.901      2.850
  Name = 
  12 active torsions:
  status: ('A' for Active; 'I' for Inactive)
    1  A    between atoms: N_1  and  C_25
    2  A    between atoms: N_1  and  C_32
    3  A    between atoms: C_2  and  C_27
    4  A    between atoms: C_3  and  C_16
    5  A    between atoms: C_6  and  N_31
    6  A    between atoms: C_10  and  C_19
    7  A    between atoms: N_14  and  C_18
    8  A    between atoms: C_16  and  C_23
    9  A    between atoms: C_19  and  C_24
   10  A    between atoms: C_20  and  C_27
   11  A    between atoms: C_23  and  N_28
   12  A    between atoms: N_31  and  C_32
                            x       y       z     vdW  Elec       q    Type
                         _______ _______ _______ _____ _____    ______ ____

>  <TORSDO>
F 12

$$$$
