=
 OpenBabel11042415423D

 59 61  0  0  1  0  0  0  0  0999 V2000
  192.1960  173.8420  138.5180 C   0  0  0  0  0  2  0  0  0  0  0  0
  191.6470  171.3750  138.2980 C   0  0  1  0  0  3  0  0  0  0  0  0
  191.3350  172.8030  137.8050 C   0  0  1  0  0  3  0  0  0  0  0  0
  193.6750  173.5550  138.2460 C   0  0  2  0  0  3  0  0  0  0  0  0
  193.1370  171.0850  138.0300 C   0  0  2  0  0  3  0  0  0  0  0  0
  194.0390  172.1380  138.6900 C   0  0  0  0  0  2  0  0  0  0  0  0
  189.8800  173.1530  137.8060 C   0  0  0  0  0  0  0  0  0  0  0  0
  189.0940  172.5120  137.0590 O   0  0  0  0  0  0  0  0  0  0  0  0
  189.3940  174.1360  138.6750 O   0  0  0  0  0  0  0  0  0  0  0  0
  188.0480  174.3100  138.9390 N   0  0  0  0  0  2  0  0  0  0  0  0
  187.0350  175.7470  137.1130 C   0  0  0  0  0  1  0  0  0  0  0  0
  187.1060  176.4110  139.4220 C   0  0  0  0  0  0  0  0  0  0  0  0
  187.2950  175.4630  138.5510 C   0  0  0  0  0  0  0  0  0  0  0  0
  186.9290  177.3630  140.3010 C   0  0  0  0  0  3  0  0  0  0  0  0
  187.0360  177.1360  141.7840 C   0  0  2  0  0  0  0  0  0  0  0  0
  188.2200  177.9260  142.3230 C   0  0  0  0  0  1  0  0  0  0  0  0
  188.7100  175.3040  142.3680 C   0  0  0  0  0  1  0  0  0  0  0  0
  187.2490  175.6500  142.1060 C   0  0  0  0  0  2  0  0  0  0  0  0
  185.7550  177.6580  142.4410 C   0  0  0  0  0  2  0  0  0  0  0  0
  185.9630  178.9130  143.0220 O   0  0  0  0  0  1  0  0  0  0  0  0
  193.1680  169.6980  136.3010 C   0  0  0  0  0  1  0  0  0  0  0  0
  193.3860  171.0280  136.6570 O   0  0  0  0  0  0  0  0  0  0  0  0
  194.5490  174.5490  138.9900 C   0  0  0  0  0  2  0  0  0  0  0  0
  194.6450  174.1770  140.4640 C   0  0  0  0  0  2  0  0  0  0  0  0
  197.0920  173.9560  139.9160 C   0  0  0  0  0  1  0  0  0  0  0  0
  196.0680  174.3560  140.9740 C   0  0  2  0  0  3  0  0  0  0  0  0
  196.2940  173.6870  142.3550 C   0  0  2  0  0  3  0  0  0  0  0  0
  197.2190  174.4820  143.2830 C   0  0  0  0  0  3  0  0  0  0  0  0
  196.6950  174.5540  144.7070 C   0  0  0  0  0  1  0  0  0  0  0  0
  197.4230  175.8830  142.7470 C   0  0  0  0  0  1  0  0  0  0  0  0
  195.5710  171.5050  143.2050 C   0  0  0  0  0  1  0  0  0  0  0  0
  196.5450  172.2300  142.4010 N   0  0  0  0  0  0  0  0  0  0  0  0
  197.8590  172.0020  142.9770 C   0  0  0  0  0  1  0  0  0  0  0  0
  191.2500  171.1360  139.7820 C   0  0  1  0  0  3  0  0  0  0  0  0
  190.4720  168.8980  139.6910 O   0  0  0  0  0  0  0  0  0  0  0  0
  191.2800  169.6840  140.1620 C   0  0  0  0  0  0  0  0  0  0  0  0
  192.3190  169.1880  141.1080 C   0  0  0  0  0  1  0  0  0  0  0  0
  192.0420  171.9750  140.7910 C   0  0  0  0  0  2  0  0  0  0  0  0
  191.1460  172.7190  141.7680 C   0  0  0  0  0  2  0  0  0  0  0  0
  191.3710  172.1690  143.1550 C   0  0  0  0  0  2  0  0  0  0  0  0
  191.5510  173.2370  144.0720 O   0  0  0  0  0  0  0  0  0  0  0  0
  189.4960  172.9280  145.0360 O   0  0  0  0  0  0  0  0  0  0  0  0
  190.5940  173.5440  145.0410 C   0  0  0  0  0  0  0  0  0  0  0  0
  190.1050  175.8140  145.9620 C   0  0  0  0  0  0  0  0  0  0  0  0
  191.5960  176.8240  144.2070 C   0  0  0  0  0  3  0  0  0  0  0  0
  190.4020  176.7630  145.0700 C   0  0  0  0  0  3  0  0  0  0  0  0
  193.1710  175.4700  145.5960 C   0  0  0  0  0  3  0  0  0  0  0  0
  192.3550  174.7560  146.3700 C   0  0  0  0  0  3  0  0  0  0  0  0
  190.8960  174.5530  146.1150 C   0  0  2  0  0  3  0  0  0  0  0  0
  192.7880  176.2470  144.4020 C   0  0  0  0  0  0  0  0  0  0  0  0
  193.2440  176.6750  142.1280 O   0  0  0  0  0  1  0  0  0  0  0  0
  193.8440  176.4820  143.3760 C   0  0  0  0  0  2  0  0  0  0  0  0
  188.8080  175.9020  146.6930 C   0  0  0  0  0  2  0  0  0  0  0  0
  187.7150  176.4410  145.7850 C   0  0  0  0  0  2  0  0  0  0  0  0
  185.2770  176.7170  146.2270 C   0  0  0  0  0  2  0  0  0  0  0  0
  186.6640  177.1760  146.6060 C   0  0  2  0  0  3  0  0  0  0  0  0
  185.4640  179.0600  146.5630 C   0  0  0  0  0  2  0  0  0  0  0  0
  184.4600  177.9710  146.2650 C   0  0  0  0  0  2  0  0  0  0  0  0
  186.7590  178.5530  146.3660 O   0  0  0  0  0  0  0  0  0  0  0  0
  2 34  1  1  0  0  0
  3  7  1  1  0  0  0
  3  2  1  0  0  0  0
  3  1  1  0  0  0  0
  4  1  1  0  0  0  0
  4  6  1  0  0  0  0
  4 23  1  1  0  0  0
  5 22  1  6  0  0  0
  5  2  1  0  0  0  0
  5  6  1  0  0  0  0
  7  9  1  0  0  0  0
  8  7  2  0  0  0  0
  9 10  1  0  0  0  0
 11 13  1  0  0  0  0
 12 14  2  0  0  0  0
 13 10  1  0  0  0  0
 13 12  2  0  0  0  0
 14 15  1  0  0  0  0
 15 18  1  0  0  0  0
 15 16  1  1  0  0  0
 15 19  1  0  0  0  0
 18 17  1  0  0  0  0
 19 20  1  0  0  0  0
 21 22  1  0  0  0  0
 23 24  1  0  0  0  0
 24 26  1  0  0  0  0
 26 25  1  6  0  0  0
 26 27  1  0  0  0  0
 27 32  1  0  0  0  0
 27 28  1  6  0  0  0
 28 29  1  0  0  0  0
 30 28  1  0  0  0  0
 32 33  1  0  0  0  0
 32 31  1  0  0  0  0
 34 36  1  0  0  0  0
 34 38  1  1  0  0  0
 35 36  2  0  0  0  0
 36 37  1  0  0  0  0
 38 39  1  0  0  0  0
 39 40  1  0  0  0  0
 40 41  1  0  0  0  0
 41 43  1  0  0  0  0
 42 43  2  0  0  0  0
 44 49  1  0  0  0  0
 44 53  1  0  0  0  0
 45 50  2  0  0  0  0
 45 46  1  0  0  0  0
 46 44  2  0  0  0  0
 47 48  2  0  0  0  0
 49 43  1  6  0  0  0
 49 48  1  0  0  0  0
 50 47  1  0  0  0  0
 51 52  1  0  0  0  0
 52 50  1  0  0  0  0
 54 53  1  0  0  0  0
 55 58  1  0  0  0  0
 55 56  1  0  0  0  0
 56 54  1  6  0  0  0
 58 57  1  0  0  0  0
 59 57  1  0  0  0  0
 59 56  1  0  0  0  0
M  END
>  <MODEL>
1

>  <REMARK>
 VINA RESULT:      -5.2      0.000      0.000
  Name = 
  26 active torsions:
  status: ('A' for Active; 'I' for Inactive)
    1  A    between atoms: C_1  and  C_50
    2  A    between atoms: C_3  and  C_5
    3  A    between atoms: C_4  and  C_18
    4  A    between atoms: C_5  and  C_6
    5  A    between atoms: C_5  and  C_29
    6  A    between atoms: C_6  and  C_57
    7  A    between atoms: O_13  and  C_38
    8  A    between atoms: O_13  and  C_54
    9  A    between atoms: N_15  and  C_42
   10  A    between atoms: C_17  and  C_28
   11  A    between atoms: C_17  and  C_47
   12  A    between atoms: C_18  and  C_53
   13  A    between atoms: C_18  and  C_59
   14  A    between atoms: C_20  and  C_21
   15  A    between atoms: C_21  and  O_30
   16  A    between atoms: C_23  and  C_33
   17  A    between atoms: C_25  and  C_28
   18  A    between atoms: O_30  and  N_56
   19  A    between atoms: C_33  and  C_50
   20  A    between atoms: C_34  and  O_58
   21  A    between atoms: C_37  and  C_42
   22  A    between atoms: C_38  and  C_39
   23  A    between atoms: C_41  and  C_46
   24  A    between atoms: C_42  and  C_47
   25  A    between atoms: C_43  and  N_56
   26  A    between atoms: C_54  and  C_57
                            x       y       z     vdW  Elec       q    Type
                         _______ _______ _______ _____ _____    ______ ____

>  <TORSDO>
F 26

$$$$
=
 OpenBabel11042415423D

 59 61  0  0  1  0  0  0  0  0999 V2000
  190.1480  173.9870  141.6460 C   0  0  0  0  0  2  0  0  0  0  0  0
  192.4320  172.9870  141.1730 C   0  0  1  0  0  3  0  0  0  0  0  0
  191.2250  173.7500  140.5900 C   0  0  1  0  0  3  0  0  0  0  0  0
  190.7300  174.8180  142.7920 C   0  0  2  0  0  3  0  0  0  0  0  0
  193.0170  173.8200  142.3310 C   0  0  2  0  0  3  0  0  0  0  0  0
  191.9520  174.1230  143.3950 C   0  0  0  0  0  2  0  0  0  0  0  0
  190.6800  173.1680  139.3240 C   0  0  0  0  0  0  0  0  0  0  0  0
  189.5460  172.6180  139.3390 O   0  0  0  0  0  0  0  0  0  0  0  0
  191.3950  173.2920  138.1270 O   0  0  0  0  0  0  0  0  0  0  0  0
  192.4020  174.2210  137.9450 N   0  0  0  0  0  2  0  0  0  0  0  0
  191.6030  175.4020  135.8470 C   0  0  0  0  0  1  0  0  0  0  0  0
  193.8700  174.6680  136.1610 C   0  0  0  0  0  0  0  0  0  0  0  0
  192.6980  174.8500  136.6930 C   0  0  0  0  0  0  0  0  0  0  0  0
  195.0490  174.4700  135.6280 C   0  0  0  0  0  3  0  0  0  0  0  0
  196.2470  174.0450  136.4310 C   0  0  2  0  0  0  0  0  0  0  0  0
  197.2010  173.2740  135.5300 C   0  0  0  0  0  1  0  0  0  0  0  0
  196.6710  171.8660  137.6850 C   0  0  0  0  0  1  0  0  0  0  0  0
  195.8400  173.1400  137.6030 C   0  0  0  0  0  2  0  0  0  0  0  0
  196.9560  175.3050  136.9370 C   0  0  0  0  0  2  0  0  0  0  0  0
  196.8820  175.3980  138.3300 O   0  0  0  0  0  1  0  0  0  0  0  0
  194.7750  174.6330  141.2560 C   0  0  0  0  0  1  0  0  0  0  0  0
  193.5710  175.0070  141.8500 O   0  0  0  0  0  0  0  0  0  0  0  0
  189.6870  175.0210  143.8760 C   0  0  0  0  0  2  0  0  0  0  0  0
  188.4380  175.6730  143.2990 C   0  0  0  0  0  2  0  0  0  0  0  0
  189.4370  177.6150  144.5510 C   0  0  0  0  0  1  0  0  0  0  0  0
  188.1600  177.0050  143.9810 C   0  0  2  0  0  3  0  0  0  0  0  0
  186.9940  176.9190  145.0000 C   0  0  2  0  0  3  0  0  0  0  0  0
  185.7590  177.7330  144.5960 C   0  0  0  0  0  3  0  0  0  0  0  0
  185.1870  177.2990  143.2580 C   0  0  0  0  0  1  0  0  0  0  0  0
  186.0930  179.2080  144.5500 C   0  0  0  0  0  1  0  0  0  0  0  0
  187.9790  175.8460  146.9710 C   0  0  0  0  0  1  0  0  0  0  0  0
  187.3060  177.0240  146.4420 N   0  0  0  0  0  0  0  0  0  0  0  0
  186.0650  177.1980  147.1760 C   0  0  0  0  0  1  0  0  0  0  0  0
  192.0920  171.5310  141.5980 C   0  0  1  0  0  3  0  0  0  0  0  0
  191.4150  169.8080  140.1160 O   0  0  0  0  0  0  0  0  0  0  0  0
  192.3180  170.5390  140.4940 C   0  0  0  0  0  0  0  0  0  0  0  0
  193.6530  170.4570  139.8350 C   0  0  0  0  0  1  0  0  0  0  0  0
  192.7820  171.0700  142.8870 C   0  0  0  0  0  2  0  0  0  0  0  0
  192.5920  169.5860  143.1560 C   0  0  0  0  0  2  0  0  0  0  0  0
  193.2120  169.2480  144.4900 C   0  0  0  0  0  2  0  0  0  0  0  0
  194.0030  170.3370  144.9410 O   0  0  0  0  0  0  0  0  0  0  0  0
  194.7070  169.4120  146.9160 O   0  0  0  0  0  0  0  0  0  0  0  0
  194.9520  170.1870  145.9540 C   0  0  0  0  0  0  0  0  0  0  0  0
  196.2140  172.1400  145.0410 C   0  0  0  0  0  0  0  0  0  0  0  0
  196.3720  170.9730  142.8190 C   0  0  0  0  0  3  0  0  0  0  0  0
  196.1920  172.1380  143.7060 C   0  0  0  0  0  3  0  0  0  0  0  0
  197.7080  169.5070  144.3400 C   0  0  0  0  0  3  0  0  0  0  0  0
  197.4290  169.9920  145.5490 C   0  0  0  0  0  3  0  0  0  0  0  0
  196.2780  170.8920  145.8650 C   0  0  2  0  0  3  0  0  0  0  0  0
  196.9950  169.8180  143.0860 C   0  0  0  0  0  0  0  0  0  0  0  0
  197.0830  169.4420  140.7600 O   0  0  0  0  0  1  0  0  0  0  0  0
  197.0510  168.7980  142.0000 C   0  0  0  0  0  2  0  0  0  0  0  0
  195.9450  173.4200  145.7570 C   0  0  0  0  0  2  0  0  0  0  0  0
  195.6390  174.5350  144.7690 C   0  0  0  0  0  2  0  0  0  0  0  0
  193.8940  175.2210  146.4120 C   0  0  0  0  0  2  0  0  0  0  0  0
  194.9840  175.7070  145.4870 C   0  0  2  0  0  3  0  0  0  0  0  0
  193.3330  177.1850  145.2000 C   0  0  0  0  0  2  0  0  0  0  0  0
  192.8160  176.2500  146.2700 C   0  0  0  0  0  2  0  0  0  0  0  0
  194.4140  176.5750  144.5450 O   0  0  0  0  0  0  0  0  0  0  0  0
  1  4  1  0  0  0  0
  2 34  1  1  0  0  0
  2  5  1  0  0  0  0
  3  7  1  6  0  0  0
  3  2  1  0  0  0  0
  3  1  1  0  0  0  0
  4  6  1  0  0  0  0
  4 23  1  1  0  0  0
  5 22  1  6  0  0  0
  5  6  1  0  0  0  0
  7  8  2  0  0  0  0
  9  7  1  0  0  0  0
 10  9  1  0  0  0  0
 11 13  1  0  0  0  0
 12 13  2  0  0  0  0
 13 10  1  0  0  0  0
 14 12  2  0  0  0  0
 14 15  1  0  0  0  0
 15 16  1  6  0  0  0
 15 19  1  0  0  0  0
 15 18  1  0  0  0  0
 18 17  1  0  0  0  0
 19 20  1  0  0  0  0
 21 22  1  0  0  0  0
 24 23  1  0  0  0  0
 24 26  1  0  0  0  0
 26 25  1  1  0  0  0
 26 27  1  0  0  0  0
 27 28  1  6  0  0  0
 27 32  1  0  0  0  0
 29 28  1  0  0  0  0
 30 28  1  0  0  0  0
 32 31  1  0  0  0  0
 32 33  1  0  0  0  0
 34 38  1  1  0  0  0
 35 36  2  0  0  0  0
 36 34  1  0  0  0  0
 37 36  1  0  0  0  0
 38 39  1  0  0  0  0
 39 40  1  0  0  0  0
 40 41  1  0  0  0  0
 41 43  1  0  0  0  0
 43 42  2  0  0  0  0
 44 53  1  0  0  0  0
 44 49  1  0  0  0  0
 45 50  2  0  0  0  0
 45 46  1  0  0  0  0
 46 44  2  0  0  0  0
 47 48  2  0  0  0  0
 48 49  1  0  0  0  0
 49 43  1  6  0  0  0
 50 47  1  0  0  0  0
 51 52  1  0  0  0  0
 52 50  1  0  0  0  0
 54 53  1  0  0  0  0
 56 54  1  6  0  0  0
 56 55  1  0  0  0  0
 57 58  1  0  0  0  0
 58 55  1  0  0  0  0
 59 57  1  0  0  0  0
 59 56  1  0  0  0  0
M  END
>  <MODEL>
2

>  <REMARK>
 VINA RESULT:      -5.2      2.841      7.787
  Name = 
  26 active torsions:
  status: ('A' for Active; 'I' for Inactive)
    1  A    between atoms: C_1  and  C_50
    2  A    between atoms: C_3  and  C_5
    3  A    between atoms: C_4  and  C_18
    4  A    between atoms: C_5  and  C_6
    5  A    between atoms: C_5  and  C_29
    6  A    between atoms: C_6  and  C_57
    7  A    between atoms: O_13  and  C_38
    8  A    between atoms: O_13  and  C_54
    9  A    between atoms: N_15  and  C_42
   10  A    between atoms: C_17  and  C_28
   11  A    between atoms: C_17  and  C_47
   12  A    between atoms: C_18  and  C_53
   13  A    between atoms: C_18  and  C_59
   14  A    between atoms: C_20  and  C_21
   15  A    between atoms: C_21  and  O_30
   16  A    between atoms: C_23  and  C_33
   17  A    between atoms: C_25  and  C_28
   18  A    between atoms: O_30  and  N_56
   19  A    between atoms: C_33  and  C_50
   20  A    between atoms: C_34  and  O_58
   21  A    between atoms: C_37  and  C_42
   22  A    between atoms: C_38  and  C_39
   23  A    between atoms: C_41  and  C_46
   24  A    between atoms: C_42  and  C_47
   25  A    between atoms: C_43  and  N_56
   26  A    between atoms: C_54  and  C_57
                            x       y       z     vdW  Elec       q    Type
                         _______ _______ _______ _____ _____    ______ ____

>  <TORSDO>
F 26

$$$$
=
 OpenBabel11042415423D

 59 61  0  0  1  0  0  0  0  0999 V2000
  193.5220  173.6840  142.5410 C   0  0  0  0  0  2  0  0  0  0  0  0
  194.1140  175.0670  144.5840 C   0  0  1  0  0  3  0  0  0  0  0  0
  194.0640  173.6530  143.9690 C   0  0  1  0  0  3  0  0  0  0  0  0
  194.4300  174.5540  141.6680 C   0  0  2  0  0  3  0  0  0  0  0  0
  195.0240  175.9470  143.7040 C   0  0  2  0  0  3  0  0  0  0  0  0
  194.5420  175.9650  142.2460 C   0  0  0  0  0  2  0  0  0  0  0  0
  193.3880  172.6300  144.8260 C   0  0  0  0  0  0  0  0  0  0  0  0
  192.1560  172.4190  144.6740 O   0  0  0  0  0  0  0  0  0  0  0  0
  194.1330  171.8750  145.7380 O   0  0  0  0  0  0  0  0  0  0  0  0
  195.0060  170.8740  145.3530 N   0  0  0  0  0  2  0  0  0  0  0  0
  197.3290  171.8920  145.3470 C   0  0  0  0  0  1  0  0  0  0  0  0
  196.3220  170.9010  143.4030 C   0  0  0  0  0  0  0  0  0  0  0  0
  196.2510  171.1070  144.6850 C   0  0  0  0  0  0  0  0  0  0  0  0
  196.3820  170.7010  142.1110 C   0  0  0  0  0  3  0  0  0  0  0  0
  195.4170  169.8120  141.3770 C   0  0  2  0  0  0  0  0  0  0  0  0
  195.6170  168.3750  141.8360 C   0  0  0  0  0  1  0  0  0  0  0  0
  197.0660  169.5120  139.4550 C   0  0  0  0  0  1  0  0  0  0  0  0
  195.6430  169.8780  139.8590 C   0  0  0  0  0  2  0  0  0  0  0  0
  193.9940  170.2510  141.7350 C   0  0  0  0  0  2  0  0  0  0  0  0
  193.0580  169.6720  140.8730 O   0  0  0  0  0  1  0  0  0  0  0  0
  197.1050  176.5380  143.2230 C   0  0  0  0  0  1  0  0  0  0  0  0
  196.3460  175.5050  143.7700 O   0  0  0  0  0  0  0  0  0  0  0  0
  193.8780  174.6360  140.2560 C   0  0  0  0  0  2  0  0  0  0  0  0
  194.6200  173.6750  139.3370 C   0  0  0  0  0  2  0  0  0  0  0  0
  193.3190  172.0000  137.9810 C   0  0  0  0  0  1  0  0  0  0  0  0
  193.8320  173.4350  138.0570 C   0  0  2  0  0  3  0  0  0  0  0  0
  194.5980  173.8970  136.7900 C   0  0  2  0  0  3  0  0  0  0  0  0
  193.7390  174.7000  135.8070 C   0  0  0  0  0  3  0  0  0  0  0  0
  192.6810  175.5370  136.5050 C   0  0  0  0  0  1  0  0  0  0  0  0
  193.0750  173.7730  134.8110 C   0  0  0  0  0  1  0  0  0  0  0  0
  196.4040  172.2590  137.0330 C   0  0  0  0  0  1  0  0  0  0  0  0
  195.4960  172.9350  136.1170 N   0  0  0  0  0  0  0  0  0  0  0  0
  196.2990  173.6510  135.1400 C   0  0  0  0  0  1  0  0  0  0  0  0
  192.7090  175.6930  144.8030 C   0  0  1  0  0  3  0  0  0  0  0  0
  191.2880  175.1530  146.6230 O   0  0  0  0  0  0  0  0  0  0  0  0
  192.3050  175.7180  146.2490 C   0  0  0  0  0  0  0  0  0  0  0  0
  193.1620  176.4230  147.2440 C   0  0  0  0  0  1  0  0  0  0  0  0
  192.5260  177.0770  144.1670 C   0  0  0  0  0  2  0  0  0  0  0  0
  191.2890  177.7980  144.6770 C   0  0  0  0  0  2  0  0  0  0  0  0
  190.6490  178.5400  143.5280 C   0  0  0  0  0  2  0  0  0  0  0  0
  190.1780  177.6140  142.5610 O   0  0  0  0  0  0  0  0  0  0  0  0
  188.5720  178.6170  141.2710 O   0  0  0  0  0  0  0  0  0  0  0  0
  188.8800  177.6780  142.0520 C   0  0  0  0  0  0  0  0  0  0  0  0
  188.1850  175.9060  143.6700 C   0  0  0  0  0  0  0  0  0  0  0  0
  189.9290  174.3720  142.7060 C   0  0  0  0  0  3  0  0  0  0  0  0
  189.1350  174.9760  143.7930 C   0  0  0  0  0  3  0  0  0  0  0  0
  188.3410  174.7090  140.8070 C   0  0  0  0  0  3  0  0  0  0  0  0
  187.5580  175.6970  141.2390 C   0  0  0  0  0  3  0  0  0  0  0  0
  187.8790  176.6050  142.3830 C   0  0  2  0  0  3  0  0  0  0  0  0
  189.6160  174.2770  141.4080 C   0  0  0  0  0  0  0  0  0  0  0  0
  190.3470  172.2240  140.5070 O   0  0  0  0  0  1  0  0  0  0  0  0
  190.5960  173.5990  140.5110 C   0  0  0  0  0  2  0  0  0  0  0  0
  187.5410  176.4360  144.9070 C   0  0  0  0  0  2  0  0  0  0  0  0
  186.1130  176.8750  144.6240 C   0  0  0  0  0  2  0  0  0  0  0  0
  185.5850  178.8960  145.9850 C   0  0  0  0  0  2  0  0  0  0  0  0
  185.4610  177.3930  145.8980 C   0  0  2  0  0  3  0  0  0  0  0  0
  185.9560  177.7730  148.0440 C   0  0  0  0  0  2  0  0  0  0  0  0
  185.8480  179.1530  147.4360 C   0  0  0  0  0  2  0  0  0  0  0  0
  186.0950  176.8300  147.0140 O   0  0  0  0  0  0  0  0  0  0  0  0
  1  3  1  0  0  0  0
  2 34  1  6  0  0  0
  3  2  1  0  0  0  0
  3  7  1  1  0  0  0
  4 23  1  6  0  0  0
  4  6  1  0  0  0  0
  4  1  1  0  0  0  0
  5 22  1  6  0  0  0
  5  2  1  0  0  0  0
  6  5  1  0  0  0  0
  7  9  1  0  0  0  0
  8  7  2  0  0  0  0
 10  9  1  0  0  0  0
 12 13  2  0  0  0  0
 13 11  1  0  0  0  0
 13 10  1  0  0  0  0
 14 12  2  0  0  0  0
 15 19  1  0  0  0  0
 15 16  1  1  0  0  0
 15 14  1  0  0  0  0
 17 18  1  0  0  0  0
 18 15  1  0  0  0  0
 20 19  1  0  0  0  0
 21 22  1  0  0  0  0
 24 23  1  0  0  0  0
 26 25  1  6  0  0  0
 26 24  1  0  0  0  0
 27 28  1  6  0  0  0
 27 26  1  0  0  0  0
 28 29  1  0  0  0  0
 30 28  1  0  0  0  0
 32 27  1  0  0  0  0
 32 31  1  0  0  0  0
 33 32  1  0  0  0  0
 34 38  1  1  0  0  0
 34 36  1  0  0  0  0
 36 35  2  0  0  0  0
 36 37  1  0  0  0  0
 38 39  1  0  0  0  0
 40 39  1  0  0  0  0
 41 40  1  0  0  0  0
 42 43  2  0  0  0  0
 43 41  1  0  0  0  0
 44 46  2  0  0  0  0
 44 53  1  0  0  0  0
 45 46  1  0  0  0  0
 47 48  2  0  0  0  0
 47 50  1  0  0  0  0
 48 49  1  0  0  0  0
 49 43  1  6  0  0  0
 49 44  1  0  0  0  0
 50 45  2  0  0  0  0
 51 52  1  0  0  0  0
 52 50  1  0  0  0  0
 54 53  1  0  0  0  0
 55 58  1  0  0  0  0
 56 54  1  6  0  0  0
 56 55  1  0  0  0  0
 56 59  1  0  0  0  0
 58 57  1  0  0  0  0
 59 57  1  0  0  0  0
M  END
>  <MODEL>
3

>  <REMARK>
 VINA RESULT:      -5.1      2.369      7.482
  Name = 
  26 active torsions:
  status: ('A' for Active; 'I' for Inactive)
    1  A    between atoms: C_1  and  C_50
    2  A    between atoms: C_3  and  C_5
    3  A    between atoms: C_4  and  C_18
    4  A    between atoms: C_5  and  C_6
    5  A    between atoms: C_5  and  C_29
    6  A    between atoms: C_6  and  C_57
    7  A    between atoms: O_13  and  C_38
    8  A    between atoms: O_13  and  C_54
    9  A    between atoms: N_15  and  C_42
   10  A    between atoms: C_17  and  C_28
   11  A    between atoms: C_17  and  C_47
   12  A    between atoms: C_18  and  C_53
   13  A    between atoms: C_18  and  C_59
   14  A    between atoms: C_20  and  C_21
   15  A    between atoms: C_21  and  O_30
   16  A    between atoms: C_23  and  C_33
   17  A    between atoms: C_25  and  C_28
   18  A    between atoms: O_30  and  N_56
   19  A    between atoms: C_33  and  C_50
   20  A    between atoms: C_34  and  O_58
   21  A    between atoms: C_37  and  C_42
   22  A    between atoms: C_38  and  C_39
   23  A    between atoms: C_41  and  C_46
   24  A    between atoms: C_42  and  C_47
   25  A    between atoms: C_43  and  N_56
   26  A    between atoms: C_54  and  C_57
                            x       y       z     vdW  Elec       q    Type
                         _______ _______ _______ _____ _____    ______ ____

>  <TORSDO>
F 26

$$$$
=
 OpenBabel11042415423D

 59 61  0  0  1  0  0  0  0  0999 V2000
  191.7530  172.9050  142.6350 C   0  0  0  0  0  2  0  0  0  0  0  0
  191.3800  171.4230  140.6090 C   0  0  1  0  0  3  0  0  0  0  0  0
  192.4220  172.0700  141.5450 C   0  0  1  0  0  3  0  0  0  0  0  0
  190.8410  172.0100  143.4780 C   0  0  2  0  0  3  0  0  0  0  0  0
  190.4570  170.5260  141.4570 C   0  0  2  0  0  3  0  0  0  0  0  0
  189.8010  171.3180  142.5970 C   0  0  0  0  0  2  0  0  0  0  0  0
  193.5160  172.8040  140.8380 C   0  0  0  0  0  0  0  0  0  0  0  0
  193.2590  173.9090  140.2900 O   0  0  0  0  0  0  0  0  0  0  0  0
  194.8200  172.2980  140.8430 O   0  0  0  0  0  0  0  0  0  0  0  0
  195.1100  170.9640  141.0620 N   0  0  0  0  0  2  0  0  0  0  0  0
  197.5220  170.2280  140.7990 C   0  0  0  0  0  1  0  0  0  0  0  0
  196.2970  170.0070  142.8540 C   0  0  0  0  0  0  0  0  0  0  0  0
  196.3280  170.4920  141.6480 C   0  0  0  0  0  0  0  0  0  0  0  0
  196.2540  169.5130  144.0650 C   0  0  0  0  0  3  0  0  0  0  0  0
  195.1560  169.8340  145.0410 C   0  0  2  0  0  0  0  0  0  0  0  0
  193.8270  169.8680  144.3000 C   0  0  0  0  0  1  0  0  0  0  0  0
  196.8560  171.4970  145.9600 C   0  0  0  0  0  1  0  0  0  0  0  0
  195.3840  171.2010  145.7040 C   0  0  0  0  0  2  0  0  0  0  0  0
  195.1070  168.7200  146.0910 C   0  0  0  0  0  2  0  0  0  0  0  0
  194.5010  169.1670  147.2690 O   0  0  0  0  0  1  0  0  0  0  0  0
  190.6980  168.3310  141.2660 C   0  0  0  0  0  1  0  0  0  0  0  0
  191.1670  169.4390  141.9700 O   0  0  0  0  0  0  0  0  0  0  0  0
  190.1290  172.8350  144.5350 C   0  0  0  0  0  2  0  0  0  0  0  0
  191.0350  173.9490  145.0430 C   0  0  0  0  0  2  0  0  0  0  0  0
  189.0440  174.0910  146.5770 C   0  0  0  0  0  1  0  0  0  0  0  0
  190.4690  174.5700  146.3120 C   0  0  2  0  0  3  0  0  0  0  0  0
  190.6300  176.1120  146.3440 C   0  0  2  0  0  3  0  0  0  0  0  0
  192.0110  176.5790  146.8160 C   0  0  0  0  0  3  0  0  0  0  0  0
  193.0120  176.6880  145.6780 C   0  0  0  0  0  1  0  0  0  0  0  0
  192.5500  175.6400  147.8750 C   0  0  0  0  0  1  0  0  0  0  0  0
  188.7880  177.6590  145.8770 C   0  0  0  0  0  1  0  0  0  0  0  0
  189.5270  176.9270  146.8960 N   0  0  0  0  0  0  0  0  0  0  0  0
  190.0820  177.8940  147.8270 C   0  0  0  0  0  1  0  0  0  0  0  0
  190.5900  172.4580  139.7600 C   0  0  1  0  0  3  0  0  0  0  0  0
  191.1410  173.0330  137.5270 O   0  0  0  0  0  0  0  0  0  0  0  0
  190.6850  172.1910  138.2860 C   0  0  0  0  0  0  0  0  0  0  0  0
  190.2380  170.8780  137.7420 C   0  0  0  0  0  1  0  0  0  0  0  0
  189.1270  172.6380  140.1830 C   0  0  0  0  0  2  0  0  0  0  0  0
  188.1880  172.7900  138.9960 C   0  0  0  0  0  2  0  0  0  0  0  0
  188.1070  174.2500  138.6210 C   0  0  0  0  0  2  0  0  0  0  0  0
  188.2440  175.0520  139.7830 O   0  0  0  0  0  0  0  0  0  0  0  0
  186.7670  176.7030  139.1990 O   0  0  0  0  0  0  0  0  0  0  0  0
  187.3050  176.0300  140.1170 C   0  0  0  0  0  0  0  0  0  0  0  0
  186.8150  177.6780  141.9290 C   0  0  0  0  0  0  0  0  0  0  0  0
  189.2850  177.9700  142.3040 C   0  0  0  0  0  3  0  0  0  0  0  0
  187.8880  178.4300  142.1910 C   0  0  0  0  0  3  0  0  0  0  0  0
  188.8780  175.5890  142.9440 C   0  0  0  0  0  3  0  0  0  0  0  0
  187.6330  175.3710  142.5240 C   0  0  0  0  0  3  0  0  0  0  0  0
  186.8950  176.2330  141.5500 C   0  0  2  0  0  3  0  0  0  0  0  0
  189.7300  176.7410  142.5960 C   0  0  0  0  0  0  0  0  0  0  0  0
  191.8370  177.7820  142.7970 O   0  0  0  0  0  1  0  0  0  0  0  0
  191.2060  176.5420  142.6640 C   0  0  0  0  0  2  0  0  0  0  0  0
  185.4900  178.3500  141.7920 C   0  0  0  0  0  2  0  0  0  0  0  0
  184.5160  177.8360  142.8400 C   0  0  0  0  0  2  0  0  0  0  0  0
  185.3420  176.9560  145.0220 C   0  0  0  0  0  2  0  0  0  0  0  0
  185.0050  178.2000  144.2350 C   0  0  2  0  0  3  0  0  0  0  0  0
  184.2020  178.6160  146.2790 C   0  0  0  0  0  2  0  0  0  0  0  0
  184.8650  177.2640  146.4060 C   0  0  0  0  0  2  0  0  0  0  0  0
  184.0010  178.8990  144.9180 O   0  0  0  0  0  0  0  0  0  0  0  0
  1  4  1  0  0  0  0
  2 34  1  1  0  0  0
  2  5  1  0  0  0  0
  2  3  1  0  0  0  0
  3  7  1  6  0  0  0
  3  1  1  0  0  0  0
  4 23  1  1  0  0  0
  5 22  1  1  0  0  0
  5  6  1  0  0  0  0
  6  4  1  0  0  0  0
  7  9  1  0  0  0  0
  8  7  2  0  0  0  0
  9 10  1  0  0  0  0
 10 13  1  0  0  0  0
 11 13  1  0  0  0  0
 12 14  2  0  0  0  0
 13 12  2  0  0  0  0
 14 15  1  0  0  0  0
 15 16  1  6  0  0  0
 15 18  1  0  0  0  0
 15 19  1  0  0  0  0
 18 17  1  0  0  0  0
 19 20  1  0  0  0  0
 21 22  1  0  0  0  0
 23 24  1  0  0  0  0
 24 26  1  0  0  0  0
 26 27  1  0  0  0  0
 26 25  1  6  0  0  0
 27 28  1  1  0  0  0
 27 32  1  0  0  0  0
 28 30  1  0  0  0  0
 29 28  1  0  0  0  0
 31 32  1  0  0  0  0
 32 33  1  0  0  0  0
 34 38  1  1  0  0  0
 35 36  2  0  0  0  0
 36 34  1  0  0  0  0
 37 36  1  0  0  0  0
 39 38  1  0  0  0  0
 40 39  1  0  0  0  0
 40 41  1  0  0  0  0
 41 43  1  0  0  0  0
 42 43  2  0  0  0  0
 44 46  2  0  0  0  0
 45 50  2  0  0  0  0
 46 45  1  0  0  0  0
 48 47  2  0  0  0  0
 49 43  1  6  0  0  0
 49 44  1  0  0  0  0
 49 48  1  0  0  0  0
 50 52  1  0  0  0  0
 50 47  1  0  0  0  0
 52 51  1  0  0  0  0
 53 44  1  0  0  0  0
 53 54  1  0  0  0  0
 55 58  1  0  0  0  0
 56 54  1  6  0  0  0
 56 59  1  0  0  0  0
 56 55  1  0  0  0  0
 57 58  1  0  0  0  0
 59 57  1  0  0  0  0
M  END
>  <MODEL>
4

>  <REMARK>
 VINA RESULT:      -5.1      2.478      7.073
  Name = 
  26 active torsions:
  status: ('A' for Active; 'I' for Inactive)
    1  A    between atoms: C_1  and  C_50
    2  A    between atoms: C_3  and  C_5
    3  A    between atoms: C_4  and  C_18
    4  A    between atoms: C_5  and  C_6
    5  A    between atoms: C_5  and  C_29
    6  A    between atoms: C_6  and  C_57
    7  A    between atoms: O_13  and  C_38
    8  A    between atoms: O_13  and  C_54
    9  A    between atoms: N_15  and  C_42
   10  A    between atoms: C_17  and  C_28
   11  A    between atoms: C_17  and  C_47
   12  A    between atoms: C_18  and  C_53
   13  A    between atoms: C_18  and  C_59
   14  A    between atoms: C_20  and  C_21
   15  A    between atoms: C_21  and  O_30
   16  A    between atoms: C_23  and  C_33
   17  A    between atoms: C_25  and  C_28
   18  A    between atoms: O_30  and  N_56
   19  A    between atoms: C_33  and  C_50
   20  A    between atoms: C_34  and  O_58
   21  A    between atoms: C_37  and  C_42
   22  A    between atoms: C_38  and  C_39
   23  A    between atoms: C_41  and  C_46
   24  A    between atoms: C_42  and  C_47
   25  A    between atoms: C_43  and  N_56
   26  A    between atoms: C_54  and  C_57
                            x       y       z     vdW  Elec       q    Type
                         _______ _______ _______ _____ _____    ______ ____

>  <TORSDO>
F 26

$$$$
=
 OpenBabel11042415423D

 59 61  0  0  1  0  0  0  0  0999 V2000
  190.8890  173.3480  143.2870 C   0  0  0  0  0  2  0  0  0  0  0  0
  190.6800  175.5630  144.5050 C   0  0  1  0  0  3  0  0  0  0  0  0
  189.9300  174.4290  143.7770 C   0  0  1  0  0  3  0  0  0  0  0  0
  191.6300  172.7410  144.4810 C   0  0  2  0  0  3  0  0  0  0  0  0
  191.4310  174.9550  145.7060 C   0  0  2  0  0  3  0  0  0  0  0  0
  192.3730  173.8260  145.2620 C   0  0  0  0  0  2  0  0  0  0  0  0
  188.9870  174.8960  142.7130 C   0  0  0  0  0  0  0  0  0  0  0  0
  189.3390  174.8220  141.5050 O   0  0  0  0  0  0  0  0  0  0  0  0
  187.7080  175.3490  143.0550 O   0  0  0  0  0  0  0  0  0  0  0  0
  186.8060  175.8320  142.1260 N   0  0  0  0  0  2  0  0  0  0  0  0
  186.6120  177.8780  140.6390 C   0  0  0  0  0  1  0  0  0  0  0  0
  186.3640  177.9590  143.0280 C   0  0  0  0  0  0  0  0  0  0  0  0
  186.4790  177.2170  141.9670 C   0  0  0  0  0  0  0  0  0  0  0  0
  186.2600  178.7010  144.1020 C   0  0  0  0  0  3  0  0  0  0  0  0
  185.9880  178.1300  145.4660 C   0  0  2  0  0  0  0  0  0  0  0  0
  185.4210  176.7260  145.3130 C   0  0  0  0  0  1  0  0  0  0  0  0
  184.4180  178.2840  147.4690 C   0  0  0  0  0  1  0  0  0  0  0  0
  184.9750  178.9880  146.2370 C   0  0  0  0  0  2  0  0  0  0  0  0
  187.3170  178.0450  146.2230 C   0  0  0  0  0  2  0  0  0  0  0  0
  188.3510  177.6300  145.3780 O   0  0  0  0  0  1  0  0  0  0  0  0
  190.3810  175.5270  147.5720 C   0  0  0  0  0  1  0  0  0  0  0  0
  190.5280  174.4830  146.6600 O   0  0  0  0  0  0  0  0  0  0  0  0
  192.6260  171.6980  144.0080 C   0  0  0  0  0  2  0  0  0  0  0  0
  193.7370  171.5170  145.0330 C   0  0  0  0  0  2  0  0  0  0  0  0
  194.5630  169.7180  143.4770 C   0  0  0  0  0  1  0  0  0  0  0  0
  194.9590  170.8700  144.3970 C   0  0  2  0  0  3  0  0  0  0  0  0
  196.0460  170.4980  145.4390 C   0  0  2  0  0  3  0  0  0  0  0  0
  197.2460  171.4510  145.4470 C   0  0  0  0  0  3  0  0  0  0  0  0
  196.9440  172.7650  146.1470 C   0  0  0  0  0  1  0  0  0  0  0  0
  197.7080  171.7260  144.0320 C   0  0  0  0  0  1  0  0  0  0  0  0
  195.5790  168.3320  146.4850 C   0  0  0  0  0  1  0  0  0  0  0  0
  196.4370  169.0780  145.5760 N   0  0  0  0  0  0  0  0  0  0  0  0
  197.7940  169.0160  146.0910 C   0  0  0  0  0  1  0  0  0  0  0  0
  191.6140  176.3820  143.5700 C   0  0  1  0  0  3  0  0  0  0  0  0
  191.6780  178.7290  143.9050 O   0  0  0  0  0  0  0  0  0  0  0  0
  191.1290  177.7870  143.3540 C   0  0  0  0  0  0  0  0  0  0  0  0
  189.9780  178.0390  142.4420 C   0  0  0  0  0  1  0  0  0  0  0  0
  193.0890  176.3790  143.9890 C   0  0  0  0  0  2  0  0  0  0  0  0
  193.9770  175.6330  143.0060 C   0  0  0  0  0  2  0  0  0  0  0  0
  193.4680  175.8780  141.6060 C   0  0  0  0  0  2  0  0  0  0  0  0
  194.5630  176.0700  140.7240 O   0  0  0  0  0  0  0  0  0  0  0  0
  196.4710  174.8420  140.4050 O   0  0  0  0  0  0  0  0  0  0  0  0
  195.2460  174.9940  140.1530 C   0  0  0  0  0  0  0  0  0  0  0  0
  195.1340  172.6330  139.3460 C   0  0  0  0  0  0  0  0  0  0  0  0
  196.9510  173.1380  137.6820 C   0  0  0  0  0  3  0  0  0  0  0  0
  196.2420  172.3080  138.6730 C   0  0  0  0  0  3  0  0  0  0  0  0
  195.0530  174.5740  136.9220 C   0  0  0  0  0  3  0  0  0  0  0  0
  194.1850  174.4860  137.9280 C   0  0  0  0  0  3  0  0  0  0  0  0
  194.5140  173.9940  139.3010 C   0  0  2  0  0  3  0  0  0  0  0  0
  196.4630  174.1410  136.9410 C   0  0  0  0  0  0  0  0  0  0  0  0
  197.2320  176.1990  136.0850 O   0  0  0  0  0  1  0  0  0  0  0  0
  197.3950  174.8150  135.9930 C   0  0  0  0  0  2  0  0  0  0  0  0
  194.6070  171.6730  140.3580 C   0  0  0  0  0  2  0  0  0  0  0  0
  194.3280  170.3200  139.7220 C   0  0  0  0  0  2  0  0  0  0  0  0
  192.3250  170.5870  138.2620 C   0  0  0  0  0  2  0  0  0  0  0  0
  192.8270  170.0970  139.5990 C   0  0  2  0  0  3  0  0  0  0  0  0
  190.8980  171.1150  140.0850 C   0  0  0  0  0  2  0  0  0  0  0  0
  191.0010  171.2080  138.5800 C   0  0  0  0  0  2  0  0  0  0  0  0
  192.1620  170.8040  140.6100 O   0  0  0  0  0  0  0  0  0  0  0  0
  1  3  1  0  0  0  0
  1  4  1  0  0  0  0
  2 34  1  6  0  0  0
  2  5  1  0  0  0  0
  3  7  1  6  0  0  0
  3  2  1  0  0  0  0
  4 23  1  6  0  0  0
  4  6  1  0  0  0  0
  5 22  1  1  0  0  0
  6  5  1  0  0  0  0
  7  9  1  0  0  0  0
  8  7  2  0  0  0  0
 10  9  1  0  0  0  0
 11 13  1  0  0  0  0
 12 14  2  0  0  0  0
 13 10  1  0  0  0  0
 13 12  2  0  0  0  0
 14 15  1  0  0  0  0
 15 16  1  6  0  0  0
 15 19  1  0  0  0  0
 15 18  1  0  0  0  0
 18 17  1  0  0  0  0
 20 19  1  0  0  0  0
 22 21  1  0  0  0  0
 23 24  1  0  0  0  0
 26 25  1  1  0  0  0
 26 24  1  0  0  0  0
 26 27  1  0  0  0  0
 27 28  1  6  0  0  0
 27 32  1  0  0  0  0
 28 29  1  0  0  0  0
 30 28  1  0  0  0  0
 32 33  1  0  0  0  0
 32 31  1  0  0  0  0
 34 38  1  1  0  0  0
 36 34  1  0  0  0  0
 36 35  2  0  0  0  0
 37 36  1  0  0  0  0
 39 38  1  0  0  0  0
 40 39  1  0  0  0  0
 41 40  1  0  0  0  0
 43 42  2  0  0  0  0
 43 41  1  0  0  0  0
 44 53  1  0  0  0  0
 45 46  1  0  0  0  0
 46 44  2  0  0  0  0
 47 50  1  0  0  0  0
 47 48  2  0  0  0  0
 48 49  1  0  0  0  0
 49 44  1  0  0  0  0
 49 43  1  6  0  0  0
 50 45  2  0  0  0  0
 52 51  1  0  0  0  0
 52 50  1  0  0  0  0
 54 53  1  0  0  0  0
 55 58  1  0  0  0  0
 55 56  1  0  0  0  0
 56 54  1  6  0  0  0
 56 59  1  0  0  0  0
 57 59  1  0  0  0  0
 58 57  1  0  0  0  0
M  END
>  <MODEL>
5

>  <REMARK>
 VINA RESULT:      -5.0      2.305      7.412
  Name = 
  26 active torsions:
  status: ('A' for Active; 'I' for Inactive)
    1  A    between atoms: C_1  and  C_50
    2  A    between atoms: C_3  and  C_5
    3  A    between atoms: C_4  and  C_18
    4  A    between atoms: C_5  and  C_6
    5  A    between atoms: C_5  and  C_29
    6  A    between atoms: C_6  and  C_57
    7  A    between atoms: O_13  and  C_38
    8  A    between atoms: O_13  and  C_54
    9  A    between atoms: N_15  and  C_42
   10  A    between atoms: C_17  and  C_28
   11  A    between atoms: C_17  and  C_47
   12  A    between atoms: C_18  and  C_53
   13  A    between atoms: C_18  and  C_59
   14  A    between atoms: C_20  and  C_21
   15  A    between atoms: C_21  and  O_30
   16  A    between atoms: C_23  and  C_33
   17  A    between atoms: C_25  and  C_28
   18  A    between atoms: O_30  and  N_56
   19  A    between atoms: C_33  and  C_50
   20  A    between atoms: C_34  and  O_58
   21  A    between atoms: C_37  and  C_42
   22  A    between atoms: C_38  and  C_39
   23  A    between atoms: C_41  and  C_46
   24  A    between atoms: C_42  and  C_47
   25  A    between atoms: C_43  and  N_56
   26  A    between atoms: C_54  and  C_57
                            x       y       z     vdW  Elec       q    Type
                         _______ _______ _______ _____ _____    ______ ____

>  <TORSDO>
F 26

$$$$
=
 OpenBabel11042415423D

 59 61  0  0  1  0  0  0  0  0999 V2000
  193.5270  173.4240  142.3010 C   0  0  0  0  0  2  0  0  0  0  0  0
  194.5130  174.7370  144.2360 C   0  0  1  0  0  3  0  0  0  0  0  0
  194.2890  173.3390  143.6220 C   0  0  1  0  0  3  0  0  0  0  0  0
  194.3280  174.2620  141.3020 C   0  0  2  0  0  3  0  0  0  0  0  0
  195.3140  175.5850  143.2290 C   0  0  2  0  0  3  0  0  0  0  0  0
  194.6060  175.6550  141.8680 C   0  0  0  0  0  2  0  0  0  0  0  0
  193.7060  172.3360  144.5660 C   0  0  0  0  0  0  0  0  0  0  0  0
  192.6090  171.7860  144.2780 O   0  0  0  0  0  0  0  0  0  0  0  0
  194.4040  171.9700  145.7220 O   0  0  0  0  0  0  0  0  0  0  0  0
  195.6610  171.3940  145.6920 N   0  0  0  0  0  2  0  0  0  0  0  0
  197.3540  173.2630  145.9600 C   0  0  0  0  0  1  0  0  0  0  0  0
  197.2820  171.8180  144.0410 C   0  0  0  0  0  0  0  0  0  0  0  0
  196.8420  172.0650  145.2390 C   0  0  0  0  0  0  0  0  0  0  0  0
  197.7120  171.5710  142.8290 C   0  0  0  0  0  3  0  0  0  0  0  0
  197.3560  170.3190  142.0760 C   0  0  2  0  0  0  0  0  0  0  0  0
  197.9240  169.1160  142.8160 C   0  0  0  0  0  1  0  0  0  0  0  0
  197.9300  171.7320  140.0330 C   0  0  0  0  0  1  0  0  0  0  0  0
  197.9370  170.3400  140.6550 C   0  0  0  0  0  2  0  0  0  0  0  0
  195.8300  170.2000  142.0390 C   0  0  0  0  0  2  0  0  0  0  0  0
  195.3020  170.8510  140.9190 O   0  0  0  0  0  1  0  0  0  0  0  0
  197.1550  175.7860  142.0110 C   0  0  0  0  0  1  0  0  0  0  0  0
  196.6050  175.0750  143.0760 O   0  0  0  0  0  0  0  0  0  0  0  0
  193.5610  174.3990  139.9980 C   0  0  0  0  0  2  0  0  0  0  0  0
  192.9100  173.0750  139.6220 C   0  0  0  0  0  2  0  0  0  0  0  0
  194.3570  172.9880  137.5630 C   0  0  0  0  0  1  0  0  0  0  0  0
  192.9390  172.8680  138.1140 C   0  0  2  0  0  3  0  0  0  0  0  0
  191.8990  173.7490  137.3730 C   0  0  2  0  0  3  0  0  0  0  0  0
  190.5650  173.0430  137.1110 C   0  0  0  0  0  3  0  0  0  0  0  0
  189.4400  173.5790  137.9800 C   0  0  0  0  0  1  0  0  0  0  0  0
  190.7070  171.5520  137.3320 C   0  0  0  0  0  1  0  0  0  0  0  0
  193.2690  175.6320  136.6050 C   0  0  0  0  0  1  0  0  0  0  0  0
  192.3540  174.5640  136.2250 N   0  0  0  0  0  0  0  0  0  0  0  0
  191.1940  175.1730  135.5970 C   0  0  0  0  0  1  0  0  0  0  0  0
  193.1960  175.4300  144.6840 C   0  0  1  0  0  3  0  0  0  0  0  0
  193.9570  176.5570  146.6260 O   0  0  0  0  0  0  0  0  0  0  0  0
  193.1780  175.7440  146.1520 C   0  0  0  0  0  0  0  0  0  0  0  0
  192.1880  175.0730  147.0410 C   0  0  0  0  0  1  0  0  0  0  0  0
  192.8210  176.6690  143.8630 C   0  0  0  0  0  2  0  0  0  0  0  0
  191.7050  177.4810  144.5010 C   0  0  0  0  0  2  0  0  0  0  0  0
  190.8060  178.0160  143.4120 C   0  0  0  0  0  2  0  0  0  0  0  0
  190.2840  176.9390  142.6490 O   0  0  0  0  0  0  0  0  0  0  0  0
  188.5340  177.5100  141.2840 O   0  0  0  0  0  0  0  0  0  0  0  0
  188.9350  176.8750  142.2950 C   0  0  0  0  0  0  0  0  0  0  0  0
  188.5210  175.6230  144.4160 C   0  0  0  0  0  0  0  0  0  0  0  0
  189.9740  173.7520  143.5710 C   0  0  0  0  0  3  0  0  0  0  0  0
  189.4420  174.6720  144.5940 C   0  0  0  0  0  3  0  0  0  0  0  0
  188.0430  173.7500  141.9850 C   0  0  0  0  0  3  0  0  0  0  0  0
  187.4020  174.8780  142.2860 C   0  0  0  0  0  3  0  0  0  0  0  0
  187.9850  176.0080  143.0740 C   0  0  2  0  0  3  0  0  0  0  0  0
  189.3980  173.3680  142.4240 C   0  0  0  0  0  0  0  0  0  0  0  0
  189.8860  171.1020  141.9900 O   0  0  0  0  0  1  0  0  0  0  0  0
  190.1480  172.4080  141.5650 C   0  0  0  0  0  2  0  0  0  0  0  0
  188.1650  176.4950  145.5730 C   0  0  0  0  0  2  0  0  0  0  0  0
  186.9780  177.3820  145.2310 C   0  0  0  0  0  2  0  0  0  0  0  0
  184.5980  177.7990  145.8450 C   0  0  0  0  0  2  0  0  0  0  0  0
  185.9410  177.3230  146.3440 C   0  0  2  0  0  3  0  0  0  0  0  0
  185.1520  178.5720  148.0210 C   0  0  0  0  0  2  0  0  0  0  0  0
  184.0420  178.5790  146.9950 C   0  0  0  0  0  2  0  0  0  0  0  0
  186.3400  178.1490  147.4040 O   0  0  0  0  0  0  0  0  0  0  0  0
  1  3  1  0  0  0  0
  2 34  1  6  0  0  0
  3  2  1  0  0  0  0
  3  7  1  1  0  0  0
  4 23  1  6  0  0  0
  4  6  1  0  0  0  0
  4  1  1  0  0  0  0
  5 22  1  6  0  0  0
  5  2  1  0  0  0  0
  6  5  1  0  0  0  0
  7  9  1  0  0  0  0
  8  7  2  0  0  0  0
 10  9  1  0  0  0  0
 12 13  2  0  0  0  0
 13 10  1  0  0  0  0
 13 11  1  0  0  0  0
 14 12  2  0  0  0  0
 15 16  1  1  0  0  0
 15 14  1  0  0  0  0
 17 18  1  0  0  0  0
 18 15  1  0  0  0  0
 19 15  1  0  0  0  0
 20 19  1  0  0  0  0
 21 22  1  0  0  0  0
 24 23  1  0  0  0  0
 26 25  1  6  0  0  0
 26 24  1  0  0  0  0
 27 28  1  6  0  0  0
 27 26  1  0  0  0  0
 28 30  1  0  0  0  0
 28 29  1  0  0  0  0
 32 31  1  0  0  0  0
 32 27  1  0  0  0  0
 33 32  1  0  0  0  0
 34 38  1  6  0  0  0
 34 36  1  0  0  0  0
 36 35  2  0  0  0  0
 36 37  1  0  0  0  0
 38 39  1  0  0  0  0
 40 39  1  0  0  0  0
 41 40  1  0  0  0  0
 42 43  2  0  0  0  0
 43 41  1  0  0  0  0
 44 46  2  0  0  0  0
 44 53  1  0  0  0  0
 45 46  1  0  0  0  0
 47 48  2  0  0  0  0
 47 50  1  0  0  0  0
 48 49  1  0  0  0  0
 49 43  1  6  0  0  0
 49 44  1  0  0  0  0
 50 45  2  0  0  0  0
 52 51  1  0  0  0  0
 52 50  1  0  0  0  0
 54 53  1  0  0  0  0
 55 56  1  0  0  0  0
 55 58  1  0  0  0  0
 56 54  1  6  0  0  0
 56 59  1  0  0  0  0
 58 57  1  0  0  0  0
 59 57  1  0  0  0  0
M  END
>  <MODEL>
6

>  <REMARK>
 VINA RESULT:      -5.0      2.321      7.718
  Name = 
  26 active torsions:
  status: ('A' for Active; 'I' for Inactive)
    1  A    between atoms: C_1  and  C_50
    2  A    between atoms: C_3  and  C_5
    3  A    between atoms: C_4  and  C_18
    4  A    between atoms: C_5  and  C_6
    5  A    between atoms: C_5  and  C_29
    6  A    between atoms: C_6  and  C_57
    7  A    between atoms: O_13  and  C_38
    8  A    between atoms: O_13  and  C_54
    9  A    between atoms: N_15  and  C_42
   10  A    between atoms: C_17  and  C_28
   11  A    between atoms: C_17  and  C_47
   12  A    between atoms: C_18  and  C_53
   13  A    between atoms: C_18  and  C_59
   14  A    between atoms: C_20  and  C_21
   15  A    between atoms: C_21  and  O_30
   16  A    between atoms: C_23  and  C_33
   17  A    between atoms: C_25  and  C_28
   18  A    between atoms: O_30  and  N_56
   19  A    between atoms: C_33  and  C_50
   20  A    between atoms: C_34  and  O_58
   21  A    between atoms: C_37  and  C_42
   22  A    between atoms: C_38  and  C_39
   23  A    between atoms: C_41  and  C_46
   24  A    between atoms: C_42  and  C_47
   25  A    between atoms: C_43  and  N_56
   26  A    between atoms: C_54  and  C_57
                            x       y       z     vdW  Elec       q    Type
                         _______ _______ _______ _____ _____    ______ ____

>  <TORSDO>
F 26

$$$$
=
 OpenBabel11042415423D

 59 61  0  0  1  0  0  0  0  0999 V2000
  190.5250  173.0590  143.1800 C   0  0  0  0  0  2  0  0  0  0  0  0
  190.6510  175.3680  144.2240 C   0  0  1  0  0  3  0  0  0  0  0  0
  189.7250  174.2320  143.7440 C   0  0  1  0  0  3  0  0  0  0  0  0
  191.4460  172.4990  144.2670 C   0  0  2  0  0  3  0  0  0  0  0  0
  191.5830  174.8050  145.3150 C   0  0  2  0  0  3  0  0  0  0  0  0
  192.3720  173.5900  144.8040 C   0  0  0  0  0  2  0  0  0  0  0  0
  188.6240  174.6750  142.8340 C   0  0  0  0  0  0  0  0  0  0  0  0
  188.7110  174.4340  141.6000 O   0  0  0  0  0  0  0  0  0  0  0  0
  187.4830  175.2930  143.3590 O   0  0  0  0  0  0  0  0  0  0  0  0
  186.5410  175.9290  142.5730 N   0  0  0  0  0  2  0  0  0  0  0  0
  187.0170  177.8960  141.0450 C   0  0  0  0  0  1  0  0  0  0  0  0
  186.3440  178.1450  143.3380 C   0  0  0  0  0  0  0  0  0  0  0  0
  186.5150  177.3390  142.3310 C   0  0  0  0  0  0  0  0  0  0  0  0
  186.1820  178.9480  144.3590 C   0  0  0  0  0  3  0  0  0  0  0  0
  185.5570  178.5070  145.6530 C   0  0  2  0  0  0  0  0  0  0  0  0
  184.0490  178.6910  145.5640 C   0  0  0  0  0  1  0  0  0  0  0  0
  186.3250  178.4940  148.0840 C   0  0  0  0  0  1  0  0  0  0  0  0
  186.0830  179.3330  146.8360 C   0  0  0  0  0  2  0  0  0  0  0  0
  185.8610  177.0190  145.8500 C   0  0  0  0  0  2  0  0  0  0  0  0
  187.1990  176.8230  146.2070 O   0  0  0  0  0  1  0  0  0  0  0  0
  191.5540  175.0250  147.5200 C   0  0  0  0  0  1  0  0  0  0  0  0
  190.8540  174.4630  146.4550 O   0  0  0  0  0  0  0  0  0  0  0  0
  192.2860  171.3630  143.7100 C   0  0  0  0  0  2  0  0  0  0  0  0
  193.4670  171.0740  144.6270 C   0  0  0  0  0  2  0  0  0  0  0  0
  194.1450  168.7380  143.9750 C   0  0  0  0  0  1  0  0  0  0  0  0
  194.5060  170.2200  143.9140 C   0  0  2  0  0  3  0  0  0  0  0  0
  195.9530  170.5340  144.3770 C   0  0  2  0  0  3  0  0  0  0  0  0
  196.0640  170.8770  145.8670 C   0  0  0  0  0  3  0  0  0  0  0  0
  196.8330  172.1630  146.1140 C   0  0  0  0  0  1  0  0  0  0  0  0
  196.7230  169.7410  146.6200 C   0  0  0  0  0  1  0  0  0  0  0  0
  196.0990  171.9000  142.3480 C   0  0  0  0  0  1  0  0  0  0  0  0
  196.7970  171.3970  143.5230 N   0  0  0  0  0  0  0  0  0  0  0  0
  197.9410  170.6260  143.0670 C   0  0  0  0  0  1  0  0  0  0  0  0
  191.4320  176.0550  143.0690 C   0  0  1  0  0  3  0  0  0  0  0  0
  192.1290  178.2720  142.5950 O   0  0  0  0  0  0  0  0  0  0  0  0
  191.2650  177.5480  143.0650 C   0  0  0  0  0  0  0  0  0  0  0  0
  190.0230  178.1540  143.6230 C   0  0  0  0  0  1  0  0  0  0  0  0
  192.9160  175.6780  142.9960 C   0  0  0  0  0  2  0  0  0  0  0  0
  193.2990  175.0550  141.6630 C   0  0  0  0  0  2  0  0  0  0  0  0
  194.5480  175.7280  141.1500 C   0  0  0  0  0  2  0  0  0  0  0  0
  195.3640  174.7790  140.4790 O   0  0  0  0  0  0  0  0  0  0  0  0
  194.6300  172.8890  139.4120 O   0  0  0  0  0  0  0  0  0  0  0  0
  194.9250  174.1110  139.3340 C   0  0  0  0  0  0  0  0  0  0  0  0
  193.7850  174.1830  137.1130 C   0  0  0  0  0  0  0  0  0  0  0  0
  195.4300  172.4940  136.2370 C   0  0  0  0  0  3  0  0  0  0  0  0
  194.0970  173.1080  136.3840 C   0  0  0  0  0  3  0  0  0  0  0  0
  196.8520  174.4890  136.7260 C   0  0  0  0  0  3  0  0  0  0  0  0
  196.0300  175.2890  137.4030 C   0  0  0  0  0  3  0  0  0  0  0  0
  194.7480  174.8560  138.0400 C   0  0  2  0  0  3  0  0  0  0  0  0
  196.6280  173.0660  136.4130 C   0  0  0  0  0  0  0  0  0  0  0  0
  197.4550  170.8780  136.1160 O   0  0  0  0  0  1  0  0  0  0  0  0
  197.8340  172.2210  136.1840 C   0  0  0  0  0  2  0  0  0  0  0  0
  192.3570  174.6090  137.1810 C   0  0  0  0  0  2  0  0  0  0  0  0
  191.5540  173.6620  138.0570 C   0  0  0  0  0  2  0  0  0  0  0  0
  190.2280  171.6270  137.4920 C   0  0  0  0  0  2  0  0  0  0  0  0
  190.3600  173.1170  137.2850 C   0  0  2  0  0  3  0  0  0  0  0  0
  189.8450  172.3310  135.2570 C   0  0  0  0  0  2  0  0  0  0  0  0
  189.8160  171.1110  136.1490 C   0  0  0  0  0  2  0  0  0  0  0  0
  190.5350  173.3620  135.9150 O   0  0  0  0  0  0  0  0  0  0  0  0
  1  3  1  0  0  0  0
  1  4  1  0  0  0  0
  2 34  1  6  0  0  0
  2  5  1  0  0  0  0
  3  7  1  6  0  0  0
  3  2  1  0  0  0  0
  4 23  1  6  0  0  0
  4  6  1  0  0  0  0
  5 22  1  1  0  0  0
  6  5  1  0  0  0  0
  7  9  1  0  0  0  0
  8  7  2  0  0  0  0
 10  9  1  0  0  0  0
 11 13  1  0  0  0  0
 12 14  2  0  0  0  0
 13 10  1  0  0  0  0
 13 12  2  0  0  0  0
 14 15  1  0  0  0  0
 15 16  1  6  0  0  0
 15 19  1  0  0  0  0
 15 18  1  0  0  0  0
 18 17  1  0  0  0  0
 19 20  1  0  0  0  0
 22 21  1  0  0  0  0
 23 24  1  0  0  0  0
 26 25  1  1  0  0  0
 26 27  1  0  0  0  0
 26 24  1  0  0  0  0
 27 28  1  1  0  0  0
 28 29  1  0  0  0  0
 28 30  1  0  0  0  0
 31 32  1  0  0  0  0
 32 27  1  0  0  0  0
 33 32  1  0  0  0  0
 34 38  1  1  0  0  0
 35 36  2  0  0  0  0
 36 34  1  0  0  0  0
 36 37  1  0  0  0  0
 39 38  1  0  0  0  0
 40 39  1  0  0  0  0
 41 40  1  0  0  0  0
 43 42  2  0  0  0  0
 43 41  1  0  0  0  0
 44 53  1  0  0  0  0
 44 49  1  0  0  0  0
 45 46  1  0  0  0  0
 45 50  2  0  0  0  0
 46 44  2  0  0  0  0
 47 48  2  0  0  0  0
 48 49  1  0  0  0  0
 49 43  1  1  0  0  0
 50 47  1  0  0  0  0
 51 52  1  0  0  0  0
 52 50  1  0  0  0  0
 53 54  1  0  0  0  0
 56 55  1  0  0  0  0
 56 54  1  1  0  0  0
 57 59  1  0  0  0  0
 57 58  1  0  0  0  0
 58 55  1  0  0  0  0
 59 56  1  0  0  0  0
M  END
>  <MODEL>
7

>  <REMARK>
 VINA RESULT:      -4.5      2.315      7.584
  Name = 
  26 active torsions:
  status: ('A' for Active; 'I' for Inactive)
    1  A    between atoms: C_1  and  C_50
    2  A    between atoms: C_3  and  C_5
    3  A    between atoms: C_4  and  C_18
    4  A    between atoms: C_5  and  C_6
    5  A    between atoms: C_5  and  C_29
    6  A    between atoms: C_6  and  C_57
    7  A    between atoms: O_13  and  C_38
    8  A    between atoms: O_13  and  C_54
    9  A    between atoms: N_15  and  C_42
   10  A    between atoms: C_17  and  C_28
   11  A    between atoms: C_17  and  C_47
   12  A    between atoms: C_18  and  C_53
   13  A    between atoms: C_18  and  C_59
   14  A    between atoms: C_20  and  C_21
   15  A    between atoms: C_21  and  O_30
   16  A    between atoms: C_23  and  C_33
   17  A    between atoms: C_25  and  C_28
   18  A    between atoms: O_30  and  N_56
   19  A    between atoms: C_33  and  C_50
   20  A    between atoms: C_34  and  O_58
   21  A    between atoms: C_37  and  C_42
   22  A    between atoms: C_38  and  C_39
   23  A    between atoms: C_41  and  C_46
   24  A    between atoms: C_42  and  C_47
   25  A    between atoms: C_43  and  N_56
   26  A    between atoms: C_54  and  C_57
                            x       y       z     vdW  Elec       q    Type
                         _______ _______ _______ _____ _____    ______ ____

>  <TORSDO>
F 26

$$$$
=
 OpenBabel11042415423D

 59 61  0  0  1  0  0  0  0  0999 V2000
  190.1820  172.9140  143.1410 C   0  0  0  0  0  2  0  0  0  0  0  0
  190.1760  175.1810  144.2800 C   0  0  1  0  0  3  0  0  0  0  0  0
  189.3160  174.0500  143.6780 C   0  0  1  0  0  3  0  0  0  0  0  0
  191.0170  172.3250  144.2810 C   0  0  2  0  0  3  0  0  0  0  0  0
  191.0210  174.5890  145.4250 C   0  0  2  0  0  3  0  0  0  0  0  0
  191.8730  173.4080  144.9370 C   0  0  0  0  0  2  0  0  0  0  0  0
  188.2880  174.5130  142.6940 C   0  0  0  0  0  0  0  0  0  0  0  0
  187.9930  173.7710  141.7190 O   0  0  0  0  0  0  0  0  0  0  0  0
  187.6210  175.7270  142.8930 O   0  0  0  0  0  0  0  0  0  0  0  0
  186.5140  176.1080  142.1560 N   0  0  0  0  0  2  0  0  0  0  0  0
  186.0240  178.0480  140.5990 C   0  0  0  0  0  1  0  0  0  0  0  0
  186.0970  178.2670  142.9920 C   0  0  0  0  0  0  0  0  0  0  0  0
  186.1030  177.4660  141.9670 C   0  0  0  0  0  0  0  0  0  0  0  0
  186.1040  179.0690  144.0260 C   0  0  0  0  0  3  0  0  0  0  0  0
  186.0460  178.5720  145.4440 C   0  0  2  0  0  0  0  0  0  0  0  0
  187.3240  177.8060  145.7550 C   0  0  0  0  0  1  0  0  0  0  0  0
  185.2100  176.3800  146.4410 C   0  0  0  0  0  1  0  0  0  0  0  0
  184.8480  177.6360  145.6580 C   0  0  0  0  0  2  0  0  0  0  0  0
  185.9610  179.7870  146.3730 C   0  0  0  0  0  2  0  0  0  0  0  0
  185.5760  179.4070  147.6630 O   0  0  0  0  0  1  0  0  0  0  0  0
  190.2190  175.2570  147.3800 C   0  0  0  0  0  1  0  0  0  0  0  0
  190.2030  174.1900  146.4830 O   0  0  0  0  0  0  0  0  0  0  0  0
  191.9230  171.2250  143.7540 C   0  0  0  0  0  2  0  0  0  0  0  0
  193.3690  171.4890  144.1530 C   0  0  0  0  0  2  0  0  0  0  0  0
  193.6010  169.0080  143.7940 C   0  0  0  0  0  1  0  0  0  0  0  0
  194.2770  170.3700  143.6630 C   0  0  2  0  0  3  0  0  0  0  0  0
  195.6920  170.4330  144.2930 C   0  0  2  0  0  3  0  0  0  0  0  0
  195.7030  170.9360  145.7410 C   0  0  0  0  0  3  0  0  0  0  0  0
  196.7860  171.9720  145.9910 C   0  0  0  0  0  1  0  0  0  0  0  0
  195.8790  169.7780  146.6990 C   0  0  0  0  0  1  0  0  0  0  0  0
  196.5280  172.3150  142.9630 C   0  0  0  0  0  1  0  0  0  0  0  0
  196.8020  170.9830  143.4840 N   0  0  0  0  0  0  0  0  0  0  0  0
  197.0360  170.1010  142.3540 C   0  0  0  0  0  1  0  0  0  0  0  0
  191.0400  175.9260  143.2240 C   0  0  1  0  0  3  0  0  0  0  0  0
  191.9660  178.0270  143.8150 O   0  0  0  0  0  0  0  0  0  0  0  0
  190.9970  177.4170  143.3890 C   0  0  0  0  0  0  0  0  0  0  0  0
  189.7660  178.1680  143.0120 C   0  0  0  0  0  1  0  0  0  0  0  0
  192.4890  175.4350  143.1320 C   0  0  0  0  0  2  0  0  0  0  0  0
  193.0130  175.4170  141.7050 C   0  0  0  0  0  2  0  0  0  0  0  0
  193.8260  174.1610  141.4980 C   0  0  0  0  0  2  0  0  0  0  0  0
  193.7370  173.7500  140.1430 O   0  0  0  0  0  0  0  0  0  0  0  0
  193.9400  171.5130  140.5940 O   0  0  0  0  0  0  0  0  0  0  0  0
  194.0320  172.4430  139.7500 C   0  0  0  0  0  0  0  0  0  0  0  0
  193.8440  173.1470  137.3610 C   0  0  0  0  0  0  0  0  0  0  0  0
  191.5330  172.1600  137.2730 C   0  0  0  0  0  3  0  0  0  0  0  0
  192.5670  173.1670  136.9700 C   0  0  0  0  0  3  0  0  0  0  0  0
  192.9990  170.1720  137.6450 C   0  0  0  0  0  3  0  0  0  0  0  0
  194.1820  170.7150  137.9260 C   0  0  0  0  0  3  0  0  0  0  0  0
  194.3950  172.1420  138.3220 C   0  0  2  0  0  3  0  0  0  0  0  0
  191.7020  170.8720  137.5980 C   0  0  0  0  0  0  0  0  0  0  0  0
  189.4650  170.8790  138.3450 O   0  0  0  0  0  1  0  0  0  0  0  0
  190.4780  170.0570  137.8430 C   0  0  0  0  0  2  0  0  0  0  0  0
  194.7180  174.3010  137.0000 C   0  0  0  0  0  2  0  0  0  0  0  0
  194.2440  174.9530  135.7120 C   0  0  0  0  0  2  0  0  0  0  0  0
  192.6630  176.8710  135.5190 C   0  0  0  0  0  2  0  0  0  0  0  0
  194.0560  176.4500  135.9190 C   0  0  2  0  0  3  0  0  0  0  0  0
  194.3630  178.3810  134.8380 C   0  0  0  0  0  2  0  0  0  0  0  0
  192.8630  178.1970  134.8550 C   0  0  0  0  0  2  0  0  0  0  0  0
  194.9770  177.1530  135.1300 O   0  0  0  0  0  0  0  0  0  0  0  0
  1  3  1  0  0  0  0
  1  4  1  0  0  0  0
  2 34  1  6  0  0  0
  2  5  1  0  0  0  0
  3  7  1  6  0  0  0
  3  2  1  0  0  0  0
  4 23  1  6  0  0  0
  4  6  1  0  0  0  0
  5 22  1  1  0  0  0
  6  5  1  0  0  0  0
  7  9  1  0  0  0  0
  8  7  2  0  0  0  0
 10  9  1  0  0  0  0
 11 13  1  0  0  0  0
 12 14  2  0  0  0  0
 13 10  1  0  0  0  0
 13 12  2  0  0  0  0
 14 15  1  0  0  0  0
 15 18  1  0  0  0  0
 15 16  1  1  0  0  0
 15 19  1  0  0  0  0
 18 17  1  0  0  0  0
 19 20  1  0  0  0  0
 22 21  1  0  0  0  0
 23 24  1  0  0  0  0
 26 25  1  1  0  0  0
 26 24  1  0  0  0  0
 26 27  1  0  0  0  0
 27 28  1  1  0  0  0
 28 29  1  0  0  0  0
 28 30  1  0  0  0  0
 31 32  1  0  0  0  0
 32 27  1  0  0  0  0
 33 32  1  0  0  0  0
 34 38  1  1  0  0  0
 34 36  1  0  0  0  0
 36 35  2  0  0  0  0
 37 36  1  0  0  0  0
 39 38  1  0  0  0  0
 40 39  1  0  0  0  0
 41 40  1  0  0  0  0
 43 41  1  0  0  0  0
 43 42  2  0  0  0  0
 44 49  1  0  0  0  0
 45 50  2  0  0  0  0
 46 45  1  0  0  0  0
 46 44  2  0  0  0  0
 47 48  2  0  0  0  0
 48 49  1  0  0  0  0
 49 43  1  1  0  0  0
 50 47  1  0  0  0  0
 50 52  1  0  0  0  0
 52 51  1  0  0  0  0
 53 44  1  0  0  0  0
 54 53  1  0  0  0  0
 55 56  1  0  0  0  0
 56 54  1  6  0  0  0
 57 58  1  0  0  0  0
 57 59  1  0  0  0  0
 58 55  1  0  0  0  0
 59 56  1  0  0  0  0
M  END
>  <MODEL>
8

>  <REMARK>
 VINA RESULT:      -4.5      2.450      7.701
  Name = 
  26 active torsions:
  status: ('A' for Active; 'I' for Inactive)
    1  A    between atoms: C_1  and  C_50
    2  A    between atoms: C_3  and  C_5
    3  A    between atoms: C_4  and  C_18
    4  A    between atoms: C_5  and  C_6
    5  A    between atoms: C_5  and  C_29
    6  A    between atoms: C_6  and  C_57
    7  A    between atoms: O_13  and  C_38
    8  A    between atoms: O_13  and  C_54
    9  A    between atoms: N_15  and  C_42
   10  A    between atoms: C_17  and  C_28
   11  A    between atoms: C_17  and  C_47
   12  A    between atoms: C_18  and  C_53
   13  A    between atoms: C_18  and  C_59
   14  A    between atoms: C_20  and  C_21
   15  A    between atoms: C_21  and  O_30
   16  A    between atoms: C_23  and  C_33
   17  A    between atoms: C_25  and  C_28
   18  A    between atoms: O_30  and  N_56
   19  A    between atoms: C_33  and  C_50
   20  A    between atoms: C_34  and  O_58
   21  A    between atoms: C_37  and  C_42
   22  A    between atoms: C_38  and  C_39
   23  A    between atoms: C_41  and  C_46
   24  A    between atoms: C_42  and  C_47
   25  A    between atoms: C_43  and  N_56
   26  A    between atoms: C_54  and  C_57
                            x       y       z     vdW  Elec       q    Type
                         _______ _______ _______ _____ _____    ______ ____

>  <TORSDO>
F 26

$$$$
=
 OpenBabel11042415423D

 59 61  0  0  1  0  0  0  0  0999 V2000
  192.9940  176.3890  143.2940 C   0  0  0  0  0  2  0  0  0  0  0  0
  194.1390  175.3300  145.2950 C   0  0  1  0  0  3  0  0  0  0  0  0
  194.2280  176.4060  144.1930 C   0  0  1  0  0  3  0  0  0  0  0  0
  191.7460  176.6680  144.1350 C   0  0  2  0  0  3  0  0  0  0  0  0
  192.8800  175.6060  146.1400 C   0  0  2  0  0  3  0  0  0  0  0  0
  191.6180  175.6470  145.2660 C   0  0  0  0  0  2  0  0  0  0  0  0
  195.5100  176.3940  143.4220 C   0  0  0  0  0  0  0  0  0  0  0  0
  196.5600  176.8270  143.9680 O   0  0  0  0  0  0  0  0  0  0  0  0
  195.5510  175.8500  142.1330 O   0  0  0  0  0  0  0  0  0  0  0  0
  196.7320  175.5660  141.4720 N   0  0  0  0  0  2  0  0  0  0  0  0
  197.9410  173.6580  142.6250 C   0  0  0  0  0  1  0  0  0  0  0  0
  197.5990  173.7540  140.2480 C   0  0  0  0  0  0  0  0  0  0  0  0
  197.3260  174.2660  141.4120 C   0  0  0  0  0  0  0  0  0  0  0  0
  197.8800  173.2520  139.0720 C   0  0  0  0  0  3  0  0  0  0  0  0
  197.2080  173.7090  137.8070 C   0  0  2  0  0  0  0  0  0  0  0  0
  197.3200  175.2230  137.7040 C   0  0  0  0  0  1  0  0  0  0  0  0
  194.8100  174.4920  137.4370 C   0  0  0  0  0  1  0  0  0  0  0  0
  195.7210  173.3250  137.7970 C   0  0  0  0  0  2  0  0  0  0  0  0
  197.9410  173.0770  136.6200 C   0  0  0  0  0  2  0  0  0  0  0  0
  197.2300  171.9850  136.1140 O   0  0  0  0  0  1  0  0  0  0  0  0
  192.0380  176.7520  147.8400 C   0  0  0  0  0  1  0  0  0  0  0  0
  193.0160  176.8010  146.8480 O   0  0  0  0  0  0  0  0  0  0  0  0
  190.5030  176.6050  143.2650 C   0  0  0  0  0  2  0  0  0  0  0  0
  189.3850  177.4450  143.8700 C   0  0  0  0  0  2  0  0  0  0  0  0
  188.1820  175.2550  143.5640 C   0  0  0  0  0  1  0  0  0  0  0  0
  188.2460  176.5600  144.3540 C   0  0  2  0  0  3  0  0  0  0  0  0
  186.8950  177.3170  144.4300 C   0  0  2  0  0  3  0  0  0  0  0  0
  186.0140  176.8920  145.6100 C   0  0  0  0  0  3  0  0  0  0  0  0
  184.7760  177.7610  145.7570 C   0  0  0  0  0  1  0  0  0  0  0  0
  186.8090  176.9220  146.8970 C   0  0  0  0  0  1  0  0  0  0  0  0
  186.6320  176.7360  142.0630 C   0  0  0  0  0  1  0  0  0  0  0  0
  186.1270  177.5190  143.1820 N   0  0  0  0  0  0  0  0  0  0  0  0
  186.2000  178.9230  142.8130 C   0  0  0  0  0  1  0  0  0  0  0  0
  194.1810  173.8780  144.7430 C   0  0  1  0  0  3  0  0  0  0  0  0
  196.3710  173.5310  145.5850 O   0  0  0  0  0  0  0  0  0  0  0  0
  195.2680  173.0520  145.3690 C   0  0  0  0  0  0  0  0  0  0  0  0
  194.9950  171.6370  145.7500 C   0  0  0  0  0  1  0  0  0  0  0  0
  192.8390  173.1390  144.8030 C   0  0  0  0  0  2  0  0  0  0  0  0
  192.6130  172.2340  143.6030 C   0  0  0  0  0  2  0  0  0  0  0  0
  193.3390  172.8120  142.4120 C   0  0  0  0  0  2  0  0  0  0  0  0
  192.6090  172.5400  141.2260 O   0  0  0  0  0  0  0  0  0  0  0  0
  191.0180  174.1640  140.9360 O   0  0  0  0  0  0  0  0  0  0  0  0
  191.2790  172.9390  141.0730 C   0  0  0  0  0  0  0  0  0  0  0  0
  190.5600  170.7070  140.2130 C   0  0  0  0  0  0  0  0  0  0  0  0
  190.1040  171.7430  137.9670 C   0  0  0  0  0  3  0  0  0  0  0  0
  190.5790  170.6840  138.8770 C   0  0  0  0  0  3  0  0  0  0  0  0
  188.4400  172.8510  139.4650 C   0  0  0  0  0  3  0  0  0  0  0  0
  188.8350  172.4820  140.6820 C   0  0  0  0  0  3  0  0  0  0  0  0
  190.1800  171.9150  141.0090 C   0  0  2  0  0  3  0  0  0  0  0  0
  189.2070  172.7050  138.2130 C   0  0  0  0  0  0  0  0  0  0  0  0
  190.0460  174.3400  136.7360 O   0  0  0  0  0  1  0  0  0  0  0  0
  188.8880  173.6500  137.1060 C   0  0  0  0  0  2  0  0  0  0  0  0
  191.1500  169.5560  140.9540 C   0  0  0  0  0  2  0  0  0  0  0  0
  192.4490  169.1050  140.3040 C   0  0  0  0  0  2  0  0  0  0  0  0
  193.0570  168.9080  142.7140 C   0  0  0  0  0  2  0  0  0  0  0  0
  193.3240  168.3880  141.3220 C   0  0  2  0  0  3  0  0  0  0  0  0
  195.3540  168.5360  142.2440 C   0  0  0  0  0  2  0  0  0  0  0  0
  194.4100  168.9420  143.3530 C   0  0  0  0  0  2  0  0  0  0  0  0
  194.6750  168.6060  141.0170 O   0  0  0  0  0  0  0  0  0  0  0  0
  1  4  1  0  0  0  0
  1  3  1  0  0  0  0
  2 34  1  6  0  0  0
  2  5  1  0  0  0  0
  3  7  1  6  0  0  0
  3  2  1  0  0  0  0
  4 23  1  6  0  0  0
  4  6  1  0  0  0  0
  5 22  1  6  0  0  0
  6  5  1  0  0  0  0
  7  8  2  0  0  0  0
  9  7  1  0  0  0  0
 10  9  1  0  0  0  0
 12 13  2  0  0  0  0
 13 10  1  0  0  0  0
 13 11  1  0  0  0  0
 14 12  2  0  0  0  0
 15 16  1  6  0  0  0
 15 14  1  0  0  0  0
 17 18  1  0  0  0  0
 18 15  1  0  0  0  0
 19 15  1  0  0  0  0
 20 19  1  0  0  0  0
 22 21  1  0  0  0  0
 23 24  1  0  0  0  0
 24 26  1  0  0  0  0
 26 25  1  6  0  0  0
 26 27  1  0  0  0  0
 27 28  1  1  0  0  0
 28 29  1  0  0  0  0
 28 30  1  0  0  0  0
 31 32  1  0  0  0  0
 32 27  1  0  0  0  0
 33 32  1  0  0  0  0
 34 38  1  1  0  0  0
 34 36  1  0  0  0  0
 36 35  2  0  0  0  0
 36 37  1  0  0  0  0
 39 38  1  0  0  0  0
 40 39  1  0  0  0  0
 41 40  1  0  0  0  0
 42 43  2  0  0  0  0
 43 41  1  0  0  0  0
 44 53  1  0  0  0  0
 44 49  1  0  0  0  0
 45 50  2  0  0  0  0
 45 46  1  0  0  0  0
 46 44  2  0  0  0  0
 47 48  2  0  0  0  0
 48 49  1  0  0  0  0
 49 43  1  6  0  0  0
 50 47  1  0  0  0  0
 51 52  1  0  0  0  0
 52 50  1  0  0  0  0
 54 53  1  0  0  0  0
 55 58  1  0  0  0  0
 56 54  1  6  0  0  0
 56 55  1  0  0  0  0
 57 58  1  0  0  0  0
 59 56  1  0  0  0  0
 59 57  1  0  0  0  0
M  END
>  <MODEL>
9

>  <REMARK>
 VINA RESULT:      -4.4      2.497      9.637
  Name = 
  26 active torsions:
  status: ('A' for Active; 'I' for Inactive)
    1  A    between atoms: C_1  and  C_50
    2  A    between atoms: C_3  and  C_5
    3  A    between atoms: C_4  and  C_18
    4  A    between atoms: C_5  and  C_6
    5  A    between atoms: C_5  and  C_29
    6  A    between atoms: C_6  and  C_57
    7  A    between atoms: O_13  and  C_38
    8  A    between atoms: O_13  and  C_54
    9  A    between atoms: N_15  and  C_42
   10  A    between atoms: C_17  and  C_28
   11  A    between atoms: C_17  and  C_47
   12  A    between atoms: C_18  and  C_53
   13  A    between atoms: C_18  and  C_59
   14  A    between atoms: C_20  and  C_21
   15  A    between atoms: C_21  and  O_30
   16  A    between atoms: C_23  and  C_33
   17  A    between atoms: C_25  and  C_28
   18  A    between atoms: O_30  and  N_56
   19  A    between atoms: C_33  and  C_50
   20  A    between atoms: C_34  and  O_58
   21  A    between atoms: C_37  and  C_42
   22  A    between atoms: C_38  and  C_39
   23  A    between atoms: C_41  and  C_46
   24  A    between atoms: C_42  and  C_47
   25  A    between atoms: C_43  and  N_56
   26  A    between atoms: C_54  and  C_57
                            x       y       z     vdW  Elec       q    Type
                         _______ _______ _______ _____ _____    ______ ____

>  <TORSDO>
F 26

$$$$
