=
 OpenBabel11042414513D

 32 34  0  0  1  0  0  0  0  0999 V2000
  187.8540  177.5000  146.7880 C   0  0  0  0  0  0  0  0  0  0  0  0
  190.0970  176.7090  146.3030 C   0  0  0  0  0  0  0  0  0  0  0  0
  189.2120  177.4490  147.0960 C   0  0  0  0  0  3  0  0  0  0  0  0
  185.2650  178.1160  145.8690 C   0  0  0  0  0  0  0  0  0  0  0  0
  187.3620  176.8170  145.6680 C   0  0  0  0  0  0  0  0  0  0  0  0
  185.7480  178.7290  146.9150 N   0  0  0  0  0  0  0  0  0  0  0  0
  188.2360  176.0870  144.8630 C   0  0  0  0  0  3  0  0  0  0  0  0
  192.0290  174.5120  145.8820 C   0  0  0  0  0  2  0  0  0  0  0  0
  191.5460  174.6850  144.4860 C   0  0  0  0  0  0  0  0  0  0  0  0
  192.4310  175.8330  146.4570 C   0  0  0  0  0  0  0  0  0  0  0  0
  189.6000  176.0130  145.1660 C   0  0  0  0  0  0  0  0  0  0  0  0
  185.8970  176.8500  145.3530 C   0  0  0  0  0  2  0  0  0  0  0  0
  191.5250  176.7860  146.6700 C   0  0  0  0  0  3  0  0  0  0  0  0
  190.4420  175.3240  144.2250 N   0  0  0  0  0  0  0  0  0  0  0  0
  192.2840  174.0680  143.4300 N   0  0  0  0  0  2  0  0  0  0  0  0
  186.8960  178.2330  147.6770 C   0  0  0  0  0  2  0  0  0  0  0  0
  193.7560  176.0830  146.8150 O   0  0  0  0  0  0  0  0  0  0  0  0
  194.8550  175.5670  146.0770 C   0  0  0  0  0  1  0  0  0  0  0  0
  184.2270  179.5040  144.3110 O   0  0  0  0  0  1  0  0  0  0  0  0
  184.1180  178.6360  145.2000 N   0  0  0  0  0  2  0  0  0  0  0  0
  191.8770  174.1580  142.0370 C   0  0  0  0  0  2  0  0  0  0  0  0
  191.1480  172.9560  141.6680 N   0  0  0  0  0  2  0  0  0  0  0  0
  189.5130  172.5980  139.5720 S   0  0  0  0  0  0  0  0  0  0  0  0
  189.8190  172.9720  141.1390 C   0  0  0  0  0  0  0  0  0  0  0  0
  188.7040  173.4440  142.0020 C   0  0  0  0  0  2  0  0  0  0  0  0
  187.7970  174.3670  141.2100 C   0  0  0  0  0  2  0  0  0  0  0  0
  188.3310  175.7900  141.2250 C   0  0  0  0  0  2  0  0  0  0  0  0
  186.5560  177.1800  139.6800 S   0  0  0  0  0  1  0  0  0  0  0  0
  187.1980  176.8010  141.3350 C   0  0  2  0  0  3  0  0  0  0  0  0
  187.6600  178.0560  141.9960 C   0  0  0  0  0  0  0  0  0  0  0  0
  186.8180  178.8620  142.4640 O   0  0  0  0  0  1  0  0  0  0  0  0
  189.0180  178.3340  142.1060 O   0  0  0  0  0  0  0  0  0  0  0  0
  1  3  1  0  0  0  0
  1 16  1  0  0  0  0
  2 13  1  0  0  0  0
  2  3  2  0  0  0  0
  4  6  2  0  0  0  0
  5  1  2  0  0  0  0
  6 16  1  0  0  0  0
  7 11  2  0  0  0  0
  7  5  1  0  0  0  0
  8 10  1  0  0  0  0
  9  8  1  0  0  0  0
 10 13  2  0  0  0  0
 10 17  1  0  0  0  0
 11  2  1  0  0  0  0
 12  5  1  0  0  0  0
 12  4  1  0  0  0  0
 14  9  2  0  0  0  0
 14 11  1  0  0  0  0
 15  9  1  0  0  0  0
 18 17  1  0  0  0  0
 19 20  1  0  0  0  0
 20  4  1  0  0  0  0
 21 15  1  0  0  0  0
 22 21  1  0  0  0  0
 23 24  2  0  0  0  0
 24 22  1  0  0  0  0
 24 25  1  0  0  0  0
 26 27  1  0  0  0  0
 26 25  1  0  0  0  0
 27 29  1  0  0  0  0
 29 28  1  6  0  0  0
 29 30  1  0  0  0  0
 30 32  2  0  0  0  0
 30 31  1  0  0  0  0
M  END
>  <MODEL>
1

>  <REMARK>
 VINA RESULT:      -6.3      0.000      0.000
  Name = 
  10 active torsions:
  status: ('A' for Active; 'I' for Inactive)
    1  A    between atoms: C_2  and  C_24
    2  A    between atoms: C_2  and  C_30
    3  A    between atoms: C_5  and  N_23
    4  A    between atoms: O_8  and  C_16
    5  A    between atoms: C_15  and  C_27
    6  A    between atoms: C_22  and  C_24
    7  A    between atoms: C_22  and  C_27
    8  A    between atoms: N_26  and  C_30
    9  A    between atoms: N_26  and  C_31
   10  A    between atoms: N_29  and  C_31
                            x       y       z     vdW  Elec       q    Type
                         _______ _______ _______ _____ _____    ______ ____

>  <TORSDO>
F 10

$$$$
=
 OpenBabel11042414513D

 32 34  0  0  1  0  0  0  0  0999 V2000
  186.4250  177.0690  142.9230 C   0  0  0  0  0  0  0  0  0  0  0  0
  188.2290  175.5380  142.3820 C   0  0  0  0  0  0  0  0  0  0  0  0
  187.0450  176.1950  142.0310 C   0  0  0  0  0  3  0  0  0  0  0  0
  184.8470  178.3380  144.8790 C   0  0  0  0  0  0  0  0  0  0  0  0
  186.9790  177.2870  144.1910 C   0  0  0  0  0  0  0  0  0  0  0  0
  184.3610  178.1270  143.6860 N   0  0  0  0  0  0  0  0  0  0  0  0
  188.1530  176.6280  144.5570 C   0  0  0  0  0  3  0  0  0  0  0  0
  191.1050  174.9530  142.0300 C   0  0  0  0  0  2  0  0  0  0  0  0
  190.9640  174.6300  143.4760 C   0  0  0  0  0  0  0  0  0  0  0  0
  190.0430  174.2560  141.2400 C   0  0  0  0  0  0  0  0  0  0  0  0
  188.7960  175.7590  143.6690 C   0  0  0  0  0  0  0  0  0  0  0  0
  186.3270  178.2470  145.1390 C   0  0  0  0  0  2  0  0  0  0  0  0
  188.7600  174.5750  141.3970 C   0  0  0  0  0  3  0  0  0  0  0  0
  189.9410  175.0460  144.1660 N   0  0  0  0  0  0  0  0  0  0  0  0
  192.0180  173.9110  144.1180 N   0  0  0  0  0  2  0  0  0  0  0  0
  185.1960  177.8260  142.5210 C   0  0  0  0  0  2  0  0  0  0  0  0
  190.3770  173.2840  140.2970 O   0  0  0  0  0  0  0  0  0  0  0  0
  189.8970  171.9490  140.3750 C   0  0  0  0  0  1  0  0  0  0  0  0
  184.2700  178.3780  147.1370 O   0  0  0  0  0  1  0  0  0  0  0  0
  183.9760  178.6670  145.9600 N   0  0  0  0  0  2  0  0  0  0  0  0
  191.9830  173.5720  145.5320 C   0  0  0  0  0  2  0  0  0  0  0  0
  193.0140  174.3190  146.2330 N   0  0  0  0  0  2  0  0  0  0  0  0
  191.3860  176.1170  147.3760 S   0  0  0  0  0  0  0  0  0  0  0  0
  192.8210  175.6420  146.7410 C   0  0  0  0  0  0  0  0  0  0  0  0
  193.9130  176.6400  146.5900 C   0  0  0  0  0  2  0  0  0  0  0  0
  194.9140  176.1540  145.5590 C   0  0  0  0  0  2  0  0  0  0  0  0
  194.4770  176.5470  144.1570 C   0  0  0  0  0  2  0  0  0  0  0  0
  195.8770  174.2170  143.8730 S   0  0  0  0  0  1  0  0  0  0  0  0
  195.1940  175.7130  143.1040 C   0  0  2  0  0  3  0  0  0  0  0  0
  196.2880  176.4930  142.4560 C   0  0  0  0  0  0  0  0  0  0  0  0
  196.0900  177.0410  141.3430 O   0  0  0  0  0  0  0  0  0  0  0  0
  197.5240  176.6240  143.0810 O   0  0  0  0  0  1  0  0  0  0  0  0
  1  5  1  0  0  0  0
  2 11  2  0  0  0  0
  3  2  1  0  0  0  0
  3  1  2  0  0  0  0
  4 12  1  0  0  0  0
  4 20  1  0  0  0  0
  5  7  2  0  0  0  0
  5 12  1  0  0  0  0
  6  4  2  0  0  0  0
  8  9  1  0  0  0  0
  9 15  1  0  0  0  0
  9 14  2  0  0  0  0
 10 13  2  0  0  0  0
 10  8  1  0  0  0  0
 11 14  1  0  0  0  0
 11  7  1  0  0  0  0
 13  2  1  0  0  0  0
 15 21  1  0  0  0  0
 16  1  1  0  0  0  0
 16  6  1  0  0  0  0
 17 18  1  0  0  0  0
 17 10  1  0  0  0  0
 20 19  1  0  0  0  0
 21 22  1  0  0  0  0
 22 24  1  0  0  0  0
 24 23  2  0  0  0  0
 25 24  1  0  0  0  0
 26 25  1  0  0  0  0
 27 26  1  0  0  0  0
 29 28  1  1  0  0  0
 29 27  1  0  0  0  0
 30 32  1  0  0  0  0
 30 29  1  0  0  0  0
 31 30  2  0  0  0  0
M  END
>  <MODEL>
2

>  <REMARK>
 VINA RESULT:      -6.1      3.143      5.924
  Name = 
  10 active torsions:
  status: ('A' for Active; 'I' for Inactive)
    1  A    between atoms: C_2  and  C_24
    2  A    between atoms: C_2  and  C_30
    3  A    between atoms: C_5  and  N_23
    4  A    between atoms: O_8  and  C_16
    5  A    between atoms: C_15  and  C_27
    6  A    between atoms: C_22  and  C_24
    7  A    between atoms: C_22  and  C_27
    8  A    between atoms: N_26  and  C_30
    9  A    between atoms: N_26  and  C_31
   10  A    between atoms: N_29  and  C_31
                            x       y       z     vdW  Elec       q    Type
                         _______ _______ _______ _____ _____    ______ ____

>  <TORSDO>
F 10

$$$$
=
 OpenBabel11042414513D

 32 34  0  0  1  0  0  0  0  0999 V2000
  186.7730  177.3510  145.3750 C   0  0  0  0  0  0  0  0  0  0  0  0
  189.0020  177.1350  146.3100 C   0  0  0  0  0  0  0  0  0  0  0  0
  187.6620  177.5170  146.4350 C   0  0  0  0  0  3  0  0  0  0  0  0
  185.1260  177.5950  143.1040 C   0  0  0  0  0  0  0  0  0  0  0  0
  187.2200  176.8080  144.1630 C   0  0  0  0  0  0  0  0  0  0  0  0
  184.7350  178.0830  144.2490 N   0  0  0  0  0  0  0  0  0  0  0  0
  188.5560  176.4340  144.0230 C   0  0  0  0  0  3  0  0  0  0  0  0
  191.3410  175.4920  147.0670 C   0  0  0  0  0  2  0  0  0  0  0  0
  191.7170  175.8250  145.6660 C   0  0  0  0  0  0  0  0  0  0  0  0
  190.9610  176.7340  147.8080 C   0  0  0  0  0  0  0  0  0  0  0  0
  189.4590  176.5800  145.0820 C   0  0  0  0  0  0  0  0  0  0  0  0
  186.2580  176.6040  143.0330 C   0  0  0  0  0  2  0  0  0  0  0  0
  189.8760  177.4270  147.4640 C   0  0  0  0  0  3  0  0  0  0  0  0
  190.8370  176.2660  144.8150 N   0  0  0  0  0  0  0  0  0  0  0  0
  193.0610  175.5810  145.2470 N   0  0  0  0  0  2  0  0  0  0  0  0
  185.3230  177.6940  145.5320 C   0  0  0  0  0  2  0  0  0  0  0  0
  191.7120  177.1730  148.8980 O   0  0  0  0  0  0  0  0  0  0  0  0
  191.3360  178.2980  149.6810 C   0  0  0  0  0  1  0  0  0  0  0  0
  183.2570  178.2430  141.8710 O   0  0  0  0  0  1  0  0  0  0  0  0
  184.4790  177.9900  141.8960 N   0  0  0  0  0  2  0  0  0  0  0  0
  193.5170  175.8490  143.8930 C   0  0  0  0  0  2  0  0  0  0  0  0
  194.6580  175.0010  143.5900 N   0  0  0  0  0  2  0  0  0  0  0  0
  197.0850  176.0730  143.2040 S   0  0  0  0  0  0  0  0  0  0  0  0
  195.9770  175.2490  144.0860 C   0  0  0  0  0  0  0  0  0  0  0  0
  196.3840  174.6490  145.3850 C   0  0  0  0  0  2  0  0  0  0  0  0
  197.4550  173.6000  145.1530 C   0  0  0  0  0  2  0  0  0  0  0  0
  196.8440  172.3210  144.6020 C   0  0  0  0  0  2  0  0  0  0  0  0
  197.3720  169.7920  145.4940 S   0  0  0  0  0  1  0  0  0  0  0  0
  196.4820  171.3580  145.7230 C   0  0  2  0  0  3  0  0  0  0  0  0
  195.0130  171.1020  145.7580 C   0  0  0  0  0  0  0  0  0  0  0  0
  194.2100  172.0690  145.7250 O   0  0  0  0  0  0  0  0  0  0  0  0
  194.5260  169.8010  145.8170 O   0  0  0  0  0  1  0  0  0  0  0  0
  1 16  1  0  0  0  0
  1  3  1  0  0  0  0
  2  3  2  0  0  0  0
  2 13  1  0  0  0  0
  4  6  2  0  0  0  0
  5  1  2  0  0  0  0
  6 16  1  0  0  0  0
  7  5  1  0  0  0  0
  7 11  2  0  0  0  0
  8 10  1  0  0  0  0
  9  8  1  0  0  0  0
 10 17  1  0  0  0  0
 11  2  1  0  0  0  0
 12  4  1  0  0  0  0
 12  5  1  0  0  0  0
 13 10  2  0  0  0  0
 14 11  1  0  0  0  0
 14  9  2  0  0  0  0
 15  9  1  0  0  0  0
 17 18  1  0  0  0  0
 19 20  1  0  0  0  0
 20  4  1  0  0  0  0
 21 15  1  0  0  0  0
 22 21  1  0  0  0  0
 22 24  1  0  0  0  0
 23 24  2  0  0  0  0
 24 25  1  0  0  0  0
 26 25  1  0  0  0  0
 27 26  1  0  0  0  0
 27 29  1  0  0  0  0
 29 28  1  6  0  0  0
 29 30  1  0  0  0  0
 30 32  1  0  0  0  0
 31 30  2  0  0  0  0
M  END
>  <MODEL>
3

>  <REMARK>
 VINA RESULT:      -6.0      3.563      6.252
  Name = 
  10 active torsions:
  status: ('A' for Active; 'I' for Inactive)
    1  A    between atoms: C_2  and  C_24
    2  A    between atoms: C_2  and  C_30
    3  A    between atoms: C_5  and  N_23
    4  A    between atoms: O_8  and  C_16
    5  A    between atoms: C_15  and  C_27
    6  A    between atoms: C_22  and  C_24
    7  A    between atoms: C_22  and  C_27
    8  A    between atoms: N_26  and  C_30
    9  A    between atoms: N_26  and  C_31
   10  A    between atoms: N_29  and  C_31
                            x       y       z     vdW  Elec       q    Type
                         _______ _______ _______ _____ _____    ______ ____

>  <TORSDO>
F 10

$$$$
=
 OpenBabel11042414513D

 32 34  0  0  1  0  0  0  0  0999 V2000
  192.2650  174.3760  144.3600 C   0  0  0  0  0  0  0  0  0  0  0  0
  190.6990  174.1040  142.5270 C   0  0  0  0  0  0  0  0  0  0  0  0
  191.7850  173.6420  143.2770 C   0  0  0  0  0  3  0  0  0  0  0  0
  193.6250  176.0880  146.1350 C   0  0  0  0  0  0  0  0  0  0  0  0
  191.6680  175.5970  144.7010 C   0  0  0  0  0  0  0  0  0  0  0  0
  194.1510  174.9410  145.8040 N   0  0  0  0  0  0  0  0  0  0  0  0
  190.5920  176.0740  143.9520 C   0  0  0  0  0  3  0  0  0  0  0  0
  187.9360  173.8750  141.4990 C   0  0  0  0  0  2  0  0  0  0  0  0
  188.1010  175.3530  141.4350 C   0  0  0  0  0  0  0  0  0  0  0  0
  189.0960  173.1990  140.8380 C   0  0  0  0  0  0  0  0  0  0  0  0
  190.0880  175.3430  142.8710 C   0  0  0  0  0  0  0  0  0  0  0  0
  192.1670  176.3720  145.8820 C   0  0  0  0  0  2  0  0  0  0  0  0
  190.3210  173.2910  141.3530 C   0  0  0  0  0  3  0  0  0  0  0  0
  189.0460  175.9580  142.0950 N   0  0  0  0  0  0  0  0  0  0  0  0
  187.1470  176.1110  140.6890 N   0  0  0  0  0  2  0  0  0  0  0  0
  193.3830  173.8470  145.2070 C   0  0  0  0  0  2  0  0  0  0  0  0
  188.9130  172.4270  139.6900 O   0  0  0  0  0  0  0  0  0  0  0  0
  189.6160  172.6810  138.4820 C   0  0  0  0  0  1  0  0  0  0  0  0
  195.0120  177.9600  146.0700 O   0  0  0  0  0  1  0  0  0  0  0  0
  194.4250  177.0950  146.7510 N   0  0  0  0  0  2  0  0  0  0  0  0
  187.2090  177.5610  140.5910 C   0  0  0  0  0  2  0  0  0  0  0  0
  185.9130  178.1230  140.9340 N   0  0  0  0  0  2  0  0  0  0  0  0
  183.9470  178.3450  142.7440 S   0  0  0  0  0  0  0  0  0  0  0  0
  185.5160  178.4250  142.2750 C   0  0  0  0  0  0  0  0  0  0  0  0
  186.5350  178.9280  143.2340 C   0  0  0  0  0  2  0  0  0  0  0  0
  186.2510  178.3800  144.6190 C   0  0  0  0  0  2  0  0  0  0  0  0
  186.8290  176.9820  144.7730 C   0  0  0  0  0  2  0  0  0  0  0  0
  185.9300  177.7620  147.2340 S   0  0  0  0  0  1  0  0  0  0  0  0
  186.8370  176.5490  146.2330 C   0  0  2  0  0  3  0  0  0  0  0  0
  188.2310  176.4140  146.7450 C   0  0  0  0  0  0  0  0  0  0  0  0
  188.7000  175.2730  146.9880 O   0  0  0  0  0  1  0  0  0  0  0  0
  189.0200  177.5420  146.9460 O   0  0  0  0  0  0  0  0  0  0  0  0
  1  5  1  0  0  0  0
  1 16  1  0  0  0  0
  2 11  2  0  0  0  0
  2  3  1  0  0  0  0
  3  1  2  0  0  0  0
  4 20  1  0  0  0  0
  5 12  1  0  0  0  0
  6  4  2  0  0  0  0
  7  5  2  0  0  0  0
  9  8  1  0  0  0  0
  9 14  2  0  0  0  0
 10 13  2  0  0  0  0
 10  8  1  0  0  0  0
 11  7  1  0  0  0  0
 12  4  1  0  0  0  0
 13  2  1  0  0  0  0
 14 11  1  0  0  0  0
 15  9  1  0  0  0  0
 16  6  1  0  0  0  0
 17 10  1  0  0  0  0
 18 17  1  0  0  0  0
 19 20  1  0  0  0  0
 21 15  1  0  0  0  0
 21 22  1  0  0  0  0
 22 24  1  0  0  0  0
 24 23  2  0  0  0  0
 24 25  1  0  0  0  0
 25 26  1  0  0  0  0
 26 27  1  0  0  0  0
 27 29  1  0  0  0  0
 29 30  1  0  0  0  0
 29 28  1  1  0  0  0
 30 32  2  0  0  0  0
 30 31  1  0  0  0  0
M  END
>  <MODEL>
4

>  <REMARK>
 VINA RESULT:      -6.0      3.092      6.769
  Name = 
  10 active torsions:
  status: ('A' for Active; 'I' for Inactive)
    1  A    between atoms: C_2  and  C_24
    2  A    between atoms: C_2  and  C_30
    3  A    between atoms: C_5  and  N_23
    4  A    between atoms: O_8  and  C_16
    5  A    between atoms: C_15  and  C_27
    6  A    between atoms: C_22  and  C_24
    7  A    between atoms: C_22  and  C_27
    8  A    between atoms: N_26  and  C_30
    9  A    between atoms: N_26  and  C_31
   10  A    between atoms: N_29  and  C_31
                            x       y       z     vdW  Elec       q    Type
                         _______ _______ _______ _____ _____    ______ ____

>  <TORSDO>
F 10

$$$$
=
 OpenBabel11042414513D

 32 34  0  0  1  0  0  0  0  0999 V2000
  186.7700  177.2450  145.1380 C   0  0  0  0  0  0  0  0  0  0  0  0
  189.0000  177.0760  146.0790 C   0  0  0  0  0  0  0  0  0  0  0  0
  187.6410  177.3750  146.2180 C   0  0  0  0  0  3  0  0  0  0  0  0
  185.1280  177.5770  142.8750 C   0  0  0  0  0  0  0  0  0  0  0  0
  187.2530  176.8220  143.8940 C   0  0  0  0  0  0  0  0  0  0  0  0
  184.7020  177.9530  144.0500 N   0  0  0  0  0  0  0  0  0  0  0  0
  188.6090  176.5330  143.7400 C   0  0  0  0  0  3  0  0  0  0  0  0
  191.4190  175.5070  146.7320 C   0  0  0  0  0  2  0  0  0  0  0  0
  191.7870  175.9680  145.3670 C   0  0  0  0  0  0  0  0  0  0  0  0
  190.9670  176.6660  147.5640 C   0  0  0  0  0  0  0  0  0  0  0  0
  189.4950  176.6440  144.8170 C   0  0  0  0  0  0  0  0  0  0  0  0
  186.3120  176.6560  142.7400 C   0  0  0  0  0  2  0  0  0  0  0  0
  189.8490  177.3240  147.2620 C   0  0  0  0  0  3  0  0  0  0  0  0
  190.8900  176.4260  144.5420 N   0  0  0  0  0  0  0  0  0  0  0  0
  193.1440  175.8290  144.9450 N   0  0  0  0  0  2  0  0  0  0  0  0
  185.3020  177.4970  145.3060 C   0  0  0  0  0  2  0  0  0  0  0  0
  191.6870  177.0580  148.6930 O   0  0  0  0  0  0  0  0  0  0  0  0
  191.3110  178.1750  149.4860 C   0  0  0  0  0  1  0  0  0  0  0  0
  185.0620  178.0710  140.5990 O   0  0  0  0  0  1  0  0  0  0  0  0
  184.4680  178.0290  141.6950 N   0  0  0  0  0  2  0  0  0  0  0  0
  193.5950  176.2260  143.6200 C   0  0  0  0  0  2  0  0  0  0  0  0
  194.5360  175.2410  143.1150 N   0  0  0  0  0  2  0  0  0  0  0  0
  195.0330  172.7600  144.0060 S   0  0  0  0  0  0  0  0  0  0  0  0
  194.2530  173.8400  143.0500 C   0  0  0  0  0  0  0  0  0  0  0  0
  193.3080  173.3420  142.0150 C   0  0  0  0  0  2  0  0  0  0  0  0
  191.9670  173.0290  142.6520 C   0  0  0  0  0  2  0  0  0  0  0  0
  190.8640  173.8620  142.0210 C   0  0  0  0  0  2  0  0  0  0  0  0
  190.3140  172.4170  139.7670 S   0  0  0  0  0  1  0  0  0  0  0  0
  189.7860  172.9760  141.4120 C   0  0  2  0  0  3  0  0  0  0  0  0
  188.4890  173.7050  141.3050 C   0  0  0  0  0  0  0  0  0  0  0  0
  187.5040  173.3310  141.9900 O   0  0  0  0  0  1  0  0  0  0  0  0
  188.3650  174.8020  140.4590 O   0  0  0  0  0  0  0  0  0  0  0  0
  1 16  1  0  0  0  0
  1  3  1  0  0  0  0
  2  3  2  0  0  0  0
  2 13  1  0  0  0  0
  4  6  2  0  0  0  0
  5  1  2  0  0  0  0
  6 16  1  0  0  0  0
  7  5  1  0  0  0  0
  7 11  2  0  0  0  0
  8 10  1  0  0  0  0
  9  8  1  0  0  0  0
 10 17  1  0  0  0  0
 11  2  1  0  0  0  0
 12  4  1  0  0  0  0
 12  5  1  0  0  0  0
 13 10  2  0  0  0  0
 14 11  1  0  0  0  0
 14  9  2  0  0  0  0
 15  9  1  0  0  0  0
 17 18  1  0  0  0  0
 19 20  1  0  0  0  0
 20  4  1  0  0  0  0
 21 15  1  0  0  0  0
 22 21  1  0  0  0  0
 24 22  1  0  0  0  0
 24 23  2  0  0  0  0
 25 26  1  0  0  0  0
 25 24  1  0  0  0  0
 27 26  1  0  0  0  0
 29 28  1  6  0  0  0
 29 27  1  0  0  0  0
 30 29  1  0  0  0  0
 30 31  1  0  0  0  0
 32 30  2  0  0  0  0
M  END
>  <MODEL>
5

>  <REMARK>
 VINA RESULT:      -6.0      2.444      3.617
  Name = 
  10 active torsions:
  status: ('A' for Active; 'I' for Inactive)
    1  A    between atoms: C_2  and  C_24
    2  A    between atoms: C_2  and  C_30
    3  A    between atoms: C_5  and  N_23
    4  A    between atoms: O_8  and  C_16
    5  A    between atoms: C_15  and  C_27
    6  A    between atoms: C_22  and  C_24
    7  A    between atoms: C_22  and  C_27
    8  A    between atoms: N_26  and  C_30
    9  A    between atoms: N_26  and  C_31
   10  A    between atoms: N_29  and  C_31
                            x       y       z     vdW  Elec       q    Type
                         _______ _______ _______ _____ _____    ______ ____

>  <TORSDO>
F 10

$$$$
=
 OpenBabel11042414513D

 32 34  0  0  1  0  0  0  0  0999 V2000
  192.9200  172.7430  143.6360 C   0  0  0  0  0  0  0  0  0  0  0  0
  191.0470  173.3330  142.2090 C   0  0  0  0  0  0  0  0  0  0  0  0
  192.0810  172.4580  142.5600 C   0  0  0  0  0  3  0  0  0  0  0  0
  194.9740  173.5640  145.3780 C   0  0  0  0  0  0  0  0  0  0  0  0
  192.7420  173.9220  144.3710 C   0  0  0  0  0  0  0  0  0  0  0  0
  195.1070  172.4670  144.6850 N   0  0  0  0  0  0  0  0  0  0  0  0
  191.7220  174.8080  144.0230 C   0  0  0  0  0  3  0  0  0  0  0  0
  188.1920  173.9990  141.8350 C   0  0  0  0  0  2  0  0  0  0  0  0
  188.7350  175.3650  142.0660 C   0  0  0  0  0  0  0  0  0  0  0  0
  188.9940  173.2960  140.7860 C   0  0  0  0  0  0  0  0  0  0  0  0
  190.8620  174.5300  142.9560 C   0  0  0  0  0  0  0  0  0  0  0  0
  193.6260  174.2150  145.5450 C   0  0  0  0  0  2  0  0  0  0  0  0
  190.2680  172.9760  141.0060 C   0  0  0  0  0  3  0  0  0  0  0  0
  189.9070  175.5460  142.6040 N   0  0  0  0  0  0  0  0  0  0  0  0
  187.9080  176.4870  141.7550 N   0  0  0  0  0  2  0  0  0  0  0  0
  193.9810  171.7720  144.0550 C   0  0  0  0  0  2  0  0  0  0  0  0
  188.4160  172.9300  139.5710 O   0  0  0  0  0  0  0  0  0  0  0  0
  188.2050  173.8580  138.5160 C   0  0  0  0  0  1  0  0  0  0  0  0
  197.0490  173.4680  146.4360 O   0  0  0  0  0  1  0  0  0  0  0  0
  196.1100  174.1630  145.9970 N   0  0  0  0  0  2  0  0  0  0  0  0
  188.3390  177.8590  141.9710 C   0  0  0  0  0  2  0  0  0  0  0  0
  187.1980  178.6670  142.3670 N   0  0  0  0  0  2  0  0  0  0  0  0
  184.6870  177.9270  142.9480 S   0  0  0  0  0  0  0  0  0  0  0  0
  186.2430  178.2550  143.3480 C   0  0  0  0  0  0  0  0  0  0  0  0
  186.6430  178.2290  144.7800 C   0  0  0  0  0  2  0  0  0  0  0  0
  186.4450  176.8340  145.3440 C   0  0  0  0  0  2  0  0  0  0  0  0
  187.3880  176.5860  146.5100 C   0  0  0  0  0  2  0  0  0  0  0  0
  189.2840  174.6850  147.0230 S   0  0  0  0  0  1  0  0  0  0  0  0
  188.7480  176.1030  146.0240 C   0  0  2  0  0  3  0  0  0  0  0  0
  189.7640  177.1920  146.1060 C   0  0  0  0  0  0  0  0  0  0  0  0
  190.0810  177.8300  145.0710 O   0  0  0  0  0  0  0  0  0  0  0  0
  190.3570  177.5110  147.3230 O   0  0  0  0  0  1  0  0  0  0  0  0
  1 16  1  0  0  0  0
  1  5  1  0  0  0  0
  2  3  1  0  0  0  0
  2 11  2  0  0  0  0
  3  1  2  0  0  0  0
  4 12  1  0  0  0  0
  4 20  1  0  0  0  0
  5 12  1  0  0  0  0
  6  4  2  0  0  0  0
  7  5  2  0  0  0  0
  8  9  1  0  0  0  0
  9 14  2  0  0  0  0
 10 13  2  0  0  0  0
 10  8  1  0  0  0  0
 11  7  1  0  0  0  0
 13  2  1  0  0  0  0
 14 11  1  0  0  0  0
 15 21  1  0  0  0  0
 15  9  1  0  0  0  0
 16  6  1  0  0  0  0
 17 10  1  0  0  0  0
 18 17  1  0  0  0  0
 20 19  1  0  0  0  0
 21 22  1  0  0  0  0
 22 24  1  0  0  0  0
 23 24  2  0  0  0  0
 24 25  1  0  0  0  0
 25 26  1  0  0  0  0
 26 27  1  0  0  0  0
 29 30  1  0  0  0  0
 29 27  1  0  0  0  0
 29 28  1  1  0  0  0
 30 32  1  0  0  0  0
 31 30  2  0  0  0  0
M  END
>  <MODEL>
6

>  <REMARK>
 VINA RESULT:      -5.9      2.941      7.495
  Name = 
  10 active torsions:
  status: ('A' for Active; 'I' for Inactive)
    1  A    between atoms: C_2  and  C_24
    2  A    between atoms: C_2  and  C_30
    3  A    between atoms: C_5  and  N_23
    4  A    between atoms: O_8  and  C_16
    5  A    between atoms: C_15  and  C_27
    6  A    between atoms: C_22  and  C_24
    7  A    between atoms: C_22  and  C_27
    8  A    between atoms: N_26  and  C_30
    9  A    between atoms: N_26  and  C_31
   10  A    between atoms: N_29  and  C_31
                            x       y       z     vdW  Elec       q    Type
                         _______ _______ _______ _____ _____    ______ ____

>  <TORSDO>
F 10

$$$$
=
 OpenBabel11042414513D

 32 34  0  0  1  0  0  0  0  0999 V2000
  186.5380  177.4560  145.3090 C   0  0  0  0  0  0  0  0  0  0  0  0
  188.7970  177.2550  146.1740 C   0  0  0  0  0  0  0  0  0  0  0  0
  187.4460  177.5660  146.3610 C   0  0  0  0  0  3  0  0  0  0  0  0
  184.8270  177.8290  143.1050 C   0  0  0  0  0  0  0  0  0  0  0  0
  186.9770  177.0420  144.0440 C   0  0  0  0  0  0  0  0  0  0  0  0
  184.4440  178.1970  144.2960 N   0  0  0  0  0  0  0  0  0  0  0  0
  188.3240  176.7410  143.8430 C   0  0  0  0  0  3  0  0  0  0  0  0
  191.2190  175.6540  146.7300 C   0  0  0  0  0  2  0  0  0  0  0  0
  191.5470  176.1260  145.3580 C   0  0  0  0  0  0  0  0  0  0  0  0
  190.8070  176.8080  147.5880 C   0  0  0  0  0  0  0  0  0  0  0  0
  189.2460  176.8310  144.8910 C   0  0  0  0  0  0  0  0  0  0  0  0
  185.9960  176.8980  142.9210 C   0  0  0  0  0  2  0  0  0  0  0  0
  189.6870  177.4810  147.3300 C   0  0  0  0  0  3  0  0  0  0  0  0
  190.6280  176.6020  144.5680 N   0  0  0  0  0  0  0  0  0  0  0  0
  192.8880  175.9780  144.8900 N   0  0  0  0  0  2  0  0  0  0  0  0
  185.0800  177.7210  145.5270 C   0  0  0  0  0  2  0  0  0  0  0  0
  191.5670  177.1800  148.6970 O   0  0  0  0  0  0  0  0  0  0  0  0
  191.2220  178.2850  149.5210 C   0  0  0  0  0  1  0  0  0  0  0  0
  184.4990  177.9810  140.8020 O   0  0  0  0  0  1  0  0  0  0  0  0
  184.1330  178.3010  141.9510 N   0  0  0  0  0  2  0  0  0  0  0  0
  193.2990  176.3840  143.5560 C   0  0  0  0  0  2  0  0  0  0  0  0
  194.5950  175.8020  143.2510 N   0  0  0  0  0  2  0  0  0  0  0  0
  196.1180  174.2110  144.7810 S   0  0  0  0  0  0  0  0  0  0  0  0
  194.9750  174.4780  143.6370 C   0  0  0  0  0  0  0  0  0  0  0  0
  194.3970  173.3190  142.9050 C   0  0  0  0  0  2  0  0  0  0  0  0
  193.4020  172.5950  143.7920 C   0  0  0  0  0  2  0  0  0  0  0  0
  192.1750  172.1800  142.9970 C   0  0  0  0  0  2  0  0  0  0  0  0
  190.0350  172.6530  144.6290 S   0  0  0  0  0  1  0  0  0  0  0  0
  191.0300  173.1630  143.2000 C   0  0  2  0  0  3  0  0  0  0  0  0
  190.1670  173.2400  141.9860 C   0  0  0  0  0  0  0  0  0  0  0  0
  190.3840  174.1260  141.1200 O   0  0  0  0  0  0  0  0  0  0  0  0
  189.1300  172.3330  141.8010 O   0  0  0  0  0  1  0  0  0  0  0  0
  1 16  1  0  0  0  0
  1  3  1  0  0  0  0
  2  3  2  0  0  0  0
  2 13  1  0  0  0  0
  4  6  2  0  0  0  0
  5  1  2  0  0  0  0
  6 16  1  0  0  0  0
  7  5  1  0  0  0  0
  7 11  2  0  0  0  0
  8 10  1  0  0  0  0
  9  8  1  0  0  0  0
 10 17  1  0  0  0  0
 11  2  1  0  0  0  0
 12  4  1  0  0  0  0
 12  5  1  0  0  0  0
 13 10  2  0  0  0  0
 14 11  1  0  0  0  0
 14  9  2  0  0  0  0
 15  9  1  0  0  0  0
 17 18  1  0  0  0  0
 19 20  1  0  0  0  0
 20  4  1  0  0  0  0
 21 15  1  0  0  0  0
 22 21  1  0  0  0  0
 22 24  1  0  0  0  0
 24 23  2  0  0  0  0
 25 24  1  0  0  0  0
 25 26  1  0  0  0  0
 27 29  1  0  0  0  0
 27 26  1  0  0  0  0
 29 28  1  1  0  0  0
 30 29  1  0  0  0  0
 31 30  2  0  0  0  0
 32 30  1  0  0  0  0
M  END
>  <MODEL>
7

>  <REMARK>
 VINA RESULT:      -5.9      2.933      4.229
  Name = 
  10 active torsions:
  status: ('A' for Active; 'I' for Inactive)
    1  A    between atoms: C_2  and  C_24
    2  A    between atoms: C_2  and  C_30
    3  A    between atoms: C_5  and  N_23
    4  A    between atoms: O_8  and  C_16
    5  A    between atoms: C_15  and  C_27
    6  A    between atoms: C_22  and  C_24
    7  A    between atoms: C_22  and  C_27
    8  A    between atoms: N_26  and  C_30
    9  A    between atoms: N_26  and  C_31
   10  A    between atoms: N_29  and  C_31
                            x       y       z     vdW  Elec       q    Type
                         _______ _______ _______ _____ _____    ______ ____

>  <TORSDO>
F 10

$$$$
=
 OpenBabel11042414513D

 32 34  0  0  1  0  0  0  0  0999 V2000
  195.8270  175.7940  143.3000 C   0  0  0  0  0  0  0  0  0  0  0  0
  193.7080  175.5990  144.4670 C   0  0  0  0  0  0  0  0  0  0  0  0
  195.1070  175.5920  144.4760 C   0  0  0  0  0  3  0  0  0  0  0  0
  197.2830  175.5900  140.8980 C   0  0  0  0  0  0  0  0  0  0  0  0
  195.1520  175.9950  142.0890 C   0  0  0  0  0  0  0  0  0  0  0  0
  197.8850  175.4160  142.0420 N   0  0  0  0  0  0  0  0  0  0  0  0
  193.7570  175.9920  142.0660 C   0  0  0  0  0  3  0  0  0  0  0  0
  191.0880  176.7070  145.2710 C   0  0  0  0  0  2  0  0  0  0  0  0
  190.6980  176.0580  143.9900 C   0  0  0  0  0  0  0  0  0  0  0  0
  191.8470  175.7440  146.1270 C   0  0  0  0  0  0  0  0  0  0  0  0
  193.0180  175.8050  143.2400 C   0  0  0  0  0  0  0  0  0  0  0  0
  195.9260  176.2390  140.8300 C   0  0  0  0  0  2  0  0  0  0  0  0
  193.0440  175.2970  145.7510 C   0  0  0  0  0  3  0  0  0  0  0  0
  191.5900  175.7140  143.1060 N   0  0  0  0  0  0  0  0  0  0  0  0
  189.3080  175.8840  143.7120 N   0  0  0  0  0  2  0  0  0  0  0  0
  197.3240  175.8570  143.3220 C   0  0  0  0  0  2  0  0  0  0  0  0
  191.3340  175.3220  147.3540 O   0  0  0  0  0  0  0  0  0  0  0  0
  189.9560  175.0370  147.5470 C   0  0  0  0  0  1  0  0  0  0  0  0
  197.5390  175.6160  138.5820 O   0  0  0  0  0  1  0  0  0  0  0  0
  197.9080  175.1710  139.6870 N   0  0  0  0  0  2  0  0  0  0  0  0
  188.8280  175.2840  142.4770 C   0  0  0  0  0  2  0  0  0  0  0  0
  187.3830  175.4240  142.4020 N   0  0  0  0  0  2  0  0  0  0  0  0
  187.3030  177.5560  140.7770 S   0  0  0  0  0  0  0  0  0  0  0  0
  186.7290  176.6330  142.0030 C   0  0  0  0  0  0  0  0  0  0  0  0
  185.5650  177.1170  142.7920 C   0  0  0  0  0  2  0  0  0  0  0  0
  185.8930  178.4580  143.4220 C   0  0  0  0  0  2  0  0  0  0  0  0
  186.6920  178.2700  144.7010 C   0  0  0  0  0  2  0  0  0  0  0  0
  184.3640  178.4290  146.1230 S   0  0  0  0  0  1  0  0  0  0  0  0
  185.8850  177.5130  145.7470 C   0  0  2  0  0  3  0  0  0  0  0  0
  186.6770  177.3140  146.9950 C   0  0  0  0  0  0  0  0  0  0  0  0
  186.1950  176.6410  147.9400 O   0  0  0  0  0  1  0  0  0  0  0  0
  187.9500  177.8620  147.1160 O   0  0  0  0  0  0  0  0  0  0  0  0
  1 16  1  0  0  0  0
  1  3  1  0  0  0  0
  2  3  2  0  0  0  0
  2 13  1  0  0  0  0
  4  6  2  0  0  0  0
  5  1  2  0  0  0  0
  6 16  1  0  0  0  0
  7  5  1  0  0  0  0
  7 11  2  0  0  0  0
  8 10  1  0  0  0  0
  9  8  1  0  0  0  0
 10 17  1  0  0  0  0
 11  2  1  0  0  0  0
 12  4  1  0  0  0  0
 12  5  1  0  0  0  0
 13 10  2  0  0  0  0
 14 11  1  0  0  0  0
 14  9  2  0  0  0  0
 15  9  1  0  0  0  0
 17 18  1  0  0  0  0
 19 20  1  0  0  0  0
 20  4  1  0  0  0  0
 21 15  1  0  0  0  0
 22 21  1  0  0  0  0
 23 24  2  0  0  0  0
 24 22  1  0  0  0  0
 24 25  1  0  0  0  0
 25 26  1  0  0  0  0
 26 27  1  0  0  0  0
 27 29  1  0  0  0  0
 29 28  1  1  0  0  0
 29 30  1  0  0  0  0
 30 32  2  0  0  0  0
 30 31  1  0  0  0  0
M  END
>  <MODEL>
8

>  <REMARK>
 VINA RESULT:      -5.8      3.647      7.324
  Name = 
  10 active torsions:
  status: ('A' for Active; 'I' for Inactive)
    1  A    between atoms: C_2  and  C_24
    2  A    between atoms: C_2  and  C_30
    3  A    between atoms: C_5  and  N_23
    4  A    between atoms: O_8  and  C_16
    5  A    between atoms: C_15  and  C_27
    6  A    between atoms: C_22  and  C_24
    7  A    between atoms: C_22  and  C_27
    8  A    between atoms: N_26  and  C_30
    9  A    between atoms: N_26  and  C_31
   10  A    between atoms: N_29  and  C_31
                            x       y       z     vdW  Elec       q    Type
                         _______ _______ _______ _____ _____    ______ ____

>  <TORSDO>
F 10

$$$$
=
 OpenBabel11042414513D

 32 34  0  0  1  0  0  0  0  0999 V2000
  186.5310  176.6670  143.3580 C   0  0  0  0  0  0  0  0  0  0  0  0
  188.0120  174.9860  142.4240 C   0  0  0  0  0  0  0  0  0  0  0  0
  186.8460  175.7570  142.3510 C   0  0  0  0  0  3  0  0  0  0  0  0
  185.5680  178.0420  145.6190 C   0  0  0  0  0  0  0  0  0  0  0  0
  187.3780  176.8110  144.4650 C   0  0  0  0  0  0  0  0  0  0  0  0
  184.8060  177.8990  144.5700 N   0  0  0  0  0  0  0  0  0  0  0  0
  188.5370  176.0400  144.5540 C   0  0  0  0  0  3  0  0  0  0  0  0
  190.6640  174.1440  141.4250 C   0  0  0  0  0  2  0  0  0  0  0  0
  190.8260  173.8090  142.8660 C   0  0  0  0  0  0  0  0  0  0  0  0
  189.3880  173.5630  140.9010 C   0  0  0  0  0  0  0  0  0  0  0  0
  188.8760  175.1310  143.5460 C   0  0  0  0  0  0  0  0  0  0  0  0
  187.0540  177.8100  145.5330 C   0  0  0  0  0  2  0  0  0  0  0  0
  188.2100  173.9960  141.3470 C   0  0  0  0  0  3  0  0  0  0  0  0
  190.0320  174.3060  143.7700 N   0  0  0  0  0  0  0  0  0  0  0  0
  191.9260  172.9840  143.2520 N   0  0  0  0  0  2  0  0  0  0  0  0
  185.3200  177.5430  143.2450 C   0  0  0  0  0  2  0  0  0  0  0  0
  189.4050  172.5810  139.9100 O   0  0  0  0  0  0  0  0  0  0  0  0
  190.5160  171.7180  139.7110 C   0  0  0  0  0  1  0  0  0  0  0  0
  185.7220  178.6430  147.8660 O   0  0  0  0  0  1  0  0  0  0  0  0
  185.0020  178.4300  146.8690 N   0  0  0  0  0  2  0  0  0  0  0  0
  192.1830  172.6250  144.6370 C   0  0  0  0  0  2  0  0  0  0  0  0
  193.5620  172.1860  144.7740 N   0  0  0  0  0  2  0  0  0  0  0  0
  196.0580  172.5400  145.6890 S   0  0  0  0  0  0  0  0  0  0  0  0
  194.6500  173.0750  145.0430 C   0  0  0  0  0  0  0  0  0  0  0  0
  194.4570  174.5350  144.8340 C   0  0  0  0  0  2  0  0  0  0  0  0
  194.9870  175.3000  146.0320 C   0  0  0  0  0  2  0  0  0  0  0  0
  193.9700  176.3240  146.5090 C   0  0  0  0  0  2  0  0  0  0  0  0
  192.1890  177.1770  144.6200 S   0  0  0  0  0  1  0  0  0  0  0  0
  192.5840  176.0180  145.9610 C   0  0  2  0  0  3  0  0  0  0  0  0
  191.5500  176.1140  147.0320 C   0  0  0  0  0  0  0  0  0  0  0  0
  191.5500  175.2850  147.9760 O   0  0  0  0  0  1  0  0  0  0  0  0
  190.5910  177.1220  146.9960 O   0  0  0  0  0  0  0  0  0  0  0  0
  1  5  1  0  0  0  0
  2 11  2  0  0  0  0
  3  2  1  0  0  0  0
  3  1  2  0  0  0  0
  4 20  1  0  0  0  0
  5  7  2  0  0  0  0
  5 12  1  0  0  0  0
  6  4  2  0  0  0  0
  8  9  1  0  0  0  0
  9 15  1  0  0  0  0
  9 14  2  0  0  0  0
 10 13  2  0  0  0  0
 10  8  1  0  0  0  0
 11 14  1  0  0  0  0
 11  7  1  0  0  0  0
 12  4  1  0  0  0  0
 13  2  1  0  0  0  0
 15 21  1  0  0  0  0
 16  1  1  0  0  0  0
 16  6  1  0  0  0  0
 17 10  1  0  0  0  0
 18 17  1  0  0  0  0
 20 19  1  0  0  0  0
 21 22  1  0  0  0  0
 22 24  1  0  0  0  0
 24 23  2  0  0  0  0
 25 24  1  0  0  0  0
 25 26  1  0  0  0  0
 26 27  1  0  0  0  0
 29 28  1  6  0  0  0
 29 27  1  0  0  0  0
 29 30  1  0  0  0  0
 30 31  1  0  0  0  0
 32 30  2  0  0  0  0
M  END
>  <MODEL>
9

>  <REMARK>
 VINA RESULT:      -5.7      2.868      5.493
  Name = 
  10 active torsions:
  status: ('A' for Active; 'I' for Inactive)
    1  A    between atoms: C_2  and  C_24
    2  A    between atoms: C_2  and  C_30
    3  A    between atoms: C_5  and  N_23
    4  A    between atoms: O_8  and  C_16
    5  A    between atoms: C_15  and  C_27
    6  A    between atoms: C_22  and  C_24
    7  A    between atoms: C_22  and  C_27
    8  A    between atoms: N_26  and  C_30
    9  A    between atoms: N_26  and  C_31
   10  A    between atoms: N_29  and  C_31
                            x       y       z     vdW  Elec       q    Type
                         _______ _______ _______ _____ _____    ______ ____

>  <TORSDO>
F 10

$$$$
