=
 OpenBabel11042413493D

 25 29  0  0  0  0  0  0  0  0999 V2000
  188.8830  177.7610  144.4100 C   0  0  0  0  0  3  0  0  0  0  0  0
  187.7490  177.4440  143.8450 C   0  0  0  0  0  0  0  0  0  0  0  0
  186.6140  177.1240  143.2820 C   0  0  0  0  0  0  0  0  0  0  0  0
  192.1440  175.1190  147.4070 N   0  0  0  0  0  0  0  0  0  0  0  0
  191.1900  176.0250  147.7980 C   0  0  0  0  0  3  0  0  0  0  0  0
  191.5600  175.4790  145.1540 C   0  0  0  0  0  0  0  0  0  0  0  0
  191.5620  175.3760  143.8140 N   0  0  0  0  0  0  0  0  0  0  0  0
  190.4130  176.6560  146.8670 N   0  0  0  0  0  0  0  0  0  0  0  0
  190.5730  176.2330  143.4360 C   0  0  0  0  0  3  0  0  0  0  0  0
  189.9800  176.8450  144.4900 N   0  0  0  0  0  0  0  0  0  0  0  0
  192.3510  174.8300  146.0860 C   0  0  0  0  0  0  0  0  0  0  0  0
  193.3370  173.8780  145.6930 N   0  0  0  0  0  1  0  0  0  0  0  0
  190.6190  176.3580  145.5610 C   0  0  0  0  0  0  0  0  0  0  0  0
  187.4980  177.7330  141.0650 C   0  0  0  0  0  2  0  0  0  0  0  0
  185.9910  177.8140  140.9630 C   0  0  0  0  0  2  0  0  0  0  0  0
  186.6360  176.7480  141.8320 C   0  0  0  0  0  3  0  0  0  0  0  0
  185.4110  177.1130  144.0110 O   0  0  0  0  0  0  0  0  0  0  0  0
  184.8520  178.2550  144.6610 C   0  0  0  0  0  0  0  0  0  0  0  0
  185.1580  179.6400  144.1370 C   0  0  0  0  0  2  0  0  0  0  0  0
  183.8290  178.9640  143.8080 C   0  0  0  0  0  2  0  0  0  0  0  0
  184.4240  178.1130  146.0490 N   0  0  0  0  0  2  0  0  0  0  0  0
  185.3260  178.8860  146.8890 C   0  0  0  0  0  2  0  0  0  0  0  0
  186.0430  177.9760  147.8580 C   0  0  0  0  0  3  0  0  0  0  0  0
  187.3940  178.0170  147.5960 O   0  0  0  0  0  0  0  0  0  0  0  0
  186.6750  176.9690  147.1690 O   0  0  0  0  0  0  0  0  0  0  0  0
  1 10  1  0  0  0  0
  2  1  2  0  0  0  0
  3  2  2  0  0  0  0
  3 17  1  0  0  0  0
  4  5  1  0  0  0  0
  6 13  2  0  0  0  0
  6 11  1  0  0  0  0
  7  6  1  0  0  0  0
  8  5  2  0  0  0  0
  9  7  2  0  0  0  0
  9 10  1  0  0  0  0
 10 13  1  0  0  0  0
 11  4  2  0  0  0  0
 12 11  1  0  0  0  0
 13  8  1  0  0  0  0
 14 16  1  0  0  0  0
 15 14  1  0  0  0  0
 15 16  1  0  0  0  0
 16  3  1  0  0  0  0
 17 18  1  0  0  0  0
 18 21  1  0  0  0  0
 19 18  1  0  0  0  0
 20 19  1  0  0  0  0
 20 18  1  0  0  0  0
 21 22  1  0  0  0  0
 22 23  1  0  0  0  0
 24 23  1  0  0  0  0
 25 24  1  0  0  0  0
 25 23  1  0  0  0  0
M  END
>  <MODEL>
1

>  <REMARK>
 VINA RESULT:      -6.3      0.000      0.000
  Name = 
  7 active torsions:
  status: ('A' for Active; 'I' for Inactive)
    1  A    between atoms: C_3  and  C_7
    2  A    between atoms: C_4  and  O_18
    3  A    between atoms: C_4  and  N_22
    4  A    between atoms: C_7  and  N_22
    5  A    between atoms: C_10  and  N_20
    6  A    between atoms: C_12  and  C_13
    7  A    between atoms: C_12  and  O_18
                            x       y       z     vdW  Elec       q    Type
                         _______ _______ _______ _____ _____    ______ ____

>  <TORSDO>
F 7

$$$$
=
 OpenBabel11042413493D

 25 29  0  0  0  0  0  0  0  0999 V2000
  189.2430  177.8540  144.0620 C   0  0  0  0  0  3  0  0  0  0  0  0
  189.6930  176.7460  144.5860 C   0  0  0  0  0  0  0  0  0  0  0  0
  190.1450  175.6360  145.1070 C   0  0  0  0  0  0  0  0  0  0  0  0
  184.1850  178.2090  143.1220 N   0  0  0  0  0  0  0  0  0  0  0  0
  184.8120  178.1760  144.3430 C   0  0  0  0  0  3  0  0  0  0  0  0
  186.2690  177.9990  142.0470 C   0  0  0  0  0  0  0  0  0  0  0  0
  187.1830  177.8960  141.0660 N   0  0  0  0  0  0  0  0  0  0  0  0
  186.1730  178.0600  144.4180 N   0  0  0  0  0  0  0  0  0  0  0  0
  188.3600  177.8170  141.7460 C   0  0  0  0  0  3  0  0  0  0  0  0
  188.1910  177.8680  143.0900 N   0  0  0  0  0  0  0  0  0  0  0  0
  184.8930  178.1200  141.9560 C   0  0  0  0  0  0  0  0  0  0  0  0
  184.2310  178.1690  140.6940 N   0  0  0  0  0  1  0  0  0  0  0  0
  186.8680  177.9800  143.2570 C   0  0  0  0  0  0  0  0  0  0  0  0
  188.3540  175.6590  146.7970 C   0  0  0  0  0  2  0  0  0  0  0  0
  189.4700  174.8130  147.3680 C   0  0  0  0  0  2  0  0  0  0  0  0
  189.1820  174.7840  145.8770 C   0  0  0  0  0  3  0  0  0  0  0  0
  191.4840  175.2390  144.9400 O   0  0  0  0  0  0  0  0  0  0  0  0
  192.6100  175.9790  145.4140 C   0  0  0  0  0  0  0  0  0  0  0  0
  192.6600  176.4230  146.8590 C   0  0  0  0  0  2  0  0  0  0  0  0
  193.4440  175.1970  146.3990 C   0  0  0  0  0  2  0  0  0  0  0  0
  193.4200  176.6960  144.4360 N   0  0  0  0  0  2  0  0  0  0  0  0
  194.8230  176.4680  144.7450 C   0  0  0  0  0  2  0  0  0  0  0  0
  195.5960  176.1840  143.4790 C   0  0  0  0  0  3  0  0  0  0  0  0
  196.8620  175.7580  143.8110 O   0  0  0  0  0  0  0  0  0  0  0  0
  196.6820  177.0220  143.4000 O   0  0  0  0  0  0  0  0  0  0  0  0
  1  2  2  0  0  0  0
  2  3  2  0  0  0  0
  3 16  1  0  0  0  0
  4  5  1  0  0  0  0
  5  8  2  0  0  0  0
  6 13  2  0  0  0  0
  7  9  2  0  0  0  0
  7  6  1  0  0  0  0
  9 10  1  0  0  0  0
 10 13  1  0  0  0  0
 10  1  1  0  0  0  0
 11  6  1  0  0  0  0
 11  4  2  0  0  0  0
 12 11  1  0  0  0  0
 13  8  1  0  0  0  0
 14 15  1  0  0  0  0
 16 14  1  0  0  0  0
 16 15  1  0  0  0  0
 17  3  1  0  0  0  0
 17 18  1  0  0  0  0
 18 20  1  0  0  0  0
 18 19  1  0  0  0  0
 20 19  1  0  0  0  0
 21 22  1  0  0  0  0
 21 18  1  0  0  0  0
 23 24  1  0  0  0  0
 23 22  1  0  0  0  0
 25 23  1  0  0  0  0
 25 24  1  0  0  0  0
M  END
>  <MODEL>
2

>  <REMARK>
 VINA RESULT:      -6.3      3.906      7.661
  Name = 
  7 active torsions:
  status: ('A' for Active; 'I' for Inactive)
    1  A    between atoms: C_3  and  C_7
    2  A    between atoms: C_4  and  O_18
    3  A    between atoms: C_4  and  N_22
    4  A    between atoms: C_7  and  N_22
    5  A    between atoms: C_10  and  N_20
    6  A    between atoms: C_12  and  C_13
    7  A    between atoms: C_12  and  O_18
                            x       y       z     vdW  Elec       q    Type
                         _______ _______ _______ _____ _____    ______ ____

>  <TORSDO>
F 7

$$$$
=
 OpenBabel11042413493D

 25 29  0  0  0  0  0  0  0  0999 V2000
  189.3690  176.2080  143.6190 C   0  0  0  0  0  3  0  0  0  0  0  0
  188.5740  176.9120  144.3780 C   0  0  0  0  0  0  0  0  0  0  0  0
  187.7800  177.6210  145.1370 C   0  0  0  0  0  0  0  0  0  0  0  0
  193.5550  176.3110  146.6270 N   0  0  0  0  0  0  0  0  0  0  0  0
  192.2410  176.2640  147.0190 C   0  0  0  0  0  3  0  0  0  0  0  0
  192.8810  176.3630  144.3720 C   0  0  0  0  0  0  0  0  0  0  0  0
  192.9510  176.4090  143.0300 N   0  0  0  0  0  0  0  0  0  0  0  0
  191.2410  176.2600  146.0860 N   0  0  0  0  0  0  0  0  0  0  0  0
  191.6440  176.3700  142.6500 C   0  0  0  0  0  3  0  0  0  0  0  0
  190.7950  176.3050  143.7050 N   0  0  0  0  0  0  0  0  0  0  0  0
  193.9030  176.3640  145.3060 C   0  0  0  0  0  0  0  0  0  0  0  0
  195.2720  176.4000  144.9110 N   0  0  0  0  0  1  0  0  0  0  0  0
  191.5940  176.3040  144.7780 C   0  0  0  0  0  0  0  0  0  0  0  0
  187.9300  175.9510  146.9420 C   0  0  0  0  0  2  0  0  0  0  0  0
  186.6580  176.7320  147.1850 C   0  0  0  0  0  2  0  0  0  0  0  0
  187.8810  177.4320  146.6210 C   0  0  0  0  0  3  0  0  0  0  0  0
  186.8730  178.5440  144.5890 O   0  0  0  0  0  0  0  0  0  0  0  0
  185.5180  178.2410  144.2510 C   0  0  0  0  0  0  0  0  0  0  0  0
  184.4070  178.6150  145.2070 C   0  0  0  0  0  2  0  0  0  0  0  0
  184.6970  179.4780  143.9810 C   0  0  0  0  0  2  0  0  0  0  0  0
  185.2750  177.1820  143.2780 N   0  0  0  0  0  2  0  0  0  0  0  0
  185.4260  177.7400  141.9440 C   0  0  0  0  0  2  0  0  0  0  0  0
  186.5710  177.0690  141.2250 C   0  0  0  0  0  3  0  0  0  0  0  0
  187.6010  177.9710  141.0780 O   0  0  0  0  0  0  0  0  0  0  0  0
  186.8070  177.7050  140.0300 O   0  0  0  0  0  0  0  0  0  0  0  0
  1 10  1  0  0  0  0
  1  2  2  0  0  0  0
  2  3  2  0  0  0  0
  3 16  1  0  0  0  0
  4  5  1  0  0  0  0
  6 13  2  0  0  0  0
  6 11  1  0  0  0  0
  7  6  1  0  0  0  0
  8  5  2  0  0  0  0
  9  7  2  0  0  0  0
  9 10  1  0  0  0  0
 10 13  1  0  0  0  0
 11  4  2  0  0  0  0
 12 11  1  0  0  0  0
 13  8  1  0  0  0  0
 14 15  1  0  0  0  0
 16 14  1  0  0  0  0
 16 15  1  0  0  0  0
 17  3  1  0  0  0  0
 18 17  1  0  0  0  0
 18 19  1  0  0  0  0
 20 18  1  0  0  0  0
 20 19  1  0  0  0  0
 21 18  1  0  0  0  0
 22 21  1  0  0  0  0
 23 22  1  0  0  0  0
 24 23  1  0  0  0  0
 25 24  1  0  0  0  0
 25 23  1  0  0  0  0
M  END
>  <MODEL>
3

>  <REMARK>
 VINA RESULT:      -6.0      2.035      3.638
  Name = 
  7 active torsions:
  status: ('A' for Active; 'I' for Inactive)
    1  A    between atoms: C_3  and  C_7
    2  A    between atoms: C_4  and  O_18
    3  A    between atoms: C_4  and  N_22
    4  A    between atoms: C_7  and  N_22
    5  A    between atoms: C_10  and  N_20
    6  A    between atoms: C_12  and  C_13
    7  A    between atoms: C_12  and  O_18
                            x       y       z     vdW  Elec       q    Type
                         _______ _______ _______ _____ _____    ______ ____

>  <TORSDO>
F 7

$$$$
=
 OpenBabel11042413493D

 25 29  0  0  0  0  0  0  0  0999 V2000
  188.6470  175.2920  146.8910 C   0  0  0  0  0  3  0  0  0  0  0  0
  187.7620  176.1320  146.4240 C   0  0  0  0  0  0  0  0  0  0  0  0
  186.8790  176.9720  145.9520 C   0  0  0  0  0  0  0  0  0  0  0  0
  193.3990  174.2760  145.1680 N   0  0  0  0  0  0  0  0  0  0  0  0
  192.2350  173.6180  144.8590 C   0  0  0  0  0  3  0  0  0  0  0  0
  192.2070  175.7040  146.6110 C   0  0  0  0  0  0  0  0  0  0  0  0
  191.9490  176.6890  147.4900 N   0  0  0  0  0  0  0  0  0  0  0  0
  191.0510  174.0060  145.4210 N   0  0  0  0  0  0  0  0  0  0  0  0
  190.6030  176.5970  147.6720 C   0  0  0  0  0  3  0  0  0  0  0  0
  190.0430  175.6010  146.9420 N   0  0  0  0  0  0  0  0  0  0  0  0
  193.4120  175.3240  146.0460 C   0  0  0  0  0  0  0  0  0  0  0  0
  194.6260  176.0080  146.3500 N   0  0  0  0  0  1  0  0  0  0  0  0
  191.0710  175.0510  146.2840 C   0  0  0  0  0  0  0  0  0  0  0  0
  186.0880  178.1020  147.9930 C   0  0  0  0  0  2  0  0  0  0  0  0
  185.2860  178.6760  146.8470 C   0  0  0  0  0  2  0  0  0  0  0  0
  186.7420  178.2980  146.6380 C   0  0  0  0  0  3  0  0  0  0  0  0
  186.0950  176.6580  144.8290 O   0  0  0  0  0  0  0  0  0  0  0  0
  186.4340  177.0070  143.4860 C   0  0  0  0  0  0  0  0  0  0  0  0
  185.3640  177.5360  142.5560 C   0  0  0  0  0  2  0  0  0  0  0  0
  186.3440  178.4920  143.2320 C   0  0  0  0  0  2  0  0  0  0  0  0
  187.6300  176.4090  142.9040 N   0  0  0  0  0  2  0  0  0  0  0  0
  188.6250  177.4550  142.7230 C   0  0  0  0  0  2  0  0  0  0  0  0
  189.8510  177.1560  143.5520 C   0  0  0  0  0  3  0  0  0  0  0  0
  189.9890  178.1280  144.5170 O   0  0  0  0  0  0  0  0  0  0  0  0
  190.7610  178.1770  143.4210 O   0  0  0  0  0  0  0  0  0  0  0  0
  1 10  1  0  0  0  0
  2  1  2  0  0  0  0
  3  2  2  0  0  0  0
  3 16  1  0  0  0  0
  4 11  1  0  0  0  0
  5  4  2  0  0  0  0
  5  8  1  0  0  0  0
  6  7  1  0  0  0  0
  7  9  2  0  0  0  0
  8 13  2  0  0  0  0
 10  9  1  0  0  0  0
 11 12  1  0  0  0  0
 11  6  2  0  0  0  0
 13  6  1  0  0  0  0
 13 10  1  0  0  0  0
 15 14  1  0  0  0  0
 16 15  1  0  0  0  0
 16 14  1  0  0  0  0
 17  3  1  0  0  0  0
 18 17  1  0  0  0  0
 19 20  1  0  0  0  0
 19 18  1  0  0  0  0
 20 18  1  0  0  0  0
 21 18  1  0  0  0  0
 22 21  1  0  0  0  0
 22 23  1  0  0  0  0
 23 24  1  0  0  0  0
 25 23  1  0  0  0  0
 25 24  1  0  0  0  0
M  END
>  <MODEL>
4

>  <REMARK>
 VINA RESULT:      -6.0      2.078      3.909
  Name = 
  7 active torsions:
  status: ('A' for Active; 'I' for Inactive)
    1  A    between atoms: C_3  and  C_7
    2  A    between atoms: C_4  and  O_18
    3  A    between atoms: C_4  and  N_22
    4  A    between atoms: C_7  and  N_22
    5  A    between atoms: C_10  and  N_20
    6  A    between atoms: C_12  and  C_13
    7  A    between atoms: C_12  and  O_18
                            x       y       z     vdW  Elec       q    Type
                         _______ _______ _______ _____ _____    ______ ____

>  <TORSDO>
F 7

$$$$
=
 OpenBabel11042413493D

 25 29  0  0  0  0  0  0  0  0999 V2000
  188.6420  176.0840  144.7990 C   0  0  0  0  0  3  0  0  0  0  0  0
  187.7400  176.9040  145.2670 C   0  0  0  0  0  0  0  0  0  0  0  0
  186.8400  177.7280  145.7350 C   0  0  0  0  0  0  0  0  0  0  0  0
  193.7540  176.1590  144.1280 N   0  0  0  0  0  0  0  0  0  0  0  0
  192.7800  176.2760  143.1690 C   0  0  0  0  0  3  0  0  0  0  0  0
  192.0970  175.9120  145.7810 C   0  0  0  0  0  0  0  0  0  0  0  0
  191.5260  175.7390  146.9860 N   0  0  0  0  0  0  0  0  0  0  0  0
  191.4580  176.2170  143.5150 N   0  0  0  0  0  0  0  0  0  0  0  0
  190.1930  175.7740  146.7070 C   0  0  0  0  0  3  0  0  0  0  0  0
  189.9420  175.9600  145.3880 N   0  0  0  0  0  0  0  0  0  0  0  0
  193.4380  175.9730  145.4450 C   0  0  0  0  0  0  0  0  0  0  0  0
  194.4590  175.8660  146.4330 N   0  0  0  0  0  1  0  0  0  0  0  0
  191.1530  176.0410  144.8240 C   0  0  0  0  0  0  0  0  0  0  0  0
  185.2670  178.5130  147.4600 C   0  0  0  0  0  2  0  0  0  0  0  0
  186.6570  178.7440  148.0100 C   0  0  0  0  0  2  0  0  0  0  0  0
  186.3760  177.5270  147.1460 C   0  0  0  0  0  3  0  0  0  0  0  0
  186.3320  178.7810  144.9530 O   0  0  0  0  0  0  0  0  0  0  0  0
  185.6560  178.6060  143.7070 C   0  0  0  0  0  0  0  0  0  0  0  0
  184.5730  177.5560  143.5830 C   0  0  0  0  0  2  0  0  0  0  0  0
  184.2070  179.0260  143.7700 C   0  0  0  0  0  2  0  0  0  0  0  0
  186.3220  179.0670  142.4940 N   0  0  0  0  0  2  0  0  0  0  0  0
  186.1900  178.0370  141.4760 C   0  0  0  0  0  2  0  0  0  0  0  0
  187.5450  177.4690  141.1300 C   0  0  0  0  0  3  0  0  0  0  0  0
  187.3830  176.4230  140.2500 O   0  0  0  0  0  0  0  0  0  0  0  0
  187.6200  176.1610  141.5430 O   0  0  0  0  0  0  0  0  0  0  0  0
  1  2  2  0  0  0  0
  1 10  1  0  0  0  0
  2  3  2  0  0  0  0
  3 16  1  0  0  0  0
  4 11  1  0  0  0  0
  5  8  1  0  0  0  0
  5  4  2  0  0  0  0
  6  7  1  0  0  0  0
  8 13  2  0  0  0  0
  9  7  2  0  0  0  0
 10  9  1  0  0  0  0
 11  6  2  0  0  0  0
 11 12  1  0  0  0  0
 13 10  1  0  0  0  0
 13  6  1  0  0  0  0
 14 15  1  0  0  0  0
 16 14  1  0  0  0  0
 16 15  1  0  0  0  0
 17  3  1  0  0  0  0
 18 20  1  0  0  0  0
 18 17  1  0  0  0  0
 19 18  1  0  0  0  0
 19 20  1  0  0  0  0
 21 18  1  0  0  0  0
 22 21  1  0  0  0  0
 23 22  1  0  0  0  0
 23 25  1  0  0  0  0
 24 23  1  0  0  0  0
 24 25  1  0  0  0  0
M  END
>  <MODEL>
5

>  <REMARK>
 VINA RESULT:      -5.9      1.936      4.094
  Name = 
  7 active torsions:
  status: ('A' for Active; 'I' for Inactive)
    1  A    between atoms: C_3  and  C_7
    2  A    between atoms: C_4  and  O_18
    3  A    between atoms: C_4  and  N_22
    4  A    between atoms: C_7  and  N_22
    5  A    between atoms: C_10  and  N_20
    6  A    between atoms: C_12  and  C_13
    7  A    between atoms: C_12  and  O_18
                            x       y       z     vdW  Elec       q    Type
                         _______ _______ _______ _____ _____    ______ ____

>  <TORSDO>
F 7

$$$$
=
 OpenBabel11042413493D

 25 29  0  0  0  0  0  0  0  0999 V2000
  189.2000  177.8170  143.0300 C   0  0  0  0  0  3  0  0  0  0  0  0
  187.9570  177.8500  143.4280 C   0  0  0  0  0  0  0  0  0  0  0  0
  186.7130  177.8820  143.8290 C   0  0  0  0  0  0  0  0  0  0  0  0
  193.4820  175.2310  144.2800 N   0  0  0  0  0  0  0  0  0  0  0  0
  193.1860  176.5440  144.5480 C   0  0  0  0  0  3  0  0  0  0  0  0
  191.4250  174.9960  143.1590 C   0  0  0  0  0  0  0  0  0  0  0  0
  190.4170  174.4380  142.4670 N   0  0  0  0  0  0  0  0  0  0  0  0
  192.0030  177.0850  144.1270 N   0  0  0  0  0  0  0  0  0  0  0  0
  189.5180  175.4550  142.3530 C   0  0  0  0  0  3  0  0  0  0  0  0
  189.9440  176.5970  142.9460 N   0  0  0  0  0  0  0  0  0  0  0  0
  192.6170  174.4340  143.5830 C   0  0  0  0  0  0  0  0  0  0  0  0
  192.9320  173.0690  143.3210 N   0  0  0  0  0  1  0  0  0  0  0  0
  191.1470  176.2860  143.4450 C   0  0  0  0  0  0  0  0  0  0  0  0
  185.6210  177.6850  141.6310 C   0  0  0  0  0  2  0  0  0  0  0  0
  184.5240  177.9810  142.6290 C   0  0  0  0  0  2  0  0  0  0  0  0
  185.7030  177.1130  143.0330 C   0  0  0  0  0  3  0  0  0  0  0  0
  186.3320  178.5950  144.9790 O   0  0  0  0  0  0  0  0  0  0  0  0
  186.2330  178.0260  146.2860 C   0  0  0  0  0  0  0  0  0  0  0  0
  184.9830  178.2520  147.1080 C   0  0  0  0  0  2  0  0  0  0  0  0
  185.1920  176.9350  146.3640 C   0  0  0  0  0  2  0  0  0  0  0  0
  187.4680  177.6730  146.9760 N   0  0  0  0  0  2  0  0  0  0  0  0
  187.6490  176.2320  146.8890 C   0  0  0  0  0  2  0  0  0  0  0  0
  189.0940  175.9050  146.5980 C   0  0  0  0  0  3  0  0  0  0  0  0
  189.1540  174.7230  145.8940 O   0  0  0  0  0  0  0  0  0  0  0  0
  189.4330  174.7210  147.2050 O   0  0  0  0  0  0  0  0  0  0  0  0
  1  2  2  0  0  0  0
  2  3  2  0  0  0  0
  3 17  1  0  0  0  0
  4  5  1  0  0  0  0
  6 13  2  0  0  0  0
  6 11  1  0  0  0  0
  7  6  1  0  0  0  0
  8  5  2  0  0  0  0
  9  7  2  0  0  0  0
  9 10  1  0  0  0  0
 10  1  1  0  0  0  0
 10 13  1  0  0  0  0
 11  4  2  0  0  0  0
 12 11  1  0  0  0  0
 13  8  1  0  0  0  0
 14 15  1  0  0  0  0
 14 16  1  0  0  0  0
 15 16  1  0  0  0  0
 16  3  1  0  0  0  0
 17 18  1  0  0  0  0
 18 20  1  0  0  0  0
 18 21  1  0  0  0  0
 18 19  1  0  0  0  0
 20 19  1  0  0  0  0
 22 21  1  0  0  0  0
 23 22  1  0  0  0  0
 23 25  1  0  0  0  0
 24 23  1  0  0  0  0
 24 25  1  0  0  0  0
M  END
>  <MODEL>
6

>  <REMARK>
 VINA RESULT:      -5.9      2.048      2.696
  Name = 
  7 active torsions:
  status: ('A' for Active; 'I' for Inactive)
    1  A    between atoms: C_3  and  C_7
    2  A    between atoms: C_4  and  O_18
    3  A    between atoms: C_4  and  N_22
    4  A    between atoms: C_7  and  N_22
    5  A    between atoms: C_10  and  N_20
    6  A    between atoms: C_12  and  C_13
    7  A    between atoms: C_12  and  O_18
                            x       y       z     vdW  Elec       q    Type
                         _______ _______ _______ _____ _____    ______ ____

>  <TORSDO>
F 7

$$$$
=
 OpenBabel11042413493D

 25 29  0  0  0  0  0  0  0  0999 V2000
  190.4650  177.6850  144.0350 C   0  0  0  0  0  3  0  0  0  0  0  0
  189.1670  177.7640  143.9180 C   0  0  0  0  0  0  0  0  0  0  0  0
  187.8670  177.8400  143.8030 C   0  0  0  0  0  0  0  0  0  0  0  0
  194.3660  175.0320  146.1160 N   0  0  0  0  0  0  0  0  0  0  0  0
  194.1010  176.3730  146.2410 C   0  0  0  0  0  3  0  0  0  0  0  0
  192.4940  174.7950  144.7090 C   0  0  0  0  0  0  0  0  0  0  0  0
  191.5750  174.2260  143.9100 N   0  0  0  0  0  0  0  0  0  0  0  0
  193.0260  176.9280  145.6040 N   0  0  0  0  0  0  0  0  0  0  0  0
  190.7580  175.2660  143.5860 C   0  0  0  0  0  3  0  0  0  0  0  0
  191.1480  176.4330  144.1550 N   0  0  0  0  0  0  0  0  0  0  0  0
  193.5770  174.2190  145.3510 C   0  0  0  0  0  0  0  0  0  0  0  0
  193.8550  172.8260  145.2390 N   0  0  0  0  0  1  0  0  0  0  0  0
  192.2430  176.1140  144.8550 C   0  0  0  0  0  0  0  0  0  0  0  0
  187.8280  177.7380  141.3430 C   0  0  0  0  0  2  0  0  0  0  0  0
  186.4440  178.1660  141.7760 C   0  0  0  0  0  2  0  0  0  0  0  0
  187.2310  177.1780  142.6190 C   0  0  0  0  0  3  0  0  0  0  0  0
  187.0840  178.5030  144.7650 O   0  0  0  0  0  0  0  0  0  0  0  0
  186.2390  177.8450  145.7090 C   0  0  0  0  0  0  0  0  0  0  0  0
  185.4470  178.6640  146.7050 C   0  0  0  0  0  2  0  0  0  0  0  0
  184.7740  178.1030  145.4550 C   0  0  0  0  0  2  0  0  0  0  0  0
  186.5170  176.4470  146.0200 N   0  0  0  0  0  2  0  0  0  0  0  0
  187.5810  176.3990  147.0100 C   0  0  0  0  0  2  0  0  0  0  0  0
  188.6290  175.3930  146.5990 C   0  0  0  0  0  3  0  0  0  0  0  0
  188.9020  174.5660  147.6660 O   0  0  0  0  0  0  0  0  0  0  0  0
  189.7560  175.5560  147.3690 O   0  0  0  0  0  0  0  0  0  0  0  0
  1 10  1  0  0  0  0
  2  1  2  0  0  0  0
  3  2  2  0  0  0  0
  3 17  1  0  0  0  0
  4  5  1  0  0  0  0
  6 13  2  0  0  0  0
  6 11  1  0  0  0  0
  7  6  1  0  0  0  0
  8  5  2  0  0  0  0
  9  7  2  0  0  0  0
  9 10  1  0  0  0  0
 10 13  1  0  0  0  0
 11  4  2  0  0  0  0
 12 11  1  0  0  0  0
 13  8  1  0  0  0  0
 14 15  1  0  0  0  0
 14 16  1  0  0  0  0
 15 16  1  0  0  0  0
 16  3  1  0  0  0  0
 17 18  1  0  0  0  0
 18 21  1  0  0  0  0
 18 19  1  0  0  0  0
 20 18  1  0  0  0  0
 20 19  1  0  0  0  0
 21 22  1  0  0  0  0
 23 22  1  0  0  0  0
 23 25  1  0  0  0  0
 23 24  1  0  0  0  0
 25 24  1  0  0  0  0
M  END
>  <MODEL>
7

>  <REMARK>
 VINA RESULT:      -5.8      1.800      2.261
  Name = 
  7 active torsions:
  status: ('A' for Active; 'I' for Inactive)
    1  A    between atoms: C_3  and  C_7
    2  A    between atoms: C_4  and  O_18
    3  A    between atoms: C_4  and  N_22
    4  A    between atoms: C_7  and  N_22
    5  A    between atoms: C_10  and  N_20
    6  A    between atoms: C_12  and  C_13
    7  A    between atoms: C_12  and  O_18
                            x       y       z     vdW  Elec       q    Type
                         _______ _______ _______ _____ _____    ______ ____

>  <TORSDO>
F 7

$$$$
=
 OpenBabel11042413493D

 25 29  0  0  0  0  0  0  0  0999 V2000
  189.1350  177.8260  142.9670 C   0  0  0  0  0  3  0  0  0  0  0  0
  187.8970  177.8820  143.3780 C   0  0  0  0  0  0  0  0  0  0  0  0
  186.6590  177.9370  143.7930 C   0  0  0  0  0  0  0  0  0  0  0  0
  189.2130  173.0310  141.0730 N   0  0  0  0  0  0  0  0  0  0  0  0
  188.1940  173.9460  140.9990 C   0  0  0  0  0  3  0  0  0  0  0  0
  190.5020  174.5670  142.3080 C   0  0  0  0  0  0  0  0  0  0  0  0
  191.5300  175.0910  142.9980 N   0  0  0  0  0  0  0  0  0  0  0  0
  188.3280  175.1790  141.5750 N   0  0  0  0  0  0  0  0  0  0  0  0
  191.0890  176.3410  143.3090 C   0  0  0  0  0  3  0  0  0  0  0  0
  189.8430  176.5880  142.8370 N   0  0  0  0  0  0  0  0  0  0  0  0
  190.3800  173.3160  141.7260 C   0  0  0  0  0  0  0  0  0  0  0  0
  191.4360  172.3610  141.7860 N   0  0  0  0  0  1  0  0  0  0  0  0
  189.4910  175.4580  142.2130 C   0  0  0  0  0  0  0  0  0  0  0  0
  185.5850  177.8010  141.5800 C   0  0  0  0  0  2  0  0  0  0  0  0
  184.4930  178.1530  142.5650 C   0  0  0  0  0  2  0  0  0  0  0  0
  185.6190  177.2230  142.9820 C   0  0  0  0  0  3  0  0  0  0  0  0
  186.3090  178.6240  144.9690 O   0  0  0  0  0  0  0  0  0  0  0  0
  186.3230  178.0450  146.2750 C   0  0  0  0  0  0  0  0  0  0  0  0
  185.1950  178.3420  147.2380 C   0  0  0  0  0  2  0  0  0  0  0  0
  185.2280  177.0240  146.4680 C   0  0  0  0  0  2  0  0  0  0  0  0
  187.6040  177.6040  146.8150 N   0  0  0  0  0  2  0  0  0  0  0  0
  187.5970  176.1520  146.8880 C   0  0  0  0  0  2  0  0  0  0  0  0
  188.8900  175.5970  146.3390 C   0  0  0  0  0  3  0  0  0  0  0  0
  189.3160  174.5670  147.1490 O   0  0  0  0  0  0  0  0  0  0  0  0
  189.8970  175.7710  147.2570 O   0  0  0  0  0  0  0  0  0  0  0  0
  1  2  2  0  0  0  0
  2  3  2  0  0  0  0
  3 17  1  0  0  0  0
  4 11  1  0  0  0  0
  5  4  2  0  0  0  0
  5  8  1  0  0  0  0
  6  7  1  0  0  0  0
  7  9  2  0  0  0  0
  8 13  2  0  0  0  0
 10  1  1  0  0  0  0
 10  9  1  0  0  0  0
 11 12  1  0  0  0  0
 11  6  2  0  0  0  0
 13  6  1  0  0  0  0
 13 10  1  0  0  0  0
 14 15  1  0  0  0  0
 14 16  1  0  0  0  0
 15 16  1  0  0  0  0
 16  3  1  0  0  0  0
 17 18  1  0  0  0  0
 18 20  1  0  0  0  0
 18 21  1  0  0  0  0
 18 19  1  0  0  0  0
 20 19  1  0  0  0  0
 21 22  1  0  0  0  0
 23 22  1  0  0  0  0
 23 24  1  0  0  0  0
 23 25  1  0  0  0  0
 24 25  1  0  0  0  0
M  END
>  <MODEL>
8

>  <REMARK>
 VINA RESULT:      -5.8      2.375      3.665
  Name = 
  7 active torsions:
  status: ('A' for Active; 'I' for Inactive)
    1  A    between atoms: C_3  and  C_7
    2  A    between atoms: C_4  and  O_18
    3  A    between atoms: C_4  and  N_22
    4  A    between atoms: C_7  and  N_22
    5  A    between atoms: C_10  and  N_20
    6  A    between atoms: C_12  and  C_13
    7  A    between atoms: C_12  and  O_18
                            x       y       z     vdW  Elec       q    Type
                         _______ _______ _______ _____ _____    ______ ____

>  <TORSDO>
F 7

$$$$
=
 OpenBabel11042413493D

 25 29  0  0  0  0  0  0  0  0999 V2000
  188.6130  177.9120  142.0950 C   0  0  0  0  0  3  0  0  0  0  0  0
  188.9450  177.4320  143.2640 C   0  0  0  0  0  0  0  0  0  0  0  0
  189.2750  176.9480  144.4310 C   0  0  0  0  0  0  0  0  0  0  0  0
  183.5990  178.6680  143.0300 N   0  0  0  0  0  0  0  0  0  0  0  0
  184.6450  178.7930  143.9090 C   0  0  0  0  0  3  0  0  0  0  0  0
  185.1000  178.0180  141.3370 C   0  0  0  0  0  0  0  0  0  0  0  0
  185.5630  177.6250  140.1370 N   0  0  0  0  0  0  0  0  0  0  0  0
  185.9250  178.5360  143.5020 N   0  0  0  0  0  0  0  0  0  0  0  0
  186.9080  177.5410  140.3360 C   0  0  0  0  0  3  0  0  0  0  0  0
  187.2700  177.8640  141.6020 N   0  0  0  0  0  0  0  0  0  0  0  0
  183.8000  178.2780  141.7350 C   0  0  0  0  0  0  0  0  0  0  0  0
  182.7070  178.1640  140.8280 N   0  0  0  0  0  1  0  0  0  0  0  0
  186.1170  178.1590  142.2150 C   0  0  0  0  0  0  0  0  0  0  0  0
  189.1770  176.8830  146.8920 C   0  0  0  0  0  2  0  0  0  0  0  0
  187.7970  176.5110  146.3970 C   0  0  0  0  0  2  0  0  0  0  0  0
  188.6210  177.5400  145.6430 C   0  0  0  0  0  3  0  0  0  0  0  0
  190.1990  175.8940  144.5540 O   0  0  0  0  0  0  0  0  0  0  0  0
  191.4800  175.8680  143.9230 C   0  0  0  0  0  0  0  0  0  0  0  0
  192.5130  176.9130  144.2820 C   0  0  0  0  0  2  0  0  0  0  0  0
  192.5910  175.5110  144.8820 C   0  0  0  0  0  2  0  0  0  0  0  0
  191.6000  175.1790  142.6440 N   0  0  0  0  0  2  0  0  0  0  0  0
  190.6650  174.0650  142.6320 C   0  0  0  0  0  2  0  0  0  0  0  0
  189.6700  174.2320  141.5090 C   0  0  0  0  0  3  0  0  0  0  0  0
  188.3950  174.1300  142.0190 O   0  0  0  0  0  0  0  0  0  0  0  0
  188.9280  173.0840  141.3710 O   0  0  0  0  0  0  0  0  0  0  0  0
  1  2  2  0  0  0  0
  2  3  2  0  0  0  0
  3 17  1  0  0  0  0
  3 16  1  0  0  0  0
  4  5  1  0  0  0  0
  6 11  1  0  0  0  0
  6 13  2  0  0  0  0
  7  9  2  0  0  0  0
  7  6  1  0  0  0  0
  8  5  2  0  0  0  0
  9 10  1  0  0  0  0
 10  1  1  0  0  0  0
 10 13  1  0  0  0  0
 11  4  2  0  0  0  0
 12 11  1  0  0  0  0
 13  8  1  0  0  0  0
 15 14  1  0  0  0  0
 16 15  1  0  0  0  0
 16 14  1  0  0  0  0
 18 19  1  0  0  0  0
 18 17  1  0  0  0  0
 18 20  1  0  0  0  0
 19 20  1  0  0  0  0
 21 18  1  0  0  0  0
 22 21  1  0  0  0  0
 23 24  1  0  0  0  0
 23 22  1  0  0  0  0
 25 23  1  0  0  0  0
 25 24  1  0  0  0  0
M  END
>  <MODEL>
9

>  <REMARK>
 VINA RESULT:      -5.7      3.017      7.214
  Name = 
  7 active torsions:
  status: ('A' for Active; 'I' for Inactive)
    1  A    between atoms: C_3  and  C_7
    2  A    between atoms: C_4  and  O_18
    3  A    between atoms: C_4  and  N_22
    4  A    between atoms: C_7  and  N_22
    5  A    between atoms: C_10  and  N_20
    6  A    between atoms: C_12  and  C_13
    7  A    between atoms: C_12  and  O_18
                            x       y       z     vdW  Elec       q    Type
                         _______ _______ _______ _____ _____    ______ ____

>  <TORSDO>
F 7

$$$$
