=
 OpenBabel11042419093D

 59 65  0  0  1  0  0  0  0  0999 V2000
  192.4590  171.7730  140.2270 C   0  0  2  0  0  3  0  0  0  0  0  0
  191.3000  175.9620  148.1340 N   0  0  0  0  0  0  0  0  0  0  0  0
  195.7300  170.1100  143.3670 C   0  0  0  0  0  2  0  0  0  0  0  0
  188.5860  174.7350  143.6770 C   0  0  0  0  0  2  0  0  0  0  0  0
  190.0010  171.4850  140.6800 C   0  0  0  0  0  2  0  0  0  0  0  0
  194.8500  171.1690  143.9930 C   0  0  2  0  0  3  0  0  0  0  0  0
  187.3640  172.8760  140.9920 O   0  0  0  0  0  1  0  0  0  0  0  0
  189.9930  174.4670  144.1080 C   0  0  0  0  0  3  0  0  0  0  0  0
  195.9720  170.2130  142.0710 C   0  0  1  0  0  3  0  0  0  0  0  0
  190.5020  176.0960  146.8850 C   0  0  2  0  0  3  0  0  0  0  0  0
  193.0560  170.8010  141.1260 N   0  0  0  0  0  2  0  0  0  0  0  0
  188.5110  173.1920  141.7170 C   0  0  2  0  0  3  0  0  0  0  0  0
  195.5300  171.1490  141.0880 C   0  0  1  0  0  0  0  0  0  0  0  0
  191.1380  171.2190  139.6930 C   0  0  1  0  0  3  0  0  0  0  0  0
  190.9470  175.4010  144.1790 C   0  0  0  0  0  0  0  0  0  0  0  0
  190.6350  176.8320  143.9640 C   0  0  0  0  0  0  0  0  0  0  0  0
  191.4090  177.2230  148.8510 C   0  0  0  0  0  1  0  0  0  0  0  0
  193.8020  171.8180  138.9930 S   0  0  0  0  0  0  0  0  0  0  0  0
  192.3320  175.0290  144.6510 C   0  0  1  0  0  3  0  0  0  0  0  0
  194.2660  170.6710  140.3280 C   0  0  2  0  0  3  0  0  0  0  0  0
  191.9560  176.1500  146.8310 C   0  0  2  0  0  3  0  0  0  0  0  0
  190.7910  177.3070  142.8080 O   0  0  0  0  0  0  0  0  0  0  0  0
  195.3880  172.5100  141.8010 C   0  0  0  0  0  2  0  0  0  0  0  0
  196.6780  171.0150  140.2500 N   0  0  0  0  0  2  0  0  0  0  0  0
  188.4500  174.6360  142.1660 C   0  0  0  0  0  2  0  0  0  0  0  0
  197.0340  169.8570  141.0800 C   0  0  0  0  0  0  0  0  0  0  0  0
  193.7070  170.5760  144.5270 O   0  0  0  0  0  1  0  0  0  0  0  0
  192.3830  174.8550  146.1700 C   0  0  0  0  0  2  0  0  0  0  0  0
  189.7370  172.9750  140.8570 C   0  0  0  0  0  2  0  0  0  0  0  0
  190.1950  177.7200  145.0140 N   0  0  0  0  0  2  0  0  0  0  0  0
  197.9410  168.9800  141.0360 O   0  0  0  0  0  0  0  0  0  0  0  0
  194.4530  172.3180  143.0220 C   0  0  2  0  0  3  0  0  0  0  0  0
  192.8160  173.7950  143.9590 C   0  0  0  0  0  3  0  0  0  0  0  0
  190.0110  177.4720  146.4540 C   0  0  1  0  0  3  0  0  0  0  0  0
  194.1000  173.5810  143.7260 C   0  0  0  0  0  3  0  0  0  0  0  0
  190.7960  171.7420  138.3800 N   0  0  0  0  0  2  0  0  0  0  0  0
  190.5050  170.8730  137.2910 C   0  0  0  0  0  0  0  0  0  0  0  0
  190.8270  169.6550  137.3370 O   0  0  0  0  0  0  0  0  0  0  0  0
  189.7700  171.3890  136.1120 C   0  0  0  0  0  2  0  0  0  0  0  0
  190.5950  172.3240  135.3640 N   0  0  0  0  0  2  0  0  0  0  0  0
  189.5520  174.1930  136.3020 O   0  0  0  0  0  0  0  0  0  0  0  0
  190.4300  173.7350  135.5140 C   0  0  0  0  0  0  0  0  0  0  0  0
  193.4090  177.0220  135.6710 C   0  0  0  0  0  2  0  0  0  0  0  0
  192.1620  177.1060  134.7740 C   0  0  0  0  0  2  0  0  0  0  0  0
  189.7460  176.6080  134.5190 C   0  0  0  0  0  1  0  0  0  0  0  0
  191.3350  174.6940  134.7960 C   0  0  1  0  0  3  0  0  0  0  0  0
  193.3190  175.9530  136.7630 C   0  0  0  0  0  2  0  0  0  0  0  0
  191.0360  176.1540  135.1730 C   0  0  1  0  0  3  0  0  0  0  0  0
  193.4890  174.5370  136.2220 C   0  0  0  0  0  2  0  0  0  0  0  0
  192.8120  174.2830  134.8680 C   0  0  0  0  0  2  0  0  0  0  0  0
  187.7500  176.5820  146.8360 C   0  0  0  0  0  3  0  0  0  0  0  0
  188.5740  177.6250  146.8320 C   0  0  0  0  0  3  0  0  0  0  0  0
  186.2990  176.7360  147.1520 C   0  0  0  0  0  2  0  0  0  0  0  0
  185.8820  178.1940  147.1080 C   0  0  0  0  0  2  0  0  0  0  0  0
  184.8450  178.3760  146.0230 C   0  0  0  0  0  2  0  0  0  0  0  0
  186.2960  178.7110  142.4360 C   0  0  0  0  0  1  0  0  0  0  0  0
  185.4100  178.0970  144.7160 N   0  0  0  0  0  2  0  0  0  0  0  0
  185.5080  180.3190  143.9900 O   0  0  0  0  0  0  0  0  0  0  0  0
  185.7120  179.1010  143.7490 C   0  0  0  0  0  0  0  0  0  0  0  0
  1 18  1  6  0  0  0
  1 11  1  0  0  0  0
  2 17  1  0  0  0  0
  3  6  1  0  0  0  0
  4  8  1  0  0  0  0
  5 29  1  0  0  0  0
  6 27  1  6  0  0  0
  8 15  2  0  0  0  0
  9  3  1  1  0  0  0
 10  2  1  1  0  0  0
 12  7  1  6  0  0  0
 12 25  1  0  0  0  0
 13 23  1  1  0  0  0
 13  9  1  0  0  0  0
 14 36  1  6  0  0  0
 14  1  1  0  0  0  0
 14  5  1  0  0  0  0
 15 19  1  0  0  0  0
 16 15  1  0  0  0  0
 16 30  1  0  0  0  0
 19 33  1  6  0  0  0
 19 28  1  0  0  0  0
 20 18  1  6  0  0  0
 20 13  1  0  0  0  0
 20 11  1  0  0  0  0
 21 28  1  6  0  0  0
 21 10  1  0  0  0  0
 21  2  1  0  0  0  0
 22 16  2  0  0  0  0
 24 26  1  0  0  0  0
 24 13  1  0  0  0  0
 25  4  1  0  0  0  0
 26  9  1  0  0  0  0
 29 12  1  0  0  0  0
 30 34  1  0  0  0  0
 31 26  2  0  0  0  0
 32 23  1  6  0  0  0
 32 35  1  0  0  0  0
 32  6  1  0  0  0  0
 34 52  1  6  0  0  0
 34 10  1  0  0  0  0
 35 33  2  0  0  0  0
 37 38  2  0  0  0  0
 37 36  1  0  0  0  0
 39 37  1  0  0  0  0
 40 42  1  0  0  0  0
 40 39  1  0  0  0  0
 42 41  2  0  0  0  0
 43 47  1  0  0  0  0
 44 48  1  0  0  0  0
 44 43  1  0  0  0  0
 46 50  1  0  0  0  0
 46 48  1  0  0  0  0
 46 42  1  1  0  0  0
 48 45  1  6  0  0  0
 49 47  1  0  0  0  0
 50 49  1  0  0  0  0
 51 53  1  0  0  0  0
 52 51  2  0  0  0  0
 54 53  1  0  0  0  0
 55 54  1  0  0  0  0
 56 59  1  0  0  0  0
 57 55  1  0  0  0  0
 59 58  2  0  0  0  0
 59 57  1  0  0  0  0
M  END
>  <MODEL>
1

>  <REMARK>
 VINA RESULT:      -8.3      0.000      0.000
  Name = 
  9 active torsions:
  status: ('A' for Active; 'I' for Inactive)
    1  A    between atoms: C_1  and  C_13
    2  A    between atoms: C_1  and  C_16
    3  A    between atoms: C_8  and  C_43
    4  A    between atoms: N_11  and  C_27
    5  A    between atoms: C_14  and  C_23
    6  A    between atoms: C_16  and  C_54
    7  A    between atoms: N_18  and  C_23
    8  A    between atoms: N_26  and  C_54
    9  A    between atoms: C_55  and  C_57
                            x       y       z     vdW  Elec       q    Type
                         _______ _______ _______ _____ _____    ______ ____

>  <TORSDO>
F 9

$$$$
=
 OpenBabel11042419093D

 59 65  0  0  1  0  0  0  0  0999 V2000
  193.7410  172.0360  139.7780 C   0  0  2  0  0  3  0  0  0  0  0  0
  186.7090  176.9560  142.5640 N   0  0  0  0  0  0  0  0  0  0  0  0
  190.5240  172.3320  136.1870 C   0  0  0  0  0  2  0  0  0  0  0  0
  191.9040  176.1960  143.6500 C   0  0  0  0  0  2  0  0  0  0  0  0
  194.8180  174.1180  140.6950 C   0  0  0  0  0  2  0  0  0  0  0  0
  190.0460  173.0650  137.4210 C   0  0  2  0  0  3  0  0  0  0  0  0
  195.3270  175.7630  143.1470 O   0  0  0  0  0  1  0  0  0  0  0  0
  190.9840  175.5860  142.6410 C   0  0  0  0  0  3  0  0  0  0  0  0
  191.2910  171.2710  136.3730 C   0  0  1  0  0  3  0  0  0  0  0  0
  187.9680  176.6370  143.2920 C   0  0  2  0  0  3  0  0  0  0  0  0
  193.2210  172.4930  138.5000 N   0  0  0  0  0  2  0  0  0  0  0  0
  194.0640  175.3670  142.7140 C   0  0  2  0  0  3  0  0  0  0  0  0
  191.8080  170.6620  137.5560 C   0  0  1  0  0  0  0  0  0  0  0  0
  195.0640  172.7460  140.0650 C   0  0  1  0  0  3  0  0  0  0  0  0
  190.0140  174.7150  142.9400 C   0  0  0  0  0  0  0  0  0  0  0  0
  189.6820  174.3920  144.3450 C   0  0  0  0  0  0  0  0  0  0  0  0
  185.5610  177.0100  143.4560 C   0  0  0  0  0  1  0  0  0  0  0  0
  193.9190  170.2720  139.3490 S   0  0  0  0  0  0  0  0  0  0  0  0
  189.1230  174.1760  141.8460 C   0  0  1  0  0  3  0  0  0  0  0  0
  193.2310  171.1600  137.9170 C   0  0  2  0  0  3  0  0  0  0  0  0
  187.2280  175.5810  142.6140 C   0  0  2  0  0  3  0  0  0  0  0  0
  190.2240  173.3810  144.8650 O   0  0  0  0  0  0  0  0  0  0  0  0
  190.7480  170.8590  138.6590 C   0  0  0  0  0  2  0  0  0  0  0  0
  191.8820  169.3460  137.0070 N   0  0  0  0  0  2  0  0  0  0  0  0
  193.1140  175.3090  143.8910 C   0  0  0  0  0  2  0  0  0  0  0  0
  191.6210  169.9740  135.7060 C   0  0  0  0  0  0  0  0  0  0  0  0
  190.5210  174.3750  137.4030 O   0  0  0  0  0  1  0  0  0  0  0  0
  188.0740  175.2030  141.4150 C   0  0  0  0  0  2  0  0  0  0  0  0
  194.1500  174.0060  142.0590 C   0  0  0  0  0  2  0  0  0  0  0  0
  188.7460  175.1500  145.1400 N   0  0  0  0  0  2  0  0  0  0  0  0
  191.5800  169.5610  134.5130 O   0  0  0  0  0  0  0  0  0  0  0  0
  190.4350  172.3730  138.7600 C   0  0  2  0  0  3  0  0  0  0  0  0
  189.9330  173.7210  140.6760 C   0  0  0  0  0  3  0  0  0  0  0  0
  187.9110  176.3080  144.7780 C   0  0  1  0  0  3  0  0  0  0  0  0
  189.5340  172.7370  139.8870 C   0  0  0  0  0  3  0  0  0  0  0  0
  195.9560  171.9610  140.9030 N   0  0  0  0  0  2  0  0  0  0  0  0
  197.2360  172.4530  141.2830 C   0  0  0  0  0  0  0  0  0  0  0  0
  197.7600  173.4230  140.6720 O   0  0  0  0  0  0  0  0  0  0  0  0
  197.9410  171.8560  142.4420 C   0  0  0  0  0  2  0  0  0  0  0  0
  196.9980  171.1910  143.3270 N   0  0  0  0  0  2  0  0  0  0  0  0
  196.6880  173.0990  144.6400 O   0  0  0  0  0  0  0  0  0  0  0  0
  196.3980  171.8870  144.4220 C   0  0  0  0  0  0  0  0  0  0  0  0
  194.6840  168.1680  146.1350 C   0  0  0  0  0  2  0  0  0  0  0  0
  193.8030  169.2110  145.4260 C   0  0  0  0  0  2  0  0  0  0  0  0
  193.5930  170.8370  143.5650 C   0  0  0  0  0  1  0  0  0  0  0  0
  195.3690  171.2170  145.2860 C   0  0  1  0  0  3  0  0  0  0  0  0
  196.1790  168.3140  145.8400 C   0  0  0  0  0  2  0  0  0  0  0  0
  194.5690  170.1610  144.5080 C   0  0  1  0  0  3  0  0  0  0  0  0
  196.8150  169.4960  146.5680 C   0  0  0  0  0  2  0  0  0  0  0  0
  195.9380  170.7530  146.6340 C   0  0  0  0  0  2  0  0  0  0  0  0
  188.6770  177.4060  146.8400 C   0  0  0  0  0  3  0  0  0  0  0  0
  188.3120  177.5110  145.5670 C   0  0  0  0  0  3  0  0  0  0  0  0
  189.0210  178.6100  147.6550 C   0  0  0  0  0  2  0  0  0  0  0  0
  187.7690  179.3420  148.1020 C   0  0  0  0  0  2  0  0  0  0  0  0
  186.6010  178.3830  148.0700 C   0  0  0  0  0  2  0  0  0  0  0  0
  183.4620  178.7650  145.8150 C   0  0  0  0  0  1  0  0  0  0  0  0
  185.5110  178.9200  147.2770 N   0  0  0  0  0  2  0  0  0  0  0  0
  184.5870  176.8590  146.6670 O   0  0  0  0  0  0  0  0  0  0  0  0
  184.5470  178.1160  146.6000 C   0  0  0  0  0  0  0  0  0  0  0  0
  1 11  1  6  0  0  0
  1 14  1  0  0  0  0
  2 21  1  0  0  0  0
  2 17  1  0  0  0  0
  3  6  1  0  0  0  0
  4 25  1  0  0  0  0
  5 29  1  0  0  0  0
  6 27  1  1  0  0  0
  6 32  1  0  0  0  0
  8 15  2  0  0  0  0
  8  4  1  0  0  0  0
  9  3  1  1  0  0  0
  9 13  1  0  0  0  0
 10  2  1  1  0  0  0
 10 34  1  0  0  0  0
 12  7  1  1  0  0  0
 12 25  1  0  0  0  0
 13 20  1  0  0  0  0
 13 23  1  1  0  0  0
 14  5  1  0  0  0  0
 14 36  1  1  0  0  0
 15 16  1  0  0  0  0
 16 22  2  0  0  0  0
 16 30  1  0  0  0  0
 18  1  1  0  0  0  0
 19 33  1  6  0  0  0
 19 15  1  0  0  0  0
 20 11  1  1  0  0  0
 20 18  1  0  0  0  0
 21 28  1  6  0  0  0
 21 10  1  0  0  0  0
 24 13  1  0  0  0  0
 26  9  1  0  0  0  0
 26 24  1  0  0  0  0
 28 19  1  0  0  0  0
 29 12  1  0  0  0  0
 31 26  2  0  0  0  0
 32 23  1  6  0  0  0
 32 35  1  0  0  0  0
 34 30  1  0  0  0  0
 34 52  1  1  0  0  0
 35 33  2  0  0  0  0
 36 37  1  0  0  0  0
 37 39  1  0  0  0  0
 38 37  2  0  0  0  0
 39 40  1  0  0  0  0
 40 42  1  0  0  0  0
 42 41  2  0  0  0  0
 44 43  1  0  0  0  0
 46 42  1  6  0  0  0
 46 50  1  0  0  0  0
 47 43  1  0  0  0  0
 47 49  1  0  0  0  0
 48 45  1  6  0  0  0
 48 46  1  0  0  0  0
 48 44  1  0  0  0  0
 49 50  1  0  0  0  0
 51 53  1  0  0  0  0
 52 51  2  0  0  0  0
 53 54  1  0  0  0  0
 55 54  1  0  0  0  0
 56 59  1  0  0  0  0
 57 55  1  0  0  0  0
 59 58  2  0  0  0  0
 59 57  1  0  0  0  0
M  END
>  <MODEL>
2

>  <REMARK>
 VINA RESULT:      -6.8      2.688      7.220
  Name = 
  9 active torsions:
  status: ('A' for Active; 'I' for Inactive)
    1  A    between atoms: C_1  and  C_13
    2  A    between atoms: C_1  and  C_16
    3  A    between atoms: C_8  and  C_43
    4  A    between atoms: N_11  and  C_27
    5  A    between atoms: C_14  and  C_23
    6  A    between atoms: C_16  and  C_54
    7  A    between atoms: N_18  and  C_23
    8  A    between atoms: N_26  and  C_54
    9  A    between atoms: C_55  and  C_57
                            x       y       z     vdW  Elec       q    Type
                         _______ _______ _______ _____ _____    ______ ____

>  <TORSDO>
F 9

$$$$
=
 OpenBabel11042419093D

 59 65  0  0  1  0  0  0  0  0999 V2000
  193.2980  172.4760  139.5880 C   0  0  2  0  0  3  0  0  0  0  0  0
  186.2160  176.9750  142.9080 N   0  0  0  0  0  0  0  0  0  0  0  0
  189.7990  172.5510  136.2600 C   0  0  0  0  0  2  0  0  0  0  0  0
  191.5160  176.5410  143.5850 C   0  0  0  0  0  2  0  0  0  0  0  0
  194.3130  174.6250  140.4140 C   0  0  0  0  0  2  0  0  0  0  0  0
  189.3740  173.2610  137.5260 C   0  0  2  0  0  3  0  0  0  0  0  0
  194.9100  176.3140  142.8170 O   0  0  0  0  0  1  0  0  0  0  0  0
  190.5600  175.8690  142.6520 C   0  0  0  0  0  3  0  0  0  0  0  0
  190.6410  171.5400  136.3870 C   0  0  1  0  0  3  0  0  0  0  0  0
  187.5450  176.7380  143.5360 C   0  0  2  0  0  3  0  0  0  0  0  0
  192.6530  172.8920  138.3540 N   0  0  0  0  0  2  0  0  0  0  0  0
  193.6430  175.8390  142.4840 C   0  0  2  0  0  3  0  0  0  0  0  0
  191.2860  170.9710  137.5260 C   0  0  1  0  0  0  0  0  0  0  0  0
  194.5930  173.2670  139.7690 C   0  0  1  0  0  3  0  0  0  0  0  0
  189.6710  174.9430  143.0280 C   0  0  0  0  0  0  0  0  0  0  0  0
  189.4700  174.6080  144.4550 C   0  0  0  0  0  0  0  0  0  0  0  0
  185.1400  176.9650  143.8870 C   0  0  0  0  0  1  0  0  0  0  0  0
  193.5500  170.7230  139.1500 S   0  0  0  0  0  0  0  0  0  0  0  0
  188.7320  174.3430  142.0080 C   0  0  1  0  0  3  0  0  0  0  0  0
  192.6990  171.5580  137.7750 C   0  0  2  0  0  3  0  0  0  0  0  0
  186.8210  175.6340  142.9200 C   0  0  2  0  0  3  0  0  0  0  0  0
  190.1120  173.6360  144.9330 O   0  0  0  0  0  0  0  0  0  0  0  0
  190.3040  171.1110  138.7090 C   0  0  0  0  0  2  0  0  0  0  0  0
  191.3970  169.6590  136.9760 N   0  0  0  0  0  2  0  0  0  0  0  0
  192.7940  175.7310  143.7330 C   0  0  0  0  0  2  0  0  0  0  0  0
  190.9970  170.2610  135.6980 C   0  0  0  0  0  0  0  0  0  0  0  0
  189.7640  174.5980  137.4690 O   0  0  0  0  0  1  0  0  0  0  0  0
  187.5920  175.3010  141.6580 C   0  0  0  0  0  2  0  0  0  0  0  0
  193.7620  174.4810  141.8270 C   0  0  0  0  0  2  0  0  0  0  0  0
  188.5550  175.3140  145.3200 N   0  0  0  0  0  2  0  0  0  0  0  0
  190.8890  169.8390  134.5130 O   0  0  0  0  0  0  0  0  0  0  0  0
  189.9080  172.6040  138.8320 C   0  0  2  0  0  3  0  0  0  0  0  0
  189.4760  173.9300  140.7790 C   0  0  0  0  0  3  0  0  0  0  0  0
  187.6240  176.4160  145.0220 C   0  0  1  0  0  3  0  0  0  0  0  0
  189.0770  172.9190  140.0250 C   0  0  0  0  0  3  0  0  0  0  0  0
  195.5940  172.5440  140.5370 N   0  0  0  0  0  2  0  0  0  0  0  0
  196.9740  172.8860  140.4600 C   0  0  0  0  0  0  0  0  0  0  0  0
  197.4070  173.6000  139.5160 O   0  0  0  0  0  0  0  0  0  0  0  0
  197.9030  172.4420  141.5250 C   0  0  0  0  0  2  0  0  0  0  0  0
  197.1690  171.8430  142.6280 N   0  0  0  0  0  2  0  0  0  0  0  0
  197.0190  173.8610  143.7950 O   0  0  0  0  0  0  0  0  0  0  0  0
  196.7490  172.6260  143.7470 C   0  0  0  0  0  0  0  0  0  0  0  0
  195.2200  169.0090  145.8170 C   0  0  0  0  0  2  0  0  0  0  0  0
  194.2800  170.1440  145.3740 C   0  0  0  0  0  2  0  0  0  0  0  0
  193.7350  171.8400  143.6500 C   0  0  0  0  0  1  0  0  0  0  0  0
  195.9260  172.0170  144.8450 C   0  0  1  0  0  3  0  0  0  0  0  0
  196.5930  169.0400  145.1400 C   0  0  0  0  0  2  0  0  0  0  0  0
  194.8600  171.0560  144.2950 C   0  0  1  0  0  3  0  0  0  0  0  0
  197.4990  170.1410  145.6850 C   0  0  0  0  0  2  0  0  0  0  0  0
  196.7840  171.4630  145.9920 C   0  0  0  0  0  2  0  0  0  0  0  0
  188.3220  177.5910  147.0660 C   0  0  0  0  0  3  0  0  0  0  0  0
  188.0110  177.6460  145.7750 C   0  0  0  0  0  3  0  0  0  0  0  0
  188.6500  178.8240  147.8420 C   0  0  0  0  0  2  0  0  0  0  0  0
  190.1390  178.9090  148.1280 C   0  0  0  0  0  2  0  0  0  0  0  0
  190.5700  177.6600  148.8620 C   0  0  0  0  0  2  0  0  0  0  0  0
  192.5850  174.9450  146.9520 C   0  0  0  0  0  1  0  0  0  0  0  0
  191.5920  176.9480  148.1170 N   0  0  0  0  0  2  0  0  0  0  0  0
  190.4550  174.9070  147.9950 O   0  0  0  0  0  0  0  0  0  0  0  0
  191.4810  175.5830  147.7200 C   0  0  0  0  0  0  0  0  0  0  0  0
  1 11  1  6  0  0  0
  1 14  1  0  0  0  0
  2 21  1  0  0  0  0
  2 17  1  0  0  0  0
  3  6  1  0  0  0  0
  4 25  1  0  0  0  0
  5 29  1  0  0  0  0
  6 27  1  6  0  0  0
  6 32  1  0  0  0  0
  8 15  2  0  0  0  0
  8  4  1  0  0  0  0
  9  3  1  1  0  0  0
  9 13  1  0  0  0  0
 10  2  1  1  0  0  0
 10 34  1  0  0  0  0
 12  7  1  1  0  0  0
 12 25  1  0  0  0  0
 13 20  1  0  0  0  0
 13 23  1  1  0  0  0
 14  5  1  0  0  0  0
 14 36  1  1  0  0  0
 15 16  1  0  0  0  0
 16 22  2  0  0  0  0
 16 30  1  0  0  0  0
 18  1  1  0  0  0  0
 19 33  1  6  0  0  0
 19 15  1  0  0  0  0
 20 11  1  1  0  0  0
 20 18  1  0  0  0  0
 21 28  1  6  0  0  0
 21 10  1  0  0  0  0
 24 13  1  0  0  0  0
 26  9  1  0  0  0  0
 26 24  1  0  0  0  0
 28 19  1  0  0  0  0
 29 12  1  0  0  0  0
 31 26  2  0  0  0  0
 32 23  1  6  0  0  0
 32 35  1  0  0  0  0
 34 30  1  0  0  0  0
 34 52  1  1  0  0  0
 35 33  2  0  0  0  0
 37 36  1  0  0  0  0
 37 39  1  0  0  0  0
 38 37  2  0  0  0  0
 39 40  1  0  0  0  0
 40 42  1  0  0  0  0
 42 41  2  0  0  0  0
 44 43  1  0  0  0  0
 46 42  1  6  0  0  0
 46 50  1  0  0  0  0
 47 49  1  0  0  0  0
 47 43  1  0  0  0  0
 48 45  1  1  0  0  0
 48 46  1  0  0  0  0
 48 44  1  0  0  0  0
 49 50  1  0  0  0  0
 51 53  1  0  0  0  0
 52 51  2  0  0  0  0
 53 54  1  0  0  0  0
 54 55  1  0  0  0  0
 56 59  1  0  0  0  0
 57 55  1  0  0  0  0
 59 58  2  0  0  0  0
 59 57  1  0  0  0  0
M  END
>  <MODEL>
3

>  <REMARK>
 VINA RESULT:      -6.5      2.757      7.371
  Name = 
  9 active torsions:
  status: ('A' for Active; 'I' for Inactive)
    1  A    between atoms: C_1  and  C_13
    2  A    between atoms: C_1  and  C_16
    3  A    between atoms: C_8  and  C_43
    4  A    between atoms: N_11  and  C_27
    5  A    between atoms: C_14  and  C_23
    6  A    between atoms: C_16  and  C_54
    7  A    between atoms: N_18  and  C_23
    8  A    between atoms: N_26  and  C_54
    9  A    between atoms: C_55  and  C_57
                            x       y       z     vdW  Elec       q    Type
                         _______ _______ _______ _____ _____    ______ ____

>  <TORSDO>
F 9

$$$$
=
 OpenBabel11042419093D

 59 65  0  0  1  0  0  0  0  0999 V2000
  191.0680  175.1810  143.9960 C   0  0  2  0  0  3  0  0  0  0  0  0
  189.2270  171.4370  135.9960 N   0  0  0  0  0  0  0  0  0  0  0  0
  186.3240  175.5380  143.1620 C   0  0  0  0  0  2  0  0  0  0  0  0
  192.9250  171.2780  139.8730 C   0  0  0  0  0  2  0  0  0  0  0  0
  192.1660  172.9220  144.1480 C   0  0  0  0  0  2  0  0  0  0  0  0
  187.0390  174.8600  142.0150 C   0  0  2  0  0  3  0  0  0  0  0  0
  194.3210  171.1430  143.0660 O   0  0  0  0  0  1  0  0  0  0  0  0
  191.6630  172.0640  139.7150 C   0  0  0  0  0  3  0  0  0  0  0  0
  187.0000  176.4480  143.8420 C   0  0  1  0  0  3  0  0  0  0  0  0
  190.5330  171.5180  136.7060 C   0  0  2  0  0  3  0  0  0  0  0  0
  189.6640  174.8560  144.1780 N   0  0  0  0  0  2  0  0  0  0  0  0
  193.3450  171.7590  142.2870 C   0  0  2  0  0  3  0  0  0  0  0  0
  188.3400  176.9270  143.7280 C   0  0  1  0  0  0  0  0  0  0  0  0
  191.9160  174.2510  144.8630 C   0  0  1  0  0  3  0  0  0  0  0  0
  191.5130  173.0770  138.8540 C   0  0  0  0  0  0  0  0  0  0  0  0
  192.5690  173.4100  137.8720 C   0  0  0  0  0  0  0  0  0  0  0  0
  189.3820  171.5510  134.5540 C   0  0  0  0  0  1  0  0  0  0  0  0
  190.9980  176.9020  144.5970 S   0  0  0  0  0  0  0  0  0  0  0  0
  190.1860  173.7900  138.7550 C   0  0  1  0  0  3  0  0  0  0  0  0
  189.3270  176.1850  144.6660 C   0  0  2  0  0  3  0  0  0  0  0  0
  189.6950  172.7030  136.5800 C   0  0  2  0  0  3  0  0  0  0  0  0
  193.4060  174.2990  138.1800 O   0  0  0  0  0  0  0  0  0  0  0  0
  188.7030  176.8790  142.2290 C   0  0  0  0  0  2  0  0  0  0  0  0
  188.0630  178.2270  144.2480 N   0  0  0  0  0  2  0  0  0  0  0  0
  193.8580  171.9410  140.8740 C   0  0  0  0  0  2  0  0  0  0  0  0
  186.7530  177.6910  144.6380 C   0  0  0  0  0  0  0  0  0  0  0  0
  187.1210  173.4900  142.2540 O   0  0  0  0  0  1  0  0  0  0  0  0
  189.1600  172.9680  137.9730 C   0  0  0  0  0  2  0  0  0  0  0  0
  192.9900  173.1050  142.8800 C   0  0  0  0  0  2  0  0  0  0  0  0
  192.6720  172.7970  136.5700 N   0  0  0  0  0  2  0  0  0  0  0  0
  185.7680  178.1400  145.2880 O   0  0  0  0  0  0  0  0  0  0  0  0
  188.4540  175.4370  141.7190 C   0  0  2  0  0  3  0  0  0  0  0  0
  189.6650  174.1370  140.1120 C   0  0  0  0  0  3  0  0  0  0  0  0
  191.8000  171.8080  135.9140 C   0  0  1  0  0  3  0  0  0  0  0  0
  188.9020  175.1960  140.3200 C   0  0  0  0  0  3  0  0  0  0  0  0
  193.1780  174.8490  145.2670 N   0  0  0  0  0  2  0  0  0  0  0  0
  194.2510  174.0510  145.7550 C   0  0  0  0  0  0  0  0  0  0  0  0
  194.0490  172.8680  146.1410 O   0  0  0  0  0  0  0  0  0  0  0  0
  195.6290  174.5960  145.7640 C   0  0  0  0  0  2  0  0  0  0  0  0
  196.0900  174.8430  144.4070 N   0  0  0  0  0  2  0  0  0  0  0  0
  197.9410  173.4370  144.6420 O   0  0  0  0  0  0  0  0  0  0  0  0
  197.2720  174.2170  143.9040 C   0  0  0  0  0  0  0  0  0  0  0  0
  196.2330  175.2390  139.7110 C   0  0  0  0  0  2  0  0  0  0  0  0
  197.0370  173.9740  140.0580 C   0  0  0  0  0  2  0  0  0  0  0  0
  197.3700  172.0870  141.6320 C   0  0  0  0  0  1  0  0  0  0  0  0
  197.7000  174.4180  142.4800 C   0  0  1  0  0  3  0  0  0  0  0  0
  195.4980  175.8550  140.9050 C   0  0  0  0  0  2  0  0  0  0  0  0
  196.9070  173.5250  141.5120 C   0  0  1  0  0  3  0  0  0  0  0  0
  196.4320  176.5890  141.8620 C   0  0  0  0  0  2  0  0  0  0  0  0
  197.7850  175.9010  142.0890 C   0  0  0  0  0  2  0  0  0  0  0  0
  192.7720  169.6800  136.6720 C   0  0  0  0  0  3  0  0  0  0  0  0
  192.5390  170.5320  135.6790 C   0  0  0  0  0  3  0  0  0  0  0  0
  193.5640  168.4320  136.4600 C   0  0  0  0  0  2  0  0  0  0  0  0
  194.7630  168.6910  135.5670 C   0  0  0  0  0  2  0  0  0  0  0  0
  195.9360  169.1040  136.4280 C   0  0  0  0  0  2  0  0  0  0  0  0
  196.9230  172.8480  136.1270 C   0  0  0  0  0  1  0  0  0  0  0  0
  196.4880  170.3680  135.9790 N   0  0  0  0  0  2  0  0  0  0  0  0
  195.6530  171.6610  137.7410 O   0  0  0  0  0  0  0  0  0  0  0  0
  196.3100  171.6030  136.6690 C   0  0  0  0  0  0  0  0  0  0  0  0
  1 11  1  1  0  0  0
  1 18  1  0  0  0  0
  1 14  1  0  0  0  0
  2 21  1  0  0  0  0
  4 25  1  0  0  0  0
  5 14  1  0  0  0  0
  6 27  1  1  0  0  0
  6  3  1  0  0  0  0
  8  4  1  0  0  0  0
  9  3  1  6  0  0  0
  9 26  1  0  0  0  0
 10  2  1  6  0  0  0
 12 29  1  0  0  0  0
 12  7  1  1  0  0  0
 13 23  1  6  0  0  0
 13  9  1  0  0  0  0
 13 24  1  0  0  0  0
 13 20  1  0  0  0  0
 14 36  1  6  0  0  0
 15  8  2  0  0  0  0
 16 22  2  0  0  0  0
 16 15  1  0  0  0  0
 17  2  1  0  0  0  0
 18 20  1  0  0  0  0
 19 28  1  1  0  0  0
 19 15  1  0  0  0  0
 19 33  1  0  0  0  0
 20 11  1  6  0  0  0
 21 10  1  0  0  0  0
 21 28  1  1  0  0  0
 24 26  1  0  0  0  0
 25 12  1  0  0  0  0
 26 31  2  0  0  0  0
 29  5  1  0  0  0  0
 30 16  1  0  0  0  0
 32 35  1  6  0  0  0
 32  6  1  0  0  0  0
 32 23  1  0  0  0  0
 33 35  2  0  0  0  0
 34 52  1  1  0  0  0
 34 30  1  0  0  0  0
 34 10  1  0  0  0  0
 36 37  1  0  0  0  0
 37 39  1  0  0  0  0
 37 38  2  0  0  0  0
 40 39  1  0  0  0  0
 42 40  1  0  0  0  0
 42 41  2  0  0  0  0
 43 44  1  0  0  0  0
 43 47  1  0  0  0  0
 44 48  1  0  0  0  0
 46 42  1  1  0  0  0
 47 49  1  0  0  0  0
 48 45  1  6  0  0  0
 48 46  1  0  0  0  0
 49 50  1  0  0  0  0
 50 46  1  0  0  0  0
 52 51  2  0  0  0  0
 53 51  1  0  0  0  0
 54 55  1  0  0  0  0
 54 53  1  0  0  0  0
 56 59  1  0  0  0  0
 57 55  1  0  0  0  0
 57 59  1  0  0  0  0
 59 58  2  0  0  0  0
M  END
>  <MODEL>
4

>  <REMARK>
 VINA RESULT:      -6.0      3.000     10.285
  Name = 
  9 active torsions:
  status: ('A' for Active; 'I' for Inactive)
    1  A    between atoms: C_1  and  C_13
    2  A    between atoms: C_1  and  C_16
    3  A    between atoms: C_8  and  C_43
    4  A    between atoms: N_11  and  C_27
    5  A    between atoms: C_14  and  C_23
    6  A    between atoms: C_16  and  C_54
    7  A    between atoms: N_18  and  C_23
    8  A    between atoms: N_26  and  C_54
    9  A    between atoms: C_55  and  C_57
                            x       y       z     vdW  Elec       q    Type
                         _______ _______ _______ _____ _____    ______ ____

>  <TORSDO>
F 9

$$$$
=
 OpenBabel11042419093D

 59 65  0  0  1  0  0  0  0  0999 V2000
  193.3570  171.5080  140.3200 C   0  0  2  0  0  3  0  0  0  0  0  0
  189.0280  175.2780  147.2810 N   0  0  0  0  0  0  0  0  0  0  0  0
  194.9460  169.5020  144.4160 C   0  0  0  0  0  2  0  0  0  0  0  0
  188.4450  174.4520  142.0170 C   0  0  0  0  0  2  0  0  0  0  0  0
  190.9340  171.3170  139.6680 C   0  0  0  0  0  2  0  0  0  0  0  0
  193.9050  170.5650  144.6870 C   0  0  2  0  0  3  0  0  0  0  0  0
  188.4440  172.8170  138.9370 O   0  0  0  0  0  1  0  0  0  0  0  0
  189.5280  174.0880  142.9810 C   0  0  0  0  0  3  0  0  0  0  0  0
  195.7180  169.6690  143.3560 C   0  0  1  0  0  3  0  0  0  0  0  0
  188.8400  175.5250  145.8260 C   0  0  2  0  0  3  0  0  0  0  0  0
  193.4940  170.4550  141.3120 N   0  0  0  0  0  2  0  0  0  0  0  0
  189.1790  173.0320  140.1010 C   0  0  2  0  0  3  0  0  0  0  0  0
  195.7560  170.6810  142.3510 C   0  0  1  0  0  0  0  0  0  0  0  0
  192.3780  171.0530  139.2380 C   0  0  1  0  0  3  0  0  0  0  0  0
  190.3800  174.9680  143.5190 C   0  0  0  0  0  0  0  0  0  0  0  0
  190.2180  176.4230  143.3000 C   0  0  0  0  0  0  0  0  0  0  0  0
  188.8470  176.4880  148.0680 C   0  0  0  0  0  1  0  0  0  0  0  0
  195.0970  171.5580  139.7780 S   0  0  0  0  0  0  0  0  0  0  0  0
  191.4250  174.5000  144.5030 C   0  0  1  0  0  3  0  0  0  0  0  0
  194.9260  170.3130  141.0940 C   0  0  2  0  0  3  0  0  0  0  0  0
  190.1800  175.5090  146.3970 C   0  0  2  0  0  3  0  0  0  0  0  0
  190.8610  176.9560  142.3570 O   0  0  0  0  0  0  0  0  0  0  0  0
  195.3510  172.0030  143.0360 C   0  0  0  0  0  2  0  0  0  0  0  0
  197.1480  170.5400  142.0690 N   0  0  0  0  0  2  0  0  0  0  0  0
  188.9620  174.4480  140.5880 C   0  0  0  0  0  2  0  0  0  0  0  0
  197.0940  169.3190  142.8830 C   0  0  0  0  0  0  0  0  0  0  0  0
  192.6320  170.0000  144.6420 O   0  0  0  0  0  1  0  0  0  0  0  0
  190.8210  174.2350  145.8840 C   0  0  0  0  0  2  0  0  0  0  0  0
  190.6500  172.8050  139.8260 C   0  0  0  0  0  2  0  0  0  0  0  0
  189.3920  177.2690  144.1270 N   0  0  0  0  0  2  0  0  0  0  0  0
  197.9150  168.4010  143.1630 O   0  0  0  0  0  0  0  0  0  0  0  0
  193.9820  171.7870  143.7280 C   0  0  2  0  0  3  0  0  0  0  0  0
  192.1330  173.2870  143.9910 C   0  0  0  0  0  3  0  0  0  0  0  0
  188.6070  176.9460  145.3310 C   0  0  1  0  0  3  0  0  0  0  0  0
  193.3890  173.0230  144.3090 C   0  0  0  0  0  3  0  0  0  0  0  0
  192.6380  171.6680  137.9460 N   0  0  0  0  0  2  0  0  0  0  0  0
  191.6800  171.6120  136.8950 C   0  0  0  0  0  0  0  0  0  0  0  0
  190.7300  170.7850  136.9340 O   0  0  0  0  0  0  0  0  0  0  0  0
  191.7680  172.5690  135.7660 C   0  0  0  0  0  2  0  0  0  0  0  0
  193.0190  173.3080  135.8190 N   0  0  0  0  0  2  0  0  0  0  0  0
  191.9500  175.3340  136.2810 O   0  0  0  0  0  0  0  0  0  0  0  0
  193.0350  174.7110  136.0890 C   0  0  0  0  0  0  0  0  0  0  0  0
  197.4620  174.6380  136.4070 C   0  0  0  0  0  2  0  0  0  0  0  0
  196.5950  175.4410  137.3930 C   0  0  0  0  0  2  0  0  0  0  0  0
  194.4970  175.5430  138.7110 C   0  0  0  0  0  1  0  0  0  0  0  0
  194.3330  175.4540  136.2160 C   0  0  1  0  0  3  0  0  0  0  0  0
  196.6850  173.5840  135.6120 C   0  0  0  0  0  2  0  0  0  0  0  0
  195.1330  175.0000  137.4470 C   0  0  1  0  0  3  0  0  0  0  0  0
  195.8180  174.1910  134.5130 C   0  0  0  0  0  2  0  0  0  0  0  0
  195.1210  175.5020  134.8980 C   0  0  0  0  0  2  0  0  0  0  0  0
  186.4510  178.0480  145.7600 C   0  0  0  0  0  3  0  0  0  0  0  0
  187.1500  177.1480  145.0760 C   0  0  0  0  0  3  0  0  0  0  0  0
  184.9810  178.2160  145.5560 C   0  0  0  0  0  2  0  0  0  0  0  0
  184.6880  179.3930  144.6430 C   0  0  0  0  0  2  0  0  0  0  0  0
  183.7600  178.9390  143.5390 C   0  0  0  0  0  2  0  0  0  0  0  0
  184.7490  178.0090  139.9010 C   0  0  0  0  0  1  0  0  0  0  0  0
  184.5040  178.6270  142.3330 N   0  0  0  0  0  2  0  0  0  0  0  0
  182.6440  178.2910  140.9550 O   0  0  0  0  0  0  0  0  0  0  0  0
  183.8960  178.3090  141.0830 C   0  0  0  0  0  0  0  0  0  0  0  0
  1 18  1  6  0  0  0
  1 11  1  0  0  0  0
  2 17  1  0  0  0  0
  3  6  1  0  0  0  0
  4  8  1  0  0  0  0
  5 29  1  0  0  0  0
  6 27  1  6  0  0  0
  8 15  2  0  0  0  0
  9  3  1  1  0  0  0
 10 21  1  0  0  0  0
 10  2  1  1  0  0  0
 12  7  1  6  0  0  0
 12 25  1  0  0  0  0
 13 23  1  1  0  0  0
 13  9  1  0  0  0  0
 14 36  1  6  0  0  0
 14  5  1  0  0  0  0
 14  1  1  0  0  0  0
 15 19  1  0  0  0  0
 16 15  1  0  0  0  0
 16 30  1  0  0  0  0
 19 33  1  6  0  0  0
 19 28  1  0  0  0  0
 20 18  1  6  0  0  0
 20 11  1  0  0  0  0
 20 13  1  0  0  0  0
 21 28  1  6  0  0  0
 21  2  1  0  0  0  0
 22 16  2  0  0  0  0
 24 13  1  0  0  0  0
 24 26  1  0  0  0  0
 25  4  1  0  0  0  0
 26 31  2  0  0  0  0
 26  9  1  0  0  0  0
 29 12  1  0  0  0  0
 30 34  1  0  0  0  0
 32 23  1  1  0  0  0
 32 35  1  0  0  0  0
 32  6  1  0  0  0  0
 33 35  2  0  0  0  0
 34 52  1  6  0  0  0
 34 10  1  0  0  0  0
 37 38  2  0  0  0  0
 37 36  1  0  0  0  0
 39 40  1  0  0  0  0
 39 37  1  0  0  0  0
 40 42  1  0  0  0  0
 42 41  2  0  0  0  0
 43 44  1  0  0  0  0
 44 48  1  0  0  0  0
 46 42  1  6  0  0  0
 46 48  1  0  0  0  0
 47 43  1  0  0  0  0
 48 45  1  1  0  0  0
 49 50  1  0  0  0  0
 49 47  1  0  0  0  0
 50 46  1  0  0  0  0
 52 51  2  0  0  0  0
 53 51  1  0  0  0  0
 54 53  1  0  0  0  0
 55 54  1  0  0  0  0
 56 59  1  0  0  0  0
 57 55  1  0  0  0  0
 58 59  2  0  0  0  0
 59 57  1  0  0  0  0
M  END
>  <MODEL>
5

>  <REMARK>
 VINA RESULT:      -5.8      1.882      2.483
  Name = 
  9 active torsions:
  status: ('A' for Active; 'I' for Inactive)
    1  A    between atoms: C_1  and  C_13
    2  A    between atoms: C_1  and  C_16
    3  A    between atoms: C_8  and  C_43
    4  A    between atoms: N_11  and  C_27
    5  A    between atoms: C_14  and  C_23
    6  A    between atoms: C_16  and  C_54
    7  A    between atoms: N_18  and  C_23
    8  A    between atoms: N_26  and  C_54
    9  A    between atoms: C_55  and  C_57
                            x       y       z     vdW  Elec       q    Type
                         _______ _______ _______ _____ _____    ______ ____

>  <TORSDO>
F 9

$$$$
=
 OpenBabel11042419093D

 59 65  0  0  1  0  0  0  0  0999 V2000
  194.5070  172.4320  144.6200 C   0  0  2  0  0  3  0  0  0  0  0  0
  194.3560  168.9270  136.3070 N   0  0  0  0  0  0  0  0  0  0  0  0
  197.6870  168.8040  144.4000 C   0  0  0  0  0  2  0  0  0  0  0  0
  193.1670  173.4700  138.8920 C   0  0  0  0  0  2  0  0  0  0  0  0
  194.7730  174.4470  143.1370 C   0  0  0  0  0  2  0  0  0  0  0  0
  196.9690  168.9920  143.0820 C   0  0  2  0  0  3  0  0  0  0  0  0
  193.4750  176.1800  141.0650 O   0  0  0  0  0  1  0  0  0  0  0  0
  193.7170  172.1590  139.3570 C   0  0  0  0  0  3  0  0  0  0  0  0
  197.0190  169.1010  145.5000 C   0  0  1  0  0  3  0  0  0  0  0  0
  193.5970  170.0920  136.8390 C   0  0  2  0  0  3  0  0  0  0  0  0
  195.8290  171.8320  144.5670 N   0  0  0  0  0  2  0  0  0  0  0  0
  193.6220  174.8000  140.9550 C   0  0  2  0  0  3  0  0  0  0  0  0
  195.7030  169.6130  145.7100 C   0  0  1  0  0  0  0  0  0  0  0  0
  194.6440  173.9540  144.5790 C   0  0  1  0  0  3  0  0  0  0  0  0
  193.0000  171.0320  139.4390 C   0  0  0  0  0  0  0  0  0  0  0  0
  191.6120  170.9690  138.9310 C   0  0  0  0  0  0  0  0  0  0  0  0
  193.5800  168.1660  135.3400 C   0  0  0  0  0  1  0  0  0  0  0  0
  194.0070  171.7720  146.2450 S   0  0  0  0  0  0  0  0  0  0  0  0
  193.6590  169.7530  139.8980 C   0  0  1  0  0  3  0  0  0  0  0  0
  195.6730  171.1580  145.8470 C   0  0  2  0  0  3  0  0  0  0  0  0
  193.6420  168.8450  137.5910 C   0  0  2  0  0  3  0  0  0  0  0  0
  190.6720  171.1730  139.7440 O   0  0  0  0  0  0  0  0  0  0  0  0
  194.8180  169.0410  144.5840 C   0  0  0  0  0  2  0  0  0  0  0  0
  195.5280  169.0110  146.9920 N   0  0  0  0  0  2  0  0  0  0  0  0
  192.5480  174.2410  140.0470 C   0  0  0  0  0  2  0  0  0  0  0  0
  196.9620  168.7010  146.9410 C   0  0  0  0  0  0  0  0  0  0  0  0
  197.6470  169.9300  142.3050 O   0  0  0  0  0  1  0  0  0  0  0  0
  194.5170  169.1320  138.7950 C   0  0  0  0  0  2  0  0  0  0  0  0
  193.5160  174.1630  142.3240 C   0  0  0  0  0  2  0  0  0  0  0  0
  191.2750  170.6530  137.5640 N   0  0  0  0  0  2  0  0  0  0  0  0
  197.7900  168.1960  147.7480 O   0  0  0  0  0  0  0  0  0  0  0  0
  195.4740  169.3980  143.2270 C   0  0  2  0  0  3  0  0  0  0  0  0
  194.4680  169.9860  141.1330 C   0  0  0  0  0  3  0  0  0  0  0  0
  192.1440  170.2890  136.4310 C   0  0  1  0  0  3  0  0  0  0  0  0
  194.6540  169.0380  142.0380 C   0  0  0  0  0  3  0  0  0  0  0  0
  193.5500  174.6380  145.2480 N   0  0  0  0  0  2  0  0  0  0  0  0
  193.7750  175.8090  146.0240 C   0  0  0  0  0  0  0  0  0  0  0  0
  194.9360  176.1120  146.4090 O   0  0  0  0  0  0  0  0  0  0  0  0
  192.6430  176.7120  146.3420 C   0  0  0  0  0  2  0  0  0  0  0  0
  191.4520  176.3170  145.6060 N   0  0  0  0  0  2  0  0  0  0  0  0
  190.4900  175.2820  147.4670 O   0  0  0  0  0  0  0  0  0  0  0  0
  190.3970  175.5950  146.2450 C   0  0  0  0  0  0  0  0  0  0  0  0
  188.0100  175.7590  142.5060 C   0  0  0  0  0  2  0  0  0  0  0  0
  187.4150  176.1770  143.8620 C   0  0  0  0  0  2  0  0  0  0  0  0
  187.7930  177.2940  146.0440 C   0  0  0  0  0  1  0  0  0  0  0  0
  189.1390  175.2560  145.4990 C   0  0  1  0  0  3  0  0  0  0  0  0
  189.5390  175.6910  142.4920 C   0  0  0  0  0  2  0  0  0  0  0  0
  188.4560  176.5090  144.9300 C   0  0  1  0  0  3  0  0  0  0  0  0
  190.0850  174.4670  143.2230 C   0  0  0  0  0  2  0  0  0  0  0  0
  189.3300  174.0990  144.5070 C   0  0  0  0  0  2  0  0  0  0  0  0
  191.7670  172.5880  135.6440 C   0  0  0  0  0  3  0  0  0  0  0  0
  192.0670  171.3250  135.3590 C   0  0  0  0  0  3  0  0  0  0  0  0
  191.6270  173.6180  134.5720 C   0  0  0  0  0  2  0  0  0  0  0  0
  190.8170  174.8060  135.0590 C   0  0  0  0  0  2  0  0  0  0  0  0
  189.3460  174.4900  134.9140 C   0  0  0  0  0  2  0  0  0  0  0  0
  186.8180  176.0740  137.4000 C   0  0  0  0  0  1  0  0  0  0  0  0
  188.6160  174.8630  136.1100 N   0  0  0  0  0  2  0  0  0  0  0  0
  187.0830  176.2800  135.0520 O   0  0  0  0  0  0  0  0  0  0  0  0
  187.5060  175.7590  136.1170 C   0  0  0  0  0  0  0  0  0  0  0  0
  1 11  1  1  0  0  0
  1 18  1  0  0  0  0
  2 21  1  0  0  0  0
  4  8  1  0  0  0  0
  4 25  1  0  0  0  0
  5 14  1  0  0  0  0
  6 27  1  6  0  0  0
  6 32  1  0  0  0  0
  6  3  1  0  0  0  0
  8 15  2  0  0  0  0
  9  3  1  6  0  0  0
  9 13  1  0  0  0  0
  9 26  1  0  0  0  0
 10  2  1  6  0  0  0
 10 21  1  0  0  0  0
 12  7  1  1  0  0  0
 12 29  1  0  0  0  0
 13 23  1  6  0  0  0
 13 20  1  0  0  0  0
 13 24  1  0  0  0  0
 14  1  1  0  0  0  0
 14 36  1  6  0  0  0
 15 19  1  0  0  0  0
 16 15  1  0  0  0  0
 16 22  2  0  0  0  0
 17  2  1  0  0  0  0
 19 28  1  6  0  0  0
 19 33  1  0  0  0  0
 20 11  1  6  0  0  0
 20 18  1  0  0  0  0
 21 28  1  1  0  0  0
 25 12  1  0  0  0  0
 26 24  1  0  0  0  0
 26 31  2  0  0  0  0
 29  5  1  0  0  0  0
 30 16  1  0  0  0  0
 32 35  1  6  0  0  0
 32 23  1  0  0  0  0
 33 35  2  0  0  0  0
 34 52  1  6  0  0  0
 34 10  1  0  0  0  0
 34 30  1  0  0  0  0
 36 37  1  0  0  0  0
 37 39  1  0  0  0  0
 37 38  2  0  0  0  0
 40 42  1  0  0  0  0
 40 39  1  0  0  0  0
 42 41  2  0  0  0  0
 43 44  1  0  0  0  0
 44 48  1  0  0  0  0
 46 42  1  6  0  0  0
 47 43  1  0  0  0  0
 47 49  1  0  0  0  0
 48 46  1  0  0  0  0
 48 45  1  1  0  0  0
 49 50  1  0  0  0  0
 50 46  1  0  0  0  0
 52 51  2  0  0  0  0
 53 54  1  0  0  0  0
 53 51  1  0  0  0  0
 55 54  1  0  0  0  0
 55 57  1  0  0  0  0
 57 59  1  0  0  0  0
 58 59  2  0  0  0  0
 59 56  1  0  0  0  0
M  END
>  <MODEL>
6

>  <REMARK>
 VINA RESULT:      -5.7      2.893      8.994
  Name = 
  9 active torsions:
  status: ('A' for Active; 'I' for Inactive)
    1  A    between atoms: C_1  and  C_13
    2  A    between atoms: C_1  and  C_16
    3  A    between atoms: C_8  and  C_43
    4  A    between atoms: N_11  and  C_27
    5  A    between atoms: C_14  and  C_23
    6  A    between atoms: C_16  and  C_54
    7  A    between atoms: N_18  and  C_23
    8  A    between atoms: N_26  and  C_54
    9  A    between atoms: C_55  and  C_57
                            x       y       z     vdW  Elec       q    Type
                         _______ _______ _______ _____ _____    ______ ____

>  <TORSDO>
F 9

$$$$
=
 OpenBabel11042419093D

 59 65  0  0  1  0  0  0  0  0999 V2000
  191.7630  172.2390  138.0460 C   0  0  2  0  0  3  0  0  0  0  0  0
  196.3730  173.2070  145.7420 N   0  0  0  0  0  0  0  0  0  0  0  0
  195.6120  169.3240  137.9350 C   0  0  0  0  0  2  0  0  0  0  0  0
  191.4380  173.9120  143.7700 C   0  0  0  0  0  2  0  0  0  0  0  0
  190.0000  171.9500  139.8170 C   0  0  0  0  0  2  0  0  0  0  0  0
  195.5570  170.1200  139.2200 C   0  0  2  0  0  3  0  0  0  0  0  0
  188.4820  173.2760  142.0340 O   0  0  0  0  0  1  0  0  0  0  0  0
  192.7090  173.4170  143.1560 C   0  0  0  0  0  3  0  0  0  0  0  0
  195.1150  169.8920  136.8500 C   0  0  1  0  0  3  0  0  0  0  0  0
  195.0920  173.8490  145.3380 C   0  0  2  0  0  3  0  0  0  0  0  0
  192.4610  170.9650  138.0920 N   0  0  0  0  0  2  0  0  0  0  0  0
  189.8710  173.2270  141.9530 C   0  0  2  0  0  3  0  0  0  0  0  0
  194.4830  171.1530  136.6360 C   0  0  1  0  0  0  0  0  0  0  0  0
  190.2770  172.0070  138.3140 C   0  0  1  0  0  3  0  0  0  0  0  0
  193.7570  174.1970  142.8680 C   0  0  0  0  0  0  0  0  0  0  0  0
  193.7870  175.6200  143.2770 C   0  0  0  0  0  0  0  0  0  0  0  0
  197.2020  174.0970  146.5390 C   0  0  0  0  0  1  0  0  0  0  0  0
  192.1510  172.6640  136.3150 S   0  0  0  0  0  0  0  0  0  0  0  0
  195.0040  173.5920  142.2710 C   0  0  1  0  0  3  0  0  0  0  0  0
  192.9370  171.0740  136.7210 C   0  0  2  0  0  3  0  0  0  0  0  0
  196.2220  173.8310  144.4180 C   0  0  2  0  0  3  0  0  0  0  0  0
  193.4020  176.4840  142.4460 O   0  0  0  0  0  0  0  0  0  0  0  0
  195.1400  172.1520  137.6110 C   0  0  0  0  0  2  0  0  0  0  0  0
  194.8860  171.2760  135.2720 N   0  0  0  0  0  2  0  0  0  0  0  0
  190.4700  174.3970  142.7040 C   0  0  0  0  0  2  0  0  0  0  0  0
  195.3050  169.8720  135.3660 C   0  0  0  0  0  0  0  0  0  0  0  0
  194.7900  169.4400  140.1630 O   0  0  0  0  0  1  0  0  0  0  0  0
  195.8350  172.8570  143.3240 C   0  0  0  0  0  2  0  0  0  0  0  0
  190.3010  173.2760  140.5020 C   0  0  0  0  0  2  0  0  0  0  0  0
  194.2660  176.0720  144.5610 N   0  0  0  0  0  2  0  0  0  0  0  0
  195.7530  169.0230  134.5460 O   0  0  0  0  0  0  0  0  0  0  0  0
  195.0250  171.5720  139.0430 C   0  0  2  0  0  3  0  0  0  0  0  0
  194.6630  172.6830  141.1340 C   0  0  0  0  0  3  0  0  0  0  0  0
  194.8470  175.3120  145.6800 C   0  0  1  0  0  3  0  0  0  0  0  0
  195.4850  172.4960  140.1160 C   0  0  0  0  0  3  0  0  0  0  0  0
  189.4260  173.0050  137.6850 N   0  0  0  0  0  2  0  0  0  0  0  0
  188.1900  173.3980  138.2700 C   0  0  0  0  0  0  0  0  0  0  0  0
  187.6500  172.6930  139.1650 O   0  0  0  0  0  0  0  0  0  0  0  0
  187.5540  174.6730  137.8640 C   0  0  0  0  0  2  0  0  0  0  0  0
  187.5750  175.6270  138.9610 N   0  0  0  0  0  2  0  0  0  0  0  0
  185.7470  176.8200  138.1270 O   0  0  0  0  0  0  0  0  0  0  0  0
  186.6230  176.6910  139.0310 C   0  0  0  0  0  0  0  0  0  0  0  0
  186.0560  177.3470  143.3840 C   0  0  0  0  0  2  0  0  0  0  0  0
  185.3340  178.2120  142.3370 C   0  0  0  0  0  2  0  0  0  0  0  0
  184.1920  178.2950  140.1370 C   0  0  0  0  0  1  0  0  0  0  0  0
  186.6020  177.6270  140.2040 C   0  0  1  0  0  3  0  0  0  0  0  0
  186.6240  176.0390  142.8250 C   0  0  0  0  0  2  0  0  0  0  0  0
  185.2570  177.5840  140.9470 C   0  0  1  0  0  3  0  0  0  0  0  0
  187.8800  176.2490  141.9840 C   0  0  0  0  0  2  0  0  0  0  0  0
  187.8500  177.4960  141.0900 C   0  0  0  0  0  2  0  0  0  0  0  0
  192.6490  175.5110  146.7650 C   0  0  0  0  0  3  0  0  0  0  0  0
  193.9680  175.3980  146.8840 C   0  0  0  0  0  3  0  0  0  0  0  0
  191.7670  175.6590  147.9610 C   0  0  0  0  0  2  0  0  0  0  0  0
  190.3330  175.2870  147.6310 C   0  0  0  0  0  2  0  0  0  0  0  0
  189.6540  176.4740  146.9860 C   0  0  0  0  0  2  0  0  0  0  0  0
  185.7850  176.7850  146.8600 C   0  0  0  0  0  1  0  0  0  0  0  0
  188.2400  176.2150  146.7860 N   0  0  0  0  0  2  0  0  0  0  0  0
  187.4780  178.2760  147.5910 O   0  0  0  0  0  0  0  0  0  0  0  0
  187.2080  177.1440  147.1100 C   0  0  0  0  0  0  0  0  0  0  0  0
  1 18  1  6  0  0  0
  1 11  1  0  0  0  0
  1 14  1  0  0  0  0
  2 17  1  0  0  0  0
  3  6  1  0  0  0  0
  5 29  1  0  0  0  0
  6 27  1  1  0  0  0
  8  4  1  0  0  0  0
  9  3  1  1  0  0  0
 10 34  1  0  0  0  0
 10  2  1  1  0  0  0
 12  7  1  6  0  0  0
 12 25  1  0  0  0  0
 13 20  1  0  0  0  0
 13  9  1  0  0  0  0
 13 23  1  1  0  0  0
 14 36  1  1  0  0  0
 14  5  1  0  0  0  0
 15  8  2  0  0  0  0
 15 16  1  0  0  0  0
 16 30  1  0  0  0  0
 19 33  1  6  0  0  0
 19 15  1  0  0  0  0
 19 28  1  0  0  0  0
 20 18  1  1  0  0  0
 20 11  1  0  0  0  0
 21 28  1  6  0  0  0
 21 10  1  0  0  0  0
 21  2  1  0  0  0  0
 22 16  2  0  0  0  0
 24 26  1  0  0  0  0
 24 13  1  0  0  0  0
 25  4  1  0  0  0  0
 26  9  1  0  0  0  0
 29 12  1  0  0  0  0
 30 34  1  0  0  0  0
 31 26  2  0  0  0  0
 32 23  1  6  0  0  0
 32  6  1  0  0  0  0
 32 35  1  0  0  0  0
 34 52  1  1  0  0  0
 35 33  2  0  0  0  0
 36 37  1  0  0  0  0
 37 38  2  0  0  0  0
 39 37  1  0  0  0  0
 39 40  1  0  0  0  0
 40 42  1  0  0  0  0
 41 42  2  0  0  0  0
 44 43  1  0  0  0  0
 46 42  1  6  0  0  0
 46 48  1  0  0  0  0
 46 50  1  0  0  0  0
 47 43  1  0  0  0  0
 48 45  1  6  0  0  0
 48 44  1  0  0  0  0
 49 47  1  0  0  0  0
 50 49  1  0  0  0  0
 51 52  2  0  0  0  0
 51 53  1  0  0  0  0
 54 53  1  0  0  0  0
 55 54  1  0  0  0  0
 56 59  1  0  0  0  0
 57 55  1  0  0  0  0
 57 59  1  0  0  0  0
 59 58  2  0  0  0  0
M  END
>  <MODEL>
7

>  <REMARK>
 VINA RESULT:      -5.7      2.806      5.283
  Name = 
  9 active torsions:
  status: ('A' for Active; 'I' for Inactive)
    1  A    between atoms: C_1  and  C_13
    2  A    between atoms: C_1  and  C_16
    3  A    between atoms: C_8  and  C_43
    4  A    between atoms: N_11  and  C_27
    5  A    between atoms: C_14  and  C_23
    6  A    between atoms: C_16  and  C_54
    7  A    between atoms: N_18  and  C_23
    8  A    between atoms: N_26  and  C_54
    9  A    between atoms: C_55  and  C_57
                            x       y       z     vdW  Elec       q    Type
                         _______ _______ _______ _____ _____    ______ ____

>  <TORSDO>
F 9

$$$$
=
 OpenBabel11042419093D

 59 65  0  0  1  0  0  0  0  0999 V2000
  194.0880  172.3470  144.8420 C   0  0  2  0  0  3  0  0  0  0  0  0
  193.5260  169.5100  136.2960 N   0  0  0  0  0  0  0  0  0  0  0  0
  197.5140  169.0310  144.0730 C   0  0  0  0  0  2  0  0  0  0  0  0
  192.2030  173.7170  139.3430 C   0  0  0  0  0  2  0  0  0  0  0  0
  194.0710  174.4890  143.5210 C   0  0  0  0  0  2  0  0  0  0  0  0
  196.6770  169.2610  142.8340 C   0  0  2  0  0  3  0  0  0  0  0  0
  192.4750  176.2640  141.7090 O   0  0  0  0  0  1  0  0  0  0  0  0
  192.8900  172.4250  139.6510 C   0  0  0  0  0  3  0  0  0  0  0  0
  196.9170  169.1830  145.2420 C   0  0  1  0  0  3  0  0  0  0  0  0
  192.7260  170.5600  136.9820 C   0  0  2  0  0  3  0  0  0  0  0  0
  195.4450  171.8680  144.6380 N   0  0  0  0  0  2  0  0  0  0  0  0
  192.7210  174.9130  141.4710 C   0  0  2  0  0  3  0  0  0  0  0  0
  195.5880  169.5630  145.5940 C   0  0  1  0  0  0  0  0  0  0  0  0
  194.1020  173.8740  144.9210 C   0  0  1  0  0  3  0  0  0  0  0  0
  192.2730  171.2380  139.6910 C   0  0  0  0  0  0  0  0  0  0  0  0
  190.8570  171.0970  139.2850 C   0  0  0  0  0  0  0  0  0  0  0  0
  192.7360  168.7640  135.3290 C   0  0  0  0  0  1  0  0  0  0  0  0
  193.7770  171.5210  146.4390 S   0  0  0  0  0  0  0  0  0  0  0  0
  193.0660  169.9880  139.9870 C   0  0  1  0  0  3  0  0  0  0  0  0
  195.4480  171.0840  145.8640 C   0  0  2  0  0  3  0  0  0  0  0  0
  192.9300  169.2660  137.6180 C   0  0  2  0  0  3  0  0  0  0  0  0
  189.9750  171.1560  140.1820 O   0  0  0  0  0  0  0  0  0  0  0  0
  194.6600  169.0080  144.4940 C   0  0  0  0  0  2  0  0  0  0  0  0
  195.5660  168.8490  146.8300 N   0  0  0  0  0  2  0  0  0  0  0  0
  191.6230  174.3390  140.6020 C   0  0  0  0  0  2  0  0  0  0  0  0
  197.0110  168.6670  146.6430 C   0  0  0  0  0  0  0  0  0  0  0  0
  197.2130  170.3120  142.0910 O   0  0  0  0  0  1  0  0  0  0  0  0
  193.8760  169.5310  138.7730 C   0  0  0  0  0  2  0  0  0  0  0  0
  192.7790  174.1640  142.7850 C   0  0  0  0  0  2  0  0  0  0  0  0
  190.4350  170.8630  137.9250 N   0  0  0  0  0  2  0  0  0  0  0  0
  197.9410  168.1720  147.3400 O   0  0  0  0  0  0  0  0  0  0  0  0
  195.1720  169.5260  143.1260 C   0  0  2  0  0  3  0  0  0  0  0  0
  193.9540  170.1900  141.1730 C   0  0  0  0  0  3  0  0  0  0  0  0
  191.2320  170.6640  136.7030 C   0  0  1  0  0  3  0  0  0  0  0  0
  194.2870  169.1930  141.9760 C   0  0  0  0  0  3  0  0  0  0  0  0
  193.0160  174.4080  145.7280 N   0  0  0  0  0  2  0  0  0  0  0  0
  193.1510  175.6400  146.4260 C   0  0  0  0  0  0  0  0  0  0  0  0
  194.2880  176.1470  146.6220 O   0  0  0  0  0  0  0  0  0  0  0  0
  191.9410  176.3640  146.8840 C   0  0  0  0  0  2  0  0  0  0  0  0
  190.7510  175.8280  146.2430 N   0  0  0  0  0  2  0  0  0  0  0  0
  189.7030  177.9140  146.1530 O   0  0  0  0  0  0  0  0  0  0  0  0
  189.6540  176.6760  145.8980 C   0  0  0  0  0  0  0  0  0  0  0  0
  186.4180  177.2290  142.9100 C   0  0  0  0  0  2  0  0  0  0  0  0
  186.1260  176.7150  144.3300 C   0  0  0  0  0  2  0  0  0  0  0  0
  186.6620  176.8620  146.7470 C   0  0  0  0  0  1  0  0  0  0  0  0
  188.4610  176.1290  145.1690 C   0  0  1  0  0  3  0  0  0  0  0  0
  187.7870  177.9000  142.7610 C   0  0  0  0  0  2  0  0  0  0  0  0
  187.2230  177.0220  145.3480 C   0  0  1  0  0  3  0  0  0  0  0  0
  188.9390  176.8990  142.7450 C   0  0  0  0  0  2  0  0  0  0  0  0
  188.7820  175.7270  143.7220 C   0  0  0  0  0  2  0  0  0  0  0  0
  191.9380  172.6520  135.4380 C   0  0  0  0  0  3  0  0  0  0  0  0
  190.9860  171.7720  135.7320 C   0  0  0  0  0  3  0  0  0  0  0  0
  191.6830  173.7980  134.5150 C   0  0  0  0  0  2  0  0  0  0  0  0
  191.8480  175.1240  135.2340 C   0  0  0  0  0  2  0  0  0  0  0  0
  193.3200  175.4580  135.3160 C   0  0  0  0  0  2  0  0  0  0  0  0
  195.6490  174.9690  138.3850 C   0  0  0  0  0  1  0  0  0  0  0  0
  193.8360  175.2000  136.6470 N   0  0  0  0  0  2  0  0  0  0  0  0
  196.0930  175.5310  136.1240 O   0  0  0  0  0  0  0  0  0  0  0  0
  195.2210  175.2450  136.9860 C   0  0  0  0  0  0  0  0  0  0  0  0
  1 11  1  1  0  0  0
  1 14  1  0  0  0  0
  1 18  1  0  0  0  0
  2 21  1  0  0  0  0
  4  8  1  0  0  0  0
  4 25  1  0  0  0  0
  5 14  1  0  0  0  0
  6 27  1  1  0  0  0
  6 32  1  0  0  0  0
  6  3  1  0  0  0  0
  8 15  2  0  0  0  0
  9  3  1  6  0  0  0
  9 13  1  0  0  0  0
  9 26  1  0  0  0  0
 10  2  1  6  0  0  0
 10 21  1  0  0  0  0
 12  7  1  1  0  0  0
 12 29  1  0  0  0  0
 13 23  1  6  0  0  0
 13 20  1  0  0  0  0
 13 24  1  0  0  0  0
 14 36  1  1  0  0  0
 15 19  1  0  0  0  0
 16 15  1  0  0  0  0
 16 22  2  0  0  0  0
 17  2  1  0  0  0  0
 19 28  1  6  0  0  0
 19 33  1  0  0  0  0
 20 11  1  6  0  0  0
 20 18  1  0  0  0  0
 21 28  1  1  0  0  0
 25 12  1  0  0  0  0
 26 24  1  0  0  0  0
 26 31  2  0  0  0  0
 29  5  1  0  0  0  0
 30 16  1  0  0  0  0
 32 35  1  6  0  0  0
 32 23  1  0  0  0  0
 33 35  2  0  0  0  0
 34 52  1  6  0  0  0
 34 10  1  0  0  0  0
 34 30  1  0  0  0  0
 36 37  1  0  0  0  0
 37 38  2  0  0  0  0
 37 39  1  0  0  0  0
 40 39  1  0  0  0  0
 42 41  2  0  0  0  0
 42 40  1  0  0  0  0
 43 44  1  0  0  0  0
 44 48  1  0  0  0  0
 46 48  1  0  0  0  0
 46 42  1  6  0  0  0
 47 43  1  0  0  0  0
 48 45  1  1  0  0  0
 49 47  1  0  0  0  0
 49 50  1  0  0  0  0
 50 46  1  0  0  0  0
 51 52  2  0  0  0  0
 53 54  1  0  0  0  0
 53 51  1  0  0  0  0
 54 55  1  0  0  0  0
 55 57  1  0  0  0  0
 57 59  1  0  0  0  0
 58 59  2  0  0  0  0
 59 56  1  0  0  0  0
M  END
>  <MODEL>
8

>  <REMARK>
 VINA RESULT:      -5.4      2.791      9.244
  Name = 
  9 active torsions:
  status: ('A' for Active; 'I' for Inactive)
    1  A    between atoms: C_1  and  C_13
    2  A    between atoms: C_1  and  C_16
    3  A    between atoms: C_8  and  C_43
    4  A    between atoms: N_11  and  C_27
    5  A    between atoms: C_14  and  C_23
    6  A    between atoms: C_16  and  C_54
    7  A    between atoms: N_18  and  C_23
    8  A    between atoms: N_26  and  C_54
    9  A    between atoms: C_55  and  C_57
                            x       y       z     vdW  Elec       q    Type
                         _______ _______ _______ _____ _____    ______ ____

>  <TORSDO>
F 9

$$$$
