=
 OpenBabel11042414353D

 46 51  0  0  1  0  0  0  0  0999 V2000
  191.2050  169.5770  139.9310 C   0  0  0  0  0  0  0  0  0  0  0  0
  191.1520  171.9010  137.3100 C   0  0  0  0  0  0  0  0  0  0  0  0
  191.1880  172.0950  135.8980 N   0  0  0  0  0  1  0  0  0  0  0  0
  190.8410  172.4580  141.0310 C   0  0  0  0  0  0  0  0  0  0  0  0
  191.4890  168.4060  139.2350 O   0  0  0  0  0  1  0  0  0  0  0  0
  190.8300  169.3980  141.3430 C   0  0  0  0  0  3  0  0  0  0  0  0
  191.3500  171.6460  142.1000 N   0  0  0  0  0  0  0  0  0  0  0  0
  190.8930  170.3070  142.3080 C   0  0  0  0  0  3  0  0  0  0  0  0
  191.3590  170.7040  137.8960 N   0  0  0  0  0  0  0  0  0  0  0  0
  191.2000  170.7400  139.2500 C   0  0  0  0  0  0  0  0  0  0  0  0
  190.8940  172.0320  139.7530 C   0  0  0  0  0  0  0  0  0  0  0  0
  190.7320  173.0700  138.4220 S   0  0  0  0  0  0  0  0  0  0  0  0
  194.7400  172.1630  142.9960 C   0  0  0  0  0  2  0  0  0  0  0  0
  192.4870  172.1260  142.8850 C   0  0  1  0  0  3  0  0  0  0  0  0
  194.7210  172.2810  144.4970 C   0  0  0  0  0  0  0  0  0  0  0  0
  195.7610  172.2120  145.1260 O   0  0  0  0  0  0  0  0  0  0  0  0
  192.2260  172.0250  144.3950 C   0  0  0  0  0  2  0  0  0  0  0  0
  193.6450  171.3990  142.5510 O   0  0  0  0  0  0  0  0  0  0  0  0
  193.4160  172.5610  145.1970 C   0  0  2  0  0  3  0  0  0  0  0  0
  193.2380  174.0530  145.4310 C   0  0  0  0  0  2  0  0  0  0  0  0
  194.5910  174.7480  145.3340 C   0  0  0  0  0  2  0  0  0  0  0  0
  194.4770  177.0280  146.1690 C   0  0  0  0  0  1  0  0  0  0  0  0
  193.2540  176.5870  144.1340 C   0  0  0  0  0  1  0  0  0  0  0  0
  194.5310  176.2220  144.8870 C   0  0  0  0  0  0  0  0  0  0  0  0
  195.7010  176.6420  144.2020 O   0  0  0  0  0  0  0  0  0  0  0  0
  194.3540  175.3230  142.1340 O   0  0  0  0  0  1  0  0  0  0  0  0
  196.8960  174.9630  142.6060 O   0  0  0  0  0  1  0  0  0  0  0  0
  196.2690  177.2200  141.4970 O   0  0  0  0  0  0  0  0  0  0  0  0
  195.8270  176.0230  142.6050 P   0  0  0  0  0  0  0  0  0  0  0  0
  188.4260  175.2550  141.0120 O   0  0  0  0  0  1  0  0  0  0  0  0
  190.3260  173.8620  141.2970 C   0  0  1  0  0  3  0  0  0  0  0  0
  188.8170  173.9670  141.3830 C   0  0  1  0  0  3  0  0  0  0  0  0
  189.6640  173.9590  142.6550 C   0  0  2  0  0  3  0  0  0  0  0  0
  189.9360  175.3390  143.2360 C   0  0  0  0  0  2  0  0  0  0  0  0
  189.3310  175.4710  144.5910 C   0  0  0  0  0  0  0  0  0  0  0  0
  189.1660  174.7540  146.8830 C   0  0  0  0  0  3  0  0  0  0  0  0
  189.7470  174.6290  145.6220 C   0  0  0  0  0  3  0  0  0  0  0  0
  187.7620  176.5190  146.0340 C   0  0  0  0  0  0  0  0  0  0  0  0
  188.3520  176.3830  144.8190 N   0  0  0  0  0  0  0  0  0  0  0  0
  188.1740  175.7080  147.0980 C   0  0  0  0  0  3  0  0  0  0  0  0
  186.7420  177.5960  146.2270 C   0  0  2  0  0  3  0  0  0  0  0  0
  184.4160  177.9400  145.9150 C   0  0  0  0  0  2  0  0  0  0  0  0
  185.3970  177.0050  146.5660 C   0  0  0  0  0  2  0  0  0  0  0  0
  184.8170  179.8570  144.5750 O   0  0  0  0  0  1  0  0  0  0  0  0
  186.6010  178.4320  145.0360 N   0  0  0  0  0  2  0  0  0  0  0  0
  185.1780  178.5240  144.7480 C   0  0  1  0  0  3  0  0  0  0  0  0
  1  6  1  0  0  0  0
  2  9  2  0  0  0  0
  2 12  1  0  0  0  0
  3  2  1  0  0  0  0
  4  7  1  0  0  0  0
  5  1  1  0  0  0  0
  6  8  2  0  0  0  0
  7  8  1  0  0  0  0
  9 10  1  0  0  0  0
 10 11  1  0  0  0  0
 10  1  2  0  0  0  0
 11  4  2  0  0  0  0
 12 11  1  0  0  0  0
 13 15  1  0  0  0  0
 14  7  1  6  0  0  0
 14 17  1  0  0  0  0
 15 16  2  0  0  0  0
 15 19  1  0  0  0  0
 17 19  1  0  0  0  0
 18 14  1  0  0  0  0
 18 13  1  0  0  0  0
 19 20  1  6  0  0  0
 21 20  1  0  0  0  0
 23 24  1  0  0  0  0
 24 21  1  0  0  0  0
 24 22  1  0  0  0  0
 25 24  1  0  0  0  0
 26 29  1  0  0  0  0
 28 29  2  0  0  0  0
 29 27  1  0  0  0  0
 29 25  1  0  0  0  0
 31  4  1  1  0  0  0
 31 32  1  0  0  0  0
 31 33  1  0  0  0  0
 32 30  1  6  0  0  0
 32 33  1  0  0  0  0
 33 34  1  6  0  0  0
 34 35  1  0  0  0  0
 35 39  2  0  0  0  0
 35 37  1  0  0  0  0
 36 40  1  0  0  0  0
 37 36  2  0  0  0  0
 38 40  2  0  0  0  0
 39 38  1  0  0  0  0
 41 38  1  6  0  0  0
 41 43  1  0  0  0  0
 42 43  1  0  0  0  0
 45 41  1  0  0  0  0
 46 44  1  1  0  0  0
 46 45  1  0  0  0  0
 46 42  1  0  0  0  0
M  END
>  <MODEL>
1

>  <REMARK>
 VINA RESULT:      -7.8      0.000      0.000
  Name = 
  10 active torsions:
  status: ('A' for Active; 'I' for Inactive)
    1  A    between atoms: C_6  and  C_15
    2  A    between atoms: C_6  and  C_44
    3  A    between atoms: C_8  and  C_17
    4  A    between atoms: C_10  and  N_31
    5  A    between atoms: C_12  and  C_32
    6  A    between atoms: C_13  and  C_14
    7  A    between atoms: C_15  and  C_46
    8  A    between atoms: C_17  and  C_23
    9  A    between atoms: P_35  and  O_43
   10  A    between atoms: O_43  and  C_44
                            x       y       z     vdW  Elec       q    Type
                         _______ _______ _______ _____ _____    ______ ____

>  <TORSDO>
F 10

$$$$
=
 OpenBabel11042414353D

 46 51  0  0  1  0  0  0  0  0999 V2000
  195.3820  176.2660  143.9120 C   0  0  0  0  0  0  0  0  0  0  0  0
  195.9060  174.2000  141.1320 C   0  0  0  0  0  0  0  0  0  0  0  0
  196.7730  173.8660  140.0510 N   0  0  0  0  0  1  0  0  0  0  0  0
  193.0920  174.1860  143.6490 C   0  0  0  0  0  0  0  0  0  0  0  0
  196.4320  177.1690  143.7670 O   0  0  0  0  0  1  0  0  0  0  0  0
  194.6460  176.3520  145.1830 C   0  0  0  0  0  3  0  0  0  0  0  0
  192.5990  175.2760  144.4410 N   0  0  0  0  0  0  0  0  0  0  0  0
  193.4150  175.9180  145.4240 C   0  0  0  0  0  3  0  0  0  0  0  0
  196.1000  175.2690  141.9310 N   0  0  0  0  0  0  0  0  0  0  0  0
  195.1910  175.3480  142.9450 C   0  0  0  0  0  0  0  0  0  0  0  0
  194.2160  174.3150  142.9170 C   0  0  0  0  0  0  0  0  0  0  0  0
  194.6210  173.2690  141.6450 S   0  0  0  0  0  0  0  0  0  0  0  0
  190.1140  176.8870  142.4930 C   0  0  0  0  0  2  0  0  0  0  0  0
  191.3000  175.8660  144.1180 C   0  0  1  0  0  3  0  0  0  0  0  0
  189.2660  177.6230  143.4950 C   0  0  0  0  0  0  0  0  0  0  0  0
  188.4800  178.4740  143.1190 O   0  0  0  0  0  0  0  0  0  0  0  0
  190.7180  176.6560  145.3000 C   0  0  0  0  0  2  0  0  0  0  0  0
  191.4170  176.7050  142.9940 O   0  0  0  0  0  0  0  0  0  0  0  0
  189.3450  177.2390  144.9500 C   0  0  2  0  0  3  0  0  0  0  0  0
  188.2630  176.2310  145.3030 C   0  0  0  0  0  2  0  0  0  0  0  0
  187.6590  176.5860  146.6560 C   0  0  0  0  0  2  0  0  0  0  0  0
  186.1920  177.9950  147.9870 C   0  0  0  0  0  1  0  0  0  0  0  0
  185.1120  176.6370  146.3070 C   0  0  0  0  0  1  0  0  0  0  0  0
  186.3780  177.4420  146.5890 C   0  0  0  0  0  0  0  0  0  0  0  0
  186.5060  178.5650  145.7300 O   0  0  0  0  0  0  0  0  0  0  0  0
  184.9850  177.6370  143.5720 O   0  0  0  0  0  0  0  0  0  0  0  0
  185.3090  180.1790  144.0710 O   0  0  0  0  0  1  0  0  0  0  0  0
  183.7050  178.9180  145.6690 O   0  0  0  0  0  1  0  0  0  0  0  0
  185.1230  178.8500  144.7530 P   0  0  0  0  0  0  0  0  0  0  0  0
  192.3810  170.5860  144.0870 O   0  0  0  0  0  1  0  0  0  0  0  0
  192.3060  172.8910  143.5300 C   0  0  1  0  0  3  0  0  0  0  0  0
  192.6330  171.8620  144.5930 C   0  0  1  0  0  3  0  0  0  0  0  0
  191.3640  172.7070  144.7010 C   0  0  2  0  0  3  0  0  0  0  0  0
  190.1030  172.0110  144.2130 C   0  0  0  0  0  2  0  0  0  0  0  0
  189.7370  172.4750  142.8450 C   0  0  0  0  0  0  0  0  0  0  0  0
  188.5710  174.0100  141.4040 C   0  0  0  0  0  3  0  0  0  0  0  0
  188.9170  173.5910  142.6880 C   0  0  0  0  0  3  0  0  0  0  0  0
  189.8420  172.1770  140.4920 C   0  0  0  0  0  0  0  0  0  0  0  0
  190.1710  171.7970  141.7530 N   0  0  0  0  0  0  0  0  0  0  0  0
  189.0410  173.3090  140.2970 C   0  0  0  0  0  3  0  0  0  0  0  0
  190.4190  171.4240  139.3350 C   0  0  2  0  0  3  0  0  0  0  0  0
  189.7400  169.8230  137.7210 C   0  0  0  0  0  2  0  0  0  0  0  0
  189.3660  171.1640  138.2870 C   0  0  0  0  0  2  0  0  0  0  0  0
  191.5020  168.3590  138.3440 O   0  0  0  0  0  1  0  0  0  0  0  0
  190.9930  170.1450  139.7500 N   0  0  0  0  0  2  0  0  0  0  0  0
  190.4610  169.1300  138.8550 C   0  0  1  0  0  3  0  0  0  0  0  0
  1  6  1  0  0  0  0
  2 12  1  0  0  0  0
  2  9  2  0  0  0  0
  3  2  1  0  0  0  0
  4  7  1  0  0  0  0
  5  1  1  0  0  0  0
  6  8  2  0  0  0  0
  7  8  1  0  0  0  0
  9 10  1  0  0  0  0
 10  1  2  0  0  0  0
 11 10  1  0  0  0  0
 11  4  2  0  0  0  0
 12 11  1  0  0  0  0
 13 18  1  0  0  0  0
 13 15  1  0  0  0  0
 14  7  1  1  0  0  0
 14 17  1  0  0  0  0
 15 19  1  0  0  0  0
 16 15  2  0  0  0  0
 18 14  1  0  0  0  0
 19 17  1  0  0  0  0
 19 20  1  6  0  0  0
 20 21  1  0  0  0  0
 23 24  1  0  0  0  0
 24 21  1  0  0  0  0
 24 22  1  0  0  0  0
 25 24  1  0  0  0  0
 26 29  2  0  0  0  0
 27 29  1  0  0  0  0
 29 28  1  0  0  0  0
 29 25  1  0  0  0  0
 31  4  1  1  0  0  0
 31 32  1  0  0  0  0
 31 33  1  0  0  0  0
 32 30  1  6  0  0  0
 32 33  1  0  0  0  0
 33 34  1  6  0  0  0
 35 34  1  0  0  0  0
 36 37  2  0  0  0  0
 37 35  1  0  0  0  0
 38 39  1  0  0  0  0
 39 35  2  0  0  0  0
 40 38  2  0  0  0  0
 40 36  1  0  0  0  0
 41 45  1  0  0  0  0
 41 38  1  1  0  0  0
 42 43  1  0  0  0  0
 42 46  1  0  0  0  0
 43 41  1  0  0  0  0
 46 44  1  6  0  0  0
 46 45  1  0  0  0  0
M  END
>  <MODEL>
2

>  <REMARK>
 VINA RESULT:      -7.7      2.857      8.134
  Name = 
  10 active torsions:
  status: ('A' for Active; 'I' for Inactive)
    1  A    between atoms: C_6  and  C_15
    2  A    between atoms: C_6  and  C_44
    3  A    between atoms: C_8  and  C_17
    4  A    between atoms: C_10  and  N_31
    5  A    between atoms: C_12  and  C_32
    6  A    between atoms: C_13  and  C_14
    7  A    between atoms: C_15  and  C_46
    8  A    between atoms: C_17  and  C_23
    9  A    between atoms: P_35  and  O_43
   10  A    between atoms: O_43  and  C_44
                            x       y       z     vdW  Elec       q    Type
                         _______ _______ _______ _____ _____    ______ ____

>  <TORSDO>
F 10

$$$$
=
 OpenBabel11042414353D

 46 51  0  0  1  0  0  0  0  0999 V2000
  194.6770  176.1200  144.4890 C   0  0  0  0  0  0  0  0  0  0  0  0
  195.3100  173.5280  142.2180 C   0  0  0  0  0  0  0  0  0  0  0  0
  196.2470  172.9460  141.3160 N   0  0  0  0  0  1  0  0  0  0  0  0
  192.2800  174.1480  144.3840 C   0  0  0  0  0  0  0  0  0  0  0  0
  195.7970  176.9220  144.2870 O   0  0  0  0  0  1  0  0  0  0  0  0
  193.8340  176.4890  145.6370 C   0  0  0  0  0  3  0  0  0  0  0  0
  191.7940  175.3960  144.9010 N   0  0  0  0  0  0  0  0  0  0  0  0
  192.5590  176.1740  145.8260 C   0  0  0  0  0  3  0  0  0  0  0  0
  195.5030  174.7200  142.8170 N   0  0  0  0  0  0  0  0  0  0  0  0
  194.5120  175.0420  143.6970 C   0  0  0  0  0  0  0  0  0  0  0  0
  193.4730  174.0750  143.7620 C   0  0  0  0  0  0  0  0  0  0  0  0
  193.9200  172.7820  142.7600 S   0  0  0  0  0  0  0  0  0  0  0  0
  189.4500  176.3510  142.4190 C   0  0  0  0  0  2  0  0  0  0  0  0
  190.5750  175.9780  144.3380 C   0  0  1  0  0  3  0  0  0  0  0  0
  188.7800  177.5740  142.9830 C   0  0  0  0  0  0  0  0  0  0  0  0
  188.1030  178.2850  142.2610 O   0  0  0  0  0  0  0  0  0  0  0  0
  190.1870  177.2870  145.0420 C   0  0  0  0  0  2  0  0  0  0  0  0
  190.7420  176.2080  142.9610 O   0  0  0  0  0  0  0  0  0  0  0  0
  188.8930  177.8620  144.4580 C   0  0  2  0  0  3  0  0  0  0  0  0
  187.7010  177.2950  145.2120 C   0  0  0  0  0  2  0  0  0  0  0  0
  186.6880  178.4030  145.4720 C   0  0  0  0  0  2  0  0  0  0  0  0
  185.2510  178.6230  147.4210 C   0  0  0  0  0  1  0  0  0  0  0  0
  185.3120  176.4370  146.3960 C   0  0  0  0  0  1  0  0  0  0  0  0
  185.3510  177.9300  146.0770 C   0  0  0  0  0  0  0  0  0  0  0  0
  184.2230  178.3510  145.3260 O   0  0  0  0  0  0  0  0  0  0  0  0
  185.5870  179.7880  143.3490 O   0  0  0  0  0  1  0  0  0  0  0  0
  183.2140  178.7740  142.9600 O   0  0  0  0  0  0  0  0  0  0  0  0
  185.1690  177.0740  142.9930 O   0  0  0  0  0  1  0  0  0  0  0  0
  184.5270  178.4950  143.6420 P   0  0  0  0  0  0  0  0  0  0  0  0
  189.4260  172.0180  145.3700 O   0  0  0  0  0  1  0  0  0  0  0  0
  191.4190  172.8980  144.4300 C   0  0  1  0  0  3  0  0  0  0  0  0
  189.9630  173.1540  144.7610 C   0  0  1  0  0  3  0  0  0  0  0  0
  190.3920  172.8940  143.3180 C   0  0  2  0  0  3  0  0  0  0  0  0
  190.1810  171.4620  142.8490 C   0  0  0  0  0  2  0  0  0  0  0  0
  190.3920  171.3500  141.3780 C   0  0  0  0  0  0  0  0  0  0  0  0
  191.0050  170.0470  139.4500 C   0  0  0  0  0  3  0  0  0  0  0  0
  190.8000  170.1370  140.8260 C   0  0  0  0  0  3  0  0  0  0  0  0
  190.4230  172.3750  139.2360 C   0  0  0  0  0  0  0  0  0  0  0  0
  190.2210  172.4320  140.5770 N   0  0  0  0  0  0  0  0  0  0  0  0
  190.8080  171.1660  138.6460 C   0  0  0  0  0  3  0  0  0  0  0  0
  190.1420  173.5900  138.4100 C   0  0  2  0  0  3  0  0  0  0  0  0
  189.2540  174.1450  136.2820 C   0  0  0  0  0  2  0  0  0  0  0  0
  188.9360  173.3730  137.5320 C   0  0  0  0  0  2  0  0  0  0  0  0
  191.2110  175.3610  135.7150 O   0  0  0  0  0  1  0  0  0  0  0  0
  191.2800  173.9480  137.5650 N   0  0  0  0  0  2  0  0  0  0  0  0
  190.7640  174.1440  136.2190 C   0  0  1  0  0  3  0  0  0  0  0  0
  1  6  1  0  0  0  0
  2 12  1  0  0  0  0
  2  9  2  0  0  0  0
  3  2  1  0  0  0  0
  4  7  1  0  0  0  0
  5  1  1  0  0  0  0
  6  8  2  0  0  0  0
  7  8  1  0  0  0  0
  9 10  1  0  0  0  0
 10 11  1  0  0  0  0
 10  1  2  0  0  0  0
 11  4  2  0  0  0  0
 12 11  1  0  0  0  0
 13 18  1  0  0  0  0
 13 15  1  0  0  0  0
 14  7  1  1  0  0  0
 14 17  1  0  0  0  0
 15 19  1  0  0  0  0
 16 15  2  0  0  0  0
 18 14  1  0  0  0  0
 19 17  1  0  0  0  0
 19 20  1  1  0  0  0
 20 21  1  0  0  0  0
 21 24  1  0  0  0  0
 24 23  1  0  0  0  0
 24 22  1  0  0  0  0
 25 24  1  0  0  0  0
 26 29  1  0  0  0  0
 27 29  2  0  0  0  0
 28 29  1  0  0  0  0
 29 25  1  0  0  0  0
 31  4  1  6  0  0  0
 31 32  1  0  0  0  0
 32 30  1  1  0  0  0
 33 34  1  1  0  0  0
 33 31  1  0  0  0  0
 33 32  1  0  0  0  0
 35 34  1  0  0  0  0
 36 37  2  0  0  0  0
 37 35  1  0  0  0  0
 38 39  1  0  0  0  0
 39 35  2  0  0  0  0
 40 38  2  0  0  0  0
 40 36  1  0  0  0  0
 41 38  1  6  0  0  0
 42 43  1  0  0  0  0
 43 41  1  0  0  0  0
 45 41  1  0  0  0  0
 46 44  1  1  0  0  0
 46 42  1  0  0  0  0
 46 45  1  0  0  0  0
M  END
>  <MODEL>
3

>  <REMARK>
 VINA RESULT:      -7.6      3.132      8.274
  Name = 
  10 active torsions:
  status: ('A' for Active; 'I' for Inactive)
    1  A    between atoms: C_6  and  C_15
    2  A    between atoms: C_6  and  C_44
    3  A    between atoms: C_8  and  C_17
    4  A    between atoms: C_10  and  N_31
    5  A    between atoms: C_12  and  C_32
    6  A    between atoms: C_13  and  C_14
    7  A    between atoms: C_15  and  C_46
    8  A    between atoms: C_17  and  C_23
    9  A    between atoms: P_35  and  O_43
   10  A    between atoms: O_43  and  C_44
                            x       y       z     vdW  Elec       q    Type
                         _______ _______ _______ _____ _____    ______ ____

>  <TORSDO>
F 10

$$$$
=
 OpenBabel11042414353D

 46 51  0  0  1  0  0  0  0  0999 V2000
  192.5530  172.7690  137.4880 C   0  0  0  0  0  0  0  0  0  0  0  0
  189.4980  174.2710  136.6590 C   0  0  0  0  0  0  0  0  0  0  0  0
  188.7000  174.8400  135.6240 N   0  0  0  0  0  1  0  0  0  0  0  0
  190.6830  172.8830  139.9650 C   0  0  0  0  0  0  0  0  0  0  0  0
  193.2540  172.9300  136.2960 O   0  0  0  0  0  1  0  0  0  0  0  0
  193.1970  171.9020  138.4870 C   0  0  0  0  0  3  0  0  0  0  0  0
  192.0300  172.7450  140.4430 N   0  0  0  0  0  0  0  0  0  0  0  0
  192.9710  171.8860  139.7950 C   0  0  0  0  0  3  0  0  0  0  0  0
  190.7880  173.9190  136.4870 N   0  0  0  0  0  0  0  0  0  0  0  0
  191.3300  173.3250  137.5900 C   0  0  0  0  0  0  0  0  0  0  0  0
  190.4350  173.2450  138.6900 C   0  0  0  0  0  0  0  0  0  0  0  0
  188.9370  173.8460  138.1710 S   0  0  0  0  0  0  0  0  0  0  0  0
  193.3100  175.6990  141.9270 C   0  0  0  0  0  2  0  0  0  0  0  0
  192.5070  173.6340  141.5020 C   0  0  1  0  0  3  0  0  0  0  0  0
  194.0730  175.2170  143.1310 C   0  0  0  0  0  0  0  0  0  0  0  0
  194.8390  175.9680  143.7080 O   0  0  0  0  0  0  0  0  0  0  0  0
  193.3560  172.8850  142.5400 C   0  0  0  0  0  2  0  0  0  0  0  0
  193.2530  174.6900  140.9470 O   0  0  0  0  0  0  0  0  0  0  0  0
  193.8200  173.8270  143.6550 C   0  0  2  0  0  3  0  0  0  0  0  0
  192.7790  173.8500  144.7640 C   0  0  0  0  0  2  0  0  0  0  0  0
  193.3420  174.5820  145.9760 C   0  0  0  0  0  2  0  0  0  0  0  0
  193.5080  176.7610  147.0410 C   0  0  0  0  0  1  0  0  0  0  0  0
  191.5440  175.4660  147.5870 C   0  0  0  0  0  1  0  0  0  0  0  0
  192.5080  175.7890  146.4480 C   0  0  0  0  0  0  0  0  0  0  0  0
  191.8710  176.4750  145.3800 O   0  0  0  0  0  0  0  0  0  0  0  0
  189.3100  175.3570  145.5420 O   0  0  0  0  0  1  0  0  0  0  0  0
  189.7390  177.7510  144.5940 O   0  0  0  0  0  0  0  0  0  0  0  0
  189.9440  177.5100  147.1660 O   0  0  0  0  0  1  0  0  0  0  0  0
  190.2070  176.7950  145.6580 P   0  0  0  0  0  0  0  0  0  0  0  0
  188.9210  172.0210  143.0970 O   0  0  0  0  0  1  0  0  0  0  0  0
  189.5020  172.7270  140.9070 C   0  0  1  0  0  3  0  0  0  0  0  0
  189.8680  172.7520  142.3770 C   0  0  1  0  0  3  0  0  0  0  0  0
  189.2670  173.9890  141.7100 C   0  0  2  0  0  3  0  0  0  0  0  0
  187.7710  174.1570  141.9340 C   0  0  0  0  0  2  0  0  0  0  0  0
  187.4290  175.5890  142.1640 C   0  0  0  0  0  0  0  0  0  0  0  0
  187.4840  177.8890  141.4570 C   0  0  0  0  0  3  0  0  0  0  0  0
  187.7990  176.5510  141.2260 C   0  0  0  0  0  3  0  0  0  0  0  0
  186.4770  177.2620  143.5540 C   0  0  0  0  0  0  0  0  0  0  0  0
  186.7880  175.9660  143.2990 N   0  0  0  0  0  0  0  0  0  0  0  0
  186.8110  178.2500  142.6210 C   0  0  0  0  0  3  0  0  0  0  0  0
  185.7040  177.5910  144.7920 C   0  0  2  0  0  3  0  0  0  0  0  0
  185.7170  179.1940  146.5410 C   0  0  0  0  0  2  0  0  0  0  0  0
  185.7010  179.0780  145.0420 C   0  0  0  0  0  2  0  0  0  0  0  0
  185.8170  177.4870  148.1870 O   0  0  0  0  0  1  0  0  0  0  0  0
  186.2490  176.9180  145.9700 N   0  0  0  0  0  2  0  0  0  0  0  0
  186.4030  177.9290  147.0040 C   0  0  1  0  0  3  0  0  0  0  0  0
  1 10  2  0  0  0  0
  1  6  1  0  0  0  0
  2 12  1  0  0  0  0
  3  2  1  0  0  0  0
  4  7  1  0  0  0  0
  5  1  1  0  0  0  0
  6  8  2  0  0  0  0
  8  7  1  0  0  0  0
  9  2  2  0  0  0  0
  9 10  1  0  0  0  0
 10 11  1  0  0  0  0
 11  4  2  0  0  0  0
 12 11  1  0  0  0  0
 13 15  1  0  0  0  0
 14  7  1  6  0  0  0
 14 17  1  0  0  0  0
 15 19  1  0  0  0  0
 15 16  2  0  0  0  0
 17 19  1  0  0  0  0
 18 14  1  0  0  0  0
 18 13  1  0  0  0  0
 19 20  1  1  0  0  0
 20 21  1  0  0  0  0
 21 24  1  0  0  0  0
 24 22  1  0  0  0  0
 24 23  1  0  0  0  0
 25 29  1  0  0  0  0
 25 24  1  0  0  0  0
 26 29  1  0  0  0  0
 27 29  2  0  0  0  0
 29 28  1  0  0  0  0
 31  4  1  6  0  0  0
 31 33  1  0  0  0  0
 31 32  1  0  0  0  0
 32 30  1  1  0  0  0
 33 34  1  1  0  0  0
 33 32  1  0  0  0  0
 34 35  1  0  0  0  0
 35 39  1  0  0  0  0
 36 40  2  0  0  0  0
 37 36  1  0  0  0  0
 37 35  2  0  0  0  0
 39 38  2  0  0  0  0
 40 38  1  0  0  0  0
 41 38  1  6  0  0  0
 41 43  1  0  0  0  0
 41 45  1  0  0  0  0
 42 46  1  0  0  0  0
 43 42  1  0  0  0  0
 45 46  1  0  0  0  0
 46 44  1  1  0  0  0
M  END
>  <MODEL>
4

>  <REMARK>
 VINA RESULT:      -7.5      2.781      3.792
  Name = 
  10 active torsions:
  status: ('A' for Active; 'I' for Inactive)
    1  A    between atoms: C_6  and  C_15
    2  A    between atoms: C_6  and  C_44
    3  A    between atoms: C_8  and  C_17
    4  A    between atoms: C_10  and  N_31
    5  A    between atoms: C_12  and  C_32
    6  A    between atoms: C_13  and  C_14
    7  A    between atoms: C_15  and  C_46
    8  A    between atoms: C_17  and  C_23
    9  A    between atoms: P_35  and  O_43
   10  A    between atoms: O_43  and  C_44
                            x       y       z     vdW  Elec       q    Type
                         _______ _______ _______ _____ _____    ______ ____

>  <TORSDO>
F 10

$$$$
=
 OpenBabel11042414353D

 46 51  0  0  1  0  0  0  0  0999 V2000
  188.5490  173.8640  138.9150 C   0  0  0  0  0  0  0  0  0  0  0  0
  187.1750  176.4130  140.8870 C   0  0  0  0  0  0  0  0  0  0  0  0
  186.2920  177.5320  140.9300 N   0  0  0  0  0  1  0  0  0  0  0  0
  189.5360  173.6300  141.8500 C   0  0  0  0  0  0  0  0  0  0  0  0
  188.0800  174.2270  137.6560 O   0  0  0  0  0  1  0  0  0  0  0  0
  189.1900  172.5420  138.9940 C   0  0  0  0  0  3  0  0  0  0  0  0
  190.4730  172.9270  141.0200 N   0  0  0  0  0  0  0  0  0  0  0  0
  190.0420  172.1210  139.9200 C   0  0  0  0  0  3  0  0  0  0  0  0
  187.5020  175.7750  139.7450 N   0  0  0  0  0  0  0  0  0  0  0  0
  188.2980  174.6870  139.9530 C   0  0  0  0  0  0  0  0  0  0  0  0
  188.6450  174.4870  141.3150 C   0  0  0  0  0  0  0  0  0  0  0  0
  187.8230  175.6590  142.2250 S   0  0  0  0  0  0  0  0  0  0  0  0
  193.5970  174.5420  140.5750 C   0  0  0  0  0  2  0  0  0  0  0  0
  191.9040  173.1800  141.1830 C   0  0  1  0  0  3  0  0  0  0  0  0
  194.6160  173.4490  140.7520 C   0  0  0  0  0  0  0  0  0  0  0  0
  195.7710  173.6330  140.4110 O   0  0  0  0  0  0  0  0  0  0  0  0
  192.7160  171.8770  141.2210 C   0  0  0  0  0  2  0  0  0  0  0  0
  192.3710  174.0030  140.1410 O   0  0  0  0  0  0  0  0  0  0  0  0
  194.2080  172.1630  141.4230 C   0  0  2  0  0  3  0  0  0  0  0  0
  194.5180  172.2080  142.9110 C   0  0  0  0  0  2  0  0  0  0  0  0
  195.7860  173.0210  143.1420 C   0  0  0  0  0  2  0  0  0  0  0  0
  196.9990  172.5790  145.2020 C   0  0  0  0  0  1  0  0  0  0  0  0
  194.7360  173.3810  145.4620 C   0  0  0  0  0  1  0  0  0  0  0  0
  195.9810  173.5180  144.5880 C   0  0  0  0  0  0  0  0  0  0  0  0
  196.5470  174.8190  144.6560 O   0  0  0  0  0  0  0  0  0  0  0  0
  196.2690  176.3240  142.3120 O   0  0  0  0  0  0  0  0  0  0  0  0
  195.6910  177.2800  144.6710 O   0  0  0  0  0  1  0  0  0  0  0  0
  193.9970  175.5730  143.7070 O   0  0  0  0  0  1  0  0  0  0  0  0
  195.6190  176.0200  143.8510 P   0  0  0  0  0  0  0  0  0  0  0  0
  189.6520  171.9150  145.1220 O   0  0  0  0  0  1  0  0  0  0  0  0
  189.5920  173.5070  143.3630 C   0  0  1  0  0  3  0  0  0  0  0  0
  190.1820  172.2040  143.8630 C   0  0  1  0  0  3  0  0  0  0  0  0
  191.0210  173.4810  143.8620 C   0  0  2  0  0  3  0  0  0  0  0  0
  191.0850  174.1900  145.2070 C   0  0  0  0  0  2  0  0  0  0  0  0
  190.3280  175.4730  145.1650 C   0  0  0  0  0  0  0  0  0  0  0  0
  190.1800  177.7900  144.5290 C   0  0  0  0  0  3  0  0  0  0  0  0
  190.8920  176.5920  144.5530 C   0  0  0  0  0  3  0  0  0  0  0  0
  188.3970  176.7240  145.7510 C   0  0  0  0  0  0  0  0  0  0  0  0
  189.1080  175.5680  145.7510 N   0  0  0  0  0  0  0  0  0  0  0  0
  188.9220  177.8590  145.1220 C   0  0  0  0  0  3  0  0  0  0  0  0
  187.0270  176.7310  146.3520 C   0  0  2  0  0  3  0  0  0  0  0  0
  184.8730  177.6120  145.8940 C   0  0  0  0  0  2  0  0  0  0  0  0
  185.9720  176.7930  145.2770 C   0  0  0  0  0  2  0  0  0  0  0  0
  184.7880  178.6710  148.0160 O   0  0  0  0  0  1  0  0  0  0  0  0
  186.8370  177.8590  147.2620 N   0  0  0  0  0  2  0  0  0  0  0  0
  185.5860  178.5000  146.8880 C   0  0  1  0  0  3  0  0  0  0  0  0
  1  6  1  0  0  0  0
  1 10  2  0  0  0  0
  2  3  1  0  0  0  0
  2 12  1  0  0  0  0
  5  1  1  0  0  0  0
  6  8  2  0  0  0  0
  7  4  1  0  0  0  0
  8  7  1  0  0  0  0
  9 10  1  0  0  0  0
  9  2  2  0  0  0  0
 10 11  1  0  0  0  0
 11  4  2  0  0  0  0
 11 12  1  0  0  0  0
 13 15  1  0  0  0  0
 14  7  1  6  0  0  0
 14 17  1  0  0  0  0
 15 19  1  0  0  0  0
 16 15  2  0  0  0  0
 17 19  1  0  0  0  0
 18 13  1  0  0  0  0
 18 14  1  0  0  0  0
 19 20  1  1  0  0  0
 20 21  1  0  0  0  0
 21 24  1  0  0  0  0
 24 25  1  0  0  0  0
 24 22  1  0  0  0  0
 24 23  1  0  0  0  0
 26 29  2  0  0  0  0
 28 29  1  0  0  0  0
 29 25  1  0  0  0  0
 29 27  1  0  0  0  0
 31  4  1  6  0  0  0
 31 33  1  0  0  0  0
 31 32  1  0  0  0  0
 32 30  1  1  0  0  0
 33 32  1  0  0  0  0
 33 34  1  1  0  0  0
 35 34  1  0  0  0  0
 35 39  1  0  0  0  0
 36 37  1  0  0  0  0
 36 40  2  0  0  0  0
 37 35  2  0  0  0  0
 38 39  2  0  0  0  0
 40 38  1  0  0  0  0
 41 38  1  6  0  0  0
 41 45  1  0  0  0  0
 42 46  1  0  0  0  0
 43 42  1  0  0  0  0
 43 41  1  0  0  0  0
 46 45  1  0  0  0  0
 46 44  1  1  0  0  0
M  END
>  <MODEL>
5

>  <REMARK>
 VINA RESULT:      -7.2      2.444      3.813
  Name = 
  10 active torsions:
  status: ('A' for Active; 'I' for Inactive)
    1  A    between atoms: C_6  and  C_15
    2  A    between atoms: C_6  and  C_44
    3  A    between atoms: C_8  and  C_17
    4  A    between atoms: C_10  and  N_31
    5  A    between atoms: C_12  and  C_32
    6  A    between atoms: C_13  and  C_14
    7  A    between atoms: C_15  and  C_46
    8  A    between atoms: C_17  and  C_23
    9  A    between atoms: P_35  and  O_43
   10  A    between atoms: O_43  and  C_44
                            x       y       z     vdW  Elec       q    Type
                         _______ _______ _______ _____ _____    ______ ____

>  <TORSDO>
F 10

$$$$
=
 OpenBabel11042414353D

 46 51  0  0  1  0  0  0  0  0999 V2000
  190.9010  170.3550  142.0130 C   0  0  0  0  0  0  0  0  0  0  0  0
  190.8660  170.2320  138.5110 C   0  0  0  0  0  0  0  0  0  0  0  0
  191.0090  169.4130  137.3530 N   0  0  0  0  0  1  0  0  0  0  0  0
  190.1780  173.1330  140.8280 C   0  0  0  0  0  0  0  0  0  0  0  0
  191.3530  169.0730  142.3130 O   0  0  0  0  0  1  0  0  0  0  0  0
  190.4220  171.1420  143.1600 C   0  0  0  0  0  3  0  0  0  0  0  0
  190.6630  173.3430  142.1630 N   0  0  0  0  0  0  0  0  0  0  0  0
  190.3150  172.4630  143.2340 C   0  0  0  0  0  3  0  0  0  0  0  0
  191.1300  169.7970  139.7600 N   0  0  0  0  0  0  0  0  0  0  0  0
  190.8490  170.7270  140.7180 C   0  0  0  0  0  0  0  0  0  0  0  0
  190.3820  171.9620  140.1940 C   0  0  0  0  0  0  0  0  0  0  0  0
  190.2430  171.7790  138.5140 S   0  0  0  0  0  0  0  0  0  0  0  0
  193.5330  175.3330  141.5550 C   0  0  0  0  0  2  0  0  0  0  0  0
  191.6780  174.3690  142.4020 C   0  0  1  0  0  3  0  0  0  0  0  0
  194.0430  175.6880  142.9250 C   0  0  0  0  0  0  0  0  0  0  0  0
  195.1610  176.1550  143.0560 O   0  0  0  0  0  0  0  0  0  0  0  0
  192.0910  174.4330  143.8800 C   0  0  0  0  0  2  0  0  0  0  0  0
  192.8080  174.1270  141.6010 O   0  0  0  0  0  0  0  0  0  0  0  0
  193.1310  175.5330  144.1140 C   0  0  2  0  0  3  0  0  0  0  0  0
  192.4220  176.8420  144.4260 C   0  0  0  0  0  2  0  0  0  0  0  0
  191.6810  176.7160  145.7510 C   0  0  0  0  0  2  0  0  0  0  0  0
  190.0140  177.9230  144.4550 C   0  0  0  0  0  1  0  0  0  0  0  0
  189.6890  177.9150  146.8480 C   0  0  0  0  0  1  0  0  0  0  0  0
  190.1780  177.0550  145.6860 C   0  0  0  0  0  0  0  0  0  0  0  0
  189.3610  175.9120  145.4790 O   0  0  0  0  0  0  0  0  0  0  0  0
  189.3180  173.2030  146.1800 O   0  0  0  0  0  0  0  0  0  0  0  0
  188.1930  175.0480  147.6430 O   0  0  0  0  0  1  0  0  0  0  0  0
  190.7810  174.9710  147.7300 O   0  0  0  0  0  1  0  0  0  0  0  0
  189.3980  174.7900  146.7790 P   0  0  0  0  0  0  0  0  0  0  0  0
  187.7840  174.7050  138.4920 O   0  0  0  0  0  1  0  0  0  0  0  0
  189.5140  174.2590  140.0540 C   0  0  1  0  0  3  0  0  0  0  0  0
  188.0820  173.9760  139.6450 C   0  0  1  0  0  3  0  0  0  0  0  0
  188.3790  174.8770  140.8430 C   0  0  2  0  0  3  0  0  0  0  0  0
  188.3220  176.3660  140.5380 C   0  0  0  0  0  2  0  0  0  0  0  0
  187.2010  177.0150  141.2760 C   0  0  0  0  0  0  0  0  0  0  0  0
  185.0820  178.1560  141.2700 C   0  0  0  0  0  3  0  0  0  0  0  0
  186.1190  177.5410  140.5710 C   0  0  0  0  0  3  0  0  0  0  0  0
  186.2530  177.7300  143.3320 C   0  0  0  0  0  0  0  0  0  0  0  0
  187.2450  177.1270  142.6270 N   0  0  0  0  0  0  0  0  0  0  0  0
  185.1400  178.2450  142.6580 C   0  0  0  0  0  3  0  0  0  0  0  0
  186.3360  177.7490  144.8260 C   0  0  2  0  0  3  0  0  0  0  0  0
  185.2350  176.7900  146.6950 C   0  0  0  0  0  2  0  0  0  0  0  0
  185.9090  176.4230  145.4030 C   0  0  0  0  0  2  0  0  0  0  0  0
  184.8200  178.9340  147.6260 O   0  0  0  0  0  1  0  0  0  0  0  0
  185.5040  178.8030  145.4040 N   0  0  0  0  0  2  0  0  0  0  0  0
  184.7110  178.1880  146.4570 C   0  0  1  0  0  3  0  0  0  0  0  0
  1  5  1  0  0  0  0
  1  6  1  0  0  0  0
  2 12  1  0  0  0  0
  2  9  2  0  0  0  0
  3  2  1  0  0  0  0
  4  7  1  0  0  0  0
  6  8  2  0  0  0  0
  7  8  1  0  0  0  0
  9 10  1  0  0  0  0
 10  1  2  0  0  0  0
 11 10  1  0  0  0  0
 11  4  2  0  0  0  0
 12 11  1  0  0  0  0
 13 18  1  0  0  0  0
 13 15  1  0  0  0  0
 14  7  1  1  0  0  0
 14 17  1  0  0  0  0
 15 16  2  0  0  0  0
 15 19  1  0  0  0  0
 17 19  1  0  0  0  0
 18 14  1  0  0  0  0
 19 20  1  6  0  0  0
 20 21  1  0  0  0  0
 22 24  1  0  0  0  0
 24 21  1  0  0  0  0
 24 23  1  0  0  0  0
 25 24  1  0  0  0  0
 25 29  1  0  0  0  0
 26 29  2  0  0  0  0
 29 27  1  0  0  0  0
 29 28  1  0  0  0  0
 31  4  1  1  0  0  0
 31 33  1  0  0  0  0
 32 30  1  6  0  0  0
 32 31  1  0  0  0  0
 32 33  1  0  0  0  0
 33 34  1  6  0  0  0
 34 35  1  0  0  0  0
 35 39  1  0  0  0  0
 36 40  2  0  0  0  0
 37 36  1  0  0  0  0
 37 35  2  0  0  0  0
 39 38  2  0  0  0  0
 40 38  1  0  0  0  0
 41 38  1  6  0  0  0
 41 43  1  0  0  0  0
 41 45  1  0  0  0  0
 43 42  1  0  0  0  0
 45 46  1  0  0  0  0
 46 42  1  0  0  0  0
 46 44  1  1  0  0  0
M  END
>  <MODEL>
6

>  <REMARK>
 VINA RESULT:      -7.1      2.840      4.103
  Name = 
  10 active torsions:
  status: ('A' for Active; 'I' for Inactive)
    1  A    between atoms: C_6  and  C_15
    2  A    between atoms: C_6  and  C_44
    3  A    between atoms: C_8  and  C_17
    4  A    between atoms: C_10  and  N_31
    5  A    between atoms: C_12  and  C_32
    6  A    between atoms: C_13  and  C_14
    7  A    between atoms: C_15  and  C_46
    8  A    between atoms: C_17  and  C_23
    9  A    between atoms: P_35  and  O_43
   10  A    between atoms: O_43  and  C_44
                            x       y       z     vdW  Elec       q    Type
                         _______ _______ _______ _____ _____    ______ ____

>  <TORSDO>
F 10

$$$$
=
 OpenBabel11042414353D

 46 51  0  0  1  0  0  0  0  0999 V2000
  189.4270  177.5170  146.3400 C   0  0  0  0  0  0  0  0  0  0  0  0
  185.9830  176.8710  146.3150 C   0  0  0  0  0  0  0  0  0  0  0  0
  184.7470  177.0090  147.0110 N   0  0  0  0  0  1  0  0  0  0  0  0
  188.5910  176.1420  143.6840 C   0  0  0  0  0  0  0  0  0  0  0  0
  189.5890  178.0080  147.6320 O   0  0  0  0  0  1  0  0  0  0  0  0
  190.5970  177.6550  145.4590 C   0  0  0  0  0  3  0  0  0  0  0  0
  190.0000  175.9280  143.8600 N   0  0  0  0  0  0  0  0  0  0  0  0
  190.8580  176.9550  144.3610 C   0  0  0  0  0  3  0  0  0  0  0  0
  187.1750  177.1980  146.8550 N   0  0  0  0  0  0  0  0  0  0  0  0
  188.2120  177.0560  145.9800 C   0  0  0  0  0  0  0  0  0  0  0  0
  187.8210  176.5570  144.7090 C   0  0  0  0  0  0  0  0  0  0  0  0
  186.1310  176.4160  144.7170 S   0  0  0  0  0  0  0  0  0  0  0  0
  190.1040  172.3870  143.9880 C   0  0  0  0  0  2  0  0  0  0  0  0
  190.5440  174.5800  143.6960 C   0  0  1  0  0  3  0  0  0  0  0  0
  191.5620  172.0570  144.1550 C   0  0  0  0  0  0  0  0  0  0  0  0
  191.8990  170.9330  144.4830 O   0  0  0  0  0  0  0  0  0  0  0  0
  192.0390  174.5190  144.0440 C   0  0  0  0  0  2  0  0  0  0  0  0
  189.8300  173.6700  144.4980 O   0  0  0  0  0  0  0  0  0  0  0  0
  192.5960  173.1070  143.8370 C   0  0  2  0  0  3  0  0  0  0  0  0
  193.0900  172.9630  142.4070 C   0  0  0  0  0  2  0  0  0  0  0  0
  194.5300  173.4530  142.3140 C   0  0  0  0  0  2  0  0  0  0  0  0
  193.4410  174.9120  140.7020 C   0  0  0  0  0  1  0  0  0  0  0  0
  195.8290  174.6530  140.4470 C   0  0  0  0  0  1  0  0  0  0  0  0
  194.7220  174.7450  141.4950 C   0  0  0  0  0  0  0  0  0  0  0  0
  194.8420  175.9040  142.3060 O   0  0  0  0  0  0  0  0  0  0  0  0
  195.4410  175.4790  145.0070 O   0  0  0  0  0  1  0  0  0  0  0  0
  196.7970  177.1350  143.5130 O   0  0  0  0  0  1  0  0  0  0  0  0
  197.2350  174.6190  143.0800 O   0  0  0  0  0  0  0  0  0  0  0  0
  196.0970  175.8030  143.4750 P   0  0  0  0  0  0  0  0  0  0  0  0
  187.0640  176.7920  140.3820 O   0  0  0  0  0  1  0  0  0  0  0  0
  187.9110  175.8070  142.3680 C   0  0  1  0  0  3  0  0  0  0  0  0
  188.1430  176.8230  141.2680 C   0  0  1  0  0  3  0  0  0  0  0  0
  188.9230  175.5090  141.2830 C   0  0  2  0  0  3  0  0  0  0  0  0
  188.3590  174.4350  140.3650 C   0  0  0  0  0  2  0  0  0  0  0  0
  189.4290  173.4910  139.9350 C   0  0  0  0  0  0  0  0  0  0  0  0
  190.6530  171.4420  140.2430 C   0  0  0  0  0  3  0  0  0  0  0  0
  189.6420  172.3120  140.6470 C   0  0  0  0  0  3  0  0  0  0  0  0
  191.2190  172.9670  138.4650 C   0  0  0  0  0  0  0  0  0  0  0  0
  190.2210  173.7910  138.8750 N   0  0  0  0  0  0  0  0  0  0  0  0
  191.4430  171.7620  139.1420 C   0  0  0  0  0  3  0  0  0  0  0  0
  192.0010  173.3290  137.2430 C   0  0  2  0  0  3  0  0  0  0  0  0
  194.0770  174.3250  136.6730 C   0  0  0  0  0  2  0  0  0  0  0  0
  193.4820  173.2230  137.5040 C   0  0  0  0  0  2  0  0  0  0  0  0
  192.9960  175.9470  135.3180 O   0  0  0  0  0  1  0  0  0  0  0  0
  191.7010  174.6850  136.7860 N   0  0  0  0  0  2  0  0  0  0  0  0
  192.9750  175.3550  136.5780 C   0  0  1  0  0  3  0  0  0  0  0  0
  1  5  1  0  0  0  0
  2  9  2  0  0  0  0
  2  3  1  0  0  0  0
  4  7  1  0  0  0  0
  4 11  2  0  0  0  0
  6  1  1  0  0  0  0
  7  8  1  0  0  0  0
  8  6  2  0  0  0  0
 10  1  2  0  0  0  0
 10  9  1  0  0  0  0
 11 12  1  0  0  0  0
 11 10  1  0  0  0  0
 12  2  1  0  0  0  0
 13 15  1  0  0  0  0
 13 18  1  0  0  0  0
 14  7  1  1  0  0  0
 14 17  1  0  0  0  0
 14 18  1  0  0  0  0
 15 16  2  0  0  0  0
 19 20  1  6  0  0  0
 19 17  1  0  0  0  0
 19 15  1  0  0  0  0
 21 20  1  0  0  0  0
 22 24  1  0  0  0  0
 23 24  1  0  0  0  0
 24 25  1  0  0  0  0
 24 21  1  0  0  0  0
 25 29  1  0  0  0  0
 28 29  2  0  0  0  0
 29 27  1  0  0  0  0
 29 26  1  0  0  0  0
 31  4  1  1  0  0  0
 32 30  1  6  0  0  0
 32 33  1  0  0  0  0
 32 31  1  0  0  0  0
 33 34  1  6  0  0  0
 33 31  1  0  0  0  0
 35 34  1  0  0  0  0
 35 37  1  0  0  0  0
 36 37  2  0  0  0  0
 38 39  1  0  0  0  0
 38 40  2  0  0  0  0
 39 35  2  0  0  0  0
 40 36  1  0  0  0  0
 41 43  1  0  0  0  0
 41 38  1  1  0  0  0
 42 43  1  0  0  0  0
 45 41  1  0  0  0  0
 46 44  1  6  0  0  0
 46 42  1  0  0  0  0
 46 45  1  0  0  0  0
M  END
>  <MODEL>
7

>  <REMARK>
 VINA RESULT:      -6.9      2.811      7.548
  Name = 
  10 active torsions:
  status: ('A' for Active; 'I' for Inactive)
    1  A    between atoms: C_6  and  C_15
    2  A    between atoms: C_6  and  C_44
    3  A    between atoms: C_8  and  C_17
    4  A    between atoms: C_10  and  N_31
    5  A    between atoms: C_12  and  C_32
    6  A    between atoms: C_13  and  C_14
    7  A    between atoms: C_15  and  C_46
    8  A    between atoms: C_17  and  C_23
    9  A    between atoms: P_35  and  O_43
   10  A    between atoms: O_43  and  C_44
                            x       y       z     vdW  Elec       q    Type
                         _______ _______ _______ _____ _____    ______ ____

>  <TORSDO>
F 10

$$$$
=
 OpenBabel11042414353D

 46 51  0  0  1  0  0  0  0  0999 V2000
  191.9890  170.2760  138.8320 C   0  0  0  0  0  0  0  0  0  0  0  0
  189.7670  171.9680  136.7170 C   0  0  0  0  0  0  0  0  0  0  0  0
  189.0260  171.9260  135.4990 N   0  0  0  0  0  1  0  0  0  0  0  0
  191.1420  172.9890  140.0810 C   0  0  0  0  0  0  0  0  0  0  0  0
  192.3180  169.1790  138.0400 O   0  0  0  0  0  1  0  0  0  0  0  0
  192.4600  170.2140  140.2240 C   0  0  0  0  0  3  0  0  0  0  0  0
  192.3760  172.5940  140.6970 N   0  0  0  0  0  0  0  0  0  0  0  0
  192.6350  171.2340  141.0550 C   0  0  0  0  0  3  0  0  0  0  0  0
  190.6750  171.0330  137.0600 N   0  0  0  0  0  0  0  0  0  0  0  0
  191.2040  171.2340  138.3010 C   0  0  0  0  0  0  0  0  0  0  0  0
  190.7170  172.4030  138.9440 C   0  0  0  0  0  0  0  0  0  0  0  0
  189.5370  173.0840  137.9340 S   0  0  0  0  0  0  0  0  0  0  0  0
  194.3550  175.4150  139.8660 C   0  0  0  0  0  2  0  0  0  0  0  0
  193.4680  173.5640  140.7990 C   0  0  1  0  0  3  0  0  0  0  0  0
  195.7400  175.0570  140.3350 C   0  0  0  0  0  0  0  0  0  0  0  0
  196.6970  175.7160  139.9670 O   0  0  0  0  0  0  0  0  0  0  0  0
  194.7940  172.8940  141.1890 C   0  0  0  0  0  2  0  0  0  0  0  0
  193.6190  174.2500  139.5800 O   0  0  0  0  0  0  0  0  0  0  0  0
  195.9150  173.9300  141.3200 C   0  0  2  0  0  3  0  0  0  0  0  0
  195.9520  174.4590  142.7450 C   0  0  0  0  0  2  0  0  0  0  0  0
  195.0950  173.5720  143.6390 C   0  0  0  0  0  2  0  0  0  0  0  0
  196.1190  173.0330  145.7770 C   0  0  0  0  0  1  0  0  0  0  0  0
  193.7900  173.6680  145.8530 C   0  0  0  0  0  1  0  0  0  0  0  0
  195.1050  173.9560  145.1320 C   0  0  0  0  0  0  0  0  0  0  0  0
  195.5680  175.2780  145.3620 O   0  0  0  0  0  0  0  0  0  0  0  0
  194.9570  177.9860  145.7230 O   0  0  0  0  0  1  0  0  0  0  0  0
  193.6160  176.0770  146.8930 O   0  0  0  0  0  1  0  0  0  0  0  0
  193.1660  176.3720  144.3580 O   0  0  0  0  0  0  0  0  0  0  0  0
  194.3080  176.4210  145.6020 P   0  0  0  0  0  0  0  0  0  0  0  0
  188.1140  174.8180  141.1520 O   0  0  0  0  0  1  0  0  0  0  0  0
  190.3310  174.1490  140.6340 C   0  0  1  0  0  3  0  0  0  0  0  0
  189.0050  173.7470  141.2480 C   0  0  1  0  0  3  0  0  0  0  0  0
  190.2040  174.0650  142.1400 C   0  0  2  0  0  3  0  0  0  0  0  0
  190.2040  175.4750  142.7130 C   0  0  0  0  0  2  0  0  0  0  0  0
  189.6950  175.4770  144.1140 C   0  0  0  0  0  0  0  0  0  0  0  0
  189.6960  174.5540  146.3360 C   0  0  0  0  0  3  0  0  0  0  0  0
  190.1870  174.5500  145.0320 C   0  0  0  0  0  3  0  0  0  0  0  0
  188.2280  176.3730  145.7510 C   0  0  0  0  0  0  0  0  0  0  0  0
  188.7310  176.3540  144.4910 N   0  0  0  0  0  0  0  0  0  0  0  0
  188.7180  175.4740  146.7050 C   0  0  0  0  0  3  0  0  0  0  0  0
  187.2200  177.4180  146.1120 C   0  0  2  0  0  3  0  0  0  0  0  0
  184.8900  177.5960  146.5170 C   0  0  0  0  0  2  0  0  0  0  0  0
  186.1080  176.8250  146.9410 C   0  0  0  0  0  2  0  0  0  0  0  0
  184.6730  179.2940  144.8730 O   0  0  0  0  0  1  0  0  0  0  0  0
  186.6390  178.0470  144.9280 N   0  0  0  0  0  2  0  0  0  0  0  0
  185.1950  178.0240  145.1000 C   0  0  1  0  0  3  0  0  0  0  0  0
  1  6  1  0  0  0  0
  2  9  2  0  0  0  0
  2 12  1  0  0  0  0
  3  2  1  0  0  0  0
  4  7  1  0  0  0  0
  5  1  1  0  0  0  0
  6  8  2  0  0  0  0
  7  8  1  0  0  0  0
  9 10  1  0  0  0  0
 10  1  2  0  0  0  0
 10 11  1  0  0  0  0
 11  4  2  0  0  0  0
 12 11  1  0  0  0  0
 13 15  1  0  0  0  0
 14  7  1  6  0  0  0
 14 17  1  0  0  0  0
 15 19  1  0  0  0  0
 16 15  2  0  0  0  0
 17 19  1  0  0  0  0
 18 13  1  0  0  0  0
 18 14  1  0  0  0  0
 19 20  1  1  0  0  0
 20 21  1  0  0  0  0
 21 24  1  0  0  0  0
 24 25  1  0  0  0  0
 24 22  1  0  0  0  0
 24 23  1  0  0  0  0
 25 29  1  0  0  0  0
 28 29  2  0  0  0  0
 29 26  1  0  0  0  0
 29 27  1  0  0  0  0
 31  4  1  6  0  0  0
 31 32  1  0  0  0  0
 31 33  1  0  0  0  0
 32 30  1  1  0  0  0
 32 33  1  0  0  0  0
 33 34  1  1  0  0  0
 34 35  1  0  0  0  0
 35 39  2  0  0  0  0
 35 37  1  0  0  0  0
 36 40  1  0  0  0  0
 37 36  2  0  0  0  0
 38 40  2  0  0  0  0
 39 38  1  0  0  0  0
 41 38  1  6  0  0  0
 41 43  1  0  0  0  0
 42 43  1  0  0  0  0
 45 46  1  0  0  0  0
 45 41  1  0  0  0  0
 46 44  1  1  0  0  0
 46 42  1  0  0  0  0
M  END
>  <MODEL>
8

>  <REMARK>
 VINA RESULT:      -6.8      1.837      2.679
  Name = 
  10 active torsions:
  status: ('A' for Active; 'I' for Inactive)
    1  A    between atoms: C_6  and  C_15
    2  A    between atoms: C_6  and  C_44
    3  A    between atoms: C_8  and  C_17
    4  A    between atoms: C_10  and  N_31
    5  A    between atoms: C_12  and  C_32
    6  A    between atoms: C_13  and  C_14
    7  A    between atoms: C_15  and  C_46
    8  A    between atoms: C_17  and  C_23
    9  A    between atoms: P_35  and  O_43
   10  A    between atoms: O_43  and  C_44
                            x       y       z     vdW  Elec       q    Type
                         _______ _______ _______ _____ _____    ______ ____

>  <TORSDO>
F 10

$$$$
=
 OpenBabel11042414353D

 46 51  0  0  1  0  0  0  0  0999 V2000
  188.2790  174.0010  138.7570 C   0  0  0  0  0  0  0  0  0  0  0  0
  187.2560  176.6480  140.8120 C   0  0  0  0  0  0  0  0  0  0  0  0
  186.4970  177.8510  140.9050 N   0  0  0  0  0  1  0  0  0  0  0  0
  189.3490  173.6180  141.6470 C   0  0  0  0  0  0  0  0  0  0  0  0
  187.8030  174.4320  137.5220 O   0  0  0  0  0  1  0  0  0  0  0  0
  188.7810  172.6190  138.7930 C   0  0  0  0  0  3  0  0  0  0  0  0
  190.1740  172.8350  140.7710 N   0  0  0  0  0  0  0  0  0  0  0  0
  189.6190  172.0960  139.6800 C   0  0  0  0  0  3  0  0  0  0  0  0
  187.4700  175.9980  139.6510 N   0  0  0  0  0  0  0  0  0  0  0  0
  188.1560  174.8300  139.8130 C   0  0  0  0  0  0  0  0  0  0  0  0
  188.5320  174.5720  141.1590 C   0  0  0  0  0  0  0  0  0  0  0  0
  187.8730  175.8080  142.1150 S   0  0  0  0  0  0  0  0  0  0  0  0
  193.4140  174.2130  140.3570 C   0  0  0  0  0  2  0  0  0  0  0  0
  191.6290  172.9360  140.8800 C   0  0  1  0  0  3  0  0  0  0  0  0
  194.3300  173.0200  140.3260 C   0  0  0  0  0  0  0  0  0  0  0  0
  195.4800  173.1450  139.9440 O   0  0  0  0  0  0  0  0  0  0  0  0
  192.3130  171.5720  140.6960 C   0  0  0  0  0  2  0  0  0  0  0  0
  192.1230  173.8490  139.9300 O   0  0  0  0  0  0  0  0  0  0  0  0
  193.8330  171.6950  140.8440 C   0  0  2  0  0  3  0  0  0  0  0  0
  194.2160  171.5070  142.3040 C   0  0  0  0  0  2  0  0  0  0  0  0
  193.3120  170.4570  142.9370 C   0  0  0  0  0  2  0  0  0  0  0  0
  194.3240  168.2630  142.6670 C   0  0  0  0  0  1  0  0  0  0  0  0
  193.2060  168.6580  144.7700 C   0  0  0  0  0  1  0  0  0  0  0  0
  194.0520  169.3400  143.6980 C   0  0  0  0  0  0  0  0  0  0  0  0
  195.3190  169.7490  144.1900 O   0  0  0  0  0  0  0  0  0  0  0  0
  194.9580  169.1510  146.9010 O   0  0  0  0  0  1  0  0  0  0  0  0
  194.1460  171.3930  145.8390 O   0  0  0  0  0  0  0  0  0  0  0  0
  196.7040  171.1810  146.1920 O   0  0  0  0  0  1  0  0  0  0  0  0
  195.2680  170.3910  145.7830 P   0  0  0  0  0  0  0  0  0  0  0  0
  189.4080  171.8480  144.8910 O   0  0  0  0  0  1  0  0  0  0  0  0
  189.4500  173.4660  143.1550 C   0  0  1  0  0  3  0  0  0  0  0  0
  189.9170  172.0990  143.6140 C   0  0  1  0  0  3  0  0  0  0  0  0
  190.8860  173.2810  143.5960 C   0  0  2  0  0  3  0  0  0  0  0  0
  191.0770  173.9570  144.9450 C   0  0  0  0  0  2  0  0  0  0  0  0
  190.7310  175.4040  144.8650 C   0  0  0  0  0  0  0  0  0  0  0  0
  191.2830  177.6480  144.1910 C   0  0  0  0  0  3  0  0  0  0  0  0
  191.6100  176.2950  144.2500 C   0  0  0  0  0  3  0  0  0  0  0  0
  189.2420  177.1800  145.3840 C   0  0  0  0  0  0  0  0  0  0  0  0
  189.5810  175.8660  145.4190 N   0  0  0  0  0  0  0  0  0  0  0  0
  190.0890  178.0970  144.7510 C   0  0  0  0  0  3  0  0  0  0  0  0
  187.9230  177.6010  145.9500 C   0  0  2  0  0  3  0  0  0  0  0  0
  185.7560  176.7050  146.3060 C   0  0  0  0  0  2  0  0  0  0  0  0
  187.2090  176.4290  146.5740 C   0  0  0  0  0  2  0  0  0  0  0  0
  184.7540  178.4940  145.1100 O   0  0  0  0  0  1  0  0  0  0  0  0
  187.0570  178.1920  144.9320 N   0  0  0  0  0  2  0  0  0  0  0  0
  185.7620  177.5370  145.0440 C   0  0  1  0  0  3  0  0  0  0  0  0
  1  6  1  0  0  0  0
  1 10  2  0  0  0  0
  2  3  1  0  0  0  0
  2 12  1  0  0  0  0
  5  1  1  0  0  0  0
  6  8  2  0  0  0  0
  7 14  1  0  0  0  0
  7  4  1  0  0  0  0
  8  7  1  0  0  0  0
  9 10  1  0  0  0  0
  9  2  2  0  0  0  0
 10 11  1  0  0  0  0
 11  4  2  0  0  0  0
 11 12  1  0  0  0  0
 14 17  1  6  0  0  0
 15 13  1  0  0  0  0
 15 19  1  0  0  0  0
 16 15  2  0  0  0  0
 17 19  1  0  0  0  0
 18 13  1  0  0  0  0
 18 14  1  0  0  0  0
 19 20  1  1  0  0  0
 20 21  1  0  0  0  0
 21 24  1  0  0  0  0
 22 24  1  0  0  0  0
 24 25  1  0  0  0  0
 24 23  1  0  0  0  0
 25 29  1  0  0  0  0
 29 27  2  0  0  0  0
 29 28  1  0  0  0  0
 29 26  1  0  0  0  0
 31  4  1  6  0  0  0
 31 33  1  0  0  0  0
 31 32  1  0  0  0  0
 32 30  1  1  0  0  0
 33 32  1  0  0  0  0
 33 34  1  1  0  0  0
 35 34  1  0  0  0  0
 35 39  1  0  0  0  0
 36 37  1  0  0  0  0
 36 40  2  0  0  0  0
 37 35  2  0  0  0  0
 38 39  2  0  0  0  0
 40 38  1  0  0  0  0
 41 38  1  6  0  0  0
 41 43  1  0  0  0  0
 42 43  1  0  0  0  0
 45 46  1  0  0  0  0
 45 41  1  0  0  0  0
 46 44  1  1  0  0  0
 46 42  1  0  0  0  0
M  END
>  <MODEL>
9

>  <REMARK>
 VINA RESULT:      -6.8      2.836      4.848
  Name = 
  10 active torsions:
  status: ('A' for Active; 'I' for Inactive)
    1  A    between atoms: C_6  and  C_15
    2  A    between atoms: C_6  and  C_44
    3  A    between atoms: C_8  and  C_17
    4  A    between atoms: C_10  and  N_31
    5  A    between atoms: C_12  and  C_32
    6  A    between atoms: C_13  and  C_14
    7  A    between atoms: C_15  and  C_46
    8  A    between atoms: C_17  and  C_23
    9  A    between atoms: P_35  and  O_43
   10  A    between atoms: O_43  and  C_44
                            x       y       z     vdW  Elec       q    Type
                         _______ _______ _______ _____ _____    ______ ____

>  <TORSDO>
F 10

$$$$
