=
 OpenBabel11042417333D

 39 43  0  0  1  0  0  0  0  0999 V2000
  192.4570  172.7900  141.2980 N   0  0  0  0  0  2  0  0  0  0  0  0
  190.1970  173.5660  141.8640 C   0  0  0  0  0  2  0  0  0  0  0  0
  189.8610  172.8260  144.3090 C   0  0  2  0  0  3  0  0  0  0  0  0
  194.5170  173.7670  142.3360 C   0  0  2  0  0  3  0  0  0  0  0  0
  193.8770  172.7520  141.4540 C   0  0  0  0  0  0  0  0  0  0  0  0
  193.7270  173.9280  143.6360 C   0  0  2  0  0  3  0  0  0  0  0  0
  191.4770  174.8340  144.2360 O   0  0  0  0  0  0  0  0  0  0  0  0
  191.7040  173.8370  141.9710 C   0  0  1  0  0  3  0  0  0  0  0  0
  190.7620  171.9440  144.8740 F   0  0  0  0  0  0  0  0  0  0  0  0
  192.1810  173.9010  143.4360 C   0  0  1  0  0  3  0  0  0  0  0  0
  189.6690  172.5020  142.8190 C   0  0  0  0  0  2  0  0  0  0  0  0
  190.1980  174.3180  144.6590 C   0  0  2  0  0  3  0  0  0  0  0  0
  194.5400  171.8300  140.9290 O   0  0  0  0  0  0  0  0  0  0  0  0
  187.8720  176.3300  145.8000 C   0  0  2  0  0  3  0  0  0  0  0  0
  190.8610  175.7590  146.6750 C   0  0  0  0  0  2  0  0  0  0  0  0
  188.4490  176.5130  147.0530 C   0  0  1  0  0  3  0  0  0  0  0  0
  188.7620  175.3530  146.3710 C   0  0  2  0  0  3  0  0  0  0  0  0
  189.9150  176.9770  147.0460 C   0  0  0  0  0  2  0  0  0  0  0  0
  189.9660  174.6130  146.1600 C   0  0  1  0  0  3  0  0  0  0  0  0
  187.2360  176.8770  144.6000 C   0  0  0  0  0  0  0  0  0  0  0  0
  186.0680  176.5100  144.1530 N   0  0  0  0  0  0  0  0  0  0  0  0
  187.0300  178.1280  142.8370 C   0  0  0  0  0  3  0  0  0  0  0  0
  187.8540  177.8580  143.7880 N   0  0  0  0  0  0  0  0  0  0  0  0
  185.7810  177.3240  142.9740 C   0  0  2  0  0  3  0  0  0  0  0  0
  183.6260  178.2080  142.5220 O   0  0  0  0  0  0  0  0  0  0  0  0
  184.6210  178.2510  143.2470 C   0  0  0  0  0  0  0  0  0  0  0  0
  184.7110  179.2750  144.3370 C   0  0  0  0  0  2  0  0  0  0  0  0
  183.7200  178.9330  145.4290 C   0  0  0  0  0  2  0  0  0  0  0  0
  184.4180  178.3170  146.5370 N   0  0  0  0  0  2  0  0  0  0  0  0
  185.5510  179.1750  146.8400 C   0  0  0  0  0  1  0  0  0  0  0  0
  194.1840  175.0540  144.3590 O   0  0  0  0  0  0  0  0  0  0  0  0
  194.5260  174.6190  145.6490 C   0  0  0  0  0  2  0  0  0  0  0  0
  196.0220  174.3530  145.6940 C   0  0  0  0  0  1  0  0  0  0  0  0
  194.6080  175.0310  141.6150 N   0  0  0  0  0  2  0  0  0  0  0  0
  196.9350  174.3620  141.9810 C   0  0  0  0  0  1  0  0  0  0  0  0
  196.0130  175.4140  141.3650 C   0  0  1  0  0  0  0  0  0  0  0  0
  196.2960  175.5120  139.9810 O   0  0  0  0  0  1  0  0  0  0  0  0
  196.2560  176.7160  141.9760 N   0  0  0  0  0  0  0  0  0  0  0  0
  196.9410  176.8430  143.0560 C   0  0  0  0  0  2  0  0  0  0  0  0
  1  5  1  0  0  0  0
  1  8  1  0  0  0  0
  2 11  1  0  0  0  0
  3 12  1  0  0  0  0
  3  9  1  6  0  0  0
  4 34  1  6  0  0  0
  4  6  1  0  0  0  0
  5  4  1  0  0  0  0
  6 31  1  6  0  0  0
  8  2  1  1  0  0  0
  8 10  1  0  0  0  0
 10  6  1  0  0  0  0
 10  7  1  6  0  0  0
 11  3  1  0  0  0  0
 12  7  1  1  0  0  0
 12 19  1  0  0  0  0
 13  5  2  0  0  0  0
 14 20  1  6  0  0  0
 14 17  1  0  0  0  0
 14 16  1  0  0  0  0
 15 18  1  0  0  0  0
 16 18  1  6  0  0  0
 17 16  1  0  0  0  0
 19 17  1  0  0  0  0
 19 15  1  0  0  0  0
 21 20  2  0  0  0  0
 22 24  1  0  0  0  0
 22 23  2  0  0  0  0
 23 20  1  0  0  0  0
 24 26  1  0  0  0  0
 24 21  1  0  0  0  0
 25 26  2  0  0  0  0
 26 27  1  0  0  0  0
 27 28  1  0  0  0  0
 28 29  1  0  0  0  0
 29 30  1  0  0  0  0
 31 32  1  0  0  0  0
 32 33  1  0  0  0  0
 36 34  1  0  0  0  0
 36 38  1  0  0  0  0
 36 35  1  0  0  0  0
 37 36  1  0  0  0  0
 38 39  2  0  0  0  0
M  END
>  <MODEL>
1

>  <REMARK>
 VINA RESULT:      -6.9      0.000      0.000
  Name = 
  11 active torsions:
  status: ('A' for Active; 'I' for Inactive)
    1  A    between atoms: N_1  and  C_21
    2  A    between atoms: C_2  and  C_3
    3  A    between atoms: C_12  and  N_31
    4  A    between atoms: C_16  and  O_28
    5  A    between atoms: N_18  and  C_33
    6  A    between atoms: C_21  and  N_31
    7  A    between atoms: C_27  and  C_36
    8  A    between atoms: O_28  and  C_32
    9  A    between atoms: C_30  and  C_35
   10  A    between atoms: C_33  and  C_34
   11  A    between atoms: C_34  and  C_36
                            x       y       z     vdW  Elec       q    Type
                         _______ _______ _______ _____ _____    ______ ____

>  <TORSDO>
F 11

$$$$
=
 OpenBabel11042417333D

 39 43  0  0  1  0  0  0  0  0999 V2000
  190.1590  170.8420  141.8720 N   0  0  0  0  0  2  0  0  0  0  0  0
  188.9020  172.2020  143.4860 C   0  0  0  0  0  2  0  0  0  0  0  0
  190.7190  173.3160  144.9340 C   0  0  2  0  0  3  0  0  0  0  0  0
  191.5850  171.8560  140.0790 C   0  0  2  0  0  3  0  0  0  0  0  0
  191.0900  170.6530  140.8040 C   0  0  0  0  0  0  0  0  0  0  0  0
  191.9480  172.9690  141.0650 C   0  0  2  0  0  3  0  0  0  0  0  0
  190.6600  174.4440  142.6160 O   0  0  0  0  0  0  0  0  0  0  0  0
  189.7060  172.1910  142.1790 C   0  0  1  0  0  3  0  0  0  0  0  0
  192.0220  172.8690  144.8380 F   0  0  0  0  0  0  0  0  0  0  0  0
  190.9460  173.1060  142.2500 C   0  0  1  0  0  3  0  0  0  0  0  0
  189.7440  172.1410  144.7550 C   0  0  0  0  0  2  0  0  0  0  0  0
  190.4600  174.5780  144.0380 C   0  0  2  0  0  3  0  0  0  0  0  0
  191.5340  169.5110  140.5570 O   0  0  0  0  0  0  0  0  0  0  0  0
  189.2480  177.6260  144.0040 C   0  0  2  0  0  3  0  0  0  0  0  0
  192.1430  176.4410  143.5150 C   0  0  0  0  0  2  0  0  0  0  0  0
  190.4750  178.2650  144.1610 C   0  0  1  0  0  3  0  0  0  0  0  0
  190.3670  176.9680  144.6250 C   0  0  2  0  0  3  0  0  0  0  0  0
  191.5620  177.8700  143.1480 C   0  0  0  0  0  2  0  0  0  0  0  0
  191.2140  175.8170  144.5750 C   0  0  1  0  0  3  0  0  0  0  0  0
  187.9550  177.5020  143.3270 C   0  0  0  0  0  0  0  0  0  0  0  0
  186.8810  177.0100  143.8760 N   0  0  0  0  0  0  0  0  0  0  0  0
  186.5210  177.6700  141.7060 C   0  0  0  0  0  3  0  0  0  0  0  0
  187.7580  177.8940  141.9810 N   0  0  0  0  0  0  0  0  0  0  0  0
  185.8070  177.1090  142.8900 C   0  0  2  0  0  3  0  0  0  0  0  0
  183.6870  178.1640  142.7550 O   0  0  0  0  0  0  0  0  0  0  0  0
  184.7610  178.0940  143.3520 C   0  0  0  0  0  0  0  0  0  0  0  0
  185.0570  179.0400  144.4760 C   0  0  0  0  0  2  0  0  0  0  0  0
  184.0710  178.8080  145.6010 C   0  0  0  0  0  2  0  0  0  0  0  0
  184.4910  177.6620  146.3790 N   0  0  0  0  0  2  0  0  0  0  0  0
  185.5050  178.1410  147.3030 C   0  0  0  0  0  1  0  0  0  0  0  0
  192.1810  174.1830  140.3770 O   0  0  0  0  0  0  0  0  0  0  0  0
  193.5530  174.2530  140.0930 C   0  0  0  0  0  2  0  0  0  0  0  0
  194.3240  174.2360  141.4030 C   0  0  0  0  0  1  0  0  0  0  0  0
  190.5630  172.2970  139.1380 N   0  0  0  0  0  2  0  0  0  0  0  0
  192.3760  171.7540  137.5850 C   0  0  0  0  0  1  0  0  0  0  0  0
  190.8610  171.8500  137.7620 C   0  0  1  0  0  0  0  0  0  0  0  0
  190.2900  170.5850  137.4830 O   0  0  0  0  0  1  0  0  0  0  0  0
  190.3050  172.8210  136.8270 N   0  0  0  0  0  0  0  0  0  0  0  0
  190.6320  174.0640  136.8640 C   0  0  0  0  0  2  0  0  0  0  0  0
  1  8  1  0  0  0  0
  2 11  1  0  0  0  0
  3  9  1  6  0  0  0
  4 34  1  6  0  0  0
  4  5  1  0  0  0  0
  4  6  1  0  0  0  0
  5  1  1  0  0  0  0
  6 31  1  6  0  0  0
  6 10  1  0  0  0  0
  8 10  1  0  0  0  0
  8  2  1  1  0  0  0
 10  7  1  6  0  0  0
 11  3  1  0  0  0  0
 12  7  1  6  0  0  0
 12 19  1  0  0  0  0
 12  3  1  0  0  0  0
 13  5  2  0  0  0  0
 14 20  1  6  0  0  0
 14 16  1  0  0  0  0
 14 17  1  0  0  0  0
 15 19  1  0  0  0  0
 16 18  1  6  0  0  0
 16 17  1  0  0  0  0
 18 15  1  0  0  0  0
 19 17  1  0  0  0  0
 20 21  2  0  0  0  0
 22 23  2  0  0  0  0
 22 24  1  0  0  0  0
 23 20  1  0  0  0  0
 24 26  1  0  0  0  0
 24 21  1  0  0  0  0
 25 26  2  0  0  0  0
 26 27  1  0  0  0  0
 27 28  1  0  0  0  0
 28 29  1  0  0  0  0
 29 30  1  0  0  0  0
 32 31  1  0  0  0  0
 32 33  1  0  0  0  0
 35 36  1  0  0  0  0
 36 34  1  0  0  0  0
 37 36  1  0  0  0  0
 38 39  2  0  0  0  0
 38 36  1  0  0  0  0
M  END
>  <MODEL>
2

>  <REMARK>
 VINA RESULT:      -6.6      2.668      3.932
  Name = 
  11 active torsions:
  status: ('A' for Active; 'I' for Inactive)
    1  A    between atoms: N_1  and  C_21
    2  A    between atoms: C_2  and  C_3
    3  A    between atoms: C_12  and  N_31
    4  A    between atoms: C_16  and  O_28
    5  A    between atoms: N_18  and  C_33
    6  A    between atoms: C_21  and  N_31
    7  A    between atoms: C_27  and  C_36
    8  A    between atoms: O_28  and  C_32
    9  A    between atoms: C_30  and  C_35
   10  A    between atoms: C_33  and  C_34
   11  A    between atoms: C_34  and  C_36
                            x       y       z     vdW  Elec       q    Type
                         _______ _______ _______ _____ _____    ______ ____

>  <TORSDO>
F 11

$$$$
=
 OpenBabel11042417333D

 39 43  0  0  1  0  0  0  0  0999 V2000
  195.4850  174.6130  145.9470 N   0  0  0  0  0  2  0  0  0  0  0  0
  193.2870  175.6980  146.0910 C   0  0  0  0  0  2  0  0  0  0  0  0
  192.7860  176.4480  143.6770 C   0  0  2  0  0  3  0  0  0  0  0  0
  195.8430  172.4490  144.7350 C   0  0  2  0  0  3  0  0  0  0  0  0
  196.3960  173.6170  145.4760 C   0  0  0  0  0  0  0  0  0  0  0  0
  194.7960  172.9030  143.7150 C   0  0  2  0  0  3  0  0  0  0  0  0
  192.5060  173.8910  143.8560 O   0  0  0  0  0  0  0  0  0  0  0  0
  194.0600  174.4250  145.7190 C   0  0  1  0  0  3  0  0  0  0  0  0
  193.7980  176.4110  142.7380 F   0  0  0  0  0  0  0  0  0  0  0  0
  193.8610  174.0330  144.2400 C   0  0  1  0  0  3  0  0  0  0  0  0
  193.3580  176.8150  145.0560 C   0  0  0  0  0  2  0  0  0  0  0  0
  191.8790  175.1680  143.6180 C   0  0  2  0  0  3  0  0  0  0  0  0
  197.6280  173.7810  145.6120 O   0  0  0  0  0  0  0  0  0  0  0  0
  188.7430  176.1090  143.4130 C   0  0  2  0  0  3  0  0  0  0  0  0
  190.3880  173.7500  142.0870 C   0  0  0  0  0  2  0  0  0  0  0  0
  188.4740  175.4380  142.2240 C   0  0  1  0  0  3  0  0  0  0  0  0
  189.7870  175.7880  142.4760 C   0  0  2  0  0  3  0  0  0  0  0  0
  188.8180  173.9400  142.2150 C   0  0  0  0  0  2  0  0  0  0  0  0
  191.0440  175.1260  142.3160 C   0  0  1  0  0  3  0  0  0  0  0  0
  188.3740  176.4640  144.7860 C   0  0  0  0  0  0  0  0  0  0  0  0
  187.9190  177.6300  145.1470 N   0  0  0  0  0  0  0  0  0  0  0  0
  188.0800  176.1760  146.9170 C   0  0  0  0  0  3  0  0  0  0  0  0
  188.5020  175.5610  145.8680 N   0  0  0  0  0  0  0  0  0  0  0  0
  187.6300  177.5580  146.5780 C   0  0  2  0  0  3  0  0  0  0  0  0
  185.4930  176.6550  147.0760 O   0  0  0  0  0  0  0  0  0  0  0  0
  186.1430  177.6680  146.8180 C   0  0  0  0  0  0  0  0  0  0  0  0
  185.4480  178.9860  146.6600 C   0  0  0  0  0  2  0  0  0  0  0  0
  184.2140  178.8020  145.8020 C   0  0  0  0  0  2  0  0  0  0  0  0
  184.6050  178.7070  144.4110 N   0  0  0  0  0  2  0  0  0  0  0  0
  185.3270  179.9290  144.1010 C   0  0  0  0  0  1  0  0  0  0  0  0
  194.0990  171.7900  143.1910 O   0  0  0  0  0  0  0  0  0  0  0  0
  194.5780  171.5630  141.8920 C   0  0  0  0  0  2  0  0  0  0  0  0
  193.6330  172.2230  140.9010 C   0  0  0  0  0  1  0  0  0  0  0  0
  195.2740  171.5070  145.6910 N   0  0  0  0  0  2  0  0  0  0  0  0
  194.7690  169.1410  145.3160 C   0  0  0  0  0  1  0  0  0  0  0  0
  195.8770  170.1650  145.5570 C   0  0  1  0  0  0  0  0  0  0  0  0
  196.7950  170.1040  144.4810 O   0  0  0  0  0  1  0  0  0  0  0  0
  196.5930  169.8520  146.7890 N   0  0  0  0  0  0  0  0  0  0  0  0
  197.4030  168.8570  146.8690 C   0  0  0  0  0  2  0  0  0  0  0  0
  3  9  1  6  0  0  0
  3 11  1  0  0  0  0
  4  5  1  0  0  0  0
  4 34  1  1  0  0  0
  5 13  2  0  0  0  0
  5  1  1  0  0  0  0
  6 31  1  1  0  0  0
  6 10  1  0  0  0  0
  6  4  1  0  0  0  0
  8  1  1  0  0  0  0
  8  2  1  6  0  0  0
 10  7  1  1  0  0  0
 10  8  1  0  0  0  0
 11  2  1  0  0  0  0
 12  3  1  0  0  0  0
 12  7  1  6  0  0  0
 14 20  1  1  0  0  0
 15 18  1  0  0  0  0
 15 19  1  0  0  0  0
 16 18  1  1  0  0  0
 16 17  1  0  0  0  0
 16 14  1  0  0  0  0
 17 14  1  0  0  0  0
 19 17  1  0  0  0  0
 19 12  1  0  0  0  0
 20 21  2  0  0  0  0
 20 23  1  0  0  0  0
 21 24  1  0  0  0  0
 23 22  2  0  0  0  0
 24 26  1  0  0  0  0
 24 22  1  0  0  0  0
 26 25  2  0  0  0  0
 27 26  1  0  0  0  0
 28 27  1  0  0  0  0
 29 28  1  0  0  0  0
 30 29  1  0  0  0  0
 32 31  1  0  0  0  0
 33 32  1  0  0  0  0
 35 36  1  0  0  0  0
 36 34  1  0  0  0  0
 36 38  1  0  0  0  0
 37 36  1  0  0  0  0
 38 39  2  0  0  0  0
M  END
>  <MODEL>
3

>  <REMARK>
 VINA RESULT:      -6.5      3.037      4.760
  Name = 
  11 active torsions:
  status: ('A' for Active; 'I' for Inactive)
    1  A    between atoms: N_1  and  C_21
    2  A    between atoms: C_2  and  C_3
    3  A    between atoms: C_12  and  N_31
    4  A    between atoms: C_16  and  O_28
    5  A    between atoms: N_18  and  C_33
    6  A    between atoms: C_21  and  N_31
    7  A    between atoms: C_27  and  C_36
    8  A    between atoms: O_28  and  C_32
    9  A    between atoms: C_30  and  C_35
   10  A    between atoms: C_33  and  C_34
   11  A    between atoms: C_34  and  C_36
                            x       y       z     vdW  Elec       q    Type
                         _______ _______ _______ _____ _____    ______ ____

>  <TORSDO>
F 11

$$$$
=
 OpenBabel11042417333D

 39 43  0  0  1  0  0  0  0  0999 V2000
  195.1540  173.2990  145.6580 N   0  0  0  0  0  2  0  0  0  0  0  0
  193.0520  174.5610  145.5330 C   0  0  0  0  0  2  0  0  0  0  0  0
  192.5190  174.6670  143.0140 C   0  0  2  0  0  3  0  0  0  0  0  0
  195.3010  170.8660  145.0790 C   0  0  2  0  0  3  0  0  0  0  0  0
  195.9690  172.1400  145.4640 C   0  0  0  0  0  0  0  0  0  0  0  0
  194.2550  171.1110  143.9900 C   0  0  2  0  0  3  0  0  0  0  0  0
  192.0530  172.2870  143.8900 O   0  0  0  0  0  0  0  0  0  0  0  0
  193.7120  173.1760  145.5120 C   0  0  1  0  0  3  0  0  0  0  0  0
  193.4900  174.2930  142.1060 F   0  0  0  0  0  0  0  0  0  0  0  0
  193.4280  172.4150  144.2000 C   0  0  1  0  0  3  0  0  0  0  0  0
  193.1680  175.3450  144.2320 C   0  0  0  0  0  2  0  0  0  0  0  0
  191.5160  173.4990  143.3210 C   0  0  2  0  0  3  0  0  0  0  0  0
  197.2140  172.2330  145.5320 O   0  0  0  0  0  0  0  0  0  0  0  0
  188.7600  175.1080  142.5630 C   0  0  2  0  0  3  0  0  0  0  0  0
  189.6070  172.0620  142.3890 C   0  0  0  0  0  2  0  0  0  0  0  0
  188.2500  174.1230  141.7240 C   0  0  1  0  0  3  0  0  0  0  0  0
  189.6200  174.1650  141.8980 C   0  0  2  0  0  3  0  0  0  0  0  0
  188.1620  172.7140  142.3320 C   0  0  0  0  0  2  0  0  0  0  0  0
  190.6330  173.1750  142.0930 C   0  0  1  0  0  3  0  0  0  0  0  0
  188.5810  176.0680  143.6560 C   0  0  0  0  0  0  0  0  0  0  0  0
  187.4230  176.4680  144.1010 N   0  0  0  0  0  0  0  0  0  0  0  0
  189.1700  177.4420  145.2290 C   0  0  0  0  0  3  0  0  0  0  0  0
  189.6700  176.6760  144.3240 N   0  0  0  0  0  0  0  0  0  0  0  0
  187.6800  177.3780  145.2150 C   0  0  2  0  0  3  0  0  0  0  0  0
  187.8500  175.8680  147.0370 O   0  0  0  0  0  0  0  0  0  0  0  0
  187.1980  176.7690  146.5110 C   0  0  0  0  0  0  0  0  0  0  0  0
  185.8920  177.1980  147.1080 C   0  0  0  0  0  2  0  0  0  0  0  0
  185.5330  178.5750  146.5930 C   0  0  0  0  0  2  0  0  0  0  0  0
  184.1670  178.5690  146.1140 N   0  0  0  0  0  2  0  0  0  0  0  0
  184.2230  178.9140  144.7040 C   0  0  0  0  0  1  0  0  0  0  0  0
  193.4560  169.9600  143.8010 O   0  0  0  0  0  0  0  0  0  0  0  0
  193.6970  169.4860  142.5020 C   0  0  0  0  0  2  0  0  0  0  0  0
  192.3780  169.4370  141.7480 C   0  0  0  0  0  1  0  0  0  0  0  0
  194.6990  170.2690  146.2650 N   0  0  0  0  0  2  0  0  0  0  0  0
  194.4010  168.1660  147.4830 C   0  0  0  0  0  1  0  0  0  0  0  0
  195.3580  168.9980  146.6290 C   0  0  1  0  0  0  0  0  0  0  0  0
  195.7190  168.2440  145.4860 O   0  0  0  0  0  1  0  0  0  0  0  0
  196.5700  169.3010  147.3810 N   0  0  0  0  0  0  0  0  0  0  0  0
  197.2050  168.3980  148.0400 C   0  0  0  0  0  2  0  0  0  0  0  0
  3  9  1  6  0  0  0
  3 12  1  0  0  0  0
  3 11  1  0  0  0  0
  4  5  1  0  0  0  0
  4 34  1  1  0  0  0
  5 13  2  0  0  0  0
  5  1  1  0  0  0  0
  6 31  1  1  0  0  0
  6 10  1  0  0  0  0
  6  4  1  0  0  0  0
  8  2  1  6  0  0  0
  8  1  1  0  0  0  0
 10  7  1  1  0  0  0
 10  8  1  0  0  0  0
 11  2  1  0  0  0  0
 12  7  1  6  0  0  0
 14 20  1  1  0  0  0
 16 17  1  0  0  0  0
 16 18  1  1  0  0  0
 16 14  1  0  0  0  0
 17 19  1  0  0  0  0
 17 14  1  0  0  0  0
 18 15  1  0  0  0  0
 19 15  1  0  0  0  0
 19 12  1  0  0  0  0
 20 21  2  0  0  0  0
 20 23  1  0  0  0  0
 21 24  1  0  0  0  0
 23 22  2  0  0  0  0
 24 22  1  0  0  0  0
 24 26  1  0  0  0  0
 26 25  2  0  0  0  0
 26 27  1  0  0  0  0
 28 27  1  0  0  0  0
 29 28  1  0  0  0  0
 30 29  1  0  0  0  0
 32 31  1  0  0  0  0
 33 32  1  0  0  0  0
 34 36  1  0  0  0  0
 36 38  1  0  0  0  0
 36 35  1  0  0  0  0
 37 36  1  0  0  0  0
 38 39  2  0  0  0  0
M  END
>  <MODEL>
4

>  <REMARK>
 VINA RESULT:      -6.5      3.402      5.221
  Name = 
  11 active torsions:
  status: ('A' for Active; 'I' for Inactive)
    1  A    between atoms: N_1  and  C_21
    2  A    between atoms: C_2  and  C_3
    3  A    between atoms: C_12  and  N_31
    4  A    between atoms: C_16  and  O_28
    5  A    between atoms: N_18  and  C_33
    6  A    between atoms: C_21  and  N_31
    7  A    between atoms: C_27  and  C_36
    8  A    between atoms: O_28  and  C_32
    9  A    between atoms: C_30  and  C_35
   10  A    between atoms: C_33  and  C_34
   11  A    between atoms: C_34  and  C_36
                            x       y       z     vdW  Elec       q    Type
                         _______ _______ _______ _____ _____    ______ ____

>  <TORSDO>
F 11

$$$$
=
 OpenBabel11042417333D

 39 43  0  0  1  0  0  0  0  0999 V2000
  188.6810  176.3310  142.6570 N   0  0  0  0  0  2  0  0  0  0  0  0
  190.3810  177.8520  143.5670 C   0  0  0  0  0  2  0  0  0  0  0  0
  190.8860  176.9140  145.9130 C   0  0  2  0  0  3  0  0  0  0  0  0
  189.1820  173.9460  142.0740 C   0  0  2  0  0  3  0  0  0  0  0  0
  188.2000  175.0570  142.2220 C   0  0  0  0  0  0  0  0  0  0  0  0
  190.1360  173.9050  143.2700 C   0  0  2  0  0  3  0  0  0  0  0  0
  191.9530  175.3870  144.1310 O   0  0  0  0  0  0  0  0  0  0  0  0
  190.1070  176.5000  142.8960 C   0  0  1  0  0  3  0  0  0  0  0  0
  190.0550  175.9480  146.4440 F   0  0  0  0  0  0  0  0  0  0  0  0
  190.5900  175.3140  143.7560 C   0  0  1  0  0  3  0  0  0  0  0  0
  190.0730  177.9000  145.0590 C   0  0  0  0  0  2  0  0  0  0  0  0
  192.1580  176.2910  145.2350 C   0  0  2  0  0  3  0  0  0  0  0  0
  186.9740  174.8720  142.0620 O   0  0  0  0  0  0  0  0  0  0  0  0
  195.3330  175.6640  144.7030 C   0  0  2  0  0  3  0  0  0  0  0  0
  193.0530  174.1190  146.2640 C   0  0  0  0  0  2  0  0  0  0  0  0
  195.4730  174.7560  145.7480 C   0  0  1  0  0  3  0  0  0  0  0  0
  194.4670  175.6980  145.8510 C   0  0  2  0  0  3  0  0  0  0  0  0
  194.4630  173.5970  145.7590 C   0  0  0  0  0  2  0  0  0  0  0  0
  193.1050  175.6600  146.2830 C   0  0  1  0  0  3  0  0  0  0  0  0
  195.5540  176.0380  143.3040 C   0  0  0  0  0  0  0  0  0  0  0  0
  196.7060  176.3920  142.8090 N   0  0  0  0  0  0  0  0  0  0  0  0
  195.0400  176.4170  141.2290 C   0  0  0  0  0  3  0  0  0  0  0  0
  194.5090  176.0690  142.3490 N   0  0  0  0  0  0  0  0  0  0  0  0
  196.5080  176.6340  141.3820 C   0  0  2  0  0  3  0  0  0  0  0  0
  197.2670  175.6960  139.3390 O   0  0  0  0  0  0  0  0  0  0  0  0
  197.2500  175.6020  140.5670 C   0  0  0  0  0  0  0  0  0  0  0  0
  197.8900  174.4250  141.2390 C   0  0  0  0  0  2  0  0  0  0  0  0
  197.1110  173.1720  140.9020 C   0  0  0  0  0  2  0  0  0  0  0  0
  196.8260  172.4410  142.1190 N   0  0  0  0  0  2  0  0  0  0  0  0
  195.3880  172.5050  142.3110 C   0  0  0  0  0  1  0  0  0  0  0  0
  191.2100  173.0200  143.0170 O   0  0  0  0  0  0  0  0  0  0  0  0
  191.0760  171.9310  143.8910 C   0  0  0  0  0  2  0  0  0  0  0  0
  192.0110  170.8220  143.4360 C   0  0  0  0  0  1  0  0  0  0  0  0
  189.9100  174.1210  140.8230 N   0  0  0  0  0  2  0  0  0  0  0  0
  190.5690  172.0440  139.7060 C   0  0  0  0  0  1  0  0  0  0  0  0
  189.4970  173.1290  139.8100 C   0  0  1  0  0  0  0  0  0  0  0  0
  188.2630  172.5190  140.1410 O   0  0  0  0  0  1  0  0  0  0  0  0
  189.3430  173.8090  138.5290 N   0  0  0  0  0  0  0  0  0  0  0  0
  188.1890  174.1530  138.0770 C   0  0  0  0  0  2  0  0  0  0  0  0
  1  8  1  0  0  0  0
  2 11  1  0  0  0  0
  3  9  1  6  0  0  0
  4 34  1  6  0  0  0
  4  5  1  0  0  0  0
  4  6  1  0  0  0  0
  5  1  1  0  0  0  0
  6 31  1  6  0  0  0
  6 10  1  0  0  0  0
  8  2  1  1  0  0  0
  8 10  1  0  0  0  0
 10  7  1  6  0  0  0
 11  3  1  0  0  0  0
 12  7  1  6  0  0  0
 12  3  1  0  0  0  0
 12 19  1  0  0  0  0
 13  5  2  0  0  0  0
 14 20  1  6  0  0  0
 14 16  1  0  0  0  0
 14 17  1  0  0  0  0
 15 19  1  0  0  0  0
 16 18  1  6  0  0  0
 16 17  1  0  0  0  0
 17 19  1  0  0  0  0
 18 15  1  0  0  0  0
 21 20  2  0  0  0  0
 22 24  1  0  0  0  0
 22 23  2  0  0  0  0
 23 20  1  0  0  0  0
 24 21  1  0  0  0  0
 25 26  2  0  0  0  0
 26 27  1  0  0  0  0
 26 24  1  0  0  0  0
 28 27  1  0  0  0  0
 28 29  1  0  0  0  0
 29 30  1  0  0  0  0
 31 32  1  0  0  0  0
 33 32  1  0  0  0  0
 35 36  1  0  0  0  0
 36 37  1  0  0  0  0
 36 34  1  0  0  0  0
 38 36  1  0  0  0  0
 39 38  2  0  0  0  0
M  END
>  <MODEL>
5

>  <REMARK>
 VINA RESULT:      -6.4      2.987      8.081
  Name = 
  11 active torsions:
  status: ('A' for Active; 'I' for Inactive)
    1  A    between atoms: N_1  and  C_21
    2  A    between atoms: C_2  and  C_3
    3  A    between atoms: C_12  and  N_31
    4  A    between atoms: C_16  and  O_28
    5  A    between atoms: N_18  and  C_33
    6  A    between atoms: C_21  and  N_31
    7  A    between atoms: C_27  and  C_36
    8  A    between atoms: O_28  and  C_32
    9  A    between atoms: C_30  and  C_35
   10  A    between atoms: C_33  and  C_34
   11  A    between atoms: C_34  and  C_36
                            x       y       z     vdW  Elec       q    Type
                         _______ _______ _______ _____ _____    ______ ____

>  <TORSDO>
F 11

$$$$
=
 OpenBabel11042417333D

 39 43  0  0  1  0  0  0  0  0999 V2000
  191.2100  175.9760  142.3780 N   0  0  0  0  0  2  0  0  0  0  0  0
  192.6520  174.1930  141.4990 C   0  0  0  0  0  2  0  0  0  0  0  0
  195.0470  175.0770  141.8520 C   0  0  2  0  0  3  0  0  0  0  0  0
  191.1090  176.5470  144.8160 C   0  0  2  0  0  3  0  0  0  0  0  0
  190.7140  176.8340  143.4090 C   0  0  0  0  0  0  0  0  0  0  0  0
  192.6030  176.2280  144.9030 C   0  0  2  0  0  3  0  0  0  0  0  0
  194.0570  174.3530  144.1200 O   0  0  0  0  0  0  0  0  0  0  0  0
  192.0430  174.8420  142.7490 C   0  0  1  0  0  3  0  0  0  0  0  0
  195.2300  176.4010  142.1970 F   0  0  0  0  0  0  0  0  0  0  0  0
  193.1230  175.3430  143.7300 C   0  0  1  0  0  3  0  0  0  0  0  0
  193.8420  174.9390  140.9070 C   0  0  0  0  0  2  0  0  0  0  0  0
  195.0590  174.1330  143.1060 C   0  0  2  0  0  3  0  0  0  0  0  0
  190.0400  177.8450  143.1110 O   0  0  0  0  0  0  0  0  0  0  0  0
  196.2950  171.4450  144.5230 C   0  0  2  0  0  3  0  0  0  0  0  0
  196.4690  174.5310  145.2110 C   0  0  0  0  0  2  0  0  0  0  0  0
  197.2840  172.1090  145.2420 C   0  0  1  0  0  3  0  0  0  0  0  0
  196.8150  172.7160  144.0930 C   0  0  2  0  0  3  0  0  0  0  0  0
  196.7970  173.2730  146.1200 C   0  0  0  0  0  2  0  0  0  0  0  0
  196.4660  174.0580  143.7440 C   0  0  1  0  0  3  0  0  0  0  0  0
  195.2100  170.4630  144.4590 C   0  0  0  0  0  0  0  0  0  0  0  0
  193.9550  170.7360  144.6780 N   0  0  0  0  0  0  0  0  0  0  0  0
  194.2840  168.5200  144.1760 C   0  0  0  0  0  3  0  0  0  0  0  0
  195.4350  169.0950  144.1710 N   0  0  0  0  0  0  0  0  0  0  0  0
  193.2010  169.5020  144.4690 C   0  0  2  0  0  3  0  0  0  0  0  0
  192.1720  168.6730  142.4990 O   0  0  0  0  0  0  0  0  0  0  0  0
  192.3080  169.6320  143.2580 C   0  0  0  0  0  0  0  0  0  0  0  0
  191.6580  170.9430  142.9350 C   0  0  0  0  0  2  0  0  0  0  0  0
  190.5830  170.7260  141.8920 C   0  0  0  0  0  2  0  0  0  0  0  0
  189.7020  171.8740  141.8630 N   0  0  0  0  0  2  0  0  0  0  0  0
  189.3580  172.1650  143.2440 C   0  0  0  0  0  1  0  0  0  0  0  0
  192.9280  175.7190  146.1820 O   0  0  0  0  0  0  0  0  0  0  0  0
  193.4270  176.7850  146.9470 C   0  0  0  0  0  2  0  0  0  0  0  0
  194.5720  177.4360  146.1870 C   0  0  0  0  0  1  0  0  0  0  0  0
  190.3030  175.4410  145.3190 N   0  0  0  0  0  2  0  0  0  0  0  0
  189.0270  174.7090  147.2760 C   0  0  0  0  0  1  0  0  0  0  0  0
  189.3560  175.8880  146.3610 C   0  0  1  0  0  0  0  0  0  0  0  0
  189.8930  176.9370  147.1470 O   0  0  0  0  0  1  0  0  0  0  0  0
  188.1450  176.3750  145.7120 N   0  0  0  0  0  0  0  0  0  0  0  0
  187.1290  176.7820  146.3870 C   0  0  0  0  0  2  0  0  0  0  0  0
  1  8  1  0  0  0  0
  1  5  1  0  0  0  0
  3  9  1  1  0  0  0
  3 12  1  0  0  0  0
  4  6  1  0  0  0  0
  4 34  1  6  0  0  0
  5  4  1  0  0  0  0
  6 31  1  1  0  0  0
  8  2  1  6  0  0  0
  8 10  1  0  0  0  0
 10  7  1  1  0  0  0
 10  6  1  0  0  0  0
 11  2  1  0  0  0  0
 11  3  1  0  0  0  0
 12 19  1  0  0  0  0
 12  7  1  1  0  0  0
 13  5  2  0  0  0  0
 14 20  1  1  0  0  0
 14 16  1  0  0  0  0
 15 18  1  0  0  0  0
 16 18  1  1  0  0  0
 17 14  1  0  0  0  0
 17 16  1  0  0  0  0
 19 17  1  0  0  0  0
 19 15  1  0  0  0  0
 20 21  2  0  0  0  0
 22 24  1  0  0  0  0
 23 22  2  0  0  0  0
 23 20  1  0  0  0  0
 24 21  1  0  0  0  0
 25 26  2  0  0  0  0
 26 24  1  0  0  0  0
 27 26  1  0  0  0  0
 28 27  1  0  0  0  0
 29 28  1  0  0  0  0
 29 30  1  0  0  0  0
 31 32  1  0  0  0  0
 33 32  1  0  0  0  0
 34 36  1  0  0  0  0
 36 37  1  0  0  0  0
 36 35  1  0  0  0  0
 38 36  1  0  0  0  0
 38 39  2  0  0  0  0
M  END
>  <MODEL>
6

>  <REMARK>
 VINA RESULT:      -6.2      3.020      8.046
  Name = 
  11 active torsions:
  status: ('A' for Active; 'I' for Inactive)
    1  A    between atoms: N_1  and  C_21
    2  A    between atoms: C_2  and  C_3
    3  A    between atoms: C_12  and  N_31
    4  A    between atoms: C_16  and  O_28
    5  A    between atoms: N_18  and  C_33
    6  A    between atoms: C_21  and  N_31
    7  A    between atoms: C_27  and  C_36
    8  A    between atoms: O_28  and  C_32
    9  A    between atoms: C_30  and  C_35
   10  A    between atoms: C_33  and  C_34
   11  A    between atoms: C_34  and  C_36
                            x       y       z     vdW  Elec       q    Type
                         _______ _______ _______ _____ _____    ______ ____

>  <TORSDO>
F 11

$$$$
=
 OpenBabel11042417333D

 39 43  0  0  1  0  0  0  0  0999 V2000
  192.1770  172.9430  140.6860 N   0  0  0  0  0  2  0  0  0  0  0  0
  190.6680  174.1200  142.2250 C   0  0  0  0  0  2  0  0  0  0  0  0
  191.2170  173.1310  144.5400 C   0  0  2  0  0  3  0  0  0  0  0  0
  194.6610  173.2720  140.7220 C   0  0  2  0  0  3  0  0  0  0  0  0
  193.4630  172.5640  140.1900 C   0  0  0  0  0  0  0  0  0  0  0  0
  194.5710  173.4180  142.2430 C   0  0  2  0  0  3  0  0  0  0  0  0
  193.1180  174.7120  143.8100 O   0  0  0  0  0  0  0  0  0  0  0  0
  192.0890  174.0260  141.6550 C   0  0  1  0  0  3  0  0  0  0  0  0
  192.0010  171.9970  144.6170 F   0  0  0  0  0  0  0  0  0  0  0  0
  193.1410  173.7690  142.7540 C   0  0  1  0  0  3  0  0  0  0  0  0
  190.3320  173.0760  143.2840 C   0  0  0  0  0  2  0  0  0  0  0  0
  192.0540  174.4430  144.7450 C   0  0  2  0  0  3  0  0  0  0  0  0
  193.5690  171.6020  139.3980 O   0  0  0  0  0  0  0  0  0  0  0  0
  190.3720  175.8610  147.1780 C   0  0  2  0  0  3  0  0  0  0  0  0
  193.4430  175.8160  146.4070 C   0  0  0  0  0  2  0  0  0  0  0  0
  191.4690  176.0510  148.0130 C   0  0  1  0  0  3  0  0  0  0  0  0
  191.5460  175.0340  147.0810 C   0  0  2  0  0  3  0  0  0  0  0  0
  192.6610  176.7910  147.3830 C   0  0  0  0  0  2  0  0  0  0  0  0
  192.5680  174.5640  146.1990 C   0  0  1  0  0  3  0  0  0  0  0  0
  189.1560  176.3690  146.5390 C   0  0  0  0  0  0  0  0  0  0  0  0
  187.9470  176.0060  146.8640 N   0  0  0  0  0  0  0  0  0  0  0  0
  187.9620  177.5480  145.1620 C   0  0  0  0  0  3  0  0  0  0  0  0
  189.1860  177.3030  145.4760 N   0  0  0  0  0  0  0  0  0  0  0  0
  187.0260  176.7740  146.0290 C   0  0  2  0  0  3  0  0  0  0  0  0
  185.8920  177.4040  148.0150 O   0  0  0  0  0  0  0  0  0  0  0  0
  186.2270  177.7340  146.8770 C   0  0  0  0  0  0  0  0  0  0  0  0
  185.7720  179.0450  146.3120 C   0  0  0  0  0  2  0  0  0  0  0  0
  184.3380  178.9190  145.8450 C   0  0  0  0  0  2  0  0  0  0  0  0
  184.3120  178.7700  144.4060 N   0  0  0  0  0  2  0  0  0  0  0  0
  185.2560  179.7370  143.8730 C   0  0  0  0  0  1  0  0  0  0  0  0
  195.5730  174.2960  142.7170 O   0  0  0  0  0  0  0  0  0  0  0  0
  196.5270  173.5230  143.3970 C   0  0  0  0  0  2  0  0  0  0  0  0
  196.3530  173.7390  144.8920 C   0  0  0  0  0  1  0  0  0  0  0  0
  194.7700  174.5730  140.0730 N   0  0  0  0  0  2  0  0  0  0  0  0
  195.5010  174.9050  137.7600 C   0  0  0  0  0  1  0  0  0  0  0  0
  195.9560  174.6440  139.1950 C   0  0  1  0  0  0  0  0  0  0  0  0
  196.8410  175.6790  139.5860 O   0  0  0  0  0  1  0  0  0  0  0  0
  196.6720  173.3760  139.2740 N   0  0  0  0  0  0  0  0  0  0  0  0
  197.9410  173.3230  139.4700 C   0  0  0  0  0  2  0  0  0  0  0  0
  1  8  1  0  0  0  0
  2 11  1  0  0  0  0
  3  9  1  6  0  0  0
  3 12  1  0  0  0  0
  4 34  1  6  0  0  0
  4  6  1  0  0  0  0
  5  1  1  0  0  0  0
  5  4  1  0  0  0  0
  6 31  1  6  0  0  0
  6 10  1  0  0  0  0
  8  2  1  1  0  0  0
  8 10  1  0  0  0  0
 10  7  1  6  0  0  0
 11  3  1  0  0  0  0
 12  7  1  6  0  0  0
 12 19  1  0  0  0  0
 13  5  2  0  0  0  0
 14 20  1  6  0  0  0
 14 16  1  0  0  0  0
 15 18  1  0  0  0  0
 16 18  1  6  0  0  0
 17 14  1  0  0  0  0
 17 16  1  0  0  0  0
 19 15  1  0  0  0  0
 19 17  1  0  0  0  0
 20 21  2  0  0  0  0
 22 23  2  0  0  0  0
 22 24  1  0  0  0  0
 23 20  1  0  0  0  0
 24 21  1  0  0  0  0
 24 26  1  0  0  0  0
 26 25  2  0  0  0  0
 27 26  1  0  0  0  0
 28 27  1  0  0  0  0
 29 28  1  0  0  0  0
 30 29  1  0  0  0  0
 31 32  1  0  0  0  0
 32 33  1  0  0  0  0
 35 36  1  0  0  0  0
 36 38  1  0  0  0  0
 36 37  1  0  0  0  0
 36 34  1  0  0  0  0
 38 39  2  0  0  0  0
M  END
>  <MODEL>
7

>  <REMARK>
 VINA RESULT:      -6.2      1.957      2.661
  Name = 
  11 active torsions:
  status: ('A' for Active; 'I' for Inactive)
    1  A    between atoms: N_1  and  C_21
    2  A    between atoms: C_2  and  C_3
    3  A    between atoms: C_12  and  N_31
    4  A    between atoms: C_16  and  O_28
    5  A    between atoms: N_18  and  C_33
    6  A    between atoms: C_21  and  N_31
    7  A    between atoms: C_27  and  C_36
    8  A    between atoms: O_28  and  C_32
    9  A    between atoms: C_30  and  C_35
   10  A    between atoms: C_33  and  C_34
   11  A    between atoms: C_34  and  C_36
                            x       y       z     vdW  Elec       q    Type
                         _______ _______ _______ _____ _____    ______ ____

>  <TORSDO>
F 11

$$$$
=
 OpenBabel11042417333D

 39 43  0  0  1  0  0  0  0  0999 V2000
  192.6280  172.4930  141.9310 N   0  0  0  0  0  2  0  0  0  0  0  0
  190.2760  173.1800  142.1020 C   0  0  0  0  0  2  0  0  0  0  0  0
  189.6900  172.8350  144.5880 C   0  0  2  0  0  3  0  0  0  0  0  0
  194.4890  173.7840  143.0010 C   0  0  2  0  0  3  0  0  0  0  0  0
  194.0190  172.5900  142.2450 C   0  0  0  0  0  0  0  0  0  0  0  0
  193.5400  174.0990  144.1590 C   0  0  2  0  0  3  0  0  0  0  0  0
  191.1870  174.9190  144.3420 O   0  0  0  0  0  0  0  0  0  0  0  0
  191.7410  173.5780  142.3240 C   0  0  1  0  0  3  0  0  0  0  0  0
  190.5630  172.1300  145.3920 F   0  0  0  0  0  0  0  0  0  0  0  0
  192.0350  173.9220  143.7990 C   0  0  1  0  0  3  0  0  0  0  0  0
  189.6970  172.2530  143.1640 C   0  0  0  0  0  2  0  0  0  0  0  0
  189.8980  174.3860  144.7060 C   0  0  2  0  0  3  0  0  0  0  0  0
  194.7910  171.6470  141.9650 O   0  0  0  0  0  0  0  0  0  0  0  0
  187.9530  176.9850  145.1770 C   0  0  2  0  0  3  0  0  0  0  0  0
  190.5030  175.8850  146.6980 C   0  0  0  0  0  2  0  0  0  0  0  0
  188.3150  177.1910  146.5040 C   0  0  1  0  0  3  0  0  0  0  0  0
  188.4610  175.9150  145.9940 C   0  0  2  0  0  3  0  0  0  0  0  0
  189.8250  177.3170  146.7670 C   0  0  0  0  0  2  0  0  0  0  0  0
  189.4710  174.9090  146.0980 C   0  0  1  0  0  3  0  0  0  0  0  0
  187.6990  177.5050  143.8310 C   0  0  0  0  0  0  0  0  0  0  0  0
  188.4730  177.2950  142.8030 N   0  0  0  0  0  0  0  0  0  0  0  0
  186.6480  178.5830  142.2670 C   0  0  0  0  0  3  0  0  0  0  0  0
  186.5810  178.3160  143.5240 N   0  0  0  0  0  0  0  0  0  0  0  0
  187.8450  177.9390  141.6510 C   0  0  2  0  0  3  0  0  0  0  0  0
  186.6130  177.2210  139.7550 O   0  0  0  0  0  0  0  0  0  0  0  0
  187.3910  176.9000  140.6530 C   0  0  0  0  0  0  0  0  0  0  0  0
  187.8170  175.4720  140.8020 C   0  0  0  0  0  2  0  0  0  0  0  0
  188.1910  174.9150  139.4460 C   0  0  0  0  0  2  0  0  0  0  0  0
  188.1880  173.4690  139.5010 N   0  0  0  0  0  2  0  0  0  0  0  0
  188.5660  173.0050  138.1770 C   0  0  0  0  0  1  0  0  0  0  0  0
  193.8440  175.3610  144.7200 O   0  0  0  0  0  0  0  0  0  0  0  0
  194.0890  175.1690  146.0880 C   0  0  0  0  0  2  0  0  0  0  0  0
  194.1890  176.5280  146.7620 C   0  0  0  0  0  1  0  0  0  0  0  0
  194.5970  174.9130  142.0850 N   0  0  0  0  0  2  0  0  0  0  0  0
  196.0740  176.8100  141.6230 C   0  0  0  0  0  1  0  0  0  0  0  0
  196.0040  175.3030  141.8640 C   0  0  1  0  0  0  0  0  0  0  0  0
  196.8210  174.9830  142.9760 O   0  0  0  0  0  1  0  0  0  0  0  0
  196.5100  174.5820  140.7010 N   0  0  0  0  0  0  0  0  0  0  0  0
  197.3150  175.1290  139.8610 C   0  0  0  0  0  2  0  0  0  0  0  0
  1  5  1  0  0  0  0
  1  8  1  0  0  0  0
  2 11  1  0  0  0  0
  3 12  1  0  0  0  0
  3  9  1  1  0  0  0
  4 34  1  6  0  0  0
  4  6  1  0  0  0  0
  5  4  1  0  0  0  0
  6 31  1  6  0  0  0
  8  2  1  1  0  0  0
  8 10  1  0  0  0  0
 10  6  1  0  0  0  0
 10  7  1  6  0  0  0
 11  3  1  0  0  0  0
 12  7  1  1  0  0  0
 12 19  1  0  0  0  0
 13  5  2  0  0  0  0
 14 20  1  6  0  0  0
 14 17  1  0  0  0  0
 14 16  1  0  0  0  0
 15 18  1  0  0  0  0
 16 18  1  6  0  0  0
 17 19  1  0  0  0  0
 17 16  1  0  0  0  0
 19 15  1  0  0  0  0
 21 20  2  0  0  0  0
 22 23  2  0  0  0  0
 23 20  1  0  0  0  0
 24 22  1  0  0  0  0
 24 21  1  0  0  0  0
 25 26  2  0  0  0  0
 26 27  1  0  0  0  0
 26 24  1  0  0  0  0
 28 29  1  0  0  0  0
 28 27  1  0  0  0  0
 30 29  1  0  0  0  0
 31 32  1  0  0  0  0
 32 33  1  0  0  0  0
 35 36  1  0  0  0  0
 36 34  1  0  0  0  0
 36 37  1  0  0  0  0
 38 36  1  0  0  0  0
 39 38  2  0  0  0  0
M  END
>  <MODEL>
8

>  <REMARK>
 VINA RESULT:      -6.2      1.794      3.298
  Name = 
  11 active torsions:
  status: ('A' for Active; 'I' for Inactive)
    1  A    between atoms: N_1  and  C_21
    2  A    between atoms: C_2  and  C_3
    3  A    between atoms: C_12  and  N_31
    4  A    between atoms: C_16  and  O_28
    5  A    between atoms: N_18  and  C_33
    6  A    between atoms: C_21  and  N_31
    7  A    between atoms: C_27  and  C_36
    8  A    between atoms: O_28  and  C_32
    9  A    between atoms: C_30  and  C_35
   10  A    between atoms: C_33  and  C_34
   11  A    between atoms: C_34  and  C_36
                            x       y       z     vdW  Elec       q    Type
                         _______ _______ _______ _____ _____    ______ ____

>  <TORSDO>
F 11

$$$$
=
 OpenBabel11042417333D

 39 43  0  0  1  0  0  0  0  0999 V2000
  194.0210  175.9420  144.3000 N   0  0  0  0  0  2  0  0  0  0  0  0
  193.7130  176.2750  141.8860 C   0  0  0  0  0  2  0  0  0  0  0  0
  193.2680  173.9100  140.9660 C   0  0  2  0  0  3  0  0  0  0  0  0
  192.1520  175.2310  145.8100 C   0  0  2  0  0  3  0  0  0  0  0  0
  193.5940  175.5420  145.6050 C   0  0  0  0  0  0  0  0  0  0  0  0
  191.6160  174.3710  144.6630 C   0  0  2  0  0  3  0  0  0  0  0  0
  191.1820  174.7440  142.2310 O   0  0  0  0  0  0  0  0  0  0  0  0
  193.0280  176.0640  143.2430 C   0  0  1  0  0  3  0  0  0  0  0  0
  193.4970  172.8180  141.7800 F   0  0  0  0  0  0  0  0  0  0  0  0
  192.1510  174.7950  143.2620 C   0  0  1  0  0  3  0  0  0  0  0  0
  194.2970  175.0140  141.2610 C   0  0  0  0  0  2  0  0  0  0  0  0
  191.7600  174.3440  140.9710 C   0  0  2  0  0  3  0  0  0  0  0  0
  194.4350  175.3780  146.5150 O   0  0  0  0  0  0  0  0  0  0  0  0
  188.5240  174.6730  140.5450 C   0  0  2  0  0  3  0  0  0  0  0  0
  190.3760  172.2040  141.2520 C   0  0  0  0  0  2  0  0  0  0  0  0
  188.2760  173.3220  140.3210 C   0  0  1  0  0  3  0  0  0  0  0  0
  189.5460  173.7910  140.0460 C   0  0  2  0  0  3  0  0  0  0  0  0
  188.8050  172.3620  141.4000 C   0  0  0  0  0  2  0  0  0  0  0  0
  190.8660  173.2910  140.2760 C   0  0  1  0  0  3  0  0  0  0  0  0
  188.1900  175.9350  141.2100 C   0  0  0  0  0  0  0  0  0  0  0  0
  187.0610  176.5680  141.0630 N   0  0  0  0  0  0  0  0  0  0  0  0
  188.4870  177.6600  142.4940 C   0  0  0  0  0  3  0  0  0  0  0  0
  189.0910  176.6050  142.0710 N   0  0  0  0  0  0  0  0  0  0  0  0
  187.1100  177.7460  141.9260 C   0  0  2  0  0  3  0  0  0  0  0  0
  184.9040  177.5400  142.7750 O   0  0  0  0  0  0  0  0  0  0  0  0
  186.1030  177.6180  143.0440 C   0  0  0  0  0  0  0  0  0  0  0  0
  186.5490  177.6710  144.4740 C   0  0  0  0  0  2  0  0  0  0  0  0
  185.5290  176.9690  145.3440 C   0  0  0  0  0  2  0  0  0  0  0  0
  185.2100  177.8040  146.4820 N   0  0  0  0  0  2  0  0  0  0  0  0
  184.1150  178.6650  146.0680 C   0  0  0  0  0  1  0  0  0  0  0  0
  190.2060  174.2820  144.7270 O   0  0  0  0  0  0  0  0  0  0  0  0
  189.8860  173.0390  145.2950 C   0  0  0  0  0  2  0  0  0  0  0  0
  190.7400  171.9670  144.6370 C   0  0  0  0  0  1  0  0  0  0  0  0
  191.4090  176.4790  145.9260 N   0  0  0  0  0  2  0  0  0  0  0  0
  190.9330  175.2910  148.0130 C   0  0  0  0  0  1  0  0  0  0  0  0
  190.6170  176.5270  147.1720 C   0  0  1  0  0  0  0  0  0  0  0  0
  190.9080  177.6830  147.9380 O   0  0  0  0  0  1  0  0  0  0  0  0
  189.2010  176.5520  146.8240 N   0  0  0  0  0  0  0  0  0  0  0  0
  188.3780  175.6670  147.2630 C   0  0  0  0  0  2  0  0  0  0  0  0
  1  5  1  0  0  0  0
  3 12  1  0  0  0  0
  3 11  1  0  0  0  0
  3  9  1  1  0  0  0
  4 34  1  6  0  0  0
  5  4  1  0  0  0  0
  5 13  2  0  0  0  0
  6 31  1  6  0  0  0
  6  4  1  0  0  0  0
  8  2  1  6  0  0  0
  8 10  1  0  0  0  0
  8  1  1  0  0  0  0
 10  7  1  6  0  0  0
 10  6  1  0  0  0  0
 11  2  1  0  0  0  0
 12  7  1  1  0  0  0
 14 20  1  1  0  0  0
 15 18  1  0  0  0  0
 16 14  1  0  0  0  0
 16 18  1  1  0  0  0
 17 19  1  0  0  0  0
 17 16  1  0  0  0  0
 17 14  1  0  0  0  0
 19 12  1  0  0  0  0
 19 15  1  0  0  0  0
 20 23  1  0  0  0  0
 21 20  2  0  0  0  0
 21 24  1  0  0  0  0
 23 22  2  0  0  0  0
 24 22  1  0  0  0  0
 24 26  1  0  0  0  0
 25 26  2  0  0  0  0
 26 27  1  0  0  0  0
 27 28  1  0  0  0  0
 28 29  1  0  0  0  0
 30 29  1  0  0  0  0
 31 32  1  0  0  0  0
 33 32  1  0  0  0  0
 34 36  1  0  0  0  0
 36 37  1  0  0  0  0
 36 35  1  0  0  0  0
 38 36  1  0  0  0  0
 38 39  2  0  0  0  0
M  END
>  <MODEL>
9

>  <REMARK>
 VINA RESULT:      -6.0      2.309      5.222
  Name = 
  11 active torsions:
  status: ('A' for Active; 'I' for Inactive)
    1  A    between atoms: N_1  and  C_21
    2  A    between atoms: C_2  and  C_3
    3  A    between atoms: C_12  and  N_31
    4  A    between atoms: C_16  and  O_28
    5  A    between atoms: N_18  and  C_33
    6  A    between atoms: C_21  and  N_31
    7  A    between atoms: C_27  and  C_36
    8  A    between atoms: O_28  and  C_32
    9  A    between atoms: C_30  and  C_35
   10  A    between atoms: C_33  and  C_34
   11  A    between atoms: C_34  and  C_36
                            x       y       z     vdW  Elec       q    Type
                         _______ _______ _______ _____ _____    ______ ____

>  <TORSDO>
F 11

$$$$
