=
 OpenBabel11042416483D

 29 30  0  0  1  0  0  0  0  0999 V2000
  188.2010  176.8550  144.9670 C   0  0  2  0  0  3  0  0  0  0  0  0
  191.6770  174.7290  142.0990 C   0  0  0  0  0  0  0  0  0  0  0  0
  190.8880  173.5790  142.0130 C   0  0  0  0  0  3  0  0  0  0  0  0
  189.6490  173.5230  142.6530 C   0  0  0  0  0  3  0  0  0  0  0  0
  189.9670  175.7840  143.4900 C   0  0  0  0  0  0  0  0  0  0  0  0
  189.1890  174.6190  143.3870 C   0  0  0  0  0  3  0  0  0  0  0  0
  191.5560  178.0950  143.6620 C   0  0  0  0  0  3  0  0  0  0  0  0
  190.3220  178.0430  144.3130 C   0  0  0  0  0  3  0  0  0  0  0  0
  191.2240  175.8380  142.8340 C   0  0  0  0  0  0  0  0  0  0  0  0
  192.0050  176.9970  142.9260 C   0  0  0  0  0  3  0  0  0  0  0  0
  189.5170  176.8960  144.2350 C   0  0  0  0  0  0  0  0  0  0  0  0
  192.9080  174.7590  141.4510 O   0  0  0  0  0  1  0  0  0  0  0  0
  187.2590  177.9350  144.4510 C   0  0  0  0  0  2  0  0  0  0  0  0
  186.1590  176.3390  143.0730 O   0  0  0  0  0  0  0  0  0  0  0  0
  184.7330  177.8230  144.1430 N   0  0  0  0  0  2  0  0  0  0  0  0
  186.0370  177.3240  143.8450 C   0  0  0  0  0  0  0  0  0  0  0  0
  184.5120  178.9680  145.0140 C   0  0  0  0  0  2  0  0  0  0  0  0
  183.9910  178.5020  146.3620 C   0  0  0  0  0  2  0  0  0  0  0  0
  185.1230  178.4510  147.3720 C   0  0  0  0  0  1  0  0  0  0  0  0
  188.3990  176.9750  146.4770 C   0  0  0  0  0  2  0  0  0  0  0  0
  188.0740  175.6640  147.1740 C   0  0  0  0  0  2  0  0  0  0  0  0
  189.3210  174.8050  147.2860 C   0  0  0  0  0  2  0  0  0  0  0  0
  190.5450  175.6840  147.4690 C   0  0  0  0  0  2  0  0  0  0  0  0
  191.7120  175.1120  146.6910 C   0  0  0  0  0  2  0  0  0  0  0  0
  192.8450  176.0160  146.7800 N   0  0  0  0  0  2  0  0  0  0  0  0
  193.8230  175.5540  145.8100 C   0  0  0  0  0  2  0  0  0  0  0  0
  194.7490  177.7260  146.1160 O   0  0  0  0  0  0  0  0  0  0  0  0
  194.7100  176.6800  145.4140 C   0  0  0  0  0  0  0  0  0  0  0  0
  195.5300  176.5680  144.2560 N   0  0  0  0  0  1  0  0  0  0  0  0
  1 13  1  6  0  0  0
  1 20  1  0  0  0  0
  2  9  1  0  0  0  0
  3  2  2  0  0  0  0
  3  4  1  0  0  0  0
  4  6  2  0  0  0  0
  5 11  1  0  0  0  0
  6  5  1  0  0  0  0
  7  8  1  0  0  0  0
  9 10  1  0  0  0  0
  9  5  2  0  0  0  0
 10  7  2  0  0  0  0
 11  8  2  0  0  0  0
 11  1  1  0  0  0  0
 12  2  1  0  0  0  0
 14 16  2  0  0  0  0
 15 17  1  0  0  0  0
 16 15  1  0  0  0  0
 16 13  1  0  0  0  0
 17 18  1  0  0  0  0
 18 19  1  0  0  0  0
 20 21  1  0  0  0  0
 21 22  1  0  0  0  0
 22 23  1  0  0  0  0
 24 25  1  0  0  0  0
 24 23  1  0  0  0  0
 26 25  1  0  0  0  0
 28 26  1  0  0  0  0
 28 27  2  0  0  0  0
 29 28  1  0  0  0  0
M  END
>  <MODEL>
1

>  <REMARK>
 VINA RESULT:      -6.1      0.000      0.000
  Name = 
  13 active torsions:
  status: ('A' for Active; 'I' for Inactive)
    1  A    between atoms: C_1  and  C_14
    2  A    between atoms: C_1  and  C_18
    3  A    between atoms: C_5  and  C_22
    4  A    between atoms: C_6  and  C_24
    5  A    between atoms: C_6  and  C_26
    6  A    between atoms: C_10  and  N_19
    7  A    between atoms: C_10  and  C_27
    8  A    between atoms: N_11  and  C_22
    9  A    between atoms: C_14  and  C_27
   10  A    between atoms: C_15  and  C_25
   11  A    between atoms: C_18  and  C_24
   12  A    between atoms: N_19  and  C_25
   13  A    between atoms: C_21  and  C_24
                            x       y       z     vdW  Elec       q    Type
                         _______ _______ _______ _____ _____    ______ ____

>  <TORSDO>
F 13

$$$$
=
 OpenBabel11042416483D

 29 30  0  0  1  0  0  0  0  0999 V2000
  188.5080  176.0760  145.6320 C   0  0  2  0  0  3  0  0  0  0  0  0
  192.5680  173.2080  145.2870 C   0  0  0  0  0  0  0  0  0  0  0  0
  191.8890  172.3720  144.3960 C   0  0  0  0  0  3  0  0  0  0  0  0
  190.5730  172.6550  144.0250 C   0  0  0  0  0  3  0  0  0  0  0  0
  190.5850  174.6290  145.4450 C   0  0  0  0  0  0  0  0  0  0  0  0
  189.9240  173.7770  144.5460 C   0  0  0  0  0  3  0  0  0  0  0  0
  191.9530  176.3070  147.2360 C   0  0  0  0  0  3  0  0  0  0  0  0
  190.6340  176.5910  146.8780 C   0  0  0  0  0  3  0  0  0  0  0  0
  191.9250  174.3410  145.8150 C   0  0  0  0  0  0  0  0  0  0  0  0
  192.5950  175.1870  146.7080 C   0  0  0  0  0  3  0  0  0  0  0  0
  189.9390  175.7620  145.9830 C   0  0  0  0  0  0  0  0  0  0  0  0
  193.8790  172.9040  145.6390 O   0  0  0  0  0  1  0  0  0  0  0  0
  188.4210  177.3390  144.7850 C   0  0  0  0  0  2  0  0  0  0  0  0
  187.8230  176.4030  142.6830 O   0  0  0  0  0  0  0  0  0  0  0  0
  189.8910  177.4520  142.7080 N   0  0  0  0  0  2  0  0  0  0  0  0
  188.6860  177.0300  143.3470 C   0  0  0  0  0  0  0  0  0  0  0  0
  190.9440  178.1680  143.4150 C   0  0  0  0  0  2  0  0  0  0  0  0
  192.1860  177.3000  143.5120 C   0  0  0  0  0  2  0  0  0  0  0  0
  192.0810  176.1250  142.5580 C   0  0  0  0  0  1  0  0  0  0  0  0
  187.6390  176.1930  146.8830 C   0  0  0  0  0  2  0  0  0  0  0  0
  186.6840  177.3700  146.7740 C   0  0  0  0  0  2  0  0  0  0  0  0
  185.2830  176.8820  146.4500 C   0  0  0  0  0  2  0  0  0  0  0  0
  184.3660  178.0640  146.1980 C   0  0  0  0  0  2  0  0  0  0  0  0
  185.1460  179.1970  145.5630 C   0  0  0  0  0  2  0  0  0  0  0  0
  184.5660  179.5230  144.2720 N   0  0  0  0  0  2  0  0  0  0  0  0
  185.5380  179.1260  143.2670 C   0  0  0  0  0  2  0  0  0  0  0  0
  183.6630  178.0290  142.2920 O   0  0  0  0  0  0  0  0  0  0  0  0
  184.8480  178.4330  142.1470 C   0  0  0  0  0  0  0  0  0  0  0  0
  185.5180  178.2450  140.9050 N   0  0  0  0  0  1  0  0  0  0  0  0
  1 13  1  1  0  0  0
  1 11  1  0  0  0  0
  1 20  1  0  0  0  0
  2 12  1  0  0  0  0
  2  9  1  0  0  0  0
  3  2  2  0  0  0  0
  4  3  1  0  0  0  0
  4  6  2  0  0  0  0
  5  9  2  0  0  0  0
  5 11  1  0  0  0  0
  6  5  1  0  0  0  0
  8  7  1  0  0  0  0
  9 10  1  0  0  0  0
 10  7  2  0  0  0  0
 11  8  2  0  0  0  0
 14 16  2  0  0  0  0
 15 16  1  0  0  0  0
 15 17  1  0  0  0  0
 16 13  1  0  0  0  0
 17 18  1  0  0  0  0
 19 18  1  0  0  0  0
 21 20  1  0  0  0  0
 22 21  1  0  0  0  0
 23 22  1  0  0  0  0
 24 23  1  0  0  0  0
 25 24  1  0  0  0  0
 26 25  1  0  0  0  0
 28 27  2  0  0  0  0
 28 26  1  0  0  0  0
 29 28  1  0  0  0  0
M  END
>  <MODEL>
2

>  <REMARK>
 VINA RESULT:      -6.1      2.366      5.949
  Name = 
  13 active torsions:
  status: ('A' for Active; 'I' for Inactive)
    1  A    between atoms: C_1  and  C_14
    2  A    between atoms: C_1  and  C_18
    3  A    between atoms: C_5  and  C_22
    4  A    between atoms: C_6  and  C_24
    5  A    between atoms: C_6  and  C_26
    6  A    between atoms: C_10  and  N_19
    7  A    between atoms: C_10  and  C_27
    8  A    between atoms: N_11  and  C_22
    9  A    between atoms: C_14  and  C_27
   10  A    between atoms: C_15  and  C_25
   11  A    between atoms: C_18  and  C_24
   12  A    between atoms: N_19  and  C_25
   13  A    between atoms: C_21  and  C_24
                            x       y       z     vdW  Elec       q    Type
                         _______ _______ _______ _____ _____    ______ ____

>  <TORSDO>
F 13

$$$$
=
 OpenBabel11042416483D

 29 30  0  0  1  0  0  0  0  0999 V2000
  189.2540  176.8060  144.0700 C   0  0  2  0  0  3  0  0  0  0  0  0
  184.8050  178.3170  145.7290 C   0  0  0  0  0  0  0  0  0  0  0  0
  185.0740  177.7180  146.9630 C   0  0  0  0  0  3  0  0  0  0  0  0
  186.2880  177.0660  147.1820 C   0  0  0  0  0  3  0  0  0  0  0  0
  186.9950  177.5950  144.9160 C   0  0  0  0  0  0  0  0  0  0  0  0
  187.2440  177.0040  146.1650 C   0  0  0  0  0  3  0  0  0  0  0  0
  186.4500  178.7970  142.4360 C   0  0  0  0  0  3  0  0  0  0  0  0
  187.6630  178.1380  142.6440 C   0  0  0  0  0  3  0  0  0  0  0  0
  185.7600  178.2610  144.7000 C   0  0  0  0  0  0  0  0  0  0  0  0
  185.5030  178.8580  143.4590 C   0  0  0  0  0  3  0  0  0  0  0  0
  187.9490  177.5340  143.8790 C   0  0  0  0  0  0  0  0  0  0  0  0
  183.5870  178.9610  145.5370 O   0  0  0  0  0  1  0  0  0  0  0  0
  190.3920  177.7890  144.3170 C   0  0  0  0  0  2  0  0  0  0  0  0
  192.5460  176.9210  143.8040 O   0  0  0  0  0  0  0  0  0  0  0  0
  191.8580  176.5430  145.9870 N   0  0  0  0  0  2  0  0  0  0  0  0
  191.6490  177.0610  144.6740 C   0  0  0  0  0  0  0  0  0  0  0  0
  190.8600  176.6530  147.0410 C   0  0  0  0  0  2  0  0  0  0  0  0
  190.6260  175.2930  147.6770 C   0  0  0  0  0  2  0  0  0  0  0  0
  189.5260  174.5520  146.9390 C   0  0  0  0  0  1  0  0  0  0  0  0
  189.5640  175.8950  142.8840 C   0  0  0  0  0  2  0  0  0  0  0  0
  188.9970  174.5020  143.1060 C   0  0  0  0  0  2  0  0  0  0  0  0
  188.0110  174.1550  142.0050 C   0  0  0  0  0  2  0  0  0  0  0  0
  188.2340  175.0540  140.8030 C   0  0  0  0  0  2  0  0  0  0  0  0
  188.5190  174.2120  139.5750 C   0  0  0  0  0  2  0  0  0  0  0  0
  188.2450  172.8170  139.8680 N   0  0  0  0  0  2  0  0  0  0  0  0
  189.1400  172.0330  139.0350 C   0  0  0  0  0  2  0  0  0  0  0  0
  191.4690  171.5770  139.2300 O   0  0  0  0  0  0  0  0  0  0  0  0
  190.3540  171.6630  139.8100 C   0  0  0  0  0  0  0  0  0  0  0  0
  190.2600  171.4260  141.2110 N   0  0  0  0  0  1  0  0  0  0  0  0
  1 20  1  6  0  0  0
  1 13  1  0  0  0  0
  2  3  1  0  0  0  0
  3  4  2  0  0  0  0
  5  6  2  0  0  0  0
  6  4  1  0  0  0  0
  7  8  1  0  0  0  0
  7 10  2  0  0  0  0
  8 11  2  0  0  0  0
  9  5  1  0  0  0  0
  9  2  2  0  0  0  0
 10  9  1  0  0  0  0
 11  1  1  0  0  0  0
 11  5  1  0  0  0  0
 12  2  1  0  0  0  0
 13 16  1  0  0  0  0
 14 16  2  0  0  0  0
 15 17  1  0  0  0  0
 16 15  1  0  0  0  0
 17 18  1  0  0  0  0
 19 18  1  0  0  0  0
 20 21  1  0  0  0  0
 22 21  1  0  0  0  0
 23 22  1  0  0  0  0
 24 25  1  0  0  0  0
 24 23  1  0  0  0  0
 26 28  1  0  0  0  0
 26 25  1  0  0  0  0
 27 28  2  0  0  0  0
 28 29  1  0  0  0  0
M  END
>  <MODEL>
3

>  <REMARK>
 VINA RESULT:      -6.0      2.839      6.758
  Name = 
  13 active torsions:
  status: ('A' for Active; 'I' for Inactive)
    1  A    between atoms: C_1  and  C_14
    2  A    between atoms: C_1  and  C_18
    3  A    between atoms: C_5  and  C_22
    4  A    between atoms: C_6  and  C_24
    5  A    between atoms: C_6  and  C_26
    6  A    between atoms: C_10  and  N_19
    7  A    between atoms: C_10  and  C_27
    8  A    between atoms: N_11  and  C_22
    9  A    between atoms: C_14  and  C_27
   10  A    between atoms: C_15  and  C_25
   11  A    between atoms: C_18  and  C_24
   12  A    between atoms: N_19  and  C_25
   13  A    between atoms: C_21  and  C_24
                            x       y       z     vdW  Elec       q    Type
                         _______ _______ _______ _____ _____    ______ ____

>  <TORSDO>
F 13

$$$$
=
 OpenBabel11042416483D

 29 30  0  0  1  0  0  0  0  0999 V2000
  189.0060  176.8630  146.5540 C   0  0  2  0  0  3  0  0  0  0  0  0
  190.2660  173.8000  142.8320 C   0  0  0  0  0  0  0  0  0  0  0  0
  190.0970  172.7080  143.6880 C   0  0  0  0  0  3  0  0  0  0  0  0
  189.6960  172.9020  145.0110 C   0  0  0  0  0  3  0  0  0  0  0  0
  189.6290  175.3060  144.6490 C   0  0  0  0  0  0  0  0  0  0  0  0
  189.4630  174.1940  145.4900 C   0  0  0  0  0  3  0  0  0  0  0  0
  189.9710  177.5000  142.9270 C   0  0  0  0  0  3  0  0  0  0  0  0
  189.5790  177.7030  144.2510 C   0  0  0  0  0  3  0  0  0  0  0  0
  190.0320  175.1040  143.3040 C   0  0  0  0  0  0  0  0  0  0  0  0
  190.1970  176.2060  142.4550 C   0  0  0  0  0  3  0  0  0  0  0  0
  189.4040  176.6160  145.1230 C   0  0  0  0  0  0  0  0  0  0  0  0
  190.6650  173.5780  141.5180 O   0  0  0  0  0  1  0  0  0  0  0  0
  187.7580  177.7360  146.6280 C   0  0  0  0  0  2  0  0  0  0  0  0
  186.2990  176.3430  147.8870 O   0  0  0  0  0  0  0  0  0  0  0  0
  185.6130  176.7210  145.7040 N   0  0  0  0  0  2  0  0  0  0  0  0
  186.5330  176.8940  146.7820 C   0  0  0  0  0  0  0  0  0  0  0  0
  185.8250  177.3130  144.3900 C   0  0  0  0  0  2  0  0  0  0  0  0
  186.1940  176.2330  143.3880 C   0  0  0  0  0  2  0  0  0  0  0  0
  186.4680  176.8500  142.0290 C   0  0  0  0  0  1  0  0  0  0  0  0
  190.1530  177.4770  147.3540 C   0  0  0  0  0  2  0  0  0  0  0  0
  191.0990  176.4010  147.8610 C   0  0  0  0  0  2  0  0  0  0  0  0
  192.3620  176.3730  147.0180 C   0  0  0  0  0  2  0  0  0  0  0  0
  192.7130  174.9420  146.6550 C   0  0  0  0  0  2  0  0  0  0  0  0
  193.2680  174.8890  145.2450 C   0  0  0  0  0  2  0  0  0  0  0  0
  193.2950  176.2280  144.6830 N   0  0  0  0  0  2  0  0  0  0  0  0
  193.6930  176.0870  143.2930 C   0  0  0  0  0  2  0  0  0  0  0  0
  195.5860  174.8450  142.5590 O   0  0  0  0  0  0  0  0  0  0  0  0
  195.1560  175.8320  143.2120 C   0  0  0  0  0  0  0  0  0  0  0  0
  196.0700  176.7140  143.8550 N   0  0  0  0  0  1  0  0  0  0  0  0
  1 13  1  6  0  0  0
  1 20  1  0  0  0  0
  2  9  2  0  0  0  0
  2  3  1  0  0  0  0
  3  4  2  0  0  0  0
  4  6  1  0  0  0  0
  5 11  1  0  0  0  0
  5  6  2  0  0  0  0
  7  8  1  0  0  0  0
  8 11  2  0  0  0  0
  9  5  1  0  0  0  0
 10  7  2  0  0  0  0
 10  9  1  0  0  0  0
 11  1  1  0  0  0  0
 12  2  1  0  0  0  0
 13 16  1  0  0  0  0
 15 16  1  0  0  0  0
 16 14  2  0  0  0  0
 17 15  1  0  0  0  0
 18 17  1  0  0  0  0
 19 18  1  0  0  0  0
 20 21  1  0  0  0  0
 22 21  1  0  0  0  0
 23 22  1  0  0  0  0
 24 23  1  0  0  0  0
 25 24  1  0  0  0  0
 26 25  1  0  0  0  0
 27 28  2  0  0  0  0
 28 26  1  0  0  0  0
 28 29  1  0  0  0  0
M  END
>  <MODEL>
4

>  <REMARK>
 VINA RESULT:      -5.9      1.990      2.721
  Name = 
  13 active torsions:
  status: ('A' for Active; 'I' for Inactive)
    1  A    between atoms: C_1  and  C_14
    2  A    between atoms: C_1  and  C_18
    3  A    between atoms: C_5  and  C_22
    4  A    between atoms: C_6  and  C_24
    5  A    between atoms: C_6  and  C_26
    6  A    between atoms: C_10  and  N_19
    7  A    between atoms: C_10  and  C_27
    8  A    between atoms: N_11  and  C_22
    9  A    between atoms: C_14  and  C_27
   10  A    between atoms: C_15  and  C_25
   11  A    between atoms: C_18  and  C_24
   12  A    between atoms: N_19  and  C_25
   13  A    between atoms: C_21  and  C_24
                            x       y       z     vdW  Elec       q    Type
                         _______ _______ _______ _____ _____    ______ ____

>  <TORSDO>
F 13

$$$$
=
 OpenBabel11042416483D

 29 30  0  0  1  0  0  0  0  0999 V2000
  188.2570  175.6690  142.7200 C   0  0  2  0  0  3  0  0  0  0  0  0
  191.1870  176.2030  146.7150 C   0  0  0  0  0  0  0  0  0  0  0  0
  190.4480  175.2180  147.3760 C   0  0  0  0  0  3  0  0  0  0  0  0
  189.3790  174.5880  146.7360 C   0  0  0  0  0  3  0  0  0  0  0  0
  189.7650  175.9310  144.7460 C   0  0  0  0  0  0  0  0  0  0  0  0
  189.0390  174.9410  145.4280 C   0  0  0  0  0  3  0  0  0  0  0  0
  191.2520  177.9140  143.4210 C   0  0  0  0  0  3  0  0  0  0  0  0
  190.1780  177.2950  142.7770 C   0  0  0  0  0  3  0  0  0  0  0  0
  190.8540  176.5650  145.3990 C   0  0  0  0  0  0  0  0  0  0  0  0
  191.5880  177.5510  144.7260 C   0  0  0  0  0  3  0  0  0  0  0  0
  189.4270  176.3030  143.4270 C   0  0  0  0  0  0  0  0  0  0  0  0
  192.2480  176.8140  147.3760 O   0  0  0  0  0  1  0  0  0  0  0  0
  188.7260  174.8400  141.5300 C   0  0  0  0  0  2  0  0  0  0  0  0
  188.1560  172.6550  142.2750 O   0  0  0  0  0  0  0  0  0  0  0  0
  190.4310  173.0060  141.9940 N   0  0  0  0  0  2  0  0  0  0  0  0
  189.0750  173.4510  141.9580 C   0  0  0  0  0  0  0  0  0  0  0  0
  191.5510  173.8750  141.6570 C   0  0  0  0  0  2  0  0  0  0  0  0
  192.3700  174.1700  142.9010 C   0  0  0  0  0  2  0  0  0  0  0  0
  192.0990  173.1260  143.9680 C   0  0  0  0  0  1  0  0  0  0  0  0
  187.2310  176.7150  142.2910 C   0  0  0  0  0  2  0  0  0  0  0  0
  185.9010  176.4920  142.9920 C   0  0  0  0  0  2  0  0  0  0  0  0
  185.0640  177.7580  142.9450 C   0  0  0  0  0  2  0  0  0  0  0  0
  185.9420  178.9720  143.1880 C   0  0  0  0  0  2  0  0  0  0  0  0
  185.3430  179.8300  144.2840 C   0  0  0  0  0  2  0  0  0  0  0  0
  184.6720  178.9840  145.2530 N   0  0  0  0  0  2  0  0  0  0  0  0
  185.4710  179.0230  146.4650 C   0  0  0  0  0  2  0  0  0  0  0  0
  185.6200  176.6490  146.3750 O   0  0  0  0  0  0  0  0  0  0  0  0
  186.2010  177.7380  146.6280 C   0  0  0  0  0  0  0  0  0  0  0  0
  187.5610  177.7380  147.0490 N   0  0  0  0  0  1  0  0  0  0  0  0
  1 13  1  6  0  0  0
  1 11  1  0  0  0  0
  2 12  1  0  0  0  0
  2  3  1  0  0  0  0
  4  3  2  0  0  0  0
  5  9  1  0  0  0  0
  5  6  2  0  0  0  0
  6  4  1  0  0  0  0
  7 10  2  0  0  0  0
  8  7  1  0  0  0  0
  8 11  2  0  0  0  0
  9  2  2  0  0  0  0
 10  9  1  0  0  0  0
 11  5  1  0  0  0  0
 13 16  1  0  0  0  0
 16 15  1  0  0  0  0
 16 14  2  0  0  0  0
 17 15  1  0  0  0  0
 17 18  1  0  0  0  0
 18 19  1  0  0  0  0
 20  1  1  0  0  0  0
 20 21  1  0  0  0  0
 22 21  1  0  0  0  0
 22 23  1  0  0  0  0
 23 24  1  0  0  0  0
 24 25  1  0  0  0  0
 25 26  1  0  0  0  0
 26 28  1  0  0  0  0
 27 28  2  0  0  0  0
 28 29  1  0  0  0  0
M  END
>  <MODEL>
5

>  <REMARK>
 VINA RESULT:      -5.8      2.510      6.276
  Name = 
  13 active torsions:
  status: ('A' for Active; 'I' for Inactive)
    1  A    between atoms: C_1  and  C_14
    2  A    between atoms: C_1  and  C_18
    3  A    between atoms: C_5  and  C_22
    4  A    between atoms: C_6  and  C_24
    5  A    between atoms: C_6  and  C_26
    6  A    between atoms: C_10  and  N_19
    7  A    between atoms: C_10  and  C_27
    8  A    between atoms: N_11  and  C_22
    9  A    between atoms: C_14  and  C_27
   10  A    between atoms: C_15  and  C_25
   11  A    between atoms: C_18  and  C_24
   12  A    between atoms: N_19  and  C_25
   13  A    between atoms: C_21  and  C_24
                            x       y       z     vdW  Elec       q    Type
                         _______ _______ _______ _____ _____    ______ ____

>  <TORSDO>
F 13

$$$$
=
 OpenBabel11042416483D

 29 30  0  0  1  0  0  0  0  0999 V2000
  188.4740  176.6730  145.4720 C   0  0  2  0  0  3  0  0  0  0  0  0
  191.5780  174.7330  142.0900 C   0  0  0  0  0  0  0  0  0  0  0  0
  190.8480  173.5420  142.1190 C   0  0  0  0  0  3  0  0  0  0  0  0
  189.7260  173.4200  142.9410 C   0  0  0  0  0  3  0  0  0  0  0  0
  190.0470  175.6960  143.7350 C   0  0  0  0  0  0  0  0  0  0  0  0
  189.3260  174.4910  143.7440 C   0  0  0  0  0  3  0  0  0  0  0  0
  191.5190  178.0890  143.6770 C   0  0  0  0  0  3  0  0  0  0  0  0
  190.4040  177.9730  144.5090 C   0  0  0  0  0  3  0  0  0  0  0  0
  191.1850  175.8170  142.8940 C   0  0  0  0  0  0  0  0  0  0  0  0
  191.9080  177.0160  142.8740 C   0  0  0  0  0  3  0  0  0  0  0  0
  189.6580  176.7830  144.5470 C   0  0  0  0  0  0  0  0  0  0  0  0
  192.6920  174.8280  141.2630 O   0  0  0  0  0  1  0  0  0  0  0  0
  187.4670  177.7830  145.1990 C   0  0  0  0  0  2  0  0  0  0  0  0
  185.5300  176.4230  144.9740 O   0  0  0  0  0  0  0  0  0  0  0  0
  186.0220  177.7030  143.1030 N   0  0  0  0  0  2  0  0  0  0  0  0
  186.2970  177.2580  144.4320 C   0  0  0  0  0  0  0  0  0  0  0  0
  186.8730  178.6550  142.4030 C   0  0  0  0  0  2  0  0  0  0  0  0
  187.9570  177.9160  141.6370 C   0  0  0  0  0  2  0  0  0  0  0  0
  187.4380  176.5720  141.1600 C   0  0  0  0  0  1  0  0  0  0  0  0
  188.9080  176.6730  146.9360 C   0  0  0  0  0  2  0  0  0  0  0  0
  189.7260  175.4330  147.2610 C   0  0  0  0  0  2  0  0  0  0  0  0
  191.1160  175.8280  147.7270 C   0  0  0  0  0  2  0  0  0  0  0  0
  192.1610  175.2790  146.7740 C   0  0  0  0  0  2  0  0  0  0  0  0
  193.1680  176.3590  146.4340 C   0  0  0  0  0  2  0  0  0  0  0  0
  194.4840  175.7650  146.2760 N   0  0  0  0  0  2  0  0  0  0  0  0
  195.1380  176.4850  145.1970 C   0  0  0  0  0  2  0  0  0  0  0  0
  195.3430  176.1970  142.8420 O   0  0  0  0  0  0  0  0  0  0  0  0
  195.1210  175.6600  143.9600 C   0  0  0  0  0  0  0  0  0  0  0  0
  194.8740  174.2600  144.0400 N   0  0  0  0  0  1  0  0  0  0  0  0
  1 13  1  1  0  0  0
  1 20  1  0  0  0  0
  2  3  2  0  0  0  0
  2  9  1  0  0  0  0
  3  4  1  0  0  0  0
  4  6  2  0  0  0  0
  5  6  1  0  0  0  0
  5 11  1  0  0  0  0
  7  8  1  0  0  0  0
  8 11  2  0  0  0  0
  9  5  2  0  0  0  0
 10  9  1  0  0  0  0
 10  7  2  0  0  0  0
 11  1  1  0  0  0  0
 12  2  1  0  0  0  0
 15 16  1  0  0  0  0
 16 14  2  0  0  0  0
 16 13  1  0  0  0  0
 17 15  1  0  0  0  0
 18 17  1  0  0  0  0
 19 18  1  0  0  0  0
 20 21  1  0  0  0  0
 21 22  1  0  0  0  0
 23 22  1  0  0  0  0
 24 23  1  0  0  0  0
 25 24  1  0  0  0  0
 26 25  1  0  0  0  0
 27 28  2  0  0  0  0
 28 29  1  0  0  0  0
 28 26  1  0  0  0  0
M  END
>  <MODEL>
6

>  <REMARK>
 VINA RESULT:      -5.8      1.486      2.278
  Name = 
  13 active torsions:
  status: ('A' for Active; 'I' for Inactive)
    1  A    between atoms: C_1  and  C_14
    2  A    between atoms: C_1  and  C_18
    3  A    between atoms: C_5  and  C_22
    4  A    between atoms: C_6  and  C_24
    5  A    between atoms: C_6  and  C_26
    6  A    between atoms: C_10  and  N_19
    7  A    between atoms: C_10  and  C_27
    8  A    between atoms: N_11  and  C_22
    9  A    between atoms: C_14  and  C_27
   10  A    between atoms: C_15  and  C_25
   11  A    between atoms: C_18  and  C_24
   12  A    between atoms: N_19  and  C_25
   13  A    between atoms: C_21  and  C_24
                            x       y       z     vdW  Elec       q    Type
                         _______ _______ _______ _____ _____    ______ ____

>  <TORSDO>
F 13

$$$$
=
 OpenBabel11042416483D

 29 30  0  0  1  0  0  0  0  0999 V2000
  189.1910  176.6010  145.0850 C   0  0  2  0  0  3  0  0  0  0  0  0
  184.7090  178.7610  144.8210 C   0  0  0  0  0  0  0  0  0  0  0  0
  185.0150  179.2150  143.5350 C   0  0  0  0  0  3  0  0  0  0  0  0
  186.2460  178.9090  142.9520 C   0  0  0  0  0  3  0  0  0  0  0  0
  186.8990  177.6830  144.9480 C   0  0  0  0  0  0  0  0  0  0  0  0
  187.1840  178.1470  143.6540 C   0  0  0  0  0  3  0  0  0  0  0  0
  186.2810  176.7720  147.5330 C   0  0  0  0  0  3  0  0  0  0  0  0
  187.5180  176.4700  146.9610 C   0  0  0  0  0  3  0  0  0  0  0  0
  185.6440  177.9920  145.5350 C   0  0  0  0  0  0  0  0  0  0  0  0
  185.3480  177.5300  146.8240 C   0  0  0  0  0  3  0  0  0  0  0  0
  187.8400  176.9180  145.6700 C   0  0  0  0  0  0  0  0  0  0  0  0
  183.4750  179.0800  145.3780 O   0  0  0  0  0  1  0  0  0  0  0  0
  189.3040  175.1180  144.7510 C   0  0  0  0  0  2  0  0  0  0  0  0
  188.0720  174.8940  142.7290 O   0  0  0  0  0  0  0  0  0  0  0  0
  190.3710  174.7230  142.4720 N   0  0  0  0  0  2  0  0  0  0  0  0
  189.2040  174.9010  143.2750 C   0  0  0  0  0  0  0  0  0  0  0  0
  191.7140  174.7020  143.0340 C   0  0  0  0  0  2  0  0  0  0  0  0
  192.5620  175.7860  142.3910 C   0  0  0  0  0  2  0  0  0  0  0  0
  192.0920  177.1560  142.8410 C   0  0  0  0  0  1  0  0  0  0  0  0
  190.3200  177.0410  146.0160 C   0  0  0  0  0  2  0  0  0  0  0  0
  191.1550  175.8510  146.4580 C   0  0  0  0  0  2  0  0  0  0  0  0
  192.3110  176.3140  147.3260 C   0  0  0  0  0  2  0  0  0  0  0  0
  193.5550  176.5080  146.4780 C   0  0  0  0  0  2  0  0  0  0  0  0
  194.0350  175.1700  145.9540 C   0  0  0  0  0  2  0  0  0  0  0  0
  195.3800  175.3090  145.4250 N   0  0  0  0  0  2  0  0  0  0  0  0
  195.3630  176.4650  144.5440 C   0  0  0  0  0  2  0  0  0  0  0  0
  197.1880  177.1680  143.1860 O   0  0  0  0  0  0  0  0  0  0  0  0
  196.3410  176.2700  143.4410 C   0  0  0  0  0  0  0  0  0  0  0  0
  196.3340  175.0630  142.6870 N   0  0  0  0  0  1  0  0  0  0  0  0
  1 13  1  1  0  0  0
  1 11  1  0  0  0  0
  1 20  1  0  0  0  0
  2 12  1  0  0  0  0
  2  9  1  0  0  0  0
  3  2  2  0  0  0  0
  4  3  1  0  0  0  0
  4  6  2  0  0  0  0
  5  9  2  0  0  0  0
  5 11  1  0  0  0  0
  6  5  1  0  0  0  0
  8  7  1  0  0  0  0
  9 10  1  0  0  0  0
 10  7  2  0  0  0  0
 11  8  2  0  0  0  0
 14 16  2  0  0  0  0
 15 17  1  0  0  0  0
 15 16  1  0  0  0  0
 16 13  1  0  0  0  0
 18 19  1  0  0  0  0
 18 17  1  0  0  0  0
 20 21  1  0  0  0  0
 21 22  1  0  0  0  0
 23 22  1  0  0  0  0
 24 23  1  0  0  0  0
 25 24  1  0  0  0  0
 26 25  1  0  0  0  0
 27 28  2  0  0  0  0
 28 26  1  0  0  0  0
 29 28  1  0  0  0  0
M  END
>  <MODEL>
7

>  <REMARK>
 VINA RESULT:      -5.8      2.166      5.599
  Name = 
  13 active torsions:
  status: ('A' for Active; 'I' for Inactive)
    1  A    between atoms: C_1  and  C_14
    2  A    between atoms: C_1  and  C_18
    3  A    between atoms: C_5  and  C_22
    4  A    between atoms: C_6  and  C_24
    5  A    between atoms: C_6  and  C_26
    6  A    between atoms: C_10  and  N_19
    7  A    between atoms: C_10  and  C_27
    8  A    between atoms: N_11  and  C_22
    9  A    between atoms: C_14  and  C_27
   10  A    between atoms: C_15  and  C_25
   11  A    between atoms: C_18  and  C_24
   12  A    between atoms: N_19  and  C_25
   13  A    between atoms: C_21  and  C_24
                            x       y       z     vdW  Elec       q    Type
                         _______ _______ _______ _____ _____    ______ ____

>  <TORSDO>
F 13

$$$$
=
 OpenBabel11042416483D

 29 30  0  0  1  0  0  0  0  0999 V2000
  189.0690  177.3160  143.4610 C   0  0  2  0  0  3  0  0  0  0  0  0
  184.9610  178.4500  146.0440 C   0  0  0  0  0  0  0  0  0  0  0  0
  184.5440  179.2770  144.9970 C   0  0  0  0  0  3  0  0  0  0  0  0
  185.3230  179.4050  143.8450 C   0  0  0  0  0  3  0  0  0  0  0  0
  186.9690  177.8750  144.7730 C   0  0  0  0  0  0  0  0  0  0  0  0
  186.5280  178.7080  143.7330 C   0  0  0  0  0  3  0  0  0  0  0  0
  187.8060  176.2150  146.8800 C   0  0  0  0  0  3  0  0  0  0  0  0
  188.5940  176.3460  145.7360 C   0  0  0  0  0  3  0  0  0  0  0  0
  186.1720  177.7430  145.9400 C   0  0  0  0  0  0  0  0  0  0  0  0
  186.6000  176.9110  146.9820 C   0  0  0  0  0  3  0  0  0  0  0  0
  188.1880  177.1710  144.6750 C   0  0  0  0  0  0  0  0  0  0  0  0
  184.1670  178.3390  147.1800 O   0  0  0  0  0  1  0  0  0  0  0  0
  189.4100  175.9520  142.8720 C   0  0  0  0  0  2  0  0  0  0  0  0
  187.6760  176.4910  141.3360 O   0  0  0  0  0  0  0  0  0  0  0  0
  188.5660  174.3660  141.0660 N   0  0  0  0  0  2  0  0  0  0  0  0
  188.5010  175.6280  141.7300 C   0  0  0  0  0  0  0  0  0  0  0  0
  189.4830  173.3110  141.4760 C   0  0  0  0  0  2  0  0  0  0  0  0
  188.7620  172.3160  142.3670 C   0  0  0  0  0  2  0  0  0  0  0  0
  189.4100  172.2750  143.7390 C   0  0  0  0  0  1  0  0  0  0  0  0
  190.3350  178.1070  143.7820 C   0  0  0  0  0  2  0  0  0  0  0  0
  191.5790  177.3110  143.4230 C   0  0  0  0  0  2  0  0  0  0  0  0
  192.4690  177.1470  144.6430 C   0  0  0  0  0  2  0  0  0  0  0  0
  192.1270  175.8590  145.3680 C   0  0  0  0  0  2  0  0  0  0  0  0
  193.1370  175.6020  146.4670 C   0  0  0  0  0  2  0  0  0  0  0  0
  194.4380  176.1010  146.0590 N   0  0  0  0  0  2  0  0  0  0  0  0
  195.3100  174.9450  145.9430 C   0  0  0  0  0  2  0  0  0  0  0  0
  197.1820  174.7740  144.4820 O   0  0  0  0  0  0  0  0  0  0  0  0
  195.9360  174.9210  144.5950 C   0  0  0  0  0  0  0  0  0  0  0  0
  195.1260  175.0420  143.4310 N   0  0  0  0  0  1  0  0  0  0  0  0
  1 13  1  1  0  0  0
  1 20  1  0  0  0  0
  1 11  1  0  0  0  0
  2 12  1  0  0  0  0
  3  2  2  0  0  0  0
  4  3  1  0  0  0  0
  5  9  1  0  0  0  0
  6  4  2  0  0  0  0
  6  5  1  0  0  0  0
  7 10  1  0  0  0  0
  8  7  2  0  0  0  0
  9  2  1  0  0  0  0
  9 10  2  0  0  0  0
 11  5  2  0  0  0  0
 11  8  1  0  0  0  0
 14 16  2  0  0  0  0
 15 17  1  0  0  0  0
 15 16  1  0  0  0  0
 16 13  1  0  0  0  0
 17 18  1  0  0  0  0
 18 19  1  0  0  0  0
 21 20  1  0  0  0  0
 21 22  1  0  0  0  0
 22 23  1  0  0  0  0
 23 24  1  0  0  0  0
 25 24  1  0  0  0  0
 26 25  1  0  0  0  0
 27 28  2  0  0  0  0
 28 26  1  0  0  0  0
 29 28  1  0  0  0  0
M  END
>  <MODEL>
8

>  <REMARK>
 VINA RESULT:      -5.8      2.169      5.520
  Name = 
  13 active torsions:
  status: ('A' for Active; 'I' for Inactive)
    1  A    between atoms: C_1  and  C_14
    2  A    between atoms: C_1  and  C_18
    3  A    between atoms: C_5  and  C_22
    4  A    between atoms: C_6  and  C_24
    5  A    between atoms: C_6  and  C_26
    6  A    between atoms: C_10  and  N_19
    7  A    between atoms: C_10  and  C_27
    8  A    between atoms: N_11  and  C_22
    9  A    between atoms: C_14  and  C_27
   10  A    between atoms: C_15  and  C_25
   11  A    between atoms: C_18  and  C_24
   12  A    between atoms: N_19  and  C_25
   13  A    between atoms: C_21  and  C_24
                            x       y       z     vdW  Elec       q    Type
                         _______ _______ _______ _____ _____    ______ ____

>  <TORSDO>
F 13

$$$$
=
 OpenBabel11042416483D

 29 30  0  0  1  0  0  0  0  0999 V2000
  189.1390  176.8540  144.0210 C   0  0  2  0  0  3  0  0  0  0  0  0
  184.7210  178.4300  145.7020 C   0  0  0  0  0  0  0  0  0  0  0  0
  185.0390  177.9360  146.9700 C   0  0  0  0  0  3  0  0  0  0  0  0
  186.2710  177.3200  147.2000 C   0  0  0  0  0  3  0  0  0  0  0  0
  186.8950  177.6760  144.8760 C   0  0  0  0  0  0  0  0  0  0  0  0
  187.1950  177.1910  146.1590 C   0  0  0  0  0  3  0  0  0  0  0  0
  186.2510  178.6680  142.3280 C   0  0  0  0  0  3  0  0  0  0  0  0
  187.4810  178.0450  142.5470 C   0  0  0  0  0  3  0  0  0  0  0  0
  185.6440  178.3060  144.6480 C   0  0  0  0  0  0  0  0  0  0  0  0
  185.3360  178.7980  143.3740 C   0  0  0  0  0  3  0  0  0  0  0  0
  187.8170  177.5460  143.8150 C   0  0  0  0  0  0  0  0  0  0  0  0
  183.4870  179.0400  145.5000 O   0  0  0  0  0  1  0  0  0  0  0  0
  190.2360  177.8630  144.3400 C   0  0  0  0  0  2  0  0  0  0  0  0
  192.3910  177.0750  143.7140 O   0  0  0  0  0  0  0  0  0  0  0  0
  191.8080  176.6220  145.9130 N   0  0  0  0  0  2  0  0  0  0  0  0
  191.5270  177.1660  144.6240 C   0  0  0  0  0  0  0  0  0  0  0  0
  190.8520  176.6730  147.0100 C   0  0  0  0  0  2  0  0  0  0  0  0
  190.6970  175.2950  147.6290 C   0  0  0  0  0  2  0  0  0  0  0  0
  189.3190  174.7370  147.3270 C   0  0  0  0  0  1  0  0  0  0  0  0
  189.5150  175.9990  142.8120 C   0  0  0  0  0  2  0  0  0  0  0  0
  189.0230  174.5710  142.9820 C   0  0  0  0  0  2  0  0  0  0  0  0
  189.8350  173.8590  144.0480 C   0  0  0  0  0  2  0  0  0  0  0  0
  191.1470  173.3690  143.4640 C   0  0  0  0  0  2  0  0  0  0  0  0
  192.2230  173.3790  144.5300 C   0  0  0  0  0  2  0  0  0  0  0  0
  193.5310  173.4080  143.9010 N   0  0  0  0  0  2  0  0  0  0  0  0
  194.3550  174.3030  144.6960 C   0  0  0  0  0  2  0  0  0  0  0  0
  195.4440  174.7400  142.6240 O   0  0  0  0  0  0  0  0  0  0  0  0
  195.2100  175.1260  143.8000 C   0  0  0  0  0  0  0  0  0  0  0  0
  195.7480  176.3600  144.2650 N   0  0  0  0  0  1  0  0  0  0  0  0
  1 20  1  6  0  0  0
  1 13  1  0  0  0  0
  2  3  1  0  0  0  0
  3  4  2  0  0  0  0
  5  6  2  0  0  0  0
  6  4  1  0  0  0  0
  7  8  1  0  0  0  0
  7 10  2  0  0  0  0
  8 11  2  0  0  0  0
  9  5  1  0  0  0  0
  9  2  2  0  0  0  0
 10  9  1  0  0  0  0
 11  1  1  0  0  0  0
 11  5  1  0  0  0  0
 12  2  1  0  0  0  0
 13 16  1  0  0  0  0
 14 16  2  0  0  0  0
 15 17  1  0  0  0  0
 16 15  1  0  0  0  0
 17 18  1  0  0  0  0
 19 18  1  0  0  0  0
 20 21  1  0  0  0  0
 21 22  1  0  0  0  0
 23 22  1  0  0  0  0
 23 24  1  0  0  0  0
 25 24  1  0  0  0  0
 25 26  1  0  0  0  0
 27 28  2  0  0  0  0
 28 29  1  0  0  0  0
 28 26  1  0  0  0  0
M  END
>  <MODEL>
9

>  <REMARK>
 VINA RESULT:      -5.8      2.152      5.525
  Name = 
  13 active torsions:
  status: ('A' for Active; 'I' for Inactive)
    1  A    between atoms: C_1  and  C_14
    2  A    between atoms: C_1  and  C_18
    3  A    between atoms: C_5  and  C_22
    4  A    between atoms: C_6  and  C_24
    5  A    between atoms: C_6  and  C_26
    6  A    between atoms: C_10  and  N_19
    7  A    between atoms: C_10  and  C_27
    8  A    between atoms: N_11  and  C_22
    9  A    between atoms: C_14  and  C_27
   10  A    between atoms: C_15  and  C_25
   11  A    between atoms: C_18  and  C_24
   12  A    between atoms: N_19  and  C_25
   13  A    between atoms: C_21  and  C_24
                            x       y       z     vdW  Elec       q    Type
                         _______ _______ _______ _____ _____    ______ ____

>  <TORSDO>
F 13

$$$$
