=
 OpenBabel11042416183D

 66 74  0  0  1  0  0  0  0  0999 V2000
  190.1100  171.9800  143.0340 C   0  0  0  0  0  0  0  0  0  0  0  0
  189.5470  173.0390  142.4730 C   0  0  0  0  0  0  0  0  0  0  0  0
  189.9720  171.6180  140.7540 N   0  0  0  0  0  0  0  0  0  0  0  0
  189.4830  172.7800  141.0480 C   0  0  0  0  0  0  0  0  0  0  0  0
  190.3810  171.8310  144.3900 O   0  0  0  0  0  1  0  0  0  0  0  0
  190.3920  170.9500  141.9840 C   0  0  1  0  0  3  0  0  0  0  0  0
  192.2860  169.7230  142.7330 O   0  0  0  0  0  0  0  0  0  0  0  0
  191.8510  170.5520  141.9490 C   0  0  0  0  0  0  0  0  0  0  0  0
  192.7880  171.1650  140.9440 C   0  0  0  0  0  2  0  0  0  0  0  0
  193.1480  170.1470  139.8650 C   0  0  2  0  0  3  0  0  0  0  0  0
  194.5610  169.6510  140.1230 C   0  0  0  0  0  2  0  0  0  0  0  0
  194.2980  170.5400  138.9270 C   0  0  2  0  0  3  0  0  0  0  0  0
  195.7790  172.3290  138.4830 N   0  0  0  0  0  0  0  0  0  0  0  0
  194.8180  171.8740  139.1900 N   0  0  0  0  0  0  0  0  0  0  0  0
  195.2410  176.0530  141.3750 C   0  0  0  0  0  3  0  0  0  0  0  0
  196.6620  174.1530  141.5800 N   0  0  0  0  0  0  0  0  0  0  0  0
  195.6270  174.6170  139.4360 N   0  0  0  0  0  2  0  0  0  0  0  0
  196.2540  175.5020  143.5040 C   0  0  0  0  0  3  0  0  0  0  0  0
  196.3780  173.5930  138.7790 C   0  0  0  0  0  0  0  0  0  0  0  0
  195.8700  174.9460  140.8090 C   0  0  0  0  0  0  0  0  0  0  0  0
  197.6030  173.7630  138.5560 O   0  0  0  0  0  0  0  0  0  0  0  0
  195.4410  176.3330  142.7300 C   0  0  0  0  0  3  0  0  0  0  0  0
  196.8690  174.4030  142.9070 C   0  0  0  0  0  0  0  0  0  0  0  0
  195.5620  171.2470  143.4610 C   0  0  0  0  0  3  0  0  0  0  0  0
  196.6210  172.3600  145.8090 C   0  0  1  0  0  3  0  0  0  0  0  0
  197.8480  172.1190  143.1920 N   0  0  0  0  0  2  0  0  0  0  0  0
  195.1090  172.4320  145.5220 C   0  0  0  0  0  2  0  0  0  0  0  0
  197.1870  171.1190  145.2930 N   0  0  0  0  0  2  0  0  0  0  0  0
  197.3940  173.5610  145.2710 C   0  0  0  0  0  2  0  0  0  0  0  0
  197.6860  173.4730  143.7630 C   0  0  2  0  0  3  0  0  0  0  0  0
  194.7420  171.8800  144.2270 N   0  0  0  0  0  0  0  0  0  0  0  0
  197.0150  171.0940  143.8360 C   0  0  1  0  0  3  0  0  0  0  0  0
  189.1090  174.2410  143.1280 N   0  0  0  0  0  2  0  0  0  0  0  0
  189.7410  174.6170  146.7750 C   0  0  0  0  0  2  0  0  0  0  0  0
  190.4010  176.2300  143.6720 C   0  0  0  0  0  2  0  0  0  0  0  0
  188.9900  174.9780  145.4860 C   0  0  2  0  0  3  0  0  0  0  0  0
  189.8450  174.9010  144.1980 C   0  0  1  0  0  3  0  0  0  0  0  0
  191.3110  176.9510  144.6210 C   0  0  0  0  0  0  0  0  0  0  0  0
  190.9850  175.4620  146.9990 C   0  0  0  0  0  2  0  0  0  0  0  0
  191.1980  178.1650  144.7210 O   0  0  0  0  0  0  0  0  0  0  0  0
  191.9810  175.0930  146.0840 O   0  0  0  0  0  0  0  0  0  0  0  0
  192.4160  176.2390  145.3780 C   0  0  2  0  0  3  0  0  0  0  0  0
  184.9120  177.3170  144.3250 O   0  0  0  0  0  0  0  0  0  0  0  0
  188.0570  176.1520  145.6430 C   0  0  0  0  0  0  0  0  0  0  0  0
  186.1980  177.6270  144.8260 C   0  0  1  0  0  0  0  0  0  0  0  0
  184.9470  177.7650  141.9760 C   0  0  0  0  0  2  0  0  0  0  0  0
  187.0790  176.3880  144.7540 C   0  0  0  0  0  3  0  0  0  0  0  0
  187.3810  178.0540  147.0170 C   0  0  0  0  0  3  0  0  0  0  0  0
  188.2950  177.1190  146.7300 C   0  0  0  0  0  3  0  0  0  0  0  0
  187.3860  178.3300  142.6710 C   0  0  0  0  0  2  0  0  0  0  0  0
  186.3890  178.0760  141.5230 C   0  0  0  0  0  2  0  0  0  0  0  0
  186.7430  178.8040  143.9980 C   0  0  1  0  0  3  0  0  0  0  0  0
  185.4650  179.5150  143.6770 C   0  0  0  0  0  2  0  0  0  0  0  0
  186.0530  178.0600  146.3020 C   0  0  0  0  0  2  0  0  0  0  0  0
  184.6010  178.3090  143.3730 C   0  0  2  0  0  3  0  0  0  0  0  0
  193.1150  177.1150  146.2140 O   0  0  0  0  0  0  0  0  0  0  0  0
  194.3350  176.4840  146.4530 C   0  0  0  0  0  1  0  0  0  0  0  0
  189.0070  173.7450  140.0110 C   0  0  0  0  0  2  0  0  0  0  0  0
  189.8720  173.7210  138.8350 N   0  0  0  0  0  2  0  0  0  0  0  0
  189.0440  173.3850  137.6880 C   0  0  2  0  0  3  0  0  0  0  0  0
  189.4150  172.0080  137.1730 C   0  0  0  0  0  2  0  0  0  0  0  0
  189.4370  172.0330  135.7730 O   0  0  0  0  0  1  0  0  0  0  0  0
  189.2080  174.4230  136.5870 C   0  0  0  0  0  2  0  0  0  0  0  0
  187.9770  175.2660  136.4700 C   0  0  0  0  0  0  0  0  0  0  0  0
  187.2000  175.3990  137.4540 O   0  0  0  0  0  1  0  0  0  0  0  0
  187.7000  175.9100  135.2690 O   0  0  0  0  0  0  0  0  0  0  0  0
  1  5  1  0  0  0  0
  2  1  2  0  0  0  0
  2 33  1  0  0  0  0
  3  4  2  0  0  0  0
  3  6  1  0  0  0  0
  4  2  1  0  0  0  0
  6  8  1  6  0  0  0
  6  1  1  0  0  0  0
  8  7  2  0  0  0  0
  9  8  1  0  0  0  0
 10 11  1  0  0  0  0
 10  9  1  1  0  0  0
 12 14  1  1  0  0  0
 12 10  1  0  0  0  0
 12 11  1  0  0  0  0
 13 19  1  0  0  0  0
 13 14  2  0  0  0  0
 15 22  2  0  0  0  0
 16 23  1  0  0  0  0
 17 20  1  0  0  0  0
 19 17  1  0  0  0  0
 20 15  1  0  0  0  0
 20 16  2  0  0  0  0
 21 19  2  0  0  0  0
 22 18  1  0  0  0  0
 23 18  2  0  0  0  0
 24 31  2  0  0  0  0
 25 29  1  6  0  0  0
 26 30  1  0  0  0  0
 26 32  1  0  0  0  0
 27 25  1  0  0  0  0
 28 25  1  0  0  0  0
 30 23  1  6  0  0  0
 30 29  1  0  0  0  0
 31 27  1  0  0  0  0
 32 24  1  1  0  0  0
 32 28  1  0  0  0  0
 34 39  1  0  0  0  0
 35 37  1  0  0  0  0
 35 38  1  0  0  0  0
 36 44  1  1  0  0  0
 36 34  1  0  0  0  0
 37 33  1  6  0  0  0
 37 36  1  0  0  0  0
 38 40  2  0  0  0  0
 38 42  1  0  0  0  0
 41 39  1  0  0  0  0
 42 41  1  0  0  0  0
 42 56  1  1  0  0  0
 43 45  1  0  0  0  0
 44 49  1  0  0  0  0
 45 47  1  6  0  0  0
 45 54  1  0  0  0  0
 47 44  2  0  0  0  0
 49 48  2  0  0  0  0
 51 46  1  0  0  0  0
 51 50  1  0  0  0  0
 52 50  1  6  0  0  0
 52 45  1  0  0  0  0
 53 52  1  0  0  0  0
 54 48  1  0  0  0  0
 55 46  1  6  0  0  0
 55 53  1  0  0  0  0
 55 43  1  0  0  0  0
 56 57  1  0  0  0  0
 58  4  1  0  0  0  0
 59 58  1  0  0  0  0
 60 63  1  6  0  0  0
 60 59  1  0  0  0  0
 61 60  1  0  0  0  0
 62 61  1  0  0  0  0
 64 63  1  0  0  0  0
 64 65  1  0  0  0  0
 66 64  2  0  0  0  0
M  END
>  <MODEL>
1

>  <REMARK>
 VINA RESULT:      -7.9      0.000      0.000
  Name = 
  16 active torsions:
  status: ('A' for Active; 'I' for Inactive)
    1  A    between atoms: CA_3  and  C_12
    2  A    between atoms: CA_3  and  CB_35
    3  A    between atoms: CA_3  and  N_49
    4  A    between atoms: C_7  and  C_11
    5  A    between atoms: C_7  and  C_20
    6  A    between atoms: C_8  and  N_49
    7  A    between atoms: C_8  and  C_51
    8  A    between atoms: O_13  and  C_60
    9  A    between atoms: C_16  and  C_17
   10  A    between atoms: C_18  and  N_52
   11  A    between atoms: C_20  and  C_66
   12  A    between atoms: C_21  and  N_41
   13  A    between atoms: CG_24  and  CB_35
   14  A    between atoms: C_42  and  N_52
   15  A    between atoms: C_48  and  N_50
   16  A    between atoms: C_61  and  C_63
                            x       y       z     vdW  Elec       q    Type
                         _______ _______ _______ _____ _____    ______ ____

>  <TORSDO>
F 16

$$$$
=
 OpenBabel11042416183D

 66 74  0  0  1  0  0  0  0  0999 V2000
  190.4160  172.8480  141.6080 C   0  0  0  0  0  0  0  0  0  0  0  0
  190.7430  172.7480  142.8870 C   0  0  0  0  0  0  0  0  0  0  0  0
  192.2060  171.3960  141.7980 N   0  0  0  0  0  0  0  0  0  0  0  0
  191.8610  171.8290  142.9680 C   0  0  0  0  0  0  0  0  0  0  0  0
  189.3740  173.6140  141.0960 O   0  0  0  0  0  1  0  0  0  0  0  0
  191.3580  172.0230  140.7860 C   0  0  1  0  0  3  0  0  0  0  0  0
  190.0700  170.0520  140.4550 O   0  0  0  0  0  0  0  0  0  0  0  0
  190.6340  171.0020  139.9360 C   0  0  0  0  0  0  0  0  0  0  0  0
  190.5930  171.1450  138.4380 C   0  0  0  0  0  2  0  0  0  0  0  0
  189.8200  172.4010  138.0470 C   0  0  2  0  0  3  0  0  0  0  0  0
  189.8630  172.5430  136.5350 C   0  0  0  0  0  2  0  0  0  0  0  0
  190.6420  173.5190  137.3910 C   0  0  2  0  0  3  0  0  0  0  0  0
  192.7250  173.5500  136.2720 N   0  0  0  0  0  0  0  0  0  0  0  0
  192.0620  173.2100  137.3090 N   0  0  0  0  0  0  0  0  0  0  0  0
  197.0950  175.3060  136.8610 C   0  0  0  0  0  3  0  0  0  0  0  0
  195.7930  173.9320  138.3060 N   0  0  0  0  0  0  0  0  0  0  0  0
  195.1130  174.1720  135.9900 N   0  0  0  0  0  2  0  0  0  0  0  0
  197.6860  175.0770  139.1980 C   0  0  0  0  0  3  0  0  0  0  0  0
  194.0970  173.1750  136.1190 C   0  0  0  0  0  0  0  0  0  0  0  0
  196.0150  174.4500  137.0690 C   0  0  0  0  0  0  0  0  0  0  0  0
  194.4190  171.9630  136.2060 O   0  0  0  0  0  0  0  0  0  0  0  0
  197.9370  175.6160  137.9340 C   0  0  0  0  0  3  0  0  0  0  0  0
  196.5980  174.2220  139.3710 C   0  0  0  0  0  0  0  0  0  0  0  0
  194.2450  175.9720  141.2090 C   0  0  0  0  0  3  0  0  0  0  0  0
  196.4700  175.2700  142.7680 C   0  0  1  0  0  3  0  0  0  0  0  0
  194.8500  173.5920  141.0440 N   0  0  0  0  0  2  0  0  0  0  0  0
  196.3590  176.6780  142.1530 C   0  0  0  0  0  2  0  0  0  0  0  0
  195.1540  174.7620  143.1390 N   0  0  0  0  0  2  0  0  0  0  0  0
  197.1890  174.2720  141.8650 C   0  0  0  0  0  2  0  0  0  0  0  0
  196.2950  173.7030  140.7500 C   0  0  2  0  0  3  0  0  0  0  0  0
  195.1860  176.8460  141.3090 N   0  0  0  0  0  0  0  0  0  0  0  0
  194.3350  174.6480  141.9270 C   0  0  1  0  0  3  0  0  0  0  0  0
  190.1020  173.3910  144.0010 N   0  0  0  0  0  2  0  0  0  0  0  0
  190.6140  174.9160  147.3560 C   0  0  0  0  0  2  0  0  0  0  0  0
  191.1050  175.6070  143.9000 C   0  0  0  0  0  2  0  0  0  0  0  0
  189.8440  174.7730  146.0360 C   0  0  2  0  0  3  0  0  0  0  0  0
  190.7240  174.4320  144.8100 C   0  0  1  0  0  3  0  0  0  0  0  0
  191.8920  176.6920  144.5700 C   0  0  0  0  0  0  0  0  0  0  0  0
  191.7280  175.9480  147.2900 C   0  0  0  0  0  2  0  0  0  0  0  0
  191.6140  177.8550  144.3080 O   0  0  0  0  0  0  0  0  0  0  0  0
  192.7810  175.4610  146.5020 O   0  0  0  0  0  0  0  0  0  0  0  0
  193.0690  176.3920  145.4780 C   0  0  2  0  0  3  0  0  0  0  0  0
  185.9470  176.4450  143.6980 O   0  0  0  0  0  0  0  0  0  0  0  0
  188.7580  175.8050  145.8600 C   0  0  0  0  0  0  0  0  0  0  0  0
  187.0040  176.9600  144.4850 C   0  0  1  0  0  0  0  0  0  0  0  0
  186.5400  176.7970  141.4090 C   0  0  0  0  0  2  0  0  0  0  0  0
  188.0270  175.8600  144.7350 C   0  0  0  0  0  3  0  0  0  0  0  0
  187.5040  177.6430  146.8650 C   0  0  0  0  0  3  0  0  0  0  0  0
  188.5740  176.8400  146.8930 C   0  0  0  0  0  3  0  0  0  0  0  0
  188.6160  177.7380  142.6560 C   0  0  0  0  0  2  0  0  0  0  0  0
  187.9970  177.2960  141.3150 C   0  0  0  0  0  2  0  0  0  0  0  0
  187.5910  178.1690  143.7350 C   0  0  1  0  0  3  0  0  0  0  0  0
  186.3610  178.6730  143.0450 C   0  0  0  0  0  2  0  0  0  0  0  0
  186.4220  177.4270  145.8370 C   0  0  0  0  0  2  0  0  0  0  0  0
  185.7710  177.3420  142.6250 C   0  0  2  0  0  3  0  0  0  0  0  0
  193.6290  177.5630  145.9990 O   0  0  0  0  0  0  0  0  0  0  0  0
  194.9620  177.5350  145.5910 C   0  0  0  0  0  1  0  0  0  0  0  0
  192.4970  171.3470  144.2310 C   0  0  0  0  0  2  0  0  0  0  0  0
  193.5230  172.2800  144.6910 N   0  0  0  0  0  2  0  0  0  0  0  0
  194.7980  171.5800  144.6610 C   0  0  2  0  0  3  0  0  0  0  0  0
  194.5680  170.0880  144.7950 C   0  0  0  0  0  2  0  0  0  0  0  0
  194.9860  169.6720  146.0650 O   0  0  0  0  0  1  0  0  0  0  0  0
  195.7060  172.0780  145.7760 C   0  0  0  0  0  2  0  0  0  0  0  0
  197.0250  172.5210  145.2240 C   0  0  0  0  0  0  0  0  0  0  0  0
  197.6570  171.7860  144.4170 O   0  0  0  0  0  0  0  0  0  0  0  0
  197.5440  173.7550  145.5980 O   0  0  0  0  0  1  0  0  0  0  0  0
  1  2  2  0  0  0  0
  2  4  1  0  0  0  0
  2 33  1  0  0  0  0
  3  4  2  0  0  0  0
  4 58  1  0  0  0  0
  5  1  1  0  0  0  0
  6  8  1  1  0  0  0
  6  1  1  0  0  0  0
  6  3  1  0  0  0  0
  8  7  2  0  0  0  0
  9  8  1  0  0  0  0
 10  9  1  6  0  0  0
 11 12  1  0  0  0  0
 11 10  1  0  0  0  0
 12 14  1  6  0  0  0
 12 10  1  0  0  0  0
 13 14  2  0  0  0  0
 15 20  1  0  0  0  0
 15 22  2  0  0  0  0
 16 23  1  0  0  0  0
 17 19  1  0  0  0  0
 17 20  1  0  0  0  0
 18 23  2  0  0  0  0
 19 21  2  0  0  0  0
 19 13  1  0  0  0  0
 20 16  2  0  0  0  0
 22 18  1  0  0  0  0
 24 31  2  0  0  0  0
 25 29  1  6  0  0  0
 25 28  1  0  0  0  0
 26 32  1  0  0  0  0
 27 25  1  0  0  0  0
 30 23  1  6  0  0  0
 30 26  1  0  0  0  0
 30 29  1  0  0  0  0
 31 27  1  0  0  0  0
 32 24  1  6  0  0  0
 32 28  1  0  0  0  0
 35 38  1  0  0  0  0
 35 37  1  0  0  0  0
 36 44  1  6  0  0  0
 36 34  1  0  0  0  0
 37 33  1  6  0  0  0
 37 36  1  0  0  0  0
 38 42  1  0  0  0  0
 39 34  1  0  0  0  0
 40 38  2  0  0  0  0
 41 39  1  0  0  0  0
 42 56  1  1  0  0  0
 42 41  1  0  0  0  0
 43 45  1  0  0  0  0
 44 49  1  0  0  0  0
 45 47  1  1  0  0  0
 45 54  1  0  0  0  0
 47 44  2  0  0  0  0
 48 49  2  0  0  0  0
 51 46  1  0  0  0  0
 51 50  1  0  0  0  0
 52 50  1  6  0  0  0
 52 45  1  0  0  0  0
 53 52  1  0  0  0  0
 54 48  1  0  0  0  0
 55 46  1  6  0  0  0
 55 53  1  0  0  0  0
 55 43  1  0  0  0  0
 57 56  1  0  0  0  0
 58 59  1  0  0  0  0
 60 59  1  0  0  0  0
 60 61  1  1  0  0  0
 60 63  1  0  0  0  0
 61 62  1  0  0  0  0
 64 66  1  0  0  0  0
 64 63  1  0  0  0  0
 65 64  2  0  0  0  0
M  END
>  <MODEL>
2

>  <REMARK>
 VINA RESULT:      -7.9      2.167      4.997
  Name = 
  16 active torsions:
  status: ('A' for Active; 'I' for Inactive)
    1  A    between atoms: CA_3  and  C_12
    2  A    between atoms: CA_3  and  CB_35
    3  A    between atoms: CA_3  and  N_49
    4  A    between atoms: C_7  and  C_11
    5  A    between atoms: C_7  and  C_20
    6  A    between atoms: C_8  and  N_49
    7  A    between atoms: C_8  and  C_51
    8  A    between atoms: O_13  and  C_60
    9  A    between atoms: C_16  and  C_17
   10  A    between atoms: C_18  and  N_52
   11  A    between atoms: C_20  and  C_66
   12  A    between atoms: C_21  and  N_41
   13  A    between atoms: CG_24  and  CB_35
   14  A    between atoms: C_42  and  N_52
   15  A    between atoms: C_48  and  N_50
   16  A    between atoms: C_61  and  C_63
                            x       y       z     vdW  Elec       q    Type
                         _______ _______ _______ _____ _____    ______ ____

>  <TORSDO>
F 16

$$$$
=
 OpenBabel11042416183D

 66 74  0  0  1  0  0  0  0  0999 V2000
  189.6370  171.8270  143.0780 C   0  0  0  0  0  0  0  0  0  0  0  0
  189.4470  173.0080  142.5110 C   0  0  0  0  0  0  0  0  0  0  0  0
  190.1430  171.6520  140.8280 N   0  0  0  0  0  0  0  0  0  0  0  0
  189.7790  172.8630  141.1080 C   0  0  0  0  0  0  0  0  0  0  0  0
  189.4550  171.5380  144.4260 O   0  0  0  0  0  1  0  0  0  0  0  0
  190.0570  170.8360  142.0370 C   0  0  1  0  0  3  0  0  0  0  0  0
  191.5920  169.0200  142.0370 O   0  0  0  0  0  0  0  0  0  0  0  0
  191.3750  170.1730  142.3740 C   0  0  0  0  0  0  0  0  0  0  0  0
  192.4400  170.9260  143.1250 C   0  0  0  0  0  2  0  0  0  0  0  0
  193.0340  170.0490  144.2230 C   0  0  2  0  0  3  0  0  0  0  0  0
  193.8300  170.9320  145.1680 C   0  0  0  0  0  2  0  0  0  0  0  0
  194.5660  169.9680  144.2640 C   0  0  2  0  0  3  0  0  0  0  0  0
  196.0010  170.1020  142.3890 N   0  0  0  0  0  0  0  0  0  0  0  0
  195.2050  170.7060  143.1840 N   0  0  0  0  0  0  0  0  0  0  0  0
  195.2490  172.5870  138.4160 C   0  0  0  0  0  3  0  0  0  0  0  0
  195.5610  173.3410  140.6530 N   0  0  0  0  0  0  0  0  0  0  0  0
  196.1340  171.0500  140.0970 N   0  0  0  0  0  2  0  0  0  0  0  0
  194.6380  174.8420  139.0470 C   0  0  0  0  0  3  0  0  0  0  0  0
  196.7190  170.8180  141.3810 C   0  0  0  0  0  0  0  0  0  0  0  0
  195.6630  172.3510  139.7260 C   0  0  0  0  0  0  0  0  0  0  0  0
  197.8280  171.3370  141.6640 O   0  0  0  0  0  0  0  0  0  0  0  0
  194.7380  173.8430  138.0760 C   0  0  0  0  0  3  0  0  0  0  0  0
  195.0610  174.5750  140.3470 C   0  0  0  0  0  0  0  0  0  0  0  0
  197.9300  175.6900  141.9300 C   0  0  0  0  0  3  0  0  0  0  0  0
  195.8370  175.2650  143.7500 C   0  0  1  0  0  3  0  0  0  0  0  0
  195.8190  176.7710  141.2720 N   0  0  0  0  0  2  0  0  0  0  0  0
  196.9230  174.1920  143.5420 C   0  0  0  0  0  2  0  0  0  0  0  0
  196.3990  176.6030  143.6140 N   0  0  0  0  0  2  0  0  0  0  0  0
  194.6380  175.0960  142.8210 C   0  0  0  0  0  2  0  0  0  0  0  0
  194.8840  175.6340  141.4020 C   0  0  2  0  0  3  0  0  0  0  0  0
  197.8840  174.5380  142.5070 N   0  0  0  0  0  0  0  0  0  0  0  0
  196.9160  176.7600  142.2500 C   0  0  1  0  0  3  0  0  0  0  0  0
  189.0280  174.2240  143.1530 N   0  0  0  0  0  2  0  0  0  0  0  0
  189.6800  174.5520  146.8010 C   0  0  0  0  0  2  0  0  0  0  0  0
  190.3080  176.2160  143.7190 C   0  0  0  0  0  2  0  0  0  0  0  0
  188.9180  174.9260  145.5220 C   0  0  2  0  0  3  0  0  0  0  0  0
  189.7660  174.8740  144.2280 C   0  0  1  0  0  3  0  0  0  0  0  0
  191.2170  176.9300  144.6720 C   0  0  0  0  0  0  0  0  0  0  0  0
  190.9180  175.4040  147.0300 C   0  0  0  0  0  2  0  0  0  0  0  0
  191.0950  178.1420  144.7920 O   0  0  0  0  0  0  0  0  0  0  0  0
  191.9110  175.0570  146.1040 O   0  0  0  0  0  0  0  0  0  0  0  0
  192.3320  176.2160  145.4120 C   0  0  2  0  0  3  0  0  0  0  0  0
  184.8400  177.2740  144.3820 O   0  0  0  0  0  0  0  0  0  0  0  0
  187.9760  176.0900  145.7030 C   0  0  0  0  0  0  0  0  0  0  0  0
  186.1180  177.5770  144.9070 C   0  0  1  0  0  0  0  0  0  0  0  0
  184.8980  177.7890  142.0480 C   0  0  0  0  0  2  0  0  0  0  0  0
  187.0070  176.3460  144.8090 C   0  0  0  0  0  3  0  0  0  0  0  0
  187.2730  177.9470  147.1230 C   0  0  0  0  0  3  0  0  0  0  0  0
  188.1960  177.0260  146.8190 C   0  0  0  0  0  3  0  0  0  0  0  0
  187.3260  178.3470  142.7860 C   0  0  0  0  0  2  0  0  0  0  0  0
  186.3430  178.1210  141.6200 C   0  0  0  0  0  2  0  0  0  0  0  0
  186.6650  178.7810  144.1190 C   0  0  1  0  0  3  0  0  0  0  0  0
  185.3860  179.4930  143.8040 C   0  0  0  0  0  2  0  0  0  0  0  0
  185.9540  177.9670  146.3930 C   0  0  0  0  0  2  0  0  0  0  0  0
  184.5330  178.2910  143.4560 C   0  0  2  0  0  3  0  0  0  0  0  0
  193.0300  177.0860  146.2570 O   0  0  0  0  0  0  0  0  0  0  0  0
  194.2180  176.4200  146.5540 C   0  0  0  0  0  1  0  0  0  0  0  0
  189.8010  173.9690  140.1020 C   0  0  0  0  0  2  0  0  0  0  0  0
  188.7340  173.8040  139.1190 N   0  0  0  0  0  2  0  0  0  0  0  0
  189.3580  173.6720  137.8120 C   0  0  2  0  0  3  0  0  0  0  0  0
  188.6300  174.5400  136.8050 C   0  0  0  0  0  2  0  0  0  0  0  0
  187.5300  175.1430  137.4300 O   0  0  0  0  0  1  0  0  0  0  0  0
  189.3500  172.2180  137.3600 C   0  0  0  0  0  2  0  0  0  0  0  0
  190.6600  171.8540  136.7340 C   0  0  0  0  0  0  0  0  0  0  0  0
  191.6100  172.6830  136.7160 O   0  0  0  0  0  1  0  0  0  0  0  0
  190.8250  170.5900  136.1800 O   0  0  0  0  0  0  0  0  0  0  0  0
  1  5  1  0  0  0  0
  2  1  2  0  0  0  0
  2 33  1  0  0  0  0
  3  4  2  0  0  0  0
  3  6  1  0  0  0  0
  4  2  1  0  0  0  0
  6  8  1  1  0  0  0
  6  1  1  0  0  0  0
  7  8  2  0  0  0  0
  8  9  1  0  0  0  0
 10  9  1  6  0  0  0
 10 12  1  0  0  0  0
 10 11  1  0  0  0  0
 12 14  1  6  0  0  0
 12 11  1  0  0  0  0
 13 14  2  0  0  0  0
 15 20  1  0  0  0  0
 17 19  1  0  0  0  0
 18 23  2  0  0  0  0
 19 21  2  0  0  0  0
 19 13  1  0  0  0  0
 20 17  1  0  0  0  0
 20 16  2  0  0  0  0
 22 15  2  0  0  0  0
 22 18  1  0  0  0  0
 23 16  1  0  0  0  0
 24 31  2  0  0  0  0
 25 29  1  6  0  0  0
 26 30  1  0  0  0  0
 26 32  1  0  0  0  0
 27 25  1  0  0  0  0
 28 25  1  0  0  0  0
 30 23  1  6  0  0  0
 30 29  1  0  0  0  0
 31 27  1  0  0  0  0
 32 24  1  6  0  0  0
 32 28  1  0  0  0  0
 34 39  1  0  0  0  0
 35 37  1  0  0  0  0
 35 38  1  0  0  0  0
 36 44  1  1  0  0  0
 36 34  1  0  0  0  0
 37 33  1  6  0  0  0
 37 36  1  0  0  0  0
 38 40  2  0  0  0  0
 38 42  1  0  0  0  0
 41 39  1  0  0  0  0
 42 41  1  0  0  0  0
 42 56  1  1  0  0  0
 43 45  1  0  0  0  0
 44 49  1  0  0  0  0
 45 47  1  6  0  0  0
 45 54  1  0  0  0  0
 47 44  2  0  0  0  0
 49 48  2  0  0  0  0
 51 46  1  0  0  0  0
 51 50  1  0  0  0  0
 52 50  1  6  0  0  0
 52 45  1  0  0  0  0
 53 52  1  0  0  0  0
 54 48  1  0  0  0  0
 55 46  1  6  0  0  0
 55 53  1  0  0  0  0
 55 43  1  0  0  0  0
 56 57  1  0  0  0  0
 58  4  1  0  0  0  0
 59 58  1  0  0  0  0
 60 61  1  6  0  0  0
 60 59  1  0  0  0  0
 61 62  1  0  0  0  0
 63 60  1  0  0  0  0
 64 63  1  0  0  0  0
 65 64  1  0  0  0  0
 66 64  2  0  0  0  0
M  END
>  <MODEL>
3

>  <REMARK>
 VINA RESULT:      -7.6      1.373      2.957
  Name = 
  16 active torsions:
  status: ('A' for Active; 'I' for Inactive)
    1  A    between atoms: CA_3  and  C_12
    2  A    between atoms: CA_3  and  CB_35
    3  A    between atoms: CA_3  and  N_49
    4  A    between atoms: C_7  and  C_11
    5  A    between atoms: C_7  and  C_20
    6  A    between atoms: C_8  and  N_49
    7  A    between atoms: C_8  and  C_51
    8  A    between atoms: O_13  and  C_60
    9  A    between atoms: C_16  and  C_17
   10  A    between atoms: C_18  and  N_52
   11  A    between atoms: C_20  and  C_66
   12  A    between atoms: C_21  and  N_41
   13  A    between atoms: CG_24  and  CB_35
   14  A    between atoms: C_42  and  N_52
   15  A    between atoms: C_48  and  N_50
   16  A    between atoms: C_61  and  C_63
                            x       y       z     vdW  Elec       q    Type
                         _______ _______ _______ _____ _____    ______ ____

>  <TORSDO>
F 16

$$$$
=
 OpenBabel11042416183D

 66 74  0  0  1  0  0  0  0  0999 V2000
  189.7990  173.2860  140.3470 C   0  0  0  0  0  0  0  0  0  0  0  0
  189.7240  174.3710  141.1020 C   0  0  0  0  0  0  0  0  0  0  0  0
  187.8200  174.3810  139.8650 N   0  0  0  0  0  0  0  0  0  0  0  0
  188.4790  175.0330  140.7690 C   0  0  0  0  0  0  0  0  0  0  0  0
  190.8530  172.3780  140.3370 O   0  0  0  0  0  1  0  0  0  0  0  0
  188.5590  173.1690  139.5160 C   0  0  1  0  0  3  0  0  0  0  0  0
  188.4470  173.9480  137.2730 O   0  0  0  0  0  0  0  0  0  0  0  0
  188.8650  173.0920  138.0370 C   0  0  0  0  0  0  0  0  0  0  0  0
  189.6920  171.9640  137.4840 C   0  0  0  0  0  2  0  0  0  0  0  0
  189.3920  171.7630  136.0020 C   0  0  2  0  0  3  0  0  0  0  0  0
  190.4410  170.8320  135.4180 C   0  0  0  0  0  2  0  0  0  0  0  0
  190.4490  172.2930  135.0230 C   0  0  2  0  0  3  0  0  0  0  0  0
  191.8670  174.1580  135.3430 N   0  0  0  0  0  0  0  0  0  0  0  0
  191.5530  172.9700  135.6880 N   0  0  0  0  0  0  0  0  0  0  0  0
  193.9620  174.9120  139.5350 C   0  0  0  0  0  3  0  0  0  0  0  0
  194.4200  173.2700  137.8710 N   0  0  0  0  0  0  0  0  0  0  0  0
  193.0290  175.1710  137.2910 N   0  0  0  0  0  2  0  0  0  0  0  0
  195.2920  172.9600  140.0690 C   0  0  0  0  0  3  0  0  0  0  0  0
  193.0060  174.8140  135.9070 C   0  0  0  0  0  0  0  0  0  0  0  0
  193.8320  174.4430  138.2290 C   0  0  0  0  0  0  0  0  0  0  0  0
  194.0350  174.9770  135.2040 O   0  0  0  0  0  0  0  0  0  0  0  0
  194.7020  174.1660  140.4570 C   0  0  0  0  0  3  0  0  0  0  0  0
  195.1440  172.5210  138.7550 C   0  0  0  0  0  0  0  0  0  0  0  0
  192.8900  169.9710  138.1220 C   0  0  0  0  0  3  0  0  0  0  0  0
  195.0600  169.0820  139.6630 C   0  0  1  0  0  3  0  0  0  0  0  0
  195.0810  170.5800  137.1790 N   0  0  0  0  0  2  0  0  0  0  0  0
  193.7290  169.4680  140.3360 C   0  0  0  0  0  2  0  0  0  0  0  0
  194.8240  168.4820  138.3560 N   0  0  0  0  0  2  0  0  0  0  0  0
  196.0350  170.2500  139.5430 C   0  0  0  0  0  2  0  0  0  0  0  0
  195.7230  171.1880  138.3650 C   0  0  2  0  0  3  0  0  0  0  0  0
  192.7400  169.9830  139.4020 N   0  0  0  0  0  0  0  0  0  0  0  0
  194.1680  169.4720  137.4950 C   0  0  1  0  0  3  0  0  0  0  0  0
  190.6970  174.8410  142.0490 N   0  0  0  0  0  2  0  0  0  0  0  0
  191.0620  177.9190  144.1070 C   0  0  0  0  0  2  0  0  0  0  0  0
  189.9110  174.5600  144.3350 C   0  0  0  0  0  2  0  0  0  0  0  0
  191.5150  176.5190  143.6730 C   0  0  2  0  0  3  0  0  0  0  0  0
  190.3650  175.5650  143.2690 C   0  0  1  0  0  3  0  0  0  0  0  0
  189.3920  175.1750  145.6000 C   0  0  0  0  0  0  0  0  0  0  0  0
  190.0620  177.8970  145.2520 C   0  0  0  0  0  2  0  0  0  0  0  0
  189.7160  174.6680  146.6650 O   0  0  0  0  0  0  0  0  0  0  0  0
  188.8240  177.4260  144.7920 O   0  0  0  0  0  0  0  0  0  0  0  0
  188.4130  176.3330  145.5910 C   0  0  2  0  0  3  0  0  0  0  0  0
  195.6160  173.9820  144.1150 O   0  0  0  0  0  0  0  0  0  0  0  0
  192.6300  175.9590  144.5200 C   0  0  0  0  0  0  0  0  0  0  0  0
  194.5090  174.3430  144.9190 C   0  0  1  0  0  0  0  0  0  0  0  0
  195.2140  171.7620  143.3230 C   0  0  0  0  0  2  0  0  0  0  0  0
  193.4500  175.0050  144.0490 C   0  0  0  0  0  3  0  0  0  0  0  0
  193.8350  176.0650  146.6400 C   0  0  0  0  0  3  0  0  0  0  0  0
  192.7510  176.3870  145.9250 C   0  0  0  0  0  3  0  0  0  0  0  0
  193.0630  172.2430  144.7000 C   0  0  0  0  0  2  0  0  0  0  0  0
  193.7780  171.3280  143.6860 C   0  0  0  0  0  2  0  0  0  0  0  0
  194.0070  173.0650  145.6130 C   0  0  1  0  0  3  0  0  0  0  0  0
  195.2970  172.3180  145.7540 C   0  0  0  0  0  2  0  0  0  0  0  0
  194.9910  175.3520  145.9850 C   0  0  0  0  0  2  0  0  0  0  0  0
  195.8930  172.6290  144.3970 C   0  0  2  0  0  3  0  0  0  0  0  0
  188.0910  176.7460  146.8870 O   0  0  0  0  0  0  0  0  0  0  0  0
  186.6970  176.7440  146.9280 C   0  0  0  0  0  1  0  0  0  0  0  0
  188.0240  176.3500  141.3110 C   0  0  0  0  0  2  0  0  0  0  0  0
  186.8940  176.1800  142.2200 N   0  0  0  0  0  2  0  0  0  0  0  0
  185.9990  177.3100  142.0240 C   0  0  2  0  0  3  0  0  0  0  0  0
  185.8430  177.5910  140.5430 C   0  0  0  0  0  2  0  0  0  0  0  0
  184.9530  178.6590  140.3700 O   0  0  0  0  0  1  0  0  0  0  0  0
  186.5290  178.5430  142.7430 C   0  0  0  0  0  2  0  0  0  0  0  0
  185.5960  178.9570  143.8380 C   0  0  0  0  0  0  0  0  0  0  0  0
  185.5670  180.1550  144.2320 O   0  0  0  0  0  0  0  0  0  0  0  0
  184.7510  178.0130  144.4110 O   0  0  0  0  0  1  0  0  0  0  0  0
  1  2  2  0  0  0  0
  2 33  1  0  0  0  0
  3  4  2  0  0  0  0
  4  2  1  0  0  0  0
  4 58  1  0  0  0  0
  5  1  1  0  0  0  0
  6  8  1  6  0  0  0
  6  3  1  0  0  0  0
  6  1  1  0  0  0  0
  7  8  2  0  0  0  0
  9  8  1  0  0  0  0
 10  9  1  1  0  0  0
 11 10  1  0  0  0  0
 12 11  1  0  0  0  0
 12 14  1  1  0  0  0
 12 10  1  0  0  0  0
 13 14  2  0  0  0  0
 13 19  1  0  0  0  0
 15 22  2  0  0  0  0
 16 20  2  0  0  0  0
 16 23  1  0  0  0  0
 17 20  1  0  0  0  0
 18 22  1  0  0  0  0
 19 17  1  0  0  0  0
 20 15  1  0  0  0  0
 21 19  2  0  0  0  0
 23 18  2  0  0  0  0
 24 31  2  0  0  0  0
 25 29  1  6  0  0  0
 25 27  1  0  0  0  0
 26 32  1  0  0  0  0
 26 30  1  0  0  0  0
 28 25  1  0  0  0  0
 30 23  1  1  0  0  0
 30 29  1  0  0  0  0
 31 27  1  0  0  0  0
 32 24  1  1  0  0  0
 32 28  1  0  0  0  0
 34 39  1  0  0  0  0
 35 38  1  0  0  0  0
 36 34  1  0  0  0  0
 36 44  1  1  0  0  0
 37 33  1  6  0  0  0
 37 36  1  0  0  0  0
 37 35  1  0  0  0  0
 38 40  2  0  0  0  0
 41 39  1  0  0  0  0
 41 42  1  0  0  0  0
 42 38  1  0  0  0  0
 42 56  1  1  0  0  0
 43 55  1  0  0  0  0
 43 45  1  0  0  0  0
 44 49  1  0  0  0  0
 45 47  1  6  0  0  0
 45 52  1  0  0  0  0
 45 54  1  0  0  0  0
 46 51  1  0  0  0  0
 47 44  2  0  0  0  0
 49 48  2  0  0  0  0
 51 50  1  0  0  0  0
 52 50  1  6  0  0  0
 52 53  1  0  0  0  0
 54 48  1  0  0  0  0
 55 46  1  6  0  0  0
 55 53  1  0  0  0  0
 56 57  1  0  0  0  0
 58 59  1  0  0  0  0
 60 61  1  6  0  0  0
 60 59  1  0  0  0  0
 60 63  1  0  0  0  0
 62 61  1  0  0  0  0
 63 64  1  0  0  0  0
 64 65  2  0  0  0  0
 64 66  1  0  0  0  0
M  END
>  <MODEL>
4

>  <REMARK>
 VINA RESULT:      -7.5      2.483      6.454
  Name = 
  16 active torsions:
  status: ('A' for Active; 'I' for Inactive)
    1  A    between atoms: CA_3  and  C_12
    2  A    between atoms: CA_3  and  CB_35
    3  A    between atoms: CA_3  and  N_49
    4  A    between atoms: C_7  and  C_11
    5  A    between atoms: C_7  and  C_20
    6  A    between atoms: C_8  and  N_49
    7  A    between atoms: C_8  and  C_51
    8  A    between atoms: O_13  and  C_60
    9  A    between atoms: C_16  and  C_17
   10  A    between atoms: C_18  and  N_52
   11  A    between atoms: C_20  and  C_66
   12  A    between atoms: C_21  and  N_41
   13  A    between atoms: CG_24  and  CB_35
   14  A    between atoms: C_42  and  N_52
   15  A    between atoms: C_48  and  N_50
   16  A    between atoms: C_61  and  C_63
                            x       y       z     vdW  Elec       q    Type
                         _______ _______ _______ _____ _____    ______ ____

>  <TORSDO>
F 16

$$$$
=
 OpenBabel11042416183D

 66 74  0  0  1  0  0  0  0  0999 V2000
  190.2620  172.3560  142.1070 C   0  0  0  0  0  0  0  0  0  0  0  0
  189.5150  173.3860  141.7450 C   0  0  0  0  0  0  0  0  0  0  0  0
  189.7620  172.1470  139.8590 N   0  0  0  0  0  0  0  0  0  0  0  0
  189.2270  173.2270  140.3340 C   0  0  0  0  0  0  0  0  0  0  0  0
  190.7790  172.1370  143.3800 O   0  0  0  0  0  1  0  0  0  0  0  0
  190.4500  171.4400  140.9370 C   0  0  1  0  0  3  0  0  0  0  0  0
  192.6940  172.1380  140.5740 O   0  0  0  0  0  0  0  0  0  0  0  0
  191.9110  171.2020  140.6230 C   0  0  0  0  0  0  0  0  0  0  0  0
  192.4230  169.8100  140.3730 C   0  0  0  0  0  2  0  0  0  0  0  0
  192.2780  169.4490  138.8980 C   0  0  2  0  0  3  0  0  0  0  0  0
  193.0480  168.1660  138.6370 C   0  0  0  0  0  2  0  0  0  0  0  0
  193.5710  169.4680  138.0700 C   0  0  2  0  0  3  0  0  0  0  0  0
  195.3500  170.9650  138.5010 N   0  0  0  0  0  0  0  0  0  0  0  0
  194.7310  169.9000  138.8360 N   0  0  0  0  0  0  0  0  0  0  0  0
  197.3580  174.7920  140.4630 C   0  0  0  0  0  3  0  0  0  0  0  0
  196.1350  173.0190  141.4780 N   0  0  0  0  0  0  0  0  0  0  0  0
  196.9400  172.7380  139.2070 N   0  0  0  0  0  2  0  0  0  0  0  0
  196.4750  175.0360  142.7040 C   0  0  0  0  0  3  0  0  0  0  0  0
  196.5490  171.3630  139.1710 C   0  0  0  0  0  0  0  0  0  0  0  0
  196.8200  173.5080  140.4100 C   0  0  0  0  0  0  0  0  0  0  0  0
  197.2040  170.5110  139.8210 O   0  0  0  0  0  0  0  0  0  0  0  0
  197.1870  175.5570  141.6200 C   0  0  0  0  0  3  0  0  0  0  0  0
  195.9500  173.7480  142.6190 C   0  0  0  0  0  0  0  0  0  0  0  0
  197.5910  171.7760  144.9420 C   0  0  0  0  0  3  0  0  0  0  0  0
  195.0880  170.7090  144.2550 C   0  0  1  0  0  3  0  0  0  0  0  0
  195.7530  173.4060  145.0880 N   0  0  0  0  0  2  0  0  0  0  0  0
  196.3720  170.1830  143.5870 C   0  0  0  0  0  2  0  0  0  0  0  0
  195.3430  171.0870  145.6400 N   0  0  0  0  0  2  0  0  0  0  0  0
  194.4460  171.8680  143.4980 C   0  0  0  0  0  2  0  0  0  0  0  0
  195.1250  173.2220  143.7620 C   0  0  2  0  0  3  0  0  0  0  0  0
  197.5700  170.9000  143.9970 N   0  0  0  0  0  0  0  0  0  0  0  0
  196.3250  172.1770  145.6570 C   0  0  1  0  0  3  0  0  0  0  0  0
  189.0900  174.4850  142.5690 N   0  0  0  0  0  2  0  0  0  0  0  0
  190.1940  174.6740  146.1170 C   0  0  0  0  0  2  0  0  0  0  0  0
  190.3360  176.5130  143.0740 C   0  0  0  0  0  2  0  0  0  0  0  0
  189.2560  175.0660  144.9680 C   0  0  2  0  0  3  0  0  0  0  0  0
  189.9290  175.1220  143.5750 C   0  0  1  0  0  3  0  0  0  0  0  0
  191.3270  177.2300  143.9410 C   0  0  0  0  0  0  0  0  0  0  0  0
  191.4100  175.5790  146.2320 C   0  0  0  0  0  2  0  0  0  0  0  0
  191.1640  178.4260  144.1400 O   0  0  0  0  0  0  0  0  0  0  0  0
  192.2900  175.3310  145.1690 O   0  0  0  0  0  0  0  0  0  0  0  0
  192.5620  176.5430  144.4930 C   0  0  2  0  0  3  0  0  0  0  0  0
  184.9530  177.2360  144.4950 O   0  0  0  0  0  0  0  0  0  0  0  0
  188.2920  176.1680  145.3300 C   0  0  0  0  0  0  0  0  0  0  0  0
  186.2740  177.5850  144.8620 C   0  0  1  0  0  0  0  0  0  0  0  0
  184.6730  177.8560  142.2030 C   0  0  0  0  0  2  0  0  0  0  0  0
  187.2010  176.4090  144.5850 C   0  0  0  0  0  3  0  0  0  0  0  0
  187.6960  177.9200  146.9220 C   0  0  0  0  0  3  0  0  0  0  0  0
  188.6140  177.0650  146.4540 C   0  0  0  0  0  3  0  0  0  0  0  0
  187.1490  178.5130  142.6430 C   0  0  0  0  0  2  0  0  0  0  0  0
  186.0300  178.2850  141.6060 C   0  0  0  0  0  2  0  0  0  0  0  0
  186.6520  178.8500  144.0710 C   0  0  1  0  0  3  0  0  0  0  0  0
  185.3090  179.5050  143.9640 C   0  0  0  0  0  2  0  0  0  0  0  0
  186.2920  177.9000  146.3740 C   0  0  0  0  0  2  0  0  0  0  0  0
  184.4760  178.2740  143.6700 C   0  0  2  0  0  3  0  0  0  0  0  0
  193.3210  177.4070  145.2870 O   0  0  0  0  0  0  0  0  0  0  0  0
  194.6160  176.8910  145.2410 C   0  0  0  0  0  1  0  0  0  0  0  0
  188.4900  174.2090  139.4820 C   0  0  0  0  0  2  0  0  0  0  0  0
  188.1240  173.6180  138.1980 N   0  0  0  0  0  2  0  0  0  0  0  0
  188.8040  174.3730  137.1570 C   0  0  2  0  0  3  0  0  0  0  0  0
  187.8030  175.2260  136.4050 C   0  0  0  0  0  2  0  0  0  0  0  0
  188.4940  176.1500  135.6100 O   0  0  0  0  0  1  0  0  0  0  0  0
  189.5250  173.4340  136.2000 C   0  0  0  0  0  2  0  0  0  0  0  0
  190.9990  173.4500  136.4560 C   0  0  0  0  0  0  0  0  0  0  0  0
  191.7910  172.8730  135.6610 O   0  0  0  0  0  0  0  0  0  0  0  0
  191.4930  174.1130  137.5740 O   0  0  0  0  0  1  0  0  0  0  0  0
  1  5  1  0  0  0  0
  2  1  2  0  0  0  0
  2 33  1  0  0  0  0
  3  4  2  0  0  0  0
  3  6  1  0  0  0  0
  4  2  1  0  0  0  0
  6  8  1  6  0  0  0
  6  1  1  0  0  0  0
  7  8  2  0  0  0  0
  9  8  1  0  0  0  0
 10  9  1  1  0  0  0
 11 10  1  0  0  0  0
 12 11  1  0  0  0  0
 12 14  1  1  0  0  0
 12 10  1  0  0  0  0
 13 14  2  0  0  0  0
 13 19  1  0  0  0  0
 15 22  2  0  0  0  0
 16 23  1  0  0  0  0
 17 20  1  0  0  0  0
 19 17  1  0  0  0  0
 19 21  2  0  0  0  0
 20 15  1  0  0  0  0
 20 16  2  0  0  0  0
 22 18  1  0  0  0  0
 23 18  2  0  0  0  0
 25 29  1  6  0  0  0
 25 28  1  0  0  0  0
 26 32  1  0  0  0  0
 27 31  1  0  0  0  0
 27 25  1  0  0  0  0
 28 32  1  0  0  0  0
 29 30  1  0  0  0  0
 30 23  1  6  0  0  0
 30 26  1  0  0  0  0
 31 24  2  0  0  0  0
 32 24  1  6  0  0  0
 34 39  1  0  0  0  0
 35 37  1  0  0  0  0
 35 38  1  0  0  0  0
 36 44  1  1  0  0  0
 36 34  1  0  0  0  0
 37 33  1  6  0  0  0
 37 36  1  0  0  0  0
 38 40  2  0  0  0  0
 38 42  1  0  0  0  0
 41 39  1  0  0  0  0
 42 41  1  0  0  0  0
 42 56  1  1  0  0  0
 43 45  1  0  0  0  0
 44 49  1  0  0  0  0
 45 47  1  6  0  0  0
 45 54  1  0  0  0  0
 47 44  2  0  0  0  0
 49 48  2  0  0  0  0
 51 46  1  0  0  0  0
 51 50  1  0  0  0  0
 52 50  1  6  0  0  0
 52 45  1  0  0  0  0
 53 52  1  0  0  0  0
 54 48  1  0  0  0  0
 55 46  1  6  0  0  0
 55 53  1  0  0  0  0
 55 43  1  0  0  0  0
 57 56  1  0  0  0  0
 58  4  1  0  0  0  0
 59 58  1  0  0  0  0
 60 63  1  6  0  0  0
 60 59  1  0  0  0  0
 61 60  1  0  0  0  0
 62 61  1  0  0  0  0
 63 64  1  0  0  0  0
 64 66  1  0  0  0  0
 65 64  2  0  0  0  0
M  END
>  <MODEL>
5

>  <REMARK>
 VINA RESULT:      -7.5      1.364      2.012
  Name = 
  16 active torsions:
  status: ('A' for Active; 'I' for Inactive)
    1  A    between atoms: CA_3  and  C_12
    2  A    between atoms: CA_3  and  CB_35
    3  A    between atoms: CA_3  and  N_49
    4  A    between atoms: C_7  and  C_11
    5  A    between atoms: C_7  and  C_20
    6  A    between atoms: C_8  and  N_49
    7  A    between atoms: C_8  and  C_51
    8  A    between atoms: O_13  and  C_60
    9  A    between atoms: C_16  and  C_17
   10  A    between atoms: C_18  and  N_52
   11  A    between atoms: C_20  and  C_66
   12  A    between atoms: C_21  and  N_41
   13  A    between atoms: CG_24  and  CB_35
   14  A    between atoms: C_42  and  N_52
   15  A    between atoms: C_48  and  N_50
   16  A    between atoms: C_61  and  C_63
                            x       y       z     vdW  Elec       q    Type
                         _______ _______ _______ _____ _____    ______ ____

>  <TORSDO>
F 16

$$$$
=
 OpenBabel11042416183D

 66 74  0  0  1  0  0  0  0  0999 V2000
  189.6650  173.1070  140.7540 C   0  0  0  0  0  0  0  0  0  0  0  0
  189.5660  174.1720  141.5330 C   0  0  0  0  0  0  0  0  0  0  0  0
  187.8970  174.3990  140.0100 N   0  0  0  0  0  0  0  0  0  0  0  0
  188.4550  174.9600  141.0360 C   0  0  0  0  0  0  0  0  0  0  0  0
  190.6200  172.1030  140.8730 O   0  0  0  0  0  1  0  0  0  0  0  0
  188.5700  173.1320  139.7320 C   0  0  1  0  0  3  0  0  0  0  0  0
  188.4920  173.5910  137.4000 O   0  0  0  0  0  0  0  0  0  0  0  0
  189.1040  173.0680  138.3180 C   0  0  0  0  0  0  0  0  0  0  0  0
  190.4010  172.3640  138.0210 C   0  0  0  0  0  2  0  0  0  0  0  0
  190.1450  171.1130  137.1860 C   0  0  2  0  0  3  0  0  0  0  0  0
  189.6930  169.9980  138.1130 C   0  0  0  0  0  2  0  0  0  0  0  0
  191.0610  169.9150  137.4710 C   0  0  2  0  0  3  0  0  0  0  0  0
  192.3900  169.3170  139.3330 N   0  0  0  0  0  0  0  0  0  0  0  0
  192.0830  170.2030  138.4660 N   0  0  0  0  0  0  0  0  0  0  0  0
  196.9810  170.3200  139.9990 C   0  0  0  0  0  3  0  0  0  0  0  0
  195.1070  171.7790  139.8360 N   0  0  0  0  0  0  0  0  0  0  0  0
  194.7210  169.4110  140.1870 N   0  0  0  0  0  2  0  0  0  0  0  0
  197.3000  172.6840  139.5870 C   0  0  0  0  0  3  0  0  0  0  0  0
  193.3180  169.6030  140.3830 C   0  0  0  0  0  0  0  0  0  0  0  0
  195.6030  170.5280  140.0240 C   0  0  0  0  0  0  0  0  0  0  0  0
  192.9030  170.1280  141.4460 O   0  0  0  0  0  0  0  0  0  0  0  0
  197.8320  171.4080  139.7840 C   0  0  0  0  0  3  0  0  0  0  0  0
  195.9170  172.8580  139.6190 C   0  0  0  0  0  0  0  0  0  0  0  0
  193.8930  173.1530  136.8270 C   0  0  0  0  0  3  0  0  0  0  0  0
  195.6950  175.2940  137.0360 C   0  0  1  0  0  3  0  0  0  0  0  0
  193.9000  174.2200  139.0450 N   0  0  0  0  0  2  0  0  0  0  0  0
  196.0050  174.0980  136.1160 C   0  0  0  0  0  2  0  0  0  0  0  0
  194.2630  175.5650  137.0680 N   0  0  0  0  0  2  0  0  0  0  0  0
  196.2340  175.1190  138.4530 C   0  0  0  0  0  2  0  0  0  0  0  0
  195.3500  174.2230  139.3370 C   0  0  2  0  0  3  0  0  0  0  0  0
  195.0070  173.0420  136.1890 N   0  0  0  0  0  0  0  0  0  0  0  0
  193.5750  174.3940  137.6230 C   0  0  1  0  0  3  0  0  0  0  0  0
  190.4100  174.5200  142.6430 N   0  0  0  0  0  2  0  0  0  0  0  0
  190.2980  177.8980  144.1970 C   0  0  0  0  0  2  0  0  0  0  0  0
  189.7380  174.4730  144.9820 C   0  0  0  0  0  2  0  0  0  0  0  0
  190.9710  176.5410  143.9550 C   0  0  2  0  0  3  0  0  0  0  0  0
  189.9890  175.3600  143.7560 C   0  0  1  0  0  3  0  0  0  0  0  0
  189.1530  175.1840  146.1650 C   0  0  0  0  0  0  0  0  0  0  0  0
  189.3440  177.8910  145.3800 C   0  0  0  0  0  2  0  0  0  0  0  0
  189.5840  174.9100  147.2760 O   0  0  0  0  0  0  0  0  0  0  0  0
  188.1930  177.1580  145.0590 O   0  0  0  0  0  0  0  0  0  0  0  0
  187.9920  176.1510  146.0320 C   0  0  2  0  0  3  0  0  0  0  0  0
  195.7340  175.8150  144.4380 O   0  0  0  0  0  0  0  0  0  0  0  0
  192.1850  176.3100  144.8190 C   0  0  0  0  0  0  0  0  0  0  0  0
  194.5480  175.5320  145.1540 C   0  0  1  0  0  0  0  0  0  0  0  0
  196.3170  173.8340  143.2330 C   0  0  0  0  0  2  0  0  0  0  0  0
  193.3430  175.8810  144.2910 C   0  0  0  0  0  3  0  0  0  0  0  0
  193.1570  176.4470  147.0540 C   0  0  0  0  0  3  0  0  0  0  0  0
  192.0650  176.4510  146.2810 C   0  0  0  0  0  3  0  0  0  0  0  0
  194.1090  173.1240  144.4060 C   0  0  0  0  0  2  0  0  0  0  0  0
  195.1770  172.7990  143.3420 C   0  0  0  0  0  2  0  0  0  0  0  0
  194.5940  174.0460  145.5530 C   0  0  1  0  0  3  0  0  0  0  0  0
  196.0710  173.8630  145.7160 C   0  0  0  0  0  2  0  0  0  0  0  0
  194.5280  176.4050  146.4280 C   0  0  0  0  0  2  0  0  0  0  0  0
  196.5360  174.6580  144.5130 C   0  0  2  0  0  3  0  0  0  0  0  0
  187.6360  176.7020  147.2660 O   0  0  0  0  0  0  0  0  0  0  0  0
  186.2430  176.7580  147.2460 C   0  0  0  0  0  1  0  0  0  0  0  0
  188.0390  176.2980  141.5550 C   0  0  0  0  0  2  0  0  0  0  0  0
  186.7930  176.2030  142.3100 N   0  0  0  0  0  2  0  0  0  0  0  0
  185.9770  177.3550  141.9590 C   0  0  2  0  0  3  0  0  0  0  0  0
  185.9880  177.5530  140.4560 C   0  0  0  0  0  2  0  0  0  0  0  0
  185.0900  178.5750  140.1220 O   0  0  0  0  0  1  0  0  0  0  0  0
  186.4880  178.6050  142.6610 C   0  0  0  0  0  2  0  0  0  0  0  0
  185.5430  179.0250  143.7430 C   0  0  0  0  0  0  0  0  0  0  0  0
  185.5370  180.2160  144.1570 O   0  0  0  0  0  0  0  0  0  0  0  0
  184.6640  178.0940  144.2840 O   0  0  0  0  0  1  0  0  0  0  0  0
  1  5  1  0  0  0  0
  1  2  2  0  0  0  0
  2 33  1  0  0  0  0
  3  4  2  0  0  0  0
  4  2  1  0  0  0  0
  4 58  1  0  0  0  0
  6  8  1  6  0  0  0
  6  3  1  0  0  0  0
  6  1  1  0  0  0  0
  7  8  2  0  0  0  0
  9  8  1  0  0  0  0
 10 12  1  0  0  0  0
 10  9  1  1  0  0  0
 10 11  1  0  0  0  0
 12 11  1  0  0  0  0
 12 14  1  1  0  0  0
 13 19  1  0  0  0  0
 14 13  2  0  0  0  0
 15 20  1  0  0  0  0
 16 20  2  0  0  0  0
 17 19  1  0  0  0  0
 18 23  2  0  0  0  0
 18 22  1  0  0  0  0
 19 21  2  0  0  0  0
 20 17  1  0  0  0  0
 22 15  2  0  0  0  0
 23 16  1  0  0  0  0
 25 27  1  6  0  0  0
 25 28  1  0  0  0  0
 25 29  1  0  0  0  0
 26 30  1  0  0  0  0
 27 31  1  0  0  0  0
 28 32  1  0  0  0  0
 29 30  1  0  0  0  0
 30 23  1  6  0  0  0
 31 24  2  0  0  0  0
 32 24  1  6  0  0  0
 32 26  1  0  0  0  0
 34 39  1  0  0  0  0
 35 38  1  0  0  0  0
 36 34  1  0  0  0  0
 36 44  1  1  0  0  0
 37 33  1  6  0  0  0
 37 36  1  0  0  0  0
 37 35  1  0  0  0  0
 38 40  2  0  0  0  0
 41 39  1  0  0  0  0
 41 42  1  0  0  0  0
 42 38  1  0  0  0  0
 42 56  1  1  0  0  0
 43 55  1  0  0  0  0
 43 45  1  0  0  0  0
 44 49  1  0  0  0  0
 45 47  1  6  0  0  0
 45 52  1  0  0  0  0
 45 54  1  0  0  0  0
 46 51  1  0  0  0  0
 47 44  2  0  0  0  0
 49 48  2  0  0  0  0
 51 50  1  0  0  0  0
 52 50  1  6  0  0  0
 52 53  1  0  0  0  0
 54 48  1  0  0  0  0
 55 46  1  6  0  0  0
 55 53  1  0  0  0  0
 57 56  1  0  0  0  0
 58 59  1  0  0  0  0
 60 61  1  6  0  0  0
 60 59  1  0  0  0  0
 60 63  1  0  0  0  0
 62 61  1  0  0  0  0
 63 64  1  0  0  0  0
 64 65  2  0  0  0  0
 64 66  1  0  0  0  0
M  END
>  <MODEL>
6

>  <REMARK>
 VINA RESULT:      -7.5      2.238      6.608
  Name = 
  16 active torsions:
  status: ('A' for Active; 'I' for Inactive)
    1  A    between atoms: CA_3  and  C_12
    2  A    between atoms: CA_3  and  CB_35
    3  A    between atoms: CA_3  and  N_49
    4  A    between atoms: C_7  and  C_11
    5  A    between atoms: C_7  and  C_20
    6  A    between atoms: C_8  and  N_49
    7  A    between atoms: C_8  and  C_51
    8  A    between atoms: O_13  and  C_60
    9  A    between atoms: C_16  and  C_17
   10  A    between atoms: C_18  and  N_52
   11  A    between atoms: C_20  and  C_66
   12  A    between atoms: C_21  and  N_41
   13  A    between atoms: CG_24  and  CB_35
   14  A    between atoms: C_42  and  N_52
   15  A    between atoms: C_48  and  N_50
   16  A    between atoms: C_61  and  C_63
                            x       y       z     vdW  Elec       q    Type
                         _______ _______ _______ _____ _____    ______ ____

>  <TORSDO>
F 16

$$$$
=
 OpenBabel11042416183D

 66 74  0  0  1  0  0  0  0  0999 V2000
  192.1250  170.6640  142.9080 C   0  0  0  0  0  0  0  0  0  0  0  0
  193.2990  171.2030  142.6190 C   0  0  0  0  0  0  0  0  0  0  0  0
  192.5940  172.2900  144.4830 N   0  0  0  0  0  0  0  0  0  0  0  0
  193.5560  172.2190  143.6200 C   0  0  0  0  0  0  0  0  0  0  0  0
  191.4920  169.6620  142.1780 O   0  0  0  0  0  1  0  0  0  0  0  0
  191.5860  171.2820  144.1610 C   0  0  1  0  0  3  0  0  0  0  0  0
  189.2820  171.5670  144.6770 O   0  0  0  0  0  0  0  0  0  0  0  0
  190.2150  171.8890  143.9580 C   0  0  0  0  0  0  0  0  0  0  0  0
  189.9810  172.9030  142.8710 C   0  0  0  0  0  2  0  0  0  0  0  0
  189.2520  172.2600  141.6950 C   0  0  2  0  0  3  0  0  0  0  0  0
  189.4810  173.1150  140.4600 C   0  0  0  0  0  2  0  0  0  0  0  0
  188.1040  173.0770  141.0860 C   0  0  2  0  0  3  0  0  0  0  0  0
  187.8880  175.4310  141.1520 N   0  0  0  0  0  0  0  0  0  0  0  0
  187.8570  174.3260  141.7920 N   0  0  0  0  0  0  0  0  0  0  0  0
  185.3300  177.4670  144.5920 C   0  0  0  0  0  3  0  0  0  0  0  0
  187.4890  176.4660  144.6820 N   0  0  0  0  0  0  0  0  0  0  0  0
  186.5350  177.0040  142.5180 N   0  0  0  0  0  2  0  0  0  0  0  0
  186.3090  176.8500  146.7190 C   0  0  0  0  0  3  0  0  0  0  0  0
  187.7470  176.6810  141.8320 C   0  0  0  0  0  0  0  0  0  0  0  0
  186.4710  176.9910  143.9490 C   0  0  0  0  0  0  0  0  0  0  0  0
  188.7360  177.4520  141.9160 O   0  0  0  0  0  0  0  0  0  0  0  0
  185.2530  177.3990  145.9870 C   0  0  0  0  0  3  0  0  0  0  0  0
  187.4370  176.3850  146.0450 C   0  0  0  0  0  0  0  0  0  0  0  0
  190.5550  177.8780  145.8960 C   0  0  0  0  0  3  0  0  0  0  0  0
  190.7280  175.0870  145.6760 C   0  0  1  0  0  3  0  0  0  0  0  0
  189.3260  176.6750  147.6570 N   0  0  0  0  0  2  0  0  0  0  0  0
  190.7530  175.9730  144.4170 C   0  0  0  0  0  2  0  0  0  0  0  0
  191.3890  175.7530  146.7920 N   0  0  0  0  0  2  0  0  0  0  0  0
  189.3220  174.6480  146.0770 C   0  0  0  0  0  2  0  0  0  0  0  0
  188.5370  175.7320  146.8360 C   0  0  2  0  0  3  0  0  0  0  0  0
  190.5720  177.3870  144.7050 N   0  0  0  0  0  0  0  0  0  0  0  0
  190.6540  176.9840  147.1060 C   0  0  1  0  0  3  0  0  0  0  0  0
  194.1540  170.8830  141.5090 N   0  0  0  0  0  2  0  0  0  0  0  0
  193.2670  173.9800  139.6490 C   0  0  0  0  0  2  0  0  0  0  0  0
  195.2810  171.0600  139.3590 C   0  0  0  0  0  2  0  0  0  0  0  0
  193.1450  172.4720  139.9040 C   0  0  2  0  0  3  0  0  0  0  0  0
  194.4420  171.7960  140.4120 C   0  0  1  0  0  3  0  0  0  0  0  0
  195.7820  171.9210  138.2390 C   0  0  0  0  0  0  0  0  0  0  0  0
  194.3790  174.3340  138.6750 C   0  0  0  0  0  2  0  0  0  0  0  0
  195.7450  171.4710  137.1020 O   0  0  0  0  0  0  0  0  0  0  0  0
  195.6260  174.1390  139.2860 O   0  0  0  0  0  0  0  0  0  0  0  0
  196.4110  173.2790  138.4840 C   0  0  2  0  0  3  0  0  0  0  0  0
  191.7080  171.9300  135.3130 O   0  0  0  0  0  0  0  0  0  0  0  0
  192.3380  171.7490  138.8560 C   0  0  0  0  0  0  0  0  0  0  0  0
  191.2250  171.6330  136.6090 C   0  0  1  0  0  0  0  0  0  0  0  0
  190.6460  173.9560  134.6140 C   0  0  0  0  0  2  0  0  0  0  0  0
  192.1290  172.2880  137.6440 C   0  0  0  0  0  3  0  0  0  0  0  0
  191.1200  169.7200  138.2540 C   0  0  0  0  0  3  0  0  0  0  0  0
  191.6740  170.4800  139.2060 C   0  0  0  0  0  3  0  0  0  0  0  0
  189.6840  173.6370  137.0070 C   0  0  0  0  0  2  0  0  0  0  0  0
  189.8640  174.5710  135.7930 C   0  0  0  0  0  2  0  0  0  0  0  0
  189.7690  172.1250  136.6820 C   0  0  1  0  0  3  0  0  0  0  0  0
  189.3510  171.9230  135.2580 C   0  0  0  0  0  2  0  0  0  0  0  0
  191.2610  170.1010  136.8020 C   0  0  0  0  0  2  0  0  0  0  0  0
  190.6090  172.4190  134.5760 C   0  0  2  0  0  3  0  0  0  0  0  0
  196.7820  173.8990  137.2870 O   0  0  0  0  0  0  0  0  0  0  0  0
  197.6080  174.9550  137.6710 C   0  0  0  0  0  1  0  0  0  0  0  0
  194.7270  173.1480  143.6320 C   0  0  0  0  0  2  0  0  0  0  0  0
  194.6200  174.1110  144.7250 N   0  0  0  0  0  2  0  0  0  0  0  0
  195.2020  175.3620  144.2660 C   0  0  2  0  0  3  0  0  0  0  0  0
  194.2260  176.4980  144.5000 C   0  0  0  0  0  2  0  0  0  0  0  0
  194.4400  177.0300  145.7790 O   0  0  0  0  0  1  0  0  0  0  0  0
  195.5660  175.2730  142.7910 C   0  0  0  0  0  2  0  0  0  0  0  0
  196.3100  176.4970  142.3570 C   0  0  0  0  0  0  0  0  0  0  0  0
  196.0070  177.0790  141.2790 O   0  0  0  0  0  0  0  0  0  0  0  0
  197.3330  176.9950  143.1550 O   0  0  0  0  0  1  0  0  0  0  0  0
  1  6  1  0  0  0  0
  2  1  2  0  0  0  0
  2  4  1  0  0  0  0
  4 58  1  0  0  0  0
  4  3  2  0  0  0  0
  5  1  1  0  0  0  0
  6  8  1  6  0  0  0
  6  3  1  0  0  0  0
  8  7  2  0  0  0  0
  9  8  1  0  0  0  0
 10  9  1  1  0  0  0
 11 12  1  0  0  0  0
 11 10  1  0  0  0  0
 12 10  1  0  0  0  0
 12 14  1  1  0  0  0
 13 14  2  0  0  0  0
 13 19  1  0  0  0  0
 15 22  2  0  0  0  0
 16 23  1  0  0  0  0
 17 20  1  0  0  0  0
 19 21  2  0  0  0  0
 19 17  1  0  0  0  0
 20 15  1  0  0  0  0
 20 16  2  0  0  0  0
 22 18  1  0  0  0  0
 23 18  2  0  0  0  0
 25 27  1  6  0  0  0
 25 29  1  0  0  0  0
 25 28  1  0  0  0  0
 27 31  1  0  0  0  0
 28 32  1  0  0  0  0
 29 30  1  0  0  0  0
 30 23  1  6  0  0  0
 30 26  1  0  0  0  0
 31 24  2  0  0  0  0
 32 24  1  6  0  0  0
 32 26  1  0  0  0  0
 33  2  1  0  0  0  0
 34 36  1  0  0  0  0
 35 37  1  0  0  0  0
 36 44  1  6  0  0  0
 36 37  1  0  0  0  0
 37 33  1  1  0  0  0
 38 42  1  0  0  0  0
 38 35  1  0  0  0  0
 39 41  1  0  0  0  0
 39 34  1  0  0  0  0
 40 38  2  0  0  0  0
 42 56  1  6  0  0  0
 42 41  1  0  0  0  0
 43 45  1  0  0  0  0
 44 49  1  0  0  0  0
 45 52  1  0  0  0  0
 45 54  1  1  0  0  0
 45 47  1  0  0  0  0
 46 51  1  0  0  0  0
 47 44  2  0  0  0  0
 48 49  2  0  0  0  0
 51 50  1  0  0  0  0
 52 53  1  6  0  0  0
 52 50  1  0  0  0  0
 54 48  1  0  0  0  0
 55 46  1  1  0  0  0
 55 53  1  0  0  0  0
 55 43  1  0  0  0  0
 56 57  1  0  0  0  0
 58 59  1  0  0  0  0
 60 63  1  6  0  0  0
 60 61  1  0  0  0  0
 60 59  1  0  0  0  0
 61 62  1  0  0  0  0
 64 63  1  0  0  0  0
 64 66  1  0  0  0  0
 65 64  2  0  0  0  0
M  END
>  <MODEL>
7

>  <REMARK>
 VINA RESULT:      -7.4      2.344      8.897
  Name = 
  16 active torsions:
  status: ('A' for Active; 'I' for Inactive)
    1  A    between atoms: CA_3  and  C_12
    2  A    between atoms: CA_3  and  CB_35
    3  A    between atoms: CA_3  and  N_49
    4  A    between atoms: C_7  and  C_11
    5  A    between atoms: C_7  and  C_20
    6  A    between atoms: C_8  and  N_49
    7  A    between atoms: C_8  and  C_51
    8  A    between atoms: O_13  and  C_60
    9  A    between atoms: C_16  and  C_17
   10  A    between atoms: C_18  and  N_52
   11  A    between atoms: C_20  and  C_66
   12  A    between atoms: C_21  and  N_41
   13  A    between atoms: CG_24  and  CB_35
   14  A    between atoms: C_42  and  N_52
   15  A    between atoms: C_48  and  N_50
   16  A    between atoms: C_61  and  C_63
                            x       y       z     vdW  Elec       q    Type
                         _______ _______ _______ _____ _____    ______ ____

>  <TORSDO>
F 16

$$$$
=
 OpenBabel11042416183D

 66 74  0  0  1  0  0  0  0  0999 V2000
  190.3590  171.8490  142.2790 C   0  0  0  0  0  0  0  0  0  0  0  0
  189.5340  172.8490  142.0120 C   0  0  0  0  0  0  0  0  0  0  0  0
  190.1380  172.0250  139.9840 N   0  0  0  0  0  0  0  0  0  0  0  0
  189.4250  172.9340  140.5690 C   0  0  0  0  0  0  0  0  0  0  0  0
  190.7560  171.4440  143.5500 O   0  0  0  0  0  1  0  0  0  0  0  0
  190.7860  171.1970  141.0000 C   0  0  1  0  0  3  0  0  0  0  0  0
  192.9030  170.1190  140.9150 O   0  0  0  0  0  0  0  0  0  0  0  0
  192.2900  171.1730  140.8430 C   0  0  0  0  0  0  0  0  0  0  0  0
  193.0540  172.4440  140.5890 C   0  0  0  0  0  2  0  0  0  0  0  0
  193.5630  172.4770  139.1510 C   0  0  2  0  0  3  0  0  0  0  0  0
  195.0690  172.6770  139.1760 C   0  0  0  0  0  2  0  0  0  0  0  0
  194.1830  173.8030  138.6870 C   0  0  2  0  0  3  0  0  0  0  0  0
  195.1880  175.4500  140.0540 N   0  0  0  0  0  0  0  0  0  0  0  0
  194.1200  174.8460  139.7000 N   0  0  0  0  0  0  0  0  0  0  0  0
  193.3700  176.1020  144.3890 C   0  0  0  0  0  3  0  0  0  0  0  0
  195.5120  175.2930  143.7370 N   0  0  0  0  0  0  0  0  0  0  0  0
  194.1280  176.4070  142.0860 N   0  0  0  0  0  2  0  0  0  0  0  0
  194.7720  174.9270  145.9740 C   0  0  0  0  0  3  0  0  0  0  0  0
  195.1770  176.4090  141.1140 C   0  0  0  0  0  0  0  0  0  0  0  0
  194.3600  175.9410  143.4210 C   0  0  0  0  0  0  0  0  0  0  0  0
  196.1530  177.1880  141.2520 O   0  0  0  0  0  0  0  0  0  0  0  0
  193.5830  175.5950  145.6740 C   0  0  0  0  0  3  0  0  0  0  0  0
  195.7430  174.7840  144.9840 C   0  0  0  0  0  0  0  0  0  0  0  0
  196.3400  171.9740  143.0540 C   0  0  0  0  0  3  0  0  0  0  0  0
  196.8330  171.4910  145.7740 C   0  0  1  0  0  3  0  0  0  0  0  0
  197.7950  173.6590  144.1040 N   0  0  0  0  0  2  0  0  0  0  0  0
  195.4930  171.0780  145.1370 C   0  0  0  0  0  2  0  0  0  0  0  0
  197.9250  171.3510  144.8180 N   0  0  0  0  0  2  0  0  0  0  0  0
  196.8140  172.9020  146.3560 C   0  0  0  0  0  2  0  0  0  0  0  0
  196.9900  174.0020  145.2960 C   0  0  2  0  0  3  0  0  0  0  0  0
  195.3720  171.4750  143.7420 N   0  0  0  0  0  0  0  0  0  0  0  0
  197.6800  172.2540  143.6880 C   0  0  1  0  0  3  0  0  0  0  0  0
  188.8890  173.7210  142.9550 N   0  0  0  0  0  2  0  0  0  0  0  0
  189.7010  177.3460  142.7630 C   0  0  0  0  0  2  0  0  0  0  0  0
  186.9190  175.1280  142.7010 C   0  0  0  0  0  2  0  0  0  0  0  0
  189.2040  176.1080  143.5210 C   0  0  2  0  0  3  0  0  0  0  0  0
  188.4520  175.0750  142.6460 C   0  0  1  0  0  3  0  0  0  0  0  0
  186.3180  176.4260  142.2560 C   0  0  0  0  0  0  0  0  0  0  0  0
  188.5930  178.0850  142.0310 C   0  0  0  0  0  2  0  0  0  0  0  0
  185.3780  176.8780  142.8960 O   0  0  0  0  0  0  0  0  0  0  0  0
  188.1720  177.3360  140.9240 O   0  0  0  0  0  0  0  0  0  0  0  0
  186.7740  177.1380  140.9960 C   0  0  2  0  0  3  0  0  0  0  0  0
  185.4260  176.6210  146.5060 O   0  0  0  0  0  0  0  0  0  0  0  0
  188.6370  176.4250  144.8820 C   0  0  0  0  0  0  0  0  0  0  0  0
  186.7490  177.1070  146.3890 C   0  0  1  0  0  0  0  0  0  0  0  0
  183.9790  178.2980  145.6030 C   0  0  0  0  0  2  0  0  0  0  0  0
  187.3280  176.6740  145.0490 C   0  0  0  0  0  3  0  0  0  0  0  0
  189.0720  176.6570  147.2720 C   0  0  0  0  0  3  0  0  0  0  0  0
  189.5530  176.5730  146.0260 C   0  0  0  0  0  3  0  0  0  0  0  0
  186.3260  179.3510  145.2320 C   0  0  0  0  0  2  0  0  0  0  0  0
  184.8160  179.4020  144.9230 C   0  0  0  0  0  2  0  0  0  0  0  0
  186.6950  178.6360  146.5560 C   0  0  1  0  0  3  0  0  0  0  0  0
  185.5370  178.7570  147.4980 C   0  0  0  0  0  2  0  0  0  0  0  0
  187.5950  176.4950  147.5270 C   0  0  0  0  0  2  0  0  0  0  0  0
  184.6240  177.7210  146.8750 C   0  0  2  0  0  3  0  0  0  0  0  0
  186.0800  178.3360  140.8020 O   0  0  0  0  0  0  0  0  0  0  0  0
  185.0030  177.9980  139.9840 C   0  0  0  0  0  1  0  0  0  0  0  0
  188.6700  173.9810  139.8160 C   0  0  0  0  0  2  0  0  0  0  0  0
  188.2730  173.4950  138.4970 N   0  0  0  0  0  2  0  0  0  0  0  0
  188.6220  174.5200  137.5270 C   0  0  2  0  0  3  0  0  0  0  0  0
  187.4260  175.4150  137.2730 C   0  0  0  0  0  2  0  0  0  0  0  0
  187.1990  175.4960  135.8930 O   0  0  0  0  0  1  0  0  0  0  0  0
  189.0960  173.8870  136.2270 C   0  0  0  0  0  2  0  0  0  0  0  0
  190.4000  174.4830  135.7950 C   0  0  0  0  0  0  0  0  0  0  0  0
  190.5810  174.8150  134.5920 O   0  0  0  0  0  0  0  0  0  0  0  0
  191.4080  174.6760  136.7320 O   0  0  0  0  0  1  0  0  0  0  0  0
  1  5  1  0  0  0  0
  2  1  2  0  0  0  0
  2 33  1  0  0  0  0
  3  4  2  0  0  0  0
  3  6  1  0  0  0  0
  4  2  1  0  0  0  0
  6  8  1  6  0  0  0
  6  1  1  0  0  0  0
  8  7  2  0  0  0  0
  9  8  1  0  0  0  0
 10 11  1  0  0  0  0
 10  9  1  1  0  0  0
 12 10  1  0  0  0  0
 12 11  1  0  0  0  0
 12 14  1  1  0  0  0
 13 19  1  0  0  0  0
 14 13  2  0  0  0  0
 15 22  2  0  0  0  0
 16 23  1  0  0  0  0
 17 20  1  0  0  0  0
 19 21  2  0  0  0  0
 19 17  1  0  0  0  0
 20 16  2  0  0  0  0
 20 15  1  0  0  0  0
 22 18  1  0  0  0  0
 23 18  2  0  0  0  0
 24 31  2  0  0  0  0
 25 27  1  6  0  0  0
 25 29  1  0  0  0  0
 26 30  1  0  0  0  0
 28 25  1  0  0  0  0
 30 23  1  6  0  0  0
 30 29  1  0  0  0  0
 31 27  1  0  0  0  0
 32 24  1  1  0  0  0
 32 26  1  0  0  0  0
 32 28  1  0  0  0  0
 34 36  1  0  0  0  0
 36 44  1  1  0  0  0
 37 35  1  0  0  0  0
 37 33  1  1  0  0  0
 37 36  1  0  0  0  0
 38 35  1  0  0  0  0
 38 40  2  0  0  0  0
 39 34  1  0  0  0  0
 41 42  1  0  0  0  0
 41 39  1  0  0  0  0
 42 56  1  1  0  0  0
 42 38  1  0  0  0  0
 43 55  1  0  0  0  0
 44 47  2  0  0  0  0
 44 49  1  0  0  0  0
 45 47  1  6  0  0  0
 45 43  1  0  0  0  0
 45 52  1  0  0  0  0
 45 54  1  0  0  0  0
 48 54  1  0  0  0  0
 49 48  2  0  0  0  0
 51 50  1  0  0  0  0
 51 46  1  0  0  0  0
 52 50  1  6  0  0  0
 52 53  1  0  0  0  0
 55 46  1  6  0  0  0
 55 53  1  0  0  0  0
 57 56  1  0  0  0  0
 58  4  1  0  0  0  0
 59 58  1  0  0  0  0
 60 63  1  6  0  0  0
 60 59  1  0  0  0  0
 61 60  1  0  0  0  0
 62 61  1  0  0  0  0
 64 63  1  0  0  0  0
 64 66  1  0  0  0  0
 65 64  2  0  0  0  0
M  END
>  <MODEL>
8

>  <REMARK>
 VINA RESULT:      -7.3      1.959      3.535
  Name = 
  16 active torsions:
  status: ('A' for Active; 'I' for Inactive)
    1  A    between atoms: CA_3  and  C_12
    2  A    between atoms: CA_3  and  CB_35
    3  A    between atoms: CA_3  and  N_49
    4  A    between atoms: C_7  and  C_11
    5  A    between atoms: C_7  and  C_20
    6  A    between atoms: C_8  and  N_49
    7  A    between atoms: C_8  and  C_51
    8  A    between atoms: O_13  and  C_60
    9  A    between atoms: C_16  and  C_17
   10  A    between atoms: C_18  and  N_52
   11  A    between atoms: C_20  and  C_66
   12  A    between atoms: C_21  and  N_41
   13  A    between atoms: CG_24  and  CB_35
   14  A    between atoms: C_42  and  N_52
   15  A    between atoms: C_48  and  N_50
   16  A    between atoms: C_61  and  C_63
                            x       y       z     vdW  Elec       q    Type
                         _______ _______ _______ _____ _____    ______ ____

>  <TORSDO>
F 16

$$$$
=
 OpenBabel11042416183D

 66 74  0  0  1  0  0  0  0  0999 V2000
  190.5980  173.1570  140.6000 C   0  0  0  0  0  0  0  0  0  0  0  0
  190.2180  174.1910  141.3330 C   0  0  0  0  0  0  0  0  0  0  0  0
  188.2900  173.1440  140.7460 N   0  0  0  0  0  0  0  0  0  0  0  0
  188.7700  174.1550  141.3970 C   0  0  0  0  0  0  0  0  0  0  0  0
  191.9110  172.8370  140.2710 O   0  0  0  0  0  1  0  0  0  0  0  0
  189.3950  172.3620  140.1950 C   0  0  1  0  0  3  0  0  0  0  0  0
  188.4390  172.8130  138.0650 O   0  0  0  0  0  0  0  0  0  0  0  0
  189.2900  172.2040  138.6940 C   0  0  0  0  0  0  0  0  0  0  0  0
  190.2360  171.3000  137.9510 C   0  0  0  0  0  2  0  0  0  0  0  0
  189.7630  171.1040  136.5140 C   0  0  2  0  0  3  0  0  0  0  0  0
  190.9070  170.5190  135.7050 C   0  0  0  0  0  2  0  0  0  0  0  0
  190.4780  171.9470  135.4490 C   0  0  2  0  0  3  0  0  0  0  0  0
  191.3050  174.1190  135.8860 N   0  0  0  0  0  0  0  0  0  0  0  0
  191.4640  172.8580  136.0110 N   0  0  0  0  0  0  0  0  0  0  0  0
  194.7990  174.4540  139.0810 C   0  0  0  0  0  3  0  0  0  0  0  0
  194.8890  173.8700  136.7750 N   0  0  0  0  0  0  0  0  0  0  0  0
  192.8750  174.9040  137.6440 N   0  0  0  0  0  2  0  0  0  0  0  0
  196.7570  173.3620  138.1680 C   0  0  0  0  0  3  0  0  0  0  0  0
  192.3030  175.0370  136.3400 C   0  0  0  0  0  0  0  0  0  0  0  0
  194.2110  174.4180  137.8180 C   0  0  0  0  0  0  0  0  0  0  0  0
  192.7560  175.8980  135.5450 O   0  0  0  0  0  0  0  0  0  0  0  0
  196.0820  173.9260  139.2530 C   0  0  0  0  0  3  0  0  0  0  0  0
  196.1420  173.3430  136.9170 C   0  0  0  0  0  0  0  0  0  0  0  0
  194.7510  170.3980  135.7470 C   0  0  0  0  0  3  0  0  0  0  0  0
  197.5420  170.2140  135.9670 C   0  0  1  0  0  3  0  0  0  0  0  0
  195.9470  172.2610  134.6710 N   0  0  0  0  0  2  0  0  0  0  0  0
  196.6320  169.6620  137.0800 C   0  0  0  0  0  2  0  0  0  0  0  0
  196.9200  170.0460  134.6590 N   0  0  0  0  0  2  0  0  0  0  0  0
  197.9410  171.6710  136.1820 C   0  0  0  0  0  2  0  0  0  0  0  0
  196.8470  172.6710  135.7700 C   0  0  2  0  0  3  0  0  0  0  0  0
  195.2180  169.9120  136.8450 N   0  0  0  0  0  0  0  0  0  0  0  0
  195.6720  170.8180  134.6290 C   0  0  1  0  0  3  0  0  0  0  0  0
  191.0600  175.1920  141.9290 N   0  0  0  0  0  2  0  0  0  0  0  0
  192.8090  172.8150  144.1930 C   0  0  0  0  0  2  0  0  0  0  0  0
  192.9170  176.2080  143.1280 C   0  0  0  0  0  2  0  0  0  0  0  0
  191.8300  173.9680  143.9350 C   0  0  2  0  0  3  0  0  0  0  0  0
  192.2200  174.8930  142.7570 C   0  0  1  0  0  3  0  0  0  0  0  0
  194.2180  176.0470  143.8560 C   0  0  0  0  0  0  0  0  0  0  0  0
  194.2360  173.2810  144.4300 C   0  0  0  0  0  2  0  0  0  0  0  0
  194.4530  176.7970  144.7940 O   0  0  0  0  0  0  0  0  0  0  0  0
  194.7910  173.7420  143.2270 O   0  0  0  0  0  0  0  0  0  0  0  0
  195.2760  175.0570  143.4080 C   0  0  2  0  0  3  0  0  0  0  0  0
  188.1650  175.4670  146.7210 O   0  0  0  0  0  0  0  0  0  0  0  0
  191.3170  174.6130  145.1980 C   0  0  0  0  0  0  0  0  0  0  0  0
  189.5300  175.7800  146.5180 C   0  0  1  0  0  0  0  0  0  0  0  0
  186.8850  177.0630  145.4830 C   0  0  0  0  0  2  0  0  0  0  0  0
  190.0430  175.0250  145.3000 C   0  0  0  0  0  3  0  0  0  0  0  0
  191.8060  175.2840  147.4940 C   0  0  0  0  0  3  0  0  0  0  0  0
  192.2590  174.8970  146.2950 C   0  0  0  0  0  3  0  0  0  0  0  0
  189.3220  177.7710  144.9230 C   0  0  0  0  0  2  0  0  0  0  0  0
  187.8210  177.9120  144.5980 C   0  0  0  0  0  2  0  0  0  0  0  0
  189.6340  177.3090  146.3680 C   0  0  1  0  0  3  0  0  0  0  0  0
  188.5070  177.7380  147.2560 C   0  0  0  0  0  2  0  0  0  0  0  0
  190.3230  175.3310  147.7650 C   0  0  0  0  0  2  0  0  0  0  0  0
  187.4850  176.6950  146.8510 C   0  0  2  0  0  3  0  0  0  0  0  0
  196.3890  175.0750  144.2540 O   0  0  0  0  0  0  0  0  0  0  0  0
  197.3880  174.4080  143.5460 C   0  0  0  0  0  1  0  0  0  0  0  0
  187.9050  175.1880  142.0440 C   0  0  0  0  0  2  0  0  0  0  0  0
  188.0940  176.4950  141.4220 N   0  0  0  0  0  2  0  0  0  0  0  0
  186.8430  176.8610  140.7780 C   0  0  2  0  0  3  0  0  0  0  0  0
  187.0350  176.9180  139.2760 C   0  0  0  0  0  2  0  0  0  0  0  0
  185.7900  176.7780  138.6490 O   0  0  0  0  0  1  0  0  0  0  0  0
  186.3460  178.2020  141.2990 C   0  0  0  0  0  2  0  0  0  0  0  0
  184.8860  178.1340  141.6230 C   0  0  0  0  0  0  0  0  0  0  0  0
  184.0290  178.5490  140.7950 O   0  0  0  0  0  0  0  0  0  0  0  0
  184.4790  177.5990  142.8400 O   0  0  0  0  0  1  0  0  0  0  0  0
  1  2  2  0  0  0  0
  2  4  1  0  0  0  0
  2 33  1  0  0  0  0
  3  4  2  0  0  0  0
  4 58  1  0  0  0  0
  5  1  1  0  0  0  0
  6  8  1  6  0  0  0
  6  1  1  0  0  0  0
  6  3  1  0  0  0  0
  7  8  2  0  0  0  0
  9  8  1  0  0  0  0
 10  9  1  1  0  0  0
 11 10  1  0  0  0  0
 12 11  1  0  0  0  0
 12 14  1  1  0  0  0
 12 10  1  0  0  0  0
 13 14  2  0  0  0  0
 13 19  1  0  0  0  0
 15 22  2  0  0  0  0
 16 23  1  0  0  0  0
 16 20  2  0  0  0  0
 17 20  1  0  0  0  0
 18 22  1  0  0  0  0
 19 17  1  0  0  0  0
 20 15  1  0  0  0  0
 21 19  2  0  0  0  0
 23 18  2  0  0  0  0
 24 31  2  0  0  0  0
 25 29  1  1  0  0  0
 25 27  1  0  0  0  0
 26 30  1  0  0  0  0
 28 25  1  0  0  0  0
 30 29  1  0  0  0  0
 30 23  1  1  0  0  0
 31 27  1  0  0  0  0
 32 28  1  0  0  0  0
 32 26  1  0  0  0  0
 32 24  1  1  0  0  0
 34 39  1  0  0  0  0
 35 38  1  0  0  0  0
 36 34  1  0  0  0  0
 36 44  1  1  0  0  0
 37 33  1  1  0  0  0
 37 35  1  0  0  0  0
 37 36  1  0  0  0  0
 38 40  2  0  0  0  0
 41 42  1  0  0  0  0
 41 39  1  0  0  0  0
 42 38  1  0  0  0  0
 42 56  1  1  0  0  0
 43 55  1  0  0  0  0
 44 47  2  0  0  0  0
 44 49  1  0  0  0  0
 45 47  1  6  0  0  0
 45 43  1  0  0  0  0
 45 54  1  0  0  0  0
 48 54  1  0  0  0  0
 49 48  2  0  0  0  0
 51 50  1  0  0  0  0
 51 46  1  0  0  0  0
 52 50  1  6  0  0  0
 52 45  1  0  0  0  0
 52 53  1  0  0  0  0
 55 46  1  6  0  0  0
 55 53  1  0  0  0  0
 57 56  1  0  0  0  0
 59 58  1  0  0  0  0
 60 61  1  6  0  0  0
 60 63  1  0  0  0  0
 60 59  1  0  0  0  0
 62 61  1  0  0  0  0
 63 64  1  0  0  0  0
 64 66  1  0  0  0  0
 65 64  2  0  0  0  0
M  END
>  <MODEL>
9

>  <REMARK>
 VINA RESULT:      -7.2      2.841      5.410
  Name = 
  16 active torsions:
  status: ('A' for Active; 'I' for Inactive)
    1  A    between atoms: CA_3  and  C_12
    2  A    between atoms: CA_3  and  CB_35
    3  A    between atoms: CA_3  and  N_49
    4  A    between atoms: C_7  and  C_11
    5  A    between atoms: C_7  and  C_20
    6  A    between atoms: C_8  and  N_49
    7  A    between atoms: C_8  and  C_51
    8  A    between atoms: O_13  and  C_60
    9  A    between atoms: C_16  and  C_17
   10  A    between atoms: C_18  and  N_52
   11  A    between atoms: C_20  and  C_66
   12  A    between atoms: C_21  and  N_41
   13  A    between atoms: CG_24  and  CB_35
   14  A    between atoms: C_42  and  N_52
   15  A    between atoms: C_48  and  N_50
   16  A    between atoms: C_61  and  C_63
                            x       y       z     vdW  Elec       q    Type
                         _______ _______ _______ _____ _____    ______ ____

>  <TORSDO>
F 16

$$$$
