=
 OpenBabel11042417473D

 25 27  0  0  1  0  0  0  0  0999 V2000
  191.0800  176.4440  147.6840 C   0  0  0  0  0  2  0  0  0  0  0  0
  188.8130  175.2460  146.4150 C   0  0  0  0  0  3  0  0  0  0  0  0
  191.2980  175.2500  146.7440 C   0  0  1  0  0  3  0  0  0  0  0  0
  188.6690  176.5940  147.0800 C   0  0  1  0  0  3  0  0  0  0  0  0
  189.9880  177.3610  147.1430 C   0  0  0  0  0  2  0  0  0  0  0  0
  189.9960  174.6240  146.3040 C   0  0  0  0  0  3  0  0  0  0  0  0
  187.5880  177.4990  145.1240 N   0  0  0  0  0  0  0  0  0  0  0  0
  185.2290  177.8180  144.5900 C   0  0  2  0  0  3  0  0  0  0  0  0
  187.6000  177.4050  146.4240 C   0  0  0  0  0  0  0  0  0  0  0  0
  186.1970  177.3600  142.0140 C   0  0  0  0  0  2  0  0  0  0  0  0
  185.4380  178.5950  147.0640 C   0  0  0  0  0  3  0  0  0  0  0  0
  187.0960  178.2580  142.8590 C   0  0  0  0  0  2  0  0  0  0  0  0
  186.6670  178.3000  144.3360 C   0  0  2  0  0  3  0  0  0  0  0  0
  184.3650  178.0160  143.4370 N   0  0  0  0  0  0  0  0  0  0  0  0
  184.7800  177.7870  142.2390 C   0  0  0  0  0  3  0  0  0  0  0  0
  186.6620  178.1190  147.3230 C   0  0  0  0  0  3  0  0  0  0  0  0
  184.6780  178.5010  145.8050 C   0  0  0  0  0  0  0  0  0  0  0  0
  183.5190  178.9900  145.7780 O   0  0  0  0  0  0  0  0  0  0  0  0
  192.0950  175.6690  145.5190 C   0  0  0  0  0  2  0  0  0  0  0  0
  191.8920  174.7130  144.4410 N   0  0  0  0  0  2  0  0  0  0  0  0
  191.7360  175.4770  143.2140 C   0  0  0  0  0  2  0  0  0  0  0  0
  190.6720  177.6720  142.8240 C   0  0  0  0  0  1  0  0  0  0  0  0
  190.4140  176.2340  143.2200 C   0  0  1  0  0  3  0  0  0  0  0  0
  188.6480  174.6590  142.8680 O   0  0  0  0  0  1  0  0  0  0  0  0
  189.4350  175.6190  142.2320 C   0  0  0  0  0  2  0  0  0  0  0  0
  2  4  1  0  0  0  0
  3 19  1  6  0  0  0
  3  1  1  0  0  0  0
  4  9  1  6  0  0  0
  4  5  1  0  0  0  0
  5  1  1  0  0  0  0
  6  2  2  0  0  0  0
  6  3  1  0  0  0  0
  7  9  2  0  0  0  0
  8 14  1  6  0  0  0
  8 17  1  0  0  0  0
  9 16  1  0  0  0  0
 10 15  1  0  0  0  0
 10 12  1  0  0  0  0
 11 16  2  0  0  0  0
 13 12  1  6  0  0  0
 13  8  1  0  0  0  0
 13  7  1  0  0  0  0
 15 14  2  0  0  0  0
 17 11  1  0  0  0  0
 18 17  2  0  0  0  0
 20 19  1  0  0  0  0
 21 23  1  0  0  0  0
 21 20  1  0  0  0  0
 23 22  1  6  0  0  0
 25 24  1  0  0  0  0
 25 23  1  0  0  0  0
M  END
>  <MODEL>
1

>  <REMARK>
 VINA RESULT:      -6.9      0.000      0.000
  Name = 
  6 active torsions:
  status: ('A' for Active; 'I' for Inactive)
    1  A    between atoms: C_1  and  C_9
    2  A    between atoms: C_1  and  N_15
    3  A    between atoms: C_5  and  N_15
    4  A    between atoms: C_5  and  C_17
    5  A    between atoms: C_8  and  C_17
    6  A    between atoms: C_11  and  C_12
                            x       y       z     vdW  Elec       q    Type
                         _______ _______ _______ _____ _____    ______ ____

>  <TORSDO>
F 6

$$$$
=
 OpenBabel11042417473D

 25 27  0  0  1  0  0  0  0  0999 V2000
  190.6420  176.7450  147.3640 C   0  0  0  0  0  2  0  0  0  0  0  0
  188.0120  175.7460  146.8490 C   0  0  0  0  0  3  0  0  0  0  0  0
  190.4350  175.2310  147.2270 C   0  0  1  0  0  3  0  0  0  0  0  0
  188.2970  177.2180  146.6740 C   0  0  1  0  0  3  0  0  0  0  0  0
  189.7670  177.4990  146.3680 C   0  0  0  0  0  2  0  0  0  0  0  0
  188.9750  174.8590  147.1400 C   0  0  0  0  0  3  0  0  0  0  0  0
  187.7800  177.8020  144.3930 N   0  0  0  0  0  0  0  0  0  0  0  0
  185.6790  177.7540  143.1540 C   0  0  2  0  0  3  0  0  0  0  0  0
  187.4030  177.8200  145.6400 C   0  0  0  0  0  0  0  0  0  0  0  0
  187.4330  177.2160  141.0510 C   0  0  0  0  0  2  0  0  0  0  0  0
  185.0380  178.7560  145.4660 C   0  0  0  0  0  3  0  0  0  0  0  0
  187.9320  178.2950  142.0080 C   0  0  0  0  0  2  0  0  0  0  0  0
  187.0680  178.4030  143.2780 C   0  0  2  0  0  3  0  0  0  0  0  0
  185.1950  177.7360  141.7830 N   0  0  0  0  0  0  0  0  0  0  0  0
  185.9790  177.4660  140.7970 C   0  0  0  0  0  3  0  0  0  0  0  0
  186.1660  178.4740  146.1290 C   0  0  0  0  0  3  0  0  0  0  0  0
  184.7150  178.4560  144.0610 C   0  0  0  0  0  0  0  0  0  0  0  0
  183.5760  178.7800  143.6350 O   0  0  0  0  0  0  0  0  0  0  0  0
  191.1650  174.6970  146.0040 C   0  0  0  0  0  2  0  0  0  0  0  0
  192.6020  174.7320  146.2260 N   0  0  0  0  0  2  0  0  0  0  0  0
  193.2240  175.0780  144.9570 C   0  0  0  0  0  2  0  0  0  0  0  0
  194.2580  176.6800  146.5270 C   0  0  0  0  0  1  0  0  0  0  0  0
  193.9630  176.4040  145.0680 C   0  0  1  0  0  3  0  0  0  0  0  0
  196.0780  175.3230  144.7840 O   0  0  0  0  0  1  0  0  0  0  0  0
  195.2750  176.3560  144.3010 C   0  0  0  0  0  2  0  0  0  0  0  0
  2  6  2  0  0  0  0
  3 19  1  6  0  0  0
  3  1  1  0  0  0  0
  4  9  1  6  0  0  0
  4  2  1  0  0  0  0
  5  4  1  0  0  0  0
  5  1  1  0  0  0  0
  6  3  1  0  0  0  0
  7  9  2  0  0  0  0
  8 14  1  6  0  0  0
  8 13  1  0  0  0  0
  8 17  1  0  0  0  0
  9 16  1  0  0  0  0
 10 12  1  0  0  0  0
 11 16  2  0  0  0  0
 13 12  1  6  0  0  0
 13  7  1  0  0  0  0
 15 10  1  0  0  0  0
 15 14  2  0  0  0  0
 17 11  1  0  0  0  0
 18 17  2  0  0  0  0
 19 20  1  0  0  0  0
 21 23  1  0  0  0  0
 21 20  1  0  0  0  0
 23 22  1  1  0  0  0
 25 24  1  0  0  0  0
 25 23  1  0  0  0  0
M  END
>  <MODEL>
2

>  <REMARK>
 VINA RESULT:      -6.7      2.124      2.734
  Name = 
  6 active torsions:
  status: ('A' for Active; 'I' for Inactive)
    1  A    between atoms: C_1  and  C_9
    2  A    between atoms: C_1  and  N_15
    3  A    between atoms: C_5  and  N_15
    4  A    between atoms: C_5  and  C_17
    5  A    between atoms: C_8  and  C_17
    6  A    between atoms: C_11  and  C_12
                            x       y       z     vdW  Elec       q    Type
                         _______ _______ _______ _____ _____    ______ ____

>  <TORSDO>
F 6

$$$$
=
 OpenBabel11042417473D

 25 27  0  0  1  0  0  0  0  0999 V2000
  192.5420  176.8320  144.9960 C   0  0  0  0  0  2  0  0  0  0  0  0
  190.2240  176.8880  146.6710 C   0  0  0  0  0  3  0  0  0  0  0  0
  192.4800  175.8970  146.2120 C   0  0  1  0  0  3  0  0  0  0  0  0
  190.1800  177.5500  145.3150 C   0  0  1  0  0  3  0  0  0  0  0  0
  191.1740  176.9380  144.3300 C   0  0  0  0  0  2  0  0  0  0  0  0
  191.2830  176.1780  147.0880 C   0  0  0  0  0  3  0  0  0  0  0  0
  187.7870  177.4080  145.5760 N   0  0  0  0  0  0  0  0  0  0  0  0
  185.9710  178.5970  144.4610 C   0  0  2  0  0  3  0  0  0  0  0  0
  188.7930  177.5450  144.7590 C   0  0  0  0  0  0  0  0  0  0  0  0
  184.7710  178.2110  146.9490 C   0  0  0  0  0  2  0  0  0  0  0  0
  187.6200  177.9970  142.5410 C   0  0  0  0  0  3  0  0  0  0  0  0
  185.5450  176.9970  146.4450 C   0  0  0  0  0  2  0  0  0  0  0  0
  186.3870  177.3120  145.1960 C   0  0  2  0  0  3  0  0  0  0  0  0
  184.5660  178.9170  144.6540 N   0  0  0  0  0  0  0  0  0  0  0  0
  183.9950  178.7710  145.7990 C   0  0  0  0  0  3  0  0  0  0  0  0
  188.6680  177.6210  143.2840 C   0  0  0  0  0  3  0  0  0  0  0  0
  186.3060  178.4730  143.0050 C   0  0  0  0  0  0  0  0  0  0  0  0
  185.4600  178.8110  142.1370 O   0  0  0  0  0  0  0  0  0  0  0  0
  192.4520  174.4420  145.7710 C   0  0  0  0  0  2  0  0  0  0  0  0
  193.5110  174.1940  144.8040 N   0  0  0  0  0  2  0  0  0  0  0  0
  194.5980  173.5420  145.5180 C   0  0  0  0  0  2  0  0  0  0  0  0
  196.9890  173.6650  146.1240 C   0  0  0  0  0  1  0  0  0  0  0  0
  195.8130  174.4560  145.5910 C   0  0  1  0  0  3  0  0  0  0  0  0
  196.0000  176.3810  144.1830 O   0  0  0  0  0  1  0  0  0  0  0  0
  196.1660  174.9970  144.2140 C   0  0  0  0  0  2  0  0  0  0  0  0
  1  3  1  0  0  0  0
  2  6  2  0  0  0  0
  3 19  1  6  0  0  0
  3  6  1  0  0  0  0
  4  9  1  6  0  0  0
  4  2  1  0  0  0  0
  5  1  1  0  0  0  0
  5  4  1  0  0  0  0
  8 17  1  6  0  0  0
  8 14  1  0  0  0  0
  8 13  1  0  0  0  0
  9  7  2  0  0  0  0
 11 17  1  0  0  0  0
 11 16  2  0  0  0  0
 12 10  1  0  0  0  0
 13  7  1  0  0  0  0
 13 12  1  1  0  0  0
 14 15  2  0  0  0  0
 15 10  1  0  0  0  0
 16  9  1  0  0  0  0
 18 17  2  0  0  0  0
 20 21  1  0  0  0  0
 20 19  1  0  0  0  0
 21 23  1  0  0  0  0
 23 22  1  6  0  0  0
 24 25  1  0  0  0  0
 25 23  1  0  0  0  0
M  END
>  <MODEL>
3

>  <REMARK>
 VINA RESULT:      -6.6      2.686      4.068
  Name = 
  6 active torsions:
  status: ('A' for Active; 'I' for Inactive)
    1  A    between atoms: C_1  and  C_9
    2  A    between atoms: C_1  and  N_15
    3  A    between atoms: C_5  and  N_15
    4  A    between atoms: C_5  and  C_17
    5  A    between atoms: C_8  and  C_17
    6  A    between atoms: C_11  and  C_12
                            x       y       z     vdW  Elec       q    Type
                         _______ _______ _______ _____ _____    ______ ____

>  <TORSDO>
F 6

$$$$
=
 OpenBabel11042417473D

 25 27  0  0  1  0  0  0  0  0999 V2000
  187.7200  178.2830  141.8520 C   0  0  0  0  0  2  0  0  0  0  0  0
  187.3950  175.7440  143.1290 C   0  0  0  0  0  3  0  0  0  0  0  0
  186.3120  177.8340  142.2670 C   0  0  1  0  0  3  0  0  0  0  0  0
  188.7750  176.3420  143.0000 C   0  0  1  0  0  3  0  0  0  0  0  0
  188.7480  177.8660  142.8990 C   0  0  0  0  0  2  0  0  0  0  0  0
  186.2890  176.4060  142.7570 C   0  0  0  0  0  3  0  0  0  0  0  0
  190.9490  175.8250  143.9050 N   0  0  0  0  0  0  0  0  0  0  0  0
  191.9090  176.2170  146.1140 C   0  0  2  0  0  3  0  0  0  0  0  0
  189.6640  175.8890  144.1120 C   0  0  0  0  0  0  0  0  0  0  0  0
  194.2370  176.4160  144.5890 C   0  0  0  0  0  2  0  0  0  0  0  0
  189.4990  175.3710  146.6030 C   0  0  0  0  0  3  0  0  0  0  0  0
  193.3140  175.2810  144.1560 C   0  0  0  0  0  2  0  0  0  0  0  0
  191.9410  175.3400  144.8500 C   0  0  2  0  0  3  0  0  0  0  0  0
  193.2070  176.2990  146.7650 N   0  0  0  0  0  0  0  0  0  0  0  0
  194.2940  176.4170  146.0840 C   0  0  0  0  0  3  0  0  0  0  0  0
  188.9970  175.4650  145.3650 C   0  0  0  0  0  3  0  0  0  0  0  0
  190.8610  175.7040  147.0530 C   0  0  0  0  0  0  0  0  0  0  0  0
  191.1260  175.5750  148.2770 O   0  0  0  0  0  0  0  0  0  0  0  0
  185.7540  178.7470  143.3480 C   0  0  0  0  0  2  0  0  0  0  0  0
  184.7810  178.0270  144.1550 N   0  0  0  0  0  2  0  0  0  0  0  0
  184.4100  178.8990  145.2580 C   0  0  0  0  0  2  0  0  0  0  0  0
  185.1970  176.8180  146.3320 C   0  0  0  0  0  1  0  0  0  0  0  0
  184.6720  178.2140  146.5930 C   0  0  1  0  0  3  0  0  0  0  0  0
  186.8750  178.2380  147.5250 O   0  0  0  0  0  1  0  0  0  0  0  0
  185.7040  178.9840  147.4020 C   0  0  0  0  0  2  0  0  0  0  0  0
  1  3  1  0  0  0  0
  1  5  1  0  0  0  0
  3  6  1  0  0  0  0
  3 19  1  1  0  0  0
  4  2  1  0  0  0  0
  4  9  1  1  0  0  0
  5  4  1  0  0  0  0
  6  2  2  0  0  0  0
  7  9  2  0  0  0  0
  7 13  1  0  0  0  0
  8 14  1  1  0  0  0
  8 17  1  0  0  0  0
  9 16  1  0  0  0  0
 10 15  1  0  0  0  0
 11 17  1  0  0  0  0
 12 10  1  0  0  0  0
 13 12  1  6  0  0  0
 13  8  1  0  0  0  0
 15 14  2  0  0  0  0
 16 11  2  0  0  0  0
 17 18  2  0  0  0  0
 19 20  1  0  0  0  0
 20 21  1  0  0  0  0
 21 23  1  0  0  0  0
 23 22  1  6  0  0  0
 23 25  1  0  0  0  0
 25 24  1  0  0  0  0
M  END
>  <MODEL>
4

>  <REMARK>
 VINA RESULT:      -6.6      2.035      6.774
  Name = 
  6 active torsions:
  status: ('A' for Active; 'I' for Inactive)
    1  A    between atoms: C_1  and  C_9
    2  A    between atoms: C_1  and  N_15
    3  A    between atoms: C_5  and  N_15
    4  A    between atoms: C_5  and  C_17
    5  A    between atoms: C_8  and  C_17
    6  A    between atoms: C_11  and  C_12
                            x       y       z     vdW  Elec       q    Type
                         _______ _______ _______ _____ _____    ______ ____

>  <TORSDO>
F 6

$$$$
=
 OpenBabel11042417473D

 25 27  0  0  1  0  0  0  0  0999 V2000
  190.2920  174.9200  141.9130 C   0  0  0  0  0  2  0  0  0  0  0  0
  189.6690  177.4820  143.0230 C   0  0  0  0  0  3  0  0  0  0  0  0
  191.3360  175.6250  142.7910 C   0  0  1  0  0  3  0  0  0  0  0  0
  188.5660  176.6380  142.4310 C   0  0  1  0  0  3  0  0  0  0  0  0
  188.8880  175.1450  142.4630 C   0  0  0  0  0  2  0  0  0  0  0  0
  190.9280  177.0350  143.1440 C   0  0  0  0  0  3  0  0  0  0  0  0
  187.1720  176.8400  144.3880 N   0  0  0  0  0  0  0  0  0  0  0  0
  185.4190  178.4370  144.9590 C   0  0  2  0  0  3  0  0  0  0  0  0
  187.2570  176.9250  143.0900 C   0  0  0  0  0  0  0  0  0  0  0  0
  186.3800  177.9150  147.5250 C   0  0  0  0  0  2  0  0  0  0  0  0
  184.9630  177.8480  142.4670 C   0  0  0  0  0  3  0  0  0  0  0  0
  186.2660  176.6730  146.6470 C   0  0  0  0  0  2  0  0  0  0  0  0
  185.9650  177.0160  145.1770 C   0  0  2  0  0  3  0  0  0  0  0  0
  184.7110  178.9440  146.1230 N   0  0  0  0  0  0  0  0  0  0  0  0
  185.1480  178.7390  147.3180 C   0  0  0  0  0  3  0  0  0  0  0  0
  186.1120  177.2160  142.1950 C   0  0  0  0  0  3  0  0  0  0  0  0
  184.5460  178.4580  143.7410 C   0  0  0  0  0  0  0  0  0  0  0  0
  183.4290  179.0370  143.7800 O   0  0  0  0  0  0  0  0  0  0  0  0
  191.5830  174.8370  144.0680 C   0  0  0  0  0  2  0  0  0  0  0  0
  192.1240  175.7120  145.0970 N   0  0  0  0  0  2  0  0  0  0  0  0
  191.5530  175.2870  146.3650 C   0  0  0  0  0  2  0  0  0  0  0  0
  189.3090  174.7060  147.2200 C   0  0  0  0  0  1  0  0  0  0  0  0
  190.1110  175.7610  146.4880 C   0  0  1  0  0  3  0  0  0  0  0  0
  191.1380  177.1860  148.1120 O   0  0  0  0  0  1  0  0  0  0  0  0
  190.0360  177.0650  147.2660 C   0  0  0  0  0  2  0  0  0  0  0  0
  1  5  1  0  0  0  0
  1  3  1  0  0  0  0
  2  6  2  0  0  0  0
  3  6  1  0  0  0  0
  3 19  1  1  0  0  0
  4  5  1  0  0  0  0
  4  2  1  0  0  0  0
  4  9  1  1  0  0  0
  7 13  1  0  0  0  0
  8 17  1  6  0  0  0
  8 13  1  0  0  0  0
  8 14  1  0  0  0  0
  9  7  2  0  0  0  0
 11 17  1  0  0  0  0
 12 10  1  0  0  0  0
 13 12  1  1  0  0  0
 14 15  2  0  0  0  0
 15 10  1  0  0  0  0
 16 11  2  0  0  0  0
 16  9  1  0  0  0  0
 17 18  2  0  0  0  0
 19 20  1  0  0  0  0
 20 21  1  0  0  0  0
 21 23  1  0  0  0  0
 23 22  1  1  0  0  0
 23 25  1  0  0  0  0
 25 24  1  0  0  0  0
M  END
>  <MODEL>
5

>  <REMARK>
 VINA RESULT:      -6.5      1.715      4.079
  Name = 
  6 active torsions:
  status: ('A' for Active; 'I' for Inactive)
    1  A    between atoms: C_1  and  C_9
    2  A    between atoms: C_1  and  N_15
    3  A    between atoms: C_5  and  N_15
    4  A    between atoms: C_5  and  C_17
    5  A    between atoms: C_8  and  C_17
    6  A    between atoms: C_11  and  C_12
                            x       y       z     vdW  Elec       q    Type
                         _______ _______ _______ _____ _____    ______ ____

>  <TORSDO>
F 6

$$$$
=
 OpenBabel11042417473D

 25 27  0  0  1  0  0  0  0  0999 V2000
  191.2090  175.4970  147.9280 C   0  0  0  0  0  2  0  0  0  0  0  0
  190.5160  174.6330  145.2900 C   0  0  0  0  0  3  0  0  0  0  0  0
  192.3310  175.1780  146.9300 C   0  0  1  0  0  3  0  0  0  0  0  0
  189.4580  175.2480  146.1750 C   0  0  1  0  0  3  0  0  0  0  0  0
  190.0460  176.1890  147.2250 C   0  0  0  0  0  2  0  0  0  0  0  0
  191.8050  174.5660  145.6540 C   0  0  0  0  0  3  0  0  0  0  0  0
  187.3150  176.3300  145.9510 N   0  0  0  0  0  0  0  0  0  0  0  0
  186.6120  178.2520  144.6230 C   0  0  2  0  0  3  0  0  0  0  0  0
  188.4070  175.9310  145.3620 C   0  0  0  0  0  0  0  0  0  0  0  0
  184.8720  178.5590  146.7830 C   0  0  0  0  0  2  0  0  0  0  0  0
  188.1200  176.8760  143.0120 C   0  0  0  0  0  3  0  0  0  0  0  0
  185.0350  177.1130  146.3250 C   0  0  0  0  0  2  0  0  0  0  0  0
  186.1700  176.9430  145.2990 C   0  0  2  0  0  3  0  0  0  0  0  0
  185.5440  179.2370  144.5690 N   0  0  0  0  0  0  0  0  0  0  0  0
  184.7430  179.4150  145.5620 C   0  0  0  0  0  3  0  0  0  0  0  0
  188.6580  176.0360  143.9060 C   0  0  0  0  0  3  0  0  0  0  0  0
  187.1470  177.9540  143.2560 C   0  0  0  0  0  0  0  0  0  0  0  0
  186.7880  178.6580  142.2760 O   0  0  0  0  0  0  0  0  0  0  0  0
  193.1260  176.4310  146.5970 C   0  0  0  0  0  2  0  0  0  0  0  0
  194.5050  176.0810  146.2950 N   0  0  0  0  0  2  0  0  0  0  0  0
  194.9160  176.8930  145.1600 C   0  0  0  0  0  2  0  0  0  0  0  0
  194.4050  175.5730  143.1360 C   0  0  0  0  0  1  0  0  0  0  0  0
  195.5130  176.0190  144.0660 C   0  0  1  0  0  3  0  0  0  0  0  0
  197.7180  176.0410  143.1380 O   0  0  0  0  0  1  0  0  0  0  0  0
  196.5490  176.7910  143.2640 C   0  0  0  0  0  2  0  0  0  0  0  0
  2  6  2  0  0  0  0
  2  4  1  0  0  0  0
  3 19  1  6  0  0  0
  3  1  1  0  0  0  0
  4  9  1  6  0  0  0
  4  5  1  0  0  0  0
  5  1  1  0  0  0  0
  6  3  1  0  0  0  0
  8 17  1  6  0  0  0
  8 13  1  0  0  0  0
  9  7  2  0  0  0  0
 11 17  1  0  0  0  0
 11 16  2  0  0  0  0
 12 10  1  0  0  0  0
 13  7  1  0  0  0  0
 13 12  1  1  0  0  0
 14  8  1  0  0  0  0
 14 15  2  0  0  0  0
 15 10  1  0  0  0  0
 16  9  1  0  0  0  0
 18 17  2  0  0  0  0
 20 19  1  0  0  0  0
 21 20  1  0  0  0  0
 23 22  1  6  0  0  0
 23 21  1  0  0  0  0
 24 25  1  0  0  0  0
 25 23  1  0  0  0  0
M  END
>  <MODEL>
6

>  <REMARK>
 VINA RESULT:      -6.5      2.841      3.916
  Name = 
  6 active torsions:
  status: ('A' for Active; 'I' for Inactive)
    1  A    between atoms: C_1  and  C_9
    2  A    between atoms: C_1  and  N_15
    3  A    between atoms: C_5  and  N_15
    4  A    between atoms: C_5  and  C_17
    5  A    between atoms: C_8  and  C_17
    6  A    between atoms: C_11  and  C_12
                            x       y       z     vdW  Elec       q    Type
                         _______ _______ _______ _____ _____    ______ ____

>  <TORSDO>
F 6

$$$$
=
 OpenBabel11042417473D

 25 27  0  0  1  0  0  0  0  0999 V2000
  192.6790  177.1800  144.7370 C   0  0  0  0  0  2  0  0  0  0  0  0
  190.4170  176.5950  146.3880 C   0  0  0  0  0  3  0  0  0  0  0  0
  192.7530  175.9930  145.7080 C   0  0  1  0  0  3  0  0  0  0  0  0
  190.2630  177.5380  145.2190 C   0  0  1  0  0  3  0  0  0  0  0  0
  191.2890  177.2800  144.1170 C   0  0  0  0  0  2  0  0  0  0  0  0
  191.5580  175.9320  146.6290 C   0  0  0  0  0  3  0  0  0  0  0  0
  187.8760  177.3630  145.5130 N   0  0  0  0  0  0  0  0  0  0  0  0
  186.0280  178.5080  144.4040 C   0  0  2  0  0  3  0  0  0  0  0  0
  188.8690  177.5030  144.6810 C   0  0  0  0  0  0  0  0  0  0  0  0
  184.8650  178.1420  146.9130 C   0  0  0  0  0  2  0  0  0  0  0  0
  187.6610  177.9030  142.4720 C   0  0  0  0  0  3  0  0  0  0  0  0
  185.6510  176.9320  146.4170 C   0  0  0  0  0  2  0  0  0  0  0  0
  186.4730  177.2400  145.1530 C   0  0  2  0  0  3  0  0  0  0  0  0
  184.6210  178.8090  144.6100 N   0  0  0  0  0  0  0  0  0  0  0  0
  184.0660  178.6720  145.7640 C   0  0  0  0  0  3  0  0  0  0  0  0
  188.7250  177.5540  143.2070 C   0  0  0  0  0  3  0  0  0  0  0  0
  186.3460  178.3660  142.9460 C   0  0  0  0  0  0  0  0  0  0  0  0
  185.4840  178.6780  142.0840 O   0  0  0  0  0  0  0  0  0  0  0  0
  192.8710  174.6820  144.9470 C   0  0  0  0  0  2  0  0  0  0  0  0
  191.8400  173.7550  145.3880 N   0  0  0  0  0  2  0  0  0  0  0  0
  191.5320  172.8880  144.2620 C   0  0  0  0  0  2  0  0  0  0  0  0
  189.3600  174.0180  143.9360 C   0  0  0  0  0  1  0  0  0  0  0  0
  190.0290  172.6760  144.1460 C   0  0  1  0  0  3  0  0  0  0  0  0
  188.6280  172.2940  142.2440 O   0  0  0  0  0  1  0  0  0  0  0  0
  189.7000  171.7730  142.9670 C   0  0  0  0  0  2  0  0  0  0  0  0
  1  3  1  0  0  0  0
  2  6  2  0  0  0  0
  3 19  1  6  0  0  0
  3  6  1  0  0  0  0
  4  9  1  6  0  0  0
  4  2  1  0  0  0  0
  5  1  1  0  0  0  0
  5  4  1  0  0  0  0
  8 17  1  6  0  0  0
  8 14  1  0  0  0  0
  8 13  1  0  0  0  0
  9  7  2  0  0  0  0
 11 17  1  0  0  0  0
 11 16  2  0  0  0  0
 12 10  1  0  0  0  0
 13  7  1  0  0  0  0
 13 12  1  1  0  0  0
 14 15  2  0  0  0  0
 15 10  1  0  0  0  0
 16  9  1  0  0  0  0
 18 17  2  0  0  0  0
 19 20  1  0  0  0  0
 21 20  1  0  0  0  0
 23 22  1  6  0  0  0
 23 21  1  0  0  0  0
 24 25  1  0  0  0  0
 25 23  1  0  0  0  0
M  END
>  <MODEL>
7

>  <REMARK>
 VINA RESULT:      -6.4      1.940      3.150
  Name = 
  6 active torsions:
  status: ('A' for Active; 'I' for Inactive)
    1  A    between atoms: C_1  and  C_9
    2  A    between atoms: C_1  and  N_15
    3  A    between atoms: C_5  and  N_15
    4  A    between atoms: C_5  and  C_17
    5  A    between atoms: C_8  and  C_17
    6  A    between atoms: C_11  and  C_12
                            x       y       z     vdW  Elec       q    Type
                         _______ _______ _______ _____ _____    ______ ____

>  <TORSDO>
F 6

$$$$
=
 OpenBabel11042417473D

 25 27  0  0  1  0  0  0  0  0999 V2000
  191.1330  176.1990  147.6700 C   0  0  0  0  0  2  0  0  0  0  0  0
  189.3660  175.3390  145.5910 C   0  0  0  0  0  3  0  0  0  0  0  0
  191.7180  175.4910  146.4400 C   0  0  1  0  0  3  0  0  0  0  0  0
  188.8680  176.3020  146.6410 C   0  0  1  0  0  3  0  0  0  0  0  0
  189.9930  177.1280  147.2620 C   0  0  0  0  0  2  0  0  0  0  0  0
  190.6460  174.9430  145.5310 C   0  0  0  0  0  3  0  0  0  0  0  0
  187.7160  177.3660  144.8090 N   0  0  0  0  0  0  0  0  0  0  0  0
  185.3430  177.7710  144.4150 C   0  0  2  0  0  3  0  0  0  0  0  0
  187.7880  177.1810  146.0970 C   0  0  0  0  0  0  0  0  0  0  0  0
  186.1750  177.4770  141.7690 C   0  0  0  0  0  2  0  0  0  0  0  0
  185.6880  178.3660  146.9230 C   0  0  0  0  0  3  0  0  0  0  0  0
  187.1360  178.2930  142.6280 C   0  0  0  0  0  2  0  0  0  0  0  0
  186.7780  178.2400  144.1250 C   0  0  2  0  0  3  0  0  0  0  0  0
  184.4300  178.0680  143.3230 N   0  0  0  0  0  0  0  0  0  0  0  0
  184.7820  177.9160  142.0930 C   0  0  0  0  0  3  0  0  0  0  0  0
  186.9120  177.8480  147.0880 C   0  0  0  0  0  3  0  0  0  0  0  0
  184.8680  178.3780  145.7010 C   0  0  0  0  0  0  0  0  0  0  0  0
  183.7200  178.8920  145.7640 O   0  0  0  0  0  0  0  0  0  0  0  0
  192.6140  176.4350  145.6520 C   0  0  0  0  0  2  0  0  0  0  0  0
  193.5690  175.6730  144.8630 N   0  0  0  0  0  2  0  0  0  0  0  0
  194.8980  176.1130  145.2550 C   0  0  0  0  0  2  0  0  0  0  0  0
  195.2700  174.6930  143.2690 C   0  0  0  0  0  1  0  0  0  0  0  0
  195.9410  175.6160  144.2640 C   0  0  1  0  0  3  0  0  0  0  0  0
  196.1270  176.7910  142.1880 O   0  0  0  0  0  1  0  0  0  0  0  0
  196.5690  176.7780  143.5110 C   0  0  0  0  0  2  0  0  0  0  0  0
  2  4  1  0  0  0  0
  3 19  1  6  0  0  0
  3  1  1  0  0  0  0
  4  9  1  6  0  0  0
  4  5  1  0  0  0  0
  5  1  1  0  0  0  0
  6  2  2  0  0  0  0
  6  3  1  0  0  0  0
  7  9  2  0  0  0  0
  8 14  1  6  0  0  0
  8 17  1  0  0  0  0
  9 16  1  0  0  0  0
 10 15  1  0  0  0  0
 10 12  1  0  0  0  0
 11 16  2  0  0  0  0
 13 12  1  6  0  0  0
 13  8  1  0  0  0  0
 13  7  1  0  0  0  0
 15 14  2  0  0  0  0
 17 18  2  0  0  0  0
 17 11  1  0  0  0  0
 20 21  1  0  0  0  0
 20 19  1  0  0  0  0
 23 22  1  6  0  0  0
 23 21  1  0  0  0  0
 24 25  1  0  0  0  0
 25 23  1  0  0  0  0
M  END
>  <MODEL>
8

>  <REMARK>
 VINA RESULT:      -6.2      2.301      2.831
  Name = 
  6 active torsions:
  status: ('A' for Active; 'I' for Inactive)
    1  A    between atoms: C_1  and  C_9
    2  A    between atoms: C_1  and  N_15
    3  A    between atoms: C_5  and  N_15
    4  A    between atoms: C_5  and  C_17
    5  A    between atoms: C_8  and  C_17
    6  A    between atoms: C_11  and  C_12
                            x       y       z     vdW  Elec       q    Type
                         _______ _______ _______ _____ _____    ______ ____

>  <TORSDO>
F 6

$$$$
=
 OpenBabel11042417473D

 25 27  0  0  1  0  0  0  0  0999 V2000
  188.9420  174.8460  146.8920 C   0  0  0  0  0  2  0  0  0  0  0  0
  190.9700  176.8120  147.3450 C   0  0  0  0  0  3  0  0  0  0  0  0
  188.5650  176.3320  146.8280 C   0  0  1  0  0  3  0  0  0  0  0  0
  191.3660  175.3770  147.0900 C   0  0  1  0  0  3  0  0  0  0  0  0
  190.3190  174.6140  146.2790 C   0  0  0  0  0  2  0  0  0  0  0  0
  189.6970  177.2290  147.2670 C   0  0  0  0  0  3  0  0  0  0  0  0
  193.1190  174.1530  145.9750 N   0  0  0  0  0  0  0  0  0  0  0  0
  194.6090  174.7770  144.1480 C   0  0  2  0  0  3  0  0  0  0  0  0
  192.7120  175.2980  146.4470 C   0  0  0  0  0  0  0  0  0  0  0  0
  194.4090  172.0430  143.6270 C   0  0  0  0  0  2  0  0  0  0  0  0
  194.5640  176.8740  145.6840 C   0  0  0  0  0  3  0  0  0  0  0  0
  194.5510  172.3780  145.1090 C   0  0  0  0  0  2  0  0  0  0  0  0
  194.4210  173.8870  145.3870 C   0  0  2  0  0  3  0  0  0  0  0  0
  195.4600  174.1580  143.1440 N   0  0  0  0  0  0  0  0  0  0  0  0
  195.3700  172.9030  142.8680 C   0  0  0  0  0  3  0  0  0  0  0  0
  193.5310  176.5320  146.4640 C   0  0  0  0  0  3  0  0  0  0  0  0
  195.1450  176.1120  144.5660 C   0  0  0  0  0  0  0  0  0  0  0  0
  196.1030  176.6290  143.9340 O   0  0  0  0  0  0  0  0  0  0  0  0
  188.1330  176.7180  145.4220 C   0  0  0  0  0  2  0  0  0  0  0  0
  187.0560  177.6940  145.4810 N   0  0  0  0  0  2  0  0  0  0  0  0
  185.8080  176.9520  145.5700 C   0  0  0  0  0  2  0  0  0  0  0  0
  185.5650  178.2940  147.6290 C   0  0  0  0  0  1  0  0  0  0  0  0
  184.8160  177.6800  146.4660 C   0  0  1  0  0  3  0  0  0  0  0  0
  184.0660  178.4780  144.3400 O   0  0  0  0  0  1  0  0  0  0  0  0
  184.1050  178.7840  145.7000 C   0  0  0  0  0  2  0  0  0  0  0  0
  3 19  1  6  0  0  0
  3  1  1  0  0  0  0
  3  6  1  0  0  0  0
  4  9  1  6  0  0  0
  4  2  1  0  0  0  0
  5  1  1  0  0  0  0
  5  4  1  0  0  0  0
  6  2  2  0  0  0  0
  7  9  2  0  0  0  0
  8 14  1  6  0  0  0
  8 17  1  0  0  0  0
  8 13  1  0  0  0  0
  9 16  1  0  0  0  0
 10 12  1  0  0  0  0
 11 16  2  0  0  0  0
 13 12  1  6  0  0  0
 13  7  1  0  0  0  0
 15 14  2  0  0  0  0
 15 10  1  0  0  0  0
 17 11  1  0  0  0  0
 18 17  2  0  0  0  0
 19 20  1  0  0  0  0
 20 21  1  0  0  0  0
 21 23  1  0  0  0  0
 23 22  1  1  0  0  0
 24 25  1  0  0  0  0
 25 23  1  0  0  0  0
M  END
>  <MODEL>
9

>  <REMARK>
 VINA RESULT:      -6.2      2.730      7.658
  Name = 
  6 active torsions:
  status: ('A' for Active; 'I' for Inactive)
    1  A    between atoms: C_1  and  C_9
    2  A    between atoms: C_1  and  N_15
    3  A    between atoms: C_5  and  N_15
    4  A    between atoms: C_5  and  C_17
    5  A    between atoms: C_8  and  C_17
    6  A    between atoms: C_11  and  C_12
                            x       y       z     vdW  Elec       q    Type
                         _______ _______ _______ _____ _____    ______ ____

>  <TORSDO>
F 6

$$$$
