=
 OpenBabel11042417313D

 39 45  0  0  0  0  0  0  0  0999 V2000
  187.0740  175.9370  141.5050 O   0  0  0  0  0  1  0  0  0  0  0  0
  187.9580  175.9910  142.5800 C   0  0  0  0  0  0  0  0  0  0  0  0
  184.6250  178.6980  144.7700 N   0  0  0  0  0  2  0  0  0  0  0  0
  190.2600  175.1330  143.2360 C   0  0  0  0  0  0  0  0  0  0  0  0
  190.6180  174.0760  141.3590 C   0  0  0  0  0  0  0  0  0  0  0  0
  185.9080  178.1160  144.9110 C   0  0  0  0  0  0  0  0  0  0  0  0
  188.3670  176.8660  144.8990 C   0  0  0  0  0  0  0  0  0  0  0  0
  186.7070  178.2390  146.0450 C   0  0  0  0  0  3  0  0  0  0  0  0
  190.4830  175.6140  144.5100 C   0  0  0  0  0  3  0  0  0  0  0  0
  185.2290  177.4550  142.7580 C   0  0  0  0  0  2  0  0  0  0  0  0
  184.2190  178.2970  143.4670 C   0  0  0  0  0  0  0  0  0  0  0  0
  187.9410  177.5970  146.0040 C   0  0  0  0  0  0  0  0  0  0  0  0
  189.8670  176.8640  146.5220 C   0  0  0  0  0  0  0  0  0  0  0  0
  189.6150  176.3940  145.2420 C   0  0  0  0  0  0  0  0  0  0  0  0
  189.1640  175.2940  142.3930 C   0  0  0  0  0  0  0  0  0  0  0  0
  183.0700  178.6350  142.9530 C   0  0  0  0  0  0  0  0  0  0  0  0
  191.0630  176.6010  147.2580 N   0  0  0  0  0  2  0  0  0  0  0  0
  189.4000  174.6360  141.2380 N   0  0  0  0  0  0  0  0  0  0  0  0
  188.8440  177.6040  147.0010 N   0  0  0  0  0  0  0  0  0  0  0  0
  186.3120  177.3890  143.7920 C   0  0  0  0  0  0  0  0  0  0  0  0
  187.5740  176.7240  143.7330 C   0  0  0  0  0  0  0  0  0  0  0  0
  191.2630  177.1240  148.5990 C   0  0  0  0  0  1  0  0  0  0  0  0
  191.1920  174.3550  142.5810 C   0  0  0  0  0  3  0  0  0  0  0  0
  181.9210  178.9730  142.4380 C   0  0  0  0  0  3  0  0  0  0  0  0
  190.7310  173.3310  138.9670 N   0  0  0  0  0  2  0  0  0  0  0  0
  191.2410  173.2680  140.3050 C   0  0  0  0  0  0  0  0  0  0  0  0
  192.2320  171.8300  137.9860 O   0  0  0  0  0  0  0  0  0  0  0  0
  192.2200  172.5260  140.5860 O   0  0  0  0  0  0  0  0  0  0  0  0
  191.2470  172.6060  137.8420 C   0  0  0  0  0  0  0  0  0  0  0  0
  190.6400  172.7640  136.5480 N   0  0  0  0  0  0  0  0  0  0  0  0
  190.4490  170.5710  135.4630 C   0  0  0  0  0  2  0  0  0  0  0  0
  191.0890  171.9500  135.4170 C   0  0  0  0  0  3  0  0  0  0  0  0
  189.9090  171.6170  134.5170 C   0  0  0  0  0  2  0  0  0  0  0  0
  189.3970  173.5180  136.4190 C   0  0  0  0  0  2  0  0  0  0  0  0
  188.5260  175.3220  134.9650 C   0  0  0  0  0  1  0  0  0  0  0  0
  189.6770  174.8980  135.8530 C   0  0  0  0  0  2  0  0  0  0  0  0
  181.4010  178.2550  141.2450 C   0  0  0  0  0  3  0  0  0  0  0  0
  180.3150  179.0910  140.5970 C   0  0  0  0  0  2  0  0  0  0  0  0
  179.9420  177.9150  141.4710 C   0  0  0  0  0  2  0  0  0  0  0  0
  1  2  1  0  0  0  0
  2 21  1  0  0  0  0
  3  6  1  0  0  0  0
  4  9  1  0  0  0  0
  5 23  1  0  0  0  0
  6  8  1  0  0  0  0
  7 14  1  0  0  0  0
  7 12  1  0  0  0  0
  9 14  2  0  0  0  0
 10 11  1  0  0  0  0
 10 20  1  0  0  0  0
 11  3  1  0  0  0  0
 12  8  2  0  0  0  0
 12 19  1  0  0  0  0
 13 19  2  0  0  0  0
 13 17  1  0  0  0  0
 14 13  1  0  0  0  0
 15  2  2  0  0  0  0
 15  4  1  0  0  0  0
 16 11  2  0  0  0  0
 17 22  1  0  0  0  0
 18  5  2  0  0  0  0
 18 15  1  0  0  0  0
 20  6  2  0  0  0  0
 21 20  1  0  0  0  0
 21  7  2  0  0  0  0
 23  4  2  0  0  0  0
 24 16  2  0  0  0  0
 25 26  1  0  0  0  0
 26 28  2  0  0  0  0
 26  5  1  0  0  0  0
 29 27  2  0  0  0  0
 29 25  1  0  0  0  0
 30 29  1  0  0  0  0
 32 31  1  0  0  0  0
 32 30  1  0  0  0  0
 33 32  1  0  0  0  0
 33 31  1  0  0  0  0
 34 30  1  0  0  0  0
 35 36  1  0  0  0  0
 36 34  1  0  0  0  0
 37 39  1  0  0  0  0
 37 24  1  0  0  0  0
 38 37  1  0  0  0  0
 38 39  1  0  0  0  0
M  END
>  <MODEL>
1

>  <REMARK>
 VINA RESULT:      -7.7      0.000      0.000
  Name = 
  5 active torsions:
  status: ('A' for Active; 'I' for Inactive)
    1  A    between atoms: C_2  and  C_39
    2  A    between atoms: C_8  and  C_20
    3  A    between atoms: C_8  and  N_38
    4  A    between atoms: C_9  and  C_12
    5  A    between atoms: C_32  and  N_38
                            x       y       z     vdW  Elec       q    Type
                         _______ _______ _______ _____ _____    ______ ____

>  <TORSDO>
F 5

$$$$
=
 OpenBabel11042417313D

 39 45  0  0  0  0  0  0  0  0999 V2000
  190.9710  173.1350  143.2670 O   0  0  0  0  0  1  0  0  0  0  0  0
  190.6020  172.9980  141.9300 C   0  0  0  0  0  0  0  0  0  0  0  0
  193.6040  169.2280  141.8210 N   0  0  0  0  0  2  0  0  0  0  0  0
  189.0890  174.1130  140.2180 C   0  0  0  0  0  0  0  0  0  0  0  0
  188.3420  175.6450  141.5830 C   0  0  0  0  0  0  0  0  0  0  0  0
  192.7030  170.0040  141.0520 C   0  0  0  0  0  0  0  0  0  0  0  0
  190.9020  171.6840  139.8100 C   0  0  0  0  0  0  0  0  0  0  0  0
  192.4110  169.7690  139.7100 C   0  0  0  0  0  3  0  0  0  0  0  0
  189.2550  173.3900  139.0540 C   0  0  0  0  0  3  0  0  0  0  0  0
  192.6430  171.0200  143.1730 C   0  0  0  0  0  2  0  0  0  0  0  0
  193.5650  169.8460  143.1020 C   0  0  0  0  0  0  0  0  0  0  0  0
  191.4990  170.6360  139.1160 C   0  0  0  0  0  0  0  0  0  0  0  0
  190.2250  171.5910  137.7090 C   0  0  0  0  0  0  0  0  0  0  0  0
  190.0790  172.2970  138.8920 C   0  0  0  0  0  0  0  0  0  0  0  0
  189.6720  173.9470  141.4710 C   0  0  0  0  0  0  0  0  0  0  0  0
  194.2690  169.4180  144.1110 C   0  0  0  0  0  0  0  0  0  0  0  0
  189.5400  171.8980  136.4930 N   0  0  0  0  0  2  0  0  0  0  0  0
  189.2010  174.9000  142.3020 N   0  0  0  0  0  0  0  0  0  0  0  0
  191.0950  170.5660  137.8340 N   0  0  0  0  0  0  0  0  0  0  0  0
  192.1180  171.0470  141.7690 C   0  0  0  0  0  0  0  0  0  0  0  0
  191.1810  171.9450  141.1750 C   0  0  0  0  0  0  0  0  0  0  0  0
  189.7390  171.1140  135.2860 C   0  0  0  0  0  1  0  0  0  0  0  0
  188.2380  175.1970  140.2830 C   0  0  0  0  0  3  0  0  0  0  0  0
  194.9730  168.9900  145.1220 C   0  0  0  0  0  3  0  0  0  0  0  0
  187.3570  176.8590  143.5430 N   0  0  0  0  0  2  0  0  0  0  0  0
  187.6130  176.7920  142.1350 C   0  0  0  0  0  0  0  0  0  0  0  0
  186.2260  178.9050  143.5610 O   0  0  0  0  0  0  0  0  0  0  0  0
  187.2190  177.7080  141.3650 O   0  0  0  0  0  0  0  0  0  0  0  0
  186.6680  177.9220  144.2170 C   0  0  0  0  0  0  0  0  0  0  0  0
  186.4810  177.8650  145.6420 N   0  0  0  0  0  0  0  0  0  0  0  0
  184.2060  178.5560  146.2470 C   0  0  0  0  0  2  0  0  0  0  0  0
  185.6880  178.8880  146.3240 C   0  0  0  0  0  3  0  0  0  0  0  0
  184.9720  178.2790  147.5190 C   0  0  0  0  0  2  0  0  0  0  0  0
  186.8330  176.6500  146.3700 C   0  0  0  0  0  2  0  0  0  0  0  0
  188.8850  175.3410  146.8150 C   0  0  0  0  0  1  0  0  0  0  0  0
  188.2700  176.7240  146.8520 C   0  0  0  0  0  2  0  0  0  0  0  0
  194.6420  169.4350  146.5010 C   0  0  0  0  0  3  0  0  0  0  0  0
  195.7160  168.9460  147.4520 C   0  0  0  0  0  2  0  0  0  0  0  0
  194.3940  168.2160  147.3670 C   0  0  0  0  0  2  0  0  0  0  0  0
  2  1  1  0  0  0  0
  3 11  1  0  0  0  0
  4 23  1  0  0  0  0
  4 15  1  0  0  0  0
  5 26  1  0  0  0  0
  5 18  1  0  0  0  0
  6 20  2  0  0  0  0
  6  3  1  0  0  0  0
  7 21  1  0  0  0  0
  8  6  1  0  0  0  0
  9  4  2  0  0  0  0
 11 10  1  0  0  0  0
 11 16  2  0  0  0  0
 12  8  2  0  0  0  0
 12  7  1  0  0  0  0
 13 19  2  0  0  0  0
 13 14  1  0  0  0  0
 14  9  1  0  0  0  0
 14  7  2  0  0  0  0
 15  2  1  0  0  0  0
 15 18  2  0  0  0  0
 16 24  2  0  0  0  0
 17 13  1  0  0  0  0
 19 12  1  0  0  0  0
 20 10  1  0  0  0  0
 21 20  1  0  0  0  0
 21  2  2  0  0  0  0
 22 17  1  0  0  0  0
 23  5  2  0  0  0  0
 24 37  1  0  0  0  0
 25 29  1  0  0  0  0
 26 25  1  0  0  0  0
 27 29  2  0  0  0  0
 28 26  2  0  0  0  0
 29 30  1  0  0  0  0
 30 32  1  0  0  0  0
 30 34  1  0  0  0  0
 31 32  1  0  0  0  0
 31 33  1  0  0  0  0
 32 33  1  0  0  0  0
 34 36  1  0  0  0  0
 35 36  1  0  0  0  0
 37 39  1  0  0  0  0
 37 38  1  0  0  0  0
 39 38  1  0  0  0  0
M  END
>  <MODEL>
2

>  <REMARK>
 VINA RESULT:      -7.6      3.564     11.045
  Name = 
  5 active torsions:
  status: ('A' for Active; 'I' for Inactive)
    1  A    between atoms: C_2  and  C_39
    2  A    between atoms: C_8  and  C_20
    3  A    between atoms: C_8  and  N_38
    4  A    between atoms: C_9  and  C_12
    5  A    between atoms: C_32  and  N_38
                            x       y       z     vdW  Elec       q    Type
                         _______ _______ _______ _____ _____    ______ ____

>  <TORSDO>
F 5

$$$$
=
 OpenBabel11042417313D

 39 45  0  0  0  0  0  0  0  0999 V2000
  187.0210  175.9060  141.3940 O   0  0  0  0  0  1  0  0  0  0  0  0
  187.9090  175.9460  142.4670 C   0  0  0  0  0  0  0  0  0  0  0  0
  184.6230  178.7020  144.6680 N   0  0  0  0  0  2  0  0  0  0  0  0
  190.1980  175.0500  143.1160 C   0  0  0  0  0  0  0  0  0  0  0  0
  190.5350  173.9900  141.2380 C   0  0  0  0  0  0  0  0  0  0  0  0
  185.8970  178.0990  144.8050 C   0  0  0  0  0  0  0  0  0  0  0  0
  188.3360  176.8110  144.7860 C   0  0  0  0  0  0  0  0  0  0  0  0
  186.7010  178.2090  145.9370 C   0  0  0  0  0  3  0  0  0  0  0  0
  190.4320  175.5260  144.3910 C   0  0  0  0  0  3  0  0  0  0  0  0
  185.2030  177.4510  142.6530 C   0  0  0  0  0  2  0  0  0  0  0  0
  184.2080  178.3090  143.3650 C   0  0  0  0  0  0  0  0  0  0  0  0
  187.9240  177.5470  145.8930 C   0  0  0  0  0  0  0  0  0  0  0  0
  189.8400  176.7840  146.4050 C   0  0  0  0  0  0  0  0  0  0  0  0
  189.5770  176.3200  145.1260 C   0  0  0  0  0  0  0  0  0  0  0  0
  189.1030  175.2290  142.2760 C   0  0  0  0  0  0  0  0  0  0  0  0
  183.0640  178.6660  142.8540 C   0  0  0  0  0  0  0  0  0  0  0  0
  191.0330  176.5020  147.1390 N   0  0  0  0  0  2  0  0  0  0  0  0
  189.3260  174.5690  141.1210 N   0  0  0  0  0  0  0  0  0  0  0  0
  188.8300  177.5390  146.8880 N   0  0  0  0  0  0  0  0  0  0  0  0
  186.2870  177.3680  143.6840 C   0  0  0  0  0  0  0  0  0  0  0  0
  187.5380  176.6830  143.6220 C   0  0  0  0  0  0  0  0  0  0  0  0
  191.2450  177.0200  148.4800 C   0  0  0  0  0  1  0  0  0  0  0  0
  191.1160  174.2580  142.4590 C   0  0  0  0  0  3  0  0  0  0  0  0
  181.9190  179.0220  142.3430 C   0  0  0  0  0  3  0  0  0  0  0  0
  192.0350  173.7810  139.2400 N   0  0  0  0  0  2  0  0  0  0  0  0
  191.1430  173.1730  140.1820 C   0  0  0  0  0  0  0  0  0  0  0  0
  192.5270  171.8660  137.9910 O   0  0  0  0  0  0  0  0  0  0  0  0
  190.8750  171.9430  140.1130 O   0  0  0  0  0  0  0  0  0  0  0  0
  192.7050  173.1020  138.1680 C   0  0  0  0  0  0  0  0  0  0  0  0
  193.5800  173.8350  137.2920 N   0  0  0  0  0  0  0  0  0  0  0  0
  195.6010  173.6820  135.9090 C   0  0  0  0  0  2  0  0  0  0  0  0
  194.1840  173.1780  136.1320 C   0  0  0  0  0  3  0  0  0  0  0  0
  195.3760  172.3430  136.5700 C   0  0  0  0  0  2  0  0  0  0  0  0
  193.6450  175.2910  137.3860 C   0  0  0  0  0  2  0  0  0  0  0  0
  193.4380  177.0300  135.6380 C   0  0  0  0  0  1  0  0  0  0  0  0
  192.7110  175.9230  136.3710 C   0  0  0  0  0  2  0  0  0  0  0  0
  181.3850  178.3140  141.1500 C   0  0  0  0  0  3  0  0  0  0  0  0
  180.3010  179.1610  140.5130 C   0  0  0  0  0  2  0  0  0  0  0  0
  179.9240  177.9840  141.3840 C   0  0  0  0  0  2  0  0  0  0  0  0
  1  2  1  0  0  0  0
  2 21  1  0  0  0  0
  3  6  1  0  0  0  0
  4  9  1  0  0  0  0
  5 23  1  0  0  0  0
  6  8  1  0  0  0  0
  7 14  1  0  0  0  0
  7 12  1  0  0  0  0
  9 14  2  0  0  0  0
 10 11  1  0  0  0  0
 10 20  1  0  0  0  0
 11  3  1  0  0  0  0
 12  8  2  0  0  0  0
 12 19  1  0  0  0  0
 13 19  2  0  0  0  0
 13 17  1  0  0  0  0
 14 13  1  0  0  0  0
 15  2  2  0  0  0  0
 15  4  1  0  0  0  0
 16 11  2  0  0  0  0
 17 22  1  0  0  0  0
 18  5  2  0  0  0  0
 18 15  1  0  0  0  0
 20  6  2  0  0  0  0
 21 20  1  0  0  0  0
 21  7  2  0  0  0  0
 23  4  2  0  0  0  0
 24 16  2  0  0  0  0
 25 26  1  0  0  0  0
 26  5  1  0  0  0  0
 27 29  2  0  0  0  0
 28 26  2  0  0  0  0
 29 25  1  0  0  0  0
 30 34  1  0  0  0  0
 30 29  1  0  0  0  0
 31 32  1  0  0  0  0
 31 33  1  0  0  0  0
 32 33  1  0  0  0  0
 32 30  1  0  0  0  0
 35 36  1  0  0  0  0
 36 34  1  0  0  0  0
 37 39  1  0  0  0  0
 37 24  1  0  0  0  0
 38 37  1  0  0  0  0
 38 39  1  0  0  0  0
M  END
>  <MODEL>
3

>  <REMARK>
 VINA RESULT:      -7.3      1.723      2.029
  Name = 
  5 active torsions:
  status: ('A' for Active; 'I' for Inactive)
    1  A    between atoms: C_2  and  C_39
    2  A    between atoms: C_8  and  C_20
    3  A    between atoms: C_8  and  N_38
    4  A    between atoms: C_9  and  C_12
    5  A    between atoms: C_32  and  N_38
                            x       y       z     vdW  Elec       q    Type
                         _______ _______ _______ _____ _____    ______ ____

>  <TORSDO>
F 5

$$$$
=
 OpenBabel11042417313D

 39 45  0  0  0  0  0  0  0  0999 V2000
  190.1840  173.4280  141.8190 O   0  0  0  0  0  1  0  0  0  0  0  0
  191.2540  173.1330  142.6620 C   0  0  0  0  0  0  0  0  0  0  0  0
  192.8040  170.2210  139.1470 N   0  0  0  0  0  2  0  0  0  0  0  0
  192.1220  173.7470  144.9710 C   0  0  0  0  0  0  0  0  0  0  0  0
  190.4880  175.1190  145.4380 C   0  0  0  0  0  0  0  0  0  0  0  0
  193.0870  170.7070  140.4470 C   0  0  0  0  0  0  0  0  0  0  0  0
  193.3770  171.8230  142.9520 C   0  0  0  0  0  0  0  0  0  0  0  0
  194.1990  170.3370  141.2000 C   0  0  0  0  0  3  0  0  0  0  0  0
  193.2890  173.0270  145.1300 C   0  0  0  0  0  3  0  0  0  0  0  0
  191.0780  171.7900  139.8720 C   0  0  0  0  0  2  0  0  0  0  0  0
  191.5880  170.8770  138.8040 C   0  0  0  0  0  0  0  0  0  0  0  0
  194.3130  170.9190  142.4590 C   0  0  0  0  0  0  0  0  0  0  0  0
  195.0110  171.4530  144.3930 C   0  0  0  0  0  0  0  0  0  0  0  0
  193.8370  172.1640  144.2050 C   0  0  0  0  0  0  0  0  0  0  0  0
  191.2340  173.7970  143.9010 C   0  0  0  0  0  0  0  0  0  0  0  0
  190.9890  170.6940  137.6620 C   0  0  0  0  0  0  0  0  0  0  0  0
  195.8170  171.5170  145.5710 N   0  0  0  0  0  2  0  0  0  0  0  0
  190.2310  174.6480  144.2040 N   0  0  0  0  0  0  0  0  0  0  0  0
  195.3150  170.6840  143.3250 N   0  0  0  0  0  0  0  0  0  0  0  0
  192.1350  171.6110  140.9190 C   0  0  0  0  0  0  0  0  0  0  0  0
  192.2380  172.2170  142.2080 C   0  0  0  0  0  0  0  0  0  0  0  0
  197.0400  170.7440  145.7030 C   0  0  0  0  0  1  0  0  0  0  0  0
  191.6510  174.5900  145.9570 C   0  0  0  0  0  3  0  0  0  0  0  0
  190.3890  170.5120  136.5190 C   0  0  0  0  0  3  0  0  0  0  0  0
  188.4410  176.5650  145.4810 N   0  0  0  0  0  2  0  0  0  0  0  0
  189.6230  176.0800  146.1300 C   0  0  0  0  0  0  0  0  0  0  0  0
  187.6880  177.9600  147.2010 O   0  0  0  0  0  0  0  0  0  0  0  0
  189.9270  176.4700  147.2890 O   0  0  0  0  0  0  0  0  0  0  0  0
  187.5030  177.4950  146.0420 C   0  0  0  0  0  0  0  0  0  0  0  0
  186.3510  177.8980  145.2810 N   0  0  0  0  0  0  0  0  0  0  0  0
  184.0190  178.6570  145.3500 C   0  0  0  0  0  2  0  0  0  0  0  0
  185.4470  178.9260  145.7990 C   0  0  0  0  0  3  0  0  0  0  0  0
  184.4440  178.3010  146.7550 C   0  0  0  0  0  2  0  0  0  0  0  0
  186.2340  177.5020  143.8810 C   0  0  0  0  0  2  0  0  0  0  0  0
  187.8840  178.0760  142.1290 C   0  0  0  0  0  1  0  0  0  0  0  0
  186.7490  178.6080  142.9780 C   0  0  0  0  0  2  0  0  0  0  0  0
  189.3380  171.4630  136.0710 C   0  0  0  0  0  3  0  0  0  0  0  0
  189.5470  171.7790  134.6030 C   0  0  0  0  0  2  0  0  0  0  0  0
  189.9950  172.7650  135.6590 C   0  0  0  0  0  2  0  0  0  0  0  0
  1  2  1  0  0  0  0
  2 15  1  0  0  0  0
  3  6  1  0  0  0  0
  4  9  2  0  0  0  0
  4 23  1  0  0  0  0
  5 23  2  0  0  0  0
  5 26  1  0  0  0  0
  6 20  2  0  0  0  0
  6  8  1  0  0  0  0
  7 14  2  0  0  0  0
  8 12  2  0  0  0  0
 10 20  1  0  0  0  0
 11  3  1  0  0  0  0
 11 10  1  0  0  0  0
 12  7  1  0  0  0  0
 12 19  1  0  0  0  0
 13 17  1  0  0  0  0
 14 13  1  0  0  0  0
 14  9  1  0  0  0  0
 15 18  2  0  0  0  0
 15  4  1  0  0  0  0
 16 11  2  0  0  0  0
 17 22  1  0  0  0  0
 18  5  1  0  0  0  0
 19 13  2  0  0  0  0
 20 21  1  0  0  0  0
 21  2  2  0  0  0  0
 21  7  1  0  0  0  0
 24 16  2  0  0  0  0
 25 29  1  0  0  0  0
 25 26  1  0  0  0  0
 26 28  2  0  0  0  0
 29 27  2  0  0  0  0
 30 32  1  0  0  0  0
 30 29  1  0  0  0  0
 31 32  1  0  0  0  0
 31 33  1  0  0  0  0
 32 33  1  0  0  0  0
 34 30  1  0  0  0  0
 35 36  1  0  0  0  0
 36 34  1  0  0  0  0
 37 24  1  0  0  0  0
 38 39  1  0  0  0  0
 38 37  1  0  0  0  0
 39 37  1  0  0  0  0
M  END
>  <MODEL>
4

>  <REMARK>
 VINA RESULT:      -7.2      3.372      9.513
  Name = 
  5 active torsions:
  status: ('A' for Active; 'I' for Inactive)
    1  A    between atoms: C_2  and  C_39
    2  A    between atoms: C_8  and  C_20
    3  A    between atoms: C_8  and  N_38
    4  A    between atoms: C_9  and  C_12
    5  A    between atoms: C_32  and  N_38
                            x       y       z     vdW  Elec       q    Type
                         _______ _______ _______ _____ _____    ______ ____

>  <TORSDO>
F 5

$$$$
=
 OpenBabel11042417313D

 39 45  0  0  0  0  0  0  0  0999 V2000
  187.3640  176.0300  141.5180 O   0  0  0  0  0  1  0  0  0  0  0  0
  188.2330  176.0590  142.6070 C   0  0  0  0  0  0  0  0  0  0  0  0
  184.8370  178.6540  144.8360 N   0  0  0  0  0  2  0  0  0  0  0  0
  190.5350  175.2060  143.2670 C   0  0  0  0  0  0  0  0  0  0  0  0
  190.9320  174.2150  141.3620 C   0  0  0  0  0  0  0  0  0  0  0  0
  186.1250  178.0820  144.9770 C   0  0  0  0  0  0  0  0  0  0  0  0
  188.5980  176.8620  144.9580 C   0  0  0  0  0  0  0  0  0  0  0  0
  186.9070  178.1770  146.1250 C   0  0  0  0  0  3  0  0  0  0  0  0
  190.7350  175.6470  144.5600 C   0  0  0  0  0  3  0  0  0  0  0  0
  185.4840  177.4850  142.7930 C   0  0  0  0  0  2  0  0  0  0  0  0
  184.4540  178.2920  143.5150 C   0  0  0  0  0  0  0  0  0  0  0  0
  188.1480  177.5510  146.0810 C   0  0  0  0  0  0  0  0  0  0  0  0
  190.0760  176.8230  146.6020 C   0  0  0  0  0  0  0  0  0  0  0  0
  189.8470  176.3930  145.3040 C   0  0  0  0  0  0  0  0  0  0  0  0
  189.4490  175.3820  142.4140 C   0  0  0  0  0  0  0  0  0  0  0  0
  183.3090  178.6340  142.9960 C   0  0  0  0  0  0  0  0  0  0  0  0
  191.2640  176.5500  147.3470 N   0  0  0  0  0  2  0  0  0  0  0  0
  189.7090  174.7650  141.2420 N   0  0  0  0  0  0  0  0  0  0  0  0
  189.0380  177.5350  147.0910 N   0  0  0  0  0  0  0  0  0  0  0  0
  186.5530  177.3970  143.8400 C   0  0  0  0  0  0  0  0  0  0  0  0
  187.8240  176.7490  143.7780 C   0  0  0  0  0  0  0  0  0  0  0  0
  191.4400  177.0310  148.7070 C   0  0  0  0  0  1  0  0  0  0  0  0
  191.4860  174.4610  142.6000 C   0  0  0  0  0  3  0  0  0  0  0  0
  182.1630  178.9750  142.4760 C   0  0  0  0  0  3  0  0  0  0  0  0
  191.2040  172.0840  140.0690 N   0  0  0  0  0  2  0  0  0  0  0  0
  191.5790  173.4490  140.2910 C   0  0  0  0  0  0  0  0  0  0  0  0
  192.6320  171.6550  138.2670 O   0  0  0  0  0  0  0  0  0  0  0  0
  192.4580  174.0000  139.5750 O   0  0  0  0  0  0  0  0  0  0  0  0
  191.7460  171.2250  139.0560 C   0  0  0  0  0  0  0  0  0  0  0  0
  191.2770  169.8700  138.9400 N   0  0  0  0  0  0  0  0  0  0  0  0
  190.8350  168.1660  137.2310 C   0  0  0  0  0  2  0  0  0  0  0  0
  191.8970  168.9530  137.9830 C   0  0  0  0  0  3  0  0  0  0  0  0
  191.5090  169.3420  136.5650 C   0  0  0  0  0  2  0  0  0  0  0  0
  190.3880  169.3220  139.9610 C   0  0  0  0  0  2  0  0  0  0  0  0
  191.6060  169.0330  142.0960 C   0  0  0  0  0  1  0  0  0  0  0  0
  191.1390  168.3350  140.8360 C   0  0  0  0  0  2  0  0  0  0  0  0
  181.6680  178.2910  141.2520 C   0  0  0  0  0  3  0  0  0  0  0  0
  180.6650  179.1880  140.5540 C   0  0  0  0  0  2  0  0  0  0  0  0
  180.1830  178.0300  141.4000 C   0  0  0  0  0  2  0  0  0  0  0  0
  1  2  1  0  0  0  0
  2 21  1  0  0  0  0
  3  6  1  0  0  0  0
  4  9  1  0  0  0  0
  5 23  1  0  0  0  0
  6  8  1  0  0  0  0
  7 14  1  0  0  0  0
  7 12  1  0  0  0  0
  9 14  2  0  0  0  0
 10 11  1  0  0  0  0
 10 20  1  0  0  0  0
 11  3  1  0  0  0  0
 12  8  2  0  0  0  0
 12 19  1  0  0  0  0
 13 19  2  0  0  0  0
 13 17  1  0  0  0  0
 14 13  1  0  0  0  0
 15  2  2  0  0  0  0
 15  4  1  0  0  0  0
 16 11  2  0  0  0  0
 17 22  1  0  0  0  0
 18  5  2  0  0  0  0
 18 15  1  0  0  0  0
 20  6  2  0  0  0  0
 21 20  1  0  0  0  0
 21  7  2  0  0  0  0
 23  4  2  0  0  0  0
 24 16  2  0  0  0  0
 25 26  1  0  0  0  0
 26  5  1  0  0  0  0
 27 29  2  0  0  0  0
 28 26  2  0  0  0  0
 29 25  1  0  0  0  0
 30 29  1  0  0  0  0
 30 34  1  0  0  0  0
 31 32  1  0  0  0  0
 32 30  1  0  0  0  0
 33 31  1  0  0  0  0
 33 32  1  0  0  0  0
 34 36  1  0  0  0  0
 36 35  1  0  0  0  0
 37 39  1  0  0  0  0
 37 24  1  0  0  0  0
 38 37  1  0  0  0  0
 38 39  1  0  0  0  0
M  END
>  <MODEL>
5

>  <REMARK>
 VINA RESULT:      -7.1      1.852      2.606
  Name = 
  5 active torsions:
  status: ('A' for Active; 'I' for Inactive)
    1  A    between atoms: C_2  and  C_39
    2  A    between atoms: C_8  and  C_20
    3  A    between atoms: C_8  and  N_38
    4  A    between atoms: C_9  and  C_12
    5  A    between atoms: C_32  and  N_38
                            x       y       z     vdW  Elec       q    Type
                         _______ _______ _______ _____ _____    ______ ____

>  <TORSDO>
F 5

$$$$
=
 OpenBabel11042417313D

 39 45  0  0  0  0  0  0  0  0999 V2000
  189.9600  176.1420  141.9570 O   0  0  0  0  0  1  0  0  0  0  0  0
  189.2980  176.5160  143.1250 C   0  0  0  0  0  0  0  0  0  0  0  0
  185.4920  177.4040  140.3040 N   0  0  0  0  0  2  0  0  0  0  0  0
  189.7390  176.7010  145.6230 C   0  0  0  0  0  0  0  0  0  0  0  0
  191.8040  176.0000  145.5100 C   0  0  0  0  0  0  0  0  0  0  0  0
  185.9640  177.4240  141.6390 C   0  0  0  0  0  0  0  0  0  0  0  0
  187.1540  177.3590  144.1260 C   0  0  0  0  0  0  0  0  0  0  0  0
  185.2030  177.8210  142.7360 C   0  0  0  0  0  3  0  0  0  0  0  0
  188.5600  177.1640  146.1720 C   0  0  0  0  0  3  0  0  0  0  0  0
  187.8120  176.6480  140.4060 C   0  0  0  0  0  2  0  0  0  0  0  0
  186.6120  176.9350  139.5620 C   0  0  0  0  0  0  0  0  0  0  0  0
  185.8350  177.7760  143.9750 C   0  0  0  0  0  0  0  0  0  0  0  0
  186.2360  177.9190  146.0560 C   0  0  0  0  0  0  0  0  0  0  0  0
  187.4060  177.4550  145.4770 C   0  0  0  0  0  0  0  0  0  0  0  0
  190.0650  176.4170  144.3000 C   0  0  0  0  0  0  0  0  0  0  0  0
  186.5810  176.7710  138.2700 C   0  0  0  0  0  0  0  0  0  0  0  0
  186.0650  178.1600  147.4540 N   0  0  0  0  0  2  0  0  0  0  0  0
  191.3430  175.9860  144.2470 N   0  0  0  0  0  0  0  0  0  0  0  0
  185.2620  178.1200  145.1420 N   0  0  0  0  0  0  0  0  0  0  0  0
  187.2870  177.0020  141.7640 C   0  0  0  0  0  0  0  0  0  0  0  0
  187.9510  176.9500  143.0280 C   0  0  0  0  0  0  0  0  0  0  0  0
  184.8090  178.6480  147.9970 C   0  0  0  0  0  1  0  0  0  0  0  0
  190.8470  176.4360  146.4020 C   0  0  0  0  0  3  0  0  0  0  0  0
  186.5510  176.6060  136.9770 C   0  0  0  0  0  3  0  0  0  0  0  0
  193.7910  174.5050  145.1870 N   0  0  0  0  0  2  0  0  0  0  0  0
  193.1660  175.5950  145.8750 C   0  0  0  0  0  0  0  0  0  0  0  0
  195.8350  174.5450  146.3220 O   0  0  0  0  0  0  0  0  0  0  0  0
  193.7750  176.2120  146.7900 O   0  0  0  0  0  0  0  0  0  0  0  0
  195.1150  174.0120  145.4330 C   0  0  0  0  0  0  0  0  0  0  0  0
  195.6230  172.9070  144.6650 N   0  0  0  0  0  0  0  0  0  0  0  0
  196.8140  171.3410  146.1310 C   0  0  0  0  0  2  0  0  0  0  0  0
  196.9290  172.3270  144.9790 C   0  0  0  0  0  3  0  0  0  0  0  0
  196.9100  170.8300  144.7140 C   0  0  0  0  0  2  0  0  0  0  0  0
  194.7310  172.1790  143.7670 C   0  0  0  0  0  2  0  0  0  0  0  0
  194.6730  171.5390  141.3770 C   0  0  0  0  0  1  0  0  0  0  0  0
  194.8940  172.6820  142.3440 C   0  0  0  0  0  2  0  0  0  0  0  0
  187.6020  175.7980  136.3050 C   0  0  0  0  0  3  0  0  0  0  0  0
  188.3000  176.6550  135.2680 C   0  0  0  0  0  2  0  0  0  0  0  0
  187.2510  175.6540  134.8380 C   0  0  0  0  0  2  0  0  0  0  0  0
  1  2  1  0  0  0  0
  2 15  1  0  0  0  0
  3  6  1  0  0  0  0
  4  9  2  0  0  0  0
  4 23  1  0  0  0  0
  5 26  1  0  0  0  0
  5 23  2  0  0  0  0
  6 20  2  0  0  0  0
  6  8  1  0  0  0  0
  7 14  2  0  0  0  0
  8 12  2  0  0  0  0
 10 20  1  0  0  0  0
 11  3  1  0  0  0  0
 11 10  1  0  0  0  0
 12  7  1  0  0  0  0
 12 19  1  0  0  0  0
 13 17  1  0  0  0  0
 14 13  1  0  0  0  0
 14  9  1  0  0  0  0
 15  4  1  0  0  0  0
 16 11  2  0  0  0  0
 17 22  1  0  0  0  0
 18 15  2  0  0  0  0
 18  5  1  0  0  0  0
 19 13  2  0  0  0  0
 20 21  1  0  0  0  0
 21  2  2  0  0  0  0
 21  7  1  0  0  0  0
 24 16  2  0  0  0  0
 25 29  1  0  0  0  0
 25 26  1  0  0  0  0
 26 28  2  0  0  0  0
 29 27  2  0  0  0  0
 30 32  1  0  0  0  0
 30 29  1  0  0  0  0
 32 31  1  0  0  0  0
 33 32  1  0  0  0  0
 33 31  1  0  0  0  0
 34 30  1  0  0  0  0
 35 36  1  0  0  0  0
 36 34  1  0  0  0  0
 37 24  1  0  0  0  0
 38 37  1  0  0  0  0
 39 38  1  0  0  0  0
 39 37  1  0  0  0  0
M  END
>  <MODEL>
6

>  <REMARK>
 VINA RESULT:      -7.0      3.627      6.694
  Name = 
  5 active torsions:
  status: ('A' for Active; 'I' for Inactive)
    1  A    between atoms: C_2  and  C_39
    2  A    between atoms: C_8  and  C_20
    3  A    between atoms: C_8  and  N_38
    4  A    between atoms: C_9  and  C_12
    5  A    between atoms: C_32  and  N_38
                            x       y       z     vdW  Elec       q    Type
                         _______ _______ _______ _____ _____    ______ ____

>  <TORSDO>
F 5

$$$$
=
 OpenBabel11042417313D

 39 45  0  0  0  0  0  0  0  0999 V2000
  189.9500  175.4170  142.3930 O   0  0  0  0  0  1  0  0  0  0  0  0
  191.2330  175.0540  142.7940 C   0  0  0  0  0  0  0  0  0  0  0  0
  189.9900  176.7020  147.1500 N   0  0  0  0  0  2  0  0  0  0  0  0
  193.3400  174.0120  141.8250 C   0  0  0  0  0  0  0  0  0  0  0  0
  192.5280  173.7610  139.8140 C   0  0  0  0  0  0  0  0  0  0  0  0
  191.0350  176.1120  146.3990 C   0  0  0  0  0  0  0  0  0  0  0  0
  192.8750  174.9670  144.6930 C   0  0  0  0  0  0  0  0  0  0  0  0
  192.2890  175.7900  146.9140 C   0  0  0  0  0  3  0  0  0  0  0  0
  194.2420  173.9640  142.8690 C   0  0  0  0  0  3  0  0  0  0  0  0
  189.2850  176.3320  144.8420 C   0  0  0  0  0  2  0  0  0  0  0  0
  188.9350  176.8350  146.2050 C   0  0  0  0  0  0  0  0  0  0  0  0
  193.1920  175.2140  146.0260 C   0  0  0  0  0  0  0  0  0  0  0  0
  194.9370  174.3410  145.1850 C   0  0  0  0  0  0  0  0  0  0  0  0
  194.0110  174.4010  144.1560 C   0  0  0  0  0  0  0  0  0  0  0  0
  192.0320  174.4840  141.7870 C   0  0  0  0  0  0  0  0  0  0  0  0
  187.7750  177.3430  146.5120 C   0  0  0  0  0  0  0  0  0  0  0  0
  196.2590  173.8160  145.0540 N   0  0  0  0  0  2  0  0  0  0  0  0
  191.5440  174.3220  140.5390 N   0  0  0  0  0  0  0  0  0  0  0  0
  194.4450  174.8370  146.3400 N   0  0  0  0  0  0  0  0  0  0  0  0
  190.6940  175.8740  145.0680 C   0  0  0  0  0  0  0  0  0  0  0  0
  191.6080  175.2840  144.1440 C   0  0  0  0  0  0  0  0  0  0  0  0
  197.1820  173.7820  146.1760 C   0  0  0  0  0  1  0  0  0  0  0  0
  193.6630  173.5480  140.5670 C   0  0  0  0  0  3  0  0  0  0  0  0
  186.6150  177.8520  146.8190 C   0  0  0  0  0  3  0  0  0  0  0  0
  192.1040  172.0710  138.0100 N   0  0  0  0  0  2  0  0  0  0  0  0
  192.3890  173.4220  138.3930 C   0  0  0  0  0  0  0  0  0  0  0  0
  192.0340  172.4070  135.6970 O   0  0  0  0  0  0  0  0  0  0  0  0
  192.5210  174.3230  137.5220 O   0  0  0  0  0  0  0  0  0  0  0  0
  191.9330  171.6040  136.6650 C   0  0  0  0  0  0  0  0  0  0  0  0
  191.6460  170.2160  136.4200 N   0  0  0  0  0  0  0  0  0  0  0  0
  192.9640  169.3430  134.5420 C   0  0  0  0  0  2  0  0  0  0  0  0
  191.5770  169.7060  135.0490 C   0  0  0  0  0  3  0  0  0  0  0  0
  192.0280  168.2550  135.0110 C   0  0  0  0  0  2  0  0  0  0  0  0
  191.7070  169.2580  137.5210 C   0  0  0  0  0  2  0  0  0  0  0  0
  190.3640  169.1440  139.5960 C   0  0  0  0  0  1  0  0  0  0  0  0
  190.3190  169.0220  138.0880 C   0  0  0  0  0  2  0  0  0  0  0  0
  185.4520  177.6490  145.9160 C   0  0  0  0  0  3  0  0  0  0  0  0
  184.9620  178.9980  145.4270 C   0  0  0  0  0  2  0  0  0  0  0  0
  184.2260  178.2860  146.5390 C   0  0  0  0  0  2  0  0  0  0  0  0
  1  2  1  0  0  0  0
  2 21  1  0  0  0  0
  4  9  1  0  0  0  0
  5 18  2  0  0  0  0
  5 23  1  0  0  0  0
  6  8  1  0  0  0  0
  6  3  1  0  0  0  0
  7 12  1  0  0  0  0
  9 14  2  0  0  0  0
 10 20  1  0  0  0  0
 10 11  1  0  0  0  0
 11 16  2  0  0  0  0
 11  3  1  0  0  0  0
 12 19  1  0  0  0  0
 12  8  2  0  0  0  0
 13 19  2  0  0  0  0
 14  7  1  0  0  0  0
 14 13  1  0  0  0  0
 15  4  1  0  0  0  0
 15  2  2  0  0  0  0
 16 24  2  0  0  0  0
 17 13  1  0  0  0  0
 17 22  1  0  0  0  0
 18 15  1  0  0  0  0
 20  6  2  0  0  0  0
 21  7  2  0  0  0  0
 21 20  1  0  0  0  0
 23  4  2  0  0  0  0
 25 26  1  0  0  0  0
 26  5  1  0  0  0  0
 27 29  2  0  0  0  0
 28 26  2  0  0  0  0
 29 25  1  0  0  0  0
 30 29  1  0  0  0  0
 30 34  1  0  0  0  0
 31 33  1  0  0  0  0
 31 32  1  0  0  0  0
 32 30  1  0  0  0  0
 33 32  1  0  0  0  0
 34 36  1  0  0  0  0
 36 35  1  0  0  0  0
 37 39  1  0  0  0  0
 37 24  1  0  0  0  0
 38 37  1  0  0  0  0
 38 39  1  0  0  0  0
M  END
>  <MODEL>
7

>  <REMARK>
 VINA RESULT:      -7.0      2.995      4.905
  Name = 
  5 active torsions:
  status: ('A' for Active; 'I' for Inactive)
    1  A    between atoms: C_2  and  C_39
    2  A    between atoms: C_8  and  C_20
    3  A    between atoms: C_8  and  N_38
    4  A    between atoms: C_9  and  C_12
    5  A    between atoms: C_32  and  N_38
                            x       y       z     vdW  Elec       q    Type
                         _______ _______ _______ _____ _____    ______ ____

>  <TORSDO>
F 5

$$$$
=
 OpenBabel11042417313D

 39 45  0  0  0  0  0  0  0  0999 V2000
  188.0270  174.5800  143.7480 O   0  0  0  0  0  1  0  0  0  0  0  0
  188.0620  174.6380  142.3560 C   0  0  0  0  0  0  0  0  0  0  0  0
  185.2450  178.5280  142.7680 N   0  0  0  0  0  2  0  0  0  0  0  0
  189.0760  173.3790  140.3940 C   0  0  0  0  0  0  0  0  0  0  0  0
  190.0850  171.8810  141.6210 C   0  0  0  0  0  0  0  0  0  0  0  0
  185.9060  177.6790  141.8470 C   0  0  0  0  0  0  0  0  0  0  0  0
  187.2960  175.8650  140.3030 C   0  0  0  0  0  0  0  0  0  0  0  0
  185.8700  177.8380  140.4640 C   0  0  0  0  0  3  0  0  0  0  0  0
  188.6550  174.0550  139.2660 C   0  0  0  0  0  3  0  0  0  0  0  0
  186.4500  176.7600  143.9440 C   0  0  0  0  0  2  0  0  0  0  0  0
  185.5760  177.9690  144.0340 C   0  0  0  0  0  0  0  0  0  0  0  0
  186.5810  176.9050  139.7160 C   0  0  0  0  0  0  0  0  0  0  0  0
  187.4430  175.8310  138.0980 C   0  0  0  0  0  0  0  0  0  0  0  0
  187.8510  175.1740  139.2480 C   0  0  0  0  0  0  0  0  0  0  0  0
  188.8220  173.6290  141.7390 C   0  0  0  0  0  0  0  0  0  0  0  0
  185.1530  178.4740  145.1570 C   0  0  0  0  0  0  0  0  0  0  0  0
  187.8000  175.4380  136.7720 N   0  0  0  0  0  2  0  0  0  0  0  0
  189.4510  172.6960  142.4840 N   0  0  0  0  0  0  0  0  0  0  0  0
  186.6620  176.8980  138.3730 N   0  0  0  0  0  0  0  0  0  0  0  0
  186.6150  176.6450  142.4590 C   0  0  0  0  0  0  0  0  0  0  0  0
  187.3500  175.6800  141.7070 C   0  0  0  0  0  0  0  0  0  0  0  0
  187.3380  176.1730  135.6070 C   0  0  0  0  0  1  0  0  0  0  0  0
  189.8830  172.2640  140.3110 C   0  0  0  0  0  3  0  0  0  0  0  0
  184.7310  178.9800  146.2830 C   0  0  0  0  0  3  0  0  0  0  0  0
  191.8680  170.8900  143.0770 N   0  0  0  0  0  2  0  0  0  0  0  0
  190.8900  170.7300  142.0430 C   0  0  0  0  0  0  0  0  0  0  0  0
  192.6340  168.6810  143.1310 O   0  0  0  0  0  0  0  0  0  0  0  0
  190.7130  169.6110  141.4920 O   0  0  0  0  0  0  0  0  0  0  0  0
  192.7140  169.8520  143.5930 C   0  0  0  0  0  0  0  0  0  0  0  0
  193.6560  170.1490  144.6390 N   0  0  0  0  0  0  0  0  0  0  0  0
  194.8130  169.2330  146.5990 C   0  0  0  0  0  2  0  0  0  0  0  0
  194.5980  169.1270  145.0980 C   0  0  0  0  0  3  0  0  0  0  0  0
  193.8990  168.1660  146.0470 C   0  0  0  0  0  2  0  0  0  0  0  0
  193.8730  171.5350  145.0460 C   0  0  0  0  0  2  0  0  0  0  0  0
  196.1100  172.5390  145.3820 C   0  0  0  0  0  1  0  0  0  0  0  0
  195.0960  172.1010  144.3470 C   0  0  0  0  0  2  0  0  0  0  0  0
  185.3750  178.5840  147.5630 C   0  0  0  0  0  3  0  0  0  0  0  0
  186.3160  179.6860  148.0070 C   0  0  0  0  0  2  0  0  0  0  0  0
  186.8670  178.4440  147.3430 C   0  0  0  0  0  2  0  0  0  0  0  0
  2  1  1  0  0  0  0
  3 11  1  0  0  0  0
  4 15  1  0  0  0  0
  5 26  1  0  0  0  0
  5 18  1  0  0  0  0
  6 20  2  0  0  0  0
  6  3  1  0  0  0  0
  7 21  1  0  0  0  0
  8  6  1  0  0  0  0
  9  4  2  0  0  0  0
 10 11  1  0  0  0  0
 11 16  2  0  0  0  0
 12  7  1  0  0  0  0
 12  8  2  0  0  0  0
 13 19  2  0  0  0  0
 13 14  1  0  0  0  0
 14  9  1  0  0  0  0
 14  7  2  0  0  0  0
 15  2  1  0  0  0  0
 15 18  2  0  0  0  0
 16 24  2  0  0  0  0
 17 13  1  0  0  0  0
 19 12  1  0  0  0  0
 20 10  1  0  0  0  0
 21  2  2  0  0  0  0
 21 20  1  0  0  0  0
 22 17  1  0  0  0  0
 23  4  1  0  0  0  0
 23  5  2  0  0  0  0
 24 37  1  0  0  0  0
 25 29  1  0  0  0  0
 26 25  1  0  0  0  0
 27 29  2  0  0  0  0
 28 26  2  0  0  0  0
 29 30  1  0  0  0  0
 30 34  1  0  0  0  0
 30 32  1  0  0  0  0
 32 33  1  0  0  0  0
 32 31  1  0  0  0  0
 33 31  1  0  0  0  0
 36 34  1  0  0  0  0
 36 35  1  0  0  0  0
 37 38  1  0  0  0  0
 39 37  1  0  0  0  0
 39 38  1  0  0  0  0
M  END
>  <MODEL>
8

>  <REMARK>
 VINA RESULT:      -7.0      3.675      7.124
  Name = 
  5 active torsions:
  status: ('A' for Active; 'I' for Inactive)
    1  A    between atoms: C_2  and  C_39
    2  A    between atoms: C_8  and  C_20
    3  A    between atoms: C_8  and  N_38
    4  A    between atoms: C_9  and  C_12
    5  A    between atoms: C_32  and  N_38
                            x       y       z     vdW  Elec       q    Type
                         _______ _______ _______ _____ _____    ______ ____

>  <TORSDO>
F 5

$$$$
=
 OpenBabel11042417313D

 39 45  0  0  0  0  0  0  0  0999 V2000
  188.6380  174.8730  142.8980 O   0  0  0  0  0  1  0  0  0  0  0  0
  189.9800  174.6070  143.1610 C   0  0  0  0  0  0  0  0  0  0  0  0
  189.3660  177.1730  147.1950 N   0  0  0  0  0  2  0  0  0  0  0  0
  191.9480  173.3780  142.1210 C   0  0  0  0  0  0  0  0  0  0  0  0
  190.8450  172.6900  140.3660 C   0  0  0  0  0  0  0  0  0  0  0  0
  190.3030  176.4320  146.4340 C   0  0  0  0  0  0  0  0  0  0  0  0
  191.8970  174.9400  144.7490 C   0  0  0  0  0  0  0  0  0  0  0  0
  191.6310  176.2310  146.8030 C   0  0  0  0  0  3  0  0  0  0  0  0
  193.0000  173.5610  142.9950 C   0  0  0  0  0  3  0  0  0  0  0  0
  188.3270  176.3040  145.1630 C   0  0  0  0  0  2  0  0  0  0  0  0
  188.1730  177.0940  146.4220 C   0  0  0  0  0  0  0  0  0  0  0  0
  192.4060  175.4740  145.9300 C   0  0  0  0  0  0  0  0  0  0  0  0
  194.0300  174.4380  145.0340 C   0  0  0  0  0  0  0  0  0  0  0  0
  192.9550  174.2700  144.1760 C   0  0  0  0  0  0  0  0  0  0  0  0
  190.6330  173.8300  142.1880 C   0  0  0  0  0  0  0  0  0  0  0  0
  187.0580  177.6580  146.7910 C   0  0  0  0  0  0  0  0  0  0  0  0
  195.3340  173.8970  144.8120 N   0  0  0  0  0  2  0  0  0  0  0  0
  189.9650  173.3980  141.0980 N   0  0  0  0  0  0  0  0  0  0  0  0
  193.7050  175.1760  146.1160 N   0  0  0  0  0  0  0  0  0  0  0  0
  189.7690  175.9070  145.2580 C   0  0  0  0  0  0  0  0  0  0  0  0
  190.5500  175.1290  144.3510 C   0  0  0  0  0  0  0  0  0  0  0  0
  196.4190  174.1110  145.7550 C   0  0  0  0  0  1  0  0  0  0  0  0
  192.0890  172.6480  140.9580 C   0  0  0  0  0  3  0  0  0  0  0  0
  185.9420  178.2210  147.1590 C   0  0  0  0  0  3  0  0  0  0  0  0
  191.5430  171.5540  138.2420 N   0  0  0  0  0  2  0  0  0  0  0  0
  190.5010  172.0480  139.0930 C   0  0  0  0  0  0  0  0  0  0  0  0
  190.1850  170.7170  136.5330 O   0  0  0  0  0  0  0  0  0  0  0  0
  189.2910  171.9340  138.7600 O   0  0  0  0  0  0  0  0  0  0  0  0
  191.3500  170.8990  136.9810 C   0  0  0  0  0  0  0  0  0  0  0  0
  192.4890  170.4490  136.2260 N   0  0  0  0  0  0  0  0  0  0  0  0
  193.3390  168.7850  134.6350 C   0  0  0  0  0  2  0  0  0  0  0  0
  192.3110  169.8760  134.8910 C   0  0  0  0  0  3  0  0  0  0  0  0
  191.9230  168.4100  135.0020 C   0  0  0  0  0  2  0  0  0  0  0  0
  193.8350  170.8170  136.6570 C   0  0  0  0  0  2  0  0  0  0  0  0
  194.9070  173.0160  137.0290 C   0  0  0  0  0  1  0  0  0  0  0  0
  194.2590  172.1170  135.9980 C   0  0  0  0  0  2  0  0  0  0  0  0
  184.6610  177.8250  146.5160 C   0  0  0  0  0  3  0  0  0  0  0  0
  184.7910  177.9790  145.0140 C   0  0  0  0  0  2  0  0  0  0  0  0
  184.0640  179.0320  145.8210 C   0  0  0  0  0  2  0  0  0  0  0  0
  1  2  1  0  0  0  0
  2 21  1  0  0  0  0
  4 15  1  0  0  0  0
  4  9  1  0  0  0  0
  5 23  1  0  0  0  0
  5 18  2  0  0  0  0
  6  8  1  0  0  0  0
  6  3  1  0  0  0  0
  7 12  1  0  0  0  0
  9 14  2  0  0  0  0
 10 20  1  0  0  0  0
 10 11  1  0  0  0  0
 11 16  2  0  0  0  0
 11  3  1  0  0  0  0
 12 19  1  0  0  0  0
 12  8  2  0  0  0  0
 13 19  2  0  0  0  0
 14  7  1  0  0  0  0
 14 13  1  0  0  0  0
 15  2  2  0  0  0  0
 16 24  2  0  0  0  0
 17 13  1  0  0  0  0
 17 22  1  0  0  0  0
 18 15  1  0  0  0  0
 20  6  2  0  0  0  0
 21  7  2  0  0  0  0
 21 20  1  0  0  0  0
 23  4  2  0  0  0  0
 25 26  1  0  0  0  0
 26  5  1  0  0  0  0
 27 29  2  0  0  0  0
 28 26  2  0  0  0  0
 29 25  1  0  0  0  0
 30 34  1  0  0  0  0
 30 29  1  0  0  0  0
 31 32  1  0  0  0  0
 31 33  1  0  0  0  0
 32 33  1  0  0  0  0
 32 30  1  0  0  0  0
 36 34  1  0  0  0  0
 36 35  1  0  0  0  0
 37 24  1  0  0  0  0
 38 39  1  0  0  0  0
 38 37  1  0  0  0  0
 39 37  1  0  0  0  0
M  END
>  <MODEL>
9

>  <REMARK>
 VINA RESULT:      -6.7      2.822      4.405
  Name = 
  5 active torsions:
  status: ('A' for Active; 'I' for Inactive)
    1  A    between atoms: C_2  and  C_39
    2  A    between atoms: C_8  and  C_20
    3  A    between atoms: C_8  and  N_38
    4  A    between atoms: C_9  and  C_12
    5  A    between atoms: C_32  and  N_38
                            x       y       z     vdW  Elec       q    Type
                         _______ _______ _______ _____ _____    ______ ____

>  <TORSDO>
F 5

$$$$
