=
 OpenBabel11042417463D

 25 27  0  0  1  0  0  0  0  0999 V2000
  190.5090  178.1380  143.6510 C   0  0  0  0  0  0  0  0  0  0  0  0
  188.8960  176.4640  143.9660 C   0  0  1  0  0  3  0  0  0  0  0  0
  189.1610  176.6890  142.4680 C   0  0  0  0  0  2  0  0  0  0  0  0
  191.3630  179.0450  143.8370 O   0  0  0  0  0  0  0  0  0  0  0  0
  189.7300  177.4960  144.7310 C   0  0  1  0  0  3  0  0  0  0  0  0
  190.1840  177.6650  142.4000 O   0  0  0  0  0  0  0  0  0  0  0  0
  184.4600  178.9320  146.3500 O   0  0  0  0  0  1  0  0  0  0  0  0
  185.6890  176.8310  147.4530 O   0  0  0  0  0  1  0  0  0  0  0  0
  183.8430  179.1510  143.6530 C   0  0  0  0  0  1  0  0  0  0  0  0
  187.1130  176.7510  145.5770 C   0  0  0  0  0  3  0  0  0  0  0  0
  185.7020  176.7900  146.0580 C   0  0  2  0  0  3  0  0  0  0  0  0
  187.4430  176.5890  144.2950 C   0  0  0  0  0  0  0  0  0  0  0  0
  186.4370  176.4840  143.2100 C   0  0  0  0  0  3  0  0  0  0  0  0
  184.7240  178.0620  144.1640 C   0  0  0  0  0  0  0  0  0  0  0  0
  185.2600  177.1200  143.1590 C   0  0  0  0  0  3  0  0  0  0  0  0
  184.9570  177.9600  145.4850 C   0  0  0  0  0  0  0  0  0  0  0  0
  191.2310  176.3960  147.9870 C   0  0  0  0  0  3  0  0  0  0  0  0
  191.6670  176.0200  145.2750 C   0  0  0  0  0  3  0  0  0  0  0  0
  190.6150  176.8180  145.7290 C   0  0  0  0  0  0  0  0  0  0  0  0
  190.4230  176.9900  147.0680 N   0  0  0  0  0  0  0  0  0  0  0  0
  192.5050  175.3970  146.2020 C   0  0  0  0  0  0  0  0  0  0  0  0
  192.2910  175.5870  147.5700 C   0  0  0  0  0  3  0  0  0  0  0  0
  193.6430  174.5570  145.7360 C   0  0  0  0  0  2  0  0  0  0  0  0
  194.9590  175.2570  146.0180 C   0  0  0  0  0  2  0  0  0  0  0  0
  196.1000  174.2820  145.8240 C   0  0  0  0  0  1  0  0  0  0  0  0
  1  4  2  0  0  0  0
  1  5  1  0  0  0  0
  2 12  1  6  0  0  0
  2  5  1  0  0  0  0
  3  2  1  0  0  0  0
  5 19  1  1  0  0  0
  6  3  1  0  0  0  0
  6  1  1  0  0  0  0
  9 14  1  0  0  0  0
 10 11  1  0  0  0  0
 11  8  1  1  0  0  0
 12 10  2  0  0  0  0
 13 12  1  0  0  0  0
 14 16  2  0  0  0  0
 15 13  2  0  0  0  0
 15 14  1  0  0  0  0
 16 11  1  0  0  0  0
 16  7  1  0  0  0  0
 18 19  2  0  0  0  0
 18 21  1  0  0  0  0
 19 20  1  0  0  0  0
 20 17  2  0  0  0  0
 21 22  2  0  0  0  0
 22 17  1  0  0  0  0
 23 24  1  0  0  0  0
 23 21  1  0  0  0  0
 25 24  1  0  0  0  0
M  END
>  <MODEL>
1

>  <REMARK>
 VINA RESULT:      -7.6      0.000      0.000
  Name = 
  4 active torsions:
  status: ('A' for Active; 'I' for Inactive)
    1  A    between atoms: C_4  and  C_14
    2  A    between atoms: C_6  and  C_24
    3  A    between atoms: C_7  and  C_17
    4  A    between atoms: C_21  and  C_24
                            x       y       z     vdW  Elec       q    Type
                         _______ _______ _______ _____ _____    ______ ____

>  <TORSDO>
F 4

$$$$
=
 OpenBabel11042417463D

 25 27  0  0  1  0  0  0  0  0999 V2000
  187.7390  177.5670  141.3250 C   0  0  0  0  0  0  0  0  0  0  0  0
  188.2420  177.4710  143.6150 C   0  0  1  0  0  3  0  0  0  0  0  0
  189.3840  178.1420  142.8350 C   0  0  0  0  0  2  0  0  0  0  0  0
  187.1750  177.4530  140.2060 O   0  0  0  0  0  0  0  0  0  0  0  0
  187.2020  177.0140  142.5870 C   0  0  1  0  0  3  0  0  0  0  0  0
  188.9500  178.2010  141.4890 O   0  0  0  0  0  0  0  0  0  0  0  0
  192.2010  174.0720  145.6720 O   0  0  0  0  0  1  0  0  0  0  0  0
  190.6820  173.3940  143.5800 O   0  0  0  0  0  1  0  0  0  0  0  0
  191.2430  175.2810  147.9790 C   0  0  0  0  0  1  0  0  0  0  0  0
  189.5190  175.4280  143.8360 C   0  0  0  0  0  3  0  0  0  0  0  0
  190.0000  174.1840  144.5060 C   0  0  2  0  0  3  0  0  0  0  0  0
  188.7330  176.3220  144.4370 C   0  0  0  0  0  0  0  0  0  0  0  0
  188.2990  176.1960  145.8490 C   0  0  0  0  0  3  0  0  0  0  0  0
  190.3900  175.1340  146.7660 C   0  0  0  0  0  0  0  0  0  0  0  0
  189.0170  175.6780  146.8530 C   0  0  0  0  0  3  0  0  0  0  0  0
  190.8730  174.4960  145.6850 C   0  0  0  0  0  0  0  0  0  0  0  0
  183.6950  178.2920  142.2250 C   0  0  0  0  0  3  0  0  0  0  0  0
  185.5790  177.9560  144.2320 C   0  0  0  0  0  3  0  0  0  0  0  0
  185.8570  177.5810  142.9160 C   0  0  0  0  0  0  0  0  0  0  0  0
  184.9150  177.7590  141.9460 N   0  0  0  0  0  0  0  0  0  0  0  0
  184.3300  178.5010  144.5400 C   0  0  0  0  0  0  0  0  0  0  0  0
  183.3800  178.6740  143.5310 C   0  0  0  0  0  3  0  0  0  0  0  0
  184.0230  178.9240  145.9350 C   0  0  0  0  0  2  0  0  0  0  0  0
  184.8590  178.1280  146.9180 C   0  0  0  0  0  2  0  0  0  0  0  0
  185.8630  179.0440  147.5850 C   0  0  0  0  0  1  0  0  0  0  0  0
  1  6  1  0  0  0  0
  1  5  1  0  0  0  0
  2 12  1  6  0  0  0
  3  2  1  0  0  0  0
  4  1  2  0  0  0  0
  5 19  1  1  0  0  0
  5  2  1  0  0  0  0
  6  3  1  0  0  0  0
  7 16  1  0  0  0  0
 10 12  2  0  0  0  0
 10 11  1  0  0  0  0
 11  8  1  6  0  0  0
 11 16  1  0  0  0  0
 12 13  1  0  0  0  0
 13 15  2  0  0  0  0
 14 15  1  0  0  0  0
 14  9  1  0  0  0  0
 16 14  2  0  0  0  0
 17 22  1  0  0  0  0
 18 21  1  0  0  0  0
 19 18  2  0  0  0  0
 20 17  2  0  0  0  0
 20 19  1  0  0  0  0
 21 23  1  0  0  0  0
 22 21  2  0  0  0  0
 23 24  1  0  0  0  0
 24 25  1  0  0  0  0
M  END
>  <MODEL>
2

>  <REMARK>
 VINA RESULT:      -7.6      3.151      7.000
  Name = 
  4 active torsions:
  status: ('A' for Active; 'I' for Inactive)
    1  A    between atoms: C_4  and  C_14
    2  A    between atoms: C_6  and  C_24
    3  A    between atoms: C_7  and  C_17
    4  A    between atoms: C_21  and  C_24
                            x       y       z     vdW  Elec       q    Type
                         _______ _______ _______ _____ _____    ______ ____

>  <TORSDO>
F 4

$$$$
=
 OpenBabel11042417463D

 25 27  0  0  1  0  0  0  0  0999 V2000
  190.4870  175.3540  142.5530 C   0  0  0  0  0  0  0  0  0  0  0  0
  188.4300  175.7740  143.6000 C   0  0  1  0  0  3  0  0  0  0  0  0
  188.2530  174.7960  142.4280 C   0  0  0  0  0  2  0  0  0  0  0  0
  191.7060  175.3570  142.2380 O   0  0  0  0  0  0  0  0  0  0  0  0
  189.9000  176.2050  143.6110 C   0  0  1  0  0  3  0  0  0  0  0  0
  189.5530  174.5690  141.9150 O   0  0  0  0  0  0  0  0  0  0  0  0
  183.5100  178.2630  142.5710 O   0  0  0  0  0  1  0  0  0  0  0  0
  185.4620  178.1490  140.7490 O   0  0  0  0  0  1  0  0  0  0  0  0
  183.9000  178.8730  145.2510 C   0  0  0  0  0  1  0  0  0  0  0  0
  186.8170  177.0750  142.3500 C   0  0  0  0  0  3  0  0  0  0  0  0
  185.9490  178.2510  142.0520 C   0  0  2  0  0  3  0  0  0  0  0  0
  187.5200  176.9540  143.4770 C   0  0  0  0  0  0  0  0  0  0  0  0
  187.4680  177.9530  144.5720 C   0  0  0  0  0  3  0  0  0  0  0  0
  185.0480  178.6060  144.3380 C   0  0  0  0  0  0  0  0  0  0  0  0
  186.3980  178.6690  144.9390 C   0  0  0  0  0  3  0  0  0  0  0  0
  184.8200  178.3650  143.0350 C   0  0  0  0  0  0  0  0  0  0  0  0
  190.3700  175.0080  147.1340 C   0  0  0  0  0  3  0  0  0  0  0  0
  191.7940  176.4230  145.2210 C   0  0  0  0  0  3  0  0  0  0  0  0
  190.5150  175.9350  144.9480 C   0  0  0  0  0  0  0  0  0  0  0  0
  189.8330  175.2440  145.9060 N   0  0  0  0  0  0  0  0  0  0  0  0
  192.3660  176.1860  146.4740 C   0  0  0  0  0  0  0  0  0  0  0  0
  191.6490  175.4770  147.4410 C   0  0  0  0  0  3  0  0  0  0  0  0
  193.7220  176.7150  146.7880 C   0  0  0  0  0  2  0  0  0  0  0  0
  194.6910  176.3600  145.6780 C   0  0  0  0  0  2  0  0  0  0  0  0
  195.3220  175.0150  145.9700 C   0  0  0  0  0  1  0  0  0  0  0  0
  1  5  1  0  0  0  0
  2 12  1  6  0  0  0
  2  5  1  0  0  0  0
  3  2  1  0  0  0  0
  4  1  2  0  0  0  0
  5 19  1  1  0  0  0
  6  3  1  0  0  0  0
  6  1  1  0  0  0  0
  7 16  1  0  0  0  0
 10 12  2  0  0  0  0
 11  8  1  6  0  0  0
 11 10  1  0  0  0  0
 11 16  1  0  0  0  0
 12 13  1  0  0  0  0
 13 15  2  0  0  0  0
 14 15  1  0  0  0  0
 14  9  1  0  0  0  0
 16 14  2  0  0  0  0
 17 22  1  0  0  0  0
 18 21  1  0  0  0  0
 19 18  2  0  0  0  0
 19 20  1  0  0  0  0
 20 17  2  0  0  0  0
 21 23  1  0  0  0  0
 21 22  2  0  0  0  0
 24 25  1  0  0  0  0
 24 23  1  0  0  0  0
M  END
>  <MODEL>
3

>  <REMARK>
 VINA RESULT:      -7.5      2.090      2.654
  Name = 
  4 active torsions:
  status: ('A' for Active; 'I' for Inactive)
    1  A    between atoms: C_4  and  C_14
    2  A    between atoms: C_6  and  C_24
    3  A    between atoms: C_7  and  C_17
    4  A    between atoms: C_21  and  C_24
                            x       y       z     vdW  Elec       q    Type
                         _______ _______ _______ _____ _____    ______ ____

>  <TORSDO>
F 4

$$$$
=
 OpenBabel11042417463D

 25 27  0  0  1  0  0  0  0  0999 V2000
  185.5740  179.4140  144.6930 C   0  0  0  0  0  0  0  0  0  0  0  0
  186.6210  177.3240  144.8950 C   0  0  1  0  0  3  0  0  0  0  0  0
  185.6530  177.5630  146.0660 C   0  0  0  0  0  2  0  0  0  0  0  0
  185.2170  180.5540  144.2940 O   0  0  0  0  0  0  0  0  0  0  0  0
  186.6250  178.5990  144.0450 C   0  0  1  0  0  3  0  0  0  0  0  0
  185.0390  178.8120  145.8100 O   0  0  0  0  0  0  0  0  0  0  0  0
  190.9700  173.8830  145.7290 O   0  0  0  0  0  1  0  0  0  0  0  0
  189.2120  174.4550  147.6590 O   0  0  0  0  0  1  0  0  0  0  0  0
  192.0590  175.7550  143.9930 C   0  0  0  0  0  1  0  0  0  0  0  0
  188.1310  175.9190  146.1610 C   0  0  0  0  0  3  0  0  0  0  0  0
  189.4250  175.5270  146.7910 C   0  0  2  0  0  3  0  0  0  0  0  0
  187.9970  176.9880  145.3750 C   0  0  0  0  0  0  0  0  0  0  0  0
  189.1330  177.8660  145.0050 C   0  0  0  0  0  3  0  0  0  0  0  0
  190.9220  176.0970  144.8940 C   0  0  0  0  0  0  0  0  0  0  0  0
  190.3990  177.4770  144.8020 C   0  0  0  0  0  3  0  0  0  0  0  0
  190.4560  175.1780  145.7580 C   0  0  0  0  0  0  0  0  0  0  0  0
  186.9640  177.6380  140.4370 C   0  0  0  0  0  3  0  0  0  0  0  0
  184.9600  178.3920  142.1980 C   0  0  0  0  0  3  0  0  0  0  0  0
  186.2850  178.2810  142.6230 C   0  0  0  0  0  0  0  0  0  0  0  0
  187.2530  177.9110  141.7370 N   0  0  0  0  0  0  0  0  0  0  0  0
  184.6410  178.1110  140.8670 C   0  0  0  0  0  0  0  0  0  0  0  0
  185.6490  177.7350  139.9760 C   0  0  0  0  0  3  0  0  0  0  0  0
  183.2360  178.2420  140.3920 C   0  0  0  0  0  2  0  0  0  0  0  0
  182.2800  178.2020  141.5690 C   0  0  0  0  0  2  0  0  0  0  0  0
  181.0030  178.9300  141.2070 C   0  0  0  0  0  1  0  0  0  0  0  0
  1  6  1  0  0  0  0
  2 12  1  1  0  0  0
  2  3  1  0  0  0  0
  4  1  2  0  0  0  0
  5 19  1  6  0  0  0
  5  1  1  0  0  0  0
  5  2  1  0  0  0  0
  6  3  1  0  0  0  0
  7 16  1  0  0  0  0
  9 14  1  0  0  0  0
 10 11  1  0  0  0  0
 11  8  1  1  0  0  0
 12 10  2  0  0  0  0
 13 12  1  0  0  0  0
 14 16  2  0  0  0  0
 15 14  1  0  0  0  0
 15 13  2  0  0  0  0
 16 11  1  0  0  0  0
 17 20  1  0  0  0  0
 18 19  1  0  0  0  0
 20 19  2  0  0  0  0
 21 18  2  0  0  0  0
 22 17  2  0  0  0  0
 22 21  1  0  0  0  0
 23 21  1  0  0  0  0
 23 24  1  0  0  0  0
 25 24  1  0  0  0  0
M  END
>  <MODEL>
4

>  <REMARK>
 VINA RESULT:      -7.4      2.783      7.694
  Name = 
  4 active torsions:
  status: ('A' for Active; 'I' for Inactive)
    1  A    between atoms: C_4  and  C_14
    2  A    between atoms: C_6  and  C_24
    3  A    between atoms: C_7  and  C_17
    4  A    between atoms: C_21  and  C_24
                            x       y       z     vdW  Elec       q    Type
                         _______ _______ _______ _____ _____    ______ ____

>  <TORSDO>
F 4

$$$$
=
 OpenBabel11042417463D

 25 27  0  0  1  0  0  0  0  0999 V2000
  188.6180  175.5550  146.5390 C   0  0  0  0  0  0  0  0  0  0  0  0
  190.0860  175.3010  144.7270 C   0  0  1  0  0  3  0  0  0  0  0  0
  190.1670  174.0860  145.6670 C   0  0  0  0  0  2  0  0  0  0  0  0
  187.7620  176.0000  147.3490 O   0  0  0  0  0  0  0  0  0  0  0  0
  189.1230  176.3050  145.3690 C   0  0  1  0  0  3  0  0  0  0  0  0
  189.2040  174.3180  146.6790 O   0  0  0  0  0  0  0  0  0  0  0  0
  195.6800  175.4660  145.1000 O   0  0  0  0  0  1  0  0  0  0  0  0
  194.0970  176.8250  146.7700 O   0  0  0  0  0  1  0  0  0  0  0  0
  195.3030  175.3170  142.3540 C   0  0  0  0  0  1  0  0  0  0  0  0
  192.2360  176.0450  145.5510 C   0  0  0  0  0  3  0  0  0  0  0  0
  193.5620  176.7250  145.4850 C   0  0  2  0  0  3  0  0  0  0  0  0
  191.4320  175.9110  144.4960 C   0  0  0  0  0  0  0  0  0  0  0  0
  191.7970  176.3800  143.1380 C   0  0  0  0  0  3  0  0  0  0  0  0
  194.2650  175.9000  143.2520 C   0  0  0  0  0  0  0  0  0  0  0  0
  193.0250  176.3780  142.6040 C   0  0  0  0  0  3  0  0  0  0  0  0
  194.5070  176.0010  144.5700 C   0  0  0  0  0  0  0  0  0  0  0  0
  186.7620  176.1810  142.4580 C   0  0  0  0  0  3  0  0  0  0  0  0
  187.2970  177.8320  144.6200 C   0  0  0  0  0  3  0  0  0  0  0  0
  188.0240  176.6580  144.4160 C   0  0  0  0  0  0  0  0  0  0  0  0
  187.7440  175.8630  143.3440 N   0  0  0  0  0  0  0  0  0  0  0  0
  186.2810  178.1740  143.7250 C   0  0  0  0  0  0  0  0  0  0  0  0
  186.0110  177.3460  142.6320 C   0  0  0  0  0  3  0  0  0  0  0  0
  185.5080  179.4320  143.9160 C   0  0  0  0  0  2  0  0  0  0  0  0
  184.0730  179.1120  144.2880 C   0  0  0  0  0  2  0  0  0  0  0  0
  183.9980  178.7680  145.7590 C   0  0  0  0  0  1  0  0  0  0  0  0
  1  6  1  0  0  0  0
  1  4  2  0  0  0  0
  2 12  1  1  0  0  0
  2  5  1  0  0  0  0
  2  3  1  0  0  0  0
  3  6  1  0  0  0  0
  5 19  1  6  0  0  0
  5  1  1  0  0  0  0
  9 14  1  0  0  0  0
 11 10  1  0  0  0  0
 11  8  1  1  0  0  0
 12 10  2  0  0  0  0
 13 12  1  0  0  0  0
 14 16  2  0  0  0  0
 15 13  2  0  0  0  0
 15 14  1  0  0  0  0
 16  7  1  0  0  0  0
 16 11  1  0  0  0  0
 17 22  2  0  0  0  0
 17 20  1  0  0  0  0
 19 18  1  0  0  0  0
 20 19  2  0  0  0  0
 21 23  1  0  0  0  0
 21 18  2  0  0  0  0
 22 21  1  0  0  0  0
 23 24  1  0  0  0  0
 24 25  1  0  0  0  0
M  END
>  <MODEL>
5

>  <REMARK>
 VINA RESULT:      -7.3      2.612      7.676
  Name = 
  4 active torsions:
  status: ('A' for Active; 'I' for Inactive)
    1  A    between atoms: C_4  and  C_14
    2  A    between atoms: C_6  and  C_24
    3  A    between atoms: C_7  and  C_17
    4  A    between atoms: C_21  and  C_24
                            x       y       z     vdW  Elec       q    Type
                         _______ _______ _______ _____ _____    ______ ____

>  <TORSDO>
F 4

$$$$
=
 OpenBabel11042417463D

 25 27  0  0  1  0  0  0  0  0999 V2000
  188.3700  174.1710  142.1080 C   0  0  0  0  0  0  0  0  0  0  0  0
  189.7020  176.0490  142.5590 C   0  0  1  0  0  3  0  0  0  0  0  0
  190.5300  174.9460  141.8800 C   0  0  0  0  0  2  0  0  0  0  0  0
  187.4070  173.3640  142.0210 O   0  0  0  0  0  0  0  0  0  0  0  0
  188.2960  175.4830  142.7850 C   0  0  1  0  0  3  0  0  0  0  0  0
  189.6210  173.8970  141.6010 O   0  0  0  0  0  0  0  0  0  0  0  0
  191.4740  175.2920  147.8260 O   0  0  0  0  0  1  0  0  0  0  0  0
  189.1200  176.4230  147.2600 O   0  0  0  0  0  1  0  0  0  0  0  0
  193.8490  175.8720  146.5120 C   0  0  0  0  0  1  0  0  0  0  0  0
  189.6490  176.2450  144.9710 C   0  0  0  0  0  3  0  0  0  0  0  0
  190.0990  176.7180  146.3120 C   0  0  2  0  0  3  0  0  0  0  0  0
  190.3210  176.4920  143.8460 C   0  0  0  0  0  0  0  0  0  0  0  0
  191.6140  177.2180  143.8220 C   0  0  0  0  0  3  0  0  0  0  0  0
  192.5370  176.3660  146.0030 C   0  0  0  0  0  0  0  0  0  0  0  0
  192.5690  177.1640  144.7590 C   0  0  0  0  0  3  0  0  0  0  0  0
  191.4150  176.1070  146.6970 C   0  0  0  0  0  0  0  0  0  0  0  0
  186.4250  177.5390  140.2690 C   0  0  0  0  0  3  0  0  0  0  0  0
  186.2370  176.8820  142.9560 C   0  0  0  0  0  3  0  0  0  0  0  0
  187.2680  176.3740  142.1630 C   0  0  0  0  0  0  0  0  0  0  0  0
  187.3400  176.7150  140.8450 N   0  0  0  0  0  0  0  0  0  0  0  0
  185.2830  177.7270  142.3830 C   0  0  0  0  0  0  0  0  0  0  0  0
  185.3770  178.0630  141.0300 C   0  0  0  0  0  3  0  0  0  0  0  0
  184.1870  178.2920  143.2180 C   0  0  0  0  0  2  0  0  0  0  0  0
  184.7670  179.0850  144.3730 C   0  0  0  0  0  2  0  0  0  0  0  0
  184.0950  178.6630  145.6620 C   0  0  0  0  0  1  0  0  0  0  0  0
  1  5  1  0  0  0  0
  2  5  1  0  0  0  0
  2 12  1  1  0  0  0
  3  2  1  0  0  0  0
  4  1  2  0  0  0  0
  5 19  1  6  0  0  0
  6  3  1  0  0  0  0
  6  1  1  0  0  0  0
 10 11  1  0  0  0  0
 11 16  1  0  0  0  0
 11  8  1  1  0  0  0
 12 10  2  0  0  0  0
 13 12  1  0  0  0  0
 13 15  2  0  0  0  0
 14  9  1  0  0  0  0
 14 16  2  0  0  0  0
 15 14  1  0  0  0  0
 16  7  1  0  0  0  0
 17 20  2  0  0  0  0
 17 22  1  0  0  0  0
 19 18  2  0  0  0  0
 20 19  1  0  0  0  0
 21 18  1  0  0  0  0
 21 23  1  0  0  0  0
 22 21  2  0  0  0  0
 23 24  1  0  0  0  0
 24 25  1  0  0  0  0
M  END
>  <MODEL>
6

>  <REMARK>
 VINA RESULT:      -7.2      2.700      7.184
  Name = 
  4 active torsions:
  status: ('A' for Active; 'I' for Inactive)
    1  A    between atoms: C_4  and  C_14
    2  A    between atoms: C_6  and  C_24
    3  A    between atoms: C_7  and  C_17
    4  A    between atoms: C_21  and  C_24
                            x       y       z     vdW  Elec       q    Type
                         _______ _______ _______ _____ _____    ______ ____

>  <TORSDO>
F 4

$$$$
=
 OpenBabel11042417463D

 25 27  0  0  1  0  0  0  0  0999 V2000
  189.7110  176.8850  146.9490 C   0  0  0  0  0  0  0  0  0  0  0  0
  188.7860  175.5200  145.2790 C   0  0  1  0  0  3  0  0  0  0  0  0
  189.6880  174.6990  146.2150 C   0  0  0  0  0  2  0  0  0  0  0  0
  190.0250  177.8680  147.6710 O   0  0  0  0  0  0  0  0  0  0  0  0
  188.8870  176.9830  145.7250 C   0  0  1  0  0  3  0  0  0  0  0  0
  190.1370  175.6020  147.2090 O   0  0  0  0  0  0  0  0  0  0  0  0
  191.0800  172.7750  140.9600 O   0  0  0  0  0  1  0  0  0  0  0  0
  192.3830  174.6940  142.2860 O   0  0  0  0  0  1  0  0  0  0  0  0
  188.4220  172.9380  140.1760 C   0  0  0  0  0  1  0  0  0  0  0  0
  190.4510  175.0250  143.5950 C   0  0  0  0  0  3  0  0  0  0  0  0
  191.0100  174.9290  142.2150 C   0  0  2  0  0  3  0  0  0  0  0  0
  189.1850  175.3610  143.8470 C   0  0  0  0  0  0  0  0  0  0  0  0
  188.1910  175.6230  142.7790 C   0  0  0  0  0  3  0  0  0  0  0  0
  189.0230  173.9390  141.1030 C   0  0  0  0  0  0  0  0  0  0  0  0
  188.1270  175.0090  141.5910 C   0  0  0  0  0  3  0  0  0  0  0  0
  190.3280  173.8560  141.4180 C   0  0  0  0  0  0  0  0  0  0  0  0
  185.6660  177.7770  147.4740 C   0  0  0  0  0  3  0  0  0  0  0  0
  186.8750  178.2860  145.0300 C   0  0  0  0  0  3  0  0  0  0  0  0
  187.5270  177.5370  146.0120 C   0  0  0  0  0  0  0  0  0  0  0  0
  186.9100  177.2980  147.2050 N   0  0  0  0  0  0  0  0  0  0  0  0
  185.5990  178.7920  145.2880 C   0  0  0  0  0  0  0  0  0  0  0  0
  184.9860  178.5350  146.5170 C   0  0  0  0  0  3  0  0  0  0  0  0
  184.8810  179.5770  144.2460 C   0  0  0  0  0  2  0  0  0  0  0  0
  183.9360  178.6780  143.4730 C   0  0  0  0  0  2  0  0  0  0  0  0
  184.5990  178.2360  142.1860 C   0  0  0  0  0  1  0  0  0  0  0  0
  1  6  1  0  0  0  0
  1  4  2  0  0  0  0
  2 12  1  6  0  0  0
  2  5  1  0  0  0  0
  2  3  1  0  0  0  0
  3  6  1  0  0  0  0
  5 19  1  1  0  0  0
  5  1  1  0  0  0  0
  7 16  1  0  0  0  0
  9 14  1  0  0  0  0
 10 12  2  0  0  0  0
 11  8  1  1  0  0  0
 11 10  1  0  0  0  0
 13 12  1  0  0  0  0
 14 16  2  0  0  0  0
 14 15  1  0  0  0  0
 15 13  2  0  0  0  0
 16 11  1  0  0  0  0
 18 21  2  0  0  0  0
 18 19  1  0  0  0  0
 19 20  2  0  0  0  0
 20 17  1  0  0  0  0
 21 22  1  0  0  0  0
 22 17  2  0  0  0  0
 23 21  1  0  0  0  0
 24 23  1  0  0  0  0
 25 24  1  0  0  0  0
M  END
>  <MODEL>
7

>  <REMARK>
 VINA RESULT:      -7.2      3.071      6.774
  Name = 
  4 active torsions:
  status: ('A' for Active; 'I' for Inactive)
    1  A    between atoms: C_4  and  C_14
    2  A    between atoms: C_6  and  C_24
    3  A    between atoms: C_7  and  C_17
    4  A    between atoms: C_21  and  C_24
                            x       y       z     vdW  Elec       q    Type
                         _______ _______ _______ _____ _____    ______ ____

>  <TORSDO>
F 4

$$$$
=
 OpenBabel11042417463D

 25 27  0  0  1  0  0  0  0  0999 V2000
  188.6100  173.8260  142.1060 C   0  0  0  0  0  0  0  0  0  0  0  0
  190.3700  175.1310  142.9470 C   0  0  1  0  0  3  0  0  0  0  0  0
  190.8840  174.1410  141.8880 C   0  0  0  0  0  2  0  0  0  0  0  0
  187.4790  173.3190  141.8880 O   0  0  0  0  0  0  0  0  0  0  0  0
  188.8780  174.8450  143.1440 C   0  0  1  0  0  3  0  0  0  0  0  0
  189.7400  173.4570  141.4110 O   0  0  0  0  0  0  0  0  0  0  0  0
  193.9530  176.8870  146.8880 O   0  0  0  0  0  1  0  0  0  0  0  0
  194.6590  175.1390  144.9930 O   0  0  0  0  0  1  0  0  0  0  0  0
  191.5660  176.7910  148.3010 C   0  0  0  0  0  1  0  0  0  0  0  0
  192.4410  175.1930  144.1970 C   0  0  0  0  0  3  0  0  0  0  0  0
  193.3260  175.0010  145.3830 C   0  0  2  0  0  3  0  0  0  0  0  0
  191.1220  175.0040  144.2330 C   0  0  0  0  0  0  0  0  0  0  0  0
  190.3930  174.6330  145.4700 C   0  0  0  0  0  3  0  0  0  0  0  0
  191.8010  175.9270  147.1090 C   0  0  0  0  0  0  0  0  0  0  0  0
  190.6930  175.0310  146.7140 C   0  0  0  0  0  3  0  0  0  0  0  0
  192.9900  175.9650  146.4820 C   0  0  0  0  0  0  0  0  0  0  0  0
  187.1580  177.7180  141.4560 C   0  0  0  0  0  3  0  0  0  0  0  0
  187.5520  176.7640  144.0300 C   0  0  0  0  0  3  0  0  0  0  0  0
  188.0740  176.0880  142.9260 C   0  0  0  0  0  0  0  0  0  0  0  0
  187.8700  176.5790  141.6700 N   0  0  0  0  0  0  0  0  0  0  0  0
  186.8140  177.9340  143.8320 C   0  0  0  0  0  0  0  0  0  0  0  0
  186.6170  178.4190  142.5370 C   0  0  0  0  0  3  0  0  0  0  0  0
  186.2650  178.6780  144.9990 C   0  0  0  0  0  2  0  0  0  0  0  0
  185.2590  177.8190  145.7400 C   0  0  0  0  0  2  0  0  0  0  0  0
  184.0660  178.6640  146.1330 C   0  0  0  0  0  1  0  0  0  0  0  0
  1  5  1  0  0  0  0
  2  5  1  0  0  0  0
  2 12  1  1  0  0  0
  3  2  1  0  0  0  0
  4  1  2  0  0  0  0
  5 19  1  6  0  0  0
  6  3  1  0  0  0  0
  6  1  1  0  0  0  0
 10 12  2  0  0  0  0
 10 11  1  0  0  0  0
 11  8  1  6  0  0  0
 11 16  1  0  0  0  0
 12 13  1  0  0  0  0
 13 15  2  0  0  0  0
 14  9  1  0  0  0  0
 15 14  1  0  0  0  0
 16  7  1  0  0  0  0
 16 14  2  0  0  0  0
 17 20  2  0  0  0  0
 17 22  1  0  0  0  0
 19 18  2  0  0  0  0
 20 19  1  0  0  0  0
 21 18  1  0  0  0  0
 21 23  1  0  0  0  0
 22 21  2  0  0  0  0
 23 24  1  0  0  0  0
 24 25  1  0  0  0  0
M  END
>  <MODEL>
8

>  <REMARK>
 VINA RESULT:      -7.2      3.101      7.162
  Name = 
  4 active torsions:
  status: ('A' for Active; 'I' for Inactive)
    1  A    between atoms: C_4  and  C_14
    2  A    between atoms: C_6  and  C_24
    3  A    between atoms: C_7  and  C_17
    4  A    between atoms: C_21  and  C_24
                            x       y       z     vdW  Elec       q    Type
                         _______ _______ _______ _____ _____    ______ ____

>  <TORSDO>
F 4

$$$$
=
 OpenBabel11042417463D

 25 27  0  0  1  0  0  0  0  0999 V2000
  190.5580  177.5960  144.1650 C   0  0  0  0  0  0  0  0  0  0  0  0
  189.3380  175.6540  144.6570 C   0  0  1  0  0  3  0  0  0  0  0  0
  190.5040  175.8280  145.6440 C   0  0  0  0  0  2  0  0  0  0  0  0
  190.9750  178.6620  143.6390 O   0  0  0  0  0  0  0  0  0  0  0  0
  189.4450  176.7840  143.6290 C   0  0  1  0  0  3  0  0  0  0  0  0
  191.1260  177.0510  145.2940 O   0  0  0  0  0  0  0  0  0  0  0  0
  190.6280  172.1100  140.5060 O   0  0  0  0  0  1  0  0  0  0  0  0
  188.1940  173.1820  140.7640 O   0  0  0  0  0  1  0  0  0  0  0  0
  192.1190  171.0800  142.6080 C   0  0  0  0  0  1  0  0  0  0  0  0
  188.9290  174.2360  142.7390 C   0  0  0  0  0  3  0  0  0  0  0  0
  188.8110  172.9500  141.9930 C   0  0  2  0  0  3  0  0  0  0  0  0
  189.3700  174.3130  143.9950 C   0  0  0  0  0  0  0  0  0  0  0  0
  189.8390  173.1330  144.7600 C   0  0  0  0  0  3  0  0  0  0  0  0
  190.8730  171.8630  142.8480 C   0  0  0  0  0  0  0  0  0  0  0  0
  190.4850  172.0720  144.2590 C   0  0  0  0  0  3  0  0  0  0  0  0
  190.1510  172.3010  141.8010 C   0  0  0  0  0  0  0  0  0  0  0  0
  186.4830  178.6650  142.3050 C   0  0  0  0  0  3  0  0  0  0  0  0
  187.5320  177.9190  144.7610 C   0  0  0  0  0  3  0  0  0  0  0  0
  188.1670  177.5600  143.5700 C   0  0  0  0  0  0  0  0  0  0  0  0
  187.6330  177.9420  142.3750 N   0  0  0  0  0  0  0  0  0  0  0  0
  186.3480  178.6570  144.7120 C   0  0  0  0  0  0  0  0  0  0  0  0
  185.8180  179.0380  143.4760 C   0  0  0  0  0  3  0  0  0  0  0  0
  185.6670  179.0640  145.9730 C   0  0  0  0  0  2  0  0  0  0  0  0
  184.4210  178.2270  146.1870 C   0  0  0  0  0  2  0  0  0  0  0  0
  184.8200  176.8060  146.5260 C   0  0  0  0  0  1  0  0  0  0  0  0
  1  6  1  0  0  0  0
  2 12  1  6  0  0  0
  2  3  1  0  0  0  0
  4  1  2  0  0  0  0
  5 19  1  1  0  0  0
  5  1  1  0  0  0  0
  5  2  1  0  0  0  0
  6  3  1  0  0  0  0
  7 16  1  0  0  0  0
  9 14  1  0  0  0  0
 10 12  2  0  0  0  0
 11  8  1  6  0  0  0
 11 10  1  0  0  0  0
 12 13  1  0  0  0  0
 14 15  1  0  0  0  0
 15 13  2  0  0  0  0
 16 11  1  0  0  0  0
 16 14  2  0  0  0  0
 17 20  2  0  0  0  0
 17 22  1  0  0  0  0
 19 18  2  0  0  0  0
 20 19  1  0  0  0  0
 21 18  1  0  0  0  0
 21 23  1  0  0  0  0
 22 21  2  0  0  0  0
 23 24  1  0  0  0  0
 24 25  1  0  0  0  0
M  END
>  <MODEL>
9

>  <REMARK>
 VINA RESULT:      -7.1      3.120      6.996
  Name = 
  4 active torsions:
  status: ('A' for Active; 'I' for Inactive)
    1  A    between atoms: C_4  and  C_14
    2  A    between atoms: C_6  and  C_24
    3  A    between atoms: C_7  and  C_17
    4  A    between atoms: C_21  and  C_24
                            x       y       z     vdW  Elec       q    Type
                         _______ _______ _______ _____ _____    ______ ____

>  <TORSDO>
F 4

$$$$
