=
 OpenBabel11042416163D

 33 34  0  0  1  0  0  0  0  0999 V2000
  185.6350  177.1940  143.5100 C   0  0  0  0  0  0  0  0  0  0  0  0
  184.0170  178.7670  146.1700 N   0  0  0  0  0  2  0  0  0  0  0  0
  183.8500  178.7570  143.7910 N   0  0  0  0  0  2  0  0  0  0  0  0
  184.3530  177.9750  141.6190 O   0  0  0  0  0  0  0  0  0  0  0  0
  185.5600  177.4480  144.8080 C   0  0  0  0  0  0  0  0  0  0  0  0
  184.4920  178.4270  145.0190 C   0  0  0  0  0  0  0  0  0  0  0  0
  184.5920  177.9800  142.8560 C   0  0  0  0  0  0  0  0  0  0  0  0
  186.5400  176.2050  142.8550 C   0  0  0  0  0  2  0  0  0  0  0  0
  187.8330  176.8840  142.4380 C   0  0  0  0  0  2  0  0  0  0  0  0
  190.2370  176.0800  142.5590 C   0  0  0  0  0  0  0  0  0  0  0  0
  190.6370  177.2060  143.0530 N   0  0  0  0  0  2  0  0  0  0  0  0
  188.8670  175.8860  142.1980 N   0  0  0  0  0  2  0  0  0  0  0  0
  191.2360  175.0300  142.2260 C   0  0  0  0  0  2  0  0  0  0  0  0
  190.7740  173.7440  142.7190 N   0  0  0  0  0  2  0  0  0  0  0  0
  190.9560  172.7800  141.6430 C   0  0  0  0  0  2  0  0  0  0  0  0
  190.6910  173.4130  140.2790 C   0  0  1  0  0  3  0  0  0  0  0  0
  191.6150  172.9610  139.3340 O   0  0  0  0  0  1  0  0  0  0  0  0
  188.9940  173.0900  139.7020 P   0  0  0  0  0  0  0  0  0  0  0  0
  188.9890  171.7370  138.6870 O   0  0  0  0  0  0  0  0  0  0  0  0
  187.9990  172.7910  141.0360 O   0  0  0  0  0  1  0  0  0  0  0  0
  188.4670  174.2870  138.9460 O   0  0  0  0  0  1  0  0  0  0  0  0
  186.3720  176.8270  145.8060 N   0  0  0  0  0  2  0  0  0  0  0  0
  187.5590  177.4180  146.2580 N   0  0  0  0  0  2  0  0  0  0  0  0
  190.0130  174.5470  146.2140 C   0  0  0  0  0  2  0  0  0  0  0  0
  188.7400  176.6450  146.4550 C   0  0  0  0  0  0  0  0  0  0  0  0
  192.3430  174.7890  145.6570 N   0  0  0  0  0  0  0  0  0  0  0  0
  188.7930  175.3950  145.9920 C   0  0  0  0  0  3  0  0  0  0  0  0
  189.9200  177.2130  147.1950 C   0  0  0  0  0  2  0  0  0  0  0  0
  191.2400  176.8240  146.5170 C   0  0  0  0  0  2  0  0  0  0  0  0
  191.2650  175.3710  146.0940 C   0  0  0  0  0  0  0  0  0  0  0  0
  194.4580  175.3670  146.4280 O   0  0  0  0  0  1  0  0  0  0  0  0
  194.0150  175.9550  144.2650 O   0  0  0  0  0  0  0  0  0  0  0  0
  193.6400  175.3770  145.4730 C   0  0  0  0  0  0  0  0  0  0  0  0
  1  5  2  0  0  0  0
  3  6  1  0  0  0  0
  4  7  2  0  0  0  0
  5  6  1  0  0  0  0
  5 22  1  0  0  0  0
  6  2  2  0  0  0  0
  7  1  1  0  0  0  0
  7  3  1  0  0  0  0
  8  1  1  0  0  0  0
  9  8  1  0  0  0  0
 10 11  2  0  0  0  0
 12  9  1  0  0  0  0
 12 10  1  0  0  0  0
 13 10  1  0  0  0  0
 13 14  1  0  0  0  0
 15 14  1  0  0  0  0
 16 17  1  6  0  0  0
 16 15  1  0  0  0  0
 18 16  1  0  0  0  0
 18 20  1  0  0  0  0
 19 18  2  0  0  0  0
 21 18  1  0  0  0  0
 22 23  1  0  0  0  0
 23 25  1  0  0  0  0
 25 28  1  0  0  0  0
 26 30  2  0  0  0  0
 27 24  1  0  0  0  0
 27 25  2  0  0  0  0
 29 28  1  0  0  0  0
 30 24  1  0  0  0  0
 30 29  1  0  0  0  0
 32 33  2  0  0  0  0
 33 26  1  0  0  0  0
 33 31  1  0  0  0  0
M  END
>  <MODEL>
1

>  <REMARK>
 VINA RESULT:      -6.0      0.000      0.000
  Name = 
  12 active torsions:
  status: ('A' for Active; 'I' for Inactive)
    1  A    between atoms: C_2  and  N_3
    2  A    between atoms: C_2  and  C_12
    3  A    between atoms: N_3  and  C_18
    4  A    between atoms: C_5  and  N_25
    5  A    between atoms: C_6  and  C_8
    6  A    between atoms: C_7  and  P_9
    7  A    between atoms: C_7  and  C_18
    8  A    between atoms: C_8  and  C_17
    9  A    between atoms: N_11  and  C_31
   10  A    between atoms: C_17  and  N_28
   11  A    between atoms: C_24  and  N_26
   12  A    between atoms: N_25  and  N_26
                            x       y       z     vdW  Elec       q    Type
                         _______ _______ _______ _____ _____    ______ ____

>  <TORSDO>
F 12

$$$$
=
 OpenBabel11042416163D

 33 34  0  0  1  0  0  0  0  0999 V2000
  192.9860  174.0320  145.0120 C   0  0  0  0  0  0  0  0  0  0  0  0
  195.4290  176.5140  144.7960 N   0  0  0  0  0  2  0  0  0  0  0  0
  195.3500  174.1860  145.3150 N   0  0  0  0  0  2  0  0  0  0  0  0
  194.3110  172.0710  145.4870 O   0  0  0  0  0  0  0  0  0  0  0  0
  193.3020  175.3080  144.8490 C   0  0  0  0  0  0  0  0  0  0  0  0
  194.7440  175.4490  145.0550 C   0  0  0  0  0  0  0  0  0  0  0  0
  194.2250  173.3130  145.2950 C   0  0  0  0  0  0  0  0  0  0  0  0
  191.6340  173.4280  144.8290 C   0  0  0  0  0  2  0  0  0  0  0  0
  191.2530  173.4500  143.3580 C   0  0  0  0  0  2  0  0  0  0  0  0
  189.3000  174.1990  141.9220 C   0  0  0  0  0  0  0  0  0  0  0  0
  189.9680  174.0060  140.8320 N   0  0  0  0  0  2  0  0  0  0  0  0
  189.9060  173.9800  143.1990 N   0  0  0  0  0  2  0  0  0  0  0  0
  187.9400  174.7970  141.8510 C   0  0  0  0  0  2  0  0  0  0  0  0
  187.9210  175.8450  140.8460 N   0  0  0  0  0  2  0  0  0  0  0  0
  187.8270  177.1150  141.5510 C   0  0  0  0  0  2  0  0  0  0  0  0
  186.6160  177.9210  141.0880 C   0  0  1  0  0  3  0  0  0  0  0  0
  186.0960  177.4000  139.9010 O   0  0  0  0  0  1  0  0  0  0  0  0
  185.3190  177.9870  142.3660 P   0  0  0  0  0  0  0  0  0  0  0  0
  185.4490  176.6350  143.3730 O   0  0  0  0  0  1  0  0  0  0  0  0
  185.5160  179.3910  143.2880 O   0  0  0  0  0  1  0  0  0  0  0  0
  183.9540  178.0040  141.7190 O   0  0  0  0  0  0  0  0  0  0  0  0
  192.3750  176.3370  144.4950 N   0  0  0  0  0  2  0  0  0  0  0  0
  191.6270  177.0150  145.4670 N   0  0  0  0  0  2  0  0  0  0  0  0
  188.4660  175.6440  147.0130 C   0  0  0  0  0  2  0  0  0  0  0  0
  190.2530  176.7060  145.6890 C   0  0  0  0  0  0  0  0  0  0  0  0
  186.4310  176.9100  147.2400 N   0  0  0  0  0  0  0  0  0  0  0  0
  189.9020  176.0100  146.7710 C   0  0  0  0  0  3  0  0  0  0  0  0
  189.1970  177.1390  144.7080 C   0  0  0  0  0  2  0  0  0  0  0  0
  187.9440  177.6470  145.4320 C   0  0  0  0  0  2  0  0  0  0  0  0
  187.5520  176.7630  146.5970 C   0  0  0  0  0  0  0  0  0  0  0  0
  184.4010  177.5860  146.3300 O   0  0  0  0  0  0  0  0  0  0  0  0
  185.5190  179.1870  147.5160 O   0  0  0  0  0  1  0  0  0  0  0  0
  185.4140  177.8970  147.0080 C   0  0  0  0  0  0  0  0  0  0  0  0
  1  7  1  0  0  0  0
  2  6  2  0  0  0  0
  5  1  2  0  0  0  0
  5  6  1  0  0  0  0
  6  3  1  0  0  0  0
  7  3  1  0  0  0  0
  7  4  2  0  0  0  0
  8  1  1  0  0  0  0
  9  8  1  0  0  0  0
 10 12  1  0  0  0  0
 11 10  2  0  0  0  0
 12  9  1  0  0  0  0
 13 10  1  0  0  0  0
 14 15  1  0  0  0  0
 14 13  1  0  0  0  0
 16 17  1  6  0  0  0
 16 15  1  0  0  0  0
 16 18  1  0  0  0  0
 18 20  1  0  0  0  0
 18 19  1  0  0  0  0
 21 18  2  0  0  0  0
 22  5  1  0  0  0  0
 22 23  1  0  0  0  0
 23 25  1  0  0  0  0
 25 27  2  0  0  0  0
 27 24  1  0  0  0  0
 28 29  1  0  0  0  0
 28 25  1  0  0  0  0
 29 30  1  0  0  0  0
 30 24  1  0  0  0  0
 30 26  2  0  0  0  0
 31 33  2  0  0  0  0
 33 26  1  0  0  0  0
 33 32  1  0  0  0  0
M  END
>  <MODEL>
2

>  <REMARK>
 VINA RESULT:      -6.0      3.077      7.084
  Name = 
  12 active torsions:
  status: ('A' for Active; 'I' for Inactive)
    1  A    between atoms: C_2  and  N_3
    2  A    between atoms: C_2  and  C_12
    3  A    between atoms: N_3  and  C_18
    4  A    between atoms: C_5  and  N_25
    5  A    between atoms: C_6  and  C_8
    6  A    between atoms: C_7  and  P_9
    7  A    between atoms: C_7  and  C_18
    8  A    between atoms: C_8  and  C_17
    9  A    between atoms: N_11  and  C_31
   10  A    between atoms: C_17  and  N_28
   11  A    between atoms: C_24  and  N_26
   12  A    between atoms: N_25  and  N_26
                            x       y       z     vdW  Elec       q    Type
                         _______ _______ _______ _____ _____    ______ ____

>  <TORSDO>
F 12

$$$$
=
 OpenBabel11042416163D

 33 34  0  0  1  0  0  0  0  0999 V2000
  189.3110  176.1870  144.4760 C   0  0  0  0  0  0  0  0  0  0  0  0
  189.1170  174.5490  147.5500 N   0  0  0  0  0  2  0  0  0  0  0  0
  189.6730  173.9750  145.3020 N   0  0  0  0  0  2  0  0  0  0  0  0
  190.1520  174.4420  143.0360 O   0  0  0  0  0  0  0  0  0  0  0  0
  188.9840  176.2090  145.7590 C   0  0  0  0  0  0  0  0  0  0  0  0
  189.1650  174.8590  146.2970 C   0  0  0  0  0  0  0  0  0  0  0  0
  189.7460  174.8280  144.1640 C   0  0  0  0  0  0  0  0  0  0  0  0
  189.3400  177.3590  143.5540 C   0  0  0  0  0  2  0  0  0  0  0  0
  190.7770  177.7100  143.2070 C   0  0  0  0  0  2  0  0  0  0  0  0
  192.8390  176.8190  144.3860 C   0  0  0  0  0  0  0  0  0  0  0  0
  193.2040  176.1500  143.3420 N   0  0  0  0  0  2  0  0  0  0  0  0
  191.6230  177.5720  144.3840 N   0  0  0  0  0  2  0  0  0  0  0  0
  193.6130  176.6850  145.6500 C   0  0  0  0  0  2  0  0  0  0  0  0
  195.0050  176.4050  145.3410 N   0  0  0  0  0  2  0  0  0  0  0  0
  195.3340  175.1290  145.9590 C   0  0  0  0  0  2  0  0  0  0  0  0
  195.8620  174.1320  144.9300 C   0  0  1  0  0  3  0  0  0  0  0  0
  197.1520  173.7130  145.2600 O   0  0  0  0  0  1  0  0  0  0  0  0
  194.7600  172.6920  144.7550 P   0  0  0  0  0  0  0  0  0  0  0  0
  195.2320  171.4840  145.8410 O   0  0  0  0  0  1  0  0  0  0  0  0
  193.1720  173.1610  145.0970 O   0  0  0  0  0  1  0  0  0  0  0  0
  194.8280  172.1550  143.3450 O   0  0  0  0  0  0  0  0  0  0  0  0
  188.5640  177.3730  146.4730 N   0  0  0  0  0  2  0  0  0  0  0  0
  187.2080  177.6580  146.6800 N   0  0  0  0  0  2  0  0  0  0  0  0
  185.1770  179.4940  144.0780 C   0  0  0  0  0  2  0  0  0  0  0  0
  186.3340  177.9230  145.5850 C   0  0  0  0  0  0  0  0  0  0  0  0
  185.0680  178.8430  141.7630 N   0  0  0  0  0  0  0  0  0  0  0  0
  186.1180  179.1840  145.2070 C   0  0  0  0  0  3  0  0  0  0  0  0
  185.6370  176.8020  144.8650 C   0  0  0  0  0  2  0  0  0  0  0  0
  185.6310  177.0350  143.3490 C   0  0  0  0  0  2  0  0  0  0  0  0
  185.2950  178.4660  142.9870 C   0  0  0  0  0  0  0  0  0  0  0  0
  184.0430  177.7540  139.9830 O   0  0  0  0  0  0  0  0  0  0  0  0
  186.3170  177.5540  140.0680 O   0  0  0  0  0  1  0  0  0  0  0  0
  185.1150  178.0340  140.5770 C   0  0  0  0  0  0  0  0  0  0  0  0
  1  5  2  0  0  0  0
  3  6  1  0  0  0  0
  4  7  2  0  0  0  0
  5  6  1  0  0  0  0
  5 22  1  0  0  0  0
  6  2  2  0  0  0  0
  7  1  1  0  0  0  0
  7  3  1  0  0  0  0
  8  1  1  0  0  0  0
  9  8  1  0  0  0  0
  9 12  1  0  0  0  0
 10 13  1  0  0  0  0
 11 10  2  0  0  0  0
 12 10  1  0  0  0  0
 14 13  1  0  0  0  0
 14 15  1  0  0  0  0
 16 17  1  1  0  0  0
 16 15  1  0  0  0  0
 18 16  1  0  0  0  0
 18 20  1  0  0  0  0
 18 19  1  0  0  0  0
 21 18  2  0  0  0  0
 22 23  1  0  0  0  0
 24 27  1  0  0  0  0
 25 23  1  0  0  0  0
 26 30  2  0  0  0  0
 27 25  2  0  0  0  0
 28 25  1  0  0  0  0
 29 28  1  0  0  0  0
 30 29  1  0  0  0  0
 30 24  1  0  0  0  0
 31 33  2  0  0  0  0
 32 33  1  0  0  0  0
 33 26  1  0  0  0  0
M  END
>  <MODEL>
3

>  <REMARK>
 VINA RESULT:      -5.9      2.873      6.537
  Name = 
  12 active torsions:
  status: ('A' for Active; 'I' for Inactive)
    1  A    between atoms: C_2  and  N_3
    2  A    between atoms: C_2  and  C_12
    3  A    between atoms: N_3  and  C_18
    4  A    between atoms: C_5  and  N_25
    5  A    between atoms: C_6  and  C_8
    6  A    between atoms: C_7  and  P_9
    7  A    between atoms: C_7  and  C_18
    8  A    between atoms: C_8  and  C_17
    9  A    between atoms: N_11  and  C_31
   10  A    between atoms: C_17  and  N_28
   11  A    between atoms: C_24  and  N_26
   12  A    between atoms: N_25  and  N_26
                            x       y       z     vdW  Elec       q    Type
                         _______ _______ _______ _____ _____    ______ ____

>  <TORSDO>
F 12

$$$$
=
 OpenBabel11042416163D

 33 34  0  0  1  0  0  0  0  0999 V2000
  194.7350  175.0990  144.7140 C   0  0  0  0  0  0  0  0  0  0  0  0
  194.7280  172.7490  142.1350 N   0  0  0  0  0  2  0  0  0  0  0  0
  195.9640  173.1330  144.1380 N   0  0  0  0  0  2  0  0  0  0  0  0
  196.4170  174.2040  146.1950 O   0  0  0  0  0  0  0  0  0  0  0  0
  194.2760  174.7010  143.5370 C   0  0  0  0  0  0  0  0  0  0  0  0
  195.0270  173.5110  143.1340 C   0  0  0  0  0  0  0  0  0  0  0  0
  195.7710  174.1510  145.1150 C   0  0  0  0  0  0  0  0  0  0  0  0
  194.2100  176.2340  145.5270 C   0  0  0  0  0  2  0  0  0  0  0  0
  193.1250  175.7390  146.4680 C   0  0  0  0  0  2  0  0  0  0  0  0
  190.6220  176.1160  146.6410 C   0  0  0  0  0  0  0  0  0  0  0  0
  190.4090  174.8760  146.9370 N   0  0  0  0  0  2  0  0  0  0  0  0
  191.9440  176.5830  146.3570 N   0  0  0  0  0  2  0  0  0  0  0  0
  189.4660  177.0320  146.4470 C   0  0  0  0  0  2  0  0  0  0  0  0
  188.2410  176.3610  146.8480 N   0  0  0  0  0  2  0  0  0  0  0  0
  187.2320  176.6760  145.8470 C   0  0  0  0  0  2  0  0  0  0  0  0
  185.8810  176.9730  146.4940 C   0  0  1  0  0  3  0  0  0  0  0  0
  185.9170  176.7090  147.8640 O   0  0  0  0  0  1  0  0  0  0  0  0
  185.3530  178.6910  146.1990 P   0  0  0  0  0  0  0  0  0  0  0  0
  185.8290  179.6600  147.5010 O   0  0  0  0  0  1  0  0  0  0  0  0
  186.0790  179.2630  144.7830 O   0  0  0  0  0  0  0  0  0  0  0  0
  183.8510  178.7540  146.0490 O   0  0  0  0  0  1  0  0  0  0  0  0
  193.2060  175.3280  142.8270 N   0  0  0  0  0  2  0  0  0  0  0  0
  191.9020  174.8180  142.8670 N   0  0  0  0  0  2  0  0  0  0  0  0
  189.7780  177.9390  142.9970 C   0  0  0  0  0  2  0  0  0  0  0  0
  190.7730  175.6840  142.9690 C   0  0  0  0  0  0  0  0  0  0  0  0
  187.6790  178.1770  141.8410 N   0  0  0  0  0  0  0  0  0  0  0  0
  190.9440  177.0020  142.8620 C   0  0  0  0  0  3  0  0  0  0  0  0
  189.3960  175.1310  143.2160 C   0  0  0  0  0  2  0  0  0  0  0  0
  188.3470  175.8570  142.3650 C   0  0  0  0  0  2  0  0  0  0  0  0
  188.5490  177.3580  142.3560 C   0  0  0  0  0  0  0  0  0  0  0  0
  186.4130  177.7480  139.9400 O   0  0  0  0  0  0  0  0  0  0  0  0
  185.2750  177.6230  141.9170 O   0  0  0  0  0  1  0  0  0  0  0  0
  186.4420  177.8440  141.1930 C   0  0  0  0  0  0  0  0  0  0  0  0
  1  7  1  0  0  0  0
  1  8  1  0  0  0  0
  2  6  2  0  0  0  0
  3  7  1  0  0  0  0
  5  1  2  0  0  0  0
  6  5  1  0  0  0  0
  6  3  1  0  0  0  0
  7  4  2  0  0  0  0
  8  9  1  0  0  0  0
 10 11  2  0  0  0  0
 12  9  1  0  0  0  0
 12 10  1  0  0  0  0
 13 10  1  0  0  0  0
 13 14  1  0  0  0  0
 15 16  1  0  0  0  0
 15 14  1  0  0  0  0
 16 17  1  1  0  0  0
 18 16  1  0  0  0  0
 18 19  1  0  0  0  0
 20 18  2  0  0  0  0
 21 18  1  0  0  0  0
 22 23  1  0  0  0  0
 22  5  1  0  0  0  0
 23 25  1  0  0  0  0
 25 28  1  0  0  0  0
 26 30  2  0  0  0  0
 27 25  2  0  0  0  0
 27 24  1  0  0  0  0
 29 28  1  0  0  0  0
 30 29  1  0  0  0  0
 30 24  1  0  0  0  0
 31 33  2  0  0  0  0
 33 26  1  0  0  0  0
 33 32  1  0  0  0  0
M  END
>  <MODEL>
4

>  <REMARK>
 VINA RESULT:      -5.9      3.384      8.508
  Name = 
  12 active torsions:
  status: ('A' for Active; 'I' for Inactive)
    1  A    between atoms: C_2  and  N_3
    2  A    between atoms: C_2  and  C_12
    3  A    between atoms: N_3  and  C_18
    4  A    between atoms: C_5  and  N_25
    5  A    between atoms: C_6  and  C_8
    6  A    between atoms: C_7  and  P_9
    7  A    between atoms: C_7  and  C_18
    8  A    between atoms: C_8  and  C_17
    9  A    between atoms: N_11  and  C_31
   10  A    between atoms: C_17  and  N_28
   11  A    between atoms: C_24  and  N_26
   12  A    between atoms: N_25  and  N_26
                            x       y       z     vdW  Elec       q    Type
                         _______ _______ _______ _____ _____    ______ ____

>  <TORSDO>
F 12

$$$$
=
 OpenBabel11042416163D

 33 34  0  0  1  0  0  0  0  0999 V2000
  186.0780  178.2030  141.2540 C   0  0  0  0  0  0  0  0  0  0  0  0
  182.5990  178.3030  141.5040 N   0  0  0  0  0  2  0  0  0  0  0  0
  184.2100  177.6830  139.8580 N   0  0  0  0  0  2  0  0  0  0  0  0
  186.3900  177.2180  139.0720 O   0  0  0  0  0  0  0  0  0  0  0  0
  184.9940  178.5440  141.9350 C   0  0  0  0  0  0  0  0  0  0  0  0
  183.8250  178.2670  141.0990 C   0  0  0  0  0  0  0  0  0  0  0  0
  185.6300  177.6630  139.9730 C   0  0  0  0  0  0  0  0  0  0  0  0
  187.4830  178.2530  141.7500 C   0  0  0  0  0  2  0  0  0  0  0  0
  187.9640  176.8520  142.0880 C   0  0  0  0  0  2  0  0  0  0  0  0
  190.1170  175.7090  142.7940 C   0  0  0  0  0  0  0  0  0  0  0  0
  189.5050  174.5930  143.0210 N   0  0  0  0  0  2  0  0  0  0  0  0
  189.3920  176.8680  142.3730 N   0  0  0  0  0  2  0  0  0  0  0  0
  191.5640  175.8300  143.1170 C   0  0  0  0  0  2  0  0  0  0  0  0
  192.3530  175.2950  142.0210 N   0  0  0  0  0  2  0  0  0  0  0  0
  193.7270  175.7280  142.2300 C   0  0  0  0  0  2  0  0  0  0  0  0
  194.4310  174.8630  143.2730 C   0  0  1  0  0  3  0  0  0  0  0  0
  195.3520  174.0050  142.6680 O   0  0  0  0  0  1  0  0  0  0  0  0
  195.2560  175.8730  144.5450 P   0  0  0  0  0  0  0  0  0  0  0  0
  194.1000  176.7730  145.3900 O   0  0  0  0  0  1  0  0  0  0  0  0
  196.0680  174.8550  145.6240 O   0  0  0  0  0  1  0  0  0  0  0  0
  196.2490  176.8090  143.9000 O   0  0  0  0  0  0  0  0  0  0  0  0
  184.9990  179.0570  143.2690 N   0  0  0  0  0  2  0  0  0  0  0  0
  184.6100  178.2680  144.3590 N   0  0  0  0  0  2  0  0  0  0  0  0
  186.1020  176.7190  147.4650 C   0  0  0  0  0  2  0  0  0  0  0  0
  185.5490  177.8730  145.3570 C   0  0  0  0  0  0  0  0  0  0  0  0
  188.1860  175.5140  147.4890 N   0  0  0  0  0  0  0  0  0  0  0  0
  185.1410  177.1230  146.3830 C   0  0  0  0  0  3  0  0  0  0  0  0
  186.9870  178.3060  145.2790 C   0  0  0  0  0  2  0  0  0  0  0  0
  187.9330  177.1620  145.6670 C   0  0  0  0  0  2  0  0  0  0  0  0
  187.4550  176.4080  146.8890 C   0  0  0  0  0  0  0  0  0  0  0  0
  189.6220  174.0870  146.3450 O   0  0  0  0  0  0  0  0  0  0  0  0
  190.6450  175.7020  147.5970 O   0  0  0  0  0  1  0  0  0  0  0  0
  189.5010  175.0710  147.1200 C   0  0  0  0  0  0  0  0  0  0  0  0
  1  8  1  0  0  0  0
  1  5  2  0  0  0  0
  3  7  1  0  0  0  0
  3  6  1  0  0  0  0
  4  7  2  0  0  0  0
  5 22  1  0  0  0  0
  6  2  2  0  0  0  0
  6  5  1  0  0  0  0
  7  1  1  0  0  0  0
  8  9  1  0  0  0  0
  9 12  1  0  0  0  0
 10 11  2  0  0  0  0
 10 13  1  0  0  0  0
 12 10  1  0  0  0  0
 14 15  1  0  0  0  0
 14 13  1  0  0  0  0
 15 16  1  0  0  0  0
 16 17  1  6  0  0  0
 16 18  1  0  0  0  0
 18 19  1  0  0  0  0
 18 20  1  0  0  0  0
 21 18  2  0  0  0  0
 22 23  1  0  0  0  0
 23 25  1  0  0  0  0
 25 27  2  0  0  0  0
 27 24  1  0  0  0  0
 28 25  1  0  0  0  0
 28 29  1  0  0  0  0
 29 30  1  0  0  0  0
 30 24  1  0  0  0  0
 30 26  2  0  0  0  0
 31 33  2  0  0  0  0
 33 26  1  0  0  0  0
 33 32  1  0  0  0  0
M  END
>  <MODEL>
5

>  <REMARK>
 VINA RESULT:      -5.9      2.947      4.737
  Name = 
  12 active torsions:
  status: ('A' for Active; 'I' for Inactive)
    1  A    between atoms: C_2  and  N_3
    2  A    between atoms: C_2  and  C_12
    3  A    between atoms: N_3  and  C_18
    4  A    between atoms: C_5  and  N_25
    5  A    between atoms: C_6  and  C_8
    6  A    between atoms: C_7  and  P_9
    7  A    between atoms: C_7  and  C_18
    8  A    between atoms: C_8  and  C_17
    9  A    between atoms: N_11  and  C_31
   10  A    between atoms: C_17  and  N_28
   11  A    between atoms: C_24  and  N_26
   12  A    between atoms: N_25  and  N_26
                            x       y       z     vdW  Elec       q    Type
                         _______ _______ _______ _____ _____    ______ ____

>  <TORSDO>
F 12

$$$$
=
 OpenBabel11042416163D

 33 34  0  0  1  0  0  0  0  0999 V2000
  186.2630  178.1170  145.4560 C   0  0  0  0  0  0  0  0  0  0  0  0
  188.0800  175.7820  147.3050 N   0  0  0  0  0  2  0  0  0  0  0  0
  185.8960  176.7390  147.3730 N   0  0  0  0  0  2  0  0  0  0  0  0
  184.1050  178.0320  146.5340 O   0  0  0  0  0  0  0  0  0  0  0  0
  187.4090  177.4980  145.6980 C   0  0  0  0  0  0  0  0  0  0  0  0
  187.2330  176.6630  146.8870 C   0  0  0  0  0  0  0  0  0  0  0  0
  185.3080  177.6670  146.4650 C   0  0  0  0  0  0  0  0  0  0  0  0
  185.9720  179.0150  144.3010 C   0  0  0  0  0  2  0  0  0  0  0  0
  185.2540  178.2390  143.2090 C   0  0  0  0  0  2  0  0  0  0  0  0
  186.3500  177.5130  141.0390 C   0  0  0  0  0  0  0  0  0  0  0  0
  185.5640  178.2630  140.3380 N   0  0  0  0  0  2  0  0  0  0  0  0
  186.2080  177.4330  142.4600 N   0  0  0  0  0  2  0  0  0  0  0  0
  187.3100  176.6120  140.3480 C   0  0  0  0  0  2  0  0  0  0  0  0
  187.8740  175.6760  141.3050 N   0  0  0  0  0  2  0  0  0  0  0  0
  188.4200  174.5610  140.5450 C   0  0  0  0  0  2  0  0  0  0  0  0
  189.6750  173.9970  141.2080 C   0  0  1  0  0  3  0  0  0  0  0  0
  190.3860  175.0040  141.8640 O   0  0  0  0  0  1  0  0  0  0  0  0
  189.2800  172.6500  142.3690 P   0  0  0  0  0  0  0  0  0  0  0  0
  190.1180  171.2510  141.9190 O   0  0  0  0  0  0  0  0  0  0  0  0
  189.7470  173.1030  143.9300 O   0  0  0  0  0  1  0  0  0  0  0  0
  187.7950  172.3730  142.3550 O   0  0  0  0  0  1  0  0  0  0  0  0
  188.5850  177.6200  144.8950 N   0  0  0  0  0  2  0  0  0  0  0  0
  189.4750  176.5510  144.7320 N   0  0  0  0  0  2  0  0  0  0  0  0
  192.8550  176.3580  146.4070 C   0  0  0  0  0  2  0  0  0  0  0  0
  190.8690  176.7060  144.9880 C   0  0  0  0  0  0  0  0  0  0  0  0
  194.8910  175.8030  145.2480 N   0  0  0  0  0  0  0  0  0  0  0  0
  191.3960  176.1830  146.0960 C   0  0  0  0  0  3  0  0  0  0  0  0
  191.7490  177.4670  144.0350 C   0  0  0  0  0  2  0  0  0  0  0  0
  193.1000  176.7650  143.8460 C   0  0  0  0  0  2  0  0  0  0  0  0
  193.6820  176.2720  145.1540 C   0  0  0  0  0  0  0  0  0  0  0  0
  196.0850  174.4890  143.7470 O   0  0  0  0  0  1  0  0  0  0  0  0
  196.5260  176.7280  143.6470 O   0  0  0  0  0  0  0  0  0  0  0  0
  195.8500  175.6420  144.1920 C   0  0  0  0  0  0  0  0  0  0  0  0
  1  5  2  0  0  0  0
  1  7  1  0  0  0  0
  5  6  1  0  0  0  0
  6  2  2  0  0  0  0
  6  3  1  0  0  0  0
  7  4  2  0  0  0  0
  7  3  1  0  0  0  0
  8  1  1  0  0  0  0
  9  8  1  0  0  0  0
 10 12  1  0  0  0  0
 11 10  2  0  0  0  0
 12  9  1  0  0  0  0
 13 10  1  0  0  0  0
 13 14  1  0  0  0  0
 15 16  1  0  0  0  0
 15 14  1  0  0  0  0
 16 17  1  1  0  0  0
 16 18  1  0  0  0  0
 18 20  1  0  0  0  0
 19 18  2  0  0  0  0
 21 18  1  0  0  0  0
 22  5  1  0  0  0  0
 23 22  1  0  0  0  0
 23 25  1  0  0  0  0
 25 27  2  0  0  0  0
 27 24  1  0  0  0  0
 28 25  1  0  0  0  0
 29 28  1  0  0  0  0
 29 30  1  0  0  0  0
 30 26  2  0  0  0  0
 30 24  1  0  0  0  0
 31 33  1  0  0  0  0
 32 33  2  0  0  0  0
 33 26  1  0  0  0  0
M  END
>  <MODEL>
6

>  <REMARK>
 VINA RESULT:      -5.8      2.399      3.487
  Name = 
  12 active torsions:
  status: ('A' for Active; 'I' for Inactive)
    1  A    between atoms: C_2  and  N_3
    2  A    between atoms: C_2  and  C_12
    3  A    between atoms: N_3  and  C_18
    4  A    between atoms: C_5  and  N_25
    5  A    between atoms: C_6  and  C_8
    6  A    between atoms: C_7  and  P_9
    7  A    between atoms: C_7  and  C_18
    8  A    between atoms: C_8  and  C_17
    9  A    between atoms: N_11  and  C_31
   10  A    between atoms: C_17  and  N_28
   11  A    between atoms: C_24  and  N_26
   12  A    between atoms: N_25  and  N_26
                            x       y       z     vdW  Elec       q    Type
                         _______ _______ _______ _____ _____    ______ ____

>  <TORSDO>
F 12

$$$$
=
 OpenBabel11042416163D

 33 34  0  0  1  0  0  0  0  0999 V2000
  186.1470  178.2480  143.1400 C   0  0  0  0  0  0  0  0  0  0  0  0
  183.8180  178.6650  145.7040 N   0  0  0  0  0  2  0  0  0  0  0  0
  183.8040  178.6760  143.3190 N   0  0  0  0  0  2  0  0  0  0  0  0
  184.7470  178.3530  141.1770 O   0  0  0  0  0  0  0  0  0  0  0  0
  185.8860  178.3710  144.4330 C   0  0  0  0  0  0  0  0  0  0  0  0
  184.4600  178.6630  144.5830 C   0  0  0  0  0  0  0  0  0  0  0  0
  184.8850  178.4240  142.4270 C   0  0  0  0  0  0  0  0  0  0  0  0
  187.4620  177.8840  142.5370 C   0  0  0  0  0  2  0  0  0  0  0  0
  187.4440  176.4290  142.0960 C   0  0  0  0  0  2  0  0  0  0  0  0
  189.1500  174.6630  142.7330 C   0  0  0  0  0  0  0  0  0  0  0  0
  189.4610  174.4510  141.4960 N   0  0  0  0  0  2  0  0  0  0  0  0
  188.1270  175.6010  143.0790 N   0  0  0  0  0  2  0  0  0  0  0  0
  189.7560  173.8170  143.7960 C   0  0  0  0  0  2  0  0  0  0  0  0
  190.9200  173.1290  143.2660 N   0  0  0  0  0  2  0  0  0  0  0  0
  191.3320  172.1510  144.2630 C   0  0  0  0  0  2  0  0  0  0  0  0
  192.2440  171.0880  143.6550 C   0  0  1  0  0  3  0  0  0  0  0  0
  192.0880  171.0320  142.2690 O   0  0  0  0  0  1  0  0  0  0  0  0
  193.9920  171.3740  144.0790 P   0  0  0  0  0  0  0  0  0  0  0  0
  194.1050  171.9100  145.6790 O   0  0  0  0  0  1  0  0  0  0  0  0
  194.8510  169.9270  143.9140 O   0  0  0  0  0  1  0  0  0  0  0  0
  194.5850  172.4140  143.1580 O   0  0  0  0  0  0  0  0  0  0  0  0
  186.8480  178.2040  145.4770 N   0  0  0  0  0  2  0  0  0  0  0  0
  187.0680  176.9580  146.0780 N   0  0  0  0  0  2  0  0  0  0  0  0
  189.9150  174.9150  147.4900 C   0  0  0  0  0  2  0  0  0  0  0  0
  188.3630  176.5790  146.5400 C   0  0  0  0  0  0  0  0  0  0  0  0
  192.1390  174.9040  146.5660 N   0  0  0  0  0  0  0  0  0  0  0  0
  188.5690  175.3330  146.9680 C   0  0  0  0  0  3  0  0  0  0  0  0
  189.4930  177.5720  146.5700 C   0  0  0  0  0  2  0  0  0  0  0  0
  190.8060  176.9320  146.1020 C   0  0  0  0  0  2  0  0  0  0  0  0
  191.0180  175.5540  146.6920 C   0  0  0  0  0  0  0  0  0  0  0  0
  193.4020  175.1110  144.6250 O   0  0  0  0  0  0  0  0  0  0  0  0
  194.3670  175.9630  146.5120 O   0  0  0  0  0  1  0  0  0  0  0  0
  193.3170  175.3250  145.8620 C   0  0  0  0  0  0  0  0  0  0  0  0
  1  5  2  0  0  0  0
  3  6  1  0  0  0  0
  4  7  2  0  0  0  0
  5  6  1  0  0  0  0
  5 22  1  0  0  0  0
  6  2  2  0  0  0  0
  7  1  1  0  0  0  0
  7  3  1  0  0  0  0
  8  1  1  0  0  0  0
  9  8  1  0  0  0  0
  9 12  1  0  0  0  0
 10 12  1  0  0  0  0
 10 13  1  0  0  0  0
 11 10  2  0  0  0  0
 14 13  1  0  0  0  0
 14 15  1  0  0  0  0
 16 17  1  6  0  0  0
 16 18  1  0  0  0  0
 16 15  1  0  0  0  0
 18 19  1  0  0  0  0
 20 18  1  0  0  0  0
 21 18  2  0  0  0  0
 22 23  1  0  0  0  0
 23 25  1  0  0  0  0
 25 28  1  0  0  0  0
 25 27  2  0  0  0  0
 26 30  2  0  0  0  0
 27 24  1  0  0  0  0
 29 28  1  0  0  0  0
 29 30  1  0  0  0  0
 30 24  1  0  0  0  0
 31 33  2  0  0  0  0
 33 32  1  0  0  0  0
 33 26  1  0  0  0  0
M  END
>  <MODEL>
7

>  <REMARK>
 VINA RESULT:      -5.7      2.394      3.176
  Name = 
  12 active torsions:
  status: ('A' for Active; 'I' for Inactive)
    1  A    between atoms: C_2  and  N_3
    2  A    between atoms: C_2  and  C_12
    3  A    between atoms: N_3  and  C_18
    4  A    between atoms: C_5  and  N_25
    5  A    between atoms: C_6  and  C_8
    6  A    between atoms: C_7  and  P_9
    7  A    between atoms: C_7  and  C_18
    8  A    between atoms: C_8  and  C_17
    9  A    between atoms: N_11  and  C_31
   10  A    between atoms: C_17  and  N_28
   11  A    between atoms: C_24  and  N_26
   12  A    between atoms: N_25  and  N_26
                            x       y       z     vdW  Elec       q    Type
                         _______ _______ _______ _____ _____    ______ ____

>  <TORSDO>
F 12

$$$$
=
 OpenBabel11042416163D

 33 34  0  0  1  0  0  0  0  0999 V2000
  193.6840  174.4850  143.3770 C   0  0  0  0  0  0  0  0  0  0  0  0
  194.1430  176.4080  146.2520 N   0  0  0  0  0  2  0  0  0  0  0  0
  195.0070  176.3650  144.0290 N   0  0  0  0  0  2  0  0  0  0  0  0
  195.0860  175.6340  141.7830 O   0  0  0  0  0  0  0  0  0  0  0  0
  193.4400  174.6870  144.6640 C   0  0  0  0  0  0  0  0  0  0  0  0
  194.2570  175.8170  145.1090 C   0  0  0  0  0  0  0  0  0  0  0  0
  194.6400  175.5050  142.9540 C   0  0  0  0  0  0  0  0  0  0  0  0
  193.0190  173.4770  142.5010 C   0  0  0  0  0  2  0  0  0  0  0  0
  192.0670  174.1730  141.5430 C   0  0  0  0  0  2  0  0  0  0  0  0
  189.5850  173.7790  141.1910 C   0  0  0  0  0  0  0  0  0  0  0  0
  189.7370  173.6630  139.9120 N   0  0  0  0  0  2  0  0  0  0  0  0
  190.7000  174.0740  142.0370 N   0  0  0  0  0  2  0  0  0  0  0  0
  188.2150  173.7520  141.7710 C   0  0  0  0  0  2  0  0  0  0  0  0
  187.9720  174.9840  142.5010 N   0  0  0  0  0  2  0  0  0  0  0  0
  187.8340  176.0470  141.5160 C   0  0  0  0  0  2  0  0  0  0  0  0
  187.7790  177.4200  142.1820 C   0  0  1  0  0  3  0  0  0  0  0  0
  188.5630  178.3420  141.4860 O   0  0  0  0  0  1  0  0  0  0  0  0
  186.0700  178.0330  142.3280 P   0  0  0  0  0  0  0  0  0  0  0  0
  186.0460  179.4150  143.3030 O   0  0  0  0  0  1  0  0  0  0  0  0
  185.4850  178.4240  140.7900 O   0  0  0  0  0  0  0  0  0  0  0  0
  185.1880  176.9700  142.9410 O   0  0  0  0  0  1  0  0  0  0  0  0
  192.5080  173.9350  145.4430 N   0  0  0  0  0  2  0  0  0  0  0  0
  191.1270  174.0260  145.2230 N   0  0  0  0  0  2  0  0  0  0  0  0
  189.5380  177.4450  145.4540 C   0  0  0  0  0  2  0  0  0  0  0  0
  190.3750  175.1390  145.7010 C   0  0  0  0  0  0  0  0  0  0  0  0
  187.2620  177.8160  146.1460 N   0  0  0  0  0  0  0  0  0  0  0  0
  190.2960  176.2460  144.9600 C   0  0  0  0  0  3  0  0  0  0  0  0
  189.6870  175.0890  147.0370 C   0  0  0  0  0  2  0  0  0  0  0  0
  188.2950  175.7290  146.9680 C   0  0  0  0  0  2  0  0  0  0  0  0
  188.2930  177.0250  146.1860 C   0  0  0  0  0  0  0  0  0  0  0  0
  185.7310  178.2250  147.8470 O   0  0  0  0  0  1  0  0  0  0  0  0
  185.0230  176.7800  146.2260 O   0  0  0  0  0  0  0  0  0  0  0  0
  185.9850  177.6200  146.7740 C   0  0  0  0  0  0  0  0  0  0  0  0
  1  5  2  0  0  0  0
  3  6  1  0  0  0  0
  4  7  2  0  0  0  0
  5  6  1  0  0  0  0
  5 22  1  0  0  0  0
  6  2  2  0  0  0  0
  7  1  1  0  0  0  0
  7  3  1  0  0  0  0
  8  1  1  0  0  0  0
  9 12  1  0  0  0  0
  9  8  1  0  0  0  0
 10 13  1  0  0  0  0
 10 12  1  0  0  0  0
 11 10  2  0  0  0  0
 13 14  1  0  0  0  0
 15 16  1  0  0  0  0
 15 14  1  0  0  0  0
 16 17  1  6  0  0  0
 16 18  1  0  0  0  0
 18 21  1  0  0  0  0
 18 19  1  0  0  0  0
 20 18  2  0  0  0  0
 23 22  1  0  0  0  0
 23 25  1  0  0  0  0
 24 30  1  0  0  0  0
 25 28  1  0  0  0  0
 26 30  2  0  0  0  0
 26 33  1  0  0  0  0
 27 24  1  0  0  0  0
 27 25  2  0  0  0  0
 29 28  1  0  0  0  0
 30 29  1  0  0  0  0
 32 33  2  0  0  0  0
 33 31  1  0  0  0  0
M  END
>  <MODEL>
8

>  <REMARK>
 VINA RESULT:      -5.7      3.020      6.797
  Name = 
  12 active torsions:
  status: ('A' for Active; 'I' for Inactive)
    1  A    between atoms: C_2  and  N_3
    2  A    between atoms: C_2  and  C_12
    3  A    between atoms: N_3  and  C_18
    4  A    between atoms: C_5  and  N_25
    5  A    between atoms: C_6  and  C_8
    6  A    between atoms: C_7  and  P_9
    7  A    between atoms: C_7  and  C_18
    8  A    between atoms: C_8  and  C_17
    9  A    between atoms: N_11  and  C_31
   10  A    between atoms: C_17  and  N_28
   11  A    between atoms: C_24  and  N_26
   12  A    between atoms: N_25  and  N_26
                            x       y       z     vdW  Elec       q    Type
                         _______ _______ _______ _____ _____    ______ ____

>  <TORSDO>
F 12

$$$$
=
 OpenBabel11042416163D

 33 34  0  0  1  0  0  0  0  0999 V2000
  185.5790  177.1630  143.4680 C   0  0  0  0  0  0  0  0  0  0  0  0
  184.0980  179.0350  146.0120 N   0  0  0  0  0  2  0  0  0  0  0  0
  183.9990  178.9480  143.6300 N   0  0  0  0  0  2  0  0  0  0  0  0
  184.4610  178.0190  141.5070 O   0  0  0  0  0  0  0  0  0  0  0  0
  185.4990  177.4770  144.7520 C   0  0  0  0  0  0  0  0  0  0  0  0
  184.5590  178.5900  144.8900 C   0  0  0  0  0  0  0  0  0  0  0  0
  184.6630  178.0460  142.7500 C   0  0  0  0  0  0  0  0  0  0  0  0
  186.3690  176.0420  142.8810 C   0  0  0  0  0  2  0  0  0  0  0  0
  187.4690  176.5940  141.9910 C   0  0  0  0  0  2  0  0  0  0  0  0
  188.9240  174.6160  141.3500 C   0  0  0  0  0  0  0  0  0  0  0  0
  189.5660  174.6660  142.4720 N   0  0  0  0  0  2  0  0  0  0  0  0
  187.9070  175.5760  141.0470 N   0  0  0  0  0  2  0  0  0  0  0  0
  189.3490  173.6460  140.3060 C   0  0  0  0  0  2  0  0  0  0  0  0
  190.7910  173.4810  140.3530 N   0  0  0  0  0  2  0  0  0  0  0  0
  191.0610  172.0500  140.3210 C   0  0  0  0  0  2  0  0  0  0  0  0
  190.8510  171.4130  141.6920 C   0  0  1  0  0  3  0  0  0  0  0  0
  190.5100  170.0650  141.5660 O   0  0  0  0  0  1  0  0  0  0  0  0
  192.3200  171.5920  142.7540 P   0  0  0  0  0  0  0  0  0  0  0  0
  192.2560  170.4560  144.0040 O   0  0  0  0  0  1  0  0  0  0  0  0
  193.7110  171.3280  141.8290 O   0  0  0  0  0  0  0  0  0  0  0  0
  192.3690  172.9840  143.3400 O   0  0  0  0  0  1  0  0  0  0  0  0
  186.1970  176.8000  145.7990 N   0  0  0  0  0  2  0  0  0  0  0  0
  187.4060  177.2900  146.3100 N   0  0  0  0  0  2  0  0  0  0  0  0
  190.5130  177.6200  144.1870 C   0  0  0  0  0  2  0  0  0  0  0  0
  188.6490  176.9970  145.6760 C   0  0  0  0  0  0  0  0  0  0  0  0
  192.7100  176.9640  144.9210 N   0  0  0  0  0  0  0  0  0  0  0  0
  189.2200  177.9140  144.8930 C   0  0  0  0  0  3  0  0  0  0  0  0
  189.3140  175.6600  145.8610 C   0  0  0  0  0  2  0  0  0  0  0  0
  190.8290  175.8150  146.0370 C   0  0  0  0  0  2  0  0  0  0  0  0
  191.4260  176.8070  145.0610 C   0  0  0  0  0  0  0  0  0  0  0  0
  194.2810  175.2640  145.1360 O   0  0  0  0  0  0  0  0  0  0  0  0
  194.2030  176.7450  146.8740 O   0  0  0  0  0  1  0  0  0  0  0  0
  193.7560  176.2910  145.6390 C   0  0  0  0  0  0  0  0  0  0  0  0
  1  5  2  0  0  0  0
  3  6  1  0  0  0  0
  4  7  2  0  0  0  0
  5  6  1  0  0  0  0
  5 22  1  0  0  0  0
  6  2  2  0  0  0  0
  7  1  1  0  0  0  0
  7  3  1  0  0  0  0
  8  1  1  0  0  0  0
  9  8  1  0  0  0  0
 10 11  2  0  0  0  0
 12 10  1  0  0  0  0
 12  9  1  0  0  0  0
 13 14  1  0  0  0  0
 13 10  1  0  0  0  0
 15 14  1  0  0  0  0
 15 16  1  0  0  0  0
 16 17  1  6  0  0  0
 16 18  1  0  0  0  0
 18 21  1  0  0  0  0
 18 19  1  0  0  0  0
 20 18  2  0  0  0  0
 22 23  1  0  0  0  0
 24 27  1  0  0  0  0
 24 30  1  0  0  0  0
 25 28  1  0  0  0  0
 25 23  1  0  0  0  0
 26 30  2  0  0  0  0
 26 33  1  0  0  0  0
 27 25  2  0  0  0  0
 28 29  1  0  0  0  0
 30 29  1  0  0  0  0
 31 33  2  0  0  0  0
 33 32  1  0  0  0  0
M  END
>  <MODEL>
9

>  <REMARK>
 VINA RESULT:      -5.6      2.048      2.674
  Name = 
  12 active torsions:
  status: ('A' for Active; 'I' for Inactive)
    1  A    between atoms: C_2  and  N_3
    2  A    between atoms: C_2  and  C_12
    3  A    between atoms: N_3  and  C_18
    4  A    between atoms: C_5  and  N_25
    5  A    between atoms: C_6  and  C_8
    6  A    between atoms: C_7  and  P_9
    7  A    between atoms: C_7  and  C_18
    8  A    between atoms: C_8  and  C_17
    9  A    between atoms: N_11  and  C_31
   10  A    between atoms: C_17  and  N_28
   11  A    between atoms: C_24  and  N_26
   12  A    between atoms: N_25  and  N_26
                            x       y       z     vdW  Elec       q    Type
                         _______ _______ _______ _____ _____    ______ ____

>  <TORSDO>
F 12

$$$$
