=
 OpenBabel11042418173D

 35 39  0  0  1  0  0  0  0  0999 V2000
  189.5770  174.5720  144.9370 C   0  0  0  0  0  0  0  0  0  0  0  0
  189.2160  174.9160  143.7100 C   0  0  0  0  0  0  0  0  0  0  0  0
  186.0000  178.2050  145.5500 C   0  0  0  0  0  0  0  0  0  0  0  0
  190.5970  173.0900  143.6380 C   0  0  1  0  0  3  0  0  0  0  0  0
  189.3730  177.1490  142.9650 O   0  0  0  0  0  1  0  0  0  0  0  0
  189.9290  174.0630  142.7210 C   0  0  1  0  0  3  0  0  0  0  0  0
  188.4660  176.1830  143.4020 C   0  0  2  0  0  3  0  0  0  0  0  0
  188.0590  176.3330  145.9140 C   0  0  0  0  0  0  0  0  0  0  0  0
  190.4110  171.3120  142.1030 C   0  0  0  0  0  0  0  0  0  0  0  0
  190.7700  170.0170  141.6370 N   0  0  0  0  0  1  0  0  0  0  0  0
  190.4070  173.3730  144.9200 C   0  0  0  0  0  2  0  0  0  0  0  0
  189.4720  174.9660  147.2700 O   0  0  0  0  0  0  0  0  0  0  0  0
  187.4150  176.9010  147.0150 C   0  0  0  0  0  3  0  0  0  0  0  0
  186.6330  177.6500  144.4180 C   0  0  0  0  0  0  0  0  0  0  0  0
  189.2970  172.0450  141.4460 C   0  0  0  0  0  3  0  0  0  0  0  0
  190.9820  171.7950  143.1700 N   0  0  0  0  0  0  0  0  0  0  0  0
  187.6900  176.7180  144.5980 C   0  0  0  0  0  0  0  0  0  0  0  0
  189.0750  175.2790  146.1160 C   0  0  0  0  0  0  0  0  0  0  0  0
  186.4020  177.8350  146.8340 C   0  0  0  0  0  3  0  0  0  0  0  0
  189.0270  173.3180  141.7740 C   0  0  0  0  0  3  0  0  0  0  0  0
  184.9120  179.2230  145.4200 C   0  0  0  0  0  2  0  0  0  0  0  0
  183.7010  178.7350  146.0560 N   0  0  0  0  0  1  0  0  0  0  0  0
  186.5970  179.3720  142.7540 O   0  0  0  0  0  1  0  0  0  0  0  0
  186.1680  178.0750  143.0490 C   0  0  2  0  0  3  0  0  0  0  0  0
  184.0300  178.0500  141.6980 C   0  0  0  0  0  0  0  0  0  0  0  0
  184.7190  177.9830  142.9460 N   0  0  0  0  0  2  0  0  0  0  0  0
  184.6710  178.1740  140.6190 O   0  0  0  0  0  0  0  0  0  0  0  0
  181.9340  179.0340  142.6130 C   0  0  0  0  0  2  0  0  0  0  0  0
  180.4260  179.2130  142.3910 C   0  0  0  0  0  2  0  0  0  0  0  0
  181.9980  178.0910  140.2560 C   0  0  0  0  0  2  0  0  0  0  0  0
  179.8750  178.1480  141.5520 N   0  0  0  0  0  0  0  0  0  0  0  0
  180.4730  178.2750  140.2200 C   0  0  0  0  0  2  0  0  0  0  0  0
  182.5400  177.9790  141.6840 C   0  0  0  0  0  3  0  0  0  0  0  0
  178.5520  178.4000  141.4130 O   0  0  0  0  0  0  0  0  0  0  0  0
  178.1230  178.7750  142.6890 C   0  0  0  0  0  1  0  0  0  0  0  0
  1 18  1  0  0  0  0
  2  1  2  0  0  0  0
  3 19  1  0  0  0  0
  4 11  1  1  0  0  0
  6 20  1  6  0  0  0
  6  4  1  0  0  0  0
  6  2  1  0  0  0  0
  7  5  1  1  0  0  0
  7  2  1  0  0  0  0
  7 17  1  0  0  0  0
  8 18  1  0  0  0  0
  8 13  1  0  0  0  0
  9 16  2  0  0  0  0
 10  9  1  0  0  0  0
 11  1  1  0  0  0  0
 14 17  1  0  0  0  0
 14  3  2  0  0  0  0
 15 20  2  0  0  0  0
 15  9  1  0  0  0  0
 16  4  1  0  0  0  0
 17  8  2  0  0  0  0
 18 12  2  0  0  0  0
 19 13  2  0  0  0  0
 21  3  1  0  0  0  0
 21 22  1  0  0  0  0
 24 23  1  1  0  0  0
 24 14  1  0  0  0  0
 25 26  1  0  0  0  0
 26 24  1  0  0  0  0
 27 25  2  0  0  0  0
 29 28  1  0  0  0  0
 30 33  1  0  0  0  0
 31 29  1  0  0  0  0
 32 30  1  0  0  0  0
 32 31  1  0  0  0  0
 33 25  1  0  0  0  0
 33 28  1  0  0  0  0
 34 31  1  0  0  0  0
 34 35  1  0  0  0  0
M  END
>  <MODEL>
1

>  <REMARK>
 VINA RESULT:      -8.5      0.000      0.000
  Name = 
  5 active torsions:
  status: ('A' for Active; 'I' for Inactive)
    1  A    between atoms: C_2  and  C_27
    2  A    between atoms: C_4  and  C_5
    3  A    between atoms: C_10  and  N_11
    4  A    between atoms: C_10  and  C_26
    5  A    between atoms: O_16  and  N_24
                            x       y       z     vdW  Elec       q    Type
                         _______ _______ _______ _____ _____    ______ ____

>  <TORSDO>
F 5

$$$$
=
 OpenBabel11042418173D

 35 39  0  0  1  0  0  0  0  0999 V2000
  187.7180  176.6390  143.1140 C   0  0  0  0  0  0  0  0  0  0  0  0
  188.2410  176.1410  144.2240 C   0  0  0  0  0  0  0  0  0  0  0  0
  189.8080  172.1580  141.7260 C   0  0  0  0  0  0  0  0  0  0  0  0
  187.0040  178.0060  144.7110 C   0  0  1  0  0  3  0  0  0  0  0  0
  190.5300  175.5820  144.3600 O   0  0  0  0  0  1  0  0  0  0  0  0
  187.9310  177.0360  145.3710 C   0  0  1  0  0  3  0  0  0  0  0  0
  189.2560  175.0300  144.2240 C   0  0  2  0  0  3  0  0  0  0  0  0
  188.6210  174.7010  141.7770 C   0  0  0  0  0  0  0  0  0  0  0  0
  185.7130  178.3020  146.6590 C   0  0  0  0  0  0  0  0  0  0  0  0
  184.7550  179.0170  147.4300 N   0  0  0  0  0  1  0  0  0  0  0  0
  186.8750  177.7930  143.4080 C   0  0  0  0  0  2  0  0  0  0  0  0
  187.4460  176.5180  140.7650 O   0  0  0  0  0  0  0  0  0  0  0  0
  188.6620  173.9620  140.5930 C   0  0  0  0  0  3  0  0  0  0  0  0
  189.7830  172.8820  142.9370 C   0  0  0  0  0  0  0  0  0  0  0  0
  186.2170  176.9920  147.1480 C   0  0  0  0  0  3  0  0  0  0  0  0
  186.0540  178.7450  145.4810 N   0  0  0  0  0  0  0  0  0  0  0  0
  189.2020  174.1780  142.9620 C   0  0  0  0  0  0  0  0  0  0  0  0
  187.9110  175.9960  141.8140 C   0  0  0  0  0  0  0  0  0  0  0  0
  189.2590  172.7070  140.5660 C   0  0  0  0  0  3  0  0  0  0  0  0
  187.2180  176.3630  146.5130 C   0  0  0  0  0  3  0  0  0  0  0  0
  190.4450  170.8090  141.6320 C   0  0  0  0  0  2  0  0  0  0  0  0
  191.7560  170.9250  141.0160 N   0  0  0  0  0  1  0  0  0  0  0  0
  189.6150  172.5310  145.3000 O   0  0  0  0  0  1  0  0  0  0  0  0
  190.3850  172.2530  144.1670 C   0  0  2  0  0  3  0  0  0  0  0  0
  192.8570  171.8050  144.4600 C   0  0  0  0  0  0  0  0  0  0  0  0
  191.7550  172.7060  144.3600 N   0  0  0  0  0  2  0  0  0  0  0  0
  192.6770  170.5600  144.3630 O   0  0  0  0  0  0  0  0  0  0  0  0
  194.9930  172.4730  143.3710 C   0  0  0  0  0  2  0  0  0  0  0  0
  196.2670  173.3190  143.5100 C   0  0  0  0  0  2  0  0  0  0  0  0
  194.1660  173.6820  145.4460 C   0  0  0  0  0  2  0  0  0  0  0  0
  196.5940  173.5710  144.9150 N   0  0  0  0  0  0  0  0  0  0  0  0
  195.5250  174.3980  145.4810 C   0  0  0  0  0  2  0  0  0  0  0  0
  194.2260  172.3520  144.6900 C   0  0  0  0  0  3  0  0  0  0  0  0
  197.7210  174.3230  144.9280 O   0  0  0  0  0  0  0  0  0  0  0  0
  197.7130  175.0010  143.7060 C   0  0  0  0  0  1  0  0  0  0  0  0
  1 11  1  0  0  0  0
  1  2  2  0  0  0  0
  2  7  1  0  0  0  0
  2  6  1  0  0  0  0
  3 14  1  0  0  0  0
  4 11  1  6  0  0  0
  4  6  1  0  0  0  0
  4 16  1  0  0  0  0
  6 20  1  1  0  0  0
  7  5  1  6  0  0  0
  8 18  1  0  0  0  0
  8 17  1  0  0  0  0
  9 15  1  0  0  0  0
  9 10  1  0  0  0  0
 12 18  2  0  0  0  0
 13  8  2  0  0  0  0
 14 17  2  0  0  0  0
 14 24  1  0  0  0  0
 16  9  2  0  0  0  0
 17  7  1  0  0  0  0
 18  1  1  0  0  0  0
 19 13  1  0  0  0  0
 19  3  2  0  0  0  0
 20 15  2  0  0  0  0
 21  3  1  0  0  0  0
 22 21  1  0  0  0  0
 24 26  1  0  0  0  0
 24 23  1  1  0  0  0
 25 33  1  0  0  0  0
 26 25  1  0  0  0  0
 27 25  2  0  0  0  0
 28 29  1  0  0  0  0
 28 33  1  0  0  0  0
 29 31  1  0  0  0  0
 30 32  1  0  0  0  0
 31 34  1  0  0  0  0
 31 32  1  0  0  0  0
 33 30  1  0  0  0  0
 35 34  1  0  0  0  0
M  END
>  <MODEL>
2

>  <REMARK>
 VINA RESULT:      -8.1      3.686     10.467
  Name = 
  5 active torsions:
  status: ('A' for Active; 'I' for Inactive)
    1  A    between atoms: C_2  and  C_27
    2  A    between atoms: C_4  and  C_5
    3  A    between atoms: C_10  and  N_11
    4  A    between atoms: C_10  and  C_26
    5  A    between atoms: O_16  and  N_24
                            x       y       z     vdW  Elec       q    Type
                         _______ _______ _______ _____ _____    ______ ____

>  <TORSDO>
F 5

$$$$
=
 OpenBabel11042418173D

 35 39  0  0  1  0  0  0  0  0999 V2000
  187.5020  176.8420  144.9810 C   0  0  0  0  0  0  0  0  0  0  0  0
  188.1420  176.4190  143.9010 C   0  0  0  0  0  0  0  0  0  0  0  0
  192.4190  176.4250  146.4040 C   0  0  0  0  0  0  0  0  0  0  0  0
  185.9770  176.9470  143.3720 C   0  0  1  0  0  3  0  0  0  0  0  0
  189.4090  174.4280  143.9260 O   0  0  0  0  0  1  0  0  0  0  0  0
  187.1930  176.3310  142.7590 C   0  0  1  0  0  3  0  0  0  0  0  0
  189.5210  175.8190  143.9490 C   0  0  2  0  0  3  0  0  0  0  0  0
  189.6290  176.7220  146.3310 C   0  0  0  0  0  0  0  0  0  0  0  0
  185.2780  177.9110  141.3390 C   0  0  0  0  0  0  0  0  0  0  0  0
  184.2920  178.5220  140.5160 N   0  0  0  0  0  1  0  0  0  0  0  0
  186.1380  177.2430  144.6540 C   0  0  0  0  0  2  0  0  0  0  0  0
  187.5310  177.3300  147.2980 O   0  0  0  0  0  0  0  0  0  0  0  0
  190.3430  177.0180  147.4940 C   0  0  0  0  0  3  0  0  0  0  0  0
  191.7240  176.1160  145.2150 C   0  0  0  0  0  0  0  0  0  0  0  0
  186.6810  177.8160  140.8540 C   0  0  0  0  0  3  0  0  0  0  0  0
  184.9710  177.5420  142.5510 N   0  0  0  0  0  0  0  0  0  0  0  0
  190.3100  176.2460  145.1800 C   0  0  0  0  0  0  0  0  0  0  0  0
  188.1740  176.9730  146.2740 C   0  0  0  0  0  0  0  0  0  0  0  0
  191.7240  176.8600  147.5320 C   0  0  0  0  0  3  0  0  0  0  0  0
  187.5990  177.1260  141.5470 C   0  0  0  0  0  3  0  0  0  0  0  0
  193.9020  176.2640  146.5100 C   0  0  0  0  0  2  0  0  0  0  0  0
  194.5630  177.4730  146.0510 N   0  0  0  0  0  1  0  0  0  0  0  0
  191.8610  175.9840  142.8270 O   0  0  0  0  0  1  0  0  0  0  0  0
  192.5130  175.6510  144.0180 C   0  0  2  0  0  3  0  0  0  0  0  0
  194.0490  173.6430  143.9400 C   0  0  0  0  0  0  0  0  0  0  0  0
  192.7500  174.2160  144.0830 N   0  0  0  0  0  2  0  0  0  0  0  0
  195.0590  174.3800  143.7700 O   0  0  0  0  0  0  0  0  0  0  0  0
  195.0310  171.7340  145.2020 C   0  0  0  0  0  2  0  0  0  0  0  0
  194.9430  170.2250  145.4710 C   0  0  0  0  0  2  0  0  0  0  0  0
  192.8340  171.4680  143.9550 C   0  0  0  0  0  2  0  0  0  0  0  0
  194.3220  169.5140  144.3530 N   0  0  0  0  0  0  0  0  0  0  0  0
  192.9310  169.9640  144.2550 C   0  0  0  0  0  2  0  0  0  0  0  0
  194.2000  172.1590  143.9890 C   0  0  0  0  0  3  0  0  0  0  0  0
  194.2870  168.2020  144.6900 O   0  0  0  0  0  0  0  0  0  0  0  0
  193.8330  168.1850  146.0120 C   0  0  0  0  0  1  0  0  0  0  0  0
  1 18  1  0  0  0  0
  2  7  1  0  0  0  0
  2  1  2  0  0  0  0
  3 21  1  0  0  0  0
  3 19  1  0  0  0  0
  4 11  1  1  0  0  0
  6 20  1  6  0  0  0
  6  4  1  0  0  0  0
  6  2  1  0  0  0  0
  7  5  1  1  0  0  0
  7 17  1  0  0  0  0
  8 13  1  0  0  0  0
  9 16  2  0  0  0  0
 10  9  1  0  0  0  0
 11  1  1  0  0  0  0
 13 19  2  0  0  0  0
 14  3  2  0  0  0  0
 15  9  1  0  0  0  0
 15 20  2  0  0  0  0
 16  4  1  0  0  0  0
 17 14  1  0  0  0  0
 17  8  2  0  0  0  0
 18  8  1  0  0  0  0
 18 12  2  0  0  0  0
 22 21  1  0  0  0  0
 24 23  1  6  0  0  0
 24 26  1  0  0  0  0
 24 14  1  0  0  0  0
 25 33  1  0  0  0  0
 25 26  1  0  0  0  0
 27 25  2  0  0  0  0
 28 29  1  0  0  0  0
 30 33  1  0  0  0  0
 30 32  1  0  0  0  0
 31 34  1  0  0  0  0
 31 29  1  0  0  0  0
 32 31  1  0  0  0  0
 33 28  1  0  0  0  0
 34 35  1  0  0  0  0
M  END
>  <MODEL>
3

>  <REMARK>
 VINA RESULT:      -8.0      3.760      9.760
  Name = 
  5 active torsions:
  status: ('A' for Active; 'I' for Inactive)
    1  A    between atoms: C_2  and  C_27
    2  A    between atoms: C_4  and  C_5
    3  A    between atoms: C_10  and  N_11
    4  A    between atoms: C_10  and  C_26
    5  A    between atoms: O_16  and  N_24
                            x       y       z     vdW  Elec       q    Type
                         _______ _______ _______ _____ _____    ______ ____

>  <TORSDO>
F 5

$$$$
=
 OpenBabel11042418173D

 35 39  0  0  1  0  0  0  0  0999 V2000
  187.3730  176.7500  144.9080 C   0  0  0  0  0  0  0  0  0  0  0  0
  188.0310  176.3950  143.8140 C   0  0  0  0  0  0  0  0  0  0  0  0
  192.2760  176.3090  146.3680 C   0  0  0  0  0  0  0  0  0  0  0  0
  185.8660  176.9270  143.2870 C   0  0  1  0  0  3  0  0  0  0  0  0
  189.3220  174.4210  143.7440 O   0  0  0  0  0  1  0  0  0  0  0  0
  187.0980  176.3610  142.6560 C   0  0  1  0  0  3  0  0  0  0  0  0
  189.4160  175.8090  143.8460 C   0  0  2  0  0  3  0  0  0  0  0  0
  189.4840  176.5780  146.2760 C   0  0  0  0  0  0  0  0  0  0  0  0
  185.1810  177.9960  141.3030 C   0  0  0  0  0  0  0  0  0  0  0  0
  184.1970  178.6420  140.5040 N   0  0  0  0  0  1  0  0  0  0  0  0
  186.0080  177.1530  144.5860 C   0  0  0  0  0  2  0  0  0  0  0  0
  187.3680  177.1060  147.2490 O   0  0  0  0  0  0  0  0  0  0  0  0
  190.1800  176.8160  147.4630 C   0  0  0  0  0  3  0  0  0  0  0  0
  191.6010  176.0600  145.1550 C   0  0  0  0  0  0  0  0  0  0  0  0
  186.5900  177.9450  140.8320 C   0  0  0  0  0  3  0  0  0  0  0  0
  184.8630  177.5560  142.4880 N   0  0  0  0  0  0  0  0  0  0  0  0
  190.1860  176.1760  145.1090 C   0  0  0  0  0  0  0  0  0  0  0  0
  188.0270  176.8150  146.2150 C   0  0  0  0  0  0  0  0  0  0  0  0
  191.5620  176.6720  147.5100 C   0  0  0  0  0  3  0  0  0  0  0  0
  187.5090  177.2270  141.4970 C   0  0  0  0  0  3  0  0  0  0  0  0
  193.7600  176.1600  146.4840 C   0  0  0  0  0  2  0  0  0  0  0  0
  194.3880  177.4700  146.4880 N   0  0  0  0  0  1  0  0  0  0  0  0
  192.0470  176.4370  142.8320 O   0  0  0  0  0  1  0  0  0  0  0  0
  192.4100  175.6720  143.9440 C   0  0  2  0  0  3  0  0  0  0  0  0
  193.3210  173.4550  143.1360 C   0  0  0  0  0  0  0  0  0  0  0  0
  192.2580  174.2540  143.6560 N   0  0  0  0  0  2  0  0  0  0  0  0
  194.4570  173.9610  142.9250 O   0  0  0  0  0  0  0  0  0  0  0  0
  193.2440  171.1600  144.0970 C   0  0  0  0  0  2  0  0  0  0  0  0
  192.6910  169.7380  143.9190 C   0  0  0  0  0  2  0  0  0  0  0  0
  191.6960  171.8180  142.1930 C   0  0  0  0  0  2  0  0  0  0  0  0
  192.3890  169.4500  142.5160 N   0  0  0  0  0  0  0  0  0  0  0  0
  191.2980  170.3360  142.1030 C   0  0  0  0  0  2  0  0  0  0  0  0
  193.0710  172.0150  142.8390 C   0  0  0  0  0  3  0  0  0  0  0  0
  191.9070  168.1850  142.4690 O   0  0  0  0  0  0  0  0  0  0  0  0
  190.8090  168.2530  141.6070 C   0  0  0  0  0  1  0  0  0  0  0  0
  1 18  1  0  0  0  0
  2  7  1  0  0  0  0
  2  1  2  0  0  0  0
  3 21  1  0  0  0  0
  3 19  1  0  0  0  0
  4 11  1  1  0  0  0
  6 20  1  6  0  0  0
  6  4  1  0  0  0  0
  6  2  1  0  0  0  0
  7  5  1  1  0  0  0
  7 17  1  0  0  0  0
  8 13  1  0  0  0  0
  9 16  2  0  0  0  0
 10  9  1  0  0  0  0
 11  1  1  0  0  0  0
 13 19  2  0  0  0  0
 14  3  2  0  0  0  0
 15  9  1  0  0  0  0
 15 20  2  0  0  0  0
 16  4  1  0  0  0  0
 17 14  1  0  0  0  0
 17  8  2  0  0  0  0
 18  8  1  0  0  0  0
 18 12  2  0  0  0  0
 21 22  1  0  0  0  0
 24 23  1  6  0  0  0
 24 14  1  0  0  0  0
 25 26  1  0  0  0  0
 26 24  1  0  0  0  0
 27 25  2  0  0  0  0
 29 28  1  0  0  0  0
 30 33  1  0  0  0  0
 31 29  1  0  0  0  0
 32 30  1  0  0  0  0
 32 31  1  0  0  0  0
 33 25  1  0  0  0  0
 33 28  1  0  0  0  0
 34 31  1  0  0  0  0
 35 34  1  0  0  0  0
M  END
>  <MODEL>
4

>  <REMARK>
 VINA RESULT:      -7.9      3.546      9.008
  Name = 
  5 active torsions:
  status: ('A' for Active; 'I' for Inactive)
    1  A    between atoms: C_2  and  C_27
    2  A    between atoms: C_4  and  C_5
    3  A    between atoms: C_10  and  N_11
    4  A    between atoms: C_10  and  C_26
    5  A    between atoms: O_16  and  N_24
                            x       y       z     vdW  Elec       q    Type
                         _______ _______ _______ _____ _____    ______ ____

>  <TORSDO>
F 5

$$$$
=
 OpenBabel11042418173D

 35 39  0  0  1  0  0  0  0  0999 V2000
  194.7350  175.6800  142.1440 C   0  0  0  0  0  0  0  0  0  0  0  0
  193.5320  175.1510  141.9800 C   0  0  0  0  0  0  0  0  0  0  0  0
  192.5150  175.9220  146.7680 C   0  0  0  0  0  0  0  0  0  0  0  0
  194.7810  174.8580  140.0830 C   0  0  1  0  0  3  0  0  0  0  0  0
  191.5770  176.3590  142.5130 O   0  0  0  0  0  1  0  0  0  0  0  0
  193.3870  174.6580  140.5840 C   0  0  1  0  0  3  0  0  0  0  0  0
  192.4130  175.3390  142.9680 C   0  0  2  0  0  3  0  0  0  0  0  0
  194.2080  176.2220  144.5490 C   0  0  0  0  0  0  0  0  0  0  0  0
  194.6900  172.9650  138.6820 C   0  0  0  0  0  0  0  0  0  0  0  0
  195.1840  172.1800  137.6030 N   0  0  0  0  0  1  0  0  0  0  0  0
  195.5690  175.4500  140.9690 C   0  0  0  0  0  2  0  0  0  0  0  0
  196.2740  176.8380  143.5220 O   0  0  0  0  0  0  0  0  0  0  0  0
  194.6260  176.6250  145.8190 C   0  0  0  0  0  3  0  0  0  0  0  0
  192.0640  175.5070  145.4970 C   0  0  0  0  0  0  0  0  0  0  0  0
  193.5950  172.4320  139.5350 C   0  0  0  0  0  3  0  0  0  0  0  0
  195.2760  174.0900  138.9840 N   0  0  0  0  0  0  0  0  0  0  0  0
  192.9100  175.6760  144.3680 C   0  0  0  0  0  0  0  0  0  0  0  0
  195.1420  176.2960  143.4070 C   0  0  0  0  0  0  0  0  0  0  0  0
  193.7840  176.4850  146.9160 C   0  0  0  0  0  3  0  0  0  0  0  0
  193.0190  173.2030  140.4700 C   0  0  0  0  0  3  0  0  0  0  0  0
  191.6510  175.8080  147.9830 C   0  0  0  0  0  2  0  0  0  0  0  0
  191.2220  177.1290  148.4080 N   0  0  0  0  0  1  0  0  0  0  0  0
  190.6560  173.9190  144.3870 O   0  0  0  0  0  1  0  0  0  0  0  0
  190.6890  174.9020  145.3810 C   0  0  2  0  0  3  0  0  0  0  0  0
  188.5310  176.1050  145.9200 C   0  0  0  0  0  0  0  0  0  0  0  0
  189.6940  175.9300  145.1130 N   0  0  0  0  0  2  0  0  0  0  0  0
  188.3340  175.3710  146.9270 O   0  0  0  0  0  0  0  0  0  0  0  0
  187.4450  177.3190  144.0370 C   0  0  0  0  0  2  0  0  0  0  0  0
  186.2300  178.1540  143.6110 C   0  0  0  0  0  2  0  0  0  0  0  0
  186.1820  176.8880  146.1980 C   0  0  0  0  0  2  0  0  0  0  0  0
  185.6190  178.8350  144.7540 N   0  0  0  0  0  0  0  0  0  0  0  0
  185.0800  177.8080  145.6500 C   0  0  0  0  0  2  0  0  0  0  0  0
  187.5450  177.1640  145.5560 C   0  0  0  0  0  3  0  0  0  0  0  0
  184.5610  179.5340  144.2770 O   0  0  0  0  0  0  0  0  0  0  0  0
  183.9700  178.6890  143.3330 C   0  0  0  0  0  1  0  0  0  0  0  0
  1 18  1  0  0  0  0
  2  1  2  0  0  0  0
  2  7  1  0  0  0  0
  3 19  1  0  0  0  0
  3 21  1  0  0  0  0
  4  6  1  0  0  0  0
  4 11  1  1  0  0  0
  6 20  1  1  0  0  0
  6  2  1  0  0  0  0
  7  5  1  6  0  0  0
  7 17  1  0  0  0  0
  8 13  1  0  0  0  0
  9 16  2  0  0  0  0
  9 15  1  0  0  0  0
 10  9  1  0  0  0  0
 11  1  1  0  0  0  0
 13 19  2  0  0  0  0
 14  3  2  0  0  0  0
 15 20  2  0  0  0  0
 16  4  1  0  0  0  0
 17  8  2  0  0  0  0
 17 14  1  0  0  0  0
 18 12  2  0  0  0  0
 18  8  1  0  0  0  0
 21 22  1  0  0  0  0
 24 23  1  6  0  0  0
 24 14  1  0  0  0  0
 25 27  2  0  0  0  0
 26 24  1  0  0  0  0
 26 25  1  0  0  0  0
 28 33  1  0  0  0  0
 29 28  1  0  0  0  0
 29 31  1  0  0  0  0
 31 32  1  0  0  0  0
 32 30  1  0  0  0  0
 33 25  1  0  0  0  0
 33 30  1  0  0  0  0
 34 31  1  0  0  0  0
 35 34  1  0  0  0  0
M  END
>  <MODEL>
5

>  <REMARK>
 VINA RESULT:      -7.7      4.118      6.309
  Name = 
  5 active torsions:
  status: ('A' for Active; 'I' for Inactive)
    1  A    between atoms: C_2  and  C_27
    2  A    between atoms: C_4  and  C_5
    3  A    between atoms: C_10  and  N_11
    4  A    between atoms: C_10  and  C_26
    5  A    between atoms: O_16  and  N_24
                            x       y       z     vdW  Elec       q    Type
                         _______ _______ _______ _____ _____    ______ ____

>  <TORSDO>
F 5

$$$$
=
 OpenBabel11042418173D

 35 39  0  0  1  0  0  0  0  0999 V2000
  191.8950  176.4330  145.9580 C   0  0  0  0  0  0  0  0  0  0  0  0
  191.8860  176.5850  144.6420 C   0  0  0  0  0  0  0  0  0  0  0  0
  187.1120  177.9030  144.8000 C   0  0  0  0  0  0  0  0  0  0  0  0
  193.8650  175.6430  145.3090 C   0  0  1  0  0  3  0  0  0  0  0  0
  191.2740  178.6340  143.6470 O   0  0  0  0  0  1  0  0  0  0  0  0
  193.2090  176.1940  144.0840 C   0  0  1  0  0  3  0  0  0  0  0  0
  190.8120  177.3440  143.9120 C   0  0  2  0  0  3  0  0  0  0  0  0
  189.5080  177.2360  146.1010 C   0  0  0  0  0  0  0  0  0  0  0  0
  195.0670  174.0200  144.0960 C   0  0  0  0  0  0  0  0  0  0  0  0
  196.1130  173.0630  143.9810 N   0  0  0  0  0  1  0  0  0  0  0  0
  193.1210  175.7770  146.3990 C   0  0  0  0  0  2  0  0  0  0  0  0
  190.7920  176.6860  148.0390 O   0  0  0  0  0  0  0  0  0  0  0  0
  188.3300  177.4070  146.8300 C   0  0  0  0  0  3  0  0  0  0  0  0
  188.2870  177.7390  144.0370 C   0  0  0  0  0  0  0  0  0  0  0  0
  194.0630  174.1430  143.0070 C   0  0  0  0  0  3  0  0  0  0  0  0
  194.9320  174.6980  145.2010 N   0  0  0  0  0  0  0  0  0  0  0  0
  189.5060  177.4220  144.6930 C   0  0  0  0  0  0  0  0  0  0  0  0
  190.7410  176.7930  146.7830 C   0  0  0  0  0  0  0  0  0  0  0  0
  187.1460  177.7470  146.1860 C   0  0  0  0  0  3  0  0  0  0  0  0
  193.1500  175.1260  143.0250 C   0  0  0  0  0  3  0  0  0  0  0  0
  185.8120  178.2800  144.1660 C   0  0  0  0  0  2  0  0  0  0  0  0
  185.2530  179.4390  144.8390 N   0  0  0  0  0  1  0  0  0  0  0  0
  186.9100  178.2490  142.1450 O   0  0  0  0  0  1  0  0  0  0  0  0
  188.2080  177.9140  142.5410 C   0  0  2  0  0  3  0  0  0  0  0  0
  187.9210  175.4850  141.8970 C   0  0  0  0  0  0  0  0  0  0  0  0
  188.6540  176.7100  141.8570 N   0  0  0  0  0  2  0  0  0  0  0  0
  186.8290  175.4130  142.5230 O   0  0  0  0  0  0  0  0  0  0  0  0
  188.3500  174.4470  139.6750 C   0  0  0  0  0  2  0  0  0  0  0  0
  189.1770  173.4020  138.9120 C   0  0  0  0  0  2  0  0  0  0  0  0
  189.9040  173.9990  141.6340 C   0  0  0  0  0  2  0  0  0  0  0  0
  189.6500  172.3380  139.7990 N   0  0  0  0  0  0  0  0  0  0  0  0
  190.5840  172.9370  140.7570 C   0  0  0  0  0  2  0  0  0  0  0  0
  188.4660  174.2880  141.1930 C   0  0  0  0  0  3  0  0  0  0  0  0
  190.3670  171.4780  139.0370 O   0  0  0  0  0  0  0  0  0  0  0  0
  190.9410  170.5860  139.9460 C   0  0  0  0  0  1  0  0  0  0  0  0
  1 11  1  0  0  0  0
  1 18  1  0  0  0  0
  2  1  2  0  0  0  0
  3 19  1  0  0  0  0
  4 11  1  1  0  0  0
  6 20  1  6  0  0  0
  6  2  1  0  0  0  0
  6  4  1  0  0  0  0
  7  5  1  1  0  0  0
  7  2  1  0  0  0  0
  7 17  1  0  0  0  0
  8 18  1  0  0  0  0
  8 13  1  0  0  0  0
  9 16  2  0  0  0  0
 10  9  1  0  0  0  0
 14 17  1  0  0  0  0
 14  3  2  0  0  0  0
 15 20  2  0  0  0  0
 15  9  1  0  0  0  0
 16  4  1  0  0  0  0
 17  8  2  0  0  0  0
 18 12  2  0  0  0  0
 19 13  2  0  0  0  0
 21  3  1  0  0  0  0
 21 22  1  0  0  0  0
 24 23  1  1  0  0  0
 24 14  1  0  0  0  0
 25 27  2  0  0  0  0
 26 25  1  0  0  0  0
 26 24  1  0  0  0  0
 28 33  1  0  0  0  0
 29 28  1  0  0  0  0
 29 31  1  0  0  0  0
 31 32  1  0  0  0  0
 32 30  1  0  0  0  0
 33 30  1  0  0  0  0
 33 25  1  0  0  0  0
 34 31  1  0  0  0  0
 34 35  1  0  0  0  0
M  END
>  <MODEL>
6

>  <REMARK>
 VINA RESULT:      -7.7      3.541      6.223
  Name = 
  5 active torsions:
  status: ('A' for Active; 'I' for Inactive)
    1  A    between atoms: C_2  and  C_27
    2  A    between atoms: C_4  and  C_5
    3  A    between atoms: C_10  and  N_11
    4  A    between atoms: C_10  and  C_26
    5  A    between atoms: O_16  and  N_24
                            x       y       z     vdW  Elec       q    Type
                         _______ _______ _______ _____ _____    ______ ____

>  <TORSDO>
F 5

$$$$
=
 OpenBabel11042418173D

 35 39  0  0  1  0  0  0  0  0999 V2000
  192.9920  174.1790  141.1370 C   0  0  0  0  0  0  0  0  0  0  0  0
  191.7280  173.8720  141.3880 C   0  0  0  0  0  0  0  0  0  0  0  0
  192.3410  175.1240  146.1420 C   0  0  0  0  0  0  0  0  0  0  0  0
  192.2820  173.2320  139.2590 C   0  0  1  0  0  3  0  0  0  0  0  0
  190.2400  175.4520  142.3140 O   0  0  0  0  0  1  0  0  0  0  0  0
  191.0920  173.3250  140.1590 C   0  0  1  0  0  3  0  0  0  0  0  0
  191.0040  174.3270  142.6260 C   0  0  2  0  0  3  0  0  0  0  0  0
  193.3090  174.9630  143.5130 C   0  0  0  0  0  0  0  0  0  0  0  0
  191.4760  171.3020  138.1740 C   0  0  0  0  0  0  0  0  0  0  0  0
  191.4900  170.3720  137.0980 N   0  0  0  0  0  1  0  0  0  0  0  0
  193.3840  173.7240  139.8080 C   0  0  0  0  0  2  0  0  0  0  0  0
  195.0370  175.1200  141.8710 O   0  0  0  0  0  0  0  0  0  0  0  0
  194.1500  175.3630  144.5530 C   0  0  0  0  0  3  0  0  0  0  0  0
  191.4680  174.7190  145.1110 C   0  0  0  0  0  0  0  0  0  0  0  0
  190.6200  171.0370  139.3610 C   0  0  0  0  0  3  0  0  0  0  0  0
  192.2940  172.3160  138.1620 N   0  0  0  0  0  0  0  0  0  0  0  0
  191.9480  174.6560  143.7760 C   0  0  0  0  0  0  0  0  0  0  0  0
  193.8530  174.7900  142.1500 C   0  0  0  0  0  0  0  0  0  0  0  0
  193.6670  175.4520  145.8540 C   0  0  0  0  0  3  0  0  0  0  0  0
  190.4830  171.9590  140.3260 C   0  0  0  0  0  3  0  0  0  0  0  0
  191.8780  175.2510  147.5580 C   0  0  0  0  0  2  0  0  0  0  0  0
  191.4720  176.6200  147.8240 N   0  0  0  0  0  1  0  0  0  0  0  0
  189.6170  173.2370  144.7690 O   0  0  0  0  0  1  0  0  0  0  0  0
  190.0440  174.3720  145.4650 C   0  0  2  0  0  3  0  0  0  0  0  0
  188.2530  176.0100  146.1750 C   0  0  0  0  0  0  0  0  0  0  0  0
  189.1590  175.4950  145.1990 N   0  0  0  0  0  2  0  0  0  0  0  0
  188.2060  175.5100  147.3320 O   0  0  0  0  0  0  0  0  0  0  0  0
  187.6100  177.5990  144.3690 C   0  0  0  0  0  2  0  0  0  0  0  0
  186.5090  178.5330  143.8470 C   0  0  0  0  0  2  0  0  0  0  0  0
  185.8880  176.7830  146.0480 C   0  0  0  0  0  2  0  0  0  0  0  0
  185.6350  178.9900  144.9280 N   0  0  0  0  0  0  0  0  0  0  0  0
  184.9240  177.8210  145.4520 C   0  0  0  0  0  2  0  0  0  0  0  0
  187.3570  177.1450  145.8090 C   0  0  0  0  0  3  0  0  0  0  0  0
  184.7020  179.7970  144.3660 O   0  0  0  0  0  0  0  0  0  0  0  0
  183.8140  178.9260  143.7280 C   0  0  0  0  0  1  0  0  0  0  0  0
  1  2  2  0  0  0  0
  1 18  1  0  0  0  0
  2  7  1  0  0  0  0
  3 21  1  0  0  0  0
  4 11  1  1  0  0  0
  4  6  1  0  0  0  0
  6 20  1  1  0  0  0
  6  2  1  0  0  0  0
  7  5  1  6  0  0  0
  7 17  1  0  0  0  0
  8 17  2  0  0  0  0
  8 13  1  0  0  0  0
  9 15  1  0  0  0  0
 10  9  1  0  0  0  0
 11  1  1  0  0  0  0
 12 18  2  0  0  0  0
 13 19  2  0  0  0  0
 14 24  1  0  0  0  0
 14  3  2  0  0  0  0
 15 20  2  0  0  0  0
 16  9  2  0  0  0  0
 16  4  1  0  0  0  0
 17 14  1  0  0  0  0
 18  8  1  0  0  0  0
 19  3  1  0  0  0  0
 21 22  1  0  0  0  0
 24 23  1  6  0  0  0
 25 27  2  0  0  0  0
 26 24  1  0  0  0  0
 26 25  1  0  0  0  0
 28 33  1  0  0  0  0
 29 28  1  0  0  0  0
 29 31  1  0  0  0  0
 31 32  1  0  0  0  0
 32 30  1  0  0  0  0
 33 30  1  0  0  0  0
 33 25  1  0  0  0  0
 34 31  1  0  0  0  0
 35 34  1  0  0  0  0
M  END
>  <MODEL>
7

>  <REMARK>
 VINA RESULT:      -7.6      3.180      5.983
  Name = 
  5 active torsions:
  status: ('A' for Active; 'I' for Inactive)
    1  A    between atoms: C_2  and  C_27
    2  A    between atoms: C_4  and  C_5
    3  A    between atoms: C_10  and  N_11
    4  A    between atoms: C_10  and  C_26
    5  A    between atoms: O_16  and  N_24
                            x       y       z     vdW  Elec       q    Type
                         _______ _______ _______ _____ _____    ______ ____

>  <TORSDO>
F 5

$$$$
=
 OpenBabel11042418173D

 35 39  0  0  1  0  0  0  0  0999 V2000
  189.2900  175.9430  146.5680 C   0  0  0  0  0  0  0  0  0  0  0  0
  189.1670  176.2180  145.2780 C   0  0  0  0  0  0  0  0  0  0  0  0
  194.0910  176.0650  144.7510 C   0  0  0  0  0  0  0  0  0  0  0  0
  187.1350  176.4150  146.3180 C   0  0  1  0  0  3  0  0  0  0  0  0
  190.0560  174.7860  143.6270 O   0  0  0  0  0  1  0  0  0  0  0  0
  187.7340  176.4450  144.9490 C   0  0  1  0  0  3  0  0  0  0  0  0
  190.2740  175.9970  144.2850 C   0  0  2  0  0  3  0  0  0  0  0  0
  191.7880  175.7130  146.3160 C   0  0  0  0  0  0  0  0  0  0  0  0
  185.4880  178.0110  145.7770 C   0  0  0  0  0  0  0  0  0  0  0  0
  184.2630  178.6850  146.0390 N   0  0  0  0  0  1  0  0  0  0  0  0
  188.0190  176.1230  147.2630 C   0  0  0  0  0  2  0  0  0  0  0  0
  190.6680  175.3120  148.3880 O   0  0  0  0  0  0  0  0  0  0  0  0
  193.0570  175.6010  146.8880 C   0  0  0  0  0  3  0  0  0  0  0  0
  192.8230  176.1820  144.1450 C   0  0  0  0  0  0  0  0  0  0  0  0
  186.3550  178.4730  144.6600 C   0  0  0  0  0  3  0  0  0  0  0  0
  185.8940  177.0710  146.5840 N   0  0  0  0  0  0  0  0  0  0  0  0
  191.6550  175.9850  144.9300 C   0  0  0  0  0  0  0  0  0  0  0  0
  190.5840  175.6200  147.1680 C   0  0  0  0  0  0  0  0  0  0  0  0
  194.1980  175.7650  146.1100 C   0  0  0  0  0  3  0  0  0  0  0  0
  187.4440  177.7740  144.3050 C   0  0  0  0  0  3  0  0  0  0  0  0
  195.3530  176.2190  143.9650 C   0  0  0  0  0  2  0  0  0  0  0  0
  195.9760  174.9210  143.7710 N   0  0  0  0  0  1  0  0  0  0  0  0
  191.8400  177.5400  142.4340 O   0  0  0  0  0  1  0  0  0  0  0  0
  192.7520  176.5090  142.6750 C   0  0  2  0  0  3  0  0  0  0  0  0
  193.2520  174.7830  140.8950 C   0  0  0  0  0  0  0  0  0  0  0  0
  192.3990  175.3280  141.9020 N   0  0  0  0  0  2  0  0  0  0  0  0
  194.3730  175.3090  140.6540 O   0  0  0  0  0  0  0  0  0  0  0  0
  191.4830  173.0440  140.6860 C   0  0  0  0  0  2  0  0  0  0  0  0
  190.8210  172.0280  139.7440 C   0  0  0  0  0  2  0  0  0  0  0  0
  192.7030  173.9020  138.6300 C   0  0  0  0  0  2  0  0  0  0  0  0
  191.7310  171.6120  138.6770 N   0  0  0  0  0  0  0  0  0  0  0  0
  192.0050  172.7840  137.8410 C   0  0  0  0  0  2  0  0  0  0  0  0
  192.8000  173.5880  140.1260 C   0  0  0  0  0  3  0  0  0  0  0  0
  191.0550  170.7280  137.9040 O   0  0  0  0  0  0  0  0  0  0  0  0
  189.9180  171.4200  137.4800 C   0  0  0  0  0  1  0  0  0  0  0  0
  1 18  1  0  0  0  0
  1 11  1  0  0  0  0
  2  1  2  0  0  0  0
  3 19  1  0  0  0  0
  4 16  1  0  0  0  0
  4 11  1  1  0  0  0
  6 20  1  1  0  0  0
  6  2  1  0  0  0  0
  6  4  1  0  0  0  0
  7  5  1  1  0  0  0
  7 17  1  0  0  0  0
  7  2  1  0  0  0  0
  8 13  1  0  0  0  0
  8 18  1  0  0  0  0
  9 10  1  0  0  0  0
  9 16  2  0  0  0  0
 14  3  2  0  0  0  0
 14 17  1  0  0  0  0
 15  9  1  0  0  0  0
 17  8  2  0  0  0  0
 18 12  2  0  0  0  0
 19 13  2  0  0  0  0
 20 15  2  0  0  0  0
 21  3  1  0  0  0  0
 22 21  1  0  0  0  0
 24 23  1  1  0  0  0
 24 14  1  0  0  0  0
 25 26  1  0  0  0  0
 26 24  1  0  0  0  0
 27 25  2  0  0  0  0
 29 28  1  0  0  0  0
 30 33  1  0  0  0  0
 31 29  1  0  0  0  0
 32 30  1  0  0  0  0
 32 31  1  0  0  0  0
 33 28  1  0  0  0  0
 33 25  1  0  0  0  0
 34 31  1  0  0  0  0
 35 34  1  0  0  0  0
M  END
>  <MODEL>
8

>  <REMARK>
 VINA RESULT:      -7.6      4.264      8.793
  Name = 
  5 active torsions:
  status: ('A' for Active; 'I' for Inactive)
    1  A    between atoms: C_2  and  C_27
    2  A    between atoms: C_4  and  C_5
    3  A    between atoms: C_10  and  N_11
    4  A    between atoms: C_10  and  C_26
    5  A    between atoms: O_16  and  N_24
                            x       y       z     vdW  Elec       q    Type
                         _______ _______ _______ _____ _____    ______ ____

>  <TORSDO>
F 5

$$$$
=
 OpenBabel11042418173D

 35 39  0  0  1  0  0  0  0  0999 V2000
  187.0250  177.3680  142.5670 C   0  0  0  0  0  0  0  0  0  0  0  0
  187.6720  176.6820  143.4970 C   0  0  0  0  0  0  0  0  0  0  0  0
  189.0540  173.3430  140.1050 C   0  0  0  0  0  0  0  0  0  0  0  0
  186.4530  178.3600  144.4680 C   0  0  1  0  0  3  0  0  0  0  0  0
  189.9730  176.2040  143.2920 O   0  0  0  0  0  1  0  0  0  0  0  0
  187.4640  177.3180  144.8250 C   0  0  1  0  0  3  0  0  0  0  0  0
  188.7040  175.6360  143.1730 C   0  0  2  0  0  3  0  0  0  0  0  0
  187.8250  175.7740  140.7840 C   0  0  0  0  0  0  0  0  0  0  0  0
  185.3670  178.2090  146.5540 C   0  0  0  0  0  0  0  0  0  0  0  0
  184.4790  178.7160  147.5430 N   0  0  0  0  0  1  0  0  0  0  0  0
  186.1920  178.4040  143.1690 C   0  0  0  0  0  2  0  0  0  0  0  0
  186.5110  177.7040  140.2790 O   0  0  0  0  0  0  0  0  0  0  0  0
  187.7570  175.2870  139.4770 C   0  0  0  0  0  3  0  0  0  0  0  0
  189.1400  173.8110  141.4340 C   0  0  0  0  0  0  0  0  0  0  0  0
  185.9470  176.8500  146.7170 C   0  0  0  0  0  3  0  0  0  0  0  0
  185.5730  178.8900  145.4620 N   0  0  0  0  0  0  0  0  0  0  0  0
  188.5370  175.0510  141.7770 C   0  0  0  0  0  0  0  0  0  0  0  0
  187.0940  177.0040  141.1510 C   0  0  0  0  0  0  0  0  0  0  0  0
  188.3750  174.0870  139.1390 C   0  0  0  0  0  3  0  0  0  0  0  0
  186.8900  176.4030  145.8730 C   0  0  0  0  0  3  0  0  0  0  0  0
  189.7070  172.0680  139.6790 C   0  0  0  0  0  2  0  0  0  0  0  0
  189.6480  171.9430  138.2330 N   0  0  0  0  0  1  0  0  0  0  0  0
  188.9910  172.3050  143.2900 O   0  0  0  0  0  1  0  0  0  0  0  0
  189.8810  172.9760  142.4470 C   0  0  2  0  0  3  0  0  0  0  0  0
  191.6510  173.2610  144.2310 C   0  0  0  0  0  0  0  0  0  0  0  0
  190.7940  173.8000  143.2250 N   0  0  0  0  0  2  0  0  0  0  0  0
  191.6580  172.0220  144.4690 O   0  0  0  0  0  0  0  0  0  0  0  0
  193.2420  175.1690  144.0740 C   0  0  0  0  0  2  0  0  0  0  0  0
  193.9010  176.3250  144.8400 C   0  0  0  0  0  2  0  0  0  0  0  0
  191.7500  174.8930  146.1120 C   0  0  0  0  0  2  0  0  0  0  0  0
  193.9390  176.0640  146.2800 N   0  0  0  0  0  0  0  0  0  0  0  0
  192.5560  176.0270  146.7640 C   0  0  0  0  0  2  0  0  0  0  0  0
  192.5340  174.1810  145.0050 C   0  0  0  0  0  3  0  0  0  0  0  0
  194.5290  177.1370  146.8590 O   0  0  0  0  0  0  0  0  0  0  0  0
  194.9570  177.9310  145.7920 C   0  0  0  0  0  1  0  0  0  0  0  0
  1 11  1  0  0  0  0
  1  2  2  0  0  0  0
  2  6  1  0  0  0  0
  3 14  1  0  0  0  0
  4 11  1  6  0  0  0
  4  6  1  0  0  0  0
  4 16  1  0  0  0  0
  6 20  1  1  0  0  0
  7  5  1  6  0  0  0
  7  2  1  0  0  0  0
  8 18  1  0  0  0  0
  8 17  1  0  0  0  0
  9 15  1  0  0  0  0
  9 10  1  0  0  0  0
 12 18  2  0  0  0  0
 13  8  2  0  0  0  0
 14 17  2  0  0  0  0
 14 24  1  0  0  0  0
 16  9  2  0  0  0  0
 17  7  1  0  0  0  0
 18  1  1  0  0  0  0
 19 13  1  0  0  0  0
 19  3  2  0  0  0  0
 20 15  2  0  0  0  0
 21  3  1  0  0  0  0
 22 21  1  0  0  0  0
 24 26  1  0  0  0  0
 24 23  1  1  0  0  0
 25 27  2  0  0  0  0
 25 33  1  0  0  0  0
 26 25  1  0  0  0  0
 28 29  1  0  0  0  0
 28 33  1  0  0  0  0
 29 31  1  0  0  0  0
 30 32  1  0  0  0  0
 31 32  1  0  0  0  0
 31 34  1  0  0  0  0
 33 30  1  0  0  0  0
 35 34  1  0  0  0  0
M  END
>  <MODEL>
9

>  <REMARK>
 VINA RESULT:      -7.5      3.456      9.440
  Name = 
  5 active torsions:
  status: ('A' for Active; 'I' for Inactive)
    1  A    between atoms: C_2  and  C_27
    2  A    between atoms: C_4  and  C_5
    3  A    between atoms: C_10  and  N_11
    4  A    between atoms: C_10  and  C_26
    5  A    between atoms: O_16  and  N_24
                            x       y       z     vdW  Elec       q    Type
                         _______ _______ _______ _____ _____    ______ ____

>  <TORSDO>
F 5

$$$$
