=
 OpenBabel11042419213D

 42 46  0  0  1  0  0  0  0  0999 V2000
  185.2710  178.0070  142.4100 C   0  0  1  0  0  3  0  0  0  0  0  0
  189.4080  175.8890  142.8150 O   0  0  0  0  0  0  0  0  0  0  0  0
  191.4250  176.5010  145.9370 C   0  0  0  0  0  0  0  0  0  0  0  0
  189.6210  176.2870  144.1490 C   0  0  0  0  0  0  0  0  0  0  0  0
  188.5750  176.7160  144.8150 C   0  0  0  0  0  3  0  0  0  0  0  0
  185.0060  178.3040  144.8060 C   0  0  0  0  0  0  0  0  0  0  0  0
  190.5850  176.8840  147.0420 N   0  0  0  0  0  2  0  0  0  0  0  0
  184.4680  178.1700  143.6310 N   0  0  0  0  0  0  0  0  0  0  0  0
  189.2300  177.3490  147.1130 C   0  0  0  0  0  3  0  0  0  0  0  0
  187.2900  177.0220  142.1940 C   0  0  0  0  0  2  0  0  0  0  0  0
  186.4120  178.2640  144.9530 N   0  0  0  0  0  2  0  0  0  0  0  0
  184.2150  178.3460  146.0430 C   0  0  0  0  0  3  0  0  0  0  0  0
  190.9810  176.2520  144.6940 C   0  0  0  0  0  3  0  0  0  0  0  0
  188.3520  177.3100  146.1190 C   0  0  0  0  0  0  0  0  0  0  0  0
  188.1010  175.7140  142.2350 C   0  0  0  0  0  2  0  0  0  0  0  0
  186.2260  177.8410  147.2900 C   0  0  0  0  0  3  0  0  0  0  0  0
  185.9250  176.7570  142.4100 O   0  0  0  0  0  0  0  0  0  0  0  0
  184.8160  178.1510  147.1890 N   0  0  0  0  0  0  0  0  0  0  0  0
  187.0030  177.8890  146.1990 C   0  0  0  0  0  0  0  0  0  0  0  0
  193.3260  176.8420  147.3630 F   0  0  0  0  0  0  0  0  0  0  0  0
  192.8300  176.3590  146.2020 N   0  0  0  0  0  0  0  0  0  0  0  0
  194.9370  176.8490  145.0680 C   0  0  0  0  0  2  0  0  0  0  0  0
  194.2790  174.4940  145.5470 C   0  0  0  0  0  2  0  0  0  0  0  0
  196.1960  174.9880  143.9810 C   0  0  0  0  0  0  0  0  0  0  0  0
  197.2660  174.6080  143.4390 O   0  0  0  0  0  0  0  0  0  0  0  0
  195.3020  174.0380  144.6060 N   0  0  0  0  0  0  0  0  0  0  0  0
  195.4730  172.6210  144.4870 C   0  0  0  0  0  3  0  0  0  0  0  0
  193.7650  175.8850  145.1860 C   0  0  1  0  0  3  0  0  0  0  0  0
  195.8310  176.4390  143.9050 C   0  0  0  0  0  2  0  0  0  0  0  0
  196.3570  172.1180  143.7430 O   0  0  0  0  0  0  0  0  0  0  0  0
  184.3480  178.1120  141.2020 C   0  0  0  0  0  2  0  0  0  0  0  0
  182.8920  178.2640  141.6110 C   0  0  0  0  0  2  0  0  0  0  0  0
  181.9990  178.2650  140.3860 C   0  0  0  0  0  2  0  0  0  0  0  0
  180.9160  179.3150  140.5460 C   0  0  0  0  0  2  0  0  0  0  0  0
  179.6580  178.7250  140.3930 O   0  0  0  0  0  0  0  0  0  0  0  0
  177.6910  176.5570  142.5050 C   0  0  0  0  0  3  0  0  0  0  0  0
  179.4010  178.0890  141.6110 C   0  0  2  0  0  3  0  0  0  0  0  0
  178.4470  178.4530  143.9080 C   0  0  0  0  0  0  0  0  0  0  0  0
  178.3110  179.0940  144.9380 O   0  0  0  0  0  0  0  0  0  0  0  0
  178.3080  177.0690  141.4320 C   0  0  0  0  0  3  0  0  0  0  0  0
  179.0180  179.1220  142.6800 C   0  0  0  0  0  2  0  0  0  0  0  0
  178.0800  176.9910  143.8920 C   0  0  0  0  0  2  0  0  0  0  0  0
  1 31  1  6  0  0  0
  1  8  1  0  0  0  0
  2  4  1  0  0  0  0
  3 21  1  0  0  0  0
  3  7  1  0  0  0  0
  4 13  1  0  0  0  0
  4  5  2  0  0  0  0
  5 14  1  0  0  0  0
  6 11  1  0  0  0  0
  6 12  1  0  0  0  0
  7  9  1  0  0  0  0
  8  6  2  0  0  0  0
 10 15  1  0  0  0  0
 10 17  1  0  0  0  0
 11 19  1  0  0  0  0
 12 18  2  0  0  0  0
 13  3  2  0  0  0  0
 14 19  1  0  0  0  0
 14  9  2  0  0  0  0
 15  2  1  0  0  0  0
 17  1  1  0  0  0  0
 18 16  1  0  0  0  0
 19 16  2  0  0  0  0
 21 20  1  0  0  0  0
 22 28  1  0  0  0  0
 24 26  1  0  0  0  0
 25 24  2  0  0  0  0
 26 23  1  0  0  0  0
 27 26  1  0  0  0  0
 28 23  1  0  0  0  0
 28 21  1  1  0  0  0
 29 24  1  0  0  0  0
 29 22  1  0  0  0  0
 30 27  2  0  0  0  0
 31 32  1  0  0  0  0
 33 34  1  0  0  0  0
 33 32  1  0  0  0  0
 35 34  1  0  0  0  0
 36 42  1  0  0  0  0
 37 35  1  6  0  0  0
 37 41  1  0  0  0  0
 38 39  2  0  0  0  0
 40 37  1  0  0  0  0
 40 36  2  0  0  0  0
 41 38  1  0  0  0  0
 42 38  1  0  0  0  0
M  END
>  <MODEL>
1

>  <REMARK>
 VINA RESULT:      -9.0      0.000      0.000
  Name = 
  8 active torsions:
  status: ('A' for Active; 'I' for Inactive)
    1  A    between atoms: C_2  and  C_20
    2  A    between atoms: C_4  and  O_33
    3  A    between atoms: C_5  and  N_27
    4  A    between atoms: C_12  and  O_33
    5  A    between atoms: C_12  and  C_37
    6  A    between atoms: C_20  and  C_24
    7  A    between atoms: C_24  and  C_37
    8  A    between atoms: N_27  and  C_34
                            x       y       z     vdW  Elec       q    Type
                         _______ _______ _______ _____ _____    ______ ____

>  <TORSDO>
F 8

$$$$
=
 OpenBabel11042419213D

 42 46  0  0  1  0  0  0  0  0999 V2000
  185.1740  178.1450  142.4910 C   0  0  1  0  0  3  0  0  0  0  0  0
  189.2620  175.9300  142.8900 O   0  0  0  0  0  0  0  0  0  0  0  0
  191.3010  176.5010  146.0050 C   0  0  0  0  0  0  0  0  0  0  0  0
  189.4870  176.3250  144.2220 C   0  0  0  0  0  0  0  0  0  0  0  0
  188.4530  176.7810  144.8900 C   0  0  0  0  0  3  0  0  0  0  0  0
  184.9240  178.4540  144.8870 C   0  0  0  0  0  0  0  0  0  0  0  0
  190.4730  176.9060  147.1110 N   0  0  0  0  0  2  0  0  0  0  0  0
  184.3790  178.3290  143.7140 N   0  0  0  0  0  0  0  0  0  0  0  0
  189.1300  177.4030  147.1850 C   0  0  0  0  0  3  0  0  0  0  0  0
  187.1690  177.1110  142.2720 C   0  0  0  0  0  2  0  0  0  0  0  0
  186.3290  178.3800  145.0310 N   0  0  0  0  0  2  0  0  0  0  0  0
  184.1370  178.5170  146.1260 C   0  0  0  0  0  3  0  0  0  0  0  0
  190.8480  176.2600  144.7640 C   0  0  0  0  0  3  0  0  0  0  0  0
  188.2480  177.3820  146.1930 C   0  0  0  0  0  0  0  0  0  0  0  0
  187.9490  175.7840  142.3140 C   0  0  0  0  0  2  0  0  0  0  0  0
  186.1390  177.9670  147.3690 C   0  0  0  0  0  3  0  0  0  0  0  0
  185.7990  176.8800  142.4920 O   0  0  0  0  0  0  0  0  0  0  0  0
  184.7360  178.3100  147.2710 N   0  0  0  0  0  0  0  0  0  0  0  0
  186.9140  177.9940  146.2750 C   0  0  0  0  0  0  0  0  0  0  0  0
  193.2290  176.8690  147.3870 F   0  0  0  0  0  0  0  0  0  0  0  0
  192.7030  176.3260  146.2660 N   0  0  0  0  0  0  0  0  0  0  0  0
  194.6640  176.7720  144.8810 C   0  0  0  0  0  2  0  0  0  0  0  0
  194.2870  174.5040  145.8410 C   0  0  0  0  0  2  0  0  0  0  0  0
  196.0290  174.8550  144.0490 C   0  0  0  0  0  0  0  0  0  0  0  0
  197.0910  174.4730  143.4940 O   0  0  0  0  0  0  0  0  0  0  0  0
  195.2820  173.9680  144.9140 N   0  0  0  0  0  0  0  0  0  0  0  0
  195.5890  172.5740  145.0430 C   0  0  0  0  0  3  0  0  0  0  0  0
  193.6080  175.7490  145.2770 C   0  0  1  0  0  3  0  0  0  0  0  0
  195.5120  176.2270  143.7390 C   0  0  0  0  0  2  0  0  0  0  0  0
  196.4660  172.0180  144.3290 O   0  0  0  0  0  0  0  0  0  0  0  0
  184.2510  178.2690  141.2860 C   0  0  0  0  0  2  0  0  0  0  0  0
  182.7860  178.2650  141.6890 C   0  0  0  0  0  2  0  0  0  0  0  0
  181.9090  177.9760  140.4870 C   0  0  0  0  0  2  0  0  0  0  0  0
  180.4500  178.1350  140.8700 C   0  0  0  0  0  2  0  0  0  0  0  0
  180.2670  179.3450  141.5450 O   0  0  0  0  0  0  0  0  0  0  0  0
  177.8480  179.5570  138.8750 C   0  0  0  0  0  3  0  0  0  0  0  0
  179.2930  180.0300  140.8140 C   0  0  2  0  0  3  0  0  0  0  0  0
  178.9720  181.7590  139.0180 C   0  0  0  0  0  0  0  0  0  0  0  0
  179.2200  182.8290  138.4840 O   0  0  0  0  0  0  0  0  0  0  0  0
  178.5980  179.0780  139.8760 C   0  0  0  0  0  3  0  0  0  0  0  0
  179.9290  181.1940  140.0410 C   0  0  0  0  0  2  0  0  0  0  0  0
  177.6920  181.0400  138.6760 C   0  0  0  0  0  2  0  0  0  0  0  0
  1 31  1  6  0  0  0
  1 17  1  0  0  0  0
  1  8  1  0  0  0  0
  2  4  1  0  0  0  0
  3 21  1  0  0  0  0
  3  7  1  0  0  0  0
  4 13  1  0  0  0  0
  4  5  2  0  0  0  0
  5 14  1  0  0  0  0
  6 11  1  0  0  0  0
  6 12  1  0  0  0  0
  7  9  1  0  0  0  0
  8  6  2  0  0  0  0
 10 15  1  0  0  0  0
 10 17  1  0  0  0  0
 11 19  1  0  0  0  0
 12 18  2  0  0  0  0
 13  3  2  0  0  0  0
 14 19  1  0  0  0  0
 14  9  2  0  0  0  0
 15  2  1  0  0  0  0
 18 16  1  0  0  0  0
 19 16  2  0  0  0  0
 21 20  1  0  0  0  0
 22 28  1  0  0  0  0
 24 26  1  0  0  0  0
 25 24  2  0  0  0  0
 26 27  1  0  0  0  0
 26 23  1  0  0  0  0
 28 23  1  0  0  0  0
 28 21  1  1  0  0  0
 29 24  1  0  0  0  0
 29 22  1  0  0  0  0
 30 27  2  0  0  0  0
 31 32  1  0  0  0  0
 33 34  1  0  0  0  0
 33 32  1  0  0  0  0
 34 35  1  0  0  0  0
 36 40  2  0  0  0  0
 37 35  1  6  0  0  0
 38 41  1  0  0  0  0
 39 38  2  0  0  0  0
 40 37  1  0  0  0  0
 41 37  1  0  0  0  0
 42 36  1  0  0  0  0
 42 38  1  0  0  0  0
M  END
>  <MODEL>
2

>  <REMARK>
 VINA RESULT:      -9.0      1.381      2.107
  Name = 
  8 active torsions:
  status: ('A' for Active; 'I' for Inactive)
    1  A    between atoms: C_2  and  C_20
    2  A    between atoms: C_4  and  O_33
    3  A    between atoms: C_5  and  N_27
    4  A    between atoms: C_12  and  O_33
    5  A    between atoms: C_12  and  C_37
    6  A    between atoms: C_20  and  C_24
    7  A    between atoms: C_24  and  C_37
    8  A    between atoms: N_27  and  C_34
                            x       y       z     vdW  Elec       q    Type
                         _______ _______ _______ _____ _____    ______ ____

>  <TORSDO>
F 8

$$$$
=
 OpenBabel11042419213D

 42 46  0  0  1  0  0  0  0  0999 V2000
  186.5710  177.5530  142.4520 C   0  0  1  0  0  3  0  0  0  0  0  0
  190.7320  175.4420  142.5200 O   0  0  0  0  0  0  0  0  0  0  0  0
  192.7040  175.4960  145.7280 C   0  0  0  0  0  0  0  0  0  0  0  0
  190.9240  175.5920  143.9060 C   0  0  0  0  0  0  0  0  0  0  0  0
  189.8650  175.8810  144.6250 C   0  0  0  0  0  3  0  0  0  0  0  0
  186.2760  177.4050  144.8580 C   0  0  0  0  0  0  0  0  0  0  0  0
  191.8470  175.6620  146.8730 N   0  0  0  0  0  2  0  0  0  0  0  0
  185.7530  177.4810  143.6720 N   0  0  0  0  0  0  0  0  0  0  0  0
  190.4860  176.0900  147.0090 C   0  0  0  0  0  3  0  0  0  0  0  0
  188.6060  176.6460  142.0870 C   0  0  0  0  0  2  0  0  0  0  0  0
  187.6810  177.3530  145.0150 N   0  0  0  0  0  2  0  0  0  0  0  0
  185.4700  177.2110  146.0710 C   0  0  0  0  0  3  0  0  0  0  0  0
  192.2780  175.4730  144.4550 C   0  0  0  0  0  3  0  0  0  0  0  0
  189.6190  176.2240  146.0120 C   0  0  0  0  0  0  0  0  0  0  0  0
  189.4330  175.3610  141.9000 C   0  0  0  0  0  2  0  0  0  0  0  0
  187.4730  176.5090  147.2330 C   0  0  0  0  0  3  0  0  0  0  0  0
  187.2420  176.3310  142.2330 O   0  0  0  0  0  0  0  0  0  0  0  0
  186.0600  176.8170  147.1700 N   0  0  0  0  0  0  0  0  0  0  0  0
  188.2620  176.7640  146.1790 C   0  0  0  0  0  0  0  0  0  0  0  0
  194.7970  176.3390  146.5480 F   0  0  0  0  0  0  0  0  0  0  0  0
  194.1090  175.3230  145.9820 N   0  0  0  0  0  0  0  0  0  0  0  0
  196.2320  174.1240  146.1140 C   0  0  0  0  0  2  0  0  0  0  0  0
  194.0980  172.8790  145.7960 C   0  0  0  0  0  2  0  0  0  0  0  0
  196.3120  171.7150  145.4670 C   0  0  0  0  0  0  0  0  0  0  0  0
  196.9710  170.6430  145.4540 O   0  0  0  0  0  0  0  0  0  0  0  0
  194.8680  171.6990  145.4050 N   0  0  0  0  0  0  0  0  0  0  0  0
  194.1180  170.5070  145.1380 C   0  0  0  0  0  3  0  0  0  0  0  0
  194.8490  174.1690  145.4800 C   0  0  1  0  0  3  0  0  0  0  0  0
  197.0590  173.0140  145.4790 C   0  0  0  0  0  2  0  0  0  0  0  0
  194.6810  169.4210  144.8400 O   0  0  0  0  0  0  0  0  0  0  0  0
  185.6610  177.8670  141.2710 C   0  0  0  0  0  2  0  0  0  0  0  0
  184.2720  178.2910  141.7210 C   0  0  0  0  0  2  0  0  0  0  0  0
  183.3180  178.3020  140.5440 C   0  0  0  0  0  2  0  0  0  0  0  0
  181.8960  178.1260  141.0390 C   0  0  0  0  0  2  0  0  0  0  0  0
  181.0360  177.9380  139.9540 O   0  0  0  0  0  0  0  0  0  0  0  0
  178.5790  180.5190  140.5300 C   0  0  0  0  0  3  0  0  0  0  0  0
  179.7840  178.3740  140.3970 C   0  0  2  0  0  3  0  0  0  0  0  0
  178.4760  178.9700  142.4590 C   0  0  0  0  0  0  0  0  0  0  0  0
  178.1090  178.7730  143.6070 O   0  0  0  0  0  0  0  0  0  0  0  0
  179.5620  179.8010  139.9700 C   0  0  0  0  0  3  0  0  0  0  0  0
  179.6820  178.2360  141.9220 C   0  0  0  0  0  2  0  0  0  0  0  0
  177.6920  179.9140  141.5830 C   0  0  0  0  0  2  0  0  0  0  0  0
  1 31  1  6  0  0  0
  1  8  1  0  0  0  0
  2  4  1  0  0  0  0
  3 21  1  0  0  0  0
  3  7  1  0  0  0  0
  4 13  1  0  0  0  0
  4  5  2  0  0  0  0
  5 14  1  0  0  0  0
  6 11  1  0  0  0  0
  6 12  1  0  0  0  0
  7  9  1  0  0  0  0
  8  6  2  0  0  0  0
 10 17  1  0  0  0  0
 11 19  1  0  0  0  0
 12 18  2  0  0  0  0
 13  3  2  0  0  0  0
 14 19  1  0  0  0  0
 14  9  2  0  0  0  0
 15 10  1  0  0  0  0
 15  2  1  0  0  0  0
 17  1  1  0  0  0  0
 18 16  1  0  0  0  0
 19 16  2  0  0  0  0
 21 20  1  0  0  0  0
 24 29  1  0  0  0  0
 25 24  2  0  0  0  0
 26 24  1  0  0  0  0
 26 23  1  0  0  0  0
 27 26  1  0  0  0  0
 28 23  1  0  0  0  0
 28 21  1  1  0  0  0
 28 22  1  0  0  0  0
 29 22  1  0  0  0  0
 30 27  2  0  0  0  0
 31 32  1  0  0  0  0
 33 34  1  0  0  0  0
 33 32  1  0  0  0  0
 35 34  1  0  0  0  0
 36 42  1  0  0  0  0
 37 35  1  1  0  0  0
 37 41  1  0  0  0  0
 38 39  2  0  0  0  0
 40 37  1  0  0  0  0
 40 36  2  0  0  0  0
 41 38  1  0  0  0  0
 42 38  1  0  0  0  0
M  END
>  <MODEL>
3

>  <REMARK>
 VINA RESULT:      -8.4      1.726      2.225
  Name = 
  8 active torsions:
  status: ('A' for Active; 'I' for Inactive)
    1  A    between atoms: C_2  and  C_20
    2  A    between atoms: C_4  and  O_33
    3  A    between atoms: C_5  and  N_27
    4  A    between atoms: C_12  and  O_33
    5  A    between atoms: C_12  and  C_37
    6  A    between atoms: C_20  and  C_24
    7  A    between atoms: C_24  and  C_37
    8  A    between atoms: N_27  and  C_34
                            x       y       z     vdW  Elec       q    Type
                         _______ _______ _______ _____ _____    ______ ____

>  <TORSDO>
F 8

$$$$
=
 OpenBabel11042419213D

 42 46  0  0  1  0  0  0  0  0999 V2000
  187.8960  176.1760  146.3840 C   0  0  1  0  0  3  0  0  0  0  0  0
  192.4430  176.0560  147.4210 O   0  0  0  0  0  0  0  0  0  0  0  0
  194.7410  174.1340  145.1380 C   0  0  0  0  0  0  0  0  0  0  0  0
  192.8260  175.4160  146.2270 C   0  0  0  0  0  0  0  0  0  0  0  0
  191.9580  175.4270  145.2420 C   0  0  0  0  0  3  0  0  0  0  0  0
  188.2540  175.6890  144.0320 C   0  0  0  0  0  0  0  0  0  0  0  0
  194.1970  174.0260  143.8090 N   0  0  0  0  0  0  0  0  0  0  0  0
  187.5240  176.2270  144.9620 N   0  0  0  0  0  0  0  0  0  0  0  0
  192.8800  174.2360  143.2820 C   0  0  0  0  0  3  0  0  0  0  0  0
  189.9680  176.1350  147.2790 C   0  0  0  0  0  2  0  0  0  0  0  0
  189.4730  175.0530  144.3620 N   0  0  0  0  0  2  0  0  0  0  0  0
  187.9550  175.8390  142.6010 C   0  0  0  0  0  3  0  0  0  0  0  0
  194.1240  174.7380  146.1660 C   0  0  0  0  0  2  0  0  0  0  0  0
  191.8790  174.8210  143.9270 C   0  0  0  0  0  0  0  0  0  0  0  0
  191.2800  176.8980  147.5360 C   0  0  0  0  0  2  0  0  0  0  0  0
  190.2260  175.1690  142.1050 C   0  0  0  0  0  3  0  0  0  0  0  0
  189.0390  176.9660  146.6260 O   0  0  0  0  0  0  0  0  0  0  0  0
  188.8870  175.5650  141.7250 N   0  0  0  0  0  0  0  0  0  0  0  0
  190.5140  174.9270  143.3920 C   0  0  0  0  0  0  0  0  0  0  0  0
  197.1080  174.4010  145.4450 F   0  0  0  0  0  0  0  0  0  0  0  0
  196.0450  173.5700  145.3590 N   0  0  0  0  0  0  0  0  0  0  0  0
  195.0390  171.3810  145.7570 C   0  0  0  0  0  2  0  0  0  0  0  0
  196.6510  171.7070  143.8860 C   0  0  0  0  0  2  0  0  0  0  0  0
  195.9740  169.3810  144.5930 C   0  0  0  0  0  0  0  0  0  0  0  0
  195.8350  168.1660  144.2970 O   0  0  0  0  0  0  0  0  0  0  0  0
  196.7880  170.2550  143.7770 N   0  0  0  0  0  0  0  0  0  0  0  0
  197.6210  169.7700  142.7170 C   0  0  0  0  0  3  0  0  0  0  0  0
  196.2840  172.1310  145.3050 C   0  0  1  0  0  3  0  0  0  0  0  0
  195.3350  169.8900  145.8490 C   0  0  0  0  0  2  0  0  0  0  0  0
  197.7710  168.5380  142.5000 O   0  0  0  0  0  0  0  0  0  0  0  0
  186.7240  176.6860  147.2130 C   0  0  0  0  0  2  0  0  0  0  0  0
  186.6750  178.2050  147.2530 C   0  0  0  0  0  2  0  0  0  0  0  0
  185.2400  178.6830  147.3400 C   0  0  0  0  0  2  0  0  0  0  0  0
  184.4070  177.9880  146.2800 C   0  0  0  0  0  2  0  0  0  0  0  0
  184.0180  178.9090  145.3030 O   0  0  0  0  0  0  0  0  0  0  0  0
  186.2400  179.0250  142.4600 C   0  0  0  0  0  3  0  0  0  0  0  0
  184.5100  178.3970  144.0990 C   0  0  2  0  0  3  0  0  0  0  0  0
  184.0380  178.2470  141.6350 C   0  0  0  0  0  0  0  0  0  0  0  0
  183.3000  178.0610  140.6800 O   0  0  0  0  0  0  0  0  0  0  0  0
  185.7650  179.1330  143.7080 C   0  0  0  0  0  3  0  0  0  0  0  0
  183.4450  178.5070  143.0000 C   0  0  0  0  0  2  0  0  0  0  0  0
  185.5310  178.1740  141.4410 C   0  0  0  0  0  2  0  0  0  0  0  0
  1 17  1  0  0  0  0
  1 31  1  1  0  0  0
  2 15  1  0  0  0  0
  3 21  1  0  0  0  0
  3 13  1  0  0  0  0
  4  2  1  0  0  0  0
  5  4  2  0  0  0  0
  6 11  1  0  0  0  0
  6  8  2  0  0  0  0
  7  3  2  0  0  0  0
  8  1  1  0  0  0  0
  9  7  1  0  0  0  0
  9 14  2  0  0  0  0
 10 15  1  0  0  0  0
 12  6  1  0  0  0  0
 13  4  1  0  0  0  0
 14  5  1  0  0  0  0
 16 19  2  0  0  0  0
 17 10  1  0  0  0  0
 18 16  1  0  0  0  0
 18 12  2  0  0  0  0
 19 14  1  0  0  0  0
 19 11  1  0  0  0  0
 21 20  1  0  0  0  0
 22 29  1  0  0  0  0
 23 28  1  0  0  0  0
 24 29  1  0  0  0  0
 25 24  2  0  0  0  0
 26 23  1  0  0  0  0
 26 24  1  0  0  0  0
 27 26  1  0  0  0  0
 28 21  1  6  0  0  0
 28 22  1  0  0  0  0
 30 27  2  0  0  0  0
 31 32  1  0  0  0  0
 32 33  1  0  0  0  0
 34 33  1  0  0  0  0
 35 34  1  0  0  0  0
 36 40  2  0  0  0  0
 37 35  1  1  0  0  0
 38 41  1  0  0  0  0
 39 38  2  0  0  0  0
 40 37  1  0  0  0  0
 41 37  1  0  0  0  0
 42 38  1  0  0  0  0
 42 36  1  0  0  0  0
M  END
>  <MODEL>
4

>  <REMARK>
 VINA RESULT:      -8.3      3.230      5.751
  Name = 
  8 active torsions:
  status: ('A' for Active; 'I' for Inactive)
    1  A    between atoms: C_2  and  C_20
    2  A    between atoms: C_4  and  O_33
    3  A    between atoms: C_5  and  N_27
    4  A    between atoms: C_12  and  O_33
    5  A    between atoms: C_12  and  C_37
    6  A    between atoms: C_20  and  C_24
    7  A    between atoms: C_24  and  C_37
    8  A    between atoms: N_27  and  C_34
                            x       y       z     vdW  Elec       q    Type
                         _______ _______ _______ _____ _____    ______ ____

>  <TORSDO>
F 8

$$$$
=
 OpenBabel11042419213D

 42 46  0  0  1  0  0  0  0  0999 V2000
  187.7830  177.2960  142.3630 C   0  0  1  0  0  3  0  0  0  0  0  0
  192.0290  177.5210  144.2830 O   0  0  0  0  0  0  0  0  0  0  0  0
  194.1300  174.3960  144.3320 C   0  0  0  0  0  0  0  0  0  0  0  0
  192.4130  176.2260  143.8870 C   0  0  0  0  0  0  0  0  0  0  0  0
  191.7000  175.6580  142.9430 C   0  0  0  0  0  3  0  0  0  0  0  0
  188.3230  175.3570  141.0040 C   0  0  0  0  0  0  0  0  0  0  0  0
  193.7490  173.4860  143.2840 N   0  0  0  0  0  0  0  0  0  0  0  0
  187.6140  176.4300  141.1870 N   0  0  0  0  0  0  0  0  0  0  0  0
  192.5850  173.4030  142.4490 C   0  0  0  0  0  3  0  0  0  0  0  0
  189.6670  177.6870  143.5430 C   0  0  0  0  0  2  0  0  0  0  0  0
  189.3250  174.9990  141.9360 N   0  0  0  0  0  2  0  0  0  0  0  0
  188.2460  174.5540  139.7770 C   0  0  0  0  0  3  0  0  0  0  0  0
  193.5320  175.5740  144.5730 C   0  0  0  0  0  2  0  0  0  0  0  0
  191.6600  174.3460  142.3260 C   0  0  0  0  0  0  0  0  0  0  0  0
  191.0690  178.3220  143.5660 C   0  0  0  0  0  2  0  0  0  0  0  0
  190.3650  173.5420  140.3640 C   0  0  0  0  0  3  0  0  0  0  0  0
  189.0290  177.9560  142.3190 O   0  0  0  0  0  0  0  0  0  0  0  0
  189.2010  173.6970  139.5170 N   0  0  0  0  0  0  0  0  0  0  0  0
  190.4280  174.1830  141.5400 C   0  0  0  0  0  0  0  0  0  0  0  0
  196.0660  174.9770  145.6280 F   0  0  0  0  0  0  0  0  0  0  0  0
  195.2430  174.0130  145.1580 N   0  0  0  0  0  0  0  0  0  0  0  0
  194.3880  171.7850  145.6730 C   0  0  0  0  0  2  0  0  0  0  0  0
  196.2890  172.0710  144.0890 C   0  0  0  0  0  2  0  0  0  0  0  0
  195.7090  169.7830  144.9820 C   0  0  0  0  0  0  0  0  0  0  0  0
  195.7420  168.5340  144.8380 O   0  0  0  0  0  0  0  0  0  0  0  0
  196.5780  170.6430  144.2090 N   0  0  0  0  0  0  0  0  0  0  0  0
  197.6390  170.1350  143.3890 C   0  0  0  0  0  3  0  0  0  0  0  0
  195.6210  172.6160  145.3480 C   0  0  1  0  0  3  0  0  0  0  0  0
  194.7990  170.3610  146.0230 C   0  0  0  0  0  2  0  0  0  0  0  0
  197.9410  168.9120  143.3770 O   0  0  0  0  0  0  0  0  0  0  0  0
  186.6530  178.3180  142.3830 C   0  0  0  0  0  2  0  0  0  0  0  0
  185.6770  178.0630  143.5210 C   0  0  0  0  0  2  0  0  0  0  0  0
  186.2300  178.6110  144.8210 C   0  0  0  0  0  2  0  0  0  0  0  0
  186.4760  177.4700  145.7900 C   0  0  0  0  0  2  0  0  0  0  0  0
  187.4230  177.8550  146.7440 O   0  0  0  0  0  0  0  0  0  0  0  0
  189.1290  174.7110  147.2240 C   0  0  0  0  0  3  0  0  0  0  0  0
  188.5090  176.9980  146.5490 C   0  0  2  0  0  3  0  0  0  0  0  0
  190.8420  176.4950  147.3380 C   0  0  0  0  0  0  0  0  0  0  0  0
  191.9720  176.8230  147.6670 O   0  0  0  0  0  0  0  0  0  0  0  0
  188.1600  175.6150  147.0320 C   0  0  0  0  0  3  0  0  0  0  0  0
  189.7490  177.5360  147.2760 C   0  0  0  0  0  2  0  0  0  0  0  0
  190.5680  175.0620  146.9610 C   0  0  0  0  0  2  0  0  0  0  0  0
  1 31  1  6  0  0  0
  3 13  1  0  0  0  0
  3 21  1  0  0  0  0
  4  2  1  0  0  0  0
  4 13  1  0  0  0  0
  5  4  2  0  0  0  0
  6  8  2  0  0  0  0
  6 11  1  0  0  0  0
  7  3  2  0  0  0  0
  8  1  1  0  0  0  0
  9  7  1  0  0  0  0
 10 15  1  0  0  0  0
 12  6  1  0  0  0  0
 14  9  2  0  0  0  0
 14  5  1  0  0  0  0
 15  2  1  0  0  0  0
 16 19  2  0  0  0  0
 17  1  1  0  0  0  0
 17 10  1  0  0  0  0
 18 12  2  0  0  0  0
 18 16  1  0  0  0  0
 19 11  1  0  0  0  0
 19 14  1  0  0  0  0
 21 20  1  0  0  0  0
 22 29  1  0  0  0  0
 23 26  1  0  0  0  0
 23 28  1  0  0  0  0
 24 29  1  0  0  0  0
 25 24  2  0  0  0  0
 26 24  1  0  0  0  0
 27 26  1  0  0  0  0
 28 21  1  6  0  0  0
 28 22  1  0  0  0  0
 30 27  2  0  0  0  0
 31 32  1  0  0  0  0
 32 33  1  0  0  0  0
 33 34  1  0  0  0  0
 34 35  1  0  0  0  0
 37 35  1  1  0  0  0
 37 40  1  0  0  0  0
 37 41  1  0  0  0  0
 38 39  2  0  0  0  0
 40 36  2  0  0  0  0
 41 38  1  0  0  0  0
 42 36  1  0  0  0  0
 42 38  1  0  0  0  0
M  END
>  <MODEL>
5

>  <REMARK>
 VINA RESULT:      -8.3      4.443      7.099
  Name = 
  8 active torsions:
  status: ('A' for Active; 'I' for Inactive)
    1  A    between atoms: C_2  and  C_20
    2  A    between atoms: C_4  and  O_33
    3  A    between atoms: C_5  and  N_27
    4  A    between atoms: C_12  and  O_33
    5  A    between atoms: C_12  and  C_37
    6  A    between atoms: C_20  and  C_24
    7  A    between atoms: C_24  and  C_37
    8  A    between atoms: N_27  and  C_34
                            x       y       z     vdW  Elec       q    Type
                         _______ _______ _______ _____ _____    ______ ____

>  <TORSDO>
F 8

$$$$
=
 OpenBabel11042419213D

 42 46  0  0  1  0  0  0  0  0999 V2000
  194.5870  173.7350  141.3760 C   0  0  1  0  0  3  0  0  0  0  0  0
  191.4130  176.8940  142.6840 O   0  0  0  0  0  0  0  0  0  0  0  0
  187.7720  176.0800  142.1680 C   0  0  0  0  0  0  0  0  0  0  0  0
  190.3040  176.0570  142.4580 C   0  0  0  0  0  0  0  0  0  0  0  0
  190.5440  174.7720  142.3460 C   0  0  0  0  0  3  0  0  0  0  0  0
  193.0270  171.8780  141.5000 C   0  0  0  0  0  0  0  0  0  0  0  0
  187.5490  174.6590  142.1260 N   0  0  0  0  0  0  0  0  0  0  0  0
  194.2490  172.3160  141.5590 N   0  0  0  0  0  0  0  0  0  0  0  0
  188.4340  173.5440  141.9500 C   0  0  0  0  0  3  0  0  0  0  0  0
  193.3410  175.5410  141.9060 C   0  0  0  0  0  2  0  0  0  0  0  0
  191.9580  172.7780  141.2880 N   0  0  0  0  0  2  0  0  0  0  0  0
  192.6670  170.4850  141.8000 C   0  0  0  0  0  3  0  0  0  0  0  0
  188.9760  176.6590  142.3080 C   0  0  0  0  0  2  0  0  0  0  0  0
  189.7590  173.5990  142.0100 C   0  0  0  0  0  0  0  0  0  0  0  0
  192.7250  176.4040  143.0210 C   0  0  0  0  0  2  0  0  0  0  0  0
  190.3700  171.1920  142.0850 C   0  0  0  0  0  3  0  0  0  0  0  0
  194.1100  174.5020  142.4600 O   0  0  0  0  0  0  0  0  0  0  0  0
  191.4150  170.1910  142.0440 N   0  0  0  0  0  0  0  0  0  0  0  0
  190.6360  172.4550  141.7230 C   0  0  0  0  0  0  0  0  0  0  0  0
  186.0670  177.1460  140.8540 F   0  0  0  0  0  0  0  0  0  0  0  0
  186.6140  176.9270  142.0710 N   0  0  0  0  0  0  0  0  0  0  0  0
  184.6720  178.0890  142.9880 C   0  0  0  0  0  2  0  0  0  0  0  0
  186.2570  176.8980  144.4960 C   0  0  0  0  0  2  0  0  0  0  0  0
  184.5340  178.4750  145.4500 C   0  0  0  0  0  0  0  0  0  0  0  0
  183.8270  178.8290  146.4280 O   0  0  0  0  0  0  0  0  0  0  0  0
  185.6750  177.6070  145.6350 N   0  0  0  0  0  0  0  0  0  0  0  0
  186.1800  177.2560  146.9300 C   0  0  0  0  0  3  0  0  0  0  0  0
  186.1280  177.7050  143.2070 C   0  0  1  0  0  3  0  0  0  0  0  0
  184.2100  179.0270  144.0950 C   0  0  0  0  0  2  0  0  0  0  0  0
  185.7170  177.7690  147.9830 O   0  0  0  0  0  0  0  0  0  0  0  0
  196.1020  173.8660  141.2720 C   0  0  0  0  0  2  0  0  0  0  0  0
  196.8150  173.1200  142.3890 C   0  0  0  0  0  2  0  0  0  0  0  0
  197.6360  174.0820  143.2240 C   0  0  0  0  0  2  0  0  0  0  0  0
  197.0650  174.1540  144.6270 C   0  0  0  0  0  2  0  0  0  0  0  0
  196.0700  173.1840  144.7840 O   0  0  0  0  0  0  0  0  0  0  0  0
  192.6890  173.9990  145.7480 C   0  0  0  0  0  3  0  0  0  0  0  0
  195.1380  173.7510  145.6570 C   0  0  2  0  0  3  0  0  0  0  0  0
  194.1090  175.9340  146.3600 C   0  0  0  0  0  0  0  0  0  0  0  0
  194.1690  177.1140  146.6680 O   0  0  0  0  0  0  0  0  0  0  0  0
  193.7470  173.3450  145.2510 C   0  0  0  0  0  3  0  0  0  0  0  0
  195.2820  175.2790  145.6690 C   0  0  0  0  0  2  0  0  0  0  0  0
  192.8760  175.1400  146.7110 C   0  0  0  0  0  2  0  0  0  0  0  0
  1 31  1  1  0  0  0
  1  8  1  0  0  0  0
  1 17  1  0  0  0  0
  2 15  1  0  0  0  0
  3 13  1  0  0  0  0
  4  2  1  0  0  0  0
  5  4  2  0  0  0  0
  6  8  2  0  0  0  0
  6 12  1  0  0  0  0
  7  3  2  0  0  0  0
  9 14  2  0  0  0  0
  9  7  1  0  0  0  0
 10 17  1  0  0  0  0
 10 15  1  0  0  0  0
 11  6  1  0  0  0  0
 11 19  1  0  0  0  0
 12 18  2  0  0  0  0
 13  4  1  0  0  0  0
 14  5  1  0  0  0  0
 18 16  1  0  0  0  0
 19 14  1  0  0  0  0
 19 16  2  0  0  0  0
 20 21  1  0  0  0  0
 21  3  1  0  0  0  0
 22 28  1  0  0  0  0
 22 29  1  0  0  0  0
 23 26  1  0  0  0  0
 24 26  1  0  0  0  0
 24 25  2  0  0  0  0
 26 27  1  0  0  0  0
 27 30  2  0  0  0  0
 28 21  1  6  0  0  0
 28 23  1  0  0  0  0
 29 24  1  0  0  0  0
 31 32  1  0  0  0  0
 32 33  1  0  0  0  0
 33 34  1  0  0  0  0
 34 35  1  0  0  0  0
 36 42  1  0  0  0  0
 37 35  1  6  0  0  0
 37 41  1  0  0  0  0
 38 39  2  0  0  0  0
 38 42  1  0  0  0  0
 40 37  1  0  0  0  0
 40 36  2  0  0  0  0
 41 38  1  0  0  0  0
M  END
>  <MODEL>
6

>  <REMARK>
 VINA RESULT:      -8.2      3.887     11.497
  Name = 
  8 active torsions:
  status: ('A' for Active; 'I' for Inactive)
    1  A    between atoms: C_2  and  C_20
    2  A    between atoms: C_4  and  O_33
    3  A    between atoms: C_5  and  N_27
    4  A    between atoms: C_12  and  O_33
    5  A    between atoms: C_12  and  C_37
    6  A    between atoms: C_20  and  C_24
    7  A    between atoms: C_24  and  C_37
    8  A    between atoms: N_27  and  C_34
                            x       y       z     vdW  Elec       q    Type
                         _______ _______ _______ _____ _____    ______ ____

>  <TORSDO>
F 8

$$$$
=
 OpenBabel11042419213D

 42 46  0  0  1  0  0  0  0  0999 V2000
  188.8990  175.2310  142.3540 C   0  0  1  0  0  3  0  0  0  0  0  0
  185.3190  177.6020  140.5290 O   0  0  0  0  0  0  0  0  0  0  0  0
  182.6310  178.8420  142.8570 C   0  0  0  0  0  0  0  0  0  0  0  0
  184.7610  177.9600  141.7710 C   0  0  0  0  0  0  0  0  0  0  0  0
  185.5340  177.8430  142.8250 C   0  0  0  0  0  3  0  0  0  0  0  0
  188.6040  176.1760  144.5720 C   0  0  0  0  0  0  0  0  0  0  0  0
  183.1280  179.0060  144.1980 N   0  0  0  0  0  2  0  0  0  0  0  0
  189.3840  175.6470  143.6790 N   0  0  0  0  0  0  0  0  0  0  0  0
  184.3080  178.5290  144.8590 C   0  0  0  0  0  3  0  0  0  0  0  0
  187.2250  176.1360  141.1400 C   0  0  0  0  0  2  0  0  0  0  0  0
  187.2400  176.4060  144.2790 N   0  0  0  0  0  2  0  0  0  0  0  0
  189.1020  176.7040  145.8490 C   0  0  0  0  0  3  0  0  0  0  0  0
  183.3590  178.3830  141.8260 C   0  0  0  0  0  3  0  0  0  0  0  0
  185.3560  177.9810  144.2570 C   0  0  0  0  0  0  0  0  0  0  0  0
  186.7230  177.3450  140.3300 C   0  0  0  0  0  2  0  0  0  0  0  0
  187.0370  177.9430  146.0870 C   0  0  0  0  0  3  0  0  0  0  0  0
  188.5420  176.3560  141.5820 O   0  0  0  0  0  0  0  0  0  0  0  0
  188.3380  177.5060  146.5470 N   0  0  0  0  0  0  0  0  0  0  0  0
  186.5040  177.4120  144.9780 C   0  0  0  0  0  0  0  0  0  0  0  0
  180.4910  179.5710  143.6660 F   0  0  0  0  0  0  0  0  0  0  0  0
  181.2650  179.2180  142.6150 N   0  0  0  0  0  0  0  0  0  0  0  0
  179.6230  177.9160  141.3610 C   0  0  0  0  0  2  0  0  0  0  0  0
  179.9400  180.3400  140.8850 C   0  0  0  0  0  2  0  0  0  0  0  0
  178.6060  178.8960  139.3030 C   0  0  0  0  0  0  0  0  0  0  0  0
  177.7170  178.8110  138.4170 O   0  0  0  0  0  0  0  0  0  0  0  0
  179.2080  180.1700  139.6310 N   0  0  0  0  0  0  0  0  0  0  0  0
  178.9770  181.3560  138.8600 C   0  0  0  0  0  3  0  0  0  0  0  0
  180.6360  179.0500  141.3080 C   0  0  1  0  0  3  0  0  0  0  0  0
  179.0810  177.6380  139.9650 C   0  0  0  0  0  2  0  0  0  0  0  0
  178.3160  181.3330  137.7880 O   0  0  0  0  0  0  0  0  0  0  0  0
  190.0020  174.4470  141.6540 C   0  0  0  0  0  2  0  0  0  0  0  0
  190.1100  173.0250  142.1820 C   0  0  0  0  0  2  0  0  0  0  0  0
  191.5650  172.6370  142.3530 C   0  0  0  0  0  2  0  0  0  0  0  0
  192.2620  173.6510  143.2400 C   0  0  0  0  0  2  0  0  0  0  0  0
  192.1040  173.2930  144.5820 O   0  0  0  0  0  0  0  0  0  0  0  0
  192.7820  176.0080  146.8630 C   0  0  0  0  0  3  0  0  0  0  0  0
  192.9790  174.1230  145.2890 C   0  0  2  0  0  3  0  0  0  0  0  0
  194.4750  176.1300  145.0590 C   0  0  0  0  0  0  0  0  0  0  0  0
  195.3210  176.7930  144.4800 O   0  0  0  0  0  0  0  0  0  0  0  0
  192.2090  174.9420  146.2900 C   0  0  0  0  0  3  0  0  0  0  0  0
  193.7530  175.0270  144.3200 C   0  0  0  0  0  2  0  0  0  0  0  0
  194.1930  176.3980  146.5150 C   0  0  0  0  0  2  0  0  0  0  0  0
  1 31  1  6  0  0  0
  1  8  1  0  0  0  0
  2  4  1  0  0  0  0
  3  7  1  0  0  0  0
  4 13  1  0  0  0  0
  4  5  2  0  0  0  0
  5 14  1  0  0  0  0
  6 12  1  0  0  0  0
  7  9  1  0  0  0  0
  8  6  2  0  0  0  0
 10 17  1  0  0  0  0
 11  6  1  0  0  0  0
 11 19  1  0  0  0  0
 12 18  2  0  0  0  0
 13  3  2  0  0  0  0
 14  9  2  0  0  0  0
 14 19  1  0  0  0  0
 15  2  1  0  0  0  0
 15 10  1  0  0  0  0
 16 18  1  0  0  0  0
 17  1  1  0  0  0  0
 19 16  2  0  0  0  0
 21  3  1  0  0  0  0
 21 20  1  0  0  0  0
 23 28  1  0  0  0  0
 24 26  1  0  0  0  0
 24 29  1  0  0  0  0
 25 24  2  0  0  0  0
 26 23  1  0  0  0  0
 27 26  1  0  0  0  0
 28 22  1  0  0  0  0
 28 21  1  1  0  0  0
 29 22  1  0  0  0  0
 30 27  2  0  0  0  0
 31 32  1  0  0  0  0
 32 33  1  0  0  0  0
 33 34  1  0  0  0  0
 34 35  1  0  0  0  0
 37 35  1  6  0  0  0
 37 40  1  0  0  0  0
 38 42  1  0  0  0  0
 39 38  2  0  0  0  0
 40 36  2  0  0  0  0
 41 38  1  0  0  0  0
 41 37  1  0  0  0  0
 42 36  1  0  0  0  0
M  END
>  <MODEL>
7

>  <REMARK>
 VINA RESULT:      -8.2      3.209     12.065
  Name = 
  8 active torsions:
  status: ('A' for Active; 'I' for Inactive)
    1  A    between atoms: C_2  and  C_20
    2  A    between atoms: C_4  and  O_33
    3  A    between atoms: C_5  and  N_27
    4  A    between atoms: C_12  and  O_33
    5  A    between atoms: C_12  and  C_37
    6  A    between atoms: C_20  and  C_24
    7  A    between atoms: C_24  and  C_37
    8  A    between atoms: N_27  and  C_34
                            x       y       z     vdW  Elec       q    Type
                         _______ _______ _______ _____ _____    ______ ____

>  <TORSDO>
F 8

$$$$
=
 OpenBabel11042419213D

 42 46  0  0  1  0  0  0  0  0999 V2000
  193.5510  171.9230  144.6750 C   0  0  1  0  0  3  0  0  0  0  0  0
  190.3270  173.7930  141.8680 O   0  0  0  0  0  0  0  0  0  0  0  0
  188.9120  177.1630  142.7770 C   0  0  0  0  0  0  0  0  0  0  0  0
  190.2950  175.0360  142.5280 C   0  0  0  0  0  0  0  0  0  0  0  0
  191.2980  175.3100  143.3280 C   0  0  0  0  0  3  0  0  0  0  0  0
  194.2140  174.0640  145.6090 C   0  0  0  0  0  0  0  0  0  0  0  0
  189.8250  177.9160  143.5980 N   0  0  0  0  0  2  0  0  0  0  0  0
  194.5130  172.8370  145.3090 N   0  0  0  0  0  0  0  0  0  0  0  0
  190.9860  177.5390  144.3510 C   0  0  0  0  0  3  0  0  0  0  0  0
  191.8790  172.4350  143.2480 C   0  0  0  0  0  2  0  0  0  0  0  0
  192.9350  174.5820  145.2980 N   0  0  0  0  0  2  0  0  0  0  0  0
  195.2030  175.0190  146.1290 C   0  0  0  0  0  3  0  0  0  0  0  0
  189.1400  175.9170  142.3310 C   0  0  0  0  0  3  0  0  0  0  0  0
  191.6150  176.3740  144.2610 C   0  0  0  0  0  0  0  0  0  0  0  0
  191.4830  172.9320  141.8460 C   0  0  0  0  0  2  0  0  0  0  0  0
  193.7100  176.8240  145.5200 C   0  0  0  0  0  3  0  0  0  0  0  0
  193.2780  172.3290  143.3520 O   0  0  0  0  0  0  0  0  0  0  0  0
  194.9290  176.2980  146.0980 N   0  0  0  0  0  0  0  0  0  0  0  0
  192.7410  175.9860  145.1240 C   0  0  0  0  0  0  0  0  0  0  0  0
  187.4540  178.0540  141.0900 F   0  0  0  0  0  0  0  0  0  0  0  0
  187.6860  177.8100  142.4000 N   0  0  0  0  0  0  0  0  0  0  0  0
  185.3380  178.2580  142.9020 C   0  0  0  0  0  2  0  0  0  0  0  0
  186.9270  177.6580  144.7250 C   0  0  0  0  0  2  0  0  0  0  0  0
  184.6400  178.5700  145.2780 C   0  0  0  0  0  0  0  0  0  0  0  0
  183.6920  178.6680  146.0990 O   0  0  0  0  0  0  0  0  0  0  0  0
  185.9500  178.1310  145.7050 N   0  0  0  0  0  0  0  0  0  0  0  0
  186.2990  177.9650  147.0850 C   0  0  0  0  0  3  0  0  0  0  0  0
  186.7750  178.3790  143.3890 C   0  0  1  0  0  3  0  0  0  0  0  0
  184.4030  178.9870  143.8580 C   0  0  0  0  0  2  0  0  0  0  0  0
  185.5120  178.2930  148.0130 O   0  0  0  0  0  0  0  0  0  0  0  0
  194.1390  170.5170  144.6780 C   0  0  0  0  0  2  0  0  0  0  0  0
  195.6440  170.5310  144.8860 C   0  0  0  0  0  2  0  0  0  0  0  0
  196.3610  170.5290  143.5500 C   0  0  0  0  0  2  0  0  0  0  0  0
  197.4660  171.5670  143.5630 C   0  0  0  0  0  2  0  0  0  0  0  0
  197.4590  172.2810  142.3610 O   0  0  0  0  0  0  0  0  0  0  0  0
  194.9940  174.6460  141.1970 C   0  0  0  0  0  3  0  0  0  0  0  0
  196.5690  173.3380  142.5680 C   0  0  2  0  0  3  0  0  0  0  0  0
  196.4360  175.8360  142.8220 C   0  0  0  0  0  0  0  0  0  0  0  0
  196.8180  176.9030  143.2750 O   0  0  0  0  0  0  0  0  0  0  0  0
  195.7040  173.5210  141.3490 C   0  0  0  0  0  3  0  0  0  0  0  0
  197.3380  174.6260  142.8910 C   0  0  0  0  0  2  0  0  0  0  0  0
  195.0510  175.7340  142.2340 C   0  0  0  0  0  2  0  0  0  0  0  0
  1 31  1  6  0  0  0
  1  8  1  0  0  0  0
  2  4  1  0  0  0  0
  3  7  1  0  0  0  0
  4  5  2  0  0  0  0
  5 14  1  0  0  0  0
  6 12  1  0  0  0  0
  7  9  1  0  0  0  0
  8  6  2  0  0  0  0
 10 17  1  0  0  0  0
 11  6  1  0  0  0  0
 13  4  1  0  0  0  0
 13  3  2  0  0  0  0
 14  9  2  0  0  0  0
 14 19  1  0  0  0  0
 15  2  1  0  0  0  0
 15 10  1  0  0  0  0
 16 18  1  0  0  0  0
 17  1  1  0  0  0  0
 18 12  2  0  0  0  0
 19 11  1  0  0  0  0
 19 16  2  0  0  0  0
 20 21  1  0  0  0  0
 21  3  1  0  0  0  0
 22 28  1  0  0  0  0
 22 29  1  0  0  0  0
 23 26  1  0  0  0  0
 24 26  1  0  0  0  0
 24 25  2  0  0  0  0
 26 27  1  0  0  0  0
 27 30  2  0  0  0  0
 28 21  1  6  0  0  0
 28 23  1  0  0  0  0
 29 24  1  0  0  0  0
 31 32  1  0  0  0  0
 33 34  1  0  0  0  0
 33 32  1  0  0  0  0
 35 34  1  0  0  0  0
 36 40  2  0  0  0  0
 36 42  1  0  0  0  0
 37 35  1  6  0  0  0
 37 41  1  0  0  0  0
 38 41  1  0  0  0  0
 38 39  2  0  0  0  0
 40 37  1  0  0  0  0
 42 38  1  0  0  0  0
M  END
>  <MODEL>
8

>  <REMARK>
 VINA RESULT:      -8.1      3.640     11.796
  Name = 
  8 active torsions:
  status: ('A' for Active; 'I' for Inactive)
    1  A    between atoms: C_2  and  C_20
    2  A    between atoms: C_4  and  O_33
    3  A    between atoms: C_5  and  N_27
    4  A    between atoms: C_12  and  O_33
    5  A    between atoms: C_12  and  C_37
    6  A    between atoms: C_20  and  C_24
    7  A    between atoms: C_24  and  C_37
    8  A    between atoms: N_27  and  C_34
                            x       y       z     vdW  Elec       q    Type
                         _______ _______ _______ _____ _____    ______ ____

>  <TORSDO>
F 8

$$$$
=
 OpenBabel11042419213D

 42 46  0  0  1  0  0  0  0  0999 V2000
  193.3890  171.4040  143.9690 C   0  0  1  0  0  3  0  0  0  0  0  0
  190.0290  174.5690  144.6460 O   0  0  0  0  0  0  0  0  0  0  0  0
  188.1970  175.8960  141.6350 C   0  0  0  0  0  0  0  0  0  0  0  0
  189.5880  174.5700  143.3100 C   0  0  0  0  0  0  0  0  0  0  0  0
  189.9650  173.5620  142.5590 C   0  0  0  0  0  3  0  0  0  0  0  0
  192.5040  170.6860  141.8240 C   0  0  0  0  0  0  0  0  0  0  0  0
  188.2410  174.9650  140.5370 N   0  0  0  0  0  0  0  0  0  0  0  0
  193.1880  170.4190  142.8950 N   0  0  0  0  0  0  0  0  0  0  0  0
  189.0590  173.8170  140.2730 C   0  0  0  0  0  3  0  0  0  0  0  0
  191.9960  173.0580  144.6160 C   0  0  0  0  0  2  0  0  0  0  0  0
  191.8890  171.9500  141.6690 N   0  0  0  0  0  2  0  0  0  0  0  0
  192.1970  169.6740  140.8040 C   0  0  0  0  0  3  0  0  0  0  0  0
  188.7920  175.7010  142.8230 C   0  0  0  0  0  2  0  0  0  0  0  0
  189.8500  173.2190  141.1550 C   0  0  0  0  0  0  0  0  0  0  0  0
  190.6580  173.4360  145.2770 C   0  0  0  0  0  2  0  0  0  0  0  0
  190.4420  171.1170  139.9700 C   0  0  0  0  0  3  0  0  0  0  0  0
  192.1740  171.6630  144.6370 O   0  0  0  0  0  0  0  0  0  0  0  0
  191.2470  169.9140  139.9370 N   0  0  0  0  0  0  0  0  0  0  0  0
  190.7510  172.1060  140.8190 C   0  0  0  0  0  0  0  0  0  0  0  0
  188.0630  178.1780  140.9030 F   0  0  0  0  0  0  0  0  0  0  0  0
  187.4430  177.1040  141.4390 N   0  0  0  0  0  0  0  0  0  0  0  0
  186.1270  178.1270  143.2240 C   0  0  0  0  0  2  0  0  0  0  0  0
  185.1890  177.9180  140.9250 C   0  0  0  0  0  2  0  0  0  0  0  0
  183.6920  178.5340  142.8610 C   0  0  0  0  0  0  0  0  0  0  0  0
  182.6370  179.0840  143.2710 O   0  0  0  0  0  0  0  0  0  0  0  0
  183.8590  178.1970  141.4650 N   0  0  0  0  0  0  0  0  0  0  0  0
  182.7910  178.2890  140.5140 C   0  0  0  0  0  3  0  0  0  0  0  0
  186.0920  177.2670  141.9680 C   0  0  1  0  0  3  0  0  0  0  0  0
  184.7460  178.1700  143.8630 C   0  0  0  0  0  2  0  0  0  0  0  0
  181.6130  178.5720  140.8620 O   0  0  0  0  0  0  0  0  0  0  0  0
  194.4170  170.8540  144.9490 C   0  0  0  0  0  2  0  0  0  0  0  0
  195.4100  171.9180  145.3880 C   0  0  0  0  0  2  0  0  0  0  0  0
  196.2990  172.3190  144.2270 C   0  0  0  0  0  2  0  0  0  0  0  0
  196.0560  173.7750  143.8780 C   0  0  0  0  0  2  0  0  0  0  0  0
  196.2880  174.5750  145.0010 O   0  0  0  0  0  0  0  0  0  0  0  0
  193.2700  176.1500  146.2010 C   0  0  0  0  0  3  0  0  0  0  0  0
  195.3110  175.5730  144.9470 C   0  0  2  0  0  3  0  0  0  0  0  0
  193.2330  176.2920  143.7280 C   0  0  0  0  0  0  0  0  0  0  0  0
  192.5800  176.4820  142.7140 O   0  0  0  0  0  0  0  0  0  0  0  0
  194.4410  175.5000  146.1740 C   0  0  0  0  0  3  0  0  0  0  0  0
  194.4720  175.4290  143.6710 C   0  0  0  0  0  2  0  0  0  0  0  0
  192.8130  176.9550  145.0150 C   0  0  0  0  0  2  0  0  0  0  0  0
  1 17  1  0  0  0  0
  1 31  1  1  0  0  0
  2 15  1  0  0  0  0
  3 13  1  0  0  0  0
  4  2  1  0  0  0  0
  5  4  2  0  0  0  0
  6  8  2  0  0  0  0
  7  3  2  0  0  0  0
  8  1  1  0  0  0  0
  9  7  1  0  0  0  0
  9 14  2  0  0  0  0
 10 17  1  0  0  0  0
 10 15  1  0  0  0  0
 11  6  1  0  0  0  0
 12  6  1  0  0  0  0
 13  4  1  0  0  0  0
 14  5  1  0  0  0  0
 16 19  2  0  0  0  0
 18 16  1  0  0  0  0
 18 12  2  0  0  0  0
 19 14  1  0  0  0  0
 19 11  1  0  0  0  0
 20 21  1  0  0  0  0
 21  3  1  0  0  0  0
 22 29  1  0  0  0  0
 23 26  1  0  0  0  0
 23 28  1  0  0  0  0
 24 25  2  0  0  0  0
 24 29  1  0  0  0  0
 26 24  1  0  0  0  0
 27 30  2  0  0  0  0
 27 26  1  0  0  0  0
 28 21  1  6  0  0  0
 28 22  1  0  0  0  0
 31 32  1  0  0  0  0
 33 32  1  0  0  0  0
 34 33  1  0  0  0  0
 34 35  1  0  0  0  0
 37 35  1  1  0  0  0
 37 40  1  0  0  0  0
 38 42  1  0  0  0  0
 39 38  2  0  0  0  0
 40 36  2  0  0  0  0
 41 38  1  0  0  0  0
 41 37  1  0  0  0  0
 42 36  1  0  0  0  0
M  END
>  <MODEL>
9

>  <REMARK>
 VINA RESULT:      -8.0      3.562     11.778
  Name = 
  8 active torsions:
  status: ('A' for Active; 'I' for Inactive)
    1  A    between atoms: C_2  and  C_20
    2  A    between atoms: C_4  and  O_33
    3  A    between atoms: C_5  and  N_27
    4  A    between atoms: C_12  and  O_33
    5  A    between atoms: C_12  and  C_37
    6  A    between atoms: C_20  and  C_24
    7  A    between atoms: C_24  and  C_37
    8  A    between atoms: N_27  and  C_34
                            x       y       z     vdW  Elec       q    Type
                         _______ _______ _______ _____ _____    ______ ____

>  <TORSDO>
F 8

$$$$
