=
 OpenBabel11042417473D

 25 27  0  0  1  0  0  0  0  0999 V2000
  186.6720  177.7630  142.4770 C   0  0  0  0  0  0  0  0  0  0  0  0
  188.7050  176.1060  145.0420 C   0  0  0  0  0  3  0  0  0  0  0  0
  187.8120  177.0980  142.9410 C   0  0  0  0  0  0  0  0  0  0  0  0
  188.9170  176.7990  142.1520 O   0  0  0  0  0  1  0  0  0  0  0  0
  185.5750  177.9490  143.7470 S   0  0  0  0  0  0  0  0  0  0  0  0
  186.5400  177.1750  144.8930 C   0  0  0  0  0  0  0  0  0  0  0  0
  187.7290  176.7690  144.2970 C   0  0  0  0  0  0  0  0  0  0  0  0
  187.2580  176.2700  146.9990 C   0  0  0  0  0  3  0  0  0  0  0  0
  186.2750  176.9390  146.2470 C   0  0  0  0  0  0  0  0  0  0  0  0
  188.4610  175.8510  146.4020 C   0  0  0  0  0  0  0  0  0  0  0  0
  184.9050  178.5440  147.4130 N   0  0  0  0  0  2  0  0  0  0  0  0
  185.0150  177.3820  146.8580 C   0  0  0  0  0  3  0  0  0  0  0  0
  186.4370  178.2460  141.1510 N   0  0  0  0  0  2  0  0  0  0  0  0
  185.3220  177.8190  140.3190 C   0  0  0  0  0  2  0  0  0  0  0  0
  183.1800  178.1690  140.7120 C   0  0  0  0  0  1  0  0  0  0  0  0
  184.3440  178.8140  140.2970 O   0  0  0  0  0  0  0  0  0  0  0  0
  189.4970  175.1640  147.2230 C   0  0  0  0  0  2  0  0  0  0  0  0
  190.7590  175.9580  147.2440 C   0  0  0  0  0  0  0  0  0  0  0  0
  191.9070  175.4810  146.5400 N   0  0  0  0  0  2  0  0  0  0  0  0
  190.8110  177.0270  147.9090 O   0  0  0  0  0  0  0  0  0  0  0  0
  193.1700  176.2040  146.5160 C   0  0  0  0  0  2  0  0  0  0  0  0
  191.7020  177.8300  144.0430 O   0  0  0  0  0  0  0  0  0  0  0  0
  192.5190  176.9290  144.3630 C   0  0  0  0  0  0  0  0  0  0  0  0
  193.0400  175.5290  144.2580 O   0  0  0  0  0  0  0  0  0  0  0  0
  193.5980  176.4660  145.0820 C   0  0  2  0  0  3  0  0  0  0  0  0
  1  3  2  0  0  0  0
  1  5  1  0  0  0  0
  2 10  1  0  0  0  0
  3  7  1  0  0  0  0
  4  3  1  0  0  0  0
  5  6  1  0  0  0  0
  6  9  2  0  0  0  0
  7  6  1  0  0  0  0
  7  2  2  0  0  0  0
  9 12  1  0  0  0  0
  9  8  1  0  0  0  0
 10  8  2  0  0  0  0
 10 17  1  0  0  0  0
 12 11  2  0  0  0  0
 13  1  1  0  0  0  0
 14 13  1  0  0  0  0
 16 14  1  0  0  0  0
 16 15  1  0  0  0  0
 17 18  1  0  0  0  0
 18 20  2  0  0  0  0
 19 18  1  0  0  0  0
 21 19  1  0  0  0  0
 22 23  2  0  0  0  0
 23 25  1  0  0  0  0
 24 23  1  0  0  0  0
 24 25  1  0  0  0  0
 25 21  1  1  0  0  0
M  END
>  <MODEL>
1

>  <REMARK>
 VINA RESULT:      -6.3      0.000      0.000
  Name = 
  8 active torsions:
  status: ('A' for Active; 'I' for Inactive)
    1  A    between atoms: C_1  and  N_19
    2  A    between atoms: C_7  and  C_25
    3  A    between atoms: C_13  and  C_23
    4  A    between atoms: C_14  and  N_19
    5  A    between atoms: C_14  and  O_20
    6  A    between atoms: N_15  and  C_23
    7  A    between atoms: C_18  and  C_24
    8  A    between atoms: C_22  and  C_25
                            x       y       z     vdW  Elec       q    Type
                         _______ _______ _______ _____ _____    ______ ____

>  <TORSDO>
F 8

$$$$
=
 OpenBabel11042417473D

 25 27  0  0  1  0  0  0  0  0999 V2000
  186.0340  177.9530  141.9600 C   0  0  0  0  0  0  0  0  0  0  0  0
  188.7450  177.5740  144.4020 C   0  0  0  0  0  3  0  0  0  0  0  0
  187.3760  177.9180  142.3520 C   0  0  0  0  0  0  0  0  0  0  0  0
  188.4470  178.1180  141.4880 O   0  0  0  0  0  1  0  0  0  0  0  0
  185.0500  177.6830  143.3060 S   0  0  0  0  0  0  0  0  0  0  0  0
  186.3260  177.5100  144.3930 C   0  0  0  0  0  0  0  0  0  0  0  0
  187.5320  177.6660  143.7180 C   0  0  0  0  0  0  0  0  0  0  0  0
  187.5000  177.1630  146.4600 C   0  0  0  0  0  3  0  0  0  0  0  0
  186.2790  177.2580  145.7690 C   0  0  0  0  0  0  0  0  0  0  0  0
  188.7250  177.3140  145.7830 C   0  0  0  0  0  0  0  0  0  0  0  0
  184.3420  178.1240  146.9140 N   0  0  0  0  0  2  0  0  0  0  0  0
  184.9930  177.1020  146.4630 C   0  0  0  0  0  3  0  0  0  0  0  0
  185.5270  178.1940  140.6450 N   0  0  0  0  0  2  0  0  0  0  0  0
  184.2040  178.7350  140.3720 C   0  0  0  0  0  2  0  0  0  0  0  0
  182.1140  178.0820  140.6280 C   0  0  0  0  0  1  0  0  0  0  0  0
  183.3260  177.6970  140.0590 O   0  0  0  0  0  0  0  0  0  0  0  0
  190.0060  177.2320  146.5400 C   0  0  0  0  0  2  0  0  0  0  0  0
  190.9700  176.3390  145.8370 C   0  0  0  0  0  0  0  0  0  0  0  0
  190.7370  174.9290  145.8080 N   0  0  0  0  0  2  0  0  0  0  0  0
  192.0000  176.8310  145.3030 O   0  0  0  0  0  0  0  0  0  0  0  0
  191.6350  173.9980  145.1400 C   0  0  0  0  0  2  0  0  0  0  0  0
  189.1210  174.2110  143.0070 O   0  0  0  0  0  0  0  0  0  0  0  0
  189.7060  173.5040  143.8680 C   0  0  0  0  0  0  0  0  0  0  0  0
  189.6940  172.6560  145.1020 O   0  0  0  0  0  0  0  0  0  0  0  0
  190.8380  172.9340  144.4060 C   0  0  2  0  0  3  0  0  0  0  0  0
  1  3  2  0  0  0  0
  1  5  1  0  0  0  0
  2 10  1  0  0  0  0
  3  7  1  0  0  0  0
  4  3  1  0  0  0  0
  5  6  1  0  0  0  0
  6  9  2  0  0  0  0
  7  6  1  0  0  0  0
  7  2  2  0  0  0  0
  9  8  1  0  0  0  0
  9 12  1  0  0  0  0
 10  8  2  0  0  0  0
 10 17  1  0  0  0  0
 12 11  2  0  0  0  0
 13  1  1  0  0  0  0
 14 13  1  0  0  0  0
 16 14  1  0  0  0  0
 16 15  1  0  0  0  0
 18 17  1  0  0  0  0
 19 18  1  0  0  0  0
 20 18  2  0  0  0  0
 21 19  1  0  0  0  0
 22 23  2  0  0  0  0
 23 25  1  0  0  0  0
 23 24  1  0  0  0  0
 25 24  1  0  0  0  0
 25 21  1  1  0  0  0
M  END
>  <MODEL>
2

>  <REMARK>
 VINA RESULT:      -6.1      1.877      2.271
  Name = 
  8 active torsions:
  status: ('A' for Active; 'I' for Inactive)
    1  A    between atoms: C_1  and  N_19
    2  A    between atoms: C_7  and  C_25
    3  A    between atoms: C_13  and  C_23
    4  A    between atoms: C_14  and  N_19
    5  A    between atoms: C_14  and  O_20
    6  A    between atoms: N_15  and  C_23
    7  A    between atoms: C_18  and  C_24
    8  A    between atoms: C_22  and  C_25
                            x       y       z     vdW  Elec       q    Type
                         _______ _______ _______ _____ _____    ______ ____

>  <TORSDO>
F 8

$$$$
=
 OpenBabel11042417473D

 25 27  0  0  1  0  0  0  0  0999 V2000
  184.8310  178.1270  141.5560 C   0  0  0  0  0  0  0  0  0  0  0  0
  188.4170  177.6740  142.1780 C   0  0  0  0  0  3  0  0  0  0  0  0
  186.1600  177.9440  141.1630 C   0  0  0  0  0  0  0  0  0  0  0  0
  186.5810  177.8680  139.8400 O   0  0  0  0  0  1  0  0  0  0  0  0
  184.7460  178.1860  143.2410 S   0  0  0  0  0  0  0  0  0  0  0  0
  186.4010  177.9700  143.4820 C   0  0  0  0  0  0  0  0  0  0  0  0
  187.0350  177.8550  142.2500 C   0  0  0  0  0  0  0  0  0  0  0  0
  188.5040  177.7290  144.6160 C   0  0  0  0  0  3  0  0  0  0  0  0
  187.1110  177.9120  144.6860 C   0  0  0  0  0  0  0  0  0  0  0  0
  189.1530  177.6050  143.3730 C   0  0  0  0  0  0  0  0  0  0  0  0
  185.9380  177.0120  146.5900 N   0  0  0  0  0  2  0  0  0  0  0  0
  186.4210  178.0420  145.9770 C   0  0  0  0  0  3  0  0  0  0  0  0
  183.6910  178.2650  140.7010 N   0  0  0  0  0  2  0  0  0  0  0  0
  182.3230  178.0160  141.1270 C   0  0  0  0  0  2  0  0  0  0  0  0
  180.1940  178.5580  140.9380 C   0  0  0  0  0  1  0  0  0  0  0  0
  181.4710  178.9540  140.5430 O   0  0  0  0  0  0  0  0  0  0  0  0
  190.6320  177.4340  143.3220 C   0  0  0  0  0  2  0  0  0  0  0  0
  191.0500  176.2560  144.1360 C   0  0  0  0  0  0  0  0  0  0  0  0
  191.6950  176.4590  145.3950 N   0  0  0  0  0  2  0  0  0  0  0  0
  190.8600  175.0930  143.6910 O   0  0  0  0  0  0  0  0  0  0  0  0
  192.1270  175.3570  146.2420 C   0  0  0  0  0  2  0  0  0  0  0  0
  189.0710  174.5700  147.2180 O   0  0  0  0  0  0  0  0  0  0  0  0
  190.0880  175.2780  147.4330 C   0  0  0  0  0  0  0  0  0  0  0  0
  190.7380  176.6030  147.6870 O   0  0  0  0  0  0  0  0  0  0  0  0
  191.4460  175.4370  147.5970 C   0  0  2  0  0  3  0  0  0  0  0  0
  1  5  1  0  0  0  0
  2  7  2  0  0  0  0
  2 10  1  0  0  0  0
  3  1  2  0  0  0  0
  3  7  1  0  0  0  0
  4  3  1  0  0  0  0
  5  6  1  0  0  0  0
  6  9  2  0  0  0  0
  7  6  1  0  0  0  0
  8  9  1  0  0  0  0
  9 12  1  0  0  0  0
 10  8  2  0  0  0  0
 12 11  2  0  0  0  0
 13 14  1  0  0  0  0
 13  1  1  0  0  0  0
 16 15  1  0  0  0  0
 16 14  1  0  0  0  0
 17 10  1  0  0  0  0
 17 18  1  0  0  0  0
 18 19  1  0  0  0  0
 19 21  1  0  0  0  0
 20 18  2  0  0  0  0
 22 23  2  0  0  0  0
 23 25  1  0  0  0  0
 23 24  1  0  0  0  0
 25 21  1  6  0  0  0
 25 24  1  0  0  0  0
M  END
>  <MODEL>
3

>  <REMARK>
 VINA RESULT:      -6.1      1.759      3.128
  Name = 
  8 active torsions:
  status: ('A' for Active; 'I' for Inactive)
    1  A    between atoms: C_1  and  N_19
    2  A    between atoms: C_7  and  C_25
    3  A    between atoms: C_13  and  C_23
    4  A    between atoms: C_14  and  N_19
    5  A    between atoms: C_14  and  O_20
    6  A    between atoms: N_15  and  C_23
    7  A    between atoms: C_18  and  C_24
    8  A    between atoms: C_22  and  C_25
                            x       y       z     vdW  Elec       q    Type
                         _______ _______ _______ _____ _____    ______ ____

>  <TORSDO>
F 8

$$$$
=
 OpenBabel11042417473D

 25 27  0  0  1  0  0  0  0  0999 V2000
  192.7850  175.9940  144.5300 C   0  0  0  0  0  0  0  0  0  0  0  0
  189.7840  176.8480  146.4570 C   0  0  0  0  0  3  0  0  0  0  0  0
  192.0380  176.1060  145.7060 C   0  0  0  0  0  0  0  0  0  0  0  0
  192.5090  175.7560  146.9670 O   0  0  0  0  0  1  0  0  0  0  0  0
  191.8630  176.5400  143.2250 S   0  0  0  0  0  0  0  0  0  0  0  0
  190.5030  176.9140  144.1480 C   0  0  0  0  0  0  0  0  0  0  0  0
  190.7570  176.6200  145.4830 C   0  0  0  0  0  0  0  0  0  0  0  0
  188.2940  177.6730  144.7090 C   0  0  0  0  0  3  0  0  0  0  0  0
  189.2770  177.4430  143.7300 C   0  0  0  0  0  0  0  0  0  0  0  0
  188.5420  177.3730  146.0620 C   0  0  0  0  0  0  0  0  0  0  0  0
  187.9420  178.3290  141.9280 N   0  0  0  0  0  2  0  0  0  0  0  0
  189.0320  177.7510  142.3140 C   0  0  0  0  0  3  0  0  0  0  0  0
  194.1280  175.5160  144.4040 N   0  0  0  0  0  2  0  0  0  0  0  0
  195.2840  176.3810  144.2260 C   0  0  0  0  0  2  0  0  0  0  0  0
  197.1470  176.5400  143.0580 C   0  0  0  0  0  1  0  0  0  0  0  0
  195.7960  176.2210  142.9380 O   0  0  0  0  0  0  0  0  0  0  0  0
  187.4940  177.6450  147.0860 C   0  0  0  0  0  2  0  0  0  0  0  0
  186.1360  177.5760  146.4740 C   0  0  0  0  0  0  0  0  0  0  0  0
  185.4200  178.7830  146.2010 N   0  0  0  0  0  2  0  0  0  0  0  0
  185.6170  176.4530  146.2330 O   0  0  0  0  0  0  0  0  0  0  0  0
  184.0930  178.7910  145.6040 C   0  0  0  0  0  2  0  0  0  0  0  0
  184.6330  177.5230  142.6010 O   0  0  0  0  0  0  0  0  0  0  0  0
  184.6920  178.5460  143.3310 C   0  0  0  0  0  0  0  0  0  0  0  0
  185.4350  179.7160  143.8970 O   0  0  0  0  0  0  0  0  0  0  0  0
  184.1390  179.4330  144.2280 C   0  0  2  0  0  3  0  0  0  0  0  0
  1  3  2  0  0  0  0
  3  4  1  0  0  0  0
  5  6  1  0  0  0  0
  5  1  1  0  0  0  0
  6  7  1  0  0  0  0
  7  3  1  0  0  0  0
  7  2  2  0  0  0  0
  8 10  2  0  0  0  0
  9  6  2  0  0  0  0
  9  8  1  0  0  0  0
 10  2  1  0  0  0  0
 10 17  1  0  0  0  0
 11 12  2  0  0  0  0
 12  9  1  0  0  0  0
 13  1  1  0  0  0  0
 14 13  1  0  0  0  0
 16 15  1  0  0  0  0
 16 14  1  0  0  0  0
 18 17  1  0  0  0  0
 19 18  1  0  0  0  0
 20 18  2  0  0  0  0
 21 19  1  0  0  0  0
 22 23  2  0  0  0  0
 23 24  1  0  0  0  0
 23 25  1  0  0  0  0
 24 25  1  0  0  0  0
 25 21  1  1  0  0  0
M  END
>  <MODEL>
4

>  <REMARK>
 VINA RESULT:      -6.1      2.731      7.279
  Name = 
  8 active torsions:
  status: ('A' for Active; 'I' for Inactive)
    1  A    between atoms: C_1  and  N_19
    2  A    between atoms: C_7  and  C_25
    3  A    between atoms: C_13  and  C_23
    4  A    between atoms: C_14  and  N_19
    5  A    between atoms: C_14  and  O_20
    6  A    between atoms: N_15  and  C_23
    7  A    between atoms: C_18  and  C_24
    8  A    between atoms: C_22  and  C_25
                            x       y       z     vdW  Elec       q    Type
                         _______ _______ _______ _____ _____    ______ ____

>  <TORSDO>
F 8

$$$$
=
 OpenBabel11042417473D

 25 27  0  0  1  0  0  0  0  0999 V2000
  184.6530  178.2710  141.4740 C   0  0  0  0  0  0  0  0  0  0  0  0
  187.9990  177.6540  142.8420 C   0  0  0  0  0  3  0  0  0  0  0  0
  186.0180  177.9910  141.3730 C   0  0  0  0  0  0  0  0  0  0  0  0
  186.6930  177.8130  140.1690 O   0  0  0  0  0  1  0  0  0  0  0  0
  184.2320  178.4350  143.1010 S   0  0  0  0  0  0  0  0  0  0  0  0
  185.7850  178.1400  143.6880 C   0  0  0  0  0  0  0  0  0  0  0  0
  186.6470  177.9170  142.6190 C   0  0  0  0  0  0  0  0  0  0  0  0
  187.5940  177.8470  145.2410 C   0  0  0  0  0  3  0  0  0  0  0  0
  186.2310  178.1120  145.0130 C   0  0  0  0  0  0  0  0  0  0  0  0
  188.4710  177.6140  144.1650 C   0  0  0  0  0  0  0  0  0  0  0  0
  185.6290  179.1180  147.1200 N   0  0  0  0  0  2  0  0  0  0  0  0
  185.3040  178.3570  146.1270 C   0  0  0  0  0  3  0  0  0  0  0  0
  183.7220  178.4230  140.3970 N   0  0  0  0  0  2  0  0  0  0  0  0
  182.3530  177.9340  140.4340 C   0  0  0  0  0  2  0  0  0  0  0  0
  180.2100  178.4290  140.6010 C   0  0  0  0  0  1  0  0  0  0  0  0
  181.4820  178.9940  140.6870 O   0  0  0  0  0  0  0  0  0  0  0  0
  189.9150  177.3560  144.4280 C   0  0  0  0  0  2  0  0  0  0  0  0
  190.3290  176.0530  143.8350 C   0  0  0  0  0  0  0  0  0  0  0  0
  189.5230  174.8910  144.0470 N   0  0  0  0  0  2  0  0  0  0  0  0
  191.4030  175.9790  143.1810 O   0  0  0  0  0  0  0  0  0  0  0  0
  189.8650  173.5870  143.4980 C   0  0  0  0  0  2  0  0  0  0  0  0
  189.6710  173.9020  140.2150 O   0  0  0  0  0  0  0  0  0  0  0  0
  189.0360  173.7660  141.2920 C   0  0  0  0  0  0  0  0  0  0  0  0
  187.9560  174.1810  142.2430 O   0  0  0  0  0  0  0  0  0  0  0  0
  188.8090  173.1440  142.5000 C   0  0  2  0  0  3  0  0  0  0  0  0
  1  5  1  0  0  0  0
  2 10  1  0  0  0  0
  3  1  2  0  0  0  0
  3  7  1  0  0  0  0
  4  3  1  0  0  0  0
  5  6  1  0  0  0  0
  6  9  2  0  0  0  0
  7  2  2  0  0  0  0
  7  6  1  0  0  0  0
  9  8  1  0  0  0  0
  9 12  1  0  0  0  0
 10 17  1  0  0  0  0
 10  8  2  0  0  0  0
 12 11  2  0  0  0  0
 13 14  1  0  0  0  0
 13  1  1  0  0  0  0
 14 16  1  0  0  0  0
 15 16  1  0  0  0  0
 18 19  1  0  0  0  0
 18 17  1  0  0  0  0
 20 18  2  0  0  0  0
 21 19  1  0  0  0  0
 22 23  2  0  0  0  0
 23 24  1  0  0  0  0
 23 25  1  0  0  0  0
 24 25  1  0  0  0  0
 25 21  1  1  0  0  0
M  END
>  <MODEL>
5

>  <REMARK>
 VINA RESULT:      -5.9      2.461      3.573
  Name = 
  8 active torsions:
  status: ('A' for Active; 'I' for Inactive)
    1  A    between atoms: C_1  and  N_19
    2  A    between atoms: C_7  and  C_25
    3  A    between atoms: C_13  and  C_23
    4  A    between atoms: C_14  and  N_19
    5  A    between atoms: C_14  and  O_20
    6  A    between atoms: N_15  and  C_23
    7  A    between atoms: C_18  and  C_24
    8  A    between atoms: C_22  and  C_25
                            x       y       z     vdW  Elec       q    Type
                         _______ _______ _______ _____ _____    ______ ____

>  <TORSDO>
F 8

$$$$
=
 OpenBabel11042417473D

 25 27  0  0  1  0  0  0  0  0999 V2000
  184.2580  178.2570  142.9620 C   0  0  0  0  0  0  0  0  0  0  0  0
  186.7280  177.9480  145.6550 C   0  0  0  0  0  3  0  0  0  0  0  0
  184.6940  178.3720  144.2850 C   0  0  0  0  0  0  0  0  0  0  0  0
  183.9040  178.8410  145.3300 O   0  0  0  0  0  1  0  0  0  0  0  0
  185.5060  177.6310  142.0120 S   0  0  0  0  0  0  0  0  0  0  0  0
  186.6120  177.5100  143.2790 C   0  0  0  0  0  0  0  0  0  0  0  0
  186.0170  177.9540  144.4550 C   0  0  0  0  0  0  0  0  0  0  0  0
  188.6510  177.0410  144.4580 C   0  0  0  0  0  3  0  0  0  0  0  0
  187.9320  177.0460  143.2490 C   0  0  0  0  0  0  0  0  0  0  0  0
  188.0580  177.4930  145.6520 C   0  0  0  0  0  0  0  0  0  0  0  0
  189.1560  175.4430  141.9290 N   0  0  0  0  0  2  0  0  0  0  0  0
  188.5390  176.5770  141.9960 C   0  0  0  0  0  3  0  0  0  0  0  0
  182.9640  178.5880  142.4490 N   0  0  0  0  0  2  0  0  0  0  0  0
  182.4250  178.0610  141.2050 C   0  0  0  0  0  2  0  0  0  0  0  0
  180.6790  179.3760  140.9170 C   0  0  0  0  0  1  0  0  0  0  0  0
  181.0310  178.0710  141.2550 O   0  0  0  0  0  0  0  0  0  0  0  0
  188.8320  177.4580  146.9240 C   0  0  0  0  0  2  0  0  0  0  0  0
  189.7130  176.2560  146.9660 C   0  0  0  0  0  0  0  0  0  0  0  0
  191.1330  176.4210  146.9750 N   0  0  0  0  0  2  0  0  0  0  0  0
  189.2000  175.1060  146.9590 O   0  0  0  0  0  0  0  0  0  0  0  0
  192.0540  175.2940  147.0160 C   0  0  0  0  0  2  0  0  0  0  0  0
  194.5540  177.4300  146.6970 O   0  0  0  0  0  0  0  0  0  0  0  0
  193.7500  176.6640  146.1060 C   0  0  0  0  0  0  0  0  0  0  0  0
  192.7320  176.3960  145.0420 O   0  0  0  0  0  0  0  0  0  0  0  0
  193.1230  175.4490  145.9480 C   0  0  2  0  0  3  0  0  0  0  0  0
  1  3  2  0  0  0  0
  3  7  1  0  0  0  0
  3  4  1  0  0  0  0
  5  1  1  0  0  0  0
  5  6  1  0  0  0  0
  6  7  1  0  0  0  0
  7  2  2  0  0  0  0
  8 10  2  0  0  0  0
  9  6  2  0  0  0  0
  9  8  1  0  0  0  0
 10  2  1  0  0  0  0
 10 17  1  0  0  0  0
 11 12  2  0  0  0  0
 12  9  1  0  0  0  0
 13  1  1  0  0  0  0
 14 16  1  0  0  0  0
 14 13  1  0  0  0  0
 15 16  1  0  0  0  0
 17 18  1  0  0  0  0
 18 19  1  0  0  0  0
 19 21  1  0  0  0  0
 20 18  2  0  0  0  0
 23 22  2  0  0  0  0
 24 25  1  0  0  0  0
 24 23  1  0  0  0  0
 25 23  1  0  0  0  0
 25 21  1  1  0  0  0
M  END
>  <MODEL>
6

>  <REMARK>
 VINA RESULT:      -5.8      2.278      3.349
  Name = 
  8 active torsions:
  status: ('A' for Active; 'I' for Inactive)
    1  A    between atoms: C_1  and  N_19
    2  A    between atoms: C_7  and  C_25
    3  A    between atoms: C_13  and  C_23
    4  A    between atoms: C_14  and  N_19
    5  A    between atoms: C_14  and  O_20
    6  A    between atoms: N_15  and  C_23
    7  A    between atoms: C_18  and  C_24
    8  A    between atoms: C_22  and  C_25
                            x       y       z     vdW  Elec       q    Type
                         _______ _______ _______ _____ _____    ______ ____

>  <TORSDO>
F 8

$$$$
=
 OpenBabel11042417473D

 25 27  0  0  1  0  0  0  0  0999 V2000
  186.2640  177.7400  143.1250 C   0  0  0  0  0  0  0  0  0  0  0  0
  188.2960  176.4560  145.8950 C   0  0  0  0  0  3  0  0  0  0  0  0
  186.7130  177.7200  144.4490 C   0  0  0  0  0  0  0  0  0  0  0  0
  186.2620  178.5850  145.4410 O   0  0  0  0  0  1  0  0  0  0  0  0
  187.0390  176.5210  142.2510 S   0  0  0  0  0  0  0  0  0  0  0  0
  187.9580  175.9660  143.5500 C   0  0  0  0  0  0  0  0  0  0  0  0
  187.6660  176.7230  144.6790 C   0  0  0  0  0  0  0  0  0  0  0  0
  189.5220  174.6470  144.8090 C   0  0  0  0  0  3  0  0  0  0  0  0
  188.8840  174.9180  143.5840 C   0  0  0  0  0  0  0  0  0  0  0  0
  189.2350  175.4120  145.9550 C   0  0  0  0  0  0  0  0  0  0  0  0
  188.5070  173.0560  142.1000 N   0  0  0  0  0  2  0  0  0  0  0  0
  189.1740  174.1270  142.3800 C   0  0  0  0  0  3  0  0  0  0  0  0
  185.2900  178.6230  142.5600 N   0  0  0  0  0  2  0  0  0  0  0  0
  184.3480  178.2330  141.5220 C   0  0  0  0  0  2  0  0  0  0  0  0
  182.2260  178.2040  140.9200 C   0  0  0  0  0  1  0  0  0  0  0  0
  183.0530  178.2210  142.0420 O   0  0  0  0  0  0  0  0  0  0  0  0
  189.9060  175.0930  147.2470 C   0  0  0  0  0  2  0  0  0  0  0  0
  191.1410  175.9120  147.4090 C   0  0  0  0  0  0  0  0  0  0  0  0
  192.3140  175.5800  146.6620 N   0  0  0  0  0  2  0  0  0  0  0  0
  191.1510  176.8690  148.2290 O   0  0  0  0  0  0  0  0  0  0  0  0
  193.5530  176.3350  146.7700 C   0  0  0  0  0  2  0  0  0  0  0  0
  191.9370  177.5630  144.1630 O   0  0  0  0  0  0  0  0  0  0  0  0
  192.9430  176.9220  144.5640 C   0  0  0  0  0  0  0  0  0  0  0  0
  193.8520  175.7340  144.5070 O   0  0  0  0  0  0  0  0  0  0  0  0
  194.0310  176.7610  145.3920 C   0  0  2  0  0  3  0  0  0  0  0  0
  1  3  2  0  0  0  0
  2 10  1  0  0  0  0
  3  7  1  0  0  0  0
  3  4  1  0  0  0  0
  5  1  1  0  0  0  0
  5  6  1  0  0  0  0
  6  9  2  0  0  0  0
  6  7  1  0  0  0  0
  7  2  2  0  0  0  0
  8 10  2  0  0  0  0
  9  8  1  0  0  0  0
 10 17  1  0  0  0  0
 11 12  2  0  0  0  0
 12  9  1  0  0  0  0
 13  1  1  0  0  0  0
 14 16  1  0  0  0  0
 14 13  1  0  0  0  0
 15 16  1  0  0  0  0
 17 18  1  0  0  0  0
 18 20  2  0  0  0  0
 19 21  1  0  0  0  0
 19 18  1  0  0  0  0
 22 23  2  0  0  0  0
 23 25  1  0  0  0  0
 24 23  1  0  0  0  0
 24 25  1  0  0  0  0
 25 21  1  1  0  0  0
M  END
>  <MODEL>
7

>  <REMARK>
 VINA RESULT:      -5.7      1.951      2.855
  Name = 
  8 active torsions:
  status: ('A' for Active; 'I' for Inactive)
    1  A    between atoms: C_1  and  N_19
    2  A    between atoms: C_7  and  C_25
    3  A    between atoms: C_13  and  C_23
    4  A    between atoms: C_14  and  N_19
    5  A    between atoms: C_14  and  O_20
    6  A    between atoms: N_15  and  C_23
    7  A    between atoms: C_18  and  C_24
    8  A    between atoms: C_22  and  C_25
                            x       y       z     vdW  Elec       q    Type
                         _______ _______ _______ _____ _____    ______ ____

>  <TORSDO>
F 8

$$$$
=
 OpenBabel11042417473D

 25 27  0  0  1  0  0  0  0  0999 V2000
  191.9000  175.8900  143.2980 C   0  0  0  0  0  0  0  0  0  0  0  0
  188.8390  177.8120  142.6730 C   0  0  0  0  0  3  0  0  0  0  0  0
  191.1510  177.0680  143.2200 C   0  0  0  0  0  0  0  0  0  0  0  0
  191.6590  178.3360  143.4810 O   0  0  0  0  0  1  0  0  0  0  0  0
  190.9230  174.5760  142.8860 S   0  0  0  0  0  0  0  0  0  0  0  0
  189.5380  175.4970  142.6140 C   0  0  0  0  0  0  0  0  0  0  0  0
  189.8260  176.8390  142.8380 C   0  0  0  0  0  0  0  0  0  0  0  0
  187.2690  176.0510  142.0530 C   0  0  0  0  0  3  0  0  0  0  0  0
  188.2650  175.0710  142.2190 C   0  0  0  0  0  0  0  0  0  0  0  0
  187.5500  177.4100  142.2830 C   0  0  0  0  0  0  0  0  0  0  0  0
  188.1980  173.1010  140.8320 N   0  0  0  0  0  2  0  0  0  0  0  0
  187.9850  173.6480  141.9830 C   0  0  0  0  0  3  0  0  0  0  0  0
  193.2810  175.7700  143.6490 N   0  0  0  0  0  2  0  0  0  0  0  0
  193.7920  175.9370  145.0010 C   0  0  0  0  0  2  0  0  0  0  0  0
  195.6860  176.4280  143.9850 C   0  0  0  0  0  1  0  0  0  0  0  0
  194.8350  176.8640  144.9990 O   0  0  0  0  0  0  0  0  0  0  0  0
  186.4860  178.4330  142.0790 C   0  0  0  0  0  2  0  0  0  0  0  0
  185.3930  178.2540  143.0770 C   0  0  0  0  0  0  0  0  0  0  0  0
  185.6210  178.5980  144.4450 N   0  0  0  0  0  2  0  0  0  0  0  0
  184.2880  177.7700  142.7110 O   0  0  0  0  0  0  0  0  0  0  0  0
  184.6000  178.4510  145.4720 C   0  0  0  0  0  2  0  0  0  0  0  0
  186.7800  178.6130  147.9490 O   0  0  0  0  0  0  0  0  0  0  0  0
  186.1790  177.8700  147.1310 C   0  0  0  0  0  0  0  0  0  0  0  0
  186.1770  176.8030  146.0800 O   0  0  0  0  0  0  0  0  0  0  0  0
  185.0360  177.4260  146.5050 C   0  0  2  0  0  3  0  0  0  0  0  0
  1 13  1  0  0  0  0
  2  7  1  0  0  0  0
  3  1  2  0  0  0  0
  3  4  1  0  0  0  0
  5  1  1  0  0  0  0
  6  7  2  0  0  0  0
  6  5  1  0  0  0  0
  7  3  1  0  0  0  0
  8  9  2  0  0  0  0
  8 10  1  0  0  0  0
  9  6  1  0  0  0  0
 10  2  2  0  0  0  0
 11 12  2  0  0  0  0
 12  9  1  0  0  0  0
 13 14  1  0  0  0  0
 15 16  1  0  0  0  0
 16 14  1  0  0  0  0
 17 10  1  0  0  0  0
 17 18  1  0  0  0  0
 18 19  1  0  0  0  0
 19 21  1  0  0  0  0
 20 18  2  0  0  0  0
 23 22  2  0  0  0  0
 24 25  1  0  0  0  0
 24 23  1  0  0  0  0
 25 21  1  6  0  0  0
 25 23  1  0  0  0  0
M  END
>  <MODEL>
8

>  <REMARK>
 VINA RESULT:      -5.6      2.840      7.229
  Name = 
  8 active torsions:
  status: ('A' for Active; 'I' for Inactive)
    1  A    between atoms: C_1  and  N_19
    2  A    between atoms: C_7  and  C_25
    3  A    between atoms: C_13  and  C_23
    4  A    between atoms: C_14  and  N_19
    5  A    between atoms: C_14  and  O_20
    6  A    between atoms: N_15  and  C_23
    7  A    between atoms: C_18  and  C_24
    8  A    between atoms: C_22  and  C_25
                            x       y       z     vdW  Elec       q    Type
                         _______ _______ _______ _____ _____    ______ ____

>  <TORSDO>
F 8

$$$$
=
 OpenBabel11042417473D

 25 27  0  0  1  0  0  0  0  0999 V2000
  190.1970  174.0270  142.2780 C   0  0  0  0  0  0  0  0  0  0  0  0
  187.6650  176.6680  142.0130 C   0  0  0  0  0  3  0  0  0  0  0  0
  189.1540  174.7070  141.6420 C   0  0  0  0  0  0  0  0  0  0  0  0
  188.6170  174.3420  140.4120 O   0  0  0  0  0  1  0  0  0  0  0  0
  190.5370  174.7740  143.7540 S   0  0  0  0  0  0  0  0  0  0  0  0
  189.3640  175.9740  143.5890 C   0  0  0  0  0  0  0  0  0  0  0  0
  188.6930  175.8000  142.3830 C   0  0  0  0  0  0  0  0  0  0  0  0
  188.0040  177.8870  144.0980 C   0  0  0  0  0  3  0  0  0  0  0  0
  189.0400  177.0110  144.4700 C   0  0  0  0  0  0  0  0  0  0  0  0
  187.3240  177.7220  142.8770 C   0  0  0  0  0  0  0  0  0  0  0  0
  189.3010  176.6720  146.8430 N   0  0  0  0  0  2  0  0  0  0  0  0
  189.7580  177.1720  145.7420 C   0  0  0  0  0  3  0  0  0  0  0  0
  190.8860  172.8670  141.8010 N   0  0  0  0  0  2  0  0  0  0  0  0
  192.2360  172.5030  142.2020 C   0  0  0  0  0  2  0  0  0  0  0  0
  192.2560  171.1350  143.9310 C   0  0  0  0  0  1  0  0  0  0  0  0
  192.2780  171.1500  142.5370 O   0  0  0  0  0  0  0  0  0  0  0  0
  186.2160  178.6480  142.5140 C   0  0  0  0  0  2  0  0  0  0  0  0
  185.5300  179.1470  143.7400 C   0  0  0  0  0  0  0  0  0  0  0  0
  184.7510  178.2470  144.5310 N   0  0  0  0  0  2  0  0  0  0  0  0
  185.6160  180.3650  144.0500 O   0  0  0  0  0  0  0  0  0  0  0  0
  184.0560  178.6630  145.7400 C   0  0  0  0  0  2  0  0  0  0  0  0
  186.6710  178.6830  147.7600 O   0  0  0  0  0  0  0  0  0  0  0  0
  185.7600  177.9920  147.2340 C   0  0  0  0  0  0  0  0  0  0  0  0
  185.2960  176.7920  146.4690 O   0  0  0  0  0  0  0  0  0  0  0  0
  184.4420  177.7670  146.9040 C   0  0  2  0  0  3  0  0  0  0  0  0
  1  5  1  0  0  0  0
  2  7  2  0  0  0  0
  2 10  1  0  0  0  0
  3  1  2  0  0  0  0
  3  7  1  0  0  0  0
  4  3  1  0  0  0  0
  6  5  1  0  0  0  0
  6  9  2  0  0  0  0
  7  6  1  0  0  0  0
  8  9  1  0  0  0  0
  9 12  1  0  0  0  0
 10  8  2  0  0  0  0
 12 11  2  0  0  0  0
 13 14  1  0  0  0  0
 13  1  1  0  0  0  0
 14 16  1  0  0  0  0
 16 15  1  0  0  0  0
 17 10  1  0  0  0  0
 17 18  1  0  0  0  0
 18 20  2  0  0  0  0
 18 19  1  0  0  0  0
 19 21  1  0  0  0  0
 23 22  2  0  0  0  0
 24 25  1  0  0  0  0
 24 23  1  0  0  0  0
 25 21  1  6  0  0  0
 25 23  1  0  0  0  0
M  END
>  <MODEL>
9

>  <REMARK>
 VINA RESULT:      -5.5      3.383      6.758
  Name = 
  8 active torsions:
  status: ('A' for Active; 'I' for Inactive)
    1  A    between atoms: C_1  and  N_19
    2  A    between atoms: C_7  and  C_25
    3  A    between atoms: C_13  and  C_23
    4  A    between atoms: C_14  and  N_19
    5  A    between atoms: C_14  and  O_20
    6  A    between atoms: N_15  and  C_23
    7  A    between atoms: C_18  and  C_24
    8  A    between atoms: C_22  and  C_25
                            x       y       z     vdW  Elec       q    Type
                         _______ _______ _______ _____ _____    ______ ____

>  <TORSDO>
F 8

$$$$
