=
 OpenBabel11042417123D

 49 55  0  0  1  0  0  0  0  0999 V2000
  189.9340  175.3190  144.8130 C   0  0  0  0  0  0  0  0  0  0  0  0
  188.9710  176.4190  145.1650 C   0  0  1  0  0  3  0  0  0  0  0  0
  188.4920  174.1450  141.1120 C   0  0  0  0  0  2  0  0  0  0  0  0
  189.8800  173.6730  141.5290 C   0  0  0  0  0  0  0  0  0  0  0  0
  188.1280  176.5180  143.9670 N   0  0  0  0  0  0  0  0  0  0  0  0
  188.0750  175.5080  141.7050 C   0  0  0  0  0  2  0  0  0  0  0  0
  188.5100  175.6110  143.1320 C   0  0  0  0  0  0  0  0  0  0  0  0
  190.3820  173.9640  142.7420 C   0  0  0  0  0  3  0  0  0  0  0  0
  189.6340  174.8670  143.6150 C   0  0  0  0  0  0  0  0  0  0  0  0
  191.1360  174.9710  145.5100 N   0  0  0  0  0  2  0  0  0  0  0  0
  192.9780  175.9290  146.7650 C   0  0  0  0  0  1  0  0  0  0  0  0
  192.4270  175.6410  145.3760 C   0  0  2  0  0  0  0  0  0  0  0  0
  192.2670  176.8470  144.6820 O   0  0  0  0  0  1  0  0  0  0  0  0
  194.8340  174.9900  144.9550 C   0  0  0  0  0  0  0  0  0  0  0  0
  195.4400  173.8590  145.5790 N   0  0  0  0  0  0  0  0  0  0  0  0
  196.8390  173.7290  145.9610 C   0  0  0  0  0  1  0  0  0  0  0  0
  193.3140  173.2780  145.0780 C   0  0  0  0  0  0  0  0  0  0  0  0
  192.2980  172.5460  144.9530 O   0  0  0  0  0  0  0  0  0  0  0  0
  194.5300  172.8040  145.6400 N   0  0  0  0  0  2  0  0  0  0  0  0
  195.5300  176.0000  144.4460 C   0  0  0  0  0  2  0  0  0  0  0  0
  193.3970  174.7090  144.6150 C   0  0  1  0  0  3  0  0  0  0  0  0
  188.1230  176.0390  146.3680 C   0  0  0  0  0  2  0  0  0  0  0  0
  186.8320  176.6960  146.2790 N   0  0  0  0  0  2  0  0  0  0  0  0
  186.8410  177.7920  147.2330 C   0  0  0  0  0  2  0  0  0  0  0  0
  185.5450  178.5760  147.1390 C   0  0  0  0  0  2  0  0  0  0  0  0
  184.5370  177.8380  146.2750 C   0  0  0  0  0  2  0  0  0  0  0  0
  183.9860  178.7020  145.3180 O   0  0  0  0  0  0  0  0  0  0  0  0
  184.4880  178.2390  144.1000 C   0  0  0  0  0  2  0  0  0  0  0  0
  186.2030  178.9110  142.4230 O   0  0  0  0  0  0  0  0  0  0  0  0
  185.5590  180.3670  144.0720 O   0  0  0  0  0  1  0  0  0  0  0  0
  185.4450  179.2300  143.5420 C   0  0  0  0  0  0  0  0  0  0  0  0
  190.6980  172.8180  140.6140 C   0  0  1  0  0  3  0  0  0  0  0  0
  191.2180  170.3970  140.2480 C   0  0  2  0  0  3  0  0  0  0  0  0
  190.1160  171.4130  140.4850 C   0  0  1  0  0  3  0  0  0  0  0  0
  190.9020  169.1580  141.0710 C   0  0  0  0  0  2  0  0  0  0  0  0
  190.6230  170.5420  141.6240 C   0  0  1  0  0  3  0  0  0  0  0  0
  190.9080  173.5210  139.2680 C   0  0  2  0  0  3  0  0  0  0  0  0
  189.8380  173.2800  138.3990 O   0  0  0  0  0  1  0  0  0  0  0  0
  194.4090  172.6510  138.2540 N   0  0  0  0  0  0  0  0  0  0  0  0
  192.2910  172.6080  137.4690 N   0  0  0  0  0  0  0  0  0  0  0  0
  193.6620  172.3200  137.2540 C   0  0  0  0  0  3  0  0  0  0  0  0
  192.2210  173.1500  138.6390 C   0  0  0  0  0  0  0  0  0  0  0  0
  193.5620  173.2200  139.2910 C   0  0  2  0  0  3  0  0  0  0  0  0
  194.8840  174.7010  140.7280 C   0  0  1  0  0  3  0  0  0  0  0  0
  193.5280  175.0270  140.8500 O   0  0  0  0  0  0  0  0  0  0  0  0
  193.9720  174.6580  139.5670 C   0  0  2  0  0  3  0  0  0  0  0  0
  196.9780  175.9260  140.1860 O   0  0  0  0  0  0  0  0  0  0  0  0
  195.2300  177.0060  141.1970 O   0  0  0  0  0  1  0  0  0  0  0  0
  195.6930  175.9450  140.7090 C   0  0  0  0  0  0  0  0  0  0  0  0
  1  2  1  0  0  0  0
  1 10  1  0  0  0  0
  2 22  1  1  0  0  0
  3  4  1  0  0  0  0
  3  6  1  0  0  0  0
  4  8  2  0  0  0  0
  5  2  1  0  0  0  0
  6  7  1  0  0  0  0
  7  9  1  0  0  0  0
  7  5  2  0  0  0  0
  8  9  1  0  0  0  0
  9  1  2  0  0  0  0
 12 10  1  0  0  0  0
 12 11  1  1  0  0  0
 13 12  1  0  0  0  0
 14 15  1  0  0  0  0
 15 19  1  0  0  0  0
 15 16  1  0  0  0  0
 17 19  1  0  0  0  0
 18 17  2  0  0  0  0
 20 14  2  0  0  0  0
 21 14  1  0  0  0  0
 21 17  1  0  0  0  0
 21 12  1  1  0  0  0
 23 22  1  0  0  0  0
 23 24  1  0  0  0  0
 25 24  1  0  0  0  0
 26 25  1  0  0  0  0
 27 26  1  0  0  0  0
 28 27  1  0  0  0  0
 29 31  2  0  0  0  0
 31 30  1  0  0  0  0
 31 28  1  0  0  0  0
 32 37  1  6  0  0  0
 32  4  1  0  0  0  0
 33 34  1  0  0  0  0
 33 35  1  6  0  0  0
 33 36  1  0  0  0  0
 34 32  1  1  0  0  0
 34 36  1  0  0  0  0
 36 35  1  6  0  0  0
 37 38  1  6  0  0  0
 40 42  2  0  0  0  0
 41 40  1  0  0  0  0
 41 39  2  0  0  0  0
 42 37  1  0  0  0  0
 42 43  1  0  0  0  0
 43 39  1  6  0  0  0
 43 46  1  0  0  0  0
 44 49  1  6  0  0  0
 44 45  1  0  0  0  0
 46 44  1  0  0  0  0
 46 45  1  1  0  0  0
 47 49  2  0  0  0  0
 49 48  1  0  0  0  0
M  END
>  <MODEL>
1

>  <REMARK>
 VINA RESULT:      -6.5      0.000      0.000
  Name = 
  17 active torsions:
  status: ('A' for Active; 'I' for Inactive)
    1  A    between atoms: C_1  and  C_10
    2  A    between atoms: C_1  and  N_39
    3  A    between atoms: C_4  and  N_7
    4  A    between atoms: N_7  and  C_30
    5  A    between atoms: C_8  and  C_27
    6  A    between atoms: C_10  and  C_25
    7  A    between atoms: C_14  and  C_45
    8  A    between atoms: C_15  and  C_45
    9  A    between atoms: C_19  and  C_44
   10  A    between atoms: C_19  and  C_45
   11  A    between atoms: O_21  and  C_25
   12  A    between atoms: O_21  and  C_43
   13  A    between atoms: C_27  and  N_39
   14  A    between atoms: C_29  and  C_32
   15  A    between atoms: C_30  and  C_49
   16  A    between atoms: C_38  and  C_43
   17  A    between atoms: C_42  and  C_48
                            x       y       z     vdW  Elec       q    Type
                         _______ _______ _______ _____ _____    ______ ____

>  <TORSDO>
F 17

$$$$
=
 OpenBabel11042417123D

 49 55  0  0  1  0  0  0  0  0999 V2000
  192.6950  172.7900  141.9870 C   0  0  0  0  0  0  0  0  0  0  0  0
  192.6740  171.3960  141.4250 C   0  0  1  0  0  3  0  0  0  0  0  0
  188.6440  173.5640  142.3660 C   0  0  0  0  0  2  0  0  0  0  0  0
  189.6250  174.4870  143.0800 C   0  0  0  0  0  0  0  0  0  0  0  0
  191.2430  171.0640  141.4160 N   0  0  0  0  0  0  0  0  0  0  0  0
  189.1390  172.1110  142.1980 C   0  0  0  0  0  2  0  0  0  0  0  0
  190.5890  172.0940  141.8380 C   0  0  0  0  0  0  0  0  0  0  0  0
  190.9530  174.3320  142.9470 C   0  0  0  0  0  3  0  0  0  0  0  0
  191.4560  173.1680  142.2160 C   0  0  0  0  0  0  0  0  0  0  0  0
  193.8400  173.5140  142.4520 N   0  0  0  0  0  2  0  0  0  0  0  0
  193.8850  175.0190  140.5500 C   0  0  0  0  0  1  0  0  0  0  0  0
  194.7160  174.3480  141.6330 C   0  0  2  0  0  0  0  0  0  0  0  0
  195.7040  173.5550  141.0340 O   0  0  0  0  0  1  0  0  0  0  0  0
  194.5060  175.7640  143.7190 C   0  0  0  0  0  0  0  0  0  0  0  0
  195.1660  175.4300  144.9380 N   0  0  0  0  0  0  0  0  0  0  0  0
  194.6810  175.7000  146.2850 C   0  0  0  0  0  1  0  0  0  0  0  0
  196.5870  174.9180  143.2570 C   0  0  0  0  0  0  0  0  0  0  0  0
  197.6510  174.5550  142.6920 O   0  0  0  0  0  0  0  0  0  0  0  0
  196.4410  174.9340  144.6690 N   0  0  0  0  0  2  0  0  0  0  0  0
  193.4480  176.5650  143.6580 C   0  0  0  0  0  2  0  0  0  0  0  0
  195.3660  175.4240  142.5330 C   0  0  1  0  0  3  0  0  0  0  0  0
  193.2230  171.3700  140.0080 C   0  0  0  0  0  2  0  0  0  0  0  0
  192.1300  171.2030  139.0670 N   0  0  0  0  0  2  0  0  0  0  0  0
  192.6630  171.4610  137.7400 C   0  0  0  0  0  2  0  0  0  0  0  0
  191.6710  172.2750  136.9300 C   0  0  0  0  0  2  0  0  0  0  0  0
  191.3870  173.6040  137.6110 C   0  0  0  0  0  2  0  0  0  0  0  0
  190.2220  174.1820  137.0910 O   0  0  0  0  0  0  0  0  0  0  0  0
  189.2570  173.1770  137.1920 C   0  0  0  0  0  2  0  0  0  0  0  0
  187.8880  172.4300  139.1330 O   0  0  0  0  0  1  0  0  0  0  0  0
  188.0040  174.6520  138.5800 O   0  0  0  0  0  0  0  0  0  0  0  0
  188.3470  173.4650  138.3300 C   0  0  0  0  0  0  0  0  0  0  0  0
  189.1280  175.6330  143.9030 C   0  0  1  0  0  3  0  0  0  0  0  0
  188.6890  175.6550  146.3680 C   0  0  2  0  0  3  0  0  0  0  0  0
  189.7600  175.6440  145.2920 C   0  0  1  0  0  3  0  0  0  0  0  0
  189.1310  174.7210  147.4830 C   0  0  0  0  0  2  0  0  0  0  0  0
  189.3940  174.3670  146.0320 C   0  0  1  0  0  3  0  0  0  0  0  0
  189.2950  176.9530  143.1430 C   0  0  2  0  0  3  0  0  0  0  0  0
  189.7560  177.9690  143.9890 O   0  0  0  0  0  1  0  0  0  0  0  0
  186.1200  178.4040  141.7800 N   0  0  0  0  0  0  0  0  0  0  0  0
  187.7440  176.9260  141.2520 N   0  0  0  0  0  0  0  0  0  0  0  0
  186.5470  177.5850  140.8780 C   0  0  0  0  0  3  0  0  0  0  0  0
  188.0340  177.3570  142.4340 C   0  0  0  0  0  0  0  0  0  0  0  0
  187.0450  178.3720  142.9030 C   0  0  2  0  0  3  0  0  0  0  0  0
  185.8750  179.0780  144.9380 C   0  0  1  0  0  3  0  0  0  0  0  0
  187.0250  178.3610  145.2900 O   0  0  0  0  0  0  0  0  0  0  0  0
  186.3230  177.9060  144.1580 C   0  0  2  0  0  3  0  0  0  0  0  0
  185.0370  178.1750  147.0970 O   0  0  0  0  0  1  0  0  0  0  0  0
  183.5700  178.8360  145.4680 O   0  0  0  0  0  0  0  0  0  0  0  0
  184.7610  178.7050  145.8440 C   0  0  0  0  0  0  0  0  0  0  0  0
  1  9  2  0  0  0  0
  1 10  1  0  0  0  0
  2 22  1  6  0  0  0
  2  1  1  0  0  0  0
  3  4  1  0  0  0  0
  4 32  1  0  0  0  0
  5  2  1  0  0  0  0
  5  7  2  0  0  0  0
  6  3  1  0  0  0  0
  7  6  1  0  0  0  0
  7  9  1  0  0  0  0
  8  4  2  0  0  0  0
  9  8  1  0  0  0  0
 12 11  1  6  0  0  0
 12 10  1  0  0  0  0
 13 12  1  0  0  0  0
 14 15  1  0  0  0  0
 15 16  1  0  0  0  0
 17 19  1  0  0  0  0
 18 17  2  0  0  0  0
 19 15  1  0  0  0  0
 20 14  2  0  0  0  0
 21 12  1  6  0  0  0
 21 17  1  0  0  0  0
 21 14  1  0  0  0  0
 23 22  1  0  0  0  0
 24 23  1  0  0  0  0
 25 26  1  0  0  0  0
 25 24  1  0  0  0  0
 27 28  1  0  0  0  0
 27 26  1  0  0  0  0
 28 31  1  0  0  0  0
 31 30  2  0  0  0  0
 31 29  1  0  0  0  0
 32 37  1  6  0  0  0
 33 35  1  1  0  0  0
 34 32  1  6  0  0  0
 34 36  1  0  0  0  0
 34 33  1  0  0  0  0
 36 33  1  0  0  0  0
 36 35  1  1  0  0  0
 37 38  1  1  0  0  0
 40 42  2  0  0  0  0
 41 40  1  0  0  0  0
 41 39  2  0  0  0  0
 42 43  1  0  0  0  0
 42 37  1  0  0  0  0
 43 39  1  6  0  0  0
 43 46  1  0  0  0  0
 44 45  1  0  0  0  0
 44 49  1  1  0  0  0
 46 44  1  0  0  0  0
 46 45  1  1  0  0  0
 48 49  2  0  0  0  0
 49 47  1  0  0  0  0
M  END
>  <MODEL>
2

>  <REMARK>
 VINA RESULT:      -6.5      2.266      7.798
  Name = 
  17 active torsions:
  status: ('A' for Active; 'I' for Inactive)
    1  A    between atoms: C_1  and  C_10
    2  A    between atoms: C_1  and  N_39
    3  A    between atoms: C_4  and  N_7
    4  A    between atoms: N_7  and  C_30
    5  A    between atoms: C_8  and  C_27
    6  A    between atoms: C_10  and  C_25
    7  A    between atoms: C_14  and  C_45
    8  A    between atoms: C_15  and  C_45
    9  A    between atoms: C_19  and  C_44
   10  A    between atoms: C_19  and  C_45
   11  A    between atoms: O_21  and  C_25
   12  A    between atoms: O_21  and  C_43
   13  A    between atoms: C_27  and  N_39
   14  A    between atoms: C_29  and  C_32
   15  A    between atoms: C_30  and  C_49
   16  A    between atoms: C_38  and  C_43
   17  A    between atoms: C_42  and  C_48
                            x       y       z     vdW  Elec       q    Type
                         _______ _______ _______ _____ _____    ______ ____

>  <TORSDO>
F 17

$$$$
=
 OpenBabel11042417123D

 49 55  0  0  1  0  0  0  0  0999 V2000
  189.4930  176.4320  142.6550 C   0  0  0  0  0  0  0  0  0  0  0  0
  188.1700  177.0430  142.2860 C   0  0  1  0  0  3  0  0  0  0  0  0
  188.6540  172.3960  142.2550 C   0  0  0  0  0  2  0  0  0  0  0  0
  190.1140  172.8240  142.3560 C   0  0  0  0  0  0  0  0  0  0  0  0
  187.3610  175.8770  141.9060 N   0  0  0  0  0  0  0  0  0  0  0  0
  187.7240  173.4450  141.6070 C   0  0  0  0  0  2  0  0  0  0  0  0
  188.0770  174.8180  142.0820 C   0  0  0  0  0  0  0  0  0  0  0  0
  190.4540  174.1090  142.5520 C   0  0  0  0  0  3  0  0  0  0  0  0
  189.4030  175.1270  142.5240 C   0  0  0  0  0  0  0  0  0  0  0  0
  190.7320  177.1220  142.8600 N   0  0  0  0  0  2  0  0  0  0  0  0
  190.3030  177.3990  145.2320 C   0  0  0  0  0  1  0  0  0  0  0  0
  191.3730  177.3640  144.1500 C   0  0  2  0  0  0  0  0  0  0  0  0
  192.0450  178.5930  144.1240 O   0  0  0  0  0  1  0  0  0  0  0  0
  193.5310  176.2240  143.4860 C   0  0  0  0  0  0  0  0  0  0  0  0
  194.7560  176.4440  144.1820 N   0  0  0  0  0  0  0  0  0  0  0  0
  196.0930  176.4230  143.6050 C   0  0  0  0  0  1  0  0  0  0  0  0
  193.1130  176.4030  145.7340 C   0  0  0  0  0  0  0  0  0  0  0  0
  192.5760  176.4050  146.8720 O   0  0  0  0  0  0  0  0  0  0  0  0
  194.5160  176.5330  145.5530 N   0  0  0  0  0  2  0  0  0  0  0  0
  193.4720  175.7570  142.2440 C   0  0  0  0  0  2  0  0  0  0  0  0
  192.3670  176.2160  144.4380 C   0  0  1  0  0  3  0  0  0  0  0  0
  187.5410  177.7450  143.4790 C   0  0  0  0  0  2  0  0  0  0  0  0
  186.0950  177.6570  143.3870 N   0  0  0  0  0  2  0  0  0  0  0  0
  185.5970  179.0030  143.1560 C   0  0  0  0  0  2  0  0  0  0  0  0
  185.2650  179.6690  144.4790 C   0  0  0  0  0  2  0  0  0  0  0  0
  184.0570  179.0090  145.1220 C   0  0  0  0  0  2  0  0  0  0  0  0
  184.2930  178.7740  146.4830 O   0  0  0  0  0  0  0  0  0  0  0  0
  184.6700  177.4300  146.5450 C   0  0  0  0  0  2  0  0  0  0  0  0
  186.9780  176.5140  146.7220 O   0  0  0  0  0  0  0  0  0  0  0  0
  186.1650  177.9300  148.3310 O   0  0  0  0  0  1  0  0  0  0  0  0
  185.9700  177.3050  147.2540 C   0  0  0  0  0  0  0  0  0  0  0  0
  191.2090  171.8060  142.3000 C   0  0  1  0  0  3  0  0  0  0  0  0
  193.0610  170.8670  143.6980 C   0  0  2  0  0  3  0  0  0  0  0  0
  191.6200  171.3420  143.6950 C   0  0  1  0  0  3  0  0  0  0  0  0
  193.7190  171.3680  144.9740 C   0  0  0  0  0  2  0  0  0  0  0  0
  192.7280  172.2380  144.2270 C   0  0  1  0  0  3  0  0  0  0  0  0
  190.8270  170.6570  141.3590 C   0  0  2  0  0  3  0  0  0  0  0  0
  190.7960  169.4350  142.0400 O   0  0  0  0  0  1  0  0  0  0  0  0
  193.0020  171.0980  138.3400 N   0  0  0  0  0  0  0  0  0  0  0  0
  192.4340  169.5510  139.8850 N   0  0  0  0  0  0  0  0  0  0  0  0
  193.2090  169.8900  138.7480 C   0  0  0  0  0  3  0  0  0  0  0  0
  191.7220  170.5940  140.1560 C   0  0  0  0  0  0  0  0  0  0  0  0
  192.0190  171.7160  139.2160 C   0  0  2  0  0  3  0  0  0  0  0  0
  190.9330  173.5000  137.9340 C   0  0  1  0  0  3  0  0  0  0  0  0
  190.1520  173.1950  139.0550 O   0  0  0  0  0  0  0  0  0  0  0  0
  190.7860  172.1120  138.4180 C   0  0  2  0  0  3  0  0  0  0  0  0
  188.7700  174.2390  136.9560 O   0  0  0  0  0  1  0  0  0  0  0  0
  190.4460  173.4580  135.6060 O   0  0  0  0  0  0  0  0  0  0  0  0
  190.0500  173.7390  136.7650 C   0  0  0  0  0  0  0  0  0  0  0  0
  1 10  1  0  0  0  0
  2  1  1  0  0  0  0
  2 22  1  1  0  0  0
  3  4  1  0  0  0  0
  4  8  2  0  0  0  0
  5  7  2  0  0  0  0
  5  2  1  0  0  0  0
  6  7  1  0  0  0  0
  6  3  1  0  0  0  0
  7  9  1  0  0  0  0
  9  8  1  0  0  0  0
  9  1  2  0  0  0  0
 10 12  1  0  0  0  0
 12 11  1  1  0  0  0
 13 12  1  0  0  0  0
 14 15  1  0  0  0  0
 14 21  1  0  0  0  0
 15 19  1  0  0  0  0
 16 15  1  0  0  0  0
 17 18  2  0  0  0  0
 19 17  1  0  0  0  0
 20 14  2  0  0  0  0
 21 12  1  6  0  0  0
 21 17  1  0  0  0  0
 23 22  1  0  0  0  0
 24 23  1  0  0  0  0
 24 25  1  0  0  0  0
 25 26  1  0  0  0  0
 26 27  1  0  0  0  0
 27 28  1  0  0  0  0
 28 31  1  0  0  0  0
 29 31  2  0  0  0  0
 31 30  1  0  0  0  0
 32 37  1  6  0  0  0
 32  4  1  0  0  0  0
 33 36  1  0  0  0  0
 33 35  1  1  0  0  0
 34 32  1  6  0  0  0
 34 33  1  0  0  0  0
 34 36  1  0  0  0  0
 36 35  1  1  0  0  0
 37 38  1  1  0  0  0
 39 41  2  0  0  0  0
 40 42  2  0  0  0  0
 41 40  1  0  0  0  0
 42 37  1  0  0  0  0
 43 39  1  6  0  0  0
 43 42  1  0  0  0  0
 44 49  1  6  0  0  0
 44 46  1  0  0  0  0
 44 45  1  0  0  0  0
 46 45  1  1  0  0  0
 46 43  1  0  0  0  0
 48 49  2  0  0  0  0
 49 47  1  0  0  0  0
M  END
>  <MODEL>
3

>  <REMARK>
 VINA RESULT:      -6.4      2.456      3.767
  Name = 
  17 active torsions:
  status: ('A' for Active; 'I' for Inactive)
    1  A    between atoms: C_1  and  C_10
    2  A    between atoms: C_1  and  N_39
    3  A    between atoms: C_4  and  N_7
    4  A    between atoms: N_7  and  C_30
    5  A    between atoms: C_8  and  C_27
    6  A    between atoms: C_10  and  C_25
    7  A    between atoms: C_14  and  C_45
    8  A    between atoms: C_15  and  C_45
    9  A    between atoms: C_19  and  C_44
   10  A    between atoms: C_19  and  C_45
   11  A    between atoms: O_21  and  C_25
   12  A    between atoms: O_21  and  C_43
   13  A    between atoms: C_27  and  N_39
   14  A    between atoms: C_29  and  C_32
   15  A    between atoms: C_30  and  C_49
   16  A    between atoms: C_38  and  C_43
   17  A    between atoms: C_42  and  C_48
                            x       y       z     vdW  Elec       q    Type
                         _______ _______ _______ _____ _____    ______ ____

>  <TORSDO>
F 17

$$$$
=
 OpenBabel11042417123D

 49 55  0  0  1  0  0  0  0  0999 V2000
  194.9180  175.5280  143.8840 C   0  0  0  0  0  0  0  0  0  0  0  0
  195.9960  175.1310  144.8530 C   0  0  1  0  0  3  0  0  0  0  0  0
  191.5270  175.0350  146.2110 C   0  0  0  0  0  2  0  0  0  0  0  0
  191.4010  175.8170  144.9070 C   0  0  0  0  0  0  0  0  0  0  0  0
  195.2520  174.8850  146.0950 N   0  0  0  0  0  0  0  0  0  0  0  0
  192.9150  175.1280  146.8800 C   0  0  0  0  0  2  0  0  0  0  0  0
  193.9960  175.0570  145.8510 C   0  0  0  0  0  0  0  0  0  0  0  0
  192.4470  175.9590  144.0750 C   0  0  0  0  0  3  0  0  0  0  0  0
  193.7580  175.4730  144.5020 C   0  0  0  0  0  0  0  0  0  0  0  0
  195.0970  176.1210  142.5920 N   0  0  0  0  0  2  0  0  0  0  0  0
  197.0290  175.4820  141.2720 C   0  0  0  0  0  1  0  0  0  0  0  0
  195.5120  175.4210  141.3790 C   0  0  2  0  0  0  0  0  0  0  0  0
  194.9430  176.0370  140.2570 O   0  0  0  0  0  1  0  0  0  0  0  0
  193.8150  173.6880  140.6620 C   0  0  0  0  0  0  0  0  0  0  0  0
  194.0740  172.7510  139.6190 N   0  0  0  0  0  0  0  0  0  0  0  0
  193.0950  172.1920  138.6970 C   0  0  0  0  0  1  0  0  0  0  0  0
  195.9990  173.0010  140.7760 C   0  0  0  0  0  0  0  0  0  0  0  0
  197.1900  172.7950  141.1280 O   0  0  0  0  0  0  0  0  0  0  0  0
  195.3950  172.3100  139.6920 N   0  0  0  0  0  2  0  0  0  0  0  0
  192.5910  174.0110  141.0640 C   0  0  0  0  0  2  0  0  0  0  0  0
  195.0560  173.9470  141.4720 C   0  0  1  0  0  3  0  0  0  0  0  0
  196.6930  173.8570  144.4030 C   0  0  0  0  0  2  0  0  0  0  0  0
  196.9360  173.0050  145.5530 N   0  0  0  0  0  2  0  0  0  0  0  0
  196.9520  171.6330  145.0740 C   0  0  0  0  0  2  0  0  0  0  0  0
  196.0540  170.7690  145.9400 C   0  0  0  0  0  2  0  0  0  0  0  0
  194.6000  171.1770  145.7760 C   0  0  0  0  0  2  0  0  0  0  0  0
  194.1130  170.7630  144.5280 O   0  0  0  0  0  0  0  0  0  0  0  0
  193.3930  171.8620  144.0530 C   0  0  0  0  0  2  0  0  0  0  0  0
  191.6560  170.5120  142.8870 O   0  0  0  0  0  0  0  0  0  0  0  0
  191.0610  172.0120  144.5150 O   0  0  0  0  0  1  0  0  0  0  0  0
  191.9750  171.4760  143.8320 C   0  0  0  0  0  0  0  0  0  0  0  0
  190.0870  176.3970  144.4940 C   0  0  1  0  0  3  0  0  0  0  0  0
  187.9400  177.3670  145.3430 C   0  0  2  0  0  3  0  0  0  0  0  0
  189.4090  177.1340  145.6460 C   0  0  1  0  0  3  0  0  0  0  0  0
  187.1500  177.1150  146.6180 C   0  0  0  0  0  2  0  0  0  0  0  0
  188.3410  176.2450  146.2660 C   0  0  1  0  0  3  0  0  0  0  0  0
  190.2480  177.2510  143.2310 C   0  0  2  0  0  3  0  0  0  0  0  0
  190.5440  178.5800  143.5540 O   0  0  0  0  0  1  0  0  0  0  0  0
  187.1730  176.4760  141.2360 N   0  0  0  0  0  0  0  0  0  0  0  0
  188.5440  178.1950  141.7520 N   0  0  0  0  0  0  0  0  0  0  0  0
  187.3880  177.7390  141.0720 C   0  0  0  0  0  3  0  0  0  0  0  0
  189.0500  177.1570  142.3310 C   0  0  0  0  0  0  0  0  0  0  0  0
  188.2200  175.9390  142.0910 C   0  0  2  0  0  3  0  0  0  0  0  0
  188.3150  173.5700  141.4690 C   0  0  1  0  0  3  0  0  0  0  0  0
  189.4280  173.8870  142.2580 O   0  0  0  0  0  0  0  0  0  0  0  0
  189.0040  174.8710  141.3450 C   0  0  2  0  0  3  0  0  0  0  0  0
  187.9710  172.5830  139.2130 O   0  0  0  0  0  0  0  0  0  0  0  0
  189.7380  171.9240  140.5110 O   0  0  0  0  0  1  0  0  0  0  0  0
  188.7270  172.6570  140.3740 C   0  0  0  0  0  0  0  0  0  0  0  0
  1  9  2  0  0  0  0
  1  2  1  0  0  0  0
  2 22  1  6  0  0  0
  2  5  1  0  0  0  0
  3  6  1  0  0  0  0
  4  3  1  0  0  0  0
  7  5  2  0  0  0  0
  7  6  1  0  0  0  0
  8  9  1  0  0  0  0
  8  4  2  0  0  0  0
  9  7  1  0  0  0  0
 10  1  1  0  0  0  0
 12 11  1  6  0  0  0
 12 10  1  0  0  0  0
 13 12  1  0  0  0  0
 14 20  2  0  0  0  0
 14 21  1  0  0  0  0
 15 19  1  0  0  0  0
 15 14  1  0  0  0  0
 16 15  1  0  0  0  0
 17 18  2  0  0  0  0
 17 21  1  0  0  0  0
 19 17  1  0  0  0  0
 21 12  1  6  0  0  0
 22 23  1  0  0  0  0
 24 23  1  0  0  0  0
 24 25  1  0  0  0  0
 26 25  1  0  0  0  0
 27 26  1  0  0  0  0
 28 27  1  0  0  0  0
 29 31  2  0  0  0  0
 31 28  1  0  0  0  0
 31 30  1  0  0  0  0
 32 37  1  6  0  0  0
 32  4  1  0  0  0  0
 33 34  1  0  0  0  0
 33 36  1  0  0  0  0
 33 35  1  1  0  0  0
 34 32  1  6  0  0  0
 34 36  1  0  0  0  0
 36 35  1  1  0  0  0
 37 38  1  1  0  0  0
 40 42  2  0  0  0  0
 41 39  2  0  0  0  0
 41 40  1  0  0  0  0
 42 37  1  0  0  0  0
 43 39  1  6  0  0  0
 43 42  1  0  0  0  0
 44 49  1  6  0  0  0
 44 45  1  0  0  0  0
 46 44  1  0  0  0  0
 46 43  1  0  0  0  0
 46 45  1  1  0  0  0
 47 49  2  0  0  0  0
 49 48  1  0  0  0  0
M  END
>  <MODEL>
4

>  <REMARK>
 VINA RESULT:      -6.4      2.492      7.803
  Name = 
  17 active torsions:
  status: ('A' for Active; 'I' for Inactive)
    1  A    between atoms: C_1  and  C_10
    2  A    between atoms: C_1  and  N_39
    3  A    between atoms: C_4  and  N_7
    4  A    between atoms: N_7  and  C_30
    5  A    between atoms: C_8  and  C_27
    6  A    between atoms: C_10  and  C_25
    7  A    between atoms: C_14  and  C_45
    8  A    between atoms: C_15  and  C_45
    9  A    between atoms: C_19  and  C_44
   10  A    between atoms: C_19  and  C_45
   11  A    between atoms: O_21  and  C_25
   12  A    between atoms: O_21  and  C_43
   13  A    between atoms: C_27  and  N_39
   14  A    between atoms: C_29  and  C_32
   15  A    between atoms: C_30  and  C_49
   16  A    between atoms: C_38  and  C_43
   17  A    between atoms: C_42  and  C_48
                            x       y       z     vdW  Elec       q    Type
                         _______ _______ _______ _____ _____    ______ ____

>  <TORSDO>
F 17

$$$$
=
 OpenBabel11042417123D

 49 55  0  0  1  0  0  0  0  0999 V2000
  192.1400  172.5280  141.7170 C   0  0  0  0  0  0  0  0  0  0  0  0
  191.9480  171.1550  141.1340 C   0  0  1  0  0  3  0  0  0  0  0  0
  188.2150  173.7890  142.1130 C   0  0  0  0  0  2  0  0  0  0  0  0
  189.3030  174.5730  142.8390 C   0  0  0  0  0  0  0  0  0  0  0  0
  190.4880  171.0030  141.1210 N   0  0  0  0  0  0  0  0  0  0  0  0
  188.5280  172.2890  141.9220 C   0  0  0  0  0  2  0  0  0  0  0  0
  189.9650  172.0990  141.5600 C   0  0  0  0  0  0  0  0  0  0  0  0
  190.6020  174.2570  142.7020 C   0  0  0  0  0  3  0  0  0  0  0  0
  190.9580  173.0520  141.9540 C   0  0  0  0  0  0  0  0  0  0  0  0
  193.3660  173.0970  142.1920 N   0  0  0  0  0  2  0  0  0  0  0  0
  195.0820  171.5430  142.9180 C   0  0  0  0  0  1  0  0  0  0  0  0
  194.1260  172.6440  143.3540 C   0  0  2  0  0  0  0  0  0  0  0  0
  193.2520  172.1410  144.3270 O   0  0  0  0  0  1  0  0  0  0  0  0
  195.8020  174.4780  142.8780 C   0  0  0  0  0  0  0  0  0  0  0  0
  195.4110  175.8290  142.6480 N   0  0  0  0  0  0  0  0  0  0  0  0
  196.0810  176.7870  141.7780 C   0  0  0  0  0  1  0  0  0  0  0  0
  194.0570  175.0170  144.2640 C   0  0  0  0  0  0  0  0  0  0  0  0
  193.1720  175.0120  145.1590 O   0  0  0  0  0  0  0  0  0  0  0  0
  194.3630  176.1740  143.5010 N   0  0  0  0  0  2  0  0  0  0  0  0
  196.9690  173.9800  142.4840 C   0  0  0  0  0  2  0  0  0  0  0  0
  194.9290  173.8370  143.9210 C   0  0  1  0  0  3  0  0  0  0  0  0
  192.4910  171.0840  139.7160 C   0  0  0  0  0  2  0  0  0  0  0  0
  192.0470  169.8520  139.0880 N   0  0  0  0  0  2  0  0  0  0  0  0
  191.9260  170.1150  137.6640 C   0  0  0  0  0  2  0  0  0  0  0  0
  190.5820  169.6240  137.1570 C   0  0  0  0  0  2  0  0  0  0  0  0
  189.6980  170.7950  136.7650 C   0  0  0  0  0  2  0  0  0  0  0  0
  190.4750  171.9310  136.5020 O   0  0  0  0  0  0  0  0  0  0  0  0
  189.5710  172.9940  136.5580 C   0  0  0  0  0  2  0  0  0  0  0  0
  188.1950  173.5570  138.5560 O   0  0  0  0  0  0  0  0  0  0  0  0
  190.4750  173.7920  138.6120 O   0  0  0  0  0  1  0  0  0  0  0  0
  189.4450  173.4750  137.9580 C   0  0  0  0  0  0  0  0  0  0  0  0
  188.9500  175.7580  143.6810 C   0  0  1  0  0  3  0  0  0  0  0  0
  188.7710  175.8260  146.1770 C   0  0  2  0  0  3  0  0  0  0  0  0
  189.7230  175.7650  144.9970 C   0  0  1  0  0  3  0  0  0  0  0  0
  189.2960  174.8900  147.2550 C   0  0  0  0  0  2  0  0  0  0  0  0
  189.3950  174.5100  145.7900 C   0  0  1  0  0  3  0  0  0  0  0  0
  189.1000  177.0540  142.8750 C   0  0  2  0  0  3  0  0  0  0  0  0
  189.7140  178.0550  143.6370 O   0  0  0  0  0  1  0  0  0  0  0  0
  185.8460  178.6310  141.8940 N   0  0  0  0  0  0  0  0  0  0  0  0
  187.3870  177.1640  141.1330 N   0  0  0  0  0  0  0  0  0  0  0  0
  186.1740  177.8620  140.9090 C   0  0  0  0  0  3  0  0  0  0  0  0
  187.7900  177.5190  142.3080 C   0  0  0  0  0  0  0  0  0  0  0  0
  186.8660  178.5170  142.9240 C   0  0  2  0  0  3  0  0  0  0  0  0
  185.9230  179.1120  145.1060 C   0  0  1  0  0  3  0  0  0  0  0  0
  187.0730  178.3370  145.2950 O   0  0  0  0  0  0  0  0  0  0  0  0
  186.2500  177.9860  144.2090 C   0  0  2  0  0  3  0  0  0  0  0  0
  185.2590  178.3410  147.3750 O   0  0  0  0  0  1  0  0  0  0  0  0
  183.6770  178.6700  145.7520 O   0  0  0  0  0  0  0  0  0  0  0  0
  184.8870  178.7100  146.0900 C   0  0  0  0  0  0  0  0  0  0  0  0
  1  9  2  0  0  0  0
  1 10  1  0  0  0  0
  2 22  1  6  0  0  0
  2  1  1  0  0  0  0
  3  4  1  0  0  0  0
  4 32  1  0  0  0  0
  5  2  1  0  0  0  0
  5  7  2  0  0  0  0
  6  3  1  0  0  0  0
  7  6  1  0  0  0  0
  7  9  1  0  0  0  0
  8  4  2  0  0  0  0
  9  8  1  0  0  0  0
 10 12  1  0  0  0  0
 12 11  1  6  0  0  0
 12 13  1  0  0  0  0
 14 21  1  0  0  0  0
 15 14  1  0  0  0  0
 15 19  1  0  0  0  0
 16 15  1  0  0  0  0
 17 18  2  0  0  0  0
 19 17  1  0  0  0  0
 20 14  2  0  0  0  0
 21 12  1  6  0  0  0
 21 17  1  0  0  0  0
 23 22  1  0  0  0  0
 24 23  1  0  0  0  0
 25 24  1  0  0  0  0
 26 25  1  0  0  0  0
 27 28  1  0  0  0  0
 27 26  1  0  0  0  0
 28 31  1  0  0  0  0
 31 29  2  0  0  0  0
 31 30  1  0  0  0  0
 32 37  1  6  0  0  0
 33 35  1  1  0  0  0
 34 32  1  6  0  0  0
 34 36  1  0  0  0  0
 34 33  1  0  0  0  0
 36 33  1  0  0  0  0
 36 35  1  1  0  0  0
 37 38  1  1  0  0  0
 40 42  2  0  0  0  0
 41 40  1  0  0  0  0
 41 39  2  0  0  0  0
 42 37  1  0  0  0  0
 42 43  1  0  0  0  0
 43 39  1  6  0  0  0
 43 46  1  0  0  0  0
 44 45  1  0  0  0  0
 44 49  1  1  0  0  0
 46 44  1  0  0  0  0
 46 45  1  1  0  0  0
 48 49  2  0  0  0  0
 49 47  1  0  0  0  0
M  END
>  <MODEL>
5

>  <REMARK>
 VINA RESULT:      -6.3      2.517      7.994
  Name = 
  17 active torsions:
  status: ('A' for Active; 'I' for Inactive)
    1  A    between atoms: C_1  and  C_10
    2  A    between atoms: C_1  and  N_39
    3  A    between atoms: C_4  and  N_7
    4  A    between atoms: N_7  and  C_30
    5  A    between atoms: C_8  and  C_27
    6  A    between atoms: C_10  and  C_25
    7  A    between atoms: C_14  and  C_45
    8  A    between atoms: C_15  and  C_45
    9  A    between atoms: C_19  and  C_44
   10  A    between atoms: C_19  and  C_45
   11  A    between atoms: O_21  and  C_25
   12  A    between atoms: O_21  and  C_43
   13  A    between atoms: C_27  and  N_39
   14  A    between atoms: C_29  and  C_32
   15  A    between atoms: C_30  and  C_49
   16  A    between atoms: C_38  and  C_43
   17  A    between atoms: C_42  and  C_48
                            x       y       z     vdW  Elec       q    Type
                         _______ _______ _______ _____ _____    ______ ____

>  <TORSDO>
F 17

$$$$
=
 OpenBabel11042417123D

 49 55  0  0  1  0  0  0  0  0999 V2000
  189.0680  176.3190  142.3960 C   0  0  0  0  0  0  0  0  0  0  0  0
  187.8590  176.9290  141.7420 C   0  0  1  0  0  3  0  0  0  0  0  0
  189.4510  172.7980  140.2500 C   0  0  0  0  0  2  0  0  0  0  0  0
  190.6230  173.2470  141.1160 C   0  0  0  0  0  0  0  0  0  0  0  0
  187.5560  175.9840  140.6600 N   0  0  0  0  0  0  0  0  0  0  0  0
  188.5890  173.9510  139.6920 C   0  0  0  0  0  2  0  0  0  0  0  0
  188.3980  175.0080  140.7310 C   0  0  0  0  0  0  0  0  0  0  0  0
  190.5410  174.3450  141.8870 C   0  0  0  0  0  3  0  0  0  0  0  0
  189.3550  175.1940  141.7790 C   0  0  0  0  0  0  0  0  0  0  0  0
  189.9380  176.9430  143.3470 N   0  0  0  0  0  2  0  0  0  0  0  0
  188.6800  175.9490  145.1680 C   0  0  0  0  0  1  0  0  0  0  0  0
  189.9490  176.6970  144.7870 C   0  0  2  0  0  0  0  0  0  0  0  0
  189.9950  177.9150  145.4770 O   0  0  0  0  0  1  0  0  0  0  0  0
  192.4670  176.4760  144.6810 C   0  0  0  0  0  0  0  0  0  0  0  0
  193.3080  176.7800  145.7920 N   0  0  0  0  0  0  0  0  0  0  0  0
  194.6600  177.3170  145.7310 C   0  0  0  0  0  1  0  0  0  0  0  0
  191.4560  175.7820  146.6180 C   0  0  0  0  0  0  0  0  0  0  0  0
  190.6850  175.2610  147.4650 O   0  0  0  0  0  0  0  0  0  0  0  0
  192.7110  176.3430  146.9740 N   0  0  0  0  0  2  0  0  0  0  0  0
  192.9000  176.4470  143.4260 C   0  0  0  0  0  2  0  0  0  0  0  0
  191.1850  175.8360  145.1370 C   0  0  1  0  0  3  0  0  0  0  0  0
  186.6910  177.0010  142.7120 C   0  0  0  0  0  2  0  0  0  0  0  0
  185.5060  177.4640  142.0120 N   0  0  0  0  0  2  0  0  0  0  0  0
  184.7260  178.2430  142.9580 C   0  0  0  0  0  2  0  0  0  0  0  0
  185.5850  179.3350  143.5670 C   0  0  0  0  0  2  0  0  0  0  0  0
  185.0040  179.7960  144.8930 C   0  0  0  0  0  2  0  0  0  0  0  0
  185.8350  179.4090  145.9530 O   0  0  0  0  0  0  0  0  0  0  0  0
  185.0120  178.6420  146.7800 C   0  0  0  0  0  2  0  0  0  0  0  0
  186.3460  176.8380  147.8620 O   0  0  0  0  0  1  0  0  0  0  0  0
  185.1640  176.4170  145.9430 O   0  0  0  0  0  0  0  0  0  0  0  0
  185.5110  177.2430  146.8290 C   0  0  0  0  0  0  0  0  0  0  0  0
  191.8790  172.4370  141.1730 C   0  0  1  0  0  3  0  0  0  0  0  0
  192.9970  170.9760  142.8710 C   0  0  2  0  0  3  0  0  0  0  0  0
  191.7240  171.2200  142.0820 C   0  0  1  0  0  3  0  0  0  0  0  0
  192.6060  170.5900  144.2890 C   0  0  0  0  0  2  0  0  0  0  0  0
  191.8270  171.6510  143.5370 C   0  0  1  0  0  3  0  0  0  0  0  0
  192.3590  172.0890  139.7600 C   0  0  2  0  0  3  0  0  0  0  0  0
  193.2820  171.0360  139.7840 O   0  0  0  0  0  1  0  0  0  0  0  0
  194.2630  174.9130  138.1980 N   0  0  0  0  0  0  0  0  0  0  0  0
  192.2540  173.8840  138.1020 N   0  0  0  0  0  0  0  0  0  0  0  0
  193.1160  174.8940  137.6050 C   0  0  0  0  0  3  0  0  0  0  0  0
  192.9100  173.2870  139.0420 C   0  0  0  0  0  0  0  0  0  0  0  0
  194.2800  173.8570  139.1980 C   0  0  2  0  0  3  0  0  0  0  0  0
  195.9230  174.5660  140.8740 C   0  0  1  0  0  3  0  0  0  0  0  0
  195.1480  173.5220  141.3960 O   0  0  0  0  0  0  0  0  0  0  0  0
  194.4790  174.4550  140.5820 C   0  0  2  0  0  3  0  0  0  0  0  0
  196.2710  175.1870  143.2550 O   0  0  0  0  0  1  0  0  0  0  0  0
  196.2380  176.7980  141.6290 O   0  0  0  0  0  0  0  0  0  0  0  0
  196.1640  175.5800  141.9290 C   0  0  0  0  0  0  0  0  0  0  0  0
  1 10  1  0  0  0  0
  2  1  1  0  0  0  0
  2 22  1  1  0  0  0
  3  4  1  0  0  0  0
  4 32  1  0  0  0  0
  4  8  2  0  0  0  0
  5  7  2  0  0  0  0
  5  2  1  0  0  0  0
  6  3  1  0  0  0  0
  6  7  1  0  0  0  0
  7  9  1  0  0  0  0
  9  8  1  0  0  0  0
  9  1  2  0  0  0  0
 10 12  1  0  0  0  0
 12 11  1  1  0  0  0
 12 13  1  0  0  0  0
 14 21  1  0  0  0  0
 14 15  1  0  0  0  0
 15 19  1  0  0  0  0
 16 15  1  0  0  0  0
 17 19  1  0  0  0  0
 17 18  2  0  0  0  0
 20 14  2  0  0  0  0
 21 12  1  1  0  0  0
 21 17  1  0  0  0  0
 23 22  1  0  0  0  0
 23 24  1  0  0  0  0
 24 25  1  0  0  0  0
 25 26  1  0  0  0  0
 26 27  1  0  0  0  0
 27 28  1  0  0  0  0
 28 31  1  0  0  0  0
 30 31  2  0  0  0  0
 31 29  1  0  0  0  0
 32 37  1  6  0  0  0
 33 36  1  0  0  0  0
 33 35  1  1  0  0  0
 34 32  1  6  0  0  0
 34 33  1  0  0  0  0
 34 36  1  0  0  0  0
 36 35  1  1  0  0  0
 37 38  1  1  0  0  0
 40 42  2  0  0  0  0
 41 40  1  0  0  0  0
 41 39  2  0  0  0  0
 42 43  1  0  0  0  0
 42 37  1  0  0  0  0
 43 39  1  6  0  0  0
 43 46  1  0  0  0  0
 44 45  1  0  0  0  0
 44 49  1  1  0  0  0
 46 44  1  0  0  0  0
 46 45  1  1  0  0  0
 48 49  2  0  0  0  0
 49 47  1  0  0  0  0
M  END
>  <MODEL>
6

>  <REMARK>
 VINA RESULT:      -6.3      2.156      3.055
  Name = 
  17 active torsions:
  status: ('A' for Active; 'I' for Inactive)
    1  A    between atoms: C_1  and  C_10
    2  A    between atoms: C_1  and  N_39
    3  A    between atoms: C_4  and  N_7
    4  A    between atoms: N_7  and  C_30
    5  A    between atoms: C_8  and  C_27
    6  A    between atoms: C_10  and  C_25
    7  A    between atoms: C_14  and  C_45
    8  A    between atoms: C_15  and  C_45
    9  A    between atoms: C_19  and  C_44
   10  A    between atoms: C_19  and  C_45
   11  A    between atoms: O_21  and  C_25
   12  A    between atoms: O_21  and  C_43
   13  A    between atoms: C_27  and  N_39
   14  A    between atoms: C_29  and  C_32
   15  A    between atoms: C_30  and  C_49
   16  A    between atoms: C_38  and  C_43
   17  A    between atoms: C_42  and  C_48
                            x       y       z     vdW  Elec       q    Type
                         _______ _______ _______ _____ _____    ______ ____

>  <TORSDO>
F 17

$$$$
=
 OpenBabel11042417123D

 49 55  0  0  1  0  0  0  0  0999 V2000
  195.3220  174.8300  142.8230 C   0  0  0  0  0  0  0  0  0  0  0  0
  196.6650  174.8300  143.4970 C   0  0  1  0  0  3  0  0  0  0  0  0
  192.8330  175.7850  145.9930 C   0  0  0  0  0  2  0  0  0  0  0  0
  192.2710  175.8820  144.5790 C   0  0  0  0  0  0  0  0  0  0  0  0
  196.3490  175.2550  144.8670 N   0  0  0  0  0  0  0  0  0  0  0  0
  194.3510  176.0480  146.0980 C   0  0  0  0  0  2  0  0  0  0  0  0
  195.0700  175.4100  144.9540 C   0  0  0  0  0  0  0  0  0  0  0  0
  193.0040  175.5260  143.5100 C   0  0  0  0  0  3  0  0  0  0  0  0
  194.4100  175.1740  143.7060 C   0  0  0  0  0  0  0  0  0  0  0  0
  195.0640  174.7390  141.4170 N   0  0  0  0  0  2  0  0  0  0  0  0
  193.0430  174.0330  140.2750 C   0  0  0  0  0  1  0  0  0  0  0  0
  194.4320  173.6130  140.7340 C   0  0  2  0  0  0  0  0  0  0  0  0
  194.3220  172.5260  141.6110 O   0  0  0  0  0  1  0  0  0  0  0  0
  195.7270  174.4320  138.7210 C   0  0  0  0  0  0  0  0  0  0  0  0
  197.1480  174.5550  138.7250 N   0  0  0  0  0  0  0  0  0  0  0  0
  197.9310  175.5420  137.9950 C   0  0  0  0  0  1  0  0  0  0  0  0
  196.6440  172.6860  139.8910 C   0  0  0  0  0  0  0  0  0  0  0  0
  196.8300  171.6170  140.5280 O   0  0  0  0  0  0  0  0  0  0  0  0
  197.7170  173.4870  139.4170 N   0  0  0  0  0  2  0  0  0  0  0  0
  194.9420  175.0810  137.8680 C   0  0  0  0  0  2  0  0  0  0  0  0
  195.2910  173.2270  139.5080 C   0  0  1  0  0  3  0  0  0  0  0  0
  197.2680  173.4340  143.5120 C   0  0  0  0  0  2  0  0  0  0  0  0
  197.5080  173.0240  144.8850 N   0  0  0  0  0  2  0  0  0  0  0  0
  196.9930  171.6730  145.0250 C   0  0  0  0  0  2  0  0  0  0  0  0
  195.5220  171.7130  145.3980 C   0  0  0  0  0  2  0  0  0  0  0  0
  194.8900  170.3420  145.2260 C   0  0  0  0  0  2  0  0  0  0  0  0
  193.4930  170.4460  145.2020 O   0  0  0  0  0  0  0  0  0  0  0  0
  193.2480  171.7720  144.8350 C   0  0  0  0  0  2  0  0  0  0  0  0
  190.9600  172.7560  144.8620 O   0  0  0  0  0  1  0  0  0  0  0  0
  191.5470  171.2260  143.2590 O   0  0  0  0  0  0  0  0  0  0  0  0
  191.8760  171.8930  144.2760 C   0  0  0  0  0  0  0  0  0  0  0  0
  190.8600  176.3230  144.3520 C   0  0  1  0  0  3  0  0  0  0  0  0
  188.7390  177.0150  145.4880 C   0  0  2  0  0  3  0  0  0  0  0  0
  190.2490  176.9290  145.6130 C   0  0  1  0  0  3  0  0  0  0  0  0
  188.1320  176.6210  146.8250 C   0  0  0  0  0  2  0  0  0  0  0  0
  189.3570  175.9020  146.2940 C   0  0  1  0  0  3  0  0  0  0  0  0
  190.7750  177.2410  143.1270 C   0  0  2  0  0  3  0  0  0  0  0  0
  191.0900  178.5630  143.4630 O   0  0  0  0  0  1  0  0  0  0  0  0
  187.4240  176.4510  141.6480 N   0  0  0  0  0  0  0  0  0  0  0  0
  188.7960  178.1990  142.0560 N   0  0  0  0  0  0  0  0  0  0  0  0
  187.5550  177.7330  141.5550 C   0  0  0  0  0  3  0  0  0  0  0  0
  189.4390  177.1490  142.4480 C   0  0  0  0  0  0  0  0  0  0  0  0
  188.6290  175.9100  142.2570 C   0  0  2  0  0  3  0  0  0  0  0  0
  188.8910  173.5620  141.6060 C   0  0  1  0  0  3  0  0  0  0  0  0
  190.1260  174.0650  142.0310 O   0  0  0  0  0  0  0  0  0  0  0  0
  189.3080  174.9450  141.2980 C   0  0  2  0  0  3  0  0  0  0  0  0
  188.1990  172.7330  139.3660 O   0  0  0  0  0  0  0  0  0  0  0  0
  190.0480  171.8680  140.4030 O   0  0  0  0  0  1  0  0  0  0  0  0
  189.0920  172.6830  140.4270 C   0  0  0  0  0  0  0  0  0  0  0  0
  1  2  1  0  0  0  0
  1  9  2  0  0  0  0
  2 22  1  1  0  0  0
  2  5  1  0  0  0  0
  3  6  1  0  0  0  0
  4  3  1  0  0  0  0
  5  7  2  0  0  0  0
  7  6  1  0  0  0  0
  8  9  1  0  0  0  0
  8  4  2  0  0  0  0
  9  7  1  0  0  0  0
 10  1  1  0  0  0  0
 12 11  1  6  0  0  0
 12 10  1  0  0  0  0
 12 13  1  0  0  0  0
 14 15  1  0  0  0  0
 14 21  1  0  0  0  0
 15 19  1  0  0  0  0
 16 15  1  0  0  0  0
 17 18  2  0  0  0  0
 19 17  1  0  0  0  0
 20 14  2  0  0  0  0
 21 17  1  0  0  0  0
 21 12  1  1  0  0  0
 22 23  1  0  0  0  0
 23 24  1  0  0  0  0
 24 25  1  0  0  0  0
 26 25  1  0  0  0  0
 27 26  1  0  0  0  0
 28 27  1  0  0  0  0
 30 31  2  0  0  0  0
 31 28  1  0  0  0  0
 31 29  1  0  0  0  0
 32 37  1  6  0  0  0
 32  4  1  0  0  0  0
 33 34  1  0  0  0  0
 33 36  1  0  0  0  0
 33 35  1  1  0  0  0
 34 32  1  6  0  0  0
 34 36  1  0  0  0  0
 36 35  1  1  0  0  0
 37 38  1  1  0  0  0
 40 42  2  0  0  0  0
 41 39  2  0  0  0  0
 41 40  1  0  0  0  0
 42 37  1  0  0  0  0
 43 39  1  6  0  0  0
 43 42  1  0  0  0  0
 44 49  1  6  0  0  0
 44 45  1  0  0  0  0
 46 44  1  0  0  0  0
 46 45  1  1  0  0  0
 46 43  1  0  0  0  0
 47 49  2  0  0  0  0
 48 49  1  0  0  0  0
M  END
>  <MODEL>
7

>  <REMARK>
 VINA RESULT:      -6.2      2.959      7.942
  Name = 
  17 active torsions:
  status: ('A' for Active; 'I' for Inactive)
    1  A    between atoms: C_1  and  C_10
    2  A    between atoms: C_1  and  N_39
    3  A    between atoms: C_4  and  N_7
    4  A    between atoms: N_7  and  C_30
    5  A    between atoms: C_8  and  C_27
    6  A    between atoms: C_10  and  C_25
    7  A    between atoms: C_14  and  C_45
    8  A    between atoms: C_15  and  C_45
    9  A    between atoms: C_19  and  C_44
   10  A    between atoms: C_19  and  C_45
   11  A    between atoms: O_21  and  C_25
   12  A    between atoms: O_21  and  C_43
   13  A    between atoms: C_27  and  N_39
   14  A    between atoms: C_29  and  C_32
   15  A    between atoms: C_30  and  C_49
   16  A    between atoms: C_38  and  C_43
   17  A    between atoms: C_42  and  C_48
                            x       y       z     vdW  Elec       q    Type
                         _______ _______ _______ _____ _____    ______ ____

>  <TORSDO>
F 17

$$$$
=
 OpenBabel11042417123D

 49 55  0  0  1  0  0  0  0  0999 V2000
  193.0750  172.4660  142.9170 C   0  0  0  0  0  0  0  0  0  0  0  0
  193.1040  171.0530  142.4050 C   0  0  1  0  0  3  0  0  0  0  0  0
  189.0680  173.4040  142.4490 C   0  0  0  0  0  2  0  0  0  0  0  0
  189.9270  174.3180  143.3170 C   0  0  0  0  0  0  0  0  0  0  0  0
  191.6910  170.7740  142.1180 N   0  0  0  0  0  0  0  0  0  0  0  0
  189.5220  171.9290  142.4280 C   0  0  0  0  0  2  0  0  0  0  0  0
  191.0130  171.8430  142.3680 C   0  0  0  0  0  0  0  0  0  0  0  0
  191.2470  174.1070  143.4590 C   0  0  0  0  0  3  0  0  0  0  0  0
  191.8330  172.8980  142.8810 C   0  0  0  0  0  0  0  0  0  0  0  0
  194.1350  173.1640  143.5810 N   0  0  0  0  0  2  0  0  0  0  0  0
  195.5350  171.7660  144.9840 C   0  0  0  0  0  1  0  0  0  0  0  0
  194.5730  172.9450  144.9570 C   0  0  2  0  0  0  0  0  0  0  0  0
  193.4680  172.6600  145.7680 O   0  0  0  0  0  1  0  0  0  0  0  0
  196.3240  174.7080  144.4800 C   0  0  0  0  0  0  0  0  0  0  0  0
  195.9870  176.0070  143.9980 N   0  0  0  0  0  0  0  0  0  0  0  0
  196.7930  176.8350  143.1110 C   0  0  0  0  0  1  0  0  0  0  0  0
  194.3930  175.4240  145.4890 C   0  0  0  0  0  0  0  0  0  0  0  0
  193.3820  175.5400  146.2290 O   0  0  0  0  0  0  0  0  0  0  0  0
  194.8250  176.4610  144.6210 N   0  0  0  0  0  2  0  0  0  0  0  0
  197.5310  174.1710  144.3470 C   0  0  0  0  0  2  0  0  0  0  0  0
  195.2940  174.2160  145.4600 C   0  0  1  0  0  3  0  0  0  0  0  0
  193.9240  170.9510  141.1290 C   0  0  0  0  0  2  0  0  0  0  0  0
  194.9670  169.9550  141.3010 N   0  0  0  0  0  2  0  0  0  0  0  0
  196.2070  170.6710  141.5520 C   0  0  0  0  0  2  0  0  0  0  0  0
  196.2970  171.8870  140.6480 C   0  0  0  0  0  2  0  0  0  0  0  0
  197.5090  171.7870  139.7370 C   0  0  0  0  0  2  0  0  0  0  0  0
  197.4690  172.7870  138.7560 O   0  0  0  0  0  0  0  0  0  0  0  0
  197.9410  173.9310  139.4040 C   0  0  0  0  0  2  0  0  0  0  0  0
  197.4340  175.6700  137.6950 O   0  0  0  0  0  0  0  0  0  0  0  0
  196.2860  175.6220  139.6780 O   0  0  0  0  0  1  0  0  0  0  0  0
  197.1780  175.1200  138.9440 C   0  0  0  0  0  0  0  0  0  0  0  0
  189.3270  175.5120  143.9870 C   0  0  1  0  0  3  0  0  0  0  0  0
  188.6870  175.7070  146.4000 C   0  0  2  0  0  3  0  0  0  0  0  0
  189.8410  175.6750  145.4150 C   0  0  1  0  0  3  0  0  0  0  0  0
  189.0870  174.8950  147.6220 C   0  0  0  0  0  2  0  0  0  0  0  0
  189.4860  174.4410  146.2310 C   0  0  1  0  0  3  0  0  0  0  0  0
  189.5120  176.7640  143.1230 C   0  0  2  0  0  3  0  0  0  0  0  0
  190.0200  177.8290  143.8760 O   0  0  0  0  0  1  0  0  0  0  0  0
  186.3160  178.1630  141.7550 N   0  0  0  0  0  0  0  0  0  0  0  0
  187.9690  176.7160  141.2260 N   0  0  0  0  0  0  0  0  0  0  0  0
  186.7610  177.3550  140.8500 C   0  0  0  0  0  3  0  0  0  0  0  0
  188.2470  177.1480  142.4110 C   0  0  0  0  0  0  0  0  0  0  0  0
  187.2370  178.1430  142.8800 C   0  0  2  0  0  3  0  0  0  0  0  0
  185.8650  178.8000  144.8020 C   0  0  1  0  0  3  0  0  0  0  0  0
  187.0840  178.2840  145.2580 O   0  0  0  0  0  0  0  0  0  0  0  0
  186.5190  177.6590  144.1310 C   0  0  2  0  0  3  0  0  0  0  0  0
  184.9060  177.1410  146.3860 O   0  0  0  0  0  1  0  0  0  0  0  0
  183.6960  178.9810  145.7590 O   0  0  0  0  0  0  0  0  0  0  0  0
  184.7660  178.3270  145.6800 C   0  0  0  0  0  0  0  0  0  0  0  0
  1 10  1  0  0  0  0
  2 22  1  6  0  0  0
  2  1  1  0  0  0  0
  3  4  1  0  0  0  0
  4  8  2  0  0  0  0
  4 32  1  0  0  0  0
  5  7  2  0  0  0  0
  5  2  1  0  0  0  0
  6  3  1  0  0  0  0
  7  6  1  0  0  0  0
  7  9  1  0  0  0  0
  9  1  2  0  0  0  0
  9  8  1  0  0  0  0
 10 12  1  0  0  0  0
 12 11  1  1  0  0  0
 12 13  1  0  0  0  0
 14 21  1  0  0  0  0
 15 14  1  0  0  0  0
 15 19  1  0  0  0  0
 16 15  1  0  0  0  0
 17 18  2  0  0  0  0
 19 17  1  0  0  0  0
 20 14  2  0  0  0  0
 21 12  1  6  0  0  0
 21 17  1  0  0  0  0
 22 23  1  0  0  0  0
 23 24  1  0  0  0  0
 25 24  1  0  0  0  0
 26 25  1  0  0  0  0
 27 28  1  0  0  0  0
 27 26  1  0  0  0  0
 29 31  2  0  0  0  0
 31 28  1  0  0  0  0
 31 30  1  0  0  0  0
 32 37  1  6  0  0  0
 33 35  1  1  0  0  0
 34 32  1  6  0  0  0
 34 36  1  0  0  0  0
 34 33  1  0  0  0  0
 36 33  1  0  0  0  0
 36 35  1  1  0  0  0
 37 38  1  1  0  0  0
 40 42  2  0  0  0  0
 41 40  1  0  0  0  0
 41 39  2  0  0  0  0
 42 43  1  0  0  0  0
 42 37  1  0  0  0  0
 43 39  1  6  0  0  0
 43 46  1  0  0  0  0
 44 45  1  0  0  0  0
 44 49  1  1  0  0  0
 46 44  1  0  0  0  0
 46 45  1  1  0  0  0
 49 48  2  0  0  0  0
 49 47  1  0  0  0  0
M  END
>  <MODEL>
8

>  <REMARK>
 VINA RESULT:      -6.1      2.624      8.576
  Name = 
  17 active torsions:
  status: ('A' for Active; 'I' for Inactive)
    1  A    between atoms: C_1  and  C_10
    2  A    between atoms: C_1  and  N_39
    3  A    between atoms: C_4  and  N_7
    4  A    between atoms: N_7  and  C_30
    5  A    between atoms: C_8  and  C_27
    6  A    between atoms: C_10  and  C_25
    7  A    between atoms: C_14  and  C_45
    8  A    between atoms: C_15  and  C_45
    9  A    between atoms: C_19  and  C_44
   10  A    between atoms: C_19  and  C_45
   11  A    between atoms: O_21  and  C_25
   12  A    between atoms: O_21  and  C_43
   13  A    between atoms: C_27  and  N_39
   14  A    between atoms: C_29  and  C_32
   15  A    between atoms: C_30  and  C_49
   16  A    between atoms: C_38  and  C_43
   17  A    between atoms: C_42  and  C_48
                            x       y       z     vdW  Elec       q    Type
                         _______ _______ _______ _____ _____    ______ ____

>  <TORSDO>
F 17

$$$$
=
 OpenBabel11042417123D

 49 55  0  0  1  0  0  0  0  0999 V2000
  191.8980  173.0370  141.7620 C   0  0  0  0  0  0  0  0  0  0  0  0
  191.4430  172.0880  140.6880 C   0  0  1  0  0  3  0  0  0  0  0  0
  188.3180  174.8430  142.8020 C   0  0  0  0  0  2  0  0  0  0  0  0
  189.5130  175.0190  143.7330 C   0  0  0  0  0  0  0  0  0  0  0  0
  189.9860  172.2690  140.6800 N   0  0  0  0  0  0  0  0  0  0  0  0
  188.3120  173.5160  142.0140 C   0  0  0  0  0  2  0  0  0  0  0  0
  189.6910  173.1830  141.5430 C   0  0  0  0  0  0  0  0  0  0  0  0
  190.7200  174.5140  143.4230 C   0  0  0  0  0  3  0  0  0  0  0  0
  190.8440  173.6630  142.2410 C   0  0  0  0  0  0  0  0  0  0  0  0
  193.1930  173.0930  142.3700 N   0  0  0  0  0  2  0  0  0  0  0  0
  193.7030  175.0640  141.0510 C   0  0  0  0  0  1  0  0  0  0  0  0
  194.2260  174.0880  142.0940 C   0  0  2  0  0  0  0  0  0  0  0  0
  195.3760  173.4550  141.6020 O   0  0  0  0  0  1  0  0  0  0  0  0
  194.8800  173.9120  144.5310 C   0  0  0  0  0  0  0  0  0  0  0  0
  196.2200  174.1050  144.9790 N   0  0  0  0  0  0  0  0  0  0  0  0
  196.8560  173.4470  146.1120 C   0  0  0  0  0  1  0  0  0  0  0  0
  195.8520  175.6030  143.3270 C   0  0  0  0  0  0  0  0  0  0  0  0
  196.0710  176.5700  142.5510 O   0  0  0  0  0  0  0  0  0  0  0  0
  196.8140  175.1470  144.2670 N   0  0  0  0  0  2  0  0  0  0  0  0
  193.9650  173.2530  145.2340 C   0  0  0  0  0  2  0  0  0  0  0  0
  194.5510  174.8470  143.4010 C   0  0  1  0  0  3  0  0  0  0  0  0
  192.0230  172.4740  139.3370 C   0  0  0  0  0  2  0  0  0  0  0  0
  190.9860  172.3960  138.3240 N   0  0  0  0  0  2  0  0  0  0  0  0
  191.5840  171.7950  137.1430 C   0  0  0  0  0  2  0  0  0  0  0  0
  191.1600  172.5570  135.9010 C   0  0  0  0  0  2  0  0  0  0  0  0
  189.6580  172.7790  135.8970 C   0  0  0  0  0  2  0  0  0  0  0  0
  189.3070  173.7410  134.9400 O   0  0  0  0  0  0  0  0  0  0  0  0
  189.5260  174.9640  135.5780 C   0  0  0  0  0  2  0  0  0  0  0  0
  187.9710  176.6130  134.5460 O   0  0  0  0  0  0  0  0  0  0  0  0
  187.4610  175.6360  136.5560 O   0  0  0  0  0  1  0  0  0  0  0  0
  188.2690  175.7550  135.5960 C   0  0  0  0  0  0  0  0  0  0  0  0
  189.3840  175.8150  144.9920 C   0  0  1  0  0  3  0  0  0  0  0  0
  190.5190  176.3480  147.1590 C   0  0  2  0  0  3  0  0  0  0  0  0
  190.7250  175.9650  145.7050 C   0  0  1  0  0  3  0  0  0  0  0  0
  191.5170  175.5650  147.9980 C   0  0  0  0  0  2  0  0  0  0  0  0
  190.8420  174.9200  146.8030 C   0  0  1  0  0  3  0  0  0  0  0  0
  188.6840  177.1500  144.7150 C   0  0  2  0  0  3  0  0  0  0  0  0
  189.5350  178.2310  144.9750 O   0  0  0  0  0  1  0  0  0  0  0  0
  185.2120  177.1820  146.1240 N   0  0  0  0  0  0  0  0  0  0  0  0
  187.3580  177.5400  146.7330 N   0  0  0  0  0  0  0  0  0  0  0  0
  185.9920  177.4850  147.1070 C   0  0  0  0  0  3  0  0  0  0  0  0
  187.3910  177.2750  145.4690 C   0  0  0  0  0  0  0  0  0  0  0  0
  186.0270  176.9900  144.9350 C   0  0  2  0  0  3  0  0  0  0  0  0
  185.3670  177.2890  142.5930 C   0  0  1  0  0  3  0  0  0  0  0  0
  186.5750  177.9590  142.8230 O   0  0  0  0  0  0  0  0  0  0  0  0
  185.6290  177.9940  143.8640 C   0  0  2  0  0  3  0  0  0  0  0  0
  183.1680  178.3010  142.0290 O   0  0  0  0  0  1  0  0  0  0  0  0
  184.9730  178.6060  140.6530 O   0  0  0  0  0  0  0  0  0  0  0  0
  184.5050  178.1110  141.7090 C   0  0  0  0  0  0  0  0  0  0  0  0
  1  9  2  0  0  0  0
  1 10  1  0  0  0  0
  2 22  1  6  0  0  0
  2  1  1  0  0  0  0
  3  4  1  0  0  0  0
  4 32  1  0  0  0  0
  5  2  1  0  0  0  0
  5  7  2  0  0  0  0
  6  3  1  0  0  0  0
  7  6  1  0  0  0  0
  7  9  1  0  0  0  0
  8  4  2  0  0  0  0
  9  8  1  0  0  0  0
 12 11  1  6  0  0  0
 12 10  1  0  0  0  0
 13 12  1  0  0  0  0
 14 15  1  0  0  0  0
 14 20  2  0  0  0  0
 15 16  1  0  0  0  0
 17 21  1  0  0  0  0
 17 19  1  0  0  0  0
 18 17  2  0  0  0  0
 19 15  1  0  0  0  0
 21 12  1  6  0  0  0
 21 14  1  0  0  0  0
 23 22  1  0  0  0  0
 24 23  1  0  0  0  0
 25 24  1  0  0  0  0
 26 25  1  0  0  0  0
 27 28  1  0  0  0  0
 27 26  1  0  0  0  0
 28 31  1  0  0  0  0
 29 31  2  0  0  0  0
 31 30  1  0  0  0  0
 32 37  1  6  0  0  0
 33 35  1  1  0  0  0
 34 32  1  6  0  0  0
 34 36  1  0  0  0  0
 34 33  1  0  0  0  0
 36 33  1  0  0  0  0
 36 35  1  1  0  0  0
 37 38  1  1  0  0  0
 37 42  1  0  0  0  0
 39 41  2  0  0  0  0
 40 41  1  0  0  0  0
 42 40  2  0  0  0  0
 43 42  1  1  0  0  0
 43 39  1  0  0  0  0
 44 49  1  6  0  0  0
 44 45  1  0  0  0  0
 44 46  1  0  0  0  0
 46 45  1  6  0  0  0
 46 43  1  0  0  0  0
 48 49  2  0  0  0  0
 49 47  1  0  0  0  0
M  END
>  <MODEL>
9

>  <REMARK>
 VINA RESULT:      -6.1      2.292      8.189
  Name = 
  17 active torsions:
  status: ('A' for Active; 'I' for Inactive)
    1  A    between atoms: C_1  and  C_10
    2  A    between atoms: C_1  and  N_39
    3  A    between atoms: C_4  and  N_7
    4  A    between atoms: N_7  and  C_30
    5  A    between atoms: C_8  and  C_27
    6  A    between atoms: C_10  and  C_25
    7  A    between atoms: C_14  and  C_45
    8  A    between atoms: C_15  and  C_45
    9  A    between atoms: C_19  and  C_44
   10  A    between atoms: C_19  and  C_45
   11  A    between atoms: O_21  and  C_25
   12  A    between atoms: O_21  and  C_43
   13  A    between atoms: C_27  and  N_39
   14  A    between atoms: C_29  and  C_32
   15  A    between atoms: C_30  and  C_49
   16  A    between atoms: C_38  and  C_43
   17  A    between atoms: C_42  and  C_48
                            x       y       z     vdW  Elec       q    Type
                         _______ _______ _______ _____ _____    ______ ____

>  <TORSDO>
F 17

$$$$
