=
 OpenBabel11042415493D

 50 54  0  0  1  0  0  0  0  0999 V2000
  194.2900  175.2990  142.4100 C   0  0  2  0  0  3  0  0  0  0  0  0
  195.8140  174.0670  140.7320 C   0  0  2  0  0  3  0  0  0  0  0  0
  195.6720  175.4800  143.0320 C   0  0  2  0  0  3  0  0  0  0  0  0
  196.9480  174.6290  142.0400 S   0  0  0  0  0  0  0  0  0  0  0  0
  194.4360  175.2300  140.6030 S   0  0  0  0  0  0  0  0  0  0  0  0
  191.9980  176.3190  142.7330 C   0  0  0  0  0  0  0  0  0  0  0  0
  191.0980  174.9770  142.3380 S   0  0  0  0  0  0  0  0  0  0  0  0
  189.6040  175.6360  142.6520 N   0  0  0  0  0  0  0  0  0  0  0  0
  189.8570  176.9130  143.0570 C   0  0  0  0  0  0  0  0  0  0  0  0
  191.1690  177.3040  143.1360 N   0  0  0  0  0  0  0  0  0  0  0  0
  193.4210  176.4040  142.7930 N   0  0  0  0  0  2  0  0  0  0  0  0
  188.7540  177.8030  143.4980 C   0  0  0  0  0  2  0  0  0  0  0  0
  187.9030  177.0950  144.5440 C   0  0  0  0  0  2  0  0  0  0  0  0
  185.6810  176.4650  143.8640 O   0  0  0  0  0  1  0  0  0  0  0  0
  186.4180  177.4870  144.4720 C   0  0  2  0  0  0  0  0  0  0  0  0
  186.2770  178.7530  143.6280 C   0  0  0  0  0  2  0  0  0  0  0  0
  185.1940  179.5210  144.0610 O   0  0  0  0  0  1  0  0  0  0  0  0
  184.8940  176.7790  146.2130 O   0  0  0  0  0  1  0  0  0  0  0  0
  185.8340  177.7560  145.8710 C   0  0  1  0  0  3  0  0  0  0  0  0
  186.9040  177.8560  146.9510 C   0  0  0  0  0  2  0  0  0  0  0  0
  186.4820  178.8580  148.0050 C   0  0  0  0  0  1  0  0  0  0  0  0
  196.6060  174.2570  144.8800 O   0  0  0  0  0  0  0  0  0  0  0  0
  195.7050  175.0510  144.4840 C   0  0  0  0  0  0  0  0  0  0  0  0
  194.6710  175.4790  145.4470 C   0  0  0  0  0  0  0  0  0  0  0  0
  193.6110  174.7270  145.9190 C   0  0  0  0  0  3  0  0  0  0  0  0
  192.9490  175.5980  146.7640 C   0  0  0  0  0  0  0  0  0  0  0  0
  194.6040  176.7330  146.0300 C   0  0  0  0  0  3  0  0  0  0  0  0
  193.5550  176.7570  146.8170 O   0  0  0  0  0  0  0  0  0  0  0  0
  191.6920  175.2830  147.5040 C   0  0  0  0  0  2  0  0  0  0  0  0
  190.6650  176.4010  147.3810 C   0  0  0  0  0  0  0  0  0  0  0  0
  189.3960  175.8530  147.4780 F   0  0  0  0  0  0  0  0  0  0  0  0
  190.8390  177.3220  148.4000 F   0  0  0  0  0  0  0  0  0  0  0  0
  190.7910  177.0390  146.1590 F   0  0  0  0  0  0  0  0  0  0  0  0
  195.3070  172.6570  141.0120 C   0  0  0  0  0  2  0  0  0  0  0  0
  193.0550  171.8190  141.4460 N   0  0  0  0  0  2  0  0  0  0  0  0
  192.4840  171.6280  138.6240 C   0  0  2  0  0  3  0  0  0  0  0  0
  191.1160  170.6390  141.9460 O   0  0  0  0  0  0  0  0  0  0  0  0
  193.9060  171.6760  139.1800 C   0  0  0  0  0  2  0  0  0  0  0  0
  193.8980  172.4870  140.4650 C   0  0  2  0  0  3  0  0  0  0  0  0
  191.5050  170.9450  139.6050 C   0  0  1  0  0  3  0  0  0  0  0  0
  191.8490  171.1470  141.0590 C   0  0  0  0  0  0  0  0  0  0  0  0
  192.4020  171.8310  136.1380 C   0  0  0  0  0  2  0  0  0  0  0  0
  191.2640  171.1620  136.6160 O   0  0  0  0  0  0  0  0  0  0  0  0
  192.4770  170.8890  137.2840 C   0  0  2  0  0  3  0  0  0  0  0  0
  190.0680  171.3990  139.3560 C   0  0  0  0  0  2  0  0  0  0  0  0
  189.9210  172.9090  139.3820 C   0  0  0  0  0  2  0  0  0  0  0  0
  188.4950  173.3160  139.0380 C   0  0  0  0  0  2  0  0  0  0  0  0
  187.4530  175.0460  137.5550 O   0  0  0  0  0  1  0  0  0  0  0  0
  188.4800  174.1180  137.7820 C   0  0  0  0  0  0  0  0  0  0  0  0
  189.4160  173.9940  136.9500 O   0  0  0  0  0  0  0  0  0  0  0  0
  1 11  1  6  0  0  0
  1  3  1  0  0  0  0
  2 34  1  1  0  0  0
  2  4  1  0  0  0  0
  3 23  1  1  0  0  0
  4  3  1  0  0  0  0
  5  2  1  0  0  0  0
  5  1  1  0  0  0  0
  6 11  1  0  0  0  0
  6 10  2  0  0  0  0
  7  8  1  0  0  0  0
  7  6  1  0  0  0  0
  8  9  2  0  0  0  0
  9 10  1  0  0  0  0
  9 12  1  0  0  0  0
 12 13  1  0  0  0  0
 15 14  1  6  0  0  0
 15 13  1  0  0  0  0
 15 19  1  0  0  0  0
 16 17  1  0  0  0  0
 16 15  1  0  0  0  0
 19 18  1  1  0  0  0
 19 20  1  0  0  0  0
 20 21  1  0  0  0  0
 23 22  2  0  0  0  0
 23 24  1  0  0  0  0
 24 25  1  0  0  0  0
 24 27  2  0  0  0  0
 25 26  2  0  0  0  0
 26 28  1  0  0  0  0
 26 29  1  0  0  0  0
 27 28  1  0  0  0  0
 30 31  1  0  0  0  0
 30 29  1  0  0  0  0
 30 32  1  0  0  0  0
 33 30  1  0  0  0  0
 36 38  1  1  0  0  0
 36 40  1  0  0  0  0
 38 39  1  0  0  0  0
 39 34  1  1  0  0  0
 39 35  1  0  0  0  0
 40 45  1  1  0  0  0
 40 41  1  0  0  0  0
 41 35  1  0  0  0  0
 41 37  2  0  0  0  0
 42 43  1  0  0  0  0
 43 44  1  0  0  0  0
 44 42  1  6  0  0  0
 44 36  1  0  0  0  0
 45 46  1  0  0  0  0
 47 46  1  0  0  0  0
 48 49  1  0  0  0  0
 49 47  1  0  0  0  0
 50 49  2  0  0  0  0
M  END
>  <MODEL>
1

>  <REMARK>
 VINA RESULT:      -6.4      0.000      0.000
  Name = 
  18 active torsions:
  status: ('A' for Active; 'I' for Inactive)
    1  A    between atoms: C_2  and  N_40
    2  A    between atoms: C_3  and  C_25
    3  A    between atoms: C_3  and  C_44
    4  A    between atoms: C_4  and  C_19
    5  A    between atoms: C_4  and  C_35
    6  A    between atoms: C_7  and  C_9
    7  A    between atoms: C_7  and  C_43
    8  A    between atoms: C_10  and  C_17
    9  A    between atoms: C_11  and  C_46
   10  A    between atoms: C_12  and  C_35
   11  A    between atoms: C_13  and  C_37
   12  A    between atoms: C_13  and  C_44
   13  A    between atoms: C_17  and  C_38
   14  A    between atoms: C_18  and  C_44
   15  A    between atoms: C_19  and  C_39
   16  A    between atoms: C_21  and  C_48
   17  A    between atoms: C_24  and  C_48
   18  A    between atoms: C_25  and  C_33
                            x       y       z     vdW  Elec       q    Type
                         _______ _______ _______ _____ _____    ______ ____

>  <TORSDO>
F 18

$$$$
=
 OpenBabel11042415493D

 50 54  0  0  1  0  0  0  0  0999 V2000
  190.5140  172.9540  143.3250 C   0  0  2  0  0  3  0  0  0  0  0  0
  192.1920  171.0930  142.7120 C   0  0  2  0  0  3  0  0  0  0  0  0
  189.6320  171.9530  142.5830 C   0  0  2  0  0  3  0  0  0  0  0  0
  190.6190  170.5370  141.9830 S   0  0  0  0  0  0  0  0  0  0  0  0
  191.8450  172.0760  144.1890 S   0  0  0  0  0  0  0  0  0  0  0  0
  189.3470  175.0710  144.0730 C   0  0  0  0  0  0  0  0  0  0  0  0
  189.6500  175.9840  142.7160 S   0  0  0  0  0  0  0  0  0  0  0  0
  188.7930  177.3300  143.1850 N   0  0  0  0  0  0  0  0  0  0  0  0
  188.2940  177.0230  144.4150 C   0  0  0  0  0  0  0  0  0  0  0  0
  188.5630  175.7740  144.9140 N   0  0  0  0  0  0  0  0  0  0  0  0
  189.7160  173.7080  144.2840 N   0  0  0  0  0  2  0  0  0  0  0  0
  187.4020  177.9690  145.1320 C   0  0  0  0  0  2  0  0  0  0  0  0
  186.6220  178.8090  144.1280 C   0  0  0  0  0  2  0  0  0  0  0  0
  184.4450  179.8110  144.3600 O   0  0  0  0  0  1  0  0  0  0  0  0
  185.1040  178.5850  144.2130 C   0  0  2  0  0  0  0  0  0  0  0  0
  184.7950  177.7210  145.4350 C   0  0  0  0  0  2  0  0  0  0  0  0
  183.9900  178.4120  146.3430 O   0  0  0  0  0  1  0  0  0  0  0  0
  183.3140  178.3930  142.5970 O   0  0  0  0  0  1  0  0  0  0  0  0
  184.5630  177.8790  142.9570 C   0  0  1  0  0  3  0  0  0  0  0  0
  185.5220  177.9550  141.7750 C   0  0  0  0  0  2  0  0  0  0  0  0
  184.7560  178.2650  140.5070 C   0  0  0  0  0  1  0  0  0  0  0  0
  187.6740  173.0320  141.6970 O   0  0  0  0  0  0  0  0  0  0  0  0
  188.8410  172.6040  141.4680 C   0  0  0  0  0  0  0  0  0  0  0  0
  189.3670  172.6960  140.0920 C   0  0  0  0  0  0  0  0  0  0  0  0
  188.8910  172.0390  138.9720 C   0  0  0  0  0  3  0  0  0  0  0  0
  189.7430  172.4560  137.9670 C   0  0  0  0  0  0  0  0  0  0  0  0
  190.4500  173.4700  139.7090 C   0  0  0  0  0  3  0  0  0  0  0  0
  190.6360  173.2970  138.4220 O   0  0  0  0  0  0  0  0  0  0  0  0
  189.6830  171.9950  136.5490 C   0  0  0  0  0  2  0  0  0  0  0  0
  190.3530  170.6400  136.3620 C   0  0  0  0  0  0  0  0  0  0  0  0
  191.6190  170.6880  136.9220 F   0  0  0  0  0  0  0  0  0  0  0  0
  189.6160  169.6530  136.9940 F   0  0  0  0  0  0  0  0  0  0  0  0
  190.4640  170.3400  135.0150 F   0  0  0  0  0  0  0  0  0  0  0  0
  193.0110  171.8960  141.7070 C   0  0  0  0  0  2  0  0  0  0  0  0
  194.2350  174.0030  141.5620 N   0  0  0  0  0  2  0  0  0  0  0  0
  196.0090  173.2250  143.7010 C   0  0  2  0  0  3  0  0  0  0  0  0
  195.5880  175.8270  141.0670 O   0  0  0  0  0  0  0  0  0  0  0  0
  195.1970  172.2170  142.8890 C   0  0  0  0  0  2  0  0  0  0  0  0
  193.9100  172.8840  142.4340 C   0  0  2  0  0  3  0  0  0  0  0  0
  196.3930  174.4630  142.8610 C   0  0  1  0  0  3  0  0  0  0  0  0
  195.3800  174.8310  141.8060 C   0  0  0  0  0  0  0  0  0  0  0  0
  196.9800  171.7170  145.4370 C   0  0  0  0  0  2  0  0  0  0  0  0
  197.5060  173.0130  145.5580 O   0  0  0  0  0  0  0  0  0  0  0  0
  197.2730  172.5540  144.2450 C   0  0  2  0  0  3  0  0  0  0  0  0
  196.6600  175.6750  143.7530 C   0  0  0  0  0  2  0  0  0  0  0  0
  195.3810  176.3480  144.2180 C   0  0  0  0  0  2  0  0  0  0  0  0
  194.9310  175.7800  145.5560 C   0  0  0  0  0  2  0  0  0  0  0  0
  192.8770  174.7970  146.6000 O   0  0  0  0  0  1  0  0  0  0  0  0
  193.5000  175.3710  145.4820 C   0  0  0  0  0  0  0  0  0  0  0  0
  192.8410  175.5840  144.4310 O   0  0  0  0  0  0  0  0  0  0  0  0
  1  5  1  0  0  0  0
  1 11  1  1  0  0  0
  2 34  1  6  0  0  0
  2  5  1  0  0  0  0
  3 23  1  6  0  0  0
  3  1  1  0  0  0  0
  4  3  1  0  0  0  0
  4  2  1  0  0  0  0
  6 11  1  0  0  0  0
  6 10  2  0  0  0  0
  7  8  1  0  0  0  0
  7  6  1  0  0  0  0
  8  9  2  0  0  0  0
  9 10  1  0  0  0  0
  9 12  1  0  0  0  0
 13 15  1  0  0  0  0
 13 12  1  0  0  0  0
 15 14  1  1  0  0  0
 15 16  1  0  0  0  0
 16 17  1  0  0  0  0
 19 18  1  6  0  0  0
 19 15  1  0  0  0  0
 20 19  1  0  0  0  0
 21 20  1  0  0  0  0
 23 22  2  0  0  0  0
 24 23  1  0  0  0  0
 25 24  1  0  0  0  0
 26 28  1  0  0  0  0
 26 25  2  0  0  0  0
 27 24  2  0  0  0  0
 28 27  1  0  0  0  0
 29 26  1  0  0  0  0
 30 29  1  0  0  0  0
 30 31  1  0  0  0  0
 30 32  1  0  0  0  0
 33 30  1  0  0  0  0
 35 41  1  0  0  0  0
 35 39  1  0  0  0  0
 36 38  1  6  0  0  0
 36 44  1  0  0  0  0
 37 41  2  0  0  0  0
 39 34  1  6  0  0  0
 39 38  1  0  0  0  0
 40 36  1  0  0  0  0
 40 45  1  1  0  0  0
 41 40  1  0  0  0  0
 42 43  1  0  0  0  0
 44 42  1  1  0  0  0
 44 43  1  0  0  0  0
 45 46  1  0  0  0  0
 46 47  1  0  0  0  0
 49 47  1  0  0  0  0
 49 48  1  0  0  0  0
 50 49  2  0  0  0  0
M  END
>  <MODEL>
2

>  <REMARK>
 VINA RESULT:      -6.3      3.796      7.405
  Name = 
  18 active torsions:
  status: ('A' for Active; 'I' for Inactive)
    1  A    between atoms: C_2  and  N_40
    2  A    between atoms: C_3  and  C_25
    3  A    between atoms: C_3  and  C_44
    4  A    between atoms: C_4  and  C_19
    5  A    between atoms: C_4  and  C_35
    6  A    between atoms: C_7  and  C_9
    7  A    between atoms: C_7  and  C_43
    8  A    between atoms: C_10  and  C_17
    9  A    between atoms: C_11  and  C_46
   10  A    between atoms: C_12  and  C_35
   11  A    between atoms: C_13  and  C_37
   12  A    between atoms: C_13  and  C_44
   13  A    between atoms: C_17  and  C_38
   14  A    between atoms: C_18  and  C_44
   15  A    between atoms: C_19  and  C_39
   16  A    between atoms: C_21  and  C_48
   17  A    between atoms: C_24  and  C_48
   18  A    between atoms: C_25  and  C_33
                            x       y       z     vdW  Elec       q    Type
                         _______ _______ _______ _____ _____    ______ ____

>  <TORSDO>
F 18

$$$$
=
 OpenBabel11042415493D

 50 54  0  0  1  0  0  0  0  0999 V2000
  190.6860  172.2440  141.4490 C   0  0  2  0  0  3  0  0  0  0  0  0
  192.8670  171.0180  142.0780 C   0  0  2  0  0  3  0  0  0  0  0  0
  190.5680  170.9450  140.6570 C   0  0  2  0  0  3  0  0  0  0  0  0
  192.0500  169.9030  140.8930 S   0  0  0  0  0  0  0  0  0  0  0  0
  191.6070  171.9450  142.9830 S   0  0  0  0  0  0  0  0  0  0  0  0
  189.1400  174.1000  142.2030 C   0  0  0  0  0  0  0  0  0  0  0  0
  190.2830  175.3020  142.3360 S   0  0  0  0  0  0  0  0  0  0  0  0
  189.2360  176.5310  142.7340 N   0  0  0  0  0  0  0  0  0  0  0  0
  188.0020  175.9530  142.7590 C   0  0  0  0  0  0  0  0  0  0  0  0
  187.9200  174.6210  142.4440 N   0  0  0  0  0  0  0  0  0  0  0  0
  189.3590  172.7600  141.7620 N   0  0  0  0  0  2  0  0  0  0  0  0
  186.7870  176.7670  143.0120 C   0  0  0  0  0  2  0  0  0  0  0  0
  187.1210  177.9250  143.9430 C   0  0  0  0  0  2  0  0  0  0  0  0
  185.5070  176.7600  145.2970 O   0  0  0  0  0  1  0  0  0  0  0  0
  186.4220  177.8190  145.3070 C   0  0  2  0  0  0  0  0  0  0  0  0
  185.6580  179.1150  145.5770 C   0  0  0  0  0  2  0  0  0  0  0  0
  185.6000  179.9060  144.4270 O   0  0  0  0  0  1  0  0  0  0  0  0
  187.0610  178.3080  147.5880 O   0  0  0  0  0  1  0  0  0  0  0  0
  187.4310  177.5920  146.4460 C   0  0  1  0  0  3  0  0  0  0  0  0
  187.6180  176.1190  146.7880 C   0  0  0  0  0  2  0  0  0  0  0  0
  188.9760  175.6470  146.3160 C   0  0  0  0  0  1  0  0  0  0  0  0
  189.4930  170.4220  138.5700 O   0  0  0  0  0  0  0  0  0  0  0  0
  190.2790  171.1930  139.1920 C   0  0  0  0  0  0  0  0  0  0  0  0
  190.9440  172.2770  138.4400 C   0  0  0  0  0  0  0  0  0  0  0  0
  192.2370  172.2780  137.9480 C   0  0  0  0  0  3  0  0  0  0  0  0
  192.3550  173.5200  137.3560 C   0  0  0  0  0  0  0  0  0  0  0  0
  190.3570  173.4870  138.1120 C   0  0  0  0  0  3  0  0  0  0  0  0
  191.2420  174.2020  137.4570 O   0  0  0  0  0  0  0  0  0  0  0  0
  193.5920  174.0440  136.7060 C   0  0  0  0  0  2  0  0  0  0  0  0
  194.0120  175.3900  137.2830 C   0  0  0  0  0  0  0  0  0  0  0  0
  193.8430  175.3580  138.6580 F   0  0  0  0  0  0  0  0  0  0  0  0
  195.3430  175.6370  136.9970 F   0  0  0  0  0  0  0  0  0  0  0  0
  193.2320  176.4050  136.7540 F   0  0  0  0  0  0  0  0  0  0  0  0
  193.8300  171.9630  141.3690 C   0  0  0  0  0  2  0  0  0  0  0  0
  194.3710  174.3390  141.5330 N   0  0  0  0  0  2  0  0  0  0  0  0
  195.8010  173.9350  144.0070 C   0  0  2  0  0  3  0  0  0  0  0  0
  195.1910  176.5080  141.3820 O   0  0  0  0  0  0  0  0  0  0  0  0
  195.5180  172.8040  143.0190 C   0  0  0  0  0  2  0  0  0  0  0  0
  194.2180  173.1070  142.2940 C   0  0  2  0  0  3  0  0  0  0  0  0
  195.9670  175.2940  143.2930 C   0  0  1  0  0  3  0  0  0  0  0  0
  195.1380  175.4380  142.0410 C   0  0  0  0  0  0  0  0  0  0  0  0
  196.7850  172.6390  145.9000 C   0  0  0  0  0  2  0  0  0  0  0  0
  196.8650  174.0190  146.1510 O   0  0  0  0  0  0  0  0  0  0  0  0
  197.0620  173.6140  144.8140 C   0  0  2  0  0  3  0  0  0  0  0  0
  195.6640  176.4560  144.2380 C   0  0  0  0  0  2  0  0  0  0  0  0
  194.2330  176.4380  144.7430 C   0  0  0  0  0  2  0  0  0  0  0  0
  194.2000  176.4400  146.2650 C   0  0  0  0  0  2  0  0  0  0  0  0
  192.4980  174.6110  146.4430 O   0  0  0  0  0  0  0  0  0  0  0  0
  192.8900  175.9230  146.7490 C   0  0  0  0  0  0  0  0  0  0  0  0
  192.1590  176.6490  147.4730 O   0  0  0  0  0  1  0  0  0  0  0  0
  1 11  1  1  0  0  0
  1  5  1  0  0  0  0
  2 34  1  6  0  0  0
  2  5  1  0  0  0  0
  3 23  1  6  0  0  0
  3  4  1  0  0  0  0
  3  1  1  0  0  0  0
  4  2  1  0  0  0  0
  6  7  1  0  0  0  0
  6 10  2  0  0  0  0
  7  8  1  0  0  0  0
  8  9  2  0  0  0  0
  9 12  1  0  0  0  0
 10  9  1  0  0  0  0
 11  6  1  0  0  0  0
 12 13  1  0  0  0  0
 13 15  1  0  0  0  0
 15 14  1  6  0  0  0
 15 16  1  0  0  0  0
 15 19  1  0  0  0  0
 17 16  1  0  0  0  0
 19 20  1  0  0  0  0
 19 18  1  1  0  0  0
 21 20  1  0  0  0  0
 22 23  2  0  0  0  0
 24 23  1  0  0  0  0
 25 24  1  0  0  0  0
 26 28  1  0  0  0  0
 26 25  2  0  0  0  0
 27 24  2  0  0  0  0
 28 27  1  0  0  0  0
 29 30  1  0  0  0  0
 29 26  1  0  0  0  0
 30 31  1  0  0  0  0
 32 30  1  0  0  0  0
 33 30  1  0  0  0  0
 35 41  1  0  0  0  0
 35 39  1  0  0  0  0
 36 38  1  6  0  0  0
 36 44  1  0  0  0  0
 37 41  2  0  0  0  0
 39 34  1  6  0  0  0
 39 38  1  0  0  0  0
 40 36  1  0  0  0  0
 40 45  1  1  0  0  0
 41 40  1  0  0  0  0
 42 43  1  0  0  0  0
 44 42  1  1  0  0  0
 44 43  1  0  0  0  0
 45 46  1  0  0  0  0
 46 47  1  0  0  0  0
 47 49  1  0  0  0  0
 48 49  2  0  0  0  0
 49 50  1  0  0  0  0
M  END
>  <MODEL>
3

>  <REMARK>
 VINA RESULT:      -6.3      3.089      7.190
  Name = 
  18 active torsions:
  status: ('A' for Active; 'I' for Inactive)
    1  A    between atoms: C_2  and  N_40
    2  A    between atoms: C_3  and  C_25
    3  A    between atoms: C_3  and  C_44
    4  A    between atoms: C_4  and  C_19
    5  A    between atoms: C_4  and  C_35
    6  A    between atoms: C_7  and  C_9
    7  A    between atoms: C_7  and  C_43
    8  A    between atoms: C_10  and  C_17
    9  A    between atoms: C_11  and  C_46
   10  A    between atoms: C_12  and  C_35
   11  A    between atoms: C_13  and  C_37
   12  A    between atoms: C_13  and  C_44
   13  A    between atoms: C_17  and  C_38
   14  A    between atoms: C_18  and  C_44
   15  A    between atoms: C_19  and  C_39
   16  A    between atoms: C_21  and  C_48
   17  A    between atoms: C_24  and  C_48
   18  A    between atoms: C_25  and  C_33
                            x       y       z     vdW  Elec       q    Type
                         _______ _______ _______ _____ _____    ______ ____

>  <TORSDO>
F 18

$$$$
=
 OpenBabel11042415493D

 50 54  0  0  1  0  0  0  0  0999 V2000
  194.3380  175.5430  141.9960 C   0  0  2  0  0  3  0  0  0  0  0  0
  195.4800  174.0480  140.2300 C   0  0  2  0  0  3  0  0  0  0  0  0
  195.7110  176.1960  141.8560 C   0  0  2  0  0  3  0  0  0  0  0  0
  196.7550  175.2680  140.6780 S   0  0  0  0  0  0  0  0  0  0  0  0
  193.8480  174.8030  140.4140 S   0  0  0  0  0  0  0  0  0  0  0  0
  192.2210  176.2100  143.2110 C   0  0  0  0  0  0  0  0  0  0  0  0
  191.8830  174.7320  143.8970 S   0  0  0  0  0  0  0  0  0  0  0  0
  190.5510  175.2150  144.7680 N   0  0  0  0  0  0  0  0  0  0  0  0
  190.4020  176.5400  144.4840 C   0  0  0  0  0  0  0  0  0  0  0  0
  191.3260  177.1170  143.6510 N   0  0  0  0  0  0  0  0  0  0  0  0
  193.3520  176.5360  142.4040 N   0  0  0  0  0  2  0  0  0  0  0  0
  189.3430  177.3440  145.1440 C   0  0  0  0  0  2  0  0  0  0  0  0
  188.3810  177.8930  144.0980 C   0  0  0  0  0  2  0  0  0  0  0  0
  186.1510  178.7040  144.5070 O   0  0  0  0  0  1  0  0  0  0  0  0
  186.9140  177.5370  144.3890 C   0  0  2  0  0  0  0  0  0  0  0  0
  186.8400  176.7750  145.7110 C   0  0  0  0  0  2  0  0  0  0  0  0
  185.5310  176.7530  146.1990 O   0  0  0  0  0  1  0  0  0  0  0  0
  185.0910  177.1810  142.8400 O   0  0  0  0  0  1  0  0  0  0  0  0
  186.3120  176.6600  143.2760 C   0  0  1  0  0  3  0  0  0  0  0  0
  187.2550  176.4720  142.0940 C   0  0  0  0  0  2  0  0  0  0  0  0
  186.7380  177.2370  140.8940 C   0  0  0  0  0  1  0  0  0  0  0  0
  197.1360  177.3850  143.3850 O   0  0  0  0  0  0  0  0  0  0  0  0
  196.3950  176.3790  143.1950 C   0  0  0  0  0  0  0  0  0  0  0  0
  196.2790  175.3760  144.2720 C   0  0  0  0  0  0  0  0  0  0  0  0
  196.9910  174.1960  144.3930 C   0  0  0  0  0  3  0  0  0  0  0  0
  196.4870  173.6320  145.5490 C   0  0  0  0  0  0  0  0  0  0  0  0
  195.4120  175.4670  145.3470 C   0  0  0  0  0  3  0  0  0  0  0  0
  195.5750  174.3990  146.0910 O   0  0  0  0  0  0  0  0  0  0  0  0
  196.8980  172.3110  146.1060 C   0  0  0  0  0  2  0  0  0  0  0  0
  195.9020  171.2120  145.7580 C   0  0  0  0  0  0  0  0  0  0  0  0
  196.0920  170.1480  146.6240 F   0  0  0  0  0  0  0  0  0  0  0  0
  194.6070  171.6820  145.8980 F   0  0  0  0  0  0  0  0  0  0  0  0
  196.0960  170.7790  144.4580 F   0  0  0  0  0  0  0  0  0  0  0  0
  195.5950  172.7930  141.0870 C   0  0  0  0  0  2  0  0  0  0  0  0
  193.9660  171.6640  142.5130 N   0  0  0  0  0  2  0  0  0  0  0  0
  192.8580  170.2310  140.2670 C   0  0  2  0  0  3  0  0  0  0  0  0
  192.7580  170.3380  143.9910 O   0  0  0  0  0  0  0  0  0  0  0  0
  194.2550  170.8480  140.2480 C   0  0  0  0  0  2  0  0  0  0  0  0
  194.2550  172.0740  141.1460 C   0  0  2  0  0  3  0  0  0  0  0  0
  192.4500  169.7730  141.6850 C   0  0  1  0  0  3  0  0  0  0  0  0
  193.0290  170.6160  142.7940 C   0  0  0  0  0  0  0  0  0  0  0  0
  192.3540  169.4550  137.9490 C   0  0  0  0  0  2  0  0  0  0  0  0
  191.4730  168.8640  138.8690 O   0  0  0  0  0  0  0  0  0  0  0  0
  192.8040  169.0420  139.3030 C   0  0  2  0  0  3  0  0  0  0  0  0
  190.9300  169.7160  141.8320 C   0  0  0  0  0  2  0  0  0  0  0  0
  190.3160  171.0830  142.0720 C   0  0  0  0  0  2  0  0  0  0  0  0
  189.9330  171.7390  140.7530 C   0  0  0  0  0  2  0  0  0  0  0  0
  187.9730  172.7150  141.9710 O   0  0  0  0  0  1  0  0  0  0  0  0
  188.9720  172.8520  140.9960 C   0  0  0  0  0  0  0  0  0  0  0  0
  189.0900  173.9310  140.3580 O   0  0  0  0  0  0  0  0  0  0  0  0
  1 11  1  6  0  0  0
  2  5  1  0  0  0  0
  2  4  1  0  0  0  0
  2 34  1  1  0  0  0
  3  1  1  0  0  0  0
  3 23  1  1  0  0  0
  4  3  1  0  0  0  0
  5  1  1  0  0  0  0
  6 10  2  0  0  0  0
  6  7  1  0  0  0  0
  7  8  1  0  0  0  0
  9  8  2  0  0  0  0
  9 12  1  0  0  0  0
 10  9  1  0  0  0  0
 11  6  1  0  0  0  0
 13 15  1  0  0  0  0
 13 12  1  0  0  0  0
 15 14  1  1  0  0  0
 15 16  1  0  0  0  0
 16 17  1  0  0  0  0
 19 18  1  6  0  0  0
 19 15  1  0  0  0  0
 20 19  1  0  0  0  0
 21 20  1  0  0  0  0
 23 22  2  0  0  0  0
 23 24  1  0  0  0  0
 24 25  1  0  0  0  0
 24 27  2  0  0  0  0
 25 26  2  0  0  0  0
 26 28  1  0  0  0  0
 26 29  1  0  0  0  0
 27 28  1  0  0  0  0
 30 32  1  0  0  0  0
 30 29  1  0  0  0  0
 30 31  1  0  0  0  0
 33 30  1  0  0  0  0
 35 41  1  0  0  0  0
 36 38  1  1  0  0  0
 36 40  1  0  0  0  0
 38 39  1  0  0  0  0
 39 34  1  1  0  0  0
 39 35  1  0  0  0  0
 40 45  1  6  0  0  0
 40 41  1  0  0  0  0
 41 37  2  0  0  0  0
 42 43  1  0  0  0  0
 43 44  1  0  0  0  0
 44 42  1  6  0  0  0
 44 36  1  0  0  0  0
 45 46  1  0  0  0  0
 47 49  1  0  0  0  0
 47 46  1  0  0  0  0
 49 48  1  0  0  0  0
 50 49  2  0  0  0  0
M  END
>  <MODEL>
4

>  <REMARK>
 VINA RESULT:      -6.0      2.697      3.576
  Name = 
  18 active torsions:
  status: ('A' for Active; 'I' for Inactive)
    1  A    between atoms: C_2  and  N_40
    2  A    between atoms: C_3  and  C_25
    3  A    between atoms: C_3  and  C_44
    4  A    between atoms: C_4  and  C_19
    5  A    between atoms: C_4  and  C_35
    6  A    between atoms: C_7  and  C_9
    7  A    between atoms: C_7  and  C_43
    8  A    between atoms: C_10  and  C_17
    9  A    between atoms: C_11  and  C_46
   10  A    between atoms: C_12  and  C_35
   11  A    between atoms: C_13  and  C_37
   12  A    between atoms: C_13  and  C_44
   13  A    between atoms: C_17  and  C_38
   14  A    between atoms: C_18  and  C_44
   15  A    between atoms: C_19  and  C_39
   16  A    between atoms: C_21  and  C_48
   17  A    between atoms: C_24  and  C_48
   18  A    between atoms: C_25  and  C_33
                            x       y       z     vdW  Elec       q    Type
                         _______ _______ _______ _____ _____    ______ ____

>  <TORSDO>
F 18

$$$$
=
 OpenBabel11042415493D

 50 54  0  0  1  0  0  0  0  0999 V2000
  190.9260  174.9250  145.1440 C   0  0  2  0  0  3  0  0  0  0  0  0
  189.9940  176.1750  147.1990 C   0  0  2  0  0  3  0  0  0  0  0  0
  192.1780  175.1360  145.9910 C   0  0  2  0  0  3  0  0  0  0  0  0
  191.7850  176.0720  147.5100 S   0  0  0  0  0  0  0  0  0  0  0  0
  189.4800  174.7440  146.2230 S   0  0  0  0  0  0  0  0  0  0  0  0
  190.4430  173.5970  143.0450 C   0  0  0  0  0  0  0  0  0  0  0  0
  189.5410  174.7490  142.2540 S   0  0  0  0  0  0  0  0  0  0  0  0
  189.3200  173.8970  140.8430 N   0  0  0  0  0  0  0  0  0  0  0  0
  189.9630  172.7120  141.0390 C   0  0  0  0  0  0  0  0  0  0  0  0
  190.6120  172.5330  142.2340 N   0  0  0  0  0  0  0  0  0  0  0  0
  191.0780  173.7350  144.3160 N   0  0  0  0  0  2  0  0  0  0  0  0
  190.0440  171.7020  139.9540 C   0  0  0  0  0  2  0  0  0  0  0  0
  191.4030  171.0140  139.9860 C   0  0  0  0  0  2  0  0  0  0  0  0
  191.4550  171.9540  137.7700 O   0  0  0  0  0  1  0  0  0  0  0  0
  192.1830  171.1690  138.6710 C   0  0  2  0  0  0  0  0  0  0  0  0
  192.3910  169.7880  138.0500 C   0  0  0  0  0  2  0  0  0  0  0  0
  193.6980  169.3410  138.2590 O   0  0  0  0  0  1  0  0  0  0  0  0
  193.9190  172.6170  137.8090 O   0  0  0  0  0  1  0  0  0  0  0  0
  193.5580  171.8220  138.9000 C   0  0  1  0  0  3  0  0  0  0  0  0
  193.6200  172.6370  140.1860 C   0  0  0  0  0  2  0  0  0  0  0  0
  193.2680  174.0810  139.9000 C   0  0  0  0  0  1  0  0  0  0  0  0
  193.0870  176.8690  144.5920 O   0  0  0  0  0  0  0  0  0  0  0  0
  193.2990  175.7830  145.2030 C   0  0  0  0  0  0  0  0  0  0  0  0
  194.6240  175.1450  145.0680 C   0  0  0  0  0  0  0  0  0  0  0  0
  195.1070  174.0670  145.7860 C   0  0  0  0  0  3  0  0  0  0  0  0
  196.3840  173.8940  145.2890 C   0  0  0  0  0  0  0  0  0  0  0  0
  195.6090  175.5500  144.1840 C   0  0  0  0  0  3  0  0  0  0  0  0
  196.6480  174.7660  144.3490 O   0  0  0  0  0  0  0  0  0  0  0  0
  197.3580  172.8710  145.7690 C   0  0  0  0  0  2  0  0  0  0  0  0
  197.0530  171.4870  145.2080 C   0  0  0  0  0  0  0  0  0  0  0  0
  197.9390  171.2190  144.1780 F   0  0  0  0  0  0  0  0  0  0  0  0
  197.2040  170.5290  146.1950 F   0  0  0  0  0  0  0  0  0  0  0  0
  195.7590  171.4420  144.7180 F   0  0  0  0  0  0  0  0  0  0  0  0
  189.6330  177.4740  146.4870 C   0  0  0  0  0  2  0  0  0  0  0  0
  188.7400  177.6320  144.2200 N   0  0  0  0  0  2  0  0  0  0  0  0
  186.0290  177.7550  145.2000 C   0  0  2  0  0  3  0  0  0  0  0  0
  188.0240  178.2040  142.0850 O   0  0  0  0  0  0  0  0  0  0  0  0
  187.2400  178.0880  146.0700 C   0  0  0  0  0  2  0  0  0  0  0  0
  188.4220  177.2620  145.5910 C   0  0  2  0  0  3  0  0  0  0  0  0
  186.2740  178.1020  143.7150 C   0  0  1  0  0  3  0  0  0  0  0  0
  187.7100  177.9530  143.2770 C   0  0  0  0  0  0  0  0  0  0  0  0
  184.7120  178.4730  147.1950 C   0  0  0  0  0  2  0  0  0  0  0  0
  183.9560  177.6050  146.3910 O   0  0  0  0  0  0  0  0  0  0  0  0
  184.7990  178.5100  145.7130 C   0  0  2  0  0  3  0  0  0  0  0  0
  185.3750  177.2740  142.7980 C   0  0  0  0  0  2  0  0  0  0  0  0
  184.6270  178.1270  141.7890 C   0  0  0  0  0  2  0  0  0  0  0  0
  183.2400  178.4780  142.3070 C   0  0  0  0  0  2  0  0  0  0  0  0
  182.6080  177.7470  139.9960 O   0  0  0  0  0  0  0  0  0  0  0  0
  182.2120  178.1480  141.2800 C   0  0  0  0  0  0  0  0  0  0  0  0
  180.9910  178.1830  141.5840 O   0  0  0  0  0  1  0  0  0  0  0  0
  1 11  1  1  0  0  0
  1  3  1  0  0  0  0
  1  5  1  0  0  0  0
  2 34  1  6  0  0  0
  2  4  1  0  0  0  0
  3 23  1  6  0  0  0
  3  4  1  0  0  0  0
  5  2  1  0  0  0  0
  6 11  1  0  0  0  0
  7  6  1  0  0  0  0
  8  9  2  0  0  0  0
  8  7  1  0  0  0  0
  9 10  1  0  0  0  0
 10  6  2  0  0  0  0
 12 13  1  0  0  0  0
 12  9  1  0  0  0  0
 15 14  1  6  0  0  0
 15 19  1  0  0  0  0
 15 13  1  0  0  0  0
 16 17  1  0  0  0  0
 16 15  1  0  0  0  0
 19 18  1  6  0  0  0
 19 20  1  0  0  0  0
 21 20  1  0  0  0  0
 22 23  2  0  0  0  0
 24 23  1  0  0  0  0
 24 25  1  0  0  0  0
 26 29  1  0  0  0  0
 26 25  2  0  0  0  0
 27 28  1  0  0  0  0
 27 24  2  0  0  0  0
 28 26  1  0  0  0  0
 30 29  1  0  0  0  0
 30 32  1  0  0  0  0
 31 30  1  0  0  0  0
 33 30  1  0  0  0  0
 35 39  1  0  0  0  0
 36 44  1  0  0  0  0
 36 38  1  1  0  0  0
 37 41  2  0  0  0  0
 39 38  1  0  0  0  0
 39 34  1  1  0  0  0
 40 45  1  6  0  0  0
 40 36  1  0  0  0  0
 41 40  1  0  0  0  0
 41 35  1  0  0  0  0
 43 42  1  0  0  0  0
 44 43  1  0  0  0  0
 44 42  1  1  0  0  0
 46 47  1  0  0  0  0
 46 45  1  0  0  0  0
 48 49  2  0  0  0  0
 49 50  1  0  0  0  0
 49 47  1  0  0  0  0
M  END
>  <MODEL>
5

>  <REMARK>
 VINA RESULT:      -5.9      3.220      8.624
  Name = 
  18 active torsions:
  status: ('A' for Active; 'I' for Inactive)
    1  A    between atoms: C_2  and  N_40
    2  A    between atoms: C_3  and  C_25
    3  A    between atoms: C_3  and  C_44
    4  A    between atoms: C_4  and  C_19
    5  A    between atoms: C_4  and  C_35
    6  A    between atoms: C_7  and  C_9
    7  A    between atoms: C_7  and  C_43
    8  A    between atoms: C_10  and  C_17
    9  A    between atoms: C_11  and  C_46
   10  A    between atoms: C_12  and  C_35
   11  A    between atoms: C_13  and  C_37
   12  A    between atoms: C_13  and  C_44
   13  A    between atoms: C_17  and  C_38
   14  A    between atoms: C_18  and  C_44
   15  A    between atoms: C_19  and  C_39
   16  A    between atoms: C_21  and  C_48
   17  A    between atoms: C_24  and  C_48
   18  A    between atoms: C_25  and  C_33
                            x       y       z     vdW  Elec       q    Type
                         _______ _______ _______ _____ _____    ______ ____

>  <TORSDO>
F 18

$$$$
=
 OpenBabel11042415493D

 50 54  0  0  1  0  0  0  0  0999 V2000
  191.2660  174.2120  144.9230 C   0  0  2  0  0  3  0  0  0  0  0  0
  190.2180  175.5770  146.8450 C   0  0  2  0  0  3  0  0  0  0  0  0
  192.4220  174.3170  145.9140 C   0  0  2  0  0  3  0  0  0  0  0  0
  191.9400  175.3100  147.3710 S   0  0  0  0  0  0  0  0  0  0  0  0
  189.6900  174.1850  145.8210 S   0  0  0  0  0  0  0  0  0  0  0  0
  190.9630  172.9190  142.7700 C   0  0  0  0  0  0  0  0  0  0  0  0
  190.3420  174.1590  141.8500 S   0  0  0  0  0  0  0  0  0  0  0  0
  190.2440  173.3180  140.4190 N   0  0  0  0  0  0  0  0  0  0  0  0
  190.7000  172.0670  140.7090 C   0  0  0  0  0  0  0  0  0  0  0  0
  191.1280  171.8310  141.9910 N   0  0  0  0  0  0  0  0  0  0  0  0
  191.4010  173.0000  144.1250 N   0  0  0  0  0  2  0  0  0  0  0  0
  190.8300  171.0390  139.6460 C   0  0  0  0  0  2  0  0  0  0  0  0
  189.8240  171.3120  138.5350 C   0  0  0  0  0  2  0  0  0  0  0  0
  189.6260  172.0980  136.2680 O   0  0  0  0  0  1  0  0  0  0  0  0
  190.4800  171.4260  137.1490 C   0  0  2  0  0  0  0  0  0  0  0  0
  190.7330  170.0220  136.6010 C   0  0  0  0  0  2  0  0  0  0  0  0
  190.8090  170.0400  135.2070 O   0  0  0  0  0  1  0  0  0  0  0  0
  192.8820  171.3390  136.8760 O   0  0  0  0  0  1  0  0  0  0  0  0
  191.8190  172.1810  137.2160 C   0  0  1  0  0  3  0  0  0  0  0  0
  191.8400  173.4300  136.3430 C   0  0  0  0  0  2  0  0  0  0  0  0
  192.3660  174.6070  137.1370 C   0  0  0  0  0  1  0  0  0  0  0  0
  194.7290  174.9940  145.9620 O   0  0  0  0  0  0  0  0  0  0  0  0
  193.6850  174.8420  145.2650 C   0  0  0  0  0  0  0  0  0  0  0  0
  193.7200  175.2520  143.8460 C   0  0  0  0  0  0  0  0  0  0  0  0
  194.3410  174.5900  142.8030 C   0  0  0  0  0  3  0  0  0  0  0  0
  194.0880  175.3990  141.7120 C   0  0  0  0  0  0  0  0  0  0  0  0
  193.1240  176.3940  143.3390 C   0  0  0  0  0  3  0  0  0  0  0  0
  193.3690  176.4390  142.0500 O   0  0  0  0  0  0  0  0  0  0  0  0
  194.5860  175.1490  140.3280 C   0  0  0  0  0  2  0  0  0  0  0  0
  196.0700  175.4660  140.1910 C   0  0  0  0  0  0  0  0  0  0  0  0
  196.3640  175.6540  138.8510 F   0  0  0  0  0  0  0  0  0  0  0  0
  196.3750  176.6240  140.8870 F   0  0  0  0  0  0  0  0  0  0  0  0
  196.8330  174.4210  140.6820 F   0  0  0  0  0  0  0  0  0  0  0  0
  190.0710  176.8920  146.0890 C   0  0  0  0  0  2  0  0  0  0  0  0
  188.7850  177.3720  144.0700 N   0  0  0  0  0  2  0  0  0  0  0  0
  186.4230  177.9850  145.6100 C   0  0  2  0  0  3  0  0  0  0  0  0
  187.7830  178.2120  142.1480 O   0  0  0  0  0  0  0  0  0  0  0  0
  187.8300  178.0080  146.2060 C   0  0  0  0  0  2  0  0  0  0  0  0
  188.6840  176.9890  145.4700 C   0  0  2  0  0  3  0  0  0  0  0  0
  186.4260  178.3680  144.1130 C   0  0  1  0  0  3  0  0  0  0  0  0
  187.6750  177.9560  143.3750 C   0  0  0  0  0  0  0  0  0  0  0  0
  184.9820  178.3090  147.6220 C   0  0  0  0  0  2  0  0  0  0  0  0
  184.2170  178.3940  146.4480 O   0  0  0  0  0  0  0  0  0  0  0  0
  185.5150  178.9410  146.3890 C   0  0  2  0  0  3  0  0  0  0  0  0
  185.2020  177.8000  143.3960 C   0  0  0  0  0  2  0  0  0  0  0  0
  184.2730  178.8850  142.8820 C   0  0  0  0  0  2  0  0  0  0  0  0
  183.0030  178.2760  142.3070 C   0  0  0  0  0  2  0  0  0  0  0  0
  184.2850  178.5130  140.1670 O   0  0  0  0  0  1  0  0  0  0  0  0
  183.0660  178.2730  140.8180 C   0  0  0  0  0  0  0  0  0  0  0  0
  182.0330  178.0090  140.1480 O   0  0  0  0  0  0  0  0  0  0  0  0
  1 11  1  1  0  0  0
  1  5  1  0  0  0  0
  1  3  1  0  0  0  0
  2 34  1  6  0  0  0
  2  4  1  0  0  0  0
  3 23  1  6  0  0  0
  3  4  1  0  0  0  0
  5  2  1  0  0  0  0
  6 11  1  0  0  0  0
  7  6  1  0  0  0  0
  8  9  2  0  0  0  0
  8  7  1  0  0  0  0
  9 10  1  0  0  0  0
 10  6  2  0  0  0  0
 12  9  1  0  0  0  0
 13 12  1  0  0  0  0
 15 14  1  6  0  0  0
 15 19  1  0  0  0  0
 15 13  1  0  0  0  0
 16 15  1  0  0  0  0
 17 16  1  0  0  0  0
 19 18  1  6  0  0  0
 20 21  1  0  0  0  0
 20 19  1  0  0  0  0
 23 22  2  0  0  0  0
 24 23  1  0  0  0  0
 25 24  1  0  0  0  0
 26 28  1  0  0  0  0
 26 25  2  0  0  0  0
 27 24  2  0  0  0  0
 28 27  1  0  0  0  0
 29 26  1  0  0  0  0
 30 29  1  0  0  0  0
 30 33  1  0  0  0  0
 30 32  1  0  0  0  0
 31 30  1  0  0  0  0
 35 39  1  0  0  0  0
 36 38  1  1  0  0  0
 36 44  1  0  0  0  0
 37 41  2  0  0  0  0
 39 34  1  1  0  0  0
 39 38  1  0  0  0  0
 40 45  1  6  0  0  0
 40 36  1  0  0  0  0
 41 35  1  0  0  0  0
 41 40  1  0  0  0  0
 43 42  1  0  0  0  0
 44 43  1  0  0  0  0
 44 42  1  1  0  0  0
 46 45  1  0  0  0  0
 47 46  1  0  0  0  0
 48 49  1  0  0  0  0
 49 47  1  0  0  0  0
 50 49  2  0  0  0  0
M  END
>  <MODEL>
6

>  <REMARK>
 VINA RESULT:      -5.7      3.204      8.790
  Name = 
  18 active torsions:
  status: ('A' for Active; 'I' for Inactive)
    1  A    between atoms: C_2  and  N_40
    2  A    between atoms: C_3  and  C_25
    3  A    between atoms: C_3  and  C_44
    4  A    between atoms: C_4  and  C_19
    5  A    between atoms: C_4  and  C_35
    6  A    between atoms: C_7  and  C_9
    7  A    between atoms: C_7  and  C_43
    8  A    between atoms: C_10  and  C_17
    9  A    between atoms: C_11  and  C_46
   10  A    between atoms: C_12  and  C_35
   11  A    between atoms: C_13  and  C_37
   12  A    between atoms: C_13  and  C_44
   13  A    between atoms: C_17  and  C_38
   14  A    between atoms: C_18  and  C_44
   15  A    between atoms: C_19  and  C_39
   16  A    between atoms: C_21  and  C_48
   17  A    between atoms: C_24  and  C_48
   18  A    between atoms: C_25  and  C_33
                            x       y       z     vdW  Elec       q    Type
                         _______ _______ _______ _____ _____    ______ ____

>  <TORSDO>
F 18

$$$$
=
 OpenBabel11042415493D

 50 54  0  0  1  0  0  0  0  0999 V2000
  191.4550  174.6890  144.8100 C   0  0  2  0  0  3  0  0  0  0  0  0
  190.3180  175.9840  146.7300 C   0  0  2  0  0  3  0  0  0  0  0  0
  192.6090  174.8990  145.7880 C   0  0  2  0  0  3  0  0  0  0  0  0
  192.0620  175.8650  147.2400 S   0  0  0  0  0  0  0  0  0  0  0  0
  189.8960  174.5430  145.7250 S   0  0  0  0  0  0  0  0  0  0  0  0
  190.9330  173.1810  142.8470 C   0  0  0  0  0  0  0  0  0  0  0  0
  189.7900  174.1490  142.1210 S   0  0  0  0  0  0  0  0  0  0  0  0
  189.5330  173.1900  140.7870 N   0  0  0  0  0  0  0  0  0  0  0  0
  190.3590  172.1190  140.9550 C   0  0  0  0  0  0  0  0  0  0  0  0
  191.1600  172.1050  142.0680 N   0  0  0  0  0  0  0  0  0  0  0  0
  191.6820  173.4830  144.0240 N   0  0  0  0  0  2  0  0  0  0  0  0
  190.4600  171.0660  139.9130 C   0  0  0  0  0  2  0  0  0  0  0  0
  190.2270  171.6740  138.5360 C   0  0  0  0  0  2  0  0  0  0  0  0
  191.5140  171.3140  136.5330 O   0  0  0  0  0  1  0  0  0  0  0  0
  191.5340  171.9550  137.7770 C   0  0  2  0  0  0  0  0  0  0  0  0
  192.7080  171.4060  138.5860 C   0  0  0  0  0  2  0  0  0  0  0  0
  193.4530  170.5000  137.8270 O   0  0  0  0  0  1  0  0  0  0  0  0
  190.5470  174.1630  137.7070 O   0  0  0  0  0  1  0  0  0  0  0  0
  191.7470  173.4630  137.5540 C   0  0  1  0  0  3  0  0  0  0  0  0
  192.8170  174.0520  138.4670 C   0  0  0  0  0  2  0  0  0  0  0  0
  193.9060  174.6970  137.6370 C   0  0  0  0  0  1  0  0  0  0  0  0
  193.9460  176.7760  145.1010 O   0  0  0  0  0  0  0  0  0  0  0  0
  193.8180  175.5180  145.1200 C   0  0  0  0  0  0  0  0  0  0  0  0
  194.8300  174.6970  144.4250 C   0  0  0  0  0  0  0  0  0  0  0  0
  195.4990  175.0120  143.2570 C   0  0  0  0  0  3  0  0  0  0  0  0
  196.3010  173.9090  143.0370 C   0  0  0  0  0  0  0  0  0  0  0  0
  195.2640  173.4520  144.8480 C   0  0  0  0  0  3  0  0  0  0  0  0
  196.1520  173.0180  143.9850 O   0  0  0  0  0  0  0  0  0  0  0  0
  197.2040  173.7280  141.8630 C   0  0  0  0  0  2  0  0  0  0  0  0
  196.4240  173.5240  140.5710 C   0  0  0  0  0  0  0  0  0  0  0  0
  196.1380  174.7630  140.0220 F   0  0  0  0  0  0  0  0  0  0  0  0
  197.1790  172.7940  139.6690 F   0  0  0  0  0  0  0  0  0  0  0  0
  195.2380  172.8550  140.8250 F   0  0  0  0  0  0  0  0  0  0  0  0
  190.0570  177.2750  145.9620 C   0  0  0  0  0  2  0  0  0  0  0  0
  188.8400  177.5190  143.8590 N   0  0  0  0  0  2  0  0  0  0  0  0
  186.3580  178.0080  145.2460 C   0  0  2  0  0  3  0  0  0  0  0  0
  187.8700  178.1510  141.8440 O   0  0  0  0  0  0  0  0  0  0  0  0
  187.7250  178.1910  145.9040 C   0  0  0  0  0  2  0  0  0  0  0  0
  188.7010  177.2110  145.2750 C   0  0  2  0  0  3  0  0  0  0  0  0
  186.4050  178.3000  143.7310 C   0  0  1  0  0  3  0  0  0  0  0  0
  187.7220  177.9590  143.0780 C   0  0  0  0  0  0  0  0  0  0  0  0
  184.8000  178.3240  147.1710 C   0  0  0  0  0  2  0  0  0  0  0  0
  184.0870  178.2630  145.9630 O   0  0  0  0  0  0  0  0  0  0  0  0
  185.3320  178.9230  145.9200 C   0  0  2  0  0  3  0  0  0  0  0  0
  185.2740  177.5840  142.9940 C   0  0  0  0  0  2  0  0  0  0  0  0
  184.2140  178.5420  142.4830 C   0  0  0  0  0  2  0  0  0  0  0  0
  183.7200  178.1130  141.1090 C   0  0  0  0  0  2  0  0  0  0  0  0
  181.5420  178.9080  142.0580 O   0  0  0  0  0  1  0  0  0  0  0  0
  182.2390  178.2590  141.0280 C   0  0  0  0  0  0  0  0  0  0  0  0
  181.6230  177.8410  140.0130 O   0  0  0  0  0  0  0  0  0  0  0  0
  1 11  1  1  0  0  0
  1  5  1  0  0  0  0
  1  3  1  0  0  0  0
  2 34  1  6  0  0  0
  2  4  1  0  0  0  0
  3 23  1  6  0  0  0
  3  4  1  0  0  0  0
  5  2  1  0  0  0  0
  6 11  1  0  0  0  0
  7  6  1  0  0  0  0
  8  9  2  0  0  0  0
  8  7  1  0  0  0  0
  9 10  1  0  0  0  0
 10  6  2  0  0  0  0
 12  9  1  0  0  0  0
 13 12  1  0  0  0  0
 15 14  1  6  0  0  0
 15 13  1  0  0  0  0
 15 16  1  0  0  0  0
 17 16  1  0  0  0  0
 19 18  1  1  0  0  0
 19 15  1  0  0  0  0
 19 20  1  0  0  0  0
 21 20  1  0  0  0  0
 22 23  2  0  0  0  0
 24 27  2  0  0  0  0
 24 23  1  0  0  0  0
 25 24  1  0  0  0  0
 26 25  2  0  0  0  0
 26 28  1  0  0  0  0
 28 27  1  0  0  0  0
 29 26  1  0  0  0  0
 30 33  1  0  0  0  0
 30 29  1  0  0  0  0
 31 30  1  0  0  0  0
 32 30  1  0  0  0  0
 35 39  1  0  0  0  0
 36 38  1  1  0  0  0
 36 44  1  0  0  0  0
 37 41  2  0  0  0  0
 39 38  1  0  0  0  0
 39 34  1  1  0  0  0
 40 45  1  6  0  0  0
 40 36  1  0  0  0  0
 41 40  1  0  0  0  0
 41 35  1  0  0  0  0
 43 42  1  0  0  0  0
 44 43  1  0  0  0  0
 44 42  1  1  0  0  0
 46 45  1  0  0  0  0
 47 46  1  0  0  0  0
 49 47  1  0  0  0  0
 49 48  1  0  0  0  0
 50 49  2  0  0  0  0
M  END
>  <MODEL>
7

>  <REMARK>
 VINA RESULT:      -5.7      3.171      8.654
  Name = 
  18 active torsions:
  status: ('A' for Active; 'I' for Inactive)
    1  A    between atoms: C_2  and  N_40
    2  A    between atoms: C_3  and  C_25
    3  A    between atoms: C_3  and  C_44
    4  A    between atoms: C_4  and  C_19
    5  A    between atoms: C_4  and  C_35
    6  A    between atoms: C_7  and  C_9
    7  A    between atoms: C_7  and  C_43
    8  A    between atoms: C_10  and  C_17
    9  A    between atoms: C_11  and  C_46
   10  A    between atoms: C_12  and  C_35
   11  A    between atoms: C_13  and  C_37
   12  A    between atoms: C_13  and  C_44
   13  A    between atoms: C_17  and  C_38
   14  A    between atoms: C_18  and  C_44
   15  A    between atoms: C_19  and  C_39
   16  A    between atoms: C_21  and  C_48
   17  A    between atoms: C_24  and  C_48
   18  A    between atoms: C_25  and  C_33
                            x       y       z     vdW  Elec       q    Type
                         _______ _______ _______ _____ _____    ______ ____

>  <TORSDO>
F 18

$$$$
=
 OpenBabel11042415493D

 50 54  0  0  1  0  0  0  0  0999 V2000
  191.8890  172.7910  139.9760 C   0  0  2  0  0  3  0  0  0  0  0  0
  194.0360  171.4520  140.4780 C   0  0  2  0  0  3  0  0  0  0  0  0
  192.1800  172.1280  138.6320 C   0  0  2  0  0  3  0  0  0  0  0  0
  193.7200  171.1470  138.7120 S   0  0  0  0  0  0  0  0  0  0  0  0
  192.4620  171.7210  141.3240 S   0  0  0  0  0  0  0  0  0  0  0  0
  189.9200  173.9230  141.0910 C   0  0  0  0  0  0  0  0  0  0  0  0
  190.7810  174.8850  142.1400 S   0  0  0  0  0  0  0  0  0  0  0  0
  189.4790  175.6900  142.7900 N   0  0  0  0  0  0  0  0  0  0  0  0
  188.3890  175.1670  142.1610 C   0  0  0  0  0  0  0  0  0  0  0  0
  188.6080  174.2120  141.2010 N   0  0  0  0  0  0  0  0  0  0  0  0
  190.4590  173.0350  140.1120 N   0  0  0  0  0  2  0  0  0  0  0  0
  187.0280  175.6960  142.4320 C   0  0  0  0  0  2  0  0  0  0  0  0
  187.0840  177.2080  142.6080 C   0  0  0  0  0  2  0  0  0  0  0  0
  184.8330  177.4070  143.4390 O   0  0  0  0  0  1  0  0  0  0  0  0
  186.1660  177.7150  143.7320 C   0  0  2  0  0  0  0  0  0  0  0  0
  186.3000  179.2330  143.8370 C   0  0  0  0  0  2  0  0  0  0  0  0
  185.0530  179.8290  144.0420 O   0  0  0  0  0  1  0  0  0  0  0  0
  187.4740  177.8750  145.7610 O   0  0  0  0  0  1  0  0  0  0  0  0
  186.5330  177.0890  145.0890 C   0  0  1  0  0  3  0  0  0  0  0  0
  185.3190  176.8480  145.9790 C   0  0  0  0  0  2  0  0  0  0  0  0
  185.2610  177.8980  147.0680 C   0  0  0  0  0  1  0  0  0  0  0  0
  193.2780  173.7420  137.2270 O   0  0  0  0  0  0  0  0  0  0  0  0
  192.2060  173.1280  137.4950 C   0  0  0  0  0  0  0  0  0  0  0  0
  190.9910  173.4640  136.7260 C   0  0  0  0  0  0  0  0  0  0  0  0
  190.6540  174.6960  136.1960 C   0  0  0  0  0  3  0  0  0  0  0  0
  189.4280  174.4680  135.6030 C   0  0  0  0  0  0  0  0  0  0  0  0
  189.9780  172.5720  136.4190 C   0  0  0  0  0  3  0  0  0  0  0  0
  189.0610  173.2190  135.7390 O   0  0  0  0  0  0  0  0  0  0  0  0
  188.6030  175.5050  134.9170 C   0  0  0  0  0  2  0  0  0  0  0  0
  187.4960  176.0390  135.8180 C   0  0  0  0  0  0  0  0  0  0  0  0
  186.2730  175.7930  135.2160 F   0  0  0  0  0  0  0  0  0  0  0  0
  187.5310  175.4000  137.0450 F   0  0  0  0  0  0  0  0  0  0  0  0
  187.6440  177.4020  136.0050 F   0  0  0  0  0  0  0  0  0  0  0  0
  194.9650  172.6450  140.6730 C   0  0  0  0  0  2  0  0  0  0  0  0
  194.9700  174.5440  142.2080 N   0  0  0  0  0  2  0  0  0  0  0  0
  196.0220  172.9240  144.3520 C   0  0  2  0  0  3  0  0  0  0  0  0
  195.3370  176.4740  143.4490 O   0  0  0  0  0  0  0  0  0  0  0  0
  196.1460  172.5330  142.8800 C   0  0  0  0  0  2  0  0  0  0  0  0
  194.9500  173.0910  142.1280 C   0  0  2  0  0  3  0  0  0  0  0  0
  196.0200  174.4570  144.5420 C   0  0  1  0  0  3  0  0  0  0  0  0
  195.3980  175.2180  143.3980 C   0  0  0  0  0  0  0  0  0  0  0  0
  196.7470  171.0580  145.8420 C   0  0  0  0  0  2  0  0  0  0  0  0
  196.8200  172.2860  146.5180 O   0  0  0  0  0  0  0  0  0  0  0  0
  197.1700  172.3030  145.1520 C   0  0  2  0  0  3  0  0  0  0  0  0
  195.3310  174.8510  145.8480 C   0  0  0  0  0  2  0  0  0  0  0  0
  193.8590  174.4790  145.8660 C   0  0  0  0  0  2  0  0  0  0  0  0
  193.0020  175.6960  146.1830 C   0  0  0  0  0  2  0  0  0  0  0  0
  190.7000  174.7230  146.0180 O   0  0  0  0  0  0  0  0  0  0  0  0
  191.7200  175.2690  146.8110 C   0  0  0  0  0  0  0  0  0  0  0  0
  191.5740  175.3550  148.0580 O   0  0  0  0  0  1  0  0  0  0  0  0
  1 11  1  1  0  0  0
  1  5  1  0  0  0  0
  2 34  1  6  0  0  0
  2  5  1  0  0  0  0
  3 23  1  6  0  0  0
  3  4  1  0  0  0  0
  3  1  1  0  0  0  0
  4  2  1  0  0  0  0
  6 10  2  0  0  0  0
  6  7  1  0  0  0  0
  7  8  1  0  0  0  0
  9 12  1  0  0  0  0
  9  8  2  0  0  0  0
 10  9  1  0  0  0  0
 11  6  1  0  0  0  0
 12 13  1  0  0  0  0
 13 15  1  0  0  0  0
 15 14  1  6  0  0  0
 15 16  1  0  0  0  0
 15 19  1  0  0  0  0
 16 17  1  0  0  0  0
 19 18  1  1  0  0  0
 19 20  1  0  0  0  0
 20 21  1  0  0  0  0
 22 23  2  0  0  0  0
 24 23  1  0  0  0  0
 25 24  1  0  0  0  0
 26 28  1  0  0  0  0
 26 25  2  0  0  0  0
 27 24  2  0  0  0  0
 28 27  1  0  0  0  0
 29 26  1  0  0  0  0
 29 30  1  0  0  0  0
 30 33  1  0  0  0  0
 30 32  1  0  0  0  0
 31 30  1  0  0  0  0
 35 41  1  0  0  0  0
 36 38  1  6  0  0  0
 36 40  1  0  0  0  0
 36 44  1  0  0  0  0
 39 34  1  6  0  0  0
 39 35  1  0  0  0  0
 39 38  1  0  0  0  0
 40 45  1  1  0  0  0
 41 37  2  0  0  0  0
 41 40  1  0  0  0  0
 42 43  1  0  0  0  0
 44 42  1  6  0  0  0
 44 43  1  0  0  0  0
 45 46  1  0  0  0  0
 46 47  1  0  0  0  0
 47 49  1  0  0  0  0
 48 49  2  0  0  0  0
 49 50  1  0  0  0  0
M  END
>  <MODEL>
8

>  <REMARK>
 VINA RESULT:      -5.7      3.422      7.467
  Name = 
  18 active torsions:
  status: ('A' for Active; 'I' for Inactive)
    1  A    between atoms: C_2  and  N_40
    2  A    between atoms: C_3  and  C_25
    3  A    between atoms: C_3  and  C_44
    4  A    between atoms: C_4  and  C_19
    5  A    between atoms: C_4  and  C_35
    6  A    between atoms: C_7  and  C_9
    7  A    between atoms: C_7  and  C_43
    8  A    between atoms: C_10  and  C_17
    9  A    between atoms: C_11  and  C_46
   10  A    between atoms: C_12  and  C_35
   11  A    between atoms: C_13  and  C_37
   12  A    between atoms: C_13  and  C_44
   13  A    between atoms: C_17  and  C_38
   14  A    between atoms: C_18  and  C_44
   15  A    between atoms: C_19  and  C_39
   16  A    between atoms: C_21  and  C_48
   17  A    between atoms: C_24  and  C_48
   18  A    between atoms: C_25  and  C_33
                            x       y       z     vdW  Elec       q    Type
                         _______ _______ _______ _____ _____    ______ ____

>  <TORSDO>
F 18

$$$$
=
 OpenBabel11042415493D

 50 54  0  0  1  0  0  0  0  0999 V2000
  191.6300  172.5720  142.1190 C   0  0  2  0  0  3  0  0  0  0  0  0
  189.3890  173.0610  143.3000 C   0  0  2  0  0  3  0  0  0  0  0  0
  191.5280  171.4170  143.1120 C   0  0  2  0  0  3  0  0  0  0  0  0
  190.0200  171.5700  144.1330 S   0  0  0  0  0  0  0  0  0  0  0  0
  189.9700  173.0730  141.5890 S   0  0  0  0  0  0  0  0  0  0  0  0
  193.1810  173.0920  140.1890 C   0  0  0  0  0  0  0  0  0  0  0  0
  193.3960  174.7120  140.5050 S   0  0  0  0  0  0  0  0  0  0  0  0
  194.4910  175.0100  139.2900 N   0  0  0  0  0  0  0  0  0  0  0  0
  194.6530  173.8150  138.6560 C   0  0  0  0  0  0  0  0  0  0  0  0
  193.9630  172.7370  139.1500 N   0  0  0  0  0  0  0  0  0  0  0  0
  192.4180  172.1660  140.9620 N   0  0  0  0  0  2  0  0  0  0  0  0
  195.6260  173.6690  137.5440 C   0  0  0  0  0  2  0  0  0  0  0  0
  195.9250  175.0330  136.9340 C   0  0  0  0  0  2  0  0  0  0  0  0
  195.4460  173.7830  134.9330 O   0  0  0  0  0  1  0  0  0  0  0  0
  195.6940  175.0730  135.4150 C   0  0  2  0  0  0  0  0  0  0  0  0
  196.9520  175.6100  134.7340 C   0  0  0  0  0  2  0  0  0  0  0  0
  197.9310  175.9270  135.6790 O   0  0  0  0  0  1  0  0  0  0  0  0
  193.4280  175.7600  135.9090 O   0  0  0  0  0  1  0  0  0  0  0  0
  194.5050  175.9780  135.0460 C   0  0  1  0  0  3  0  0  0  0  0  0
  194.8700  177.4570  135.0250 C   0  0  0  0  0  2  0  0  0  0  0  0
  193.6130  178.2990  134.9780 C   0  0  0  0  0  1  0  0  0  0  0  0
  193.0670  170.1600  144.4660 O   0  0  0  0  0  0  0  0  0  0  0  0
  192.7740  171.2820  143.9620 C   0  0  0  0  0  0  0  0  0  0  0  0
  193.6300  172.4420  144.2800 C   0  0  0  0  0  0  0  0  0  0  0  0
  193.3970  173.4120  145.2370 C   0  0  0  0  0  3  0  0  0  0  0  0
  194.4780  174.2620  145.1060 C   0  0  0  0  0  0  0  0  0  0  0  0
  194.8220  172.7430  143.6430 C   0  0  0  0  0  3  0  0  0  0  0  0
  195.2980  173.8430  144.1760 O   0  0  0  0  0  0  0  0  0  0  0  0
  194.6840  175.5120  145.8930 C   0  0  0  0  0  2  0  0  0  0  0  0
  193.3640  176.1790  146.2590 C   0  0  0  0  0  0  0  0  0  0  0  0
  192.6210  175.3010  147.0320 F   0  0  0  0  0  0  0  0  0  0  0  0
  193.5990  177.3330  146.9860 F   0  0  0  0  0  0  0  0  0  0  0  0
  192.6500  176.4930  145.1160 F   0  0  0  0  0  0  0  0  0  0  0  0
  189.8290  174.3260  144.0290 C   0  0  0  0  0  2  0  0  0  0  0  0
  188.9670  176.3530  142.9760 N   0  0  0  0  0  2  0  0  0  0  0  0
  187.3910  177.0020  145.3030 C   0  0  2  0  0  3  0  0  0  0  0  0
  188.5440  178.4510  142.0700 O   0  0  0  0  0  0  0  0  0  0  0  0
  188.5900  176.0560  145.3520 C   0  0  0  0  0  2  0  0  0  0  0  0
  188.7120  175.3590  144.0080 C   0  0  2  0  0  3  0  0  0  0  0  0
  187.5610  178.0920  144.2220 C   0  0  1  0  0  3  0  0  0  0  0  0
  188.3480  177.6450  143.0160 C   0  0  0  0  0  0  0  0  0  0  0  0
  185.9850  177.1290  147.3620 C   0  0  0  0  0  2  0  0  0  0  0  0
  185.9640  178.3530  146.6740 O   0  0  0  0  0  0  0  0  0  0  0  0
  187.1910  177.6560  146.6730 C   0  0  2  0  0  3  0  0  0  0  0  0
  186.2070  178.6380  143.7710 C   0  0  0  0  0  2  0  0  0  0  0  0
  185.3760  177.6020  143.0370 C   0  0  0  0  0  2  0  0  0  0  0  0
  184.1490  178.2450  142.4070 C   0  0  0  0  0  2  0  0  0  0  0  0
  183.1010  178.2430  140.1310 O   0  0  0  0  0  0  0  0  0  0  0  0
  184.2600  178.2120  140.9210 C   0  0  0  0  0  0  0  0  0  0  0  0
  185.3960  178.2060  140.3780 O   0  0  0  0  0  1  0  0  0  0  0  0
  1 11  1  6  0  0  0
  1  3  1  0  0  0  0
  2 34  1  1  0  0  0
  2  4  1  0  0  0  0
  3 23  1  1  0  0  0
  3  4  1  0  0  0  0
  5  1  1  0  0  0  0
  5  2  1  0  0  0  0
  6  7  1  0  0  0  0
  6 11  1  0  0  0  0
  8  7  1  0  0  0  0
  9 10  1  0  0  0  0
  9  8  2  0  0  0  0
 10  6  2  0  0  0  0
 12  9  1  0  0  0  0
 13 12  1  0  0  0  0
 15 14  1  6  0  0  0
 15 13  1  0  0  0  0
 16 15  1  0  0  0  0
 16 17  1  0  0  0  0
 19 15  1  0  0  0  0
 19 18  1  1  0  0  0
 20 19  1  0  0  0  0
 21 20  1  0  0  0  0
 23 24  1  0  0  0  0
 23 22  2  0  0  0  0
 24 25  1  0  0  0  0
 26 25  2  0  0  0  0
 26 29  1  0  0  0  0
 27 28  1  0  0  0  0
 27 24  2  0  0  0  0
 28 26  1  0  0  0  0
 29 30  1  0  0  0  0
 30 32  1  0  0  0  0
 30 31  1  0  0  0  0
 33 30  1  0  0  0  0
 35 41  1  0  0  0  0
 35 39  1  0  0  0  0
 36 38  1  1  0  0  0
 36 44  1  0  0  0  0
 37 41  2  0  0  0  0
 39 34  1  1  0  0  0
 39 38  1  0  0  0  0
 40 45  1  6  0  0  0
 40 36  1  0  0  0  0
 41 40  1  0  0  0  0
 43 42  1  0  0  0  0
 44 43  1  0  0  0  0
 44 42  1  1  0  0  0
 46 45  1  0  0  0  0
 47 46  1  0  0  0  0
 48 49  2  0  0  0  0
 49 47  1  0  0  0  0
 50 49  1  0  0  0  0
M  END
>  <MODEL>
9

>  <REMARK>
 VINA RESULT:      -5.7      3.280      8.657
  Name = 
  18 active torsions:
  status: ('A' for Active; 'I' for Inactive)
    1  A    between atoms: C_2  and  N_40
    2  A    between atoms: C_3  and  C_25
    3  A    between atoms: C_3  and  C_44
    4  A    between atoms: C_4  and  C_19
    5  A    between atoms: C_4  and  C_35
    6  A    between atoms: C_7  and  C_9
    7  A    between atoms: C_7  and  C_43
    8  A    between atoms: C_10  and  C_17
    9  A    between atoms: C_11  and  C_46
   10  A    between atoms: C_12  and  C_35
   11  A    between atoms: C_13  and  C_37
   12  A    between atoms: C_13  and  C_44
   13  A    between atoms: C_17  and  C_38
   14  A    between atoms: C_18  and  C_44
   15  A    between atoms: C_19  and  C_39
   16  A    between atoms: C_21  and  C_48
   17  A    between atoms: C_24  and  C_48
   18  A    between atoms: C_25  and  C_33
                            x       y       z     vdW  Elec       q    Type
                         _______ _______ _______ _____ _____    ______ ____

>  <TORSDO>
F 18

$$$$
