=
 OpenBabel11042418093D

 40 45  0  0  1  0  0  0  0  0999 V2000
  187.2610  176.8180  140.9710 C   0  0  0  0  0  3  0  0  0  0  0  0
  187.6170  177.3890  142.1950 C   0  0  0  0  0  0  0  0  0  0  0  0
  188.6090  174.8570  141.4820 C   0  0  0  0  0  0  0  0  0  0  0  0
  188.4700  176.7020  143.0610 C   0  0  0  0  0  3  0  0  0  0  0  0
  187.7490  175.5580  140.6210 C   0  0  0  0  0  3  0  0  0  0  0  0
  188.9660  175.4400  142.7150 C   0  0  0  0  0  0  0  0  0  0  0  0
  190.2530  175.3400  146.0230 C   0  0  0  0  0  2  0  0  0  0  0  0
  189.8370  174.7690  143.6230 N   0  0  0  0  0  0  0  0  0  0  0  0
  192.2580  175.1530  143.8860 C   0  0  0  0  0  2  0  0  0  0  0  0
  192.5100  175.9600  145.1520 C   0  0  1  0  0  3  0  0  0  0  0  0
  191.1350  174.1050  143.9870 C   0  0  1  0  0  3  0  0  0  0  0  0
  190.1530  174.2170  144.9740 C   0  0  1  0  0  3  0  0  0  0  0  0
  191.1900  176.4910  145.6740 C   0  0  0  0  0  2  0  0  0  0  0  0
  193.2540  175.1470  146.2080 C   0  0  0  0  0  2  0  0  0  0  0  0
  194.7650  175.3410  146.0870 C   0  0  2  0  0  3  0  0  0  0  0  0
  195.0230  176.4090  145.2280 O   0  0  0  0  0  1  0  0  0  0  0  0
  194.7700  173.0320  144.8370 C   0  0  0  0  0  1  0  0  0  0  0  0
  197.1750  172.4230  146.0560 O   0  0  0  0  0  1  0  0  0  0  0  0
  196.7560  174.4040  144.9810 O   0  0  0  0  0  0  0  0  0  0  0  0
  195.5340  174.1000  145.6060 C   0  0  1  0  0  0  0  0  0  0  0  0
  196.8380  173.7660  146.2400 C   0  0  1  0  0  3  0  0  0  0  0  0
  189.1220  173.4840  141.1200 C   0  0  1  0  0  3  0  0  0  0  0  0
  188.4990  173.0130  139.8420 C   0  0  0  0  0  2  0  0  0  0  0  0
  190.3980  173.5400  140.4210 N   0  0  0  0  0  2  0  0  0  0  0  0
  189.8090  173.1070  139.2140 N   0  0  0  0  0  0  0  0  0  0  0  0
  191.5310  172.4060  137.1180 O   0  0  0  0  0  0  0  0  0  0  0  0
  191.1590  171.4970  137.9090 C   0  0  0  0  0  0  0  0  0  0  0  0
  190.2650  171.7990  138.9820 N   0  0  0  0  0  2  0  0  0  0  0  0
  190.4500  169.1320  137.9080 C   0  0  0  0  0  2  0  0  0  0  0  0
  190.8760  169.4930  136.5020 C   0  0  0  0  0  2  0  0  0  0  0  0
  191.6090  170.0890  137.6910 C   0  0  0  0  0  3  0  0  0  0  0  0
  187.1200  178.7430  142.5570 C   0  0  0  0  0  2  0  0  0  0  0  0
  185.7430  178.8490  142.2250 O   0  0  0  0  0  0  0  0  0  0  0  0
  183.6250  178.1680  142.8390 O   0  0  0  0  0  0  0  0  0  0  0  0
  184.7400  178.6530  143.1750 C   0  0  0  0  0  0  0  0  0  0  0  0
  184.9940  179.0020  144.5370 N   0  0  0  0  0  2  0  0  0  0  0  0
  183.9910  178.8690  145.5820 C   0  0  0  0  0  2  0  0  0  0  0  0
  184.5850  178.1610  146.7850 C   0  0  0  0  0  2  0  0  0  0  0  0
  185.2060  176.8530  146.3450 C   0  0  0  0  0  2  0  0  0  0  0  0
  186.6540  176.8090  146.7860 C   0  0  0  0  0  1  0  0  0  0  0  0
  1  2  1  0  0  0  0
  2 32  1  0  0  0  0
  2  4  2  0  0  0  0
  3  6  2  0  0  0  0
  5  1  2  0  0  0  0
  5  3  1  0  0  0  0
  6  4  1  0  0  0  0
  6  8  1  0  0  0  0
  8 11  1  0  0  0  0
  8 12  1  0  0  0  0
  9 10  1  0  0  0  0
 10 13  1  0  0  0  0
 10 14  1  1  0  0  0
 11  9  1  1  0  0  0
 11 12  1  0  0  0  0
 12  7  1  1  0  0  0
 13  7  1  0  0  0  0
 15 16  1  6  0  0  0
 15 14  1  0  0  0  0
 19 20  1  0  0  0  0
 19 21  1  0  0  0  0
 20 17  1  6  0  0  0
 20 15  1  0  0  0  0
 20 21  1  0  0  0  0
 21 18  1  6  0  0  0
 22  3  1  6  0  0  0
 23 22  1  0  0  0  0
 24 22  1  0  0  0  0
 25 23  1  0  0  0  0
 25 24  1  0  0  0  0
 26 27  2  0  0  0  0
 27 28  1  0  0  0  0
 28 25  1  0  0  0  0
 30 31  1  0  0  0  0
 30 29  1  0  0  0  0
 31 29  1  0  0  0  0
 31 27  1  0  0  0  0
 33 32  1  0  0  0  0
 33 35  1  0  0  0  0
 34 35  2  0  0  0  0
 35 36  1  0  0  0  0
 36 37  1  0  0  0  0
 37 38  1  0  0  0  0
 39 38  1  0  0  0  0
 39 40  1  0  0  0  0
M  END
>  <MODEL>
1

>  <REMARK>
 VINA RESULT:      -6.9      0.000      0.000
  Name = 
  13 active torsions:
  status: ('A' for Active; 'I' for Inactive)
    1  A    between atoms: C_2  and  C_10
    2  A    between atoms: C_4  and  C_14
    3  A    between atoms: C_4  and  C_36
    4  A    between atoms: C_8  and  C_17
    5  A    between atoms: C_9  and  C_23
    6  A    between atoms: C_9  and  N_33
    7  A    between atoms: N_12  and  C_22
    8  A    between atoms: C_14  and  C_30
    9  A    between atoms: C_15  and  C_37
   10  A    between atoms: C_17  and  O_34
   11  A    between atoms: C_18  and  O_34
   12  A    between atoms: C_19  and  C_23
   13  A    between atoms: N_27  and  N_38
                            x       y       z     vdW  Elec       q    Type
                         _______ _______ _______ _____ _____    ______ ____

>  <TORSDO>
F 13

$$$$
=
 OpenBabel11042418093D

 40 45  0  0  1  0  0  0  0  0999 V2000
  192.6530  173.5240  144.4060 C   0  0  0  0  0  3  0  0  0  0  0  0
  192.1820  174.6930  145.0060 C   0  0  0  0  0  0  0  0  0  0  0  0
  191.2020  173.9120  142.4900 C   0  0  0  0  0  0  0  0  0  0  0  0
  191.2210  175.4700  144.3570 C   0  0  0  0  0  3  0  0  0  0  0  0
  192.1700  173.1400  143.1530 C   0  0  0  0  0  3  0  0  0  0  0  0
  190.7300  175.0910  143.1030 C   0  0  0  0  0  0  0  0  0  0  0  0
  188.6660  177.9650  143.3980 C   0  0  0  0  0  2  0  0  0  0  0  0
  189.7460  175.9070  142.4720 N   0  0  0  0  0  0  0  0  0  0  0  0
  187.3100  175.5310  142.4710 C   0  0  0  0  0  2  0  0  0  0  0  0
  186.6460  176.4960  143.4430 C   0  0  1  0  0  3  0  0  0  0  0  0
  188.4910  176.1110  141.6720 C   0  0  1  0  0  3  0  0  0  0  0  0
  189.1670  177.2420  142.1340 C   0  0  1  0  0  3  0  0  0  0  0  0
  187.7130  177.1680  144.2830 C   0  0  0  0  0  2  0  0  0  0  0  0
  185.7640  177.5140  142.7240 C   0  0  0  0  0  2  0  0  0  0  0  0
  184.4850  177.7880  143.5150 C   0  0  2  0  0  3  0  0  0  0  0  0
  183.5190  178.3120  142.6570 O   0  0  0  0  0  1  0  0  0  0  0  0
  185.3340  180.0740  144.4890 C   0  0  0  0  0  1  0  0  0  0  0  0
  185.2120  178.9910  147.0290 O   0  0  0  0  0  1  0  0  0  0  0  0
  183.5060  178.8610  145.5040 O   0  0  0  0  0  0  0  0  0  0  0  0
  184.6650  178.7270  144.7190 C   0  0  1  0  0  0  0  0  0  0  0  0
  184.5850  178.1650  146.0940 C   0  0  1  0  0  3  0  0  0  0  0  0
  190.6930  173.5160  141.1250 C   0  0  1  0  0  3  0  0  0  0  0  0
  191.5920  172.4880  140.5090 C   0  0  0  0  0  2  0  0  0  0  0  0
  189.6570  172.4950  141.1990 N   0  0  0  0  0  2  0  0  0  0  0  0
  190.5080  171.5240  140.6300 N   0  0  0  0  0  0  0  0  0  0  0  0
  190.8920  169.0990  139.2810 O   0  0  0  0  0  0  0  0  0  0  0  0
  190.2320  170.0010  138.7000 C   0  0  0  0  0  0  0  0  0  0  0  0
  190.0240  171.2640  139.3370 N   0  0  0  0  0  2  0  0  0  0  0  0
  189.8170  171.0480  136.5040 C   0  0  0  0  0  2  0  0  0  0  0  0
  190.8320  169.9450  136.3110 C   0  0  0  0  0  2  0  0  0  0  0  0
  189.7100  169.7720  137.3190 C   0  0  0  0  0  3  0  0  0  0  0  0
  192.6750  175.0870  146.3530 C   0  0  0  0  0  2  0  0  0  0  0  0
  194.0920  175.1890  146.3300 O   0  0  0  0  0  0  0  0  0  0  0  0
  194.5010  177.2920  145.4710 O   0  0  0  0  0  0  0  0  0  0  0  0
  194.7530  176.0570  145.4600 C   0  0  0  0  0  0  0  0  0  0  0  0
  195.7270  175.5280  144.5570 N   0  0  0  0  0  2  0  0  0  0  0  0
  196.4310  176.3550  143.5900 C   0  0  0  0  0  2  0  0  0  0  0  0
  196.1870  175.8340  142.1860 C   0  0  0  0  0  2  0  0  0  0  0  0
  194.7340  176.0400  141.8170 C   0  0  0  0  0  2  0  0  0  0  0  0
  194.4550  175.3810  140.4820 C   0  0  0  0  0  1  0  0  0  0  0  0
  1  2  1  0  0  0  0
  2 32  1  0  0  0  0
  3  6  2  0  0  0  0
  3  5  1  0  0  0  0
  4  2  2  0  0  0  0
  5  1  2  0  0  0  0
  6  4  1  0  0  0  0
  7 13  1  0  0  0  0
  8  6  1  0  0  0  0
  9 10  1  0  0  0  0
 10 14  1  6  0  0  0
 10 13  1  0  0  0  0
 11 12  1  0  0  0  0
 11  9  1  1  0  0  0
 11  8  1  0  0  0  0
 12  8  1  0  0  0  0
 12  7  1  1  0  0  0
 14 15  1  0  0  0  0
 15 16  1  6  0  0  0
 15 20  1  0  0  0  0
 19 21  1  0  0  0  0
 20 17  1  6  0  0  0
 20 19  1  0  0  0  0
 20 21  1  0  0  0  0
 21 18  1  1  0  0  0
 22 24  1  0  0  0  0
 22  3  1  1  0  0  0
 23 25  1  0  0  0  0
 23 22  1  0  0  0  0
 25 24  1  0  0  0  0
 27 26  2  0  0  0  0
 27 28  1  0  0  0  0
 28 25  1  0  0  0  0
 29 31  1  0  0  0  0
 30 29  1  0  0  0  0
 30 31  1  0  0  0  0
 31 27  1  0  0  0  0
 33 32  1  0  0  0  0
 35 34  2  0  0  0  0
 35 33  1  0  0  0  0
 36 35  1  0  0  0  0
 37 36  1  0  0  0  0
 38 37  1  0  0  0  0
 39 38  1  0  0  0  0
 40 39  1  0  0  0  0
M  END
>  <MODEL>
2

>  <REMARK>
 VINA RESULT:      -6.8      2.232      7.994
  Name = 
  13 active torsions:
  status: ('A' for Active; 'I' for Inactive)
    1  A    between atoms: C_2  and  C_10
    2  A    between atoms: C_4  and  C_14
    3  A    between atoms: C_4  and  C_36
    4  A    between atoms: C_8  and  C_17
    5  A    between atoms: C_9  and  C_23
    6  A    between atoms: C_9  and  N_33
    7  A    between atoms: N_12  and  C_22
    8  A    between atoms: C_14  and  C_30
    9  A    between atoms: C_15  and  C_37
   10  A    between atoms: C_17  and  O_34
   11  A    between atoms: C_18  and  O_34
   12  A    between atoms: C_19  and  C_23
   13  A    between atoms: N_27  and  N_38
                            x       y       z     vdW  Elec       q    Type
                         _______ _______ _______ _____ _____    ______ ____

>  <TORSDO>
F 13

$$$$
=
 OpenBabel11042418093D

 40 45  0  0  1  0  0  0  0  0999 V2000
  192.9600  175.3540  146.1360 C   0  0  0  0  0  3  0  0  0  0  0  0
  193.2100  174.2400  145.3330 C   0  0  0  0  0  0  0  0  0  0  0  0
  190.9030  175.7900  144.9070 C   0  0  0  0  0  0  0  0  0  0  0  0
  192.3160  173.9000  144.3160 C   0  0  0  0  0  3  0  0  0  0  0  0
  191.8110  176.1200  145.9280 C   0  0  0  0  0  3  0  0  0  0  0  0
  191.1640  174.6640  144.0990 C   0  0  0  0  0  0  0  0  0  0  0  0
  189.3140  172.0200  142.6180 C   0  0  0  0  0  2  0  0  0  0  0  0
  190.2750  174.2890  143.0490 N   0  0  0  0  0  0  0  0  0  0  0  0
  190.9060  173.6400  140.7570 C   0  0  0  0  0  2  0  0  0  0  0  0
  190.7890  172.1290  140.6050 C   0  0  1  0  0  3  0  0  0  0  0  0
  189.8150  174.3000  141.6190 C   0  0  1  0  0  3  0  0  0  0  0  0
  189.0880  173.5410  142.5380 C   0  0  1  0  0  3  0  0  0  0  0  0
  190.5970  171.5060  141.9740 C   0  0  0  0  0  2  0  0  0  0  0  0
  189.6740  171.7360  139.6400 C   0  0  0  0  0  2  0  0  0  0  0  0
  189.5970  172.7090  138.4640 C   0  0  2  0  0  3  0  0  0  0  0  0
  188.2770  173.1240  138.2970 O   0  0  0  0  0  1  0  0  0  0  0  0
  189.8470  170.6940  136.7990 C   0  0  0  0  0  1  0  0  0  0  0  0
  191.9060  172.0410  135.5400 O   0  0  0  0  0  1  0  0  0  0  0  0
  189.8760  172.9860  136.0330 O   0  0  0  0  0  0  0  0  0  0  0  0
  190.1300  172.1500  137.1350 C   0  0  1  0  0  0  0  0  0  0  0  0
  191.2270  172.8720  136.4340 C   0  0  1  0  0  3  0  0  0  0  0  0
  189.6480  176.5990  144.6920 C   0  0  1  0  0  3  0  0  0  0  0  0
  188.4860  175.9580  145.3880 C   0  0  0  0  0  2  0  0  0  0  0  0
  189.5380  177.7050  145.6330 N   0  0  0  0  0  2  0  0  0  0  0  0
  188.4510  177.0950  146.2960 N   0  0  0  0  0  0  0  0  0  0  0  0
  186.6720  178.0840  148.2200 O   0  0  0  0  0  0  0  0  0  0  0  0
  186.4420  178.3480  147.0090 C   0  0  0  0  0  0  0  0  0  0  0  0
  187.3080  177.8500  145.9870 N   0  0  0  0  0  2  0  0  0  0  0  0
  184.9880  179.0440  145.1390 C   0  0  0  0  0  2  0  0  0  0  0  0
  184.1600  178.2090  146.0880 C   0  0  0  0  0  2  0  0  0  0  0  0
  185.2300  179.1380  146.6350 C   0  0  0  0  0  3  0  0  0  0  0  0
  194.4480  173.4400  145.5360 C   0  0  0  0  0  2  0  0  0  0  0  0
  195.5390  174.3100  145.8000 O   0  0  0  0  0  0  0  0  0  0  0  0
  197.3630  174.2710  144.3870 O   0  0  0  0  0  0  0  0  0  0  0  0
  196.3130  174.8520  144.7740 C   0  0  0  0  0  0  0  0  0  0  0  0
  195.8980  176.0750  144.1600 N   0  0  0  0  0  2  0  0  0  0  0  0
  196.6680  176.7290  143.1130 C   0  0  0  0  0  2  0  0  0  0  0  0
  195.9990  176.5180  141.7690 C   0  0  0  0  0  2  0  0  0  0  0  0
  194.5220  176.2600  141.9750 C   0  0  0  0  0  2  0  0  0  0  0  0
  194.1110  175.0290  141.1960 C   0  0  0  0  0  1  0  0  0  0  0  0
  2 32  1  0  0  0  0
  2  1  2  0  0  0  0
  3  5  2  0  0  0  0
  4  2  1  0  0  0  0
  5  1  1  0  0  0  0
  6  4  2  0  0  0  0
  6  3  1  0  0  0  0
  8  6  1  0  0  0  0
 10 14  1  6  0  0  0
 10  9  1  0  0  0  0
 10 13  1  0  0  0  0
 11  9  1  6  0  0  0
 11 12  1  0  0  0  0
 11  8  1  0  0  0  0
 12  7  1  6  0  0  0
 12  8  1  0  0  0  0
 13  7  1  0  0  0  0
 15 16  1  6  0  0  0
 15 14  1  0  0  0  0
 19 21  1  0  0  0  0
 19 20  1  0  0  0  0
 20 17  1  6  0  0  0
 20 15  1  0  0  0  0
 21 18  1  6  0  0  0
 21 20  1  0  0  0  0
 22  3  1  1  0  0  0
 22 23  1  0  0  0  0
 22 24  1  0  0  0  0
 23 25  1  0  0  0  0
 24 25  1  0  0  0  0
 27 26  2  0  0  0  0
 28 25  1  0  0  0  0
 28 27  1  0  0  0  0
 29 30  1  0  0  0  0
 29 31  1  0  0  0  0
 30 31  1  0  0  0  0
 31 27  1  0  0  0  0
 32 33  1  0  0  0  0
 34 35  2  0  0  0  0
 35 33  1  0  0  0  0
 36 35  1  0  0  0  0
 37 36  1  0  0  0  0
 38 39  1  0  0  0  0
 38 37  1  0  0  0  0
 40 39  1  0  0  0  0
M  END
>  <MODEL>
3

>  <REMARK>
 VINA RESULT:      -6.5      2.498      9.518
  Name = 
  13 active torsions:
  status: ('A' for Active; 'I' for Inactive)
    1  A    between atoms: C_2  and  C_10
    2  A    between atoms: C_4  and  C_14
    3  A    between atoms: C_4  and  C_36
    4  A    between atoms: C_8  and  C_17
    5  A    between atoms: C_9  and  C_23
    6  A    between atoms: C_9  and  N_33
    7  A    between atoms: N_12  and  C_22
    8  A    between atoms: C_14  and  C_30
    9  A    between atoms: C_15  and  C_37
   10  A    between atoms: C_17  and  O_34
   11  A    between atoms: C_18  and  O_34
   12  A    between atoms: C_19  and  C_23
   13  A    between atoms: N_27  and  N_38
                            x       y       z     vdW  Elec       q    Type
                         _______ _______ _______ _____ _____    ______ ____

>  <TORSDO>
F 13

$$$$
=
 OpenBabel11042418093D

 40 45  0  0  1  0  0  0  0  0999 V2000
  188.5410  177.8640  142.8550 C   0  0  0  0  0  3  0  0  0  0  0  0
  187.7210  177.2940  141.8780 C   0  0  0  0  0  0  0  0  0  0  0  0
  189.7880  175.7800  143.0380 C   0  0  0  0  0  0  0  0  0  0  0  0
  187.9280  175.9710  141.4820 C   0  0  0  0  0  3  0  0  0  0  0  0
  189.5710  177.1140  143.4260 C   0  0  0  0  0  3  0  0  0  0  0  0
  188.9560  175.2120  142.0520 C   0  0  0  0  0  0  0  0  0  0  0  0
  191.0000  172.9510  140.2300 C   0  0  0  0  0  2  0  0  0  0  0  0
  189.1350  173.8630  141.6260 N   0  0  0  0  0  0  0  0  0  0  0  0
  188.1270  172.8070  139.6400 C   0  0  0  0  0  2  0  0  0  0  0  0
  189.1770  172.6780  138.5440 C   0  0  1  0  0  3  0  0  0  0  0  0
  188.6370  172.5580  141.0710 C   0  0  1  0  0  3  0  0  0  0  0  0
  189.9970  172.6720  141.3650 C   0  0  1  0  0  3  0  0  0  0  0  0
  190.4020  173.4830  138.9330 C   0  0  0  0  0  2  0  0  0  0  0  0
  189.5240  171.2200  138.2550 C   0  0  0  0  0  2  0  0  0  0  0  0
  190.3710  171.0980  136.9880 C   0  0  2  0  0  3  0  0  0  0  0  0
  189.5290  170.9740  135.8840 O   0  0  0  0  0  1  0  0  0  0  0  0
  190.8630  168.5410  137.3180 C   0  0  0  0  0  1  0  0  0  0  0  0
  193.5500  169.1320  137.5820 O   0  0  0  0  0  1  0  0  0  0  0  0
  192.2310  169.9230  135.8820 O   0  0  0  0  0  0  0  0  0  0  0  0
  191.3770  169.9360  136.9990 C   0  0  1  0  0  0  0  0  0  0  0  0
  192.8290  170.2370  137.1230 C   0  0  1  0  0  3  0  0  0  0  0  0
  190.9140  174.9720  143.6330 C   0  0  1  0  0  3  0  0  0  0  0  0
  192.2160  175.3290  142.9830 C   0  0  0  0  0  2  0  0  0  0  0  0
  191.4230  175.5600  144.8650 N   0  0  0  0  0  2  0  0  0  0  0  0
  192.6450  175.9070  144.2490 N   0  0  0  0  0  0  0  0  0  0  0  0
  194.9560  176.8340  145.5330 O   0  0  0  0  0  0  0  0  0  0  0  0
  194.7820  175.5880  145.4520 C   0  0  0  0  0  0  0  0  0  0  0  0
  193.6290  175.0640  144.7900 N   0  0  0  0  0  2  0  0  0  0  0  0
  195.7550  173.3270  145.2690 C   0  0  0  0  0  2  0  0  0  0  0  0
  196.8350  174.3290  144.9310 C   0  0  0  0  0  2  0  0  0  0  0  0
  195.8100  174.6550  146.0030 C   0  0  0  0  0  3  0  0  0  0  0  0
  186.6070  178.0830  141.2900 C   0  0  0  0  0  2  0  0  0  0  0  0
  186.1100  178.9990  142.2560 O   0  0  0  0  0  0  0  0  0  0  0  0
  184.1430  177.9020  142.7600 O   0  0  0  0  0  0  0  0  0  0  0  0
  185.0820  178.6550  143.1350 C   0  0  0  0  0  0  0  0  0  0  0  0
  185.1110  179.1620  144.4710 N   0  0  0  0  0  2  0  0  0  0  0  0
  184.0590  178.8860  145.4380 C   0  0  0  0  0  2  0  0  0  0  0  0
  184.6530  178.2660  146.6880 C   0  0  0  0  0  2  0  0  0  0  0  0
  185.1160  176.8580  146.3810 C   0  0  0  0  0  2  0  0  0  0  0  0
  186.6220  176.7800  146.5210 C   0  0  0  0  0  1  0  0  0  0  0  0
  1  5  1  0  0  0  0
  2  1  2  0  0  0  0
  3  5  2  0  0  0  0
  4  2  1  0  0  0  0
  4  6  2  0  0  0  0
  6  3  1  0  0  0  0
  8  6  1  0  0  0  0
 10 14  1  1  0  0  0
 10 13  1  0  0  0  0
 10  9  1  0  0  0  0
 11  9  1  6  0  0  0
 11 12  1  0  0  0  0
 11  8  1  0  0  0  0
 12  7  1  6  0  0  0
 12  8  1  0  0  0  0
 13  7  1  0  0  0  0
 15 16  1  6  0  0  0
 15 20  1  0  0  0  0
 15 14  1  0  0  0  0
 19 20  1  0  0  0  0
 19 21  1  0  0  0  0
 20 21  1  0  0  0  0
 20 17  1  1  0  0  0
 21 18  1  1  0  0  0
 22  3  1  6  0  0  0
 22 24  1  0  0  0  0
 23 22  1  0  0  0  0
 23 25  1  0  0  0  0
 25 28  1  0  0  0  0
 25 24  1  0  0  0  0
 27 26  2  0  0  0  0
 27 31  1  0  0  0  0
 28 27  1  0  0  0  0
 29 31  1  0  0  0  0
 30 29  1  0  0  0  0
 30 31  1  0  0  0  0
 32  2  1  0  0  0  0
 32 33  1  0  0  0  0
 33 35  1  0  0  0  0
 34 35  2  0  0  0  0
 35 36  1  0  0  0  0
 36 37  1  0  0  0  0
 37 38  1  0  0  0  0
 39 40  1  0  0  0  0
 39 38  1  0  0  0  0
M  END
>  <MODEL>
4

>  <REMARK>
 VINA RESULT:      -6.4      1.674      6.802
  Name = 
  13 active torsions:
  status: ('A' for Active; 'I' for Inactive)
    1  A    between atoms: C_2  and  C_10
    2  A    between atoms: C_4  and  C_14
    3  A    between atoms: C_4  and  C_36
    4  A    between atoms: C_8  and  C_17
    5  A    between atoms: C_9  and  C_23
    6  A    between atoms: C_9  and  N_33
    7  A    between atoms: N_12  and  C_22
    8  A    between atoms: C_14  and  C_30
    9  A    between atoms: C_15  and  C_37
   10  A    between atoms: C_17  and  O_34
   11  A    between atoms: C_18  and  O_34
   12  A    between atoms: C_19  and  C_23
   13  A    between atoms: N_27  and  N_38
                            x       y       z     vdW  Elec       q    Type
                         _______ _______ _______ _____ _____    ______ ____

>  <TORSDO>
F 13

$$$$
=
 OpenBabel11042418093D

 40 45  0  0  1  0  0  0  0  0999 V2000
  186.6240  176.4470  139.1690 C   0  0  0  0  0  3  0  0  0  0  0  0
  186.6110  177.0930  140.4080 C   0  0  0  0  0  0  0  0  0  0  0  0
  188.2730  174.8610  140.0030 C   0  0  0  0  0  0  0  0  0  0  0  0
  187.4270  176.6310  141.4420 C   0  0  0  0  0  3  0  0  0  0  0  0
  187.4450  175.3360  138.9710 C   0  0  0  0  0  3  0  0  0  0  0  0
  188.2550  175.5190  141.2500 C   0  0  0  0  0  0  0  0  0  0  0  0
  188.9260  175.7660  144.7280 C   0  0  0  0  0  2  0  0  0  0  0  0
  189.0780  175.0780  142.3280 N   0  0  0  0  0  0  0  0  0  0  0  0
  191.2690  176.0040  142.9740 C   0  0  0  0  0  2  0  0  0  0  0  0
  191.1090  176.8670  144.2180 C   0  0  1  0  0  3  0  0  0  0  0  0
  190.4050  174.7310  142.9420 C   0  0  1  0  0  3  0  0  0  0  0  0
  189.2640  174.6330  143.7410 C   0  0  1  0  0  3  0  0  0  0  0  0
  189.6330  177.0940  144.4790 C   0  0  0  0  0  2  0  0  0  0  0  0
  191.8140  176.2610  145.4280 C   0  0  0  0  0  2  0  0  0  0  0  0
  192.9920  175.3870  144.9970 C   0  0  2  0  0  3  0  0  0  0  0  0
  193.0180  174.2330  145.7790 O   0  0  0  0  0  1  0  0  0  0  0  0
  194.5760  177.1570  146.1160 C   0  0  0  0  0  1  0  0  0  0  0  0
  196.2190  177.0300  143.8980 O   0  0  0  0  0  1  0  0  0  0  0  0
  195.4460  175.1860  145.0200 O   0  0  0  0  0  0  0  0  0  0  0  0
  194.3620  176.0810  145.0630 C   0  0  1  0  0  0  0  0  0  0  0  0
  195.2670  176.0080  143.8840 C   0  0  1  0  0  3  0  0  0  0  0  0
  189.1450  173.6460  139.8030 C   0  0  1  0  0  3  0  0  0  0  0  0
  188.4000  172.5850  139.0530 C   0  0  0  0  0  2  0  0  0  0  0  0
  190.0200  173.7810  138.6460 N   0  0  0  0  0  2  0  0  0  0  0  0
  189.3100  172.7890  137.9360 N   0  0  0  0  0  0  0  0  0  0  0  0
  189.5240  171.1600  135.6670 O   0  0  0  0  0  0  0  0  0  0  0  0
  190.2340  170.8760  136.6690 C   0  0  0  0  0  0  0  0  0  0  0  0
  190.1480  171.6640  137.8580 N   0  0  0  0  0  2  0  0  0  0  0  0
  191.7230  169.4340  138.0090 C   0  0  0  0  0  2  0  0  0  0  0  0
  190.5650  168.5900  137.5270 C   0  0  0  0  0  2  0  0  0  0  0  0
  191.1290  169.6810  136.6340 C   0  0  0  0  0  3  0  0  0  0  0  0
  185.7580  178.2930  140.6110 C   0  0  0  0  0  2  0  0  0  0  0  0
  185.8750  178.7390  141.9550 O   0  0  0  0  0  0  0  0  0  0  0  0
  183.6700  178.2960  142.4750 O   0  0  0  0  0  0  0  0  0  0  0  0
  184.8280  178.6070  142.8680 C   0  0  0  0  0  0  0  0  0  0  0  0
  185.0850  178.8210  144.2580 N   0  0  0  0  0  2  0  0  0  0  0  0
  184.0420  178.7440  145.2690 C   0  0  0  0  0  2  0  0  0  0  0  0
  184.6300  178.2700  146.5850 C   0  0  0  0  0  2  0  0  0  0  0  0
  186.1280  178.4830  146.5740 C   0  0  0  0  0  2  0  0  0  0  0  0
  186.6420  178.5290  147.9980 C   0  0  0  0  0  1  0  0  0  0  0  0
  1  2  1  0  0  0  0
  2 32  1  0  0  0  0
  2  4  2  0  0  0  0
  3  6  2  0  0  0  0
  5  1  2  0  0  0  0
  5  3  1  0  0  0  0
  6  4  1  0  0  0  0
  6  8  1  0  0  0  0
  8 11  1  0  0  0  0
  8 12  1  0  0  0  0
  9 10  1  0  0  0  0
 10 13  1  0  0  0  0
 10 14  1  1  0  0  0
 11  9  1  1  0  0  0
 11 12  1  0  0  0  0
 12  7  1  1  0  0  0
 13  7  1  0  0  0  0
 15 20  1  0  0  0  0
 15 14  1  0  0  0  0
 15 16  1  1  0  0  0
 19 20  1  0  0  0  0
 20 17  1  1  0  0  0
 21 18  1  1  0  0  0
 21 19  1  0  0  0  0
 21 20  1  0  0  0  0
 22  3  1  6  0  0  0
 23 22  1  0  0  0  0
 24 22  1  0  0  0  0
 25 24  1  0  0  0  0
 25 23  1  0  0  0  0
 26 27  2  0  0  0  0
 27 28  1  0  0  0  0
 28 25  1  0  0  0  0
 30 29  1  0  0  0  0
 31 27  1  0  0  0  0
 31 30  1  0  0  0  0
 31 29  1  0  0  0  0
 32 33  1  0  0  0  0
 33 35  1  0  0  0  0
 34 35  2  0  0  0  0
 35 36  1  0  0  0  0
 36 37  1  0  0  0  0
 37 38  1  0  0  0  0
 39 38  1  0  0  0  0
 39 40  1  0  0  0  0
M  END
>  <MODEL>
5

>  <REMARK>
 VINA RESULT:      -6.4      1.572      2.022
  Name = 
  13 active torsions:
  status: ('A' for Active; 'I' for Inactive)
    1  A    between atoms: C_2  and  C_10
    2  A    between atoms: C_4  and  C_14
    3  A    between atoms: C_4  and  C_36
    4  A    between atoms: C_8  and  C_17
    5  A    between atoms: C_9  and  C_23
    6  A    between atoms: C_9  and  N_33
    7  A    between atoms: N_12  and  C_22
    8  A    between atoms: C_14  and  C_30
    9  A    between atoms: C_15  and  C_37
   10  A    between atoms: C_17  and  O_34
   11  A    between atoms: C_18  and  O_34
   12  A    between atoms: C_19  and  C_23
   13  A    between atoms: N_27  and  N_38
                            x       y       z     vdW  Elec       q    Type
                         _______ _______ _______ _____ _____    ______ ____

>  <TORSDO>
F 13

$$$$
=
 OpenBabel11042418093D

 40 45  0  0  1  0  0  0  0  0999 V2000
  189.0900  177.0650  146.7870 C   0  0  0  0  0  3  0  0  0  0  0  0
  187.8290  176.7280  146.2900 C   0  0  0  0  0  0  0  0  0  0  0  0
  190.1110  176.3800  144.6850 C   0  0  0  0  0  0  0  0  0  0  0  0
  187.7050  176.2140  144.9970 C   0  0  0  0  0  3  0  0  0  0  0  0
  190.2220  176.8970  145.9870 C   0  0  0  0  0  3  0  0  0  0  0  0
  188.8350  176.0410  144.1910 C   0  0  0  0  0  0  0  0  0  0  0  0
  187.6210  173.3280  142.2480 C   0  0  0  0  0  2  0  0  0  0  0  0
  188.6700  175.5100  142.8770 N   0  0  0  0  0  0  0  0  0  0  0  0
  190.3380  174.2280  141.5940 C   0  0  0  0  0  2  0  0  0  0  0  0
  189.9660  172.7520  141.6070 C   0  0  1  0  0  3  0  0  0  0  0  0
  189.1530  175.2050  141.4880 C   0  0  1  0  0  3  0  0  0  0  0  0
  187.8670  174.7930  141.8420 C   0  0  1  0  0  3  0  0  0  0  0  0
  188.8630  172.5270  142.6230 C   0  0  0  0  0  2  0  0  0  0  0  0
  189.5710  172.2510  140.2210 C   0  0  0  0  0  2  0  0  0  0  0  0
  190.3920  171.0220  139.8270 C   0  0  2  0  0  3  0  0  0  0  0  0
  191.5480  170.9740  140.6060 O   0  0  0  0  0  1  0  0  0  0  0  0
  191.4420  172.1690  137.7120 C   0  0  0  0  0  1  0  0  0  0  0  0
  190.1990  170.2820  136.1210 O   0  0  0  0  0  1  0  0  0  0  0  0
  191.4340  169.7670  137.9830 O   0  0  0  0  0  0  0  0  0  0  0  0
  190.7730  170.9560  138.3400 C   0  0  1  0  0  0  0  0  0  0  0  0
  190.1270  169.9340  137.4720 C   0  0  1  0  0  3  0  0  0  0  0  0
  191.3270  176.2180  143.8060 C   0  0  1  0  0  3  0  0  0  0  0  0
  192.3590  177.2490  144.1470 C   0  0  0  0  0  2  0  0  0  0  0  0
  192.2430  175.2050  144.3150 N   0  0  0  0  0  2  0  0  0  0  0  0
  193.2100  176.1790  144.6460 N   0  0  0  0  0  0  0  0  0  0  0  0
  195.7690  175.3120  145.3840 O   0  0  0  0  0  0  0  0  0  0  0  0
  195.5560  175.5590  144.1660 C   0  0  0  0  0  0  0  0  0  0  0  0
  194.2730  176.0230  143.7410 N   0  0  0  0  0  2  0  0  0  0  0  0
  196.4460  176.3790  142.0150 C   0  0  0  0  0  2  0  0  0  0  0  0
  197.4500  176.7150  143.0940 C   0  0  0  0  0  2  0  0  0  0  0  0
  196.6620  175.4190  143.1720 C   0  0  0  0  0  3  0  0  0  0  0  0
  186.6260  176.8800  147.1510 C   0  0  0  0  0  2  0  0  0  0  0  0
  186.0950  178.1890  147.0010 O   0  0  0  0  0  0  0  0  0  0  0  0
  183.8070  178.3870  146.7680 O   0  0  0  0  0  0  0  0  0  0  0  0
  184.9520  178.4360  146.2400 C   0  0  0  0  0  0  0  0  0  0  0  0
  185.0940  178.7530  144.8530 N   0  0  0  0  0  2  0  0  0  0  0  0
  183.9530  178.9840  143.9800 C   0  0  0  0  0  2  0  0  0  0  0  0
  184.1040  178.1760  142.7050 C   0  0  0  0  0  2  0  0  0  0  0  0
  185.4590  177.5030  142.6920 C   0  0  0  0  0  2  0  0  0  0  0  0
  186.2950  178.0750  141.5660 C   0  0  0  0  0  1  0  0  0  0  0  0
  2  1  1  0  0  0  0
  2 32  1  0  0  0  0
  3  5  1  0  0  0  0
  4  2  2  0  0  0  0
  5  1  2  0  0  0  0
  6  3  2  0  0  0  0
  6  4  1  0  0  0  0
  7 13  1  0  0  0  0
  8  6  1  0  0  0  0
  9 10  1  0  0  0  0
 10 14  1  6  0  0  0
 10 13  1  0  0  0  0
 11  9  1  1  0  0  0
 11 12  1  0  0  0  0
 11  8  1  0  0  0  0
 12  7  1  1  0  0  0
 12  8  1  0  0  0  0
 15 14  1  0  0  0  0
 15 16  1  1  0  0  0
 19 20  1  0  0  0  0
 20 17  1  6  0  0  0
 20 15  1  0  0  0  0
 21 18  1  6  0  0  0
 21 19  1  0  0  0  0
 21 20  1  0  0  0  0
 22 23  1  0  0  0  0
 22 24  1  0  0  0  0
 22  3  1  1  0  0  0
 23 25  1  0  0  0  0
 24 25  1  0  0  0  0
 27 26  2  0  0  0  0
 28 27  1  0  0  0  0
 28 25  1  0  0  0  0
 29 30  1  0  0  0  0
 29 31  1  0  0  0  0
 30 31  1  0  0  0  0
 31 27  1  0  0  0  0
 33 32  1  0  0  0  0
 35 34  2  0  0  0  0
 35 33  1  0  0  0  0
 36 35  1  0  0  0  0
 37 36  1  0  0  0  0
 38 37  1  0  0  0  0
 39 38  1  0  0  0  0
 40 39  1  0  0  0  0
M  END
>  <MODEL>
6

>  <REMARK>
 VINA RESULT:      -6.4      2.301      6.714
  Name = 
  13 active torsions:
  status: ('A' for Active; 'I' for Inactive)
    1  A    between atoms: C_2  and  C_10
    2  A    between atoms: C_4  and  C_14
    3  A    between atoms: C_4  and  C_36
    4  A    between atoms: C_8  and  C_17
    5  A    between atoms: C_9  and  C_23
    6  A    between atoms: C_9  and  N_33
    7  A    between atoms: N_12  and  C_22
    8  A    between atoms: C_14  and  C_30
    9  A    between atoms: C_15  and  C_37
   10  A    between atoms: C_17  and  O_34
   11  A    between atoms: C_18  and  O_34
   12  A    between atoms: C_19  and  C_23
   13  A    between atoms: N_27  and  N_38
                            x       y       z     vdW  Elec       q    Type
                         _______ _______ _______ _____ _____    ______ ____

>  <TORSDO>
F 13

$$$$
=
 OpenBabel11042418093D

 40 45  0  0  1  0  0  0  0  0999 V2000
  194.7870  174.9830  142.9710 C   0  0  0  0  0  3  0  0  0  0  0  0
  194.3550  175.4380  144.2180 C   0  0  0  0  0  0  0  0  0  0  0  0
  192.4840  174.5100  142.3360 C   0  0  0  0  0  0  0  0  0  0  0  0
  192.9940  175.4280  144.5300 C   0  0  0  0  0  3  0  0  0  0  0  0
  193.8570  174.5280  142.0340 C   0  0  0  0  0  3  0  0  0  0  0  0
  192.0560  174.9710  143.5980 C   0  0  0  0  0  0  0  0  0  0  0  0
  189.1410  176.9440  144.0630 C   0  0  0  0  0  2  0  0  0  0  0  0
  190.6750  174.9710  143.9530 N   0  0  0  0  0  0  0  0  0  0  0  0
  189.7470  175.0620  146.2340 C   0  0  0  0  0  2  0  0  0  0  0  0
  189.2190  176.4630  146.5130 C   0  0  1  0  0  3  0  0  0  0  0  0
  189.5130  174.5440  144.8040 C   0  0  1  0  0  3  0  0  0  0  0  0
  189.2700  175.4390  143.7600 C   0  0  1  0  0  3  0  0  0  0  0  0
  189.6840  177.3970  145.4130 C   0  0  0  0  0  2  0  0  0  0  0  0
  187.7010  176.4800  146.6680 C   0  0  0  0  0  2  0  0  0  0  0  0
  187.1700  177.9130  146.7170 C   0  0  2  0  0  3  0  0  0  0  0  0
  186.9470  178.2750  148.0450 O   0  0  0  0  0  1  0  0  0  0  0  0
  184.8120  177.0780  145.9200 C   0  0  0  0  0  1  0  0  0  0  0  0
  184.8810  178.9480  143.8860 O   0  0  0  0  0  1  0  0  0  0  0  0
  185.3390  179.4320  146.0800 O   0  0  0  0  0  0  0  0  0  0  0  0
  185.8900  178.1510  145.8990 C   0  0  1  0  0  0  0  0  0  0  0  0
  185.9040  179.1660  144.8120 C   0  0  1  0  0  3  0  0  0  0  0  0
  191.4720  174.0420  141.3200 C   0  0  1  0  0  3  0  0  0  0  0  0
  192.1500  173.6680  140.0380 C   0  0  0  0  0  2  0  0  0  0  0  0
  191.1290  172.6360  141.4920 N   0  0  0  0  0  2  0  0  0  0  0  0
  191.7790  172.2830  140.2900 N   0  0  0  0  0  0  0  0  0  0  0  0
  191.6920  169.8390  138.9240 O   0  0  0  0  0  0  0  0  0  0  0  0
  190.7670  170.6680  138.7130 C   0  0  0  0  0  0  0  0  0  0  0  0
  190.7760  171.9380  139.3690 N   0  0  0  0  0  2  0  0  0  0  0  0
  189.3790  171.5650  136.8790 C   0  0  0  0  0  2  0  0  0  0  0  0
  190.2310  170.4500  136.3170 C   0  0  0  0  0  2  0  0  0  0  0  0
  189.6870  170.3470  137.7320 C   0  0  0  0  0  3  0  0  0  0  0  0
  195.3480  175.8970  145.2260 C   0  0  0  0  0  2  0  0  0  0  0  0
  195.6890  174.8180  146.0850 O   0  0  0  0  0  0  0  0  0  0  0  0
  197.7520  174.1760  145.2760 O   0  0  0  0  0  0  0  0  0  0  0  0
  196.6160  173.8450  145.7110 C   0  0  0  0  0  0  0  0  0  0  0  0
  196.2640  172.4650  145.8330 N   0  0  0  0  0  2  0  0  0  0  0  0
  197.1550  171.3890  145.4270 C   0  0  0  0  0  2  0  0  0  0  0  0
  196.4280  170.0600  145.4950 C   0  0  0  0  0  2  0  0  0  0  0  0
  196.4250  169.5600  146.9240 C   0  0  0  0  0  2  0  0  0  0  0  0
  195.0880  168.9170  147.2300 C   0  0  0  0  0  1  0  0  0  0  0  0
  1  2  1  0  0  0  0
  2  4  2  0  0  0  0
  2 32  1  0  0  0  0
  3  6  2  0  0  0  0
  5  3  1  0  0  0  0
  5  1  2  0  0  0  0
  6  8  1  0  0  0  0
  6  4  1  0  0  0  0
  7 13  1  0  0  0  0
  8 11  1  0  0  0  0
  9 10  1  0  0  0  0
 10 14  1  6  0  0  0
 11  9  1  1  0  0  0
 12  8  1  0  0  0  0
 12  7  1  1  0  0  0
 12 11  1  0  0  0  0
 13 10  1  0  0  0  0
 14 15  1  0  0  0  0
 15 16  1  1  0  0  0
 20 17  1  6  0  0  0
 20 19  1  0  0  0  0
 20 15  1  0  0  0  0
 21 18  1  6  0  0  0
 21 20  1  0  0  0  0
 21 19  1  0  0  0  0
 22 24  1  0  0  0  0
 22  3  1  1  0  0  0
 23 25  1  0  0  0  0
 23 22  1  0  0  0  0
 25 24  1  0  0  0  0
 27 26  2  0  0  0  0
 27 28  1  0  0  0  0
 28 25  1  0  0  0  0
 29 31  1  0  0  0  0
 30 29  1  0  0  0  0
 30 31  1  0  0  0  0
 31 27  1  0  0  0  0
 32 33  1  0  0  0  0
 34 35  2  0  0  0  0
 35 36  1  0  0  0  0
 35 33  1  0  0  0  0
 37 38  1  0  0  0  0
 37 36  1  0  0  0  0
 38 39  1  0  0  0  0
 39 40  1  0  0  0  0
M  END
>  <MODEL>
7

>  <REMARK>
 VINA RESULT:      -6.3      2.516      8.273
  Name = 
  13 active torsions:
  status: ('A' for Active; 'I' for Inactive)
    1  A    between atoms: C_2  and  C_10
    2  A    between atoms: C_4  and  C_14
    3  A    between atoms: C_4  and  C_36
    4  A    between atoms: C_8  and  C_17
    5  A    between atoms: C_9  and  C_23
    6  A    between atoms: C_9  and  N_33
    7  A    between atoms: N_12  and  C_22
    8  A    between atoms: C_14  and  C_30
    9  A    between atoms: C_15  and  C_37
   10  A    between atoms: C_17  and  O_34
   11  A    between atoms: C_18  and  O_34
   12  A    between atoms: C_19  and  C_23
   13  A    between atoms: N_27  and  N_38
                            x       y       z     vdW  Elec       q    Type
                         _______ _______ _______ _____ _____    ______ ____

>  <TORSDO>
F 13

$$$$
=
 OpenBabel11042418093D

 40 45  0  0  1  0  0  0  0  0999 V2000
  188.7250  177.5770  145.7380 C   0  0  0  0  0  3  0  0  0  0  0  0
  187.6900  176.6770  145.4780 C   0  0  0  0  0  0  0  0  0  0  0  0
  190.2650  176.1900  144.4600 C   0  0  0  0  0  0  0  0  0  0  0  0
  187.9370  175.5340  144.7150 C   0  0  0  0  0  3  0  0  0  0  0  0
  190.0020  177.3380  145.2270 C   0  0  0  0  0  3  0  0  0  0  0  0
  189.2150  175.2860  144.2020 C   0  0  0  0  0  0  0  0  0  0  0  0
  190.7200  173.9100  141.2950 C   0  0  0  0  0  2  0  0  0  0  0  0
  189.4310  174.1060  143.4300 N   0  0  0  0  0  0  0  0  0  0  0  0
  187.9130  173.1660  141.7310 C   0  0  0  0  0  2  0  0  0  0  0  0
  188.4530  173.4730  140.3410 C   0  0  1  0  0  3  0  0  0  0  0  0
  188.9780  172.8250  142.7890 C   0  0  1  0  0  3  0  0  0  0  0  0
  190.3050  173.2180  142.6070 C   0  0  1  0  0  3  0  0  0  0  0  0
  189.5810  174.4790  140.4570 C   0  0  0  0  0  2  0  0  0  0  0  0
  188.8940  172.2080  139.6080 C   0  0  0  0  0  2  0  0  0  0  0  0
  189.3880  172.5350  138.1990 C   0  0  2  0  0  3  0  0  0  0  0  0
  188.3710  173.1760  137.4930 O   0  0  0  0  0  1  0  0  0  0  0  0
  189.7150  169.9370  138.0050 C   0  0  0  0  0  1  0  0  0  0  0  0
  191.5510  170.3590  135.9830 O   0  0  0  0  0  1  0  0  0  0  0  0
  189.4790  171.3370  136.0490 O   0  0  0  0  0  0  0  0  0  0  0  0
  189.8820  171.3200  137.3960 C   0  0  1  0  0  0  0  0  0  0  0  0
  190.8580  171.5310  136.2920 C   0  0  1  0  0  3  0  0  0  0  0  0
  191.6370  175.9380  143.8840 C   0  0  1  0  0  3  0  0  0  0  0  0
  192.5480  177.0900  144.1780 C   0  0  0  0  0  2  0  0  0  0  0  0
  192.4620  175.1230  144.7660 N   0  0  0  0  0  2  0  0  0  0  0  0
  193.3130  176.2120  145.0520 N   0  0  0  0  0  0  0  0  0  0  0  0
  195.4620  174.9210  146.3020 O   0  0  0  0  0  0  0  0  0  0  0  0
  195.5990  175.2680  145.0990 C   0  0  0  0  0  0  0  0  0  0  0  0
  194.5400  175.9480  144.4210 N   0  0  0  0  0  2  0  0  0  0  0  0
  197.6220  173.8540  145.0390 C   0  0  0  0  0  2  0  0  0  0  0  0
  196.8680  173.6460  143.7450 C   0  0  0  0  0  2  0  0  0  0  0  0
  196.8920  175.0190  144.3930 C   0  0  0  0  0  3  0  0  0  0  0  0
  186.3360  176.9170  146.0450 C   0  0  0  0  0  2  0  0  0  0  0  0
  185.9360  178.2530  145.7750 O   0  0  0  0  0  0  0  0  0  0  0  0
  184.8780  179.7740  144.3990 O   0  0  0  0  0  0  0  0  0  0  0  0
  185.3370  178.6110  144.5670 C   0  0  0  0  0  0  0  0  0  0  0  0
  185.2570  177.6450  143.5160 N   0  0  0  0  0  2  0  0  0  0  0  0
  184.6120  177.9240  142.2420 C   0  0  0  0  0  2  0  0  0  0  0  0
  185.6180  177.7970  141.1130 C   0  0  0  0  0  2  0  0  0  0  0  0
  186.7660  176.9180  141.5570 C   0  0  0  0  0  2  0  0  0  0  0  0
  188.0420  177.7330  141.5910 C   0  0  0  0  0  1  0  0  0  0  0  0
  2  1  1  0  0  0  0
  2 32  1  0  0  0  0
  3  5  1  0  0  0  0
  4  2  2  0  0  0  0
  5  1  2  0  0  0  0
  6  3  2  0  0  0  0
  6  4  1  0  0  0  0
  8  6  1  0  0  0  0
 10 14  1  1  0  0  0
 10 13  1  0  0  0  0
 10  9  1  0  0  0  0
 11  9  1  6  0  0  0
 11  8  1  0  0  0  0
 12  7  1  6  0  0  0
 12 11  1  0  0  0  0
 12  8  1  0  0  0  0
 13  7  1  0  0  0  0
 15 16  1  6  0  0  0
 15 14  1  0  0  0  0
 19 21  1  0  0  0  0
 19 20  1  0  0  0  0
 20 17  1  1  0  0  0
 20 15  1  0  0  0  0
 21 18  1  6  0  0  0
 21 20  1  0  0  0  0
 22 23  1  0  0  0  0
 22  3  1  1  0  0  0
 22 24  1  0  0  0  0
 23 25  1  0  0  0  0
 24 25  1  0  0  0  0
 27 26  2  0  0  0  0
 28 25  1  0  0  0  0
 28 27  1  0  0  0  0
 30 31  1  0  0  0  0
 30 29  1  0  0  0  0
 31 29  1  0  0  0  0
 31 27  1  0  0  0  0
 33 32  1  0  0  0  0
 34 35  2  0  0  0  0
 35 33  1  0  0  0  0
 36 35  1  0  0  0  0
 37 36  1  0  0  0  0
 38 39  1  0  0  0  0
 38 37  1  0  0  0  0
 39 40  1  0  0  0  0
M  END
>  <MODEL>
8

>  <REMARK>
 VINA RESULT:      -6.2      2.048      7.080
  Name = 
  13 active torsions:
  status: ('A' for Active; 'I' for Inactive)
    1  A    between atoms: C_2  and  C_10
    2  A    between atoms: C_4  and  C_14
    3  A    between atoms: C_4  and  C_36
    4  A    between atoms: C_8  and  C_17
    5  A    between atoms: C_9  and  C_23
    6  A    between atoms: C_9  and  N_33
    7  A    between atoms: N_12  and  C_22
    8  A    between atoms: C_14  and  C_30
    9  A    between atoms: C_15  and  C_37
   10  A    between atoms: C_17  and  O_34
   11  A    between atoms: C_18  and  O_34
   12  A    between atoms: C_19  and  C_23
   13  A    between atoms: N_27  and  N_38
                            x       y       z     vdW  Elec       q    Type
                         _______ _______ _______ _____ _____    ______ ____

>  <TORSDO>
F 13

$$$$
=
 OpenBabel11042418093D

 40 45  0  0  1  0  0  0  0  0999 V2000
  194.0490  171.7680  143.1080 C   0  0  0  0  0  3  0  0  0  0  0  0
  193.8480  172.6220  144.1940 C   0  0  0  0  0  0  0  0  0  0  0  0
  192.3820  172.9930  141.8240 C   0  0  0  0  0  0  0  0  0  0  0  0
  192.9150  173.6570  144.1030 C   0  0  0  0  0  3  0  0  0  0  0  0
  193.3250  171.9570  141.9290 C   0  0  0  0  0  3  0  0  0  0  0  0
  192.1840  173.8510  142.9260 C   0  0  0  0  0  0  0  0  0  0  0  0
  191.3770  177.1270  144.0300 C   0  0  0  0  0  2  0  0  0  0  0  0
  191.2370  174.9160  142.8700 N   0  0  0  0  0  0  0  0  0  0  0  0
  189.2150  175.1540  144.2580 C   0  0  0  0  0  2  0  0  0  0  0  0
  189.4570  176.2040  145.3340 C   0  0  1  0  0  3  0  0  0  0  0  0
  189.8380  175.4640  142.8850 C   0  0  1  0  0  3  0  0  0  0  0  0
  190.8980  176.3670  142.7800 C   0  0  1  0  0  3  0  0  0  0  0  0
  190.9330  176.5480  145.3690 C   0  0  0  0  0  2  0  0  0  0  0  0
  188.5900  177.4430  145.1290 C   0  0  0  0  0  2  0  0  0  0  0  0
  187.3910  177.4370  146.0770 C   0  0  2  0  0  3  0  0  0  0  0  0
  187.4670  176.3180  146.9060 O   0  0  0  0  0  1  0  0  0  0  0  0
  185.8930  176.7970  144.0170 C   0  0  0  0  0  1  0  0  0  0  0  0
  184.0430  178.6840  144.8270 O   0  0  0  0  0  1  0  0  0  0  0  0
  184.9540  177.1090  146.2220 O   0  0  0  0  0  0  0  0  0  0  0  0
  186.0210  177.4640  145.3780 C   0  0  1  0  0  0  0  0  0  0  0  0
  185.0070  178.4610  145.8130 C   0  0  1  0  0  3  0  0  0  0  0  0
  191.6140  173.2180  140.5450 C   0  0  1  0  0  3  0  0  0  0  0  0
  192.3070  172.5560  139.3940 C   0  0  0  0  0  2  0  0  0  0  0  0
  190.5290  172.2600  140.3800 N   0  0  0  0  0  2  0  0  0  0  0  0
  191.1880  171.6290  139.3030 N   0  0  0  0  0  0  0  0  0  0  0  0
  190.3730  169.7320  137.4100 O   0  0  0  0  0  0  0  0  0  0  0  0
  190.0590  170.9370  137.2140 C   0  0  0  0  0  0  0  0  0  0  0  0
  190.4680  171.9460  138.1400 N   0  0  0  0  0  2  0  0  0  0  0  0
  189.8500  172.6200  135.4210 C   0  0  0  0  0  2  0  0  0  0  0  0
  190.2340  171.3040  134.7830 C   0  0  0  0  0  2  0  0  0  0  0  0
  189.3030  171.3200  135.9830 C   0  0  0  0  0  3  0  0  0  0  0  0
  194.5990  172.4040  145.4600 C   0  0  0  0  0  2  0  0  0  0  0  0
  195.4260  173.5290  145.7220 O   0  0  0  0  0  0  0  0  0  0  0  0
  197.3490  173.2440  144.4790 O   0  0  0  0  0  0  0  0  0  0  0  0
  196.3740  173.9750  144.8010 C   0  0  0  0  0  0  0  0  0  0  0  0
  196.2220  175.2730  144.2200 N   0  0  0  0  0  2  0  0  0  0  0  0
  197.1860  175.8310  143.2830 C   0  0  0  0  0  2  0  0  0  0  0  0
  196.4620  176.5180  142.1420 C   0  0  0  0  0  2  0  0  0  0  0  0
  194.9990  176.1320  142.1670 C   0  0  0  0  0  2  0  0  0  0  0  0
  194.5750  175.6710  140.7880 C   0  0  0  0  0  1  0  0  0  0  0  0
  1  2  1  0  0  0  0
  2 32  1  0  0  0  0
  3  5  1  0  0  0  0
  3  6  2  0  0  0  0
  4  2  2  0  0  0  0
  5  1  2  0  0  0  0
  6  4  1  0  0  0  0
  7 13  1  0  0  0  0
  8 11  1  0  0  0  0
  8  6  1  0  0  0  0
  9 10  1  0  0  0  0
 10 14  1  6  0  0  0
 10 13  1  0  0  0  0
 11  9  1  1  0  0  0
 12  8  1  0  0  0  0
 12 11  1  0  0  0  0
 12  7  1  1  0  0  0
 14 15  1  0  0  0  0
 15 16  1  6  0  0  0
 20 17  1  6  0  0  0
 20 21  1  0  0  0  0
 20 15  1  0  0  0  0
 20 19  1  0  0  0  0
 21 18  1  6  0  0  0
 21 19  1  0  0  0  0
 22  3  1  1  0  0  0
 23 22  1  0  0  0  0
 24 22  1  0  0  0  0
 25 23  1  0  0  0  0
 25 24  1  0  0  0  0
 27 26  2  0  0  0  0
 27 28  1  0  0  0  0
 28 25  1  0  0  0  0
 29 31  1  0  0  0  0
 30 29  1  0  0  0  0
 30 31  1  0  0  0  0
 31 27  1  0  0  0  0
 32 33  1  0  0  0  0
 34 35  2  0  0  0  0
 35 33  1  0  0  0  0
 36 35  1  0  0  0  0
 37 36  1  0  0  0  0
 38 39  1  0  0  0  0
 38 37  1  0  0  0  0
 40 39  1  0  0  0  0
M  END
>  <MODEL>
9

>  <REMARK>
 VINA RESULT:      -6.2      2.565      7.991
  Name = 
  13 active torsions:
  status: ('A' for Active; 'I' for Inactive)
    1  A    between atoms: C_2  and  C_10
    2  A    between atoms: C_4  and  C_14
    3  A    between atoms: C_4  and  C_36
    4  A    between atoms: C_8  and  C_17
    5  A    between atoms: C_9  and  C_23
    6  A    between atoms: C_9  and  N_33
    7  A    between atoms: N_12  and  C_22
    8  A    between atoms: C_14  and  C_30
    9  A    between atoms: C_15  and  C_37
   10  A    between atoms: C_17  and  O_34
   11  A    between atoms: C_18  and  O_34
   12  A    between atoms: C_19  and  C_23
   13  A    between atoms: N_27  and  N_38
                            x       y       z     vdW  Elec       q    Type
                         _______ _______ _______ _____ _____    ______ ____

>  <TORSDO>
F 13

$$$$
