=
 OpenBabel11042415413D

 46 53  0  0  1  0  0  0  0  0999 V2000
  191.8690  172.1730  141.9950 C   0  0  0  0  0  3  0  0  0  0  0  0
  188.5310  175.2680  143.2590 C   0  0  0  0  0  0  0  0  0  0  0  0
  190.1280  174.3970  145.0940 C   0  0  0  0  0  2  0  0  0  0  0  0
  185.6510  177.6230  143.4320 C   0  0  0  0  0  0  0  0  0  0  0  0
  193.2810  174.7450  144.4430 C   0  0  2  0  0  3  0  0  0  0  0  0
  187.2170  173.1940  141.6040 O   0  0  0  0  0  0  0  0  0  0  0  0
  189.1220  174.4570  142.2150 N   0  0  0  0  0  0  0  0  0  0  0  0
  188.4700  173.3100  141.6630 C   0  0  0  0  0  0  0  0  0  0  0  0
  192.8190  176.7800  145.5680 O   0  0  0  0  0  0  0  0  0  0  0  0
  189.4200  172.2420  141.2160 C   0  0  0  0  0  2  0  0  0  0  0  0
  189.3990  175.0880  147.6450 C   0  0  0  0  0  2  0  0  0  0  0  0
  184.9650  178.3270  144.3700 N   0  0  0  0  0  0  0  0  0  0  0  0
  192.8060  172.8250  142.8150 C   0  0  0  0  0  3  0  0  0  0  0  0
  188.1680  175.9400  145.6040 C   0  0  0  0  0  0  0  0  0  0  0  0
  187.0930  176.7440  145.1820 C   0  0  0  0  0  0  0  0  0  0  0  0
  191.4800  174.8520  142.7520 C   0  0  0  0  0  3  0  0  0  0  0  0
  190.7980  175.5550  147.2470 C   0  0  1  0  0  3  0  0  0  0  0  0
  190.5000  174.1580  142.0760 C   0  0  0  0  0  0  0  0  0  0  0  0
  188.4090  175.8790  146.9920 O   0  0  0  0  0  0  0  0  0  0  0  0
  192.3830  175.6290  145.2960 C   0  0  0  0  0  0  0  0  0  0  0  0
  192.5840  174.1550  143.2390 C   0  0  0  0  0  0  0  0  0  0  0  0
  187.4450  176.0600  142.8880 C   0  0  0  0  0  3  0  0  0  0  0  0
  191.1080  175.2000  145.8540 N   0  0  0  0  0  0  0  0  0  0  0  0
  188.9420  175.2300  144.6370 C   0  0  0  0  0  0  0  0  0  0  0  0
  185.2900  178.2740  145.6890 C   0  0  0  0  0  3  0  0  0  0  0  0
  190.7040  172.8600  141.6490 C   0  0  0  0  0  0  0  0  0  0  0  0
  185.2270  177.7300  142.0040 C   0  0  0  0  0  1  0  0  0  0  0  0
  186.7360  176.8120  143.8200 C   0  0  0  0  0  0  0  0  0  0  0  0
  186.3550  177.4830  146.1160 C   0  0  0  0  0  3  0  0  0  0  0  0
  191.4720  177.0790  148.7100 C   0  0  0  0  0  1  0  0  0  0  0  0
  190.8990  176.9370  147.4450 O   0  0  0  0  0  0  0  0  0  0  0  0
  193.9630  173.7100  145.3350 C   0  0  0  0  0  2  0  0  0  0  0  0
  195.4340  173.6970  145.0960 C   0  0  0  0  0  0  0  0  0  0  0  0
  196.1390  172.7710  145.5810 O   0  0  0  0  0  0  0  0  0  0  0  0
  196.0340  174.7430  144.3310 N   0  0  0  0  0  2  0  0  0  0  0  0
  197.4580  174.7830  144.0280 C   0  0  0  0  0  2  0  0  0  0  0  0
  197.7080  172.4220  141.4450 C   0  0  0  0  0  1  0  0  0  0  0  0
  194.6780  176.4430  141.4420 C   0  0  0  0  0  1  0  0  0  0  0  0
  197.7100  175.5790  142.7560 C   0  0  2  0  0  3  0  0  0  0  0  0
  196.7950  176.8130  142.7350 C   0  0  0  0  0  2  0  0  0  0  0  0
  197.9410  173.7730  140.7970 C   0  0  2  0  0  3  0  0  0  0  0  0
  197.2030  174.8460  141.5450 C   0  0  2  0  0  3  0  0  0  0  0  0
  197.2120  173.8240  139.4490 C   0  0  0  0  0  2  0  0  0  0  0  0
  196.1530  176.8290  141.3350 C   0  0  1  0  0  3  0  0  0  0  0  0
  196.9450  175.8660  140.5780 N   0  0  2  0  0  0  0  0  0  0  0  0
  196.3640  175.1060  139.4900 C   0  0  0  0  0  2  0  0  0  0  0  0
  1 13  1  0  0  0  0
  2 24  1  0  0  0  0
  3 23  1  0  0  0  0
  4 28  2  0  0  0  0
  4 12  1  0  0  0  0
  5 20  1  0  0  0  0
  5 32  1  1  0  0  0
  6  8  2  0  0  0  0
  7  2  1  0  0  0  0
  8  7  1  0  0  0  0
 10 26  1  0  0  0  0
 10  8  1  0  0  0  0
 12 25  2  0  0  0  0
 13 21  2  0  0  0  0
 14 19  1  0  0  0  0
 15 14  1  0  0  0  0
 15 29  2  0  0  0  0
 16 21  1  0  0  0  0
 17 31  1  6  0  0  0
 17 11  1  0  0  0  0
 18  7  1  0  0  0  0
 18 16  2  0  0  0  0
 19 11  1  0  0  0  0
 20  9  2  0  0  0  0
 20 23  1  0  0  0  0
 21  5  1  0  0  0  0
 22  2  2  0  0  0  0
 22 28  1  0  0  0  0
 23 17  1  0  0  0  0
 24  3  1  0  0  0  0
 24 14  2  0  0  0  0
 25 29  1  0  0  0  0
 26  1  2  0  0  0  0
 26 18  1  0  0  0  0
 27  4  1  0  0  0  0
 28 15  1  0  0  0  0
 31 30  1  0  0  0  0
 33 32  1  0  0  0  0
 33 34  2  0  0  0  0
 35 33  1  0  0  0  0
 36 35  1  0  0  0  0
 39 36  1  1  0  0  0
 40 39  1  0  0  0  0
 41 37  1  1  0  0  0
 41 42  1  0  0  0  0
 42 39  1  0  0  0  0
 43 46  1  0  0  0  0
 43 41  1  0  0  0  0
 44 38  1  0  0  0  0
 44 40  1  0  0  0  0
 45 44  1  0  0  0  0
 45 42  1  0  0  0  0
 46 45  1  0  0  0  0
M  END
>  <MODEL>
1

>  <REMARK>
 VINA RESULT:      -9.2      0.000      0.000
  Name = 
  5 active torsions:
  status: ('A' for Active; 'I' for Inactive)
    1  A    between atoms: C_5  and  C_29
    2  A    between atoms: C_9  and  C_29
    3  A    between atoms: C_15  and  C_20
    4  A    between atoms: C_20  and  N_34
    5  A    between atoms: C_24  and  O_33
                            x       y       z     vdW  Elec       q    Type
                         _______ _______ _______ _____ _____    ______ ____

>  <TORSDO>
F 5

$$$$
=
 OpenBabel11042415413D

 46 53  0  0  1  0  0  0  0  0999 V2000
  192.6080  175.2120  146.7760 C   0  0  0  0  0  3  0  0  0  0  0  0
  188.3010  177.0340  146.1020 C   0  0  0  0  0  0  0  0  0  0  0  0
  189.7370  176.5220  144.0160 C   0  0  0  0  0  2  0  0  0  0  0  0
  184.8980  178.5090  146.4350 C   0  0  0  0  0  0  0  0  0  0  0  0
  190.8670  173.4930  143.8410 C   0  0  2  0  0  3  0  0  0  0  0  0
  189.6150  178.6540  148.2040 O   0  0  0  0  0  0  0  0  0  0  0  0
  189.3260  176.6170  147.0370 N   0  0  0  0  0  0  0  0  0  0  0  0
  190.0740  177.5420  147.8300 C   0  0  0  0  0  0  0  0  0  0  0  0
  188.8070  173.2790  142.6900 O   0  0  0  0  0  0  0  0  0  0  0  0
  191.4700  177.0840  148.1230 C   0  0  0  0  0  2  0  0  0  0  0  0
  188.7070  177.5000  141.6710 C   0  0  0  0  0  2  0  0  0  0  0  0
  183.9300  179.0290  145.6340 N   0  0  0  0  0  0  0  0  0  0  0  0
  192.4210  174.3310  145.6990 C   0  0  0  0  0  3  0  0  0  0  0  0
  187.4600  177.6540  143.8680 C   0  0  0  0  0  0  0  0  0  0  0  0
  186.2730  178.1120  144.4690 C   0  0  0  0  0  0  0  0  0  0  0  0
  190.0170  174.5560  145.9060 C   0  0  0  0  0  3  0  0  0  0  0  0
  188.9340  175.9900  141.6710 C   0  0  1  0  0  3  0  0  0  0  0  0
  190.2170  175.5300  146.8590 C   0  0  0  0  0  0  0  0  0  0  0  0
  187.5780  177.8320  142.4740 O   0  0  0  0  0  0  0  0  0  0  0  0
  189.6460  174.0930  143.1600 C   0  0  0  0  0  0  0  0  0  0  0  0
  191.1200  174.0420  145.2260 C   0  0  0  0  0  0  0  0  0  0  0  0
  187.1180  177.5200  146.6570 C   0  0  0  0  0  3  0  0  0  0  0  0
  189.4360  175.5210  142.9710 N   0  0  0  0  0  0  0  0  0  0  0  0
  188.4740  177.0540  144.6740 C   0  0  0  0  0  0  0  0  0  0  0  0
  184.0790  179.1130  144.2860 C   0  0  0  0  0  3  0  0  0  0  0  0
  191.4820  175.8190  147.3360 C   0  0  0  0  0  0  0  0  0  0  0  0
  184.6580  178.4570  147.9070 C   0  0  0  0  0  1  0  0  0  0  0  0
  186.0970  178.0360  145.8650 C   0  0  0  0  0  0  0  0  0  0  0  0
  185.2510  178.6590  143.6830 C   0  0  0  0  0  3  0  0  0  0  0  0
  187.8070  175.1580  139.9520 C   0  0  0  0  0  1  0  0  0  0  0  0
  187.7400  175.3430  141.3350 O   0  0  0  0  0  0  0  0  0  0  0  0
  192.0690  173.5960  142.9040 C   0  0  0  0  0  2  0  0  0  0  0  0
  192.8540  172.3300  142.9140 C   0  0  0  0  0  0  0  0  0  0  0  0
  192.5910  171.4230  142.0780 O   0  0  0  0  0  0  0  0  0  0  0  0
  193.8890  172.1480  143.8810 N   0  0  0  0  0  2  0  0  0  0  0  0
  194.7190  170.9540  143.9350 C   0  0  0  0  0  2  0  0  0  0  0  0
  195.9970  172.7430  141.2000 C   0  0  0  0  0  1  0  0  0  0  0  0
  196.0800  174.2830  145.9930 C   0  0  0  0  0  1  0  0  0  0  0  0
  196.1510  171.3150  144.3030 C   0  0  2  0  0  3  0  0  0  0  0  0
  196.2000  171.7890  145.7640 C   0  0  0  0  0  2  0  0  0  0  0  0
  197.1330  172.6430  142.1990 C   0  0  2  0  0  3  0  0  0  0  0  0
  196.5940  172.5680  143.5990 C   0  0  2  0  0  3  0  0  0  0  0  0
  197.8760  173.9830  142.2600 C   0  0  0  0  0  2  0  0  0  0  0  0
  197.0120  173.0960  145.7500 C   0  0  1  0  0  3  0  0  0  0  0  0
  197.6260  173.1100  144.4260 N   0  0  2  0  0  0  0  0  0  0  0  0
  197.9260  174.3570  143.7510 C   0  0  0  0  0  2  0  0  0  0  0  0
  1 26  1  0  0  0  0
  2 22  1  0  0  0  0
  2  7  1  0  0  0  0
  3 24  1  0  0  0  0
  4 27  1  0  0  0  0
  5 32  1  6  0  0  0
  5 21  1  0  0  0  0
  7  8  1  0  0  0  0
  8 10  1  0  0  0  0
  8  6  2  0  0  0  0
  9 20  2  0  0  0  0
 11 19  1  0  0  0  0
 12  4  2  0  0  0  0
 13  1  2  0  0  0  0
 14 15  2  0  0  0  0
 14 24  1  0  0  0  0
 15 28  1  0  0  0  0
 16 18  1  0  0  0  0
 17 31  1  1  0  0  0
 17 11  1  0  0  0  0
 17 23  1  0  0  0  0
 18  7  1  0  0  0  0
 18 26  2  0  0  0  0
 19 14  1  0  0  0  0
 20  5  1  0  0  0  0
 21 13  1  0  0  0  0
 21 16  2  0  0  0  0
 23 20  1  0  0  0  0
 23  3  1  0  0  0  0
 24  2  2  0  0  0  0
 25 12  1  0  0  0  0
 26 10  1  0  0  0  0
 28  4  1  0  0  0  0
 28 22  2  0  0  0  0
 29 25  2  0  0  0  0
 29 15  1  0  0  0  0
 30 31  1  0  0  0  0
 32 33  1  0  0  0  0
 33 35  1  0  0  0  0
 34 33  2  0  0  0  0
 35 36  1  0  0  0  0
 39 36  1  6  0  0  0
 39 40  1  0  0  0  0
 41 37  1  6  0  0  0
 41 43  1  0  0  0  0
 41 42  1  0  0  0  0
 42 39  1  0  0  0  0
 42 45  1  0  0  0  0
 43 46  1  0  0  0  0
 44 40  1  0  0  0  0
 44 38  1  0  0  0  0
 45 44  1  0  0  0  0
 46 45  1  0  0  0  0
M  END
>  <MODEL>
2

>  <REMARK>
 VINA RESULT:      -9.0      2.179      4.824
  Name = 
  5 active torsions:
  status: ('A' for Active; 'I' for Inactive)
    1  A    between atoms: C_5  and  C_29
    2  A    between atoms: C_9  and  C_29
    3  A    between atoms: C_15  and  C_20
    4  A    between atoms: C_20  and  N_34
    5  A    between atoms: C_24  and  O_33
                            x       y       z     vdW  Elec       q    Type
                         _______ _______ _______ _____ _____    ______ ____

>  <TORSDO>
F 5

$$$$
=
 OpenBabel11042415413D

 46 53  0  0  1  0  0  0  0  0999 V2000
  195.3650  175.1030  146.1150 C   0  0  0  0  0  3  0  0  0  0  0  0
  194.6070  174.8270  141.4610 C   0  0  0  0  0  0  0  0  0  0  0  0
  192.6480  174.2440  143.0400 C   0  0  0  0  0  2  0  0  0  0  0  0
  194.8530  174.7990  137.7440 C   0  0  0  0  0  0  0  0  0  0  0  0
  191.9290  176.5200  145.2290 C   0  0  2  0  0  3  0  0  0  0  0  0
  197.1640  173.4390  142.0120 O   0  0  0  0  0  0  0  0  0  0  0  0
  195.5400  175.0760  142.5400 N   0  0  0  0  0  0  0  0  0  0  0  0
  196.6050  174.1800  142.8650 C   0  0  0  0  0  0  0  0  0  0  0  0
  190.5200  177.1530  143.4310 O   0  0  0  0  0  0  0  0  0  0  0  0
  196.9530  174.1690  144.3220 C   0  0  0  0  0  2  0  0  0  0  0  0
  190.4790  173.1340  141.7840 C   0  0  0  0  0  2  0  0  0  0  0  0
  194.0810  174.4730  136.6750 N   0  0  0  0  0  0  0  0  0  0  0  0
  194.1010  175.6870  146.3030 C   0  0  0  0  0  3  0  0  0  0  0  0
  192.4870  174.0000  140.5100 C   0  0  0  0  0  0  0  0  0  0  0  0
  193.0280  174.1650  139.2220 C   0  0  0  0  0  0  0  0  0  0  0  0
  194.0630  176.3940  143.9850 C   0  0  0  0  0  3  0  0  0  0  0  0
  190.1640  174.4110  142.5600 C   0  0  1  0  0  3  0  0  0  0  0  0
  195.2290  175.6900  143.7790 C   0  0  0  0  0  0  0  0  0  0  0  0
  191.1940  173.4430  140.5910 O   0  0  0  0  0  0  0  0  0  0  0  0
  191.2600  176.2430  143.8910 C   0  0  0  0  0  0  0  0  0  0  0  0
  193.4220  176.2900  145.2190 C   0  0  0  0  0  0  0  0  0  0  0  0
  195.1110  174.9540  140.1660 C   0  0  0  0  0  3  0  0  0  0  0  0
  191.3750  174.9850  143.1660 N   0  0  0  0  0  0  0  0  0  0  0  0
  193.2530  174.3840  141.6530 C   0  0  0  0  0  0  0  0  0  0  0  0
  192.8150  174.0000  136.8180 C   0  0  0  0  0  3  0  0  0  0  0  0
  195.9070  175.1010  144.8290 C   0  0  0  0  0  0  0  0  0  0  0  0
  196.2350  175.3060  137.5010 C   0  0  0  0  0  1  0  0  0  0  0  0
  194.3390  174.6520  139.0490 C   0  0  0  0  0  0  0  0  0  0  0  0
  192.2690  173.8370  138.0910 C   0  0  0  0  0  3  0  0  0  0  0  0
  188.3350  174.7400  141.3510 C   0  0  0  0  0  1  0  0  0  0  0  0
  189.5490  175.3330  141.7060 O   0  0  0  0  0  0  0  0  0  0  0  0
  191.1910  175.7610  146.3290 C   0  0  0  0  0  2  0  0  0  0  0  0
  189.9560  176.4890  146.7330 C   0  0  0  0  0  0  0  0  0  0  0  0
  190.0480  177.6040  147.3150 O   0  0  0  0  0  0  0  0  0  0  0  0
  188.6760  175.9110  146.4700 N   0  0  0  0  0  2  0  0  0  0  0  0
  187.4250  176.5740  146.8060 C   0  0  0  0  0  2  0  0  0  0  0  0
  184.8070  178.8060  147.4990 C   0  0  0  0  0  1  0  0  0  0  0  0
  187.2520  178.4430  143.1120 C   0  0  0  0  0  1  0  0  0  0  0  0
  186.4020  176.3780  145.6970 C   0  0  2  0  0  3  0  0  0  0  0  0
  187.1270  176.2640  144.3470 C   0  0  0  0  0  2  0  0  0  0  0  0
  184.3910  178.0510  146.2510 C   0  0  2  0  0  3  0  0  0  0  0  0
  185.6000  177.6290  145.4670 C   0  0  2  0  0  3  0  0  0  0  0  0
  183.7440  179.0250  145.2590 C   0  0  0  0  0  2  0  0  0  0  0  0
  186.3830  177.2170  143.3940 C   0  0  1  0  0  3  0  0  0  0  0  0
  185.1540  177.5370  144.1120 N   0  0  2  0  0  0  0  0  0  0  0  0
  184.4880  178.8120  143.9300 C   0  0  0  0  0  2  0  0  0  0  0  0
  1 13  1  0  0  0  0
  2 24  1  0  0  0  0
  2  7  1  0  0  0  0
  3 23  1  0  0  0  0
  4 28  1  0  0  0  0
  5 32  1  1  0  0  0
  6  8  2  0  0  0  0
  7  8  1  0  0  0  0
  7 18  1  0  0  0  0
  8 10  1  0  0  0  0
  9 20  2  0  0  0  0
 10 26  1  0  0  0  0
 11 17  1  0  0  0  0
 12 25  1  0  0  0  0
 12  4  2  0  0  0  0
 14 19  1  0  0  0  0
 14 24  2  0  0  0  0
 15 14  1  0  0  0  0
 16 21  1  0  0  0  0
 17 31  1  6  0  0  0
 17 23  1  0  0  0  0
 18 16  2  0  0  0  0
 18 26  1  0  0  0  0
 19 11  1  0  0  0  0
 20  5  1  0  0  0  0
 21  5  1  0  0  0  0
 21 13  2  0  0  0  0
 22  2  2  0  0  0  0
 23 20  1  0  0  0  0
 24  3  1  0  0  0  0
 25 29  2  0  0  0  0
 26  1  2  0  0  0  0
 27  4  1  0  0  0  0
 28 15  2  0  0  0  0
 28 22  1  0  0  0  0
 29 15  1  0  0  0  0
 30 31  1  0  0  0  0
 32 33  1  0  0  0  0
 33 34  2  0  0  0  0
 35 33  1  0  0  0  0
 35 36  1  0  0  0  0
 38 44  1  0  0  0  0
 39 36  1  1  0  0  0
 40 39  1  0  0  0  0
 41 37  1  1  0  0  0
 42 39  1  0  0  0  0
 42 41  1  0  0  0  0
 43 41  1  0  0  0  0
 44 45  1  0  0  0  0
 44 40  1  0  0  0  0
 45 42  1  0  0  0  0
 46 45  1  0  0  0  0
 46 43  1  0  0  0  0
M  END
>  <MODEL>
3

>  <REMARK>
 VINA RESULT:      -9.0      2.203      8.872
  Name = 
  5 active torsions:
  status: ('A' for Active; 'I' for Inactive)
    1  A    between atoms: C_5  and  C_29
    2  A    between atoms: C_9  and  C_29
    3  A    between atoms: C_15  and  C_20
    4  A    between atoms: C_20  and  N_34
    5  A    between atoms: C_24  and  O_33
                            x       y       z     vdW  Elec       q    Type
                         _______ _______ _______ _____ _____    ______ ____

>  <TORSDO>
F 5

$$$$
=
 OpenBabel11042415413D

 46 53  0  0  1  0  0  0  0  0999 V2000
  192.6920  175.2080  146.8880 C   0  0  0  0  0  3  0  0  0  0  0  0
  188.3890  177.0370  146.2110 C   0  0  0  0  0  0  0  0  0  0  0  0
  189.8200  176.5090  144.1250 C   0  0  0  0  0  2  0  0  0  0  0  0
  184.9900  178.5230  146.5400 C   0  0  0  0  0  0  0  0  0  0  0  0
  190.9420  173.4760  143.9660 C   0  0  2  0  0  3  0  0  0  0  0  0
  189.7110  178.6660  148.3000 O   0  0  0  0  0  0  0  0  0  0  0  0
  189.4140  176.6230  147.1460 N   0  0  0  0  0  0  0  0  0  0  0  0
  190.1660  177.5500  147.9320 C   0  0  0  0  0  0  0  0  0  0  0  0
  188.8780  173.2610  142.8200 O   0  0  0  0  0  0  0  0  0  0  0  0
  191.5610  177.0900  148.2250 C   0  0  0  0  0  2  0  0  0  0  0  0
  188.7880  177.4760  141.7760 C   0  0  0  0  0  2  0  0  0  0  0  0
  184.0220  179.0410  145.7390 N   0  0  0  0  0  0  0  0  0  0  0  0
  192.5010  174.3200  145.8160 C   0  0  0  0  0  3  0  0  0  0  0  0
  187.5460  177.6460  143.9740 C   0  0  0  0  0  0  0  0  0  0  0  0
  186.3610  178.1110  144.5740 C   0  0  0  0  0  0  0  0  0  0  0  0
  190.0980  174.5530  146.0260 C   0  0  0  0  0  3  0  0  0  0  0  0
  189.0110  175.9660  141.7850 C   0  0  1  0  0  3  0  0  0  0  0  0
  190.3020  175.5330  146.9730 C   0  0  0  0  0  0  0  0  0  0  0  0
  187.6620  177.8150  142.5790 O   0  0  0  0  0  0  0  0  0  0  0  0
  189.7210  174.0750  143.2840 C   0  0  0  0  0  0  0  0  0  0  0  0
  191.1980  174.0320  145.3470 C   0  0  0  0  0  0  0  0  0  0  0  0
  187.2080  177.5300  146.7640 C   0  0  0  0  0  3  0  0  0  0  0  0
  189.5150  175.5030  143.0870 N   0  0  0  0  0  0  0  0  0  0  0  0
  188.5600  177.0480  144.7820 C   0  0  0  0  0  0  0  0  0  0  0  0
  184.1690  179.1170  144.3900 C   0  0  0  0  0  3  0  0  0  0  0  0
  191.5690  175.8210  147.4460 C   0  0  0  0  0  0  0  0  0  0  0  0
  184.7530  178.4810  148.0130 C   0  0  0  0  0  1  0  0  0  0  0  0
  186.1870  178.0440  145.9710 C   0  0  0  0  0  0  0  0  0  0  0  0
  185.3390  178.6560  143.7870 C   0  0  0  0  0  3  0  0  0  0  0  0
  187.8250  175.2320  140.0610 C   0  0  0  0  0  1  0  0  0  0  0  0
  187.8140  175.3190  141.4540 O   0  0  0  0  0  0  0  0  0  0  0  0
  192.1420  173.5700  143.0260 C   0  0  0  0  0  2  0  0  0  0  0  0
  192.2350  172.3550  142.1690 C   0  0  0  0  0  0  0  0  0  0  0  0
  192.3470  171.2180  142.7040 O   0  0  0  0  0  0  0  0  0  0  0  0
  192.2120  172.4890  140.7470 N   0  0  0  0  0  2  0  0  0  0  0  0
  192.2680  171.3480  139.8450 C   0  0  0  0  0  2  0  0  0  0  0  0
  191.5410  173.8190  137.4610 C   0  0  0  0  0  1  0  0  0  0  0  0
  191.2460  168.8500  136.7010 C   0  0  0  0  0  1  0  0  0  0  0  0
  190.8810  171.0220  139.3120 C   0  0  2  0  0  3  0  0  0  0  0  0
  190.7680  169.5080  139.0730 C   0  0  0  0  0  2  0  0  0  0  0  0
  190.3140  172.9300  137.5260 C   0  0  2  0  0  3  0  0  0  0  0  0
  190.7010  171.5300  137.9080 C   0  0  2  0  0  3  0  0  0  0  0  0
  189.7820  172.6920  136.1070 C   0  0  0  0  0  2  0  0  0  0  0  0
  190.1700  169.3530  137.6630 C   0  0  1  0  0  3  0  0  0  0  0  0
  189.6920  170.6940  137.3400 N   0  0  2  0  0  0  0  0  0  0  0  0
  189.6510  171.1660  135.9700 C   0  0  0  0  0  2  0  0  0  0  0  0
  1 26  1  0  0  0  0
  2 22  1  0  0  0  0
  2  7  1  0  0  0  0
  3 24  1  0  0  0  0
  4 27  1  0  0  0  0
  5 32  1  6  0  0  0
  5 21  1  0  0  0  0
  7  8  1  0  0  0  0
  8 10  1  0  0  0  0
  8  6  2  0  0  0  0
  9 20  2  0  0  0  0
 11 17  1  0  0  0  0
 11 19  1  0  0  0  0
 12  4  2  0  0  0  0
 13  1  2  0  0  0  0
 14 15  2  0  0  0  0
 14 24  1  0  0  0  0
 15 28  1  0  0  0  0
 16 18  1  0  0  0  0
 17 31  1  1  0  0  0
 17 23  1  0  0  0  0
 18  7  1  0  0  0  0
 18 26  2  0  0  0  0
 19 14  1  0  0  0  0
 20  5  1  0  0  0  0
 21 13  1  0  0  0  0
 21 16  2  0  0  0  0
 23 20  1  0  0  0  0
 23  3  1  0  0  0  0
 24  2  2  0  0  0  0
 25 12  1  0  0  0  0
 26 10  1  0  0  0  0
 28  4  1  0  0  0  0
 28 22  2  0  0  0  0
 29 25  2  0  0  0  0
 29 15  1  0  0  0  0
 30 31  1  0  0  0  0
 33 34  2  0  0  0  0
 33 32  1  0  0  0  0
 35 33  1  0  0  0  0
 36 35  1  0  0  0  0
 38 44  1  0  0  0  0
 39 36  1  6  0  0  0
 40 39  1  0  0  0  0
 41 37  1  6  0  0  0
 41 42  1  0  0  0  0
 42 39  1  0  0  0  0
 43 41  1  0  0  0  0
 44 40  1  0  0  0  0
 45 44  1  0  0  0  0
 45 42  1  0  0  0  0
 46 43  1  0  0  0  0
 46 45  1  0  0  0  0
M  END
>  <MODEL>
4

>  <REMARK>
 VINA RESULT:      -8.8      3.312      6.159
  Name = 
  5 active torsions:
  status: ('A' for Active; 'I' for Inactive)
    1  A    between atoms: C_5  and  C_29
    2  A    between atoms: C_9  and  C_29
    3  A    between atoms: C_15  and  C_20
    4  A    between atoms: C_20  and  N_34
    5  A    between atoms: C_24  and  O_33
                            x       y       z     vdW  Elec       q    Type
                         _______ _______ _______ _____ _____    ______ ____

>  <TORSDO>
F 5

$$$$
=
 OpenBabel11042415413D

 46 53  0  0  1  0  0  0  0  0999 V2000
  192.6780  174.9020  146.6200 C   0  0  0  0  0  3  0  0  0  0  0  0
  188.4320  176.8930  146.0500 C   0  0  0  0  0  0  0  0  0  0  0  0
  189.8220  176.3850  143.9330 C   0  0  0  0  0  2  0  0  0  0  0  0
  185.0880  178.4800  146.4650 C   0  0  0  0  0  0  0  0  0  0  0  0
  190.8400  173.3230  143.6660 C   0  0  2  0  0  3  0  0  0  0  0  0
  189.8290  178.4100  148.1740 O   0  0  0  0  0  0  0  0  0  0  0  0
  189.4520  176.4160  146.9600 N   0  0  0  0  0  0  0  0  0  0  0  0
  190.2420  177.2920  147.7660 C   0  0  0  0  0  0  0  0  0  0  0  0
  188.7590  173.2120  142.5370 O   0  0  0  0  0  0  0  0  0  0  0  0
  191.6240  176.7770  148.0290 C   0  0  0  0  0  2  0  0  0  0  0  0
  188.7990  177.4600  141.6270 C   0  0  0  0  0  2  0  0  0  0  0  0
  184.1290  179.0540  145.6910 N   0  0  0  0  0  0  0  0  0  0  0  0
  192.4460  174.0560  145.5230 C   0  0  0  0  0  3  0  0  0  0  0  0
  187.5860  177.6000  143.8430 C   0  0  0  0  0  0  0  0  0  0  0  0
  186.4240  178.0850  144.4710 C   0  0  0  0  0  0  0  0  0  0  0  0
  190.0540  174.3610  145.7680 C   0  0  0  0  0  3  0  0  0  0  0  0
  188.9720  175.9430  141.5860 C   0  0  1  0  0  3  0  0  0  0  0  0
  190.3010  175.3030  146.7430 C   0  0  0  0  0  0  0  0  0  0  0  0
  187.6930  177.8100  142.4530 O   0  0  0  0  0  0  0  0  0  0  0  0
  189.6330  173.9830  143.0160 C   0  0  0  0  0  0  0  0  0  0  0  0
  191.1300  173.8260  145.0600 C   0  0  0  0  0  0  0  0  0  0  0  0
  187.2730  177.4070  146.6320 C   0  0  0  0  0  3  0  0  0  0  0  0
  189.4730  175.4230  142.8670 N   0  0  0  0  0  0  0  0  0  0  0  0
  188.5880  176.9440  144.6210 C   0  0  0  0  0  0  0  0  0  0  0  0
  184.2650  179.1680  144.3440 C   0  0  0  0  0  3  0  0  0  0  0  0
  191.5810  175.5340  147.2100 C   0  0  0  0  0  0  0  0  0  0  0  0
  184.8640  178.3980  147.9380 C   0  0  0  0  0  1  0  0  0  0  0  0
  186.2620  177.9790  145.8670 C   0  0  0  0  0  0  0  0  0  0  0  0
  185.4120  178.6880  143.7130 C   0  0  0  0  0  3  0  0  0  0  0  0
  187.8300  175.1160  139.8740 C   0  0  0  0  0  1  0  0  0  0  0  0
  187.7510  175.3470  141.2480 O   0  0  0  0  0  0  0  0  0  0  0  0
  192.0330  173.4070  142.7150 C   0  0  0  0  0  2  0  0  0  0  0  0
  192.3110  172.0780  142.1000 C   0  0  0  0  0  0  0  0  0  0  0  0
  192.7900  171.1490  142.8060 O   0  0  0  0  0  0  0  0  0  0  0  0
  192.0460  171.8730  140.7120 N   0  0  0  0  0  2  0  0  0  0  0  0
  192.2620  170.5960  140.0470 C   0  0  0  0  0  2  0  0  0  0  0  0
  189.6860  169.6690  137.8510 C   0  0  0  0  0  1  0  0  0  0  0  0
  192.1700  174.0480  137.7560 C   0  0  0  0  0  1  0  0  0  0  0  0
  192.8090  170.8120  138.6440 C   0  0  2  0  0  3  0  0  0  0  0  0
  193.5720  172.1450  138.5920 C   0  0  0  0  0  2  0  0  0  0  0  0
  190.8580  170.0650  136.9740 C   0  0  2  0  0  3  0  0  0  0  0  0
  191.7040  171.0970  137.6650 C   0  0  2  0  0  3  0  0  0  0  0  0
  190.3470  170.8810  135.7800 C   0  0  0  0  0  2  0  0  0  0  0  0
  193.0530  172.8720  137.3380 C   0  0  1  0  0  3  0  0  0  0  0  0
  192.3250  171.8370  136.6120 N   0  0  2  0  0  0  0  0  0  0  0  0
  191.1920  172.1660  135.7700 C   0  0  0  0  0  2  0  0  0  0  0  0
  1 26  1  0  0  0  0
  2 22  1  0  0  0  0
  2  7  1  0  0  0  0
  3 24  1  0  0  0  0
  4 27  1  0  0  0  0
  5 32  1  6  0  0  0
  5 21  1  0  0  0  0
  7  8  1  0  0  0  0
  8 10  1  0  0  0  0
  8  6  2  0  0  0  0
  9 20  2  0  0  0  0
 11 19  1  0  0  0  0
 12  4  2  0  0  0  0
 13  1  2  0  0  0  0
 14 15  2  0  0  0  0
 14 24  1  0  0  0  0
 15 28  1  0  0  0  0
 16 18  1  0  0  0  0
 17 31  1  1  0  0  0
 17 11  1  0  0  0  0
 17 23  1  0  0  0  0
 18  7  1  0  0  0  0
 18 26  2  0  0  0  0
 19 14  1  0  0  0  0
 20  5  1  0  0  0  0
 21 13  1  0  0  0  0
 21 16  2  0  0  0  0
 23 20  1  0  0  0  0
 23  3  1  0  0  0  0
 24  2  2  0  0  0  0
 25 12  1  0  0  0  0
 26 10  1  0  0  0  0
 28  4  1  0  0  0  0
 28 22  2  0  0  0  0
 29 25  2  0  0  0  0
 29 15  1  0  0  0  0
 30 31  1  0  0  0  0
 33 32  1  0  0  0  0
 33 34  2  0  0  0  0
 35 33  1  0  0  0  0
 36 35  1  0  0  0  0
 39 36  1  1  0  0  0
 40 39  1  0  0  0  0
 41 42  1  0  0  0  0
 41 37  1  1  0  0  0
 42 39  1  0  0  0  0
 43 41  1  0  0  0  0
 44 38  1  0  0  0  0
 44 40  1  0  0  0  0
 45 44  1  0  0  0  0
 45 42  1  0  0  0  0
 46 43  1  0  0  0  0
 46 45  1  0  0  0  0
M  END
>  <MODEL>
5

>  <REMARK>
 VINA RESULT:      -8.7      3.183      5.725
  Name = 
  5 active torsions:
  status: ('A' for Active; 'I' for Inactive)
    1  A    between atoms: C_5  and  C_29
    2  A    between atoms: C_9  and  C_29
    3  A    between atoms: C_15  and  C_20
    4  A    between atoms: C_20  and  N_34
    5  A    between atoms: C_24  and  O_33
                            x       y       z     vdW  Elec       q    Type
                         _______ _______ _______ _____ _____    ______ ____

>  <TORSDO>
F 5

$$$$
=
 OpenBabel11042415413D

 46 53  0  0  1  0  0  0  0  0999 V2000
  188.0420  177.4890  146.9570 C   0  0  0  0  0  3  0  0  0  0  0  0
  191.5020  176.1100  144.0510 C   0  0  0  0  0  0  0  0  0  0  0  0
  189.1000  175.3060  143.5390 C   0  0  0  0  0  2  0  0  0  0  0  0
  194.7340  175.4320  142.3290 C   0  0  0  0  0  0  0  0  0  0  0  0
  186.8860  177.6580  143.3200 C   0  0  2  0  0  3  0  0  0  0  0  0
  192.4510  175.6500  146.8180 O   0  0  0  0  0  0  0  0  0  0  0  0
  191.1180  176.8200  145.2530 N   0  0  0  0  0  0  0  0  0  0  0  0
  191.4340  176.3500  146.5650 C   0  0  0  0  0  0  0  0  0  0  0  0
  187.6070  177.4980  141.0670 O   0  0  0  0  0  0  0  0  0  0  0  0
  190.4120  176.7220  147.5950 C   0  0  0  0  0  2  0  0  0  0  0  0
  188.9450  173.3970  141.5770 C   0  0  0  0  0  2  0  0  0  0  0  0
  195.1970  174.6970  141.2850 N   0  0  0  0  0  0  0  0  0  0  0  0
  187.1890  177.7100  145.8630 C   0  0  0  0  0  3  0  0  0  0  0  0
  191.1190  174.5400  142.1880 C   0  0  0  0  0  0  0  0  0  0  0  0
  192.4920  174.6000  141.8870 C   0  0  0  0  0  0  0  0  0  0  0  0
  189.1020  177.9120  144.3880 C   0  0  0  0  0  3  0  0  0  0  0  0
  188.1280  174.6540  141.2900 C   0  0  1  0  0  3  0  0  0  0  0  0
  189.9160  177.5470  145.4380 C   0  0  0  0  0  0  0  0  0  0  0  0
  190.3350  173.6610  141.4120 O   0  0  0  0  0  0  0  0  0  0  0  0
  187.6300  176.9460  142.2000 C   0  0  0  0  0  0  0  0  0  0  0  0
  187.7190  177.8700  144.5620 C   0  0  0  0  0  0  0  0  0  0  0  0
  192.8590  176.1220  143.7310 C   0  0  0  0  0  3  0  0  0  0  0  0
  188.2940  175.6590  142.3510 N   0  0  0  0  0  0  0  0  0  0  0  0
  190.5910  175.3420  143.2450 C   0  0  0  0  0  0  0  0  0  0  0  0
  194.3760  173.9170  140.5330 C   0  0  0  0  0  3  0  0  0  0  0  0
  189.4140  177.3940  146.7170 C   0  0  0  0  0  0  0  0  0  0  0  0
  195.7020  176.2590  143.1090 C   0  0  0  0  0  1  0  0  0  0  0  0
  193.3630  175.3990  142.6540 C   0  0  0  0  0  0  0  0  0  0  0  0
  193.0140  173.8540  140.8220 C   0  0  0  0  0  3  0  0  0  0  0  0
  188.1930  174.1720  139.1270 C   0  0  0  0  0  1  0  0  0  0  0  0
  188.5020  175.1760  140.0460 O   0  0  0  0  0  0  0  0  0  0  0  0
  185.5590  176.9470  143.5750 C   0  0  0  0  0  2  0  0  0  0  0  0
  184.4450  177.9320  143.6730 C   0  0  0  0  0  0  0  0  0  0  0  0
  184.3690  178.6960  144.6730 O   0  0  0  0  0  0  0  0  0  0  0  0
  183.4620  177.9910  142.6380 N   0  0  0  0  0  2  0  0  0  0  0  0
  182.3620  178.9450  142.6470 C   0  0  0  0  0  2  0  0  0  0  0  0
  179.6340  179.3820  144.8110 C   0  0  0  0  0  1  0  0  0  0  0  0
  179.8130  180.8610  140.0010 C   0  0  0  0  0  1  0  0  0  0  0  0
  181.1550  178.3740  141.9200 C   0  0  2  0  0  3  0  0  0  0  0  0
  181.1890  178.8130  140.4480 C   0  0  0  0  0  2  0  0  0  0  0  0
  179.0860  178.6720  143.5890 C   0  0  2  0  0  3  0  0  0  0  0  0
  179.8830  179.0380  142.3690 C   0  0  2  0  0  3  0  0  0  0  0  0
  177.7240  179.2710  143.2200 C   0  0  0  0  0  2  0  0  0  0  0  0
  179.7760  179.3390  140.1380 C   0  0  1  0  0  3  0  0  0  0  0  0
  178.9790  178.8840  141.2720 N   0  0  2  0  0  0  0  0  0  0  0  0
  177.8260  179.6340  141.7290 C   0  0  0  0  0  2  0  0  0  0  0  0
  2  7  1  0  0  0  0
  4 28  1  0  0  0  0
  4 27  1  0  0  0  0
  5 32  1  1  0  0  0
  5 21  1  0  0  0  0
  7 18  1  0  0  0  0
  7  8  1  0  0  0  0
  8  6  2  0  0  0  0
  8 10  1  0  0  0  0
  9 20  2  0  0  0  0
 12  4  2  0  0  0  0
 13  1  2  0  0  0  0
 14 24  1  0  0  0  0
 15 14  2  0  0  0  0
 15 28  1  0  0  0  0
 16 21  2  0  0  0  0
 16 18  1  0  0  0  0
 17 31  1  6  0  0  0
 17 11  1  0  0  0  0
 17 23  1  0  0  0  0
 18 26  2  0  0  0  0
 19 11  1  0  0  0  0
 19 14  1  0  0  0  0
 20 23  1  0  0  0  0
 20  5  1  0  0  0  0
 21 13  1  0  0  0  0
 22  2  1  0  0  0  0
 23  3  1  0  0  0  0
 24  3  1  0  0  0  0
 24  2  2  0  0  0  0
 25 29  2  0  0  0  0
 25 12  1  0  0  0  0
 26  1  1  0  0  0  0
 26 10  1  0  0  0  0
 28 22  2  0  0  0  0
 29 15  1  0  0  0  0
 30 31  1  0  0  0  0
 32 33  1  0  0  0  0
 33 34  2  0  0  0  0
 35 36  1  0  0  0  0
 35 33  1  0  0  0  0
 38 44  1  0  0  0  0
 39 42  1  0  0  0  0
 39 36  1  1  0  0  0
 40 39  1  0  0  0  0
 41 37  1  1  0  0  0
 42 41  1  0  0  0  0
 43 41  1  0  0  0  0
 44 40  1  0  0  0  0
 44 45  1  0  0  0  0
 45 46  1  0  0  0  0
 45 42  1  0  0  0  0
 46 43  1  0  0  0  0
M  END
>  <MODEL>
6

>  <REMARK>
 VINA RESULT:      -8.0      3.450     11.121
  Name = 
  5 active torsions:
  status: ('A' for Active; 'I' for Inactive)
    1  A    between atoms: C_5  and  C_29
    2  A    between atoms: C_9  and  C_29
    3  A    between atoms: C_15  and  C_20
    4  A    between atoms: C_20  and  N_34
    5  A    between atoms: C_24  and  O_33
                            x       y       z     vdW  Elec       q    Type
                         _______ _______ _______ _____ _____    ______ ____

>  <TORSDO>
F 5

$$$$
=
 OpenBabel11042415413D

 46 53  0  0  1  0  0  0  0  0999 V2000
  192.1530  172.2510  141.7580 C   0  0  0  0  0  3  0  0  0  0  0  0
  188.6280  175.3930  141.9090 C   0  0  0  0  0  0  0  0  0  0  0  0
  189.8030  174.7880  144.1290 C   0  0  0  0  0  2  0  0  0  0  0  0
  185.7780  177.6800  141.1870 C   0  0  0  0  0  0  0  0  0  0  0  0
  193.0230  175.1330  144.1120 C   0  0  2  0  0  3  0  0  0  0  0  0
  187.6880  173.1030  140.2840 O   0  0  0  0  0  0  0  0  0  0  0  0
  189.4230  174.4770  141.1180 N   0  0  0  0  0  0  0  0  0  0  0  0
  188.9010  173.2560  140.5880 C   0  0  0  0  0  0  0  0  0  0  0  0
  192.3380  177.2760  144.8570 O   0  0  0  0  0  0  0  0  0  0  0  0
  189.9220  172.1650  140.4830 C   0  0  0  0  0  2  0  0  0  0  0  0
  188.5560  175.7630  146.3670 C   0  0  0  0  0  2  0  0  0  0  0  0
  184.9120  178.4740  141.8680 N   0  0  0  0  0  0  0  0  0  0  0  0
  192.8980  173.0190  142.6680 C   0  0  0  0  0  3  0  0  0  0  0  0
  187.7810  176.3330  144.0260 C   0  0  0  0  0  0  0  0  0  0  0  0
  186.8200  177.0540  143.2930 C   0  0  0  0  0  0  0  0  0  0  0  0
  191.6160  174.9920  142.0820 C   0  0  0  0  0  3  0  0  0  0  0  0
  190.0070  176.2130  146.2150 C   0  0  1  0  0  3  0  0  0  0  0  0
  190.7990  174.1970  141.3080 C   0  0  0  0  0  0  0  0  0  0  0  0
  187.7260  176.4450  145.4300 O   0  0  0  0  0  0  0  0  0  0  0  0
  191.9670  176.0900  144.6430 C   0  0  0  0  0  0  0  0  0  0  0  0
  192.5940  174.3850  142.8710 C   0  0  0  0  0  0  0  0  0  0  0  0
  187.6450  176.1080  141.2250 C   0  0  0  0  0  3  0  0  0  0  0  0
  190.6030  175.7010  144.9720 N   0  0  0  0  0  0  0  0  0  0  0  0
  188.7400  175.5310  143.3360 C   0  0  0  0  0  0  0  0  0  0  0  0
  184.9520  178.5890  143.2210 C   0  0  0  0  0  3  0  0  0  0  0  0
  191.0870  172.8630  141.0950 C   0  0  0  0  0  0  0  0  0  0  0  0
  185.6640  177.6050  139.7000 C   0  0  0  0  0  1  0  0  0  0  0  0
  186.7570  176.9490  141.8890 C   0  0  0  0  0  0  0  0  0  0  0  0
  185.9040  177.8810  143.9550 C   0  0  0  0  0  3  0  0  0  0  0  0
  189.9790  177.9330  147.6140 C   0  0  0  0  0  1  0  0  0  0  0  0
  190.0660  177.6110  146.2580 O   0  0  0  0  0  0  0  0  0  0  0  0
  193.5010  174.2290  145.2470 C   0  0  0  0  0  2  0  0  0  0  0  0
  194.9730  174.3590  145.4370 C   0  0  0  0  0  0  0  0  0  0  0  0
  195.4620  175.4590  145.8120 O   0  0  0  0  0  0  0  0  0  0  0  0
  195.8200  173.2380  145.1790 N   0  0  0  0  0  2  0  0  0  0  0  0
  197.2630  173.2770  145.3710 C   0  0  0  0  0  2  0  0  0  0  0  0
  196.2250  170.2550  146.8210 C   0  0  0  0  0  1  0  0  0  0  0  0
  195.9090  171.4070  141.9300 C   0  0  0  0  0  1  0  0  0  0  0  0
  197.9370  172.1740  144.5690 C   0  0  2  0  0  3  0  0  0  0  0  0
  197.8530  172.5060  143.0710 C   0  0  0  0  0  2  0  0  0  0  0  0
  197.1770  169.8750  145.7040 C   0  0  2  0  0  3  0  0  0  0  0  0
  197.1360  170.9030  144.6090 C   0  0  2  0  0  3  0  0  0  0  0  0
  196.6230  168.6540  144.9570 C   0  0  0  0  0  2  0  0  0  0  0  0
  197.3550  171.2190  142.3880 C   0  0  1  0  0  3  0  0  0  0  0  0
  197.5020  170.1990  143.4210 N   0  0  2  0  0  0  0  0  0  0  0  0
  196.6200  169.0490  143.4710 C   0  0  0  0  0  2  0  0  0  0  0  0
  1 13  1  0  0  0  0
  2 24  1  0  0  0  0
  3 23  1  0  0  0  0
  4 12  2  0  0  0  0
  4 28  1  0  0  0  0
  5 20  1  0  0  0  0
  5 32  1  1  0  0  0
  6  8  2  0  0  0  0
  7 18  1  0  0  0  0
  7  2  1  0  0  0  0
  8  7  1  0  0  0  0
 10  8  1  0  0  0  0
 10 26  1  0  0  0  0
 12 25  1  0  0  0  0
 13 21  2  0  0  0  0
 14 19  1  0  0  0  0
 15 29  1  0  0  0  0
 15 14  1  0  0  0  0
 16 21  1  0  0  0  0
 17 31  1  6  0  0  0
 17 11  1  0  0  0  0
 18 16  2  0  0  0  0
 19 11  1  0  0  0  0
 20  9  2  0  0  0  0
 20 23  1  0  0  0  0
 21  5  1  0  0  0  0
 22 28  1  0  0  0  0
 22  2  2  0  0  0  0
 23 17  1  0  0  0  0
 24 14  2  0  0  0  0
 24  3  1  0  0  0  0
 25 29  2  0  0  0  0
 26 18  1  0  0  0  0
 26  1  2  0  0  0  0
 27  4  1  0  0  0  0
 28 15  2  0  0  0  0
 31 30  1  0  0  0  0
 32 33  1  0  0  0  0
 33 34  2  0  0  0  0
 35 36  1  0  0  0  0
 35 33  1  0  0  0  0
 38 44  1  0  0  0  0
 39 42  1  0  0  0  0
 39 36  1  1  0  0  0
 40 39  1  0  0  0  0
 41 37  1  1  0  0  0
 42 41  1  0  0  0  0
 43 41  1  0  0  0  0
 44 40  1  0  0  0  0
 44 45  1  0  0  0  0
 45 46  1  0  0  0  0
 45 42  1  0  0  0  0
 46 43  1  0  0  0  0
M  END
>  <MODEL>
7

>  <REMARK>
 VINA RESULT:      -8.0      2.099      3.075
  Name = 
  5 active torsions:
  status: ('A' for Active; 'I' for Inactive)
    1  A    between atoms: C_5  and  C_29
    2  A    between atoms: C_9  and  C_29
    3  A    between atoms: C_15  and  C_20
    4  A    between atoms: C_20  and  N_34
    5  A    between atoms: C_24  and  O_33
                            x       y       z     vdW  Elec       q    Type
                         _______ _______ _______ _____ _____    ______ ____

>  <TORSDO>
F 5

$$$$
=
 OpenBabel11042415413D

 46 53  0  0  1  0  0  0  0  0999 V2000
  190.1080  171.9790  138.8500 C   0  0  0  0  0  3  0  0  0  0  0  0
  193.3640  171.1490  142.1720 C   0  0  0  0  0  0  0  0  0  0  0  0
  192.3440  173.5190  142.0450 C   0  0  0  0  0  2  0  0  0  0  0  0
  195.9780  169.7210  144.4070 C   0  0  0  0  0  0  0  0  0  0  0  0
  189.1090  173.6260  142.1500 C   0  0  2  0  0  3  0  0  0  0  0  0
  194.4160  170.0620  139.6270 O   0  0  0  0  0  0  0  0  0  0  0  0
  192.6120  170.6530  141.0380 N   0  0  0  0  0  0  0  0  0  0  0  0
  193.2100  170.3970  139.7650 C   0  0  0  0  0  0  0  0  0  0  0  0
  189.6470  173.7910  144.4530 O   0  0  0  0  0  0  0  0  0  0  0  0
  192.2790  170.6220  138.6120 C   0  0  0  0  0  2  0  0  0  0  0  0
  193.6050  175.3750  143.6200 C   0  0  0  0  0  2  0  0  0  0  0  0
  196.8060  170.1350  145.4020 N   0  0  0  0  0  0  0  0  0  0  0  0
  189.3440  172.7250  139.7630 C   0  0  0  0  0  3  0  0  0  0  0  0
  194.2240  172.9210  143.6560 C   0  0  0  0  0  0  0  0  0  0  0  0
  195.0880  171.9780  144.2410 C   0  0  0  0  0  0  0  0  0  0  0  0
  190.4290  171.6040  141.6180 C   0  0  0  0  0  3  0  0  0  0  0  0
  192.1160  175.2130  143.9170 C   0  0  1  0  0  3  0  0  0  0  0  0
  191.2740  170.9910  140.7180 C   0  0  0  0  0  0  0  0  0  0  0  0
  194.3330  174.2520  144.1090 O   0  0  0  0  0  0  0  0  0  0  0  0
  190.1050  173.8450  143.2800 C   0  0  0  0  0  0  0  0  0  0  0  0
  189.5430  172.5750  141.1550 C   0  0  0  0  0  0  0  0  0  0  0  0
  194.2520  170.2530  142.7660 C   0  0  0  0  0  3  0  0  0  0  0  0
  191.5100  174.1690  143.0780 N   0  0  0  0  0  0  0  0  0  0  0  0
  193.3050  172.5060  142.6450 C   0  0  0  0  0  0  0  0  0  0  0  0
  196.8160  171.4220  145.8390 C   0  0  0  0  0  3  0  0  0  0  0  0
  191.0880  171.1220  139.3550 C   0  0  0  0  0  0  0  0  0  0  0  0
  196.0310  168.2910  143.9810 C   0  0  0  0  0  1  0  0  0  0  0  0
  195.0960  170.6390  143.8030 C   0  0  0  0  0  0  0  0  0  0  0  0
  195.9610  172.3630  145.2670 C   0  0  0  0  0  3  0  0  0  0  0  0
  191.9340  176.1680  145.9100 C   0  0  0  0  0  1  0  0  0  0  0  0
  191.9440  174.9250  145.2760 O   0  0  0  0  0  0  0  0  0  0  0  0
  188.7590  174.9720  141.5190 C   0  0  0  0  0  2  0  0  0  0  0  0
  187.6780  175.6490  142.2900 C   0  0  0  0  0  0  0  0  0  0  0  0
  186.6900  174.9830  142.7010 O   0  0  0  0  0  0  0  0  0  0  0  0
  187.7650  177.0520  142.5440 N   0  0  0  0  0  2  0  0  0  0  0  0
  186.7660  177.7780  143.3150 C   0  0  0  0  0  2  0  0  0  0  0  0
  184.0660  178.6670  145.3730 C   0  0  0  0  0  1  0  0  0  0  0  0
  187.9140  175.7120  146.7180 C   0  0  0  0  0  1  0  0  0  0  0  0
  187.3780  178.3320  144.5930 C   0  0  2  0  0  3  0  0  0  0  0  0
  188.5560  177.4440  145.0220 C   0  0  0  0  0  2  0  0  0  0  0  0
  185.3170  179.0460  146.1410 C   0  0  2  0  0  3  0  0  0  0  0  0
  186.4560  178.1410  145.7660 C   0  0  2  0  0  3  0  0  0  0  0  0
  185.1410  178.6700  147.6180 C   0  0  0  0  0  2  0  0  0  0  0  0
  188.3420  177.1660  146.5210 C   0  0  1  0  0  3  0  0  0  0  0  0
  187.3130  178.1250  146.9090 N   0  0  2  0  0  0  0  0  0  0  0  0
  186.3790  177.8320  147.9780 C   0  0  0  0  0  2  0  0  0  0  0  0
  1 26  2  0  0  0  0
  1 13  1  0  0  0  0
  2 24  2  0  0  0  0
  2 22  1  0  0  0  0
  3 24  1  0  0  0  0
  3 23  1  0  0  0  0
  4 12  2  0  0  0  0
  5 32  1  6  0  0  0
  5 20  1  0  0  0  0
  6  8  2  0  0  0  0
  7  2  1  0  0  0  0
  8  7  1  0  0  0  0
 10 26  1  0  0  0  0
 10  8  1  0  0  0  0
 11 17  1  0  0  0  0
 11 19  1  0  0  0  0
 12 25  1  0  0  0  0
 13 21  2  0  0  0  0
 14 19  1  0  0  0  0
 14 15  2  0  0  0  0
 15 29  1  0  0  0  0
 17 31  1  1  0  0  0
 18  7  1  0  0  0  0
 18 16  2  0  0  0  0
 20  9  2  0  0  0  0
 21 16  1  0  0  0  0
 21  5  1  0  0  0  0
 22 28  2  0  0  0  0
 23 20  1  0  0  0  0
 23 17  1  0  0  0  0
 24 14  1  0  0  0  0
 26 18  1  0  0  0  0
 27  4  1  0  0  0  0
 28 15  1  0  0  0  0
 28  4  1  0  0  0  0
 29 25  2  0  0  0  0
 31 30  1  0  0  0  0
 32 33  1  0  0  0  0
 33 35  1  0  0  0  0
 33 34  2  0  0  0  0
 35 36  1  0  0  0  0
 39 36  1  6  0  0  0
 39 40  1  0  0  0  0
 39 42  1  0  0  0  0
 40 44  1  0  0  0  0
 41 37  1  6  0  0  0
 41 43  1  0  0  0  0
 42 41  1  0  0  0  0
 42 45  1  0  0  0  0
 43 46  1  0  0  0  0
 44 38  1  0  0  0  0
 44 45  1  0  0  0  0
 45 46  1  0  0  0  0
M  END
>  <MODEL>
8

>  <REMARK>
 VINA RESULT:      -8.0      2.766      8.885
  Name = 
  5 active torsions:
  status: ('A' for Active; 'I' for Inactive)
    1  A    between atoms: C_5  and  C_29
    2  A    between atoms: C_9  and  C_29
    3  A    between atoms: C_15  and  C_20
    4  A    between atoms: C_20  and  N_34
    5  A    between atoms: C_24  and  O_33
                            x       y       z     vdW  Elec       q    Type
                         _______ _______ _______ _____ _____    ______ ____

>  <TORSDO>
F 5

$$$$
=
 OpenBabel11042415413D

 46 53  0  0  1  0  0  0  0  0999 V2000
  191.8550  173.2580  141.3360 C   0  0  0  0  0  3  0  0  0  0  0  0
  188.3400  175.6920  143.3460 C   0  0  0  0  0  0  0  0  0  0  0  0
  190.2200  174.7970  144.8760 C   0  0  0  0  0  2  0  0  0  0  0  0
  185.2430  177.6060  144.1300 C   0  0  0  0  0  0  0  0  0  0  0  0
  193.2200  175.6390  143.9940 C   0  0  2  0  0  3  0  0  0  0  0  0
  187.1010  173.7070  141.5330 O   0  0  0  0  0  0  0  0  0  0  0  0
  188.9020  175.1130  142.1440 N   0  0  0  0  0  0  0  0  0  0  0  0
  188.3310  173.9760  141.4920 C   0  0  0  0  0  0  0  0  0  0  0  0
  192.6520  177.4250  145.4440 O   0  0  0  0  0  0  0  0  0  0  0  0
  189.3430  173.1110  140.8060 C   0  0  0  0  0  2  0  0  0  0  0  0
  189.7020  175.0380  147.5570 C   0  0  0  0  0  2  0  0  0  0  0  0
  184.5880  178.0820  145.2220 N   0  0  0  0  0  0  0  0  0  0  0  0
  192.7950  173.9100  142.1510 C   0  0  0  0  0  3  0  0  0  0  0  0
  188.1630  175.9890  145.7880 C   0  0  0  0  0  0  0  0  0  0  0  0
  186.9620  176.6960  145.5900 C   0  0  0  0  0  0  0  0  0  0  0  0
  191.2430  175.7370  142.5120 C   0  0  0  0  0  3  0  0  0  0  0  0
  190.9850  175.7320  147.1050 C   0  0  1  0  0  3  0  0  0  0  0  0
  190.2820  175.0190  141.8350 C   0  0  0  0  0  0  0  0  0  0  0  0
  188.5610  175.7730  147.1230 O   0  0  0  0  0  0  0  0  0  0  0  0
  192.3260  176.2750  145.0470 C   0  0  0  0  0  0  0  0  0  0  0  0
  192.4680  175.1310  142.7870 C   0  0  0  0  0  0  0  0  0  0  0  0
  187.1360  176.3790  143.1990 C   0  0  0  0  0  3  0  0  0  0  0  0
  191.1780  175.6120  145.6520 N   0  0  0  0  0  0  0  0  0  0  0  0
  188.9020  175.5230  144.6590 C   0  0  0  0  0  0  0  0  0  0  0  0
  185.0600  177.8950  146.4830 C   0  0  0  0  0  3  0  0  0  0  0  0
  190.5870  173.8270  141.2040 C   0  0  0  0  0  0  0  0  0  0  0  0
  184.6550  177.8490  142.7800 C   0  0  0  0  0  1  0  0  0  0  0  0
  186.4520  176.9000  144.2930 C   0  0  0  0  0  0  0  0  0  0  0  0
  186.2510  177.1990  146.6870 C   0  0  0  0  0  3  0  0  0  0  0  0
  191.5570  177.1060  148.7490 C   0  0  0  0  0  1  0  0  0  0  0  0
  190.9460  177.0760  147.4940 O   0  0  0  0  0  0  0  0  0  0  0  0
  194.1120  174.5910  144.6570 C   0  0  0  0  0  2  0  0  0  0  0  0
  195.5180  174.7190  144.1810 C   0  0  0  0  0  0  0  0  0  0  0  0
  196.1240  175.8180  144.3070 O   0  0  0  0  0  0  0  0  0  0  0  0
  196.1630  173.6000  143.5710 N   0  0  0  0  0  2  0  0  0  0  0  0
  197.5430  173.6380  143.1100 C   0  0  0  0  0  2  0  0  0  0  0  0
  197.1080  171.2600  145.6530 C   0  0  0  0  0  1  0  0  0  0  0  0
  195.1730  170.9620  141.0140 C   0  0  0  0  0  1  0  0  0  0  0  0
  197.9400  172.3000  142.5040 C   0  0  2  0  0  3  0  0  0  0  0  0
  197.3590  172.1870  141.0860 C   0  0  0  0  0  2  0  0  0  0  0  0
  197.6460  170.4970  144.4580 C   0  0  2  0  0  3  0  0  0  0  0  0
  197.2240  171.1630  143.1790 C   0  0  2  0  0  3  0  0  0  0  0  0
  196.9050  169.1600  144.3320 C   0  0  0  0  0  2  0  0  0  0  0  0
  196.6930  170.8020  141.0190 C   0  0  1  0  0  3  0  0  0  0  0  0
  197.1940  170.1170  142.2060 N   0  0  2  0  0  0  0  0  0  0  0  0
  196.4040  169.1050  142.8790 C   0  0  0  0  0  2  0  0  0  0  0  0
  1 13  1  0  0  0  0
  2 24  1  0  0  0  0
  3 23  1  0  0  0  0
  4 28  2  0  0  0  0
  4 12  1  0  0  0  0
  5 32  1  1  0  0  0
  5 20  1  0  0  0  0
  7  2  1  0  0  0  0
  8  6  2  0  0  0  0
  8  7  1  0  0  0  0
 10 26  1  0  0  0  0
 10  8  1  0  0  0  0
 12 25  2  0  0  0  0
 13 21  2  0  0  0  0
 14 19  1  0  0  0  0
 15 14  1  0  0  0  0
 15 29  2  0  0  0  0
 16 21  1  0  0  0  0
 17 31  1  6  0  0  0
 17 11  1  0  0  0  0
 18  7  1  0  0  0  0
 18 16  2  0  0  0  0
 19 11  1  0  0  0  0
 20  9  2  0  0  0  0
 20 23  1  0  0  0  0
 21  5  1  0  0  0  0
 22  2  2  0  0  0  0
 22 28  1  0  0  0  0
 23 17  1  0  0  0  0
 24  3  1  0  0  0  0
 24 14  2  0  0  0  0
 25 29  1  0  0  0  0
 26  1  2  0  0  0  0
 26 18  1  0  0  0  0
 27  4  1  0  0  0  0
 28 15  1  0  0  0  0
 31 30  1  0  0  0  0
 33 34  2  0  0  0  0
 33 32  1  0  0  0  0
 35 33  1  0  0  0  0
 36 35  1  0  0  0  0
 38 44  1  0  0  0  0
 39 36  1  1  0  0  0
 39 42  1  0  0  0  0
 40 39  1  0  0  0  0
 41 37  1  1  0  0  0
 42 41  1  0  0  0  0
 43 41  1  0  0  0  0
 44 40  1  0  0  0  0
 44 45  1  0  0  0  0
 45 46  1  0  0  0  0
 45 42  1  0  0  0  0
 46 43  1  0  0  0  0
M  END
>  <MODEL>
9

>  <REMARK>
 VINA RESULT:      -7.7      1.721      2.664
  Name = 
  5 active torsions:
  status: ('A' for Active; 'I' for Inactive)
    1  A    between atoms: C_5  and  C_29
    2  A    between atoms: C_9  and  C_29
    3  A    between atoms: C_15  and  C_20
    4  A    between atoms: C_20  and  N_34
    5  A    between atoms: C_24  and  O_33
                            x       y       z     vdW  Elec       q    Type
                         _______ _______ _______ _____ _____    ______ ____

>  <TORSDO>
F 5

$$$$
