=
 OpenBabel11042418423D

 34 36  0  0  1  0  0  0  0  0999 V2000
  188.3200  176.6610  145.2700 N   0  0  0  0  0  0  0  0  0  0  0  0
  187.4820  176.8270  142.8960 C   0  0  0  0  0  0  0  0  0  0  0  0
  186.7080  177.8710  141.0500 C   0  0  1  0  0  3  0  0  0  0  0  0
  190.6480  178.3390  143.8620 C   0  0  0  0  0  1  0  0  0  0  0  0
  189.0090  178.0920  141.9860 N   0  0  0  0  0  0  0  0  0  0  0  0
  188.4320  177.0080  143.8700 C   0  0  0  0  0  0  0  0  0  0  0  0
  185.5880  177.3760  141.8680 N   0  0  0  0  0  0  0  0  0  0  0  0
  187.8760  177.4380  141.7910 N   0  0  0  0  0  0  0  0  0  0  0  0
  186.0400  176.7940  142.9460 C   0  0  0  0  0  3  0  0  0  0  0  0
  189.4090  177.7860  143.2420 C   0  0  0  0  0  0  0  0  0  0  0  0
  186.6830  177.2050  139.6880 C   0  0  0  0  0  1  0  0  0  0  0  0
  188.6880  175.4110  145.6800 O   0  0  0  0  0  0  0  0  0  0  0  0
  192.7420  174.4770  146.2660 C   0  0  0  0  0  3  0  0  0  0  0  0
  190.6280  175.4690  147.0810 C   0  0  0  0  0  2  0  0  0  0  0  0
  190.5490  174.0610  145.0530 C   0  0  1  0  0  3  0  0  0  0  0  0
  192.1020  175.2180  147.1660 C   0  0  0  0  0  3  0  0  0  0  0  0
  192.0740  173.9220  145.0370 C   0  0  0  0  0  2  0  0  0  0  0  0
  190.0930  175.3840  145.6540 C   0  0  1  0  0  3  0  0  0  0  0  0
  189.8800  173.7850  143.6960 C   0  0  1  0  0  3  0  0  0  0  0  0
  190.6430  174.2860  142.4670 C   0  0  0  0  0  2  0  0  0  0  0  0
  189.7400  174.3400  141.2470 C   0  0  0  0  0  1  0  0  0  0  0  0
  189.5780  172.3000  143.5700 C   0  0  0  0  0  2  0  0  0  0  0  0
  190.7530  171.5970  143.2920 O   0  0  0  0  0  0  0  0  0  0  0  0
  190.4050  170.7620  142.2350 C   0  0  0  0  0  2  0  0  0  0  0  0
  191.5120  171.3790  140.1240 C   0  0  0  0  0  1  0  0  0  0  0  0
  191.6210  170.5290  141.3650 C   0  0  0  0  0  2  0  0  0  0  0  0
  187.6070  177.5770  146.1720 C   0  0  0  0  0  2  0  0  0  0  0  0
  186.4360  176.9290  146.9100 C   0  0  1  0  0  3  0  0  0  0  0  0
  186.2430  177.5950  148.1200 O   0  0  0  0  0  1  0  0  0  0  0  0
  185.1520  176.9940  146.0850 C   0  0  0  0  0  2  0  0  0  0  0  0
  184.4720  178.3540  146.2440 C   0  0  0  0  0  2  0  0  0  0  0  0
  184.4850  179.1290  144.9680 C   0  0  0  0  0  0  0  0  0  0  0  0
  183.5290  179.0210  144.1560 O   0  0  0  0  0  0  0  0  0  0  0  0
  185.5630  179.9430  144.6610 O   0  0  0  0  0  1  0  0  0  0  0  0
  1 12  1  0  0  0  0
  1 27  1  0  0  0  0
  2  9  1  0  0  0  0
  2  6  2  0  0  0  0
  3 11  1  6  0  0  0
  3  8  1  0  0  0  0
  3  7  1  0  0  0  0
  5 10  2  0  0  0  0
  6  1  1  0  0  0  0
  7  9  2  0  0  0  0
  8  5  1  0  0  0  0
  8  2  1  0  0  0  0
 10  4  1  0  0  0  0
 10  6  1  0  0  0  0
 13 16  2  0  0  0  0
 14 16  1  0  0  0  0
 15 19  1  6  0  0  0
 15 18  1  0  0  0  0
 17 15  1  0  0  0  0
 17 13  1  0  0  0  0
 18 12  1  1  0  0  0
 18 14  1  0  0  0  0
 19 20  1  6  0  0  0
 21 20  1  0  0  0  0
 22 19  1  0  0  0  0
 23 22  1  0  0  0  0
 24 23  1  0  0  0  0
 25 26  1  0  0  0  0
 26 24  1  0  0  0  0
 27 28  1  0  0  0  0
 28 29  1  1  0  0  0
 30 31  1  0  0  0  0
 30 28  1  0  0  0  0
 32 31  1  0  0  0  0
 33 32  2  0  0  0  0
 34 32  1  0  0  0  0
M  END
>  <MODEL>
1

>  <REMARK>
 VINA RESULT:      -6.4      0.000      0.000
  Name = 
  14 active torsions:
  status: ('A' for Active; 'I' for Inactive)
    1  A    between atoms: C_3  and  C_14
    2  A    between atoms: C_3  and  C_31
    3  A    between atoms: C_5  and  C_9
    4  A    between atoms: C_5  and  C_19
    5  A    between atoms: C_5  and  C_34
    6  A    between atoms: N_7  and  O_13
    7  A    between atoms: N_7  and  C_14
    8  A    between atoms: N_7  and  C_21
    9  A    between atoms: O_10  and  C_16
   10  A    between atoms: O_10  and  C_34
   11  A    between atoms: O_13  and  C_29
   12  A    between atoms: C_15  and  C_18
   13  A    between atoms: C_16  and  C_24
   14  A    between atoms: C_18  and  C_31
                            x       y       z     vdW  Elec       q    Type
                         _______ _______ _______ _____ _____    ______ ____

>  <TORSDO>
F 14

$$$$
=
 OpenBabel11042418423D

 34 36  0  0  1  0  0  0  0  0999 V2000
  189.1320  176.2590  144.8060 N   0  0  0  0  0  0  0  0  0  0  0  0
  187.7710  176.7160  142.7310 C   0  0  0  0  0  0  0  0  0  0  0  0
  186.5350  177.9570  141.3060 C   0  0  1  0  0  3  0  0  0  0  0  0
  190.9700  178.3680  143.2600 C   0  0  0  0  0  1  0  0  0  0  0  0
  188.9690  178.2580  141.7600 N   0  0  0  0  0  0  0  0  0  0  0  0
  188.9020  176.8350  143.4990 C   0  0  0  0  0  0  0  0  0  0  0  0
  185.6630  177.2260  142.2410 N   0  0  0  0  0  0  0  0  0  0  0  0
  187.8660  177.5330  141.6940 N   0  0  0  0  0  0  0  0  0  0  0  0
  186.3820  176.5290  143.0770 C   0  0  0  0  0  3  0  0  0  0  0  0
  189.6610  177.7980  142.8280 C   0  0  0  0  0  0  0  0  0  0  0  0
  186.2470  177.5180  139.8830 C   0  0  0  0  0  1  0  0  0  0  0  0
  189.6920  175.0170  144.9010 O   0  0  0  0  0  0  0  0  0  0  0  0
  193.7900  174.6060  145.7350 C   0  0  0  0  0  3  0  0  0  0  0  0
  191.4710  175.0000  146.5020 C   0  0  0  0  0  2  0  0  0  0  0  0
  191.8130  174.1930  144.1930 C   0  0  1  0  0  3  0  0  0  0  0  0
  192.9550  174.9700  146.7050 C   0  0  0  0  0  3  0  0  0  0  0  0
  193.3350  174.3040  144.3340 C   0  0  0  0  0  2  0  0  0  0  0  0
  191.0760  175.2180  145.0440 C   0  0  1  0  0  3  0  0  0  0  0  0
  191.3160  174.1900  142.7380 C   0  0  1  0  0  3  0  0  0  0  0  0
  192.2140  174.9120  141.7300 C   0  0  0  0  0  2  0  0  0  0  0  0
  192.5800  174.0010  140.5720 C   0  0  0  0  0  1  0  0  0  0  0  0
  191.0550  172.7600  142.2930 C   0  0  0  0  0  2  0  0  0  0  0  0
  189.6890  172.4770  142.3770 O   0  0  0  0  0  0  0  0  0  0  0  0
  189.0830  173.5390  141.7120 C   0  0  0  0  0  2  0  0  0  0  0  0
  188.5320  174.0120  139.3600 C   0  0  0  0  0  1  0  0  0  0  0  0
  188.3770  173.0150  140.4810 C   0  0  0  0  0  2  0  0  0  0  0  0
  188.5530  176.9230  145.9830 C   0  0  0  0  0  2  0  0  0  0  0  0
  187.4930  176.0880  146.7030 C   0  0  1  0  0  3  0  0  0  0  0  0
  188.1190  175.3090  147.6760 O   0  0  0  0  0  1  0  0  0  0  0  0
  186.4400  176.9750  147.3650 C   0  0  0  0  0  2  0  0  0  0  0  0
  185.1810  177.0600  146.5030 C   0  0  0  0  0  2  0  0  0  0  0  0
  184.9540  178.4470  145.9970 C   0  0  0  0  0  0  0  0  0  0  0  0
  185.6570  179.3980  146.4280 O   0  0  0  0  0  1  0  0  0  0  0  0
  183.9480  178.6930  145.0750 O   0  0  0  0  0  0  0  0  0  0  0  0
  1 12  1  0  0  0  0
  1 27  1  0  0  0  0
  2  9  1  0  0  0  0
  2  6  2  0  0  0  0
  3 11  1  6  0  0  0
  3  8  1  0  0  0  0
  3  7  1  0  0  0  0
  5 10  2  0  0  0  0
  6  1  1  0  0  0  0
  7  9  2  0  0  0  0
  8  5  1  0  0  0  0
  8  2  1  0  0  0  0
 10  4  1  0  0  0  0
 10  6  1  0  0  0  0
 13 16  2  0  0  0  0
 14 16  1  0  0  0  0
 15 19  1  6  0  0  0
 15 17  1  0  0  0  0
 15 18  1  0  0  0  0
 17 13  1  0  0  0  0
 18 12  1  1  0  0  0
 18 14  1  0  0  0  0
 19 20  1  6  0  0  0
 21 20  1  0  0  0  0
 22 23  1  0  0  0  0
 22 19  1  0  0  0  0
 24 23  1  0  0  0  0
 25 26  1  0  0  0  0
 26 24  1  0  0  0  0
 27 28  1  0  0  0  0
 28 30  1  0  0  0  0
 28 29  1  1  0  0  0
 31 30  1  0  0  0  0
 32 33  1  0  0  0  0
 32 31  1  0  0  0  0
 34 32  2  0  0  0  0
M  END
>  <MODEL>
2

>  <REMARK>
 VINA RESULT:      -6.1      1.276      1.829
  Name = 
  14 active torsions:
  status: ('A' for Active; 'I' for Inactive)
    1  A    between atoms: C_3  and  C_14
    2  A    between atoms: C_3  and  C_31
    3  A    between atoms: C_5  and  C_9
    4  A    between atoms: C_5  and  C_19
    5  A    between atoms: C_5  and  C_34
    6  A    between atoms: N_7  and  O_13
    7  A    between atoms: N_7  and  C_14
    8  A    between atoms: N_7  and  C_21
    9  A    between atoms: O_10  and  C_16
   10  A    between atoms: O_10  and  C_34
   11  A    between atoms: O_13  and  C_29
   12  A    between atoms: C_15  and  C_18
   13  A    between atoms: C_16  and  C_24
   14  A    between atoms: C_18  and  C_31
                            x       y       z     vdW  Elec       q    Type
                         _______ _______ _______ _____ _____    ______ ____

>  <TORSDO>
F 14

$$$$
=
 OpenBabel11042418423D

 34 36  0  0  1  0  0  0  0  0999 V2000
  190.2470  175.8930  144.8380 N   0  0  0  0  0  0  0  0  0  0  0  0
  192.7410  175.6580  144.5390 C   0  0  0  0  0  0  0  0  0  0  0  0
  194.8810  176.3700  144.4240 C   0  0  1  0  0  3  0  0  0  0  0  0
  191.3370  176.6680  147.7410 C   0  0  0  0  0  1  0  0  0  0  0  0
  193.4730  176.3260  146.4830 N   0  0  0  0  0  0  0  0  0  0  0  0
  191.6170  175.8660  145.3000 C   0  0  0  0  0  0  0  0  0  0  0  0
  194.2800  176.3260  143.0810 N   0  0  0  0  0  0  0  0  0  0  0  0
  193.8120  175.8940  145.2800 N   0  0  0  0  0  0  0  0  0  0  0  0
  193.0370  175.9380  143.1550 C   0  0  0  0  0  3  0  0  0  0  0  0
  192.1230  176.2520  146.5450 C   0  0  0  0  0  0  0  0  0  0  0  0
  196.0590  175.4180  144.4920 C   0  0  0  0  0  1  0  0  0  0  0  0
  189.5360  177.0560  144.9230 O   0  0  0  0  0  0  0  0  0  0  0  0
  185.5670  177.0440  146.3020 C   0  0  0  0  0  3  0  0  0  0  0  0
  187.9970  177.1190  146.7560 C   0  0  0  0  0  2  0  0  0  0  0  0
  187.2360  177.4380  144.4280 C   0  0  1  0  0  3  0  0  0  0  0  0
  186.5670  176.9810  147.1770 C   0  0  0  0  0  3  0  0  0  0  0  0
  185.7830  177.1470  144.8170 C   0  0  0  0  0  2  0  0  0  0  0  0
  188.2320  176.6960  145.3080 C   0  0  1  0  0  3  0  0  0  0  0  0
  187.5350  177.2460  142.9320 C   0  0  1  0  0  3  0  0  0  0  0  0
  187.0100  175.9480  142.3130 C   0  0  0  0  0  2  0  0  0  0  0  0
  187.9610  175.4240  141.2510 C   0  0  0  0  0  1  0  0  0  0  0  0
  187.0340  178.4510  142.1530 C   0  0  0  0  0  2  0  0  0  0  0  0
  185.6410  178.4070  142.0530 O   0  0  0  0  0  0  0  0  0  0  0  0
  185.4030  178.3510  140.6830 C   0  0  0  0  0  2  0  0  0  0  0  0
  183.1960  178.1640  141.7580 C   0  0  0  0  0  1  0  0  0  0  0  0
  183.9100  178.3220  140.4390 C   0  0  0  0  0  2  0  0  0  0  0  0
  189.5870  174.6230  144.5040 C   0  0  0  0  0  2  0  0  0  0  0  0
  189.9460  173.4740  145.4460 C   0  0  1  0  0  3  0  0  0  0  0  0
  189.2630  173.6490  146.6500 O   0  0  0  0  0  1  0  0  0  0  0  0
  189.5730  172.1210  144.8430 C   0  0  0  0  0  2  0  0  0  0  0  0
  189.5420  172.1950  143.3170 C   0  0  0  0  0  2  0  0  0  0  0  0
  190.5480  171.2790  142.7010 C   0  0  0  0  0  0  0  0  0  0  0  0
  190.3220  170.7590  141.5780 O   0  0  0  0  0  0  0  0  0  0  0  0
  191.7190  170.9770  143.3790 O   0  0  0  0  0  1  0  0  0  0  0  0
  1 12  1  0  0  0  0
  1  6  1  0  0  0  0
  2  8  1  0  0  0  0
  2  6  2  0  0  0  0
  3 11  1  6  0  0  0
  3  8  1  0  0  0  0
  5 10  2  0  0  0  0
  6 10  1  0  0  0  0
  7  9  2  0  0  0  0
  7  3  1  0  0  0  0
  8  5  1  0  0  0  0
  9  2  1  0  0  0  0
 10  4  1  0  0  0  0
 13 16  2  0  0  0  0
 14 16  1  0  0  0  0
 15 19  1  6  0  0  0
 15 17  1  0  0  0  0
 15 18  1  0  0  0  0
 17 13  1  0  0  0  0
 18 12  1  6  0  0  0
 18 14  1  0  0  0  0
 19 22  1  6  0  0  0
 20 19  1  0  0  0  0
 21 20  1  0  0  0  0
 23 22  1  0  0  0  0
 24 23  1  0  0  0  0
 26 24  1  0  0  0  0
 26 25  1  0  0  0  0
 27  1  1  0  0  0  0
 27 28  1  0  0  0  0
 28 29  1  1  0  0  0
 30 28  1  0  0  0  0
 31 30  1  0  0  0  0
 32 31  1  0  0  0  0
 32 34  1  0  0  0  0
 33 32  2  0  0  0  0
M  END
>  <MODEL>
3

>  <REMARK>
 VINA RESULT:      -6.0      2.451      7.073
  Name = 
  14 active torsions:
  status: ('A' for Active; 'I' for Inactive)
    1  A    between atoms: C_3  and  C_14
    2  A    between atoms: C_3  and  C_31
    3  A    between atoms: C_5  and  C_9
    4  A    between atoms: C_5  and  C_19
    5  A    between atoms: C_5  and  C_34
    6  A    between atoms: N_7  and  O_13
    7  A    between atoms: N_7  and  C_14
    8  A    between atoms: N_7  and  C_21
    9  A    between atoms: O_10  and  C_16
   10  A    between atoms: O_10  and  C_34
   11  A    between atoms: O_13  and  C_29
   12  A    between atoms: C_15  and  C_18
   13  A    between atoms: C_16  and  C_24
   14  A    between atoms: C_18  and  C_31
                            x       y       z     vdW  Elec       q    Type
                         _______ _______ _______ _____ _____    ______ ____

>  <TORSDO>
F 14

$$$$
=
 OpenBabel11042418423D

 34 36  0  0  1  0  0  0  0  0999 V2000
  189.6800  174.5810  142.5470 N   0  0  0  0  0  0  0  0  0  0  0  0
  191.8430  175.3080  143.6240 C   0  0  0  0  0  0  0  0  0  0  0  0
  193.1470  176.1820  145.2470 C   0  0  1  0  0  3  0  0  0  0  0  0
  189.8870  172.5790  145.0300 C   0  0  0  0  0  1  0  0  0  0  0  0
  191.8950  174.0290  145.3910 N   0  0  0  0  0  0  0  0  0  0  0  0
  190.7630  174.4690  143.4990 C   0  0  0  0  0  0  0  0  0  0  0  0
  192.7870  177.2160  144.2630 N   0  0  0  0  0  0  0  0  0  0  0  0
  192.5090  174.9900  144.7220 N   0  0  0  0  0  0  0  0  0  0  0  0
  192.0130  176.7130  143.3410 C   0  0  0  0  0  3  0  0  0  0  0  0
  190.8510  173.6410  144.6230 C   0  0  0  0  0  0  0  0  0  0  0  0
  194.6510  175.9950  145.2700 C   0  0  0  0  0  1  0  0  0  0  0  0
  188.4190  174.8480  142.9970 O   0  0  0  0  0  0  0  0  0  0  0  0
  186.7190  178.6390  142.3610 C   0  0  0  0  0  3  0  0  0  0  0  0
  187.3320  176.3930  141.5250 C   0  0  0  0  0  2  0  0  0  0  0  0
  187.4490  176.8030  143.9580 C   0  0  1  0  0  3  0  0  0  0  0  0
  186.8610  177.8020  141.3370 C   0  0  0  0  0  3  0  0  0  0  0  0
  187.1180  178.2860  143.7680 C   0  0  0  0  0  2  0  0  0  0  0  0
  188.2000  176.2190  142.7690 C   0  0  1  0  0  3  0  0  0  0  0  0
  188.1450  176.4810  145.2910 C   0  0  1  0  0  3  0  0  0  0  0  0
  189.3390  177.3710  145.6480 C   0  0  0  0  0  2  0  0  0  0  0  0
  190.0920  176.8220  146.8460 C   0  0  0  0  0  1  0  0  0  0  0  0
  187.1200  176.4850  146.4140 C   0  0  0  0  0  2  0  0  0  0  0  0
  187.0170  177.7670  146.9590 O   0  0  0  0  0  0  0  0  0  0  0  0
  185.7480  177.7900  147.5300 C   0  0  0  0  0  2  0  0  0  0  0  0
  184.0970  178.6980  145.9470 C   0  0  0  0  0  1  0  0  0  0  0  0
  184.7230  177.4330  146.4760 C   0  0  0  0  0  2  0  0  0  0  0  0
  189.9190  174.1820  141.1520 C   0  0  0  0  0  2  0  0  0  0  0  0
  189.0920  172.9770  140.7040 C   0  0  1  0  0  3  0  0  0  0  0  0
  188.2890  173.3570  139.6290 O   0  0  0  0  0  1  0  0  0  0  0  0
  189.9870  171.8130  140.2810 C   0  0  0  0  0  2  0  0  0  0  0  0
  191.4550  172.1220  140.5720 C   0  0  0  0  0  2  0  0  0  0  0  0
  192.3100  171.9220  139.3640 C   0  0  0  0  0  0  0  0  0  0  0  0
  193.5440  171.7120  139.4930 O   0  0  0  0  0  1  0  0  0  0  0  0
  191.7510  171.9970  138.0980 O   0  0  0  0  0  0  0  0  0  0  0  0
  1 12  1  0  0  0  0
  1  6  1  0  0  0  0
  2  8  1  0  0  0  0
  3 11  1  6  0  0  0
  6  2  2  0  0  0  0
  6 10  1  0  0  0  0
  7  3  1  0  0  0  0
  8  3  1  0  0  0  0
  8  5  1  0  0  0  0
  9  2  1  0  0  0  0
  9  7  2  0  0  0  0
 10  4  1  0  0  0  0
 10  5  2  0  0  0  0
 13 17  1  0  0  0  0
 14 18  1  0  0  0  0
 15 19  1  1  0  0  0
 16 14  1  0  0  0  0
 16 13  2  0  0  0  0
 17 15  1  0  0  0  0
 18 12  1  1  0  0  0
 18 15  1  0  0  0  0
 19 20  1  1  0  0  0
 19 22  1  0  0  0  0
 20 21  1  0  0  0  0
 22 23  1  0  0  0  0
 23 24  1  0  0  0  0
 25 26  1  0  0  0  0
 26 24  1  0  0  0  0
 27  1  1  0  0  0  0
 28 29  1  6  0  0  0
 28 27  1  0  0  0  0
 30 31  1  0  0  0  0
 30 28  1  0  0  0  0
 32 33  1  0  0  0  0
 32 31  1  0  0  0  0
 34 32  2  0  0  0  0
M  END
>  <MODEL>
4

>  <REMARK>
 VINA RESULT:      -5.9      2.465      7.838
  Name = 
  14 active torsions:
  status: ('A' for Active; 'I' for Inactive)
    1  A    between atoms: C_3  and  C_14
    2  A    between atoms: C_3  and  C_31
    3  A    between atoms: C_5  and  C_9
    4  A    between atoms: C_5  and  C_19
    5  A    between atoms: C_5  and  C_34
    6  A    between atoms: N_7  and  O_13
    7  A    between atoms: N_7  and  C_14
    8  A    between atoms: N_7  and  C_21
    9  A    between atoms: O_10  and  C_16
   10  A    between atoms: O_10  and  C_34
   11  A    between atoms: O_13  and  C_29
   12  A    between atoms: C_15  and  C_18
   13  A    between atoms: C_16  and  C_24
   14  A    between atoms: C_18  and  C_31
                            x       y       z     vdW  Elec       q    Type
                         _______ _______ _______ _____ _____    ______ ____

>  <TORSDO>
F 14

$$$$
=
 OpenBabel11042418423D

 34 36  0  0  1  0  0  0  0  0999 V2000
  189.8130  174.3910  142.7740 N   0  0  0  0  0  0  0  0  0  0  0  0
  189.8470  172.7580  140.8510 C   0  0  0  0  0  0  0  0  0  0  0  0
  190.7910  171.4000  139.3150 C   0  0  1  0  0  3  0  0  0  0  0  0
  190.9880  171.7620  144.1600 C   0  0  0  0  0  1  0  0  0  0  0  0
  190.7810  171.0180  141.7790 N   0  0  0  0  0  0  0  0  0  0  0  0
  189.9920  173.0860  142.1760 C   0  0  0  0  0  0  0  0  0  0  0  0
  190.5480  172.7340  138.7420 N   0  0  0  0  0  0  0  0  0  0  0  0
  190.2780  171.5210  140.6650 N   0  0  0  0  0  0  0  0  0  0  0  0
  190.0240  173.5230  139.6400 C   0  0  0  0  0  3  0  0  0  0  0  0
  190.5540  171.9390  142.7450 C   0  0  0  0  0  0  0  0  0  0  0  0
  189.9970  170.3590  138.5500 C   0  0  0  0  0  1  0  0  0  0  0  0
  188.6080  174.7110  143.3320 O   0  0  0  0  0  0  0  0  0  0  0  0
  186.8030  178.3610  142.2940 C   0  0  0  0  0  3  0  0  0  0  0  0
  187.5420  176.0810  141.6830 C   0  0  0  0  0  2  0  0  0  0  0  0
  187.5170  176.6960  144.0750 C   0  0  1  0  0  3  0  0  0  0  0  0
  187.0290  177.4490  141.3530 C   0  0  0  0  0  3  0  0  0  0  0  0
  187.1410  178.1430  143.7440 C   0  0  0  0  0  2  0  0  0  0  0  0
  188.3500  176.0470  142.9770 C   0  0  1  0  0  3  0  0  0  0  0  0
  188.1550  176.5150  145.4630 C   0  0  1  0  0  3  0  0  0  0  0  0
  189.3020  177.4730  145.7950 C   0  0  0  0  0  2  0  0  0  0  0  0
  190.3290  176.8060  146.6930 C   0  0  0  0  0  1  0  0  0  0  0  0
  187.0750  176.5820  146.5310 C   0  0  0  0  0  2  0  0  0  0  0  0
  187.0860  177.8400  147.1410 O   0  0  0  0  0  0  0  0  0  0  0  0
  185.7840  178.0030  147.6010 C   0  0  0  0  0  2  0  0  0  0  0  0
  184.0850  178.6510  145.9420 C   0  0  0  0  0  1  0  0  0  0  0  0
  184.8190  177.4860  146.5560 C   0  0  0  0  0  2  0  0  0  0  0  0
  190.8480  175.4140  142.5660 C   0  0  0  0  0  2  0  0  0  0  0  0
  192.2620  174.9360  142.9000 C   0  0  1  0  0  3  0  0  0  0  0  0
  193.1700  175.6160  142.0870 O   0  0  0  0  0  1  0  0  0  0  0  0
  192.6050  175.1920  144.3660 C   0  0  0  0  0  2  0  0  0  0  0  0
  193.8550  176.0630  144.4890 C   0  0  0  0  0  2  0  0  0  0  0  0
  194.4140  176.0320  145.8730 C   0  0  0  0  0  0  0  0  0  0  0  0
  195.3140  175.2040  146.1700 O   0  0  0  0  0  0  0  0  0  0  0  0
  193.9200  176.8930  146.8410 O   0  0  0  0  0  1  0  0  0  0  0  0
  1 12  1  0  0  0  0
  2  6  2  0  0  0  0
  3 11  1  6  0  0  0
  3  8  1  0  0  0  0
  5 10  2  0  0  0  0
  6 10  1  0  0  0  0
  6  1  1  0  0  0  0
  7  3  1  0  0  0  0
  7  9  2  0  0  0  0
  8  2  1  0  0  0  0
  8  5  1  0  0  0  0
  9  2  1  0  0  0  0
 10  4  1  0  0  0  0
 13 17  1  0  0  0  0
 14 18  1  0  0  0  0
 15 19  1  1  0  0  0
 16 14  1  0  0  0  0
 16 13  2  0  0  0  0
 17 15  1  0  0  0  0
 18 12  1  1  0  0  0
 18 15  1  0  0  0  0
 19 20  1  1  0  0  0
 19 22  1  0  0  0  0
 20 21  1  0  0  0  0
 22 23  1  0  0  0  0
 23 24  1  0  0  0  0
 25 26  1  0  0  0  0
 26 24  1  0  0  0  0
 27  1  1  0  0  0  0
 27 28  1  0  0  0  0
 28 29  1  6  0  0  0
 28 30  1  0  0  0  0
 30 31  1  0  0  0  0
 31 32  1  0  0  0  0
 32 33  2  0  0  0  0
 32 34  1  0  0  0  0
M  END
>  <MODEL>
5

>  <REMARK>
 VINA RESULT:      -5.9      3.001      7.505
  Name = 
  14 active torsions:
  status: ('A' for Active; 'I' for Inactive)
    1  A    between atoms: C_3  and  C_14
    2  A    between atoms: C_3  and  C_31
    3  A    between atoms: C_5  and  C_9
    4  A    between atoms: C_5  and  C_19
    5  A    between atoms: C_5  and  C_34
    6  A    between atoms: N_7  and  O_13
    7  A    between atoms: N_7  and  C_14
    8  A    between atoms: N_7  and  C_21
    9  A    between atoms: O_10  and  C_16
   10  A    between atoms: O_10  and  C_34
   11  A    between atoms: O_13  and  C_29
   12  A    between atoms: C_15  and  C_18
   13  A    between atoms: C_16  and  C_24
   14  A    between atoms: C_18  and  C_31
                            x       y       z     vdW  Elec       q    Type
                         _______ _______ _______ _____ _____    ______ ____

>  <TORSDO>
F 14

$$$$
=
 OpenBabel11042418423D

 34 36  0  0  1  0  0  0  0  0999 V2000
  189.6730  174.6130  142.6880 N   0  0  0  0  0  0  0  0  0  0  0  0
  191.7280  175.5410  143.8200 C   0  0  0  0  0  0  0  0  0  0  0  0
  192.8810  176.6750  145.3960 C   0  0  1  0  0  3  0  0  0  0  0  0
  189.6920  173.0030  145.4490 C   0  0  0  0  0  1  0  0  0  0  0  0
  191.6450  174.5380  145.7550 N   0  0  0  0  0  0  0  0  0  0  0  0
  190.6730  174.6680  143.7320 C   0  0  0  0  0  0  0  0  0  0  0  0
  192.5930  177.5450  144.2440 N   0  0  0  0  0  0  0  0  0  0  0  0
  192.3030  175.4050  145.0040 N   0  0  0  0  0  0  0  0  0  0  0  0
  191.9070  176.8930  143.3460 C   0  0  0  0  0  3  0  0  0  0  0  0
  190.6750  174.0170  144.9700 C   0  0  0  0  0  0  0  0  0  0  0  0
  194.3800  176.5300  145.5710 C   0  0  0  0  0  1  0  0  0  0  0  0
  188.3700  174.8800  142.9960 O   0  0  0  0  0  0  0  0  0  0  0  0
  186.7250  178.6740  142.2480 C   0  0  0  0  0  3  0  0  0  0  0  0
  187.2870  176.3890  141.4850 C   0  0  0  0  0  2  0  0  0  0  0  0
  187.4490  176.8850  143.9000 C   0  0  1  0  0  3  0  0  0  0  0  0
  186.8370  177.7990  141.2530 C   0  0  0  0  0  3  0  0  0  0  0  0
  187.1400  178.3660  143.6600 C   0  0  0  0  0  2  0  0  0  0  0  0
  188.1700  176.2450  142.7210 C   0  0  1  0  0  3  0  0  0  0  0  0
  188.1600  176.5990  145.2330 C   0  0  1  0  0  3  0  0  0  0  0  0
  189.2190  177.6220  145.6510 C   0  0  0  0  0  2  0  0  0  0  0  0
  189.6790  177.3810  147.0780 C   0  0  0  0  0  1  0  0  0  0  0  0
  187.1250  176.4200  146.3330 C   0  0  0  0  0  2  0  0  0  0  0  0
  185.8430  176.6250  145.8170 O   0  0  0  0  0  0  0  0  0  0  0  0
  185.1340  177.1720  146.8830 C   0  0  0  0  0  2  0  0  0  0  0  0
  184.0640  178.8780  145.4670 C   0  0  0  0  0  1  0  0  0  0  0  0
  184.9660  178.6590  146.6560 C   0  0  0  0  0  2  0  0  0  0  0  0
  190.0450  174.0540  141.3810 C   0  0  0  0  0  2  0  0  0  0  0  0
  190.4120  172.5700  141.4260 C   0  0  1  0  0  3  0  0  0  0  0  0
  189.4030  171.8770  142.0950 O   0  0  0  0  0  1  0  0  0  0  0  0
  190.5770  171.9940  140.0210 C   0  0  0  0  0  2  0  0  0  0  0  0
  190.5420  173.1030  138.9700 C   0  0  0  0  0  2  0  0  0  0  0  0
  189.1930  173.2230  138.3410 C   0  0  0  0  0  0  0  0  0  0  0  0
  188.9540  174.1630  137.5390 O   0  0  0  0  0  0  0  0  0  0  0  0
  188.1940  172.3180  138.6630 O   0  0  0  0  0  1  0  0  0  0  0  0
  1 12  1  0  0  0  0
  1  6  1  0  0  0  0
  2  8  1  0  0  0  0
  3 11  1  6  0  0  0
  6  2  2  0  0  0  0
  6 10  1  0  0  0  0
  7  3  1  0  0  0  0
  8  3  1  0  0  0  0
  8  5  1  0  0  0  0
  9  2  1  0  0  0  0
  9  7  2  0  0  0  0
 10  4  1  0  0  0  0
 10  5  2  0  0  0  0
 13 17  1  0  0  0  0
 14 18  1  0  0  0  0
 15 19  1  1  0  0  0
 16 14  1  0  0  0  0
 16 13  2  0  0  0  0
 17 15  1  0  0  0  0
 18 12  1  1  0  0  0
 18 15  1  0  0  0  0
 19 20  1  1  0  0  0
 19 22  1  0  0  0  0
 20 21  1  0  0  0  0
 23 22  1  0  0  0  0
 23 24  1  0  0  0  0
 25 26  1  0  0  0  0
 26 24  1  0  0  0  0
 27 28  1  0  0  0  0
 27  1  1  0  0  0  0
 28 29  1  6  0  0  0
 30 28  1  0  0  0  0
 31 30  1  0  0  0  0
 32 34  1  0  0  0  0
 32 31  1  0  0  0  0
 33 32  2  0  0  0  0
M  END
>  <MODEL>
6

>  <REMARK>
 VINA RESULT:      -5.9      2.536      7.476
  Name = 
  14 active torsions:
  status: ('A' for Active; 'I' for Inactive)
    1  A    between atoms: C_3  and  C_14
    2  A    between atoms: C_3  and  C_31
    3  A    between atoms: C_5  and  C_9
    4  A    between atoms: C_5  and  C_19
    5  A    between atoms: C_5  and  C_34
    6  A    between atoms: N_7  and  O_13
    7  A    between atoms: N_7  and  C_14
    8  A    between atoms: N_7  and  C_21
    9  A    between atoms: O_10  and  C_16
   10  A    between atoms: O_10  and  C_34
   11  A    between atoms: O_13  and  C_29
   12  A    between atoms: C_15  and  C_18
   13  A    between atoms: C_16  and  C_24
   14  A    between atoms: C_18  and  C_31
                            x       y       z     vdW  Elec       q    Type
                         _______ _______ _______ _____ _____    ______ ____

>  <TORSDO>
F 14

$$$$
=
 OpenBabel11042418423D

 34 36  0  0  1  0  0  0  0  0999 V2000
  189.4850  176.3920  145.0250 N   0  0  0  0  0  0  0  0  0  0  0  0
  188.1650  176.6950  142.8950 C   0  0  0  0  0  0  0  0  0  0  0  0
  186.8820  177.8020  141.4040 C   0  0  1  0  0  3  0  0  0  0  0  0
  191.1940  178.6200  143.4980 C   0  0  0  0  0  1  0  0  0  0  0  0
  189.2650  178.3150  141.9330 N   0  0  0  0  0  0  0  0  0  0  0  0
  189.2550  176.9220  143.6990 C   0  0  0  0  0  0  0  0  0  0  0  0
  186.0410  177.0170  142.3240 N   0  0  0  0  0  0  0  0  0  0  0  0
  188.2290  177.4980  141.8460 N   0  0  0  0  0  0  0  0  0  0  0  0
  186.7860  176.3980  143.1990 C   0  0  0  0  0  3  0  0  0  0  0  0
  189.9540  177.9340  143.0340 C   0  0  0  0  0  0  0  0  0  0  0  0
  186.6820  177.3140  139.9820 C   0  0  0  0  0  1  0  0  0  0  0  0
  190.2130  175.2460  145.1690 O   0  0  0  0  0  0  0  0  0  0  0  0
  194.2480  175.7240  146.2430 C   0  0  0  0  0  3  0  0  0  0  0  0
  191.8490  176.1740  146.6500 C   0  0  0  0  0  2  0  0  0  0  0  0
  192.4450  174.4240  145.0110 C   0  0  1  0  0  3  0  0  0  0  0  0
  193.3090  176.4050  146.8950 C   0  0  0  0  0  3  0  0  0  0  0  0
  193.9360  174.7540  145.1370 C   0  0  0  0  0  2  0  0  0  0  0  0
  191.5610  175.6410  145.2490 C   0  0  1  0  0  3  0  0  0  0  0  0
  192.0720  173.6870  143.7140 C   0  0  1  0  0  3  0  0  0  0  0  0
  192.1710  174.5150  142.4300 C   0  0  0  0  0  2  0  0  0  0  0  0
  190.8880  174.4240  141.6220 C   0  0  0  0  0  1  0  0  0  0  0  0
  192.8990  172.4160  143.5960 C   0  0  0  0  0  2  0  0  0  0  0  0
  192.4530  171.4710  144.5240 O   0  0  0  0  0  0  0  0  0  0  0  0
  193.5150  170.5790  144.6340 C   0  0  0  0  0  2  0  0  0  0  0  0
  195.3810  170.0420  146.1470 C   0  0  0  0  0  1  0  0  0  0  0  0
  194.5590  171.1620  145.5610 C   0  0  0  0  0  2  0  0  0  0  0  0
  188.7450  176.9690  146.1560 C   0  0  0  0  0  2  0  0  0  0  0  0
  187.6660  176.0450  146.7220 C   0  0  1  0  0  3  0  0  0  0  0  0
  188.2520  175.1830  147.6490 O   0  0  0  0  0  1  0  0  0  0  0  0
  186.5530  176.8400  147.4030 C   0  0  0  0  0  2  0  0  0  0  0  0
  185.3450  176.9870  146.4780 C   0  0  0  0  0  2  0  0  0  0  0  0
  184.9310  178.4150  146.3370 C   0  0  0  0  0  0  0  0  0  0  0  0
  185.6950  179.3340  146.7340 O   0  0  0  0  0  1  0  0  0  0  0  0
  183.6940  178.7290  145.7970 O   0  0  0  0  0  0  0  0  0  0  0  0
  1 12  1  0  0  0  0
  1 27  1  0  0  0  0
  2  9  1  0  0  0  0
  2  6  2  0  0  0  0
  3 11  1  6  0  0  0
  3  8  1  0  0  0  0
  3  7  1  0  0  0  0
  5 10  2  0  0  0  0
  6  1  1  0  0  0  0
  7  9  2  0  0  0  0
  8  5  1  0  0  0  0
  8  2  1  0  0  0  0
 10  4  1  0  0  0  0
 10  6  1  0  0  0  0
 13 16  2  0  0  0  0
 14 16  1  0  0  0  0
 15 19  1  6  0  0  0
 15 17  1  0  0  0  0
 15 18  1  0  0  0  0
 17 13  1  0  0  0  0
 18 12  1  1  0  0  0
 18 14  1  0  0  0  0
 19 20  1  6  0  0  0
 21 20  1  0  0  0  0
 22 19  1  0  0  0  0
 22 23  1  0  0  0  0
 23 24  1  0  0  0  0
 24 26  1  0  0  0  0
 26 25  1  0  0  0  0
 27 28  1  0  0  0  0
 28 30  1  0  0  0  0
 28 29  1  1  0  0  0
 31 30  1  0  0  0  0
 32 31  1  0  0  0  0
 32 33  1  0  0  0  0
 34 32  2  0  0  0  0
M  END
>  <MODEL>
7

>  <REMARK>
 VINA RESULT:      -5.8      1.769      2.347
  Name = 
  14 active torsions:
  status: ('A' for Active; 'I' for Inactive)
    1  A    between atoms: C_3  and  C_14
    2  A    between atoms: C_3  and  C_31
    3  A    between atoms: C_5  and  C_9
    4  A    between atoms: C_5  and  C_19
    5  A    between atoms: C_5  and  C_34
    6  A    between atoms: N_7  and  O_13
    7  A    between atoms: N_7  and  C_14
    8  A    between atoms: N_7  and  C_21
    9  A    between atoms: O_10  and  C_16
   10  A    between atoms: O_10  and  C_34
   11  A    between atoms: O_13  and  C_29
   12  A    between atoms: C_15  and  C_18
   13  A    between atoms: C_16  and  C_24
   14  A    between atoms: C_18  and  C_31
                            x       y       z     vdW  Elec       q    Type
                         _______ _______ _______ _____ _____    ______ ____

>  <TORSDO>
F 14

$$$$
=
 OpenBabel11042418423D

 34 36  0  0  1  0  0  0  0  0999 V2000
  192.0800  175.7640  144.9460 N   0  0  0  0  0  0  0  0  0  0  0  0
  193.7780  173.9190  145.2350 C   0  0  0  0  0  0  0  0  0  0  0  0
  195.7040  172.8080  144.8410 C   0  0  1  0  0  3  0  0  0  0  0  0
  194.5680  177.3420  146.1850 C   0  0  0  0  0  1  0  0  0  0  0  0
  195.5120  175.0370  145.9460 N   0  0  0  0  0  0  0  0  0  0  0  0
  193.3380  175.2100  145.3970 C   0  0  0  0  0  0  0  0  0  0  0  0
  194.6180  172.2680  144.0060 N   0  0  0  0  0  0  0  0  0  0  0  0
  195.0450  173.8460  145.6100 N   0  0  0  0  0  0  0  0  0  0  0  0
  193.5130  172.9280  144.2200 C   0  0  0  0  0  3  0  0  0  0  0  0
  194.4590  175.8850  145.8900 C   0  0  0  0  0  0  0  0  0  0  0  0
  196.2250  171.7290  145.7700 C   0  0  0  0  0  1  0  0  0  0  0  0
  191.9140  176.0530  143.6220 O   0  0  0  0  0  0  0  0  0  0  0  0
  188.1160  176.9150  142.0430 C   0  0  0  0  0  3  0  0  0  0  0  0
  190.3020  177.6760  142.9140 C   0  0  0  0  0  2  0  0  0  0  0  0
  190.0310  175.2790  142.3830 C   0  0  1  0  0  3  0  0  0  0  0  0
  188.8910  177.9080  142.4690 C   0  0  0  0  0  3  0  0  0  0  0  0
  188.5430  175.4730  142.0720 C   0  0  0  0  0  2  0  0  0  0  0  0
  190.5360  176.2600  143.4330 C   0  0  1  0  0  3  0  0  0  0  0  0
  190.4190  173.8290  142.7160 C   0  0  1  0  0  3  0  0  0  0  0  0
  189.3150  172.9760  143.3470 C   0  0  0  0  0  2  0  0  0  0  0  0
  189.7920  172.3290  144.6350 C   0  0  0  0  0  1  0  0  0  0  0  0
  190.9740  173.1520  141.4730 C   0  0  0  0  0  2  0  0  0  0  0  0
  190.0260  172.2710  140.9470 O   0  0  0  0  0  0  0  0  0  0  0  0
  190.4090  172.1180  139.6180 C   0  0  0  0  0  2  0  0  0  0  0  0
  188.1910  173.0590  139.1110 C   0  0  0  0  0  1  0  0  0  0  0  0
  189.6580  173.1180  138.7670 C   0  0  0  0  0  2  0  0  0  0  0  0
  191.1030  176.2100  145.9500 C   0  0  0  0  0  2  0  0  0  0  0  0
  190.7690  175.1490  146.9990 C   0  0  1  0  0  3  0  0  0  0  0  0
  191.3530  175.5160  148.2120 O   0  0  0  0  0  1  0  0  0  0  0  0
  189.2600  175.0060  147.1870 C   0  0  0  0  0  2  0  0  0  0  0  0
  188.5060  175.5770  145.9860 C   0  0  0  0  0  2  0  0  0  0  0  0
  187.5600  176.6580  146.3940 C   0  0  0  0  0  0  0  0  0  0  0  0
  186.6660  176.4240  147.2480 O   0  0  0  0  0  1  0  0  0  0  0  0
  187.6450  177.9120  145.8090 O   0  0  0  0  0  0  0  0  0  0  0  0
  1  6  1  0  0  0  0
  1 27  1  0  0  0  0
  2  6  2  0  0  0  0
  2  8  1  0  0  0  0
  3  8  1  0  0  0  0
  3 11  1  1  0  0  0
  6 10  1  0  0  0  0
  7  9  2  0  0  0  0
  7  3  1  0  0  0  0
  8  5  1  0  0  0  0
  9  2  1  0  0  0  0
 10  5  2  0  0  0  0
 10  4  1  0  0  0  0
 12  1  1  0  0  0  0
 13 17  1  0  0  0  0
 13 16  2  0  0  0  0
 14 18  1  0  0  0  0
 15 19  1  1  0  0  0
 15 18  1  0  0  0  0
 16 14  1  0  0  0  0
 17 15  1  0  0  0  0
 18 12  1  6  0  0  0
 19 22  1  6  0  0  0
 19 20  1  0  0  0  0
 20 21  1  0  0  0  0
 23 22  1  0  0  0  0
 24 23  1  0  0  0  0
 26 25  1  0  0  0  0
 26 24  1  0  0  0  0
 27 28  1  0  0  0  0
 28 30  1  0  0  0  0
 28 29  1  1  0  0  0
 31 32  1  0  0  0  0
 31 30  1  0  0  0  0
 32 33  1  0  0  0  0
 34 32  2  0  0  0  0
M  END
>  <MODEL>
8

>  <REMARK>
 VINA RESULT:      -5.8      3.106      5.861
  Name = 
  14 active torsions:
  status: ('A' for Active; 'I' for Inactive)
    1  A    between atoms: C_3  and  C_14
    2  A    between atoms: C_3  and  C_31
    3  A    between atoms: C_5  and  C_9
    4  A    between atoms: C_5  and  C_19
    5  A    between atoms: C_5  and  C_34
    6  A    between atoms: N_7  and  O_13
    7  A    between atoms: N_7  and  C_14
    8  A    between atoms: N_7  and  C_21
    9  A    between atoms: O_10  and  C_16
   10  A    between atoms: O_10  and  C_34
   11  A    between atoms: O_13  and  C_29
   12  A    between atoms: C_15  and  C_18
   13  A    between atoms: C_16  and  C_24
   14  A    between atoms: C_18  and  C_31
                            x       y       z     vdW  Elec       q    Type
                         _______ _______ _______ _____ _____    ______ ____

>  <TORSDO>
F 14

$$$$
=
 OpenBabel11042418423D

 34 36  0  0  1  0  0  0  0  0999 V2000
  188.4150  176.7160  143.0310 N   0  0  0  0  0  0  0  0  0  0  0  0
  188.7460  175.2700  140.9900 C   0  0  0  0  0  0  0  0  0  0  0  0
  188.1800  173.7300  139.4390 C   0  0  1  0  0  3  0  0  0  0  0  0
  186.2170  177.8870  141.0270 C   0  0  0  0  0  1  0  0  0  0  0  0
  187.1480  175.9870  139.6890 N   0  0  0  0  0  0  0  0  0  0  0  0
  188.1810  176.3290  141.6570 C   0  0  0  0  0  0  0  0  0  0  0  0
  188.9300  173.1010  140.5390 N   0  0  0  0  0  0  0  0  0  0  0  0
  188.1450  175.1290  139.8200 N   0  0  0  0  0  0  0  0  0  0  0  0
  189.2340  173.9900  141.4440 C   0  0  0  0  0  3  0  0  0  0  0  0
  187.1920  176.7860  140.7810 C   0  0  0  0  0  0  0  0  0  0  0  0
  188.9410  173.5680  138.1380 C   0  0  0  0  0  1  0  0  0  0  0  0
  187.7730  176.0460  144.0330 O   0  0  0  0  0  0  0  0  0  0  0  0
  185.5020  178.1250  146.8930 C   0  0  0  0  0  3  0  0  0  0  0  0
  185.6830  177.0090  144.6930 C   0  0  0  0  0  2  0  0  0  0  0  0
  187.5210  176.6960  146.3130 C   0  0  1  0  0  3  0  0  0  0  0  0
  184.9750  177.8620  145.7000 C   0  0  0  0  0  3  0  0  0  0  0  0
  186.8850  177.6880  147.2910 C   0  0  0  0  0  2  0  0  0  0  0  0
  187.2000  177.0270  144.8610 C   0  0  1  0  0  3  0  0  0  0  0  0
  189.0270  176.4760  146.5320 C   0  0  1  0  0  3  0  0  0  0  0  0
  189.7360  177.5390  147.3770 C   0  0  0  0  0  2  0  0  0  0  0  0
  191.0060  176.9860  147.9980 C   0  0  0  0  0  1  0  0  0  0  0  0
  189.2590  175.0900  147.1110 C   0  0  0  0  0  2  0  0  0  0  0  0
  190.3180  174.4670  146.4460 O   0  0  0  0  0  0  0  0  0  0  0  0
  189.6950  173.5660  145.5880 C   0  0  0  0  0  2  0  0  0  0  0  0
  190.1870  171.7080  144.0500 C   0  0  0  0  0  1  0  0  0  0  0  0
  190.7240  172.9860  144.6440 C   0  0  0  0  0  2  0  0  0  0  0  0
  189.1550  177.9570  143.3000 C   0  0  0  0  0  2  0  0  0  0  0  0
  190.6610  177.8420  143.0620 C   0  0  1  0  0  3  0  0  0  0  0  0
  191.2920  178.9470  143.6340 O   0  0  0  0  0  1  0  0  0  0  0  0
  191.2260  176.5630  143.6760 C   0  0  0  0  0  2  0  0  0  0  0  0
  192.3610  176.8810  144.6490 C   0  0  0  0  0  2  0  0  0  0  0  0
  193.4890  175.9120  144.5140 C   0  0  0  0  0  0  0  0  0  0  0  0
  193.6150  174.9730  145.3430 O   0  0  0  0  0  1  0  0  0  0  0  0
  194.4160  176.0630  143.4950 O   0  0  0  0  0  0  0  0  0  0  0  0
  1 27  1  0  0  0  0
  1 12  1  0  0  0  0
  2  9  1  0  0  0  0
  2  6  2  0  0  0  0
  3 11  1  6  0  0  0
  3  8  1  0  0  0  0
  3  7  1  0  0  0  0
  5  8  1  0  0  0  0
  5 10  2  0  0  0  0
  6  1  1  0  0  0  0
  7  9  2  0  0  0  0
  8  2  1  0  0  0  0
 10  4  1  0  0  0  0
 10  6  1  0  0  0  0
 13 17  1  0  0  0  0
 14 18  1  0  0  0  0
 14 16  1  0  0  0  0
 15 19  1  6  0  0  0
 15 17  1  0  0  0  0
 16 13  2  0  0  0  0
 18 12  1  6  0  0  0
 18 15  1  0  0  0  0
 19 22  1  1  0  0  0
 19 20  1  0  0  0  0
 20 21  1  0  0  0  0
 23 22  1  0  0  0  0
 24 23  1  0  0  0  0
 25 26  1  0  0  0  0
 26 24  1  0  0  0  0
 28 27  1  0  0  0  0
 28 29  1  1  0  0  0
 28 30  1  0  0  0  0
 30 31  1  0  0  0  0
 32 31  1  0  0  0  0
 32 33  1  0  0  0  0
 34 32  2  0  0  0  0
M  END
>  <MODEL>
9

>  <REMARK>
 VINA RESULT:      -5.7      2.387      5.737
  Name = 
  14 active torsions:
  status: ('A' for Active; 'I' for Inactive)
    1  A    between atoms: C_3  and  C_14
    2  A    between atoms: C_3  and  C_31
    3  A    between atoms: C_5  and  C_9
    4  A    between atoms: C_5  and  C_19
    5  A    between atoms: C_5  and  C_34
    6  A    between atoms: N_7  and  O_13
    7  A    between atoms: N_7  and  C_14
    8  A    between atoms: N_7  and  C_21
    9  A    between atoms: O_10  and  C_16
   10  A    between atoms: O_10  and  C_34
   11  A    between atoms: O_13  and  C_29
   12  A    between atoms: C_15  and  C_18
   13  A    between atoms: C_16  and  C_24
   14  A    between atoms: C_18  and  C_31
                            x       y       z     vdW  Elec       q    Type
                         _______ _______ _______ _____ _____    ______ ____

>  <TORSDO>
F 14

$$$$
