=
 OpenBabel11042417263D

 29 32  0  0  1  0  0  0  0  0999 V2000
  190.2470  172.6570  142.9170 C   0  0  0  0  0  3  0  0  0  0  0  0
  190.3970  174.8160  142.6780 C   0  0  2  0  0  3  0  0  0  0  0  0
  189.7040  176.9610  143.4970 C   0  0  0  0  0  0  0  0  0  0  0  0
  190.7220  176.2050  143.0410 C   0  0  0  0  0  0  0  0  0  0  0  0
  188.3380  176.3580  143.6760 C   0  0  0  0  0  0  0  0  0  0  0  0
  189.0070  174.4730  142.2980 C   0  0  2  0  0  3  0  0  0  0  0  0
  188.0770  175.1750  143.1840 N   0  0  0  0  0  0  0  0  0  0  0  0
  189.9340  178.2910  143.8370 O   0  0  0  0  0  1  0  0  0  0  0  0
  191.0950  173.7930  143.0330 N   0  0  0  0  0  2  0  0  0  0  0  0
  189.0210  173.0020  142.5380 C   0  0  0  0  0  3  0  0  0  0  0  0
  192.6510  177.0350  144.3680 N   0  0  1  0  0  0  0  0  0  0  0  0
  192.1330  176.7510  143.0180 C   0  0  1  0  0  3  0  0  0  0  0  0
  192.8050  175.7870  145.1460 C   0  0  1  0  0  3  0  0  0  0  0  0
  193.9560  176.3410  144.4320 C   0  0  1  0  0  3  0  0  0  0  0  0
  194.1400  175.6620  143.1150 C   0  0  0  0  0  3  0  0  0  0  0  0
  193.1230  175.8940  142.3060 C   0  0  0  0  0  3  0  0  0  0  0  0
  192.8960  176.1010  146.5020 O   0  0  0  0  0  0  0  0  0  0  0  0
  194.1260  176.7490  146.6290 C   0  0  0  0  0  1  0  0  0  0  0  0
  187.2930  176.9800  144.5670 C   0  0  1  0  0  3  0  0  0  0  0  0
  185.9890  177.0220  143.9040 N   0  0  0  0  0  2  0  0  0  0  0  0
  185.5220  178.0750  143.0520 C   0  0  0  0  0  0  0  0  0  0  0  0
  186.2700  179.0390  142.7460 O   0  0  0  0  0  0  0  0  0  0  0  0
  184.1990  178.0200  142.5340 N   0  0  0  0  0  1  0  0  0  0  0  0
  187.2260  176.4230  145.9990 C   0  0  2  0  0  3  0  0  0  0  0  0
  186.8930  178.1700  147.6010 O   0  0  0  0  0  1  0  0  0  0  0  0
  186.2280  177.1960  146.8560 C   0  0  0  0  0  2  0  0  0  0  0  0
  188.6040  176.3640  146.6740 C   0  0  0  0  0  2  0  0  0  0  0  0
  188.9830  174.9690  147.1600 C   0  0  0  0  0  2  0  0  0  0  0  0
  189.6460  174.2690  146.1520 O   0  0  0  0  0  1  0  0  0  0  0  0
  1  9  1  0  0  0  0
  2  9  1  1  0  0  0
  2  4  1  0  0  0  0
  3  5  1  0  0  0  0
  3  8  1  0  0  0  0
  4  3  2  0  0  0  0
  5 19  1  0  0  0  0
  6 10  1  1  0  0  0
  6  2  1  0  0  0  0
  6  7  1  0  0  0  0
  7  5  2  0  0  0  0
 10  1  2  0  0  0  0
 11 14  1  0  0  0  0
 11 13  1  0  0  0  0
 12  4  1  0  0  0  0
 12 11  1  0  0  0  0
 13 17  1  0  0  0  0
 14 13  1  0  0  0  0
 15 14  1  0  0  0  0
 16 12  1  0  0  0  0
 16 15  2  0  0  0  0
 17 18  1  0  0  0  0
 19 24  1  0  0  0  0
 20 19  1  0  0  0  0
 21 20  1  0  0  0  0
 22 21  2  0  0  0  0
 23 21  1  0  0  0  0
 24 27  1  0  0  0  0
 24 26  1  0  0  0  0
 26 25  1  0  0  0  0
 27 28  1  0  0  0  0
 29 28  1  0  0  0  0
M  END
>  <MODEL>
1

>  <REMARK>
 VINA RESULT:      -6.1      0.000      0.000
  Name = 
  8 active torsions:
  status: ('A' for Active; 'I' for Inactive)
    1  A    between atoms: N_3  and  C_24
    2  A    between atoms: O_4  and  C_15
    3  A    between atoms: C_5  and  C_17
    4  A    between atoms: C_8  and  C_9
    5  A    between atoms: C_11  and  C_29
    6  A    between atoms: C_12  and  C_24
    7  A    between atoms: C_17  and  C_29
    8  A    between atoms: C_24  and  C_29
                            x       y       z     vdW  Elec       q    Type
                         _______ _______ _______ _____ _____    ______ ____

>  <TORSDO>
F 8

$$$$
=
 OpenBabel11042417263D

 29 32  0  0  1  0  0  0  0  0999 V2000
  185.5230  176.7550  146.2100 C   0  0  0  0  0  3  0  0  0  0  0  0
  187.1150  177.6570  145.0310 C   0  0  2  0  0  3  0  0  0  0  0  0
  189.2540  177.3310  143.9950 C   0  0  0  0  0  0  0  0  0  0  0  0
  188.0150  177.8500  143.8820 C   0  0  0  0  0  0  0  0  0  0  0  0
  189.6330  176.5430  145.2180 C   0  0  0  0  0  0  0  0  0  0  0  0
  187.6950  177.4410  146.3770 C   0  0  2  0  0  3  0  0  0  0  0  0
  188.8510  176.5490  146.2670 N   0  0  0  0  0  0  0  0  0  0  0  0
  190.1640  177.4950  142.9550 O   0  0  0  0  0  1  0  0  0  0  0  0
  185.8920  177.2650  144.9350 N   0  0  0  0  0  2  0  0  0  0  0  0
  186.5410  176.7940  147.0630 C   0  0  0  0  0  3  0  0  0  0  0  0
  187.9200  177.6920  141.4050 N   0  0  1  0  0  0  0  0  0  0  0  0
  187.5680  178.4950  142.5890 C   0  0  1  0  0  3  0  0  0  0  0  0
  187.1770  176.4130  141.3960 C   0  0  1  0  0  3  0  0  0  0  0  0
  186.6590  177.5560  140.6440 C   0  0  1  0  0  3  0  0  0  0  0  0
  185.6110  178.2760  141.4280 C   0  0  0  0  0  3  0  0  0  0  0  0
  186.1140  178.8180  142.5210 C   0  0  0  0  0  3  0  0  0  0  0  0
  187.8060  175.5240  140.5270 O   0  0  0  0  0  0  0  0  0  0  0  0
  188.5830  174.7140  141.3560 C   0  0  0  0  0  1  0  0  0  0  0  0
  190.7960  175.5850  145.2310 C   0  0  1  0  0  3  0  0  0  0  0  0
  190.6040  174.5050  144.2620 N   0  0  0  0  0  2  0  0  0  0  0  0
  190.0350  173.2220  144.5460 C   0  0  0  0  0  0  0  0  0  0  0  0
  189.5740  172.9570  145.6860 O   0  0  0  0  0  0  0  0  0  0  0  0
  189.9780  172.2390  143.5210 N   0  0  0  0  0  1  0  0  0  0  0  0
  192.1890  176.2320  145.1470 C   0  0  2  0  0  3  0  0  0  0  0  0
  193.3120  176.3570  143.0380 O   0  0  0  0  0  1  0  0  0  0  0  0
  193.0780  175.5220  144.1310 C   0  0  0  0  0  2  0  0  0  0  0  0
  192.8790  176.3230  146.5160 C   0  0  0  0  0  2  0  0  0  0  0  0
  194.3990  176.4130  146.4250 C   0  0  0  0  0  2  0  0  0  0  0  0
  194.7910  177.7290  146.1830 O   0  0  0  0  0  1  0  0  0  0  0  0
  1 10  2  0  0  0  0
  2  4  1  6  0  0  0
  2  6  1  0  0  0  0
  3  5  1  0  0  0  0
  4  3  2  0  0  0  0
  5 19  1  0  0  0  0
  5  7  2  0  0  0  0
  6 10  1  1  0  0  0
  7  6  1  0  0  0  0
  8  3  1  0  0  0  0
  9  2  1  0  0  0  0
  9  1  1  0  0  0  0
 11 12  1  0  0  0  0
 12  4  1  0  0  0  0
 13 11  1  0  0  0  0
 14 13  1  0  0  0  0
 14 11  1  0  0  0  0
 14 15  1  0  0  0  0
 15 16  2  0  0  0  0
 16 12  1  0  0  0  0
 17 18  1  0  0  0  0
 17 13  1  0  0  0  0
 20 21  1  0  0  0  0
 20 19  1  0  0  0  0
 21 22  2  0  0  0  0
 23 21  1  0  0  0  0
 24 19  1  0  0  0  0
 24 27  1  0  0  0  0
 25 26  1  0  0  0  0
 26 24  1  0  0  0  0
 28 27  1  0  0  0  0
 29 28  1  0  0  0  0
M  END
>  <MODEL>
2

>  <REMARK>
 VINA RESULT:      -6.1      2.164      6.156
  Name = 
  8 active torsions:
  status: ('A' for Active; 'I' for Inactive)
    1  A    between atoms: N_3  and  C_24
    2  A    between atoms: O_4  and  C_15
    3  A    between atoms: C_5  and  C_17
    4  A    between atoms: C_8  and  C_9
    5  A    between atoms: C_11  and  C_29
    6  A    between atoms: C_12  and  C_24
    7  A    between atoms: C_17  and  C_29
    8  A    between atoms: C_24  and  C_29
                            x       y       z     vdW  Elec       q    Type
                         _______ _______ _______ _____ _____    ______ ____

>  <TORSDO>
F 8

$$$$
=
 OpenBabel11042417263D

 29 32  0  0  1  0  0  0  0  0999 V2000
  187.5790  177.9420  141.2720 C   0  0  0  0  0  3  0  0  0  0  0  0
  187.1430  177.3140  143.3110 C   0  0  2  0  0  3  0  0  0  0  0  0
  188.0330  176.4250  145.3530 C   0  0  0  0  0  0  0  0  0  0  0  0
  187.2100  177.3250  144.7820 C   0  0  0  0  0  0  0  0  0  0  0  0
  188.8740  175.5210  144.4940 C   0  0  0  0  0  0  0  0  0  0  0  0
  187.4830  176.0710  142.5800 C   0  0  2  0  0  3  0  0  0  0  0  0
  188.6480  175.4450  143.2080 N   0  0  0  0  0  0  0  0  0  0  0  0
  188.1290  176.3640  146.7400 O   0  0  0  0  0  1  0  0  0  0  0  0
  187.2020  178.3700  142.5750 N   0  0  0  0  0  2  0  0  0  0  0  0
  187.7950  176.6310  141.2350 C   0  0  0  0  0  3  0  0  0  0  0  0
  185.5080  179.1330  144.8560 N   0  0  1  0  0  0  0  0  0  0  0  0
  186.4890  178.3510  145.6280 C   0  0  1  0  0  3  0  0  0  0  0  0
  184.4010  178.2730  144.3870 C   0  0  1  0  0  3  0  0  0  0  0  0
  184.2480  179.0370  145.6250 C   0  0  1  0  0  3  0  0  0  0  0  0
  184.5420  178.1840  146.8150 C   0  0  0  0  0  3  0  0  0  0  0  0
  185.8050  177.7990  146.8320 C   0  0  0  0  0  3  0  0  0  0  0  0
  183.7280  178.9180  143.3500 O   0  0  0  0  0  0  0  0  0  0  0  0
  183.7770  178.0160  142.2860 C   0  0  0  0  0  1  0  0  0  0  0  0
  190.1030  174.8250  145.0200 C   0  0  1  0  0  3  0  0  0  0  0  0
  190.5530  173.7790  144.1000 N   0  0  0  0  0  2  0  0  0  0  0  0
  190.2600  172.3820  144.2200 C   0  0  0  0  0  0  0  0  0  0  0  0
  189.4980  171.9560  145.1260 O   0  0  0  0  0  0  0  0  0  0  0  0
  190.8280  171.4660  143.2930 N   0  0  0  0  0  1  0  0  0  0  0  0
  191.2400  175.7480  145.4880 C   0  0  2  0  0  3  0  0  0  0  0  0
  193.3720  176.6330  144.8560 O   0  0  0  0  0  1  0  0  0  0  0  0
  192.1910  176.0920  144.3460 C   0  0  0  0  0  2  0  0  0  0  0  0
  192.0050  175.1780  146.6910 C   0  0  0  0  0  2  0  0  0  0  0  0
  191.3380  175.4740  148.0310 C   0  0  0  0  0  2  0  0  0  0  0  0
  191.2070  176.8510  148.2120 O   0  0  0  0  0  1  0  0  0  0  0  0
  1  9  1  0  0  0  0
  2  9  1  6  0  0  0
  2  4  1  0  0  0  0
  3  8  1  0  0  0  0
  4  3  2  0  0  0  0
  4 12  1  0  0  0  0
  5 19  1  0  0  0  0
  5  3  1  0  0  0  0
  6 10  1  6  0  0  0
  6  7  1  0  0  0  0
  6  2  1  0  0  0  0
  7  5  2  0  0  0  0
 10  1  2  0  0  0  0
 11 14  1  0  0  0  0
 11 12  1  0  0  0  0
 12 16  1  0  0  0  0
 13 11  1  0  0  0  0
 13 14  1  0  0  0  0
 14 15  1  0  0  0  0
 15 16  2  0  0  0  0
 17 13  1  0  0  0  0
 18 17  1  0  0  0  0
 19 24  1  0  0  0  0
 20 21  1  0  0  0  0
 20 19  1  0  0  0  0
 21 22  2  0  0  0  0
 23 21  1  0  0  0  0
 24 27  1  0  0  0  0
 26 25  1  0  0  0  0
 26 24  1  0  0  0  0
 27 28  1  0  0  0  0
 28 29  1  0  0  0  0
M  END
>  <MODEL>
3

>  <REMARK>
 VINA RESULT:      -6.1      2.124      6.561
  Name = 
  8 active torsions:
  status: ('A' for Active; 'I' for Inactive)
    1  A    between atoms: N_3  and  C_24
    2  A    between atoms: O_4  and  C_15
    3  A    between atoms: C_5  and  C_17
    4  A    between atoms: C_8  and  C_9
    5  A    between atoms: C_11  and  C_29
    6  A    between atoms: C_12  and  C_24
    7  A    between atoms: C_17  and  C_29
    8  A    between atoms: C_24  and  C_29
                            x       y       z     vdW  Elec       q    Type
                         _______ _______ _______ _____ _____    ______ ____

>  <TORSDO>
F 8

$$$$
=
 OpenBabel11042417263D

 29 32  0  0  1  0  0  0  0  0999 V2000
  188.9010  172.4700  142.7330 C   0  0  0  0  0  3  0  0  0  0  0  0
  189.5480  174.5420  142.9110 C   0  0  2  0  0  3  0  0  0  0  0  0
  189.0440  176.7150  143.7900 C   0  0  0  0  0  0  0  0  0  0  0  0
  189.9880  175.7770  143.5810 C   0  0  0  0  0  0  0  0  0  0  0  0
  187.6150  176.4460  143.4080 C   0  0  0  0  0  0  0  0  0  0  0  0
  188.3490  174.5770  142.0420 C   0  0  2  0  0  3  0  0  0  0  0  0
  187.3200  175.4070  142.6720 N   0  0  0  0  0  0  0  0  0  0  0  0
  189.3940  177.9170  144.3980 O   0  0  0  0  0  1  0  0  0  0  0  0
  189.8570  173.3540  143.3060 N   0  0  0  0  0  2  0  0  0  0  0  0
  187.9860  173.1310  142.0320 C   0  0  0  0  0  3  0  0  0  0  0  0
  191.4190  176.1690  145.5730 N   0  0  1  0  0  0  0  0  0  0  0  0
  191.3910  175.9670  144.1140 C   0  0  1  0  0  3  0  0  0  0  0  0
  190.9710  174.9520  146.2830 C   0  0  1  0  0  3  0  0  0  0  0  0
  192.4000  175.1850  146.0790 C   0  0  1  0  0  3  0  0  0  0  0  0
  192.8970  174.4310  144.8900 C   0  0  0  0  0  3  0  0  0  0  0  0
  192.3420  174.8690  143.7750 C   0  0  0  0  0  3  0  0  0  0  0  0
  190.6200  175.2880  147.5900 O   0  0  0  0  0  0  0  0  0  0  0  0
  190.8170  176.6670  147.6620 C   0  0  0  0  0  1  0  0  0  0  0  0
  186.4650  177.2260  143.9920 C   0  0  1  0  0  3  0  0  0  0  0  0
  186.7350  177.6090  145.3790 N   0  0  0  0  0  2  0  0  0  0  0  0
  185.8850  177.3380  146.4990 C   0  0  0  0  0  0  0  0  0  0  0  0
  184.8380  176.6530  146.3660 O   0  0  0  0  0  0  0  0  0  0  0  0
  186.2380  177.8380  147.7820 N   0  0  0  0  0  1  0  0  0  0  0  0
  185.9480  178.3910  143.1320 C   0  0  2  0  0  3  0  0  0  0  0  0
  184.1980  179.5700  144.2630 O   0  0  0  0  0  1  0  0  0  0  0  0
  185.5660  179.5950  143.9870 C   0  0  0  0  0  2  0  0  0  0  0  0
  184.7890  177.9760  142.2140 C   0  0  0  0  0  2  0  0  0  0  0  0
  185.0370  178.2910  140.7420 C   0  0  0  0  0  2  0  0  0  0  0  0
  186.2500  177.7400  140.3280 O   0  0  0  0  0  1  0  0  0  0  0  0
  1  9  1  0  0  0  0
  2  9  1  1  0  0  0
  2  4  1  0  0  0  0
  3  8  1  0  0  0  0
  4  3  2  0  0  0  0
  4 12  1  0  0  0  0
  5  3  1  0  0  0  0
  5 19  1  0  0  0  0
  6 10  1  1  0  0  0
  6  7  1  0  0  0  0
  6  2  1  0  0  0  0
  7  5  2  0  0  0  0
 10  1  2  0  0  0  0
 11 14  1  0  0  0  0
 11 13  1  0  0  0  0
 12 11  1  0  0  0  0
 13 17  1  0  0  0  0
 14 13  1  0  0  0  0
 15 14  1  0  0  0  0
 16 12  1  0  0  0  0
 16 15  2  0  0  0  0
 17 18  1  0  0  0  0
 19 20  1  0  0  0  0
 20 21  1  0  0  0  0
 21 23  1  0  0  0  0
 22 21  2  0  0  0  0
 24 26  1  0  0  0  0
 24 19  1  0  0  0  0
 26 25  1  0  0  0  0
 27 24  1  0  0  0  0
 28 27  1  0  0  0  0
 29 28  1  0  0  0  0
M  END
>  <MODEL>
4

>  <REMARK>
 VINA RESULT:      -6.1      1.805      3.411
  Name = 
  8 active torsions:
  status: ('A' for Active; 'I' for Inactive)
    1  A    between atoms: N_3  and  C_24
    2  A    between atoms: O_4  and  C_15
    3  A    between atoms: C_5  and  C_17
    4  A    between atoms: C_8  and  C_9
    5  A    between atoms: C_11  and  C_29
    6  A    between atoms: C_12  and  C_24
    7  A    between atoms: C_17  and  C_29
    8  A    between atoms: C_24  and  C_29
                            x       y       z     vdW  Elec       q    Type
                         _______ _______ _______ _____ _____    ______ ____

>  <TORSDO>
F 8

$$$$
=
 OpenBabel11042417263D

 29 32  0  0  1  0  0  0  0  0999 V2000
  185.9200  176.5970  146.2600 C   0  0  0  0  0  3  0  0  0  0  0  0
  187.4070  177.6280  145.0500 C   0  0  2  0  0  3  0  0  0  0  0  0
  189.5360  177.4760  143.9560 C   0  0  0  0  0  0  0  0  0  0  0  0
  188.2590  177.8990  143.8810 C   0  0  0  0  0  0  0  0  0  0  0  0
  190.0060  176.7100  145.1620 C   0  0  0  0  0  0  0  0  0  0  0  0
  188.0370  177.4470  146.3790 C   0  0  2  0  0  3  0  0  0  0  0  0
  189.2550  176.6470  146.2300 N   0  0  0  0  0  0  0  0  0  0  0  0
  190.4040  177.7180  142.8960 O   0  0  0  0  0  1  0  0  0  0  0  0
  186.2150  177.1440  144.9810 N   0  0  0  0  0  2  0  0  0  0  0  0
  186.9540  176.7080  147.0870 C   0  0  0  0  0  3  0  0  0  0  0  0
  187.9920  177.6820  141.4200 N   0  0  1  0  0  0  0  0  0  0  0  0
  187.7300  178.5180  142.6050 C   0  0  1  0  0  3  0  0  0  0  0  0
  187.2390  176.4120  141.4940 C   0  0  1  0  0  3  0  0  0  0  0  0
  186.6800  177.5420  140.7510 C   0  0  1  0  0  3  0  0  0  0  0  0
  185.6960  178.2920  141.5870 C   0  0  0  0  0  3  0  0  0  0  0  0
  186.2780  178.8540  142.6290 C   0  0  0  0  0  3  0  0  0  0  0  0
  187.7990  175.4950  140.6060 O   0  0  0  0  0  0  0  0  0  0  0  0
  188.7550  174.8160  141.3610 C   0  0  0  0  0  1  0  0  0  0  0  0
  191.2400  175.8450  145.1360 C   0  0  1  0  0  3  0  0  0  0  0  0
  192.3050  176.4160  145.9610 N   0  0  0  0  0  2  0  0  0  0  0  0
  193.6000  176.8100  145.4930 C   0  0  0  0  0  0  0  0  0  0  0  0
  193.8900  176.7570  144.2700 O   0  0  0  0  0  0  0  0  0  0  0  0
  194.5660  177.2830  146.4240 N   0  0  0  0  0  1  0  0  0  0  0  0
  191.0060  174.3480  145.4010 C   0  0  2  0  0  3  0  0  0  0  0  0
  192.6010  173.8010  143.7030 O   0  0  0  0  0  1  0  0  0  0  0  0
  192.2220  173.5120  145.0140 C   0  0  0  0  0  2  0  0  0  0  0  0
  189.7340  173.8210  144.7220 C   0  0  0  0  0  2  0  0  0  0  0  0
  189.6880  172.3000  144.6170 C   0  0  0  0  0  2  0  0  0  0  0  0
  188.9470  171.9150  143.4990 O   0  0  0  0  0  1  0  0  0  0  0  0
  1 10  2  0  0  0  0
  2  4  1  6  0  0  0
  2  6  1  0  0  0  0
  3  5  1  0  0  0  0
  4  3  2  0  0  0  0
  5  7  2  0  0  0  0
  6 10  1  1  0  0  0
  7  6  1  0  0  0  0
  8  3  1  0  0  0  0
  9  2  1  0  0  0  0
  9  1  1  0  0  0  0
 11 13  1  0  0  0  0
 11 12  1  0  0  0  0
 12 16  1  0  0  0  0
 12  4  1  0  0  0  0
 14 11  1  0  0  0  0
 14 13  1  0  0  0  0
 14 15  1  0  0  0  0
 15 16  2  0  0  0  0
 17 18  1  0  0  0  0
 17 13  1  0  0  0  0
 19  5  1  0  0  0  0
 19 24  1  0  0  0  0
 19 20  1  0  0  0  0
 21 20  1  0  0  0  0
 21 23  1  0  0  0  0
 22 21  2  0  0  0  0
 25 26  1  0  0  0  0
 26 24  1  0  0  0  0
 27 24  1  0  0  0  0
 28 27  1  0  0  0  0
 29 28  1  0  0  0  0
M  END
>  <MODEL>
5

>  <REMARK>
 VINA RESULT:      -6.0      2.481      6.231
  Name = 
  8 active torsions:
  status: ('A' for Active; 'I' for Inactive)
    1  A    between atoms: N_3  and  C_24
    2  A    between atoms: O_4  and  C_15
    3  A    between atoms: C_5  and  C_17
    4  A    between atoms: C_8  and  C_9
    5  A    between atoms: C_11  and  C_29
    6  A    between atoms: C_12  and  C_24
    7  A    between atoms: C_17  and  C_29
    8  A    between atoms: C_24  and  C_29
                            x       y       z     vdW  Elec       q    Type
                         _______ _______ _______ _____ _____    ______ ____

>  <TORSDO>
F 8

$$$$
=
 OpenBabel11042417263D

 29 32  0  0  1  0  0  0  0  0999 V2000
  189.6580  172.7880  143.2260 C   0  0  0  0  0  3  0  0  0  0  0  0
  190.3750  174.8410  143.3290 C   0  0  2  0  0  3  0  0  0  0  0  0
  189.9240  177.0700  144.0920 C   0  0  0  0  0  0  0  0  0  0  0  0
  190.8390  176.0900  143.9550 C   0  0  0  0  0  0  0  0  0  0  0  0
  188.4980  176.8330  143.6780 C   0  0  0  0  0  0  0  0  0  0  0  0
  189.2030  174.8770  142.4230 C   0  0  2  0  0  3  0  0  0  0  0  0
  188.1880  175.7710  142.9820 N   0  0  0  0  0  0  0  0  0  0  0  0
  190.2990  178.2860  144.6550 O   0  0  0  0  0  1  0  0  0  0  0  0
  190.6280  173.6640  143.7870 N   0  0  0  0  0  2  0  0  0  0  0  0
  188.7890  173.4460  142.4670 C   0  0  0  0  0  3  0  0  0  0  0  0
  192.2320  176.3880  145.9900 N   0  0  1  0  0  0  0  0  0  0  0  0
  192.2320  176.2560  144.5220 C   0  0  1  0  0  3  0  0  0  0  0  0
  191.7730  175.1390  146.6320 C   0  0  1  0  0  3  0  0  0  0  0  0
  193.2060  175.3820  146.4670 C   0  0  1  0  0  3  0  0  0  0  0  0
  193.7250  174.6870  145.2520 C   0  0  0  0  0  3  0  0  0  0  0  0
  193.1910  175.1760  144.1490 C   0  0  0  0  0  3  0  0  0  0  0  0
  191.3980  175.4110  147.9470 O   0  0  0  0  0  0  0  0  0  0  0  0
  191.5630  176.7900  148.0800 C   0  0  0  0  0  1  0  0  0  0  0  0
  187.3600  177.6790  144.1900 C   0  0  1  0  0  3  0  0  0  0  0  0
  186.1160  177.3760  143.4810 N   0  0  0  0  0  2  0  0  0  0  0  0
  185.2700  178.3360  142.8360 C   0  0  0  0  0  0  0  0  0  0  0  0
  185.6000  179.5490  142.7720 O   0  0  0  0  0  0  0  0  0  0  0  0
  184.0480  177.9090  142.2480 N   0  0  0  0  0  1  0  0  0  0  0  0
  187.1930  177.7110  145.7180 C   0  0  2  0  0  3  0  0  0  0  0  0
  188.1650  175.9840  147.0600 O   0  0  0  0  0  1  0  0  0  0  0  0
  187.0420  176.3080  146.2970 C   0  0  0  0  0  2  0  0  0  0  0  0
  186.0380  178.6200  146.1650 C   0  0  0  0  0  2  0  0  0  0  0  0
  185.7440  178.5370  147.6590 C   0  0  0  0  0  2  0  0  0  0  0  0
  186.7880  179.1050  148.3900 O   0  0  0  0  0  1  0  0  0  0  0  0
  1  9  1  0  0  0  0
  2  9  1  1  0  0  0
  2  4  1  0  0  0  0
  3  8  1  0  0  0  0
  4  3  2  0  0  0  0
  4 12  1  0  0  0  0
  5  3  1  0  0  0  0
  5 19  1  0  0  0  0
  6 10  1  1  0  0  0
  6  7  1  0  0  0  0
  6  2  1  0  0  0  0
  7  5  2  0  0  0  0
 10  1  2  0  0  0  0
 11 14  1  0  0  0  0
 11 13  1  0  0  0  0
 12 11  1  0  0  0  0
 13 17  1  0  0  0  0
 14 13  1  0  0  0  0
 15 14  1  0  0  0  0
 16 12  1  0  0  0  0
 16 15  2  0  0  0  0
 17 18  1  0  0  0  0
 19 24  1  0  0  0  0
 20 19  1  0  0  0  0
 21 20  1  0  0  0  0
 22 21  2  0  0  0  0
 23 21  1  0  0  0  0
 24 27  1  0  0  0  0
 24 26  1  0  0  0  0
 26 25  1  0  0  0  0
 27 28  1  0  0  0  0
 28 29  1  0  0  0  0
M  END
>  <MODEL>
6

>  <REMARK>
 VINA RESULT:      -5.9      1.292      2.094
  Name = 
  8 active torsions:
  status: ('A' for Active; 'I' for Inactive)
    1  A    between atoms: N_3  and  C_24
    2  A    between atoms: O_4  and  C_15
    3  A    between atoms: C_5  and  C_17
    4  A    between atoms: C_8  and  C_9
    5  A    between atoms: C_11  and  C_29
    6  A    between atoms: C_12  and  C_24
    7  A    between atoms: C_17  and  C_29
    8  A    between atoms: C_24  and  C_29
                            x       y       z     vdW  Elec       q    Type
                         _______ _______ _______ _____ _____    ______ ____

>  <TORSDO>
F 8

$$$$
=
 OpenBabel11042417263D

 29 32  0  0  1  0  0  0  0  0999 V2000
  189.0140  174.8820  147.3470 C   0  0  0  0  0  3  0  0  0  0  0  0
  189.3560  176.5810  146.0290 C   0  0  2  0  0  3  0  0  0  0  0  0
  190.5760  177.4210  144.1420 C   0  0  0  0  0  0  0  0  0  0  0  0
  189.3850  177.3400  144.7680 C   0  0  0  0  0  0  0  0  0  0  0  0
  191.7720  176.7000  144.7010 C   0  0  0  0  0  0  0  0  0  0  0  0
  190.6040  176.4320  146.8140 C   0  0  2  0  0  3  0  0  0  0  0  0
  191.7220  176.1850  145.9010 N   0  0  0  0  0  0  0  0  0  0  0  0
  190.6810  178.1420  142.9570 O   0  0  0  0  0  1  0  0  0  0  0  0
  188.4610  175.7030  146.3260 N   0  0  0  0  0  2  0  0  0  0  0  0
  190.2620  175.2360  147.6330 C   0  0  0  0  0  3  0  0  0  0  0  0
  187.7780  177.2280  142.8770 N   0  0  1  0  0  0  0  0  0  0  0  0
  188.1410  177.9160  144.1280 C   0  0  1  0  0  3  0  0  0  0  0  0
  187.3810  175.8280  143.1410 C   0  0  1  0  0  3  0  0  0  0  0  0
  186.3540  176.8640  143.0380 C   0  0  1  0  0  3  0  0  0  0  0  0
  185.9440  177.3430  144.3910 C   0  0  0  0  0  3  0  0  0  0  0  0
  186.9400  177.9460  145.0120 C   0  0  0  0  0  3  0  0  0  0  0  0
  187.4410  175.1030  141.9520 O   0  0  0  0  0  0  0  0  0  0  0  0
  187.8120  176.0410  140.9880 C   0  0  0  0  0  1  0  0  0  0  0  0
  192.9820  176.3780  143.8620 C   0  0  1  0  0  3  0  0  0  0  0  0
  193.9190  175.5220  144.5920 N   0  0  0  0  0  2  0  0  0  0  0  0
  195.3260  175.7520  144.7240 C   0  0  0  0  0  0  0  0  0  0  0  0
  195.8580  176.7940  144.2630 O   0  0  0  0  0  0  0  0  0  0  0  0
  196.1310  174.7940  145.4000 N   0  0  0  0  0  1  0  0  0  0  0  0
  192.6880  175.8770  142.4380 C   0  0  2  0  0  3  0  0  0  0  0  0
  190.7710  174.4810  142.1140 O   0  0  0  0  0  1  0  0  0  0  0  0
  192.1260  174.4590  142.4460 C   0  0  0  0  0  2  0  0  0  0  0  0
  193.9090  175.9820  141.5130 C   0  0  0  0  0  2  0  0  0  0  0  0
  194.3640  174.6380  140.9540 C   0  0  0  0  0  2  0  0  0  0  0  0
  195.5370  174.2230  141.5850 O   0  0  0  0  0  1  0  0  0  0  0  0
  1 10  2  0  0  0  0
  2  4  1  6  0  0  0
  2  9  1  0  0  0  0
  2  6  1  0  0  0  0
  3  5  1  0  0  0  0
  3  4  2  0  0  0  0
  5  7  2  0  0  0  0
  6 10  1  1  0  0  0
  7  6  1  0  0  0  0
  8  3  1  0  0  0  0
  9  1  1  0  0  0  0
 11 14  1  0  0  0  0
 11 13  1  0  0  0  0
 11 12  1  0  0  0  0
 12  4  1  0  0  0  0
 12 16  1  0  0  0  0
 14 13  1  0  0  0  0
 14 15  1  0  0  0  0
 15 16  2  0  0  0  0
 17 13  1  0  0  0  0
 18 17  1  0  0  0  0
 19 20  1  0  0  0  0
 19  5  1  0  0  0  0
 20 21  1  0  0  0  0
 21 23  1  0  0  0  0
 22 21  2  0  0  0  0
 24 26  1  0  0  0  0
 24 19  1  0  0  0  0
 25 26  1  0  0  0  0
 27 24  1  0  0  0  0
 28 27  1  0  0  0  0
 28 29  1  0  0  0  0
M  END
>  <MODEL>
7

>  <REMARK>
 VINA RESULT:      -5.7      2.518      6.831
  Name = 
  8 active torsions:
  status: ('A' for Active; 'I' for Inactive)
    1  A    between atoms: N_3  and  C_24
    2  A    between atoms: O_4  and  C_15
    3  A    between atoms: C_5  and  C_17
    4  A    between atoms: C_8  and  C_9
    5  A    between atoms: C_11  and  C_29
    6  A    between atoms: C_12  and  C_24
    7  A    between atoms: C_17  and  C_29
    8  A    between atoms: C_24  and  C_29
                            x       y       z     vdW  Elec       q    Type
                         _______ _______ _______ _____ _____    ______ ____

>  <TORSDO>
F 8

$$$$
=
 OpenBabel11042417263D

 29 32  0  0  1  0  0  0  0  0999 V2000
  186.3820  176.7890  146.9880 C   0  0  0  0  0  3  0  0  0  0  0  0
  187.3160  176.9860  145.0310 C   0  0  2  0  0  3  0  0  0  0  0  0
  189.1000  176.2700  143.5970 C   0  0  0  0  0  0  0  0  0  0  0  0
  187.7900  176.5660  143.7020 C   0  0  0  0  0  0  0  0  0  0  0  0
  189.9820  176.3100  144.8140 C   0  0  0  0  0  0  0  0  0  0  0  0
  188.2770  177.5810  145.9880 C   0  0  2  0  0  3  0  0  0  0  0  0
  189.5420  176.8460  145.9220 N   0  0  0  0  0  0  0  0  0  0  0  0
  189.6210  175.8880  142.3640 O   0  0  0  0  0  1  0  0  0  0  0  0
  186.2490  176.5340  145.5950 N   0  0  0  0  0  2  0  0  0  0  0  0
  187.5520  177.3520  147.2700 C   0  0  0  0  0  3  0  0  0  0  0  0
  185.5870  177.0900  142.6800 N   0  0  1  0  0  0  0  0  0  0  0  0
  186.8610  176.3650  142.5250 C   0  0  1  0  0  3  0  0  0  0  0  0
  185.8070  178.5510  142.6650 C   0  0  1  0  0  3  0  0  0  0  0  0
  185.4310  177.8650  141.4300 C   0  0  1  0  0  3  0  0  0  0  0  0
  186.6360  177.5720  140.5970 C   0  0  0  0  0  3  0  0  0  0  0  0
  187.4440  176.7210  141.2000 C   0  0  0  0  0  3  0  0  0  0  0  0
  184.6920  179.1880  143.2080 O   0  0  0  0  0  0  0  0  0  0  0  0
  185.2010  179.9460  144.2640 C   0  0  0  0  0  1  0  0  0  0  0  0
  191.3040  175.5890  144.8750 C   0  0  1  0  0  3  0  0  0  0  0  0
  192.3140  176.3920  145.5660 N   0  0  0  0  0  2  0  0  0  0  0  0
  193.6140  176.7130  145.0570 C   0  0  0  0  0  0  0  0  0  0  0  0
  193.9560  176.3710  143.8960 O   0  0  0  0  0  0  0  0  0  0  0  0
  194.5230  177.4420  145.8720 N   0  0  0  0  0  1  0  0  0  0  0  0
  191.2440  174.1340  145.3710 C   0  0  2  0  0  3  0  0  0  0  0  0
  193.3950  173.0850  145.4020 O   0  0  0  0  0  1  0  0  0  0  0  0
  192.2420  173.2470  144.6330 C   0  0  0  0  0  2  0  0  0  0  0  0
  189.8270  173.5470  145.3040 C   0  0  0  0  0  2  0  0  0  0  0  0
  189.7340  172.2800  144.4600 C   0  0  0  0  0  2  0  0  0  0  0  0
  188.9710  172.5150  143.3160 O   0  0  0  0  0  1  0  0  0  0  0  0
  1 10  2  0  0  0  0
  2  4  1  1  0  0  0
  2  9  1  0  0  0  0
  2  6  1  0  0  0  0
  3  4  2  0  0  0  0
  3  5  1  0  0  0  0
  5 19  1  0  0  0  0
  5  7  2  0  0  0  0
  6 10  1  1  0  0  0
  7  6  1  0  0  0  0
  8  3  1  0  0  0  0
  9  1  1  0  0  0  0
 12 11  1  0  0  0  0
 12  4  1  0  0  0  0
 13 11  1  0  0  0  0
 13 17  1  0  0  0  0
 14 13  1  0  0  0  0
 14 11  1  0  0  0  0
 15 16  2  0  0  0  0
 15 14  1  0  0  0  0
 16 12  1  0  0  0  0
 17 18  1  0  0  0  0
 19 24  1  0  0  0  0
 19 20  1  0  0  0  0
 21 20  1  0  0  0  0
 21 23  1  0  0  0  0
 22 21  2  0  0  0  0
 26 24  1  0  0  0  0
 26 25  1  0  0  0  0
 27 24  1  0  0  0  0
 28 27  1  0  0  0  0
 29 28  1  0  0  0  0
M  END
>  <MODEL>
8

>  <REMARK>
 VINA RESULT:      -5.6      2.215      6.504
  Name = 
  8 active torsions:
  status: ('A' for Active; 'I' for Inactive)
    1  A    between atoms: N_3  and  C_24
    2  A    between atoms: O_4  and  C_15
    3  A    between atoms: C_5  and  C_17
    4  A    between atoms: C_8  and  C_9
    5  A    between atoms: C_11  and  C_29
    6  A    between atoms: C_12  and  C_24
    7  A    between atoms: C_17  and  C_29
    8  A    between atoms: C_24  and  C_29
                            x       y       z     vdW  Elec       q    Type
                         _______ _______ _______ _____ _____    ______ ____

>  <TORSDO>
F 8

$$$$
=
 OpenBabel11042417263D

 29 32  0  0  1  0  0  0  0  0999 V2000
  187.6130  177.7720  141.2690 C   0  0  0  0  0  3  0  0  0  0  0  0
  187.5390  176.9320  143.2760 C   0  0  2  0  0  3  0  0  0  0  0  0
  188.7430  175.7570  144.9870 C   0  0  0  0  0  0  0  0  0  0  0  0
  187.8970  176.7640  144.6950 C   0  0  0  0  0  0  0  0  0  0  0  0
  189.3230  174.9160  143.8840 C   0  0  0  0  0  0  0  0  0  0  0  0
  187.6290  175.7680  142.3650 C   0  0  2  0  0  3  0  0  0  0  0  0
  188.8420  175.0070  142.6710 N   0  0  0  0  0  0  0  0  0  0  0  0
  189.1050  175.5270  146.3110 O   0  0  0  0  0  1  0  0  0  0  0  0
  187.5360  178.0630  142.6590 N   0  0  0  0  0  2  0  0  0  0  0  0
  187.7120  176.4650  141.0510 C   0  0  0  0  0  3  0  0  0  0  0  0
  186.2820  178.5310  145.3600 N   0  0  1  0  0  0  0  0  0  0  0  0
  187.4410  177.7220  145.7740 C   0  0  1  0  0  3  0  0  0  0  0  0
  185.0880  177.6800  145.1650 C   0  0  1  0  0  3  0  0  0  0  0  0
  185.2880  178.3620  146.4430 C   0  0  1  0  0  3  0  0  0  0  0  0
  185.9060  177.4420  147.4450 C   0  0  0  0  0  3  0  0  0  0  0  0
  187.1230  177.0820  147.0830 C   0  0  0  0  0  3  0  0  0  0  0  0
  184.1510  178.3750  144.4020 O   0  0  0  0  0  0  0  0  0  0  0  0
  184.7030  179.6460  144.2410 C   0  0  0  0  0  1  0  0  0  0  0  0
  190.5730  174.0940  144.0700 C   0  0  1  0  0  3  0  0  0  0  0  0
  190.7090  173.0920  143.0120 N   0  0  0  0  0  2  0  0  0  0  0  0
  189.9890  171.8560  142.9390 C   0  0  0  0  0  0  0  0  0  0  0  0
  189.0960  171.5760  143.7790 O   0  0  0  0  0  0  0  0  0  0  0  0
  190.2780  170.9390  141.8910 N   0  0  0  0  0  1  0  0  0  0  0  0
  191.8630  174.8950  144.3150 C   0  0  2  0  0  3  0  0  0  0  0  0
  193.0490  176.2890  142.7740 O   0  0  0  0  0  1  0  0  0  0  0  0
  192.7290  174.9620  143.0610 C   0  0  0  0  0  2  0  0  0  0  0  0
  192.6650  174.3660  145.5120 C   0  0  0  0  0  2  0  0  0  0  0  0
  192.7120  175.3360  146.6880 C   0  0  0  0  0  2  0  0  0  0  0  0
  192.2750  176.5990  146.2910 O   0  0  0  0  0  1  0  0  0  0  0  0
  1  9  1  0  0  0  0
  2  9  1  6  0  0  0
  2  4  1  0  0  0  0
  3  8  1  0  0  0  0
  4  3  2  0  0  0  0
  4 12  1  0  0  0  0
  5 19  1  0  0  0  0
  5  3  1  0  0  0  0
  6 10  1  6  0  0  0
  6  7  1  0  0  0  0
  6  2  1  0  0  0  0
  7  5  2  0  0  0  0
 10  1  2  0  0  0  0
 11 12  1  0  0  0  0
 11 14  1  0  0  0  0
 12 16  1  0  0  0  0
 13 11  1  0  0  0  0
 13 14  1  0  0  0  0
 14 15  1  0  0  0  0
 16 15  2  0  0  0  0
 17 13  1  0  0  0  0
 18 17  1  0  0  0  0
 19 24  1  0  0  0  0
 20 19  1  0  0  0  0
 21 20  1  0  0  0  0
 21 22  2  0  0  0  0
 23 21  1  0  0  0  0
 24 27  1  0  0  0  0
 25 26  1  0  0  0  0
 26 24  1  0  0  0  0
 27 28  1  0  0  0  0
 29 28  1  0  0  0  0
M  END
>  <MODEL>
9

>  <REMARK>
 VINA RESULT:      -5.6      2.112      6.334
  Name = 
  8 active torsions:
  status: ('A' for Active; 'I' for Inactive)
    1  A    between atoms: N_3  and  C_24
    2  A    between atoms: O_4  and  C_15
    3  A    between atoms: C_5  and  C_17
    4  A    between atoms: C_8  and  C_9
    5  A    between atoms: C_11  and  C_29
    6  A    between atoms: C_12  and  C_24
    7  A    between atoms: C_17  and  C_29
    8  A    between atoms: C_24  and  C_29
                            x       y       z     vdW  Elec       q    Type
                         _______ _______ _______ _____ _____    ______ ____

>  <TORSDO>
F 8

$$$$
