=
 OpenBabel11042414483D

 28 33  0  0  1  0  0  0  0  0999 V2000
  190.9250  176.8470  147.5820 C   0  0  0  0  0  3  0  0  0  0  0  0
  191.4290  175.5880  144.7530 C   0  0  0  0  0  3  0  0  0  0  0  0
  187.6370  176.5440  141.2060 C   0  0  0  0  0  3  0  0  0  0  0  0
  189.7800  177.0700  146.9500 C   0  0  0  0  0  3  0  0  0  0  0  0
  183.8320  179.2250  145.4420 O   0  0  0  0  0  0  0  0  0  0  0  0
  185.8470  177.7150  147.8710 C   0  0  0  0  0  3  0  0  0  0  0  0
  185.7150  178.3900  143.6760 C   0  0  0  0  0  3  0  0  0  0  0  0
  188.2750  176.5560  143.6610 C   0  0  2  0  0  3  0  0  0  0  0  0
  187.4270  176.8690  142.6570 C   0  0  0  0  0  0  0  0  0  0  0  0
  190.1690  176.0280  144.6360 C   0  0  0  0  0  0  0  0  0  0  0  0
  186.0280  178.1610  141.3340 N   0  0  0  0  0  0  0  0  0  0  0  0
  185.8620  178.1400  145.1180 C   0  0  0  0  0  0  0  0  0  0  0  0
  188.1720  176.9820  144.9870 C   0  0  0  0  0  0  0  0  0  0  0  0
  184.8090  178.6030  145.9400 C   0  0  0  0  0  0  0  0  0  0  0  0
  186.7910  177.4400  140.4050 N   0  0  0  0  0  0  0  0  0  0  0  0
  189.4030  176.6780  145.5830 C   0  0  0  0  0  0  0  0  0  0  0  0
  186.9640  177.4810  145.7200 C   0  0  0  0  0  0  0  0  0  0  0  0
  192.1170  176.1560  147.0860 C   0  0  0  0  0  3  0  0  0  0  0  0
  186.9140  177.2630  147.1070 C   0  0  0  0  0  2  0  0  0  0  0  0
  189.4560  175.8910  143.4890 N   0  0  0  0  0  0  0  0  0  0  0  0
  192.3640  175.6140  145.8880 C   0  0  0  0  0  0  0  0  0  0  0  0
  186.3730  177.8510  142.6630 C   0  0  0  0  0  0  0  0  0  0  0  0
  184.8280  178.3780  147.2770 N   0  0  0  0  0  0  0  0  0  0  0  0
  190.6480  173.9090  142.5740 C   0  0  0  0  0  2  0  0  0  0  0  0
  189.9310  175.2200  142.2640 C   0  0  0  0  0  3  0  0  0  0  0  0
  189.2190  173.8810  142.1030 C   0  0  0  0  0  2  0  0  0  0  0  0
  194.8360  175.5040  146.1570 C   0  0  0  0  0  1  0  0  0  0  0  0
  193.6020  174.9960  145.6590 O   0  0  0  0  0  0  0  0  0  0  0  0
  2 21  1  0  0  0  0
  3  9  2  0  0  0  0
  4  1  2  0  0  0  0
  5 14  2  0  0  0  0
  7 12  1  0  0  0  0
  8  9  1  6  0  0  0
  8 13  1  0  0  0  0
  9 22  1  0  0  0  0
 10  2  2  0  0  0  0
 10 16  1  0  0  0  0
 11 22  1  0  0  0  0
 12 17  2  0  0  0  0
 12 14  1  0  0  0  0
 13 16  2  0  0  0  0
 13 17  1  0  0  0  0
 14 23  1  0  0  0  0
 15  3  1  0  0  0  0
 15 11  2  0  0  0  0
 16  4  1  0  0  0  0
 17 19  1  0  0  0  0
 18  1  1  0  0  0  0
 19  6  1  0  0  0  0
 20  8  1  0  0  0  0
 20 10  1  0  0  0  0
 21 18  2  0  0  0  0
 22  7  2  0  0  0  0
 23  6  2  0  0  0  0
 25 24  1  0  0  0  0
 25 20  1  0  0  0  0
 26 25  1  0  0  0  0
 26 24  1  0  0  0  0
 28 21  1  0  0  0  0
 28 27  1  0  0  0  0
M  END
>  <MODEL>
1

>  <REMARK>
 VINA RESULT:      -8.9      0.000      0.000
  Name = 
  2 active torsions:
  status: ('A' for Active; 'I' for Inactive)
    1  A    between atoms: C_15  and  N_24
    2  A    between atoms: C_25  and  O_26
                            x       y       z     vdW  Elec       q    Type
                         _______ _______ _______ _____ _____    ______ ____

>  <TORSDO>
F 2

$$$$
=
 OpenBabel11042414483D

 28 33  0  0  0  0  0  0  0  0999 V2000
  189.7760  173.7500  141.8520 C   0  0  0  0  0  3  0  0  0  0  0  0
  190.2210  174.4400  144.8810 C   0  0  0  0  0  3  0  0  0  0  0  0
  186.5200  177.5520  147.0000 C   0  0  0  0  0  3  0  0  0  0  0  0
  188.8420  174.6610  142.0890 C   0  0  0  0  0  3  0  0  0  0  0  0
  183.6960  178.5900  141.4730 O   0  0  0  0  0  0  0  0  0  0  0  0
  186.6420  177.4080  140.0030 C   0  0  0  0  0  3  0  0  0  0  0  0
  184.7880  177.7570  143.8130 C   0  0  0  0  0  3  0  0  0  0  0  0
  187.5490  176.6620  144.8590 C   0  0  0  0  0  0  0  0  0  0  0  0
  186.5780  177.3340  145.5150 C   0  0  0  0  0  0  0  0  0  0  0  0
  189.2040  175.2520  144.5610 C   0  0  0  0  0  0  0  0  0  0  0  0
  184.4400  177.9680  146.1510 N   0  0  0  0  0  0  0  0  0  0  0  0
  185.4900  177.5640  142.5350 C   0  0  0  0  0  0  0  0  0  0  0  0
  187.5400  176.3190  143.5060 C   0  0  0  0  0  0  0  0  0  0  0  0
  184.8340  178.0550  141.3830 C   0  0  0  0  0  0  0  0  0  0  0  0
  185.1330  177.8720  147.3660 N   0  0  0  0  0  0  0  0  0  0  0  0
  188.5730  175.3860  143.3410 C   0  0  0  0  0  0  0  0  0  0  0  0
  186.7510  176.9320  142.3880 C   0  0  0  0  0  0  0  0  0  0  0  0
  190.7840  173.2220  142.7740 C   0  0  0  0  0  3  0  0  0  0  0  0
  187.3140  176.8900  141.1020 C   0  0  0  0  0  3  0  0  0  0  0  0
  188.6260  176.0800  145.4670 N   0  0  0  0  0  0  0  0  0  0  0  0
  190.9960  173.4910  144.0670 C   0  0  0  0  0  0  0  0  0  0  0  0
  185.2560  177.6610  145.0450 C   0  0  0  0  0  0  0  0  0  0  0  0
  185.4210  177.9680  140.1640 N   0  0  0  0  0  0  0  0  0  0  0  0
  190.5680  176.2610  147.0100 C   0  0  0  0  0  2  0  0  0  0  0  0
  189.0480  176.2380  146.8720 C   0  0  0  0  0  3  0  0  0  0  0  0
  189.8000  177.5540  147.0380 C   0  0  0  0  0  2  0  0  0  0  0  0
  193.1540  173.5370  145.3060 C   0  0  0  0  0  1  0  0  0  0  0  0
  192.0460  172.8460  144.7370 O   0  0  0  0  0  0  0  0  0  0  0  0
  1  4  2  0  0  0  0
  1 18  1  0  0  0  0
  3 15  2  0  0  0  0
  4 16  1  0  0  0  0
  6 23  2  0  0  0  0
  6 19  1  0  0  0  0
  7 22  1  0  0  0  0
  8 20  1  0  0  0  0
  8  9  2  0  0  0  0
  9  3  1  0  0  0  0
 10  2  2  0  0  0  0
 10 20  1  0  0  0  0
 11 15  1  0  0  0  0
 12  7  2  0  0  0  0
 13  8  1  0  0  0  0
 14  5  2  0  0  0  0
 14 12  1  0  0  0  0
 16 13  2  0  0  0  0
 16 10  1  0  0  0  0
 17 12  1  0  0  0  0
 17 13  1  0  0  0  0
 18 21  2  0  0  0  0
 19 17  2  0  0  0  0
 20 25  1  0  0  0  0
 21 28  1  0  0  0  0
 21  2  1  0  0  0  0
 22  9  1  0  0  0  0
 22 11  2  0  0  0  0
 23 14  1  0  0  0  0
 24 26  1  0  0  0  0
 25 24  1  0  0  0  0
 25 26  1  0  0  0  0
 28 27  1  0  0  0  0
M  END
>  <MODEL>
2

>  <REMARK>
 VINA RESULT:      -8.4      1.534      4.520
  Name = 
  2 active torsions:
  status: ('A' for Active; 'I' for Inactive)
    1  A    between atoms: C_15  and  N_24
    2  A    between atoms: C_25  and  O_26
                            x       y       z     vdW  Elec       q    Type
                         _______ _______ _______ _____ _____    ______ ____

>  <TORSDO>
F 2

$$$$
=
 OpenBabel11042414483D

 28 33  0  0  1  0  0  0  0  0999 V2000
  186.5510  177.6280  147.4560 C   0  0  0  0  0  3  0  0  0  0  0  0
  185.6660  177.6180  144.4460 C   0  0  0  0  0  3  0  0  0  0  0  0
  188.7540  174.7700  141.2480 C   0  0  0  0  0  3  0  0  0  0  0  0
  187.5590  177.0130  146.8520 C   0  0  0  0  0  3  0  0  0  0  0  0
  193.0320  173.6820  145.7340 O   0  0  0  0  0  0  0  0  0  0  0  0
  191.5430  176.3240  147.4770 C   0  0  0  0  0  3  0  0  0  0  0  0
  190.9390  173.9200  144.0240 C   0  0  0  0  0  3  0  0  0  0  0  0
  188.5300  175.8840  143.5160 C   0  0  2  0  0  3  0  0  0  0  0  0
  189.1810  175.0680  142.6570 C   0  0  0  0  0  0  0  0  0  0  0  0
  186.8600  177.0130  144.3820 C   0  0  0  0  0  0  0  0  0  0  0  0
  190.2590  173.1700  141.8770 N   0  0  0  0  0  0  0  0  0  0  0  0
  191.0480  174.7750  145.2160 C   0  0  0  0  0  0  0  0  0  0  0  0
  188.8250  176.0520  144.8710 C   0  0  0  0  0  0  0  0  0  0  0  0
  192.1910  174.5750  146.0230 C   0  0  0  0  0  0  0  0  0  0  0  0
  189.3990  173.5190  140.8260 N   0  0  0  0  0  0  0  0  0  0  0  0
  187.7300  176.7360  145.4180 C   0  0  0  0  0  0  0  0  0  0  0  0
  190.1040  175.7630  145.5960 C   0  0  0  0  0  0  0  0  0  0  0  0
  185.3390  178.1880  146.8560 C   0  0  0  0  0  3  0  0  0  0  0  0
  190.3950  176.5410  146.7280 C   0  0  0  0  0  2  0  0  0  0  0  0
  187.3810  176.5570  143.2140 N   0  0  0  0  0  0  0  0  0  0  0  0
  184.9310  178.1960  145.5810 C   0  0  0  0  0  0  0  0  0  0  0  0
  190.1580  174.0570  142.9660 C   0  0  0  0  0  0  0  0  0  0  0  0
  192.4070  175.3470  147.1160 N   0  0  0  0  0  0  0  0  0  0  0  0
  186.1860  178.0990  141.6710 C   0  0  0  0  0  2  0  0  0  0  0  0
  186.7530  176.6990  141.8870 C   0  0  0  0  0  3  0  0  0  0  0  0
  187.5150  177.7350  141.0660 C   0  0  0  0  0  2  0  0  0  0  0  0
  183.2880  179.0480  143.9170 C   0  0  0  0  0  1  0  0  0  0  0  0
  183.7130  178.8110  145.2560 O   0  0  0  0  0  0  0  0  0  0  0  0
  2 21  1  0  0  0  0
  3  9  2  0  0  0  0
  4  1  2  0  0  0  0
  5 14  2  0  0  0  0
  7 12  1  0  0  0  0
  8  9  1  1  0  0  0
  8 13  1  0  0  0  0
  9 22  1  0  0  0  0
 10  2  2  0  0  0  0
 10 16  1  0  0  0  0
 11 22  1  0  0  0  0
 12 17  2  0  0  0  0
 12 14  1  0  0  0  0
 13 16  2  0  0  0  0
 13 17  1  0  0  0  0
 14 23  1  0  0  0  0
 15  3  1  0  0  0  0
 15 11  2  0  0  0  0
 16  4  1  0  0  0  0
 17 19  1  0  0  0  0
 18  1  1  0  0  0  0
 19  6  1  0  0  0  0
 20  8  1  0  0  0  0
 20 10  1  0  0  0  0
 21 18  2  0  0  0  0
 22  7  2  0  0  0  0
 23  6  2  0  0  0  0
 24 25  1  0  0  0  0
 25 20  1  0  0  0  0
 26 24  1  0  0  0  0
 26 25  1  0  0  0  0
 27 28  1  0  0  0  0
 28 21  1  0  0  0  0
M  END
>  <MODEL>
3

>  <REMARK>
 VINA RESULT:      -8.1      1.686      6.072
  Name = 
  2 active torsions:
  status: ('A' for Active; 'I' for Inactive)
    1  A    between atoms: C_15  and  N_24
    2  A    between atoms: C_25  and  O_26
                            x       y       z     vdW  Elec       q    Type
                         _______ _______ _______ _____ _____    ______ ____

>  <TORSDO>
F 2

$$$$
=
 OpenBabel11042414483D

 28 33  0  0  0  0  0  0  0  0999 V2000
  185.9380  177.5780  141.2240 C   0  0  0  0  0  3  0  0  0  0  0  0
  186.5350  178.0350  144.2700 C   0  0  0  0  0  3  0  0  0  0  0  0
  191.1730  176.1260  145.9180 C   0  0  0  0  0  3  0  0  0  0  0  0
  187.0420  176.8690  141.4190 C   0  0  0  0  0  3  0  0  0  0  0  0
  192.3670  173.2660  140.4410 O   0  0  0  0  0  0  0  0  0  0  0  0
  188.9600  173.6640  139.7500 C   0  0  0  0  0  3  0  0  0  0  0  0
  191.8910  174.8470  142.5940 C   0  0  0  0  0  3  0  0  0  0  0  0
  189.4200  176.1060  144.0850 C   0  0  0  0  0  0  0  0  0  0  0  0
  190.6420  175.7760  144.5580 C   0  0  0  0  0  0  0  0  0  0  0  0
  187.5350  177.2170  143.9140 C   0  0  0  0  0  0  0  0  0  0  0  0
  192.9470  175.5350  144.6050 N   0  0  0  0  0  0  0  0  0  0  0  0
  190.8200  174.5170  141.6420 C   0  0  0  0  0  0  0  0  0  0  0  0
  188.9680  175.9230  142.7770 C   0  0  0  0  0  0  0  0  0  0  0  0
  191.1800  173.6690  140.5690 C   0  0  0  0  0  0  0  0  0  0  0  0
  192.6400  176.0370  145.8770 N   0  0  0  0  0  0  0  0  0  0  0  0
  187.7890  176.6740  142.6710 C   0  0  0  0  0  0  0  0  0  0  0  0
  189.4830  174.9830  141.7290 C   0  0  0  0  0  0  0  0  0  0  0  0
  185.1730  178.3560  142.2000 C   0  0  0  0  0  3  0  0  0  0  0  0
  188.5660  174.5170  140.7730 C   0  0  0  0  0  3  0  0  0  0  0  0
  188.4890  176.8140  144.7920 N   0  0  0  0  0  0  0  0  0  0  0  0
  185.4030  178.5740  143.5000 C   0  0  0  0  0  0  0  0  0  0  0  0
  191.8010  175.3680  143.8050 C   0  0  0  0  0  0  0  0  0  0  0  0
  190.2510  173.2680  139.6660 N   0  0  0  0  0  0  0  0  0  0  0  0
  187.1680  177.0290  146.8880 C   0  0  0  0  0  2  0  0  0  0  0  0
  188.5350  177.1660  146.2240 C   0  0  0  0  0  3  0  0  0  0  0  0
  188.1910  175.9410  147.0650 C   0  0  0  0  0  2  0  0  0  0  0  0
  184.0660  179.0410  145.5470 C   0  0  0  0  0  1  0  0  0  0  0  0
  184.5050  179.3650  144.2310 O   0  0  0  0  0  0  0  0  0  0  0  0
  1  4  2  0  0  0  0
  1 18  1  0  0  0  0
  4 16  1  0  0  0  0
  5 14  2  0  0  0  0
  6 19  1  0  0  0  0
  7 22  1  0  0  0  0
  8  9  2  0  0  0  0
  8 20  1  0  0  0  0
  9  3  1  0  0  0  0
 10  2  2  0  0  0  0
 10 20  1  0  0  0  0
 11 15  1  0  0  0  0
 12 17  1  0  0  0  0
 12  7  2  0  0  0  0
 13  8  1  0  0  0  0
 14 12  1  0  0  0  0
 15  3  2  0  0  0  0
 16 13  2  0  0  0  0
 16 10  1  0  0  0  0
 17 13  1  0  0  0  0
 18 21  2  0  0  0  0
 19 17  2  0  0  0  0
 20 25  1  0  0  0  0
 21 28  1  0  0  0  0
 21  2  1  0  0  0  0
 22  9  1  0  0  0  0
 22 11  2  0  0  0  0
 23  6  2  0  0  0  0
 23 14  1  0  0  0  0
 24 26  1  0  0  0  0
 25 24  1  0  0  0  0
 25 26  1  0  0  0  0
 28 27  1  0  0  0  0
M  END
>  <MODEL>
4

>  <REMARK>
 VINA RESULT:      -7.6      2.259      7.226
  Name = 
  2 active torsions:
  status: ('A' for Active; 'I' for Inactive)
    1  A    between atoms: C_15  and  N_24
    2  A    between atoms: C_25  and  O_26
                            x       y       z     vdW  Elec       q    Type
                         _______ _______ _______ _____ _____    ______ ____

>  <TORSDO>
F 2

$$$$
=
 OpenBabel11042414483D

 28 33  0  0  0  0  0  0  0  0999 V2000
  189.3090  173.8110  139.9280 C   0  0  0  0  0  3  0  0  0  0  0  0
  190.8100  173.9050  142.6820 C   0  0  0  0  0  3  0  0  0  0  0  0
  188.1850  176.3750  146.5400 C   0  0  0  0  0  3  0  0  0  0  0  0
  188.5450  174.6170  140.6550 C   0  0  0  0  0  2  0  0  0  0  0  0
  183.6330  178.3680  142.6790 O   0  0  0  0  0  0  0  0  0  0  0  0
  185.8380  177.6270  140.0660 C   0  0  0  0  0  3  0  0  0  0  0  0
  185.4520  177.1350  144.2710 C   0  0  0  0  0  3  0  0  0  0  0  0
  188.3690  175.9710  144.0430 C   0  0  0  0  0  0  0  0  0  0  0  0
  187.7110  176.4590  145.1180 C   0  0  0  0  0  0  0  0  0  0  0  0
  189.7710  174.7200  142.9080 C   0  0  0  0  0  0  0  0  0  0  0  0
  185.9530  176.8620  146.5740 N   0  0  0  0  0  0  0  0  0  0  0  0
  185.6540  177.2280  142.8170 C   0  0  0  0  0  0  0  0  0  0  0  0
  187.8750  175.9040  142.7380 C   0  0  0  0  0  0  0  0  0  0  0  0
  184.6500  177.9100  142.0910 C   0  0  0  0  0  0  0  0  0  0  0  0
  187.0250  176.5570  147.4250 N   0  0  0  0  0  0  0  0  0  0  0  0
  188.7550  175.0670  142.0390 C   0  0  0  0  0  0  0  0  0  0  0  0
  186.7630  176.6920  142.1150 C   0  0  0  0  0  0  0  0  0  0  0  0
  190.5590  173.1540  140.3130 C   0  0  0  0  0  3  0  0  0  0  0  0
  186.8370  176.9300  140.7320 C   0  0  0  0  0  2  0  0  0  0  0  0
  189.5730  175.3280  144.1060 N   0  0  0  0  0  0  0  0  0  0  0  0
  191.2200  173.1700  141.4760 C   0  0  0  0  0  0  0  0  0  0  0  0
  186.3190  176.8160  145.2160 C   0  0  0  0  0  0  0  0  0  0  0  0
  184.7690  178.0920  140.7530 N   0  0  0  0  0  0  0  0  0  0  0  0
  191.9340  175.3590  144.8840 C   0  0  0  0  0  2  0  0  0  0  0  0
  190.4660  175.2210  145.2750 C   0  0  0  0  0  3  0  0  0  0  0  0
  191.2100  176.5370  145.4750 C   0  0  0  0  0  2  0  0  0  0  0  0
  192.6890  171.2570  140.8620 C   0  0  0  0  0  1  0  0  0  0  0  0
  192.4180  172.4500  141.5920 O   0  0  0  0  0  0  0  0  0  0  0  0
  1 18  2  0  0  0  0
  1  4  1  0  0  0  0
  2 10  1  0  0  0  0
  3 15  1  0  0  0  0
  4 16  1  0  0  0  0
  6 19  1  0  0  0  0
  6 23  2  0  0  0  0
  7 22  2  0  0  0  0
  8 20  1  0  0  0  0
  8  9  1  0  0  0  0
  9 22  1  0  0  0  0
  9  3  2  0  0  0  0
 10 20  1  0  0  0  0
 11 15  2  0  0  0  0
 12  7  1  0  0  0  0
 13  8  2  0  0  0  0
 14  5  2  0  0  0  0
 14 12  1  0  0  0  0
 16 13  1  0  0  0  0
 16 10  2  0  0  0  0
 17 13  1  0  0  0  0
 17 12  2  0  0  0  0
 18 21  1  0  0  0  0
 19 17  1  0  0  0  0
 20 25  1  0  0  0  0
 21 28  1  0  0  0  0
 21  2  2  0  0  0  0
 22 11  1  0  0  0  0
 23 14  1  0  0  0  0
 24 25  1  0  0  0  0
 24 26  1  0  0  0  0
 25 26  1  0  0  0  0
 27 28  1  0  0  0  0
M  END
>  <MODEL>
5

>  <REMARK>
 VINA RESULT:      -7.6      1.906      4.873
  Name = 
  2 active torsions:
  status: ('A' for Active; 'I' for Inactive)
    1  A    between atoms: C_15  and  N_24
    2  A    between atoms: C_25  and  O_26
                            x       y       z     vdW  Elec       q    Type
                         _______ _______ _______ _____ _____    ______ ____

>  <TORSDO>
F 2

$$$$
=
 OpenBabel11042414483D

 28 33  0  0  1  0  0  0  0  0999 V2000
  191.5440  176.5850  146.5240 C   0  0  0  0  0  3  0  0  0  0  0  0
  191.7470  174.8170  143.9390 C   0  0  0  0  0  3  0  0  0  0  0  0
  187.8870  175.5990  140.4230 C   0  0  0  0  0  3  0  0  0  0  0  0
  190.3960  176.8310  145.9050 C   0  0  0  0  0  3  0  0  0  0  0  0
  184.6430  179.3820  144.2670 O   0  0  0  0  0  0  0  0  0  0  0  0
  186.6150  178.0780  146.8450 C   0  0  0  0  0  3  0  0  0  0  0  0
  186.3210  178.0470  142.6040 C   0  0  0  0  0  3  0  0  0  0  0  0
  188.6610  175.9500  142.8130 C   0  0  2  0  0  3  0  0  0  0  0  0
  187.7960  176.1860  141.8030 C   0  0  0  0  0  0  0  0  0  0  0  0
  190.5380  175.3750  143.7950 C   0  0  0  0  0  0  0  0  0  0  0  0
  186.4740  177.3910  140.3280 N   0  0  0  0  0  0  0  0  0  0  0  0
  186.5200  178.0280  144.0610 C   0  0  0  0  0  0  0  0  0  0  0  0
  188.6790  176.6020  144.0480 C   0  0  0  0  0  0  0  0  0  0  0  0
  185.5730  178.7430  144.8290 C   0  0  0  0  0  0  0  0  0  0  0  0
  187.1000  176.4400  139.5110 N   0  0  0  0  0  0  0  0  0  0  0  0
  189.9020  176.2610  144.6420 C   0  0  0  0  0  0  0  0  0  0  0  0
  187.5760  177.3560  144.7280 C   0  0  0  0  0  0  0  0  0  0  0  0
  192.6230  175.6860  146.1120 C   0  0  0  0  0  3  0  0  0  0  0  0
  187.5820  177.3820  146.1320 C   0  0  0  0  0  2  0  0  0  0  0  0
  189.7510  175.1320  142.7160 N   0  0  0  0  0  0  0  0  0  0  0  0
  192.7420  174.9250  145.0170 C   0  0  0  0  0  0  0  0  0  0  0  0
  186.8570  177.2720  141.6770 C   0  0  0  0  0  0  0  0  0  0  0  0
  185.6420  178.7460  146.1830 N   0  0  0  0  0  0  0  0  0  0  0  0
  190.7640  172.9440  142.1080 C   0  0  0  0  0  2  0  0  0  0  0  0
  190.0790  174.2130  141.6100 C   0  0  0  0  0  3  0  0  0  0  0  0
  189.2980  172.9130  141.7730 C   0  0  0  0  0  2  0  0  0  0  0  0
  193.9910  172.7930  145.3200 C   0  0  0  0  0  1  0  0  0  0  0  0
  193.8900  174.1360  144.8540 O   0  0  0  0  0  0  0  0  0  0  0  0
  2 21  1  0  0  0  0
  3  9  2  0  0  0  0
  4  1  2  0  0  0  0
  5 14  2  0  0  0  0
  7 12  1  0  0  0  0
  8  9  1  6  0  0  0
  8 13  1  0  0  0  0
 10  2  2  0  0  0  0
 10 16  1  0  0  0  0
 11 22  1  0  0  0  0
 12 17  2  0  0  0  0
 12 14  1  0  0  0  0
 13 16  2  0  0  0  0
 13 17  1  0  0  0  0
 14 23  1  0  0  0  0
 15 11  2  0  0  0  0
 15  3  1  0  0  0  0
 16  4  1  0  0  0  0
 17 19  1  0  0  0  0
 18  1  1  0  0  0  0
 19  6  1  0  0  0  0
 20  8  1  0  0  0  0
 20 10  1  0  0  0  0
 21 18  2  0  0  0  0
 22  9  1  0  0  0  0
 22  7  2  0  0  0  0
 23  6  2  0  0  0  0
 25 26  1  0  0  0  0
 25 24  1  0  0  0  0
 25 20  1  0  0  0  0
 26 24  1  0  0  0  0
 28 21  1  0  0  0  0
 28 27  1  0  0  0  0
M  END
>  <MODEL>
6

>  <REMARK>
 VINA RESULT:      -7.5      1.126      1.327
  Name = 
  2 active torsions:
  status: ('A' for Active; 'I' for Inactive)
    1  A    between atoms: C_15  and  N_24
    2  A    between atoms: C_25  and  O_26
                            x       y       z     vdW  Elec       q    Type
                         _______ _______ _______ _____ _____    ______ ____

>  <TORSDO>
F 2

$$$$
=
 OpenBabel11042414483D

 28 33  0  0  1  0  0  0  0  0999 V2000
  188.4790  177.4490  147.2200 C   0  0  0  0  0  3  0  0  0  0  0  0
  186.4620  177.2610  144.8240 C   0  0  0  0  0  3  0  0  0  0  0  0
  188.3250  174.7580  140.5650 C   0  0  0  0  0  3  0  0  0  0  0  0
  189.2260  176.9540  146.2420 C   0  0  0  0  0  3  0  0  0  0  0  0
  194.1500  174.3200  142.9080 O   0  0  0  0  0  0  0  0  0  0  0  0
  193.1750  176.7900  145.1860 C   0  0  0  0  0  3  0  0  0  0  0  0
  191.5330  174.2530  142.1960 C   0  0  0  0  0  3  0  0  0  0  0  0
  188.9000  175.8840  142.7640 C   0  0  2  0  0  3  0  0  0  0  0  0
  189.2440  175.1390  141.6910 C   0  0  0  0  0  0  0  0  0  0  0  0
  187.5940  176.8110  144.2650 C   0  0  0  0  0  0  0  0  0  0  0  0
  190.1430  173.3760  140.4830 N   0  0  0  0  0  0  0  0  0  0  0  0
  192.0060  175.1410  143.2680 C   0  0  0  0  0  0  0  0  0  0  0  0
  189.6920  176.1180  143.8900 C   0  0  0  0  0  0  0  0  0  0  0  0
  193.3930  175.1050  143.5400 C   0  0  0  0  0  0  0  0  0  0  0  0
  188.8960  173.5900  139.8800 N   0  0  0  0  0  0  0  0  0  0  0  0
  188.8360  176.6690  144.8530 C   0  0  0  0  0  0  0  0  0  0  0  0
  191.1810  176.0090  144.0280 C   0  0  0  0  0  0  0  0  0  0  0  0
  187.0680  177.8380  147.1780 C   0  0  0  0  0  3  0  0  0  0  0  0
  191.8040  176.8420  144.9710 C   0  0  0  0  0  2  0  0  0  0  0  0
  187.6520  176.3990  142.9730 N   0  0  0  0  0  0  0  0  0  0  0  0
  186.1830  177.7660  146.1770 C   0  0  0  0  0  0  0  0  0  0  0  0
  190.3810  174.2660  141.5470 C   0  0  0  0  0  0  0  0  0  0  0  0
  193.9340  175.9230  144.4770 N   0  0  0  0  0  0  0  0  0  0  0  0
  185.7300  177.7270  142.1190 C   0  0  0  0  0  2  0  0  0  0  0  0
  186.5290  176.4310  142.0170 C   0  0  0  0  0  3  0  0  0  0  0  0
  186.7390  177.5620  141.0150 C   0  0  0  0  0  2  0  0  0  0  0  0
  184.1090  178.9040  145.4040 C   0  0  0  0  0  1  0  0  0  0  0  0
  184.8710  178.2140  146.3900 O   0  0  0  0  0  0  0  0  0  0  0  0
  2 21  1  0  0  0  0
  3  9  2  0  0  0  0
  4  1  2  0  0  0  0
  5 14  2  0  0  0  0
  7 12  1  0  0  0  0
  8  9  1  1  0  0  0
  8 20  1  0  0  0  0
  8 13  1  0  0  0  0
 10  2  2  0  0  0  0
 10 16  1  0  0  0  0
 11 22  1  0  0  0  0
 12 14  1  0  0  0  0
 12 17  2  0  0  0  0
 13 17  1  0  0  0  0
 13 16  2  0  0  0  0
 14 23  1  0  0  0  0
 15 11  2  0  0  0  0
 15  3  1  0  0  0  0
 16  4  1  0  0  0  0
 17 19  1  0  0  0  0
 18  1  1  0  0  0  0
 19  6  1  0  0  0  0
 20 10  1  0  0  0  0
 21 28  1  0  0  0  0
 21 18  2  0  0  0  0
 22  9  1  0  0  0  0
 22  7  2  0  0  0  0
 23  6  2  0  0  0  0
 25 24  1  0  0  0  0
 25 20  1  0  0  0  0
 26 25  1  0  0  0  0
 26 24  1  0  0  0  0
 27 28  1  0  0  0  0
M  END
>  <MODEL>
7

>  <REMARK>
 VINA RESULT:      -7.4      1.932      6.137
  Name = 
  2 active torsions:
  status: ('A' for Active; 'I' for Inactive)
    1  A    between atoms: C_15  and  N_24
    2  A    between atoms: C_25  and  O_26
                            x       y       z     vdW  Elec       q    Type
                         _______ _______ _______ _____ _____    ______ ____

>  <TORSDO>
F 2

$$$$
=
 OpenBabel11042414483D

 28 33  0  0  0  0  0  0  0  0999 V2000
  186.5780  177.2050  139.7070 C   0  0  0  0  0  3  0  0  0  0  0  0
  184.8180  178.0050  142.1790 C   0  0  0  0  0  3  0  0  0  0  0  0
  187.2710  177.6470  146.8400 C   0  0  0  0  0  3  0  0  0  0  0  0
  187.3420  176.8660  140.7370 C   0  0  0  0  0  2  0  0  0  0  0  0
  192.3810  174.9310  144.3650 O   0  0  0  0  0  0  0  0  0  0  0  0
  190.3930  174.2690  141.5640 C   0  0  0  0  0  3  0  0  0  0  0  0
  190.2890  176.4320  145.2220 C   0  0  0  0  0  3  0  0  0  0  0  0
  187.3060  177.0000  144.3880 C   0  0  0  0  0  0  0  0  0  0  0  0
  187.8960  177.0730  145.6010 C   0  0  0  0  0  0  0  0  0  0  0  0
  185.9070  177.4960  142.7710 C   0  0  0  0  0  0  0  0  0  0  0  0
  189.5260  177.5230  147.1870 N   0  0  0  0  0  0  0  0  0  0  0  0
  190.2490  175.7440  143.9230 C   0  0  0  0  0  0  0  0  0  0  0  0
  187.9220  176.6120  143.1960 C   0  0  0  0  0  0  0  0  0  0  0  0
  191.3880  174.9750  143.5900 C   0  0  0  0  0  0  0  0  0  0  0  0
  188.3460  177.9900  147.7820 N   0  0  0  0  0  0  0  0  0  0  0  0
  187.0370  176.9750  142.1720 C   0  0  0  0  0  0  0  0  0  0  0  0
  189.1690  175.8020  143.0050 C   0  0  0  0  0  0  0  0  0  0  0  0
  185.2330  177.7830  139.7250 C   0  0  0  0  0  3  0  0  0  0  0  0
  189.2640  175.0290  141.8370 C   0  0  0  0  0  2  0  0  0  0  0  0
  186.0420  177.4450  144.1200 N   0  0  0  0  0  0  0  0  0  0  0  0
  184.4610  178.1390  140.7580 C   0  0  0  0  0  0  0  0  0  0  0  0
  189.3000  176.9780  145.9090 C   0  0  0  0  0  0  0  0  0  0  0  0
  191.4270  174.2640  142.4360 N   0  0  0  0  0  0  0  0  0  0  0  0
  185.1430  179.3710  145.4120 C   0  0  0  0  0  2  0  0  0  0  0  0
  185.0260  177.8830  145.0970 C   0  0  0  0  0  3  0  0  0  0  0  0
  184.0920  178.8970  144.4460 C   0  0  0  0  0  2  0  0  0  0  0  0
  181.9970  178.1770  141.1110 C   0  0  0  0  0  1  0  0  0  0  0  0
  183.1890  178.6750  140.5090 O   0  0  0  0  0  0  0  0  0  0  0  0
  1 18  2  0  0  0  0
  1  4  1  0  0  0  0
  2 10  1  0  0  0  0
  3 15  1  0  0  0  0
  4 16  1  0  0  0  0
  6 19  1  0  0  0  0
  6 23  2  0  0  0  0
  7 22  2  0  0  0  0
  8  9  1  0  0  0  0
  9 22  1  0  0  0  0
  9  3  2  0  0  0  0
 10 20  1  0  0  0  0
 11 15  2  0  0  0  0
 12  7  1  0  0  0  0
 13  8  2  0  0  0  0
 14 12  1  0  0  0  0
 14  5  2  0  0  0  0
 16 10  2  0  0  0  0
 16 13  1  0  0  0  0
 17 13  1  0  0  0  0
 17 12  2  0  0  0  0
 18 21  1  0  0  0  0
 19 17  1  0  0  0  0
 20  8  1  0  0  0  0
 20 25  1  0  0  0  0
 21  2  2  0  0  0  0
 22 11  1  0  0  0  0
 23 14  1  0  0  0  0
 25 24  1  0  0  0  0
 26 25  1  0  0  0  0
 26 24  1  0  0  0  0
 28 21  1  0  0  0  0
 28 27  1  0  0  0  0
M  END
>  <MODEL>
8

>  <REMARK>
 VINA RESULT:      -7.4      2.167      7.406
  Name = 
  2 active torsions:
  status: ('A' for Active; 'I' for Inactive)
    1  A    between atoms: C_15  and  N_24
    2  A    between atoms: C_25  and  O_26
                            x       y       z     vdW  Elec       q    Type
                         _______ _______ _______ _____ _____    ______ ____

>  <TORSDO>
F 2

$$$$
=
 OpenBabel11042414483D

 28 33  0  0  0  0  0  0  0  0999 V2000
  185.7660  176.8630  142.7530 C   0  0  0  0  0  3  0  0  0  0  0  0
  187.5960  177.8420  145.1060 C   0  0  0  0  0  3  0  0  0  0  0  0
  192.6560  176.3840  144.7180 C   0  0  0  0  0  3  0  0  0  0  0  0
  186.9100  176.2330  142.5210 C   0  0  0  0  0  3  0  0  0  0  0  0
  191.5970  172.6870  139.7360 O   0  0  0  0  0  0  0  0  0  0  0  0
  188.2150  172.8560  140.6150 C   0  0  0  0  0  3  0  0  0  0  0  0
  191.9600  174.5900  141.6360 C   0  0  0  0  0  3  0  0  0  0  0  0
  190.2860  176.0020  143.8990 C   0  0  0  0  0  0  0  0  0  0  0  0
  191.6180  175.7940  143.8070 C   0  0  0  0  0  0  0  0  0  0  0  0
  188.4150  177.0090  144.4510 C   0  0  0  0  0  0  0  0  0  0  0  0
  193.7180  175.6380  142.8380 N   0  0  0  0  0  0  0  0  0  0  0  0
  190.6190  174.0720  141.3260 C   0  0  0  0  0  0  0  0  0  0  0  0
  189.3240  175.5890  142.9740 C   0  0  0  0  0  0  0  0  0  0  0  0
  190.5540  173.0690  140.3320 C   0  0  0  0  0  0  0  0  0  0  0  0
  193.9540  176.3360  144.0310 N   0  0  0  0  0  0  0  0  0  0  0  0
  188.1490  176.2730  143.3130 C   0  0  0  0  0  0  0  0  0  0  0  0
  189.4180  174.5030  141.9450 C   0  0  0  0  0  0  0  0  0  0  0  0
  185.4350  177.7690  143.8550 C   0  0  0  0  0  3  0  0  0  0  0  0
  188.2270  173.8550  141.5800 C   0  0  0  0  0  3  0  0  0  0  0  0
  189.6940  176.7880  144.8470 N   0  0  0  0  0  0  0  0  0  0  0  0
  186.1920  178.2090  144.8670 C   0  0  0  0  0  0  0  0  0  0  0  0
  192.3600  175.3040  142.6740 C   0  0  0  0  0  0  0  0  0  0  0  0
  189.3690  172.4930  140.0100 N   0  0  0  0  0  0  0  0  0  0  0  0
  189.3680  177.4520  147.2210 C   0  0  0  0  0  2  0  0  0  0  0  0
  190.3310  177.3760  146.0410 C   0  0  0  0  0  3  0  0  0  0  0  0
  190.3800  176.3400  147.1600 C   0  0  0  0  0  2  0  0  0  0  0  0
  185.6090  178.8140  147.2100 C   0  0  0  0  0  1  0  0  0  0  0  0
  185.6320  179.0820  145.8110 O   0  0  0  0  0  0  0  0  0  0  0  0
  1 18  1  0  0  0  0
  4  1  2  0  0  0  0
  4 16  1  0  0  0  0
  5 14  2  0  0  0  0
  6 19  1  0  0  0  0
  7 22  1  0  0  0  0
  8 20  1  0  0  0  0
  9  8  2  0  0  0  0
  9  3  1  0  0  0  0
 10 20  1  0  0  0  0
 10  2  2  0  0  0  0
 11 15  1  0  0  0  0
 12  7  2  0  0  0  0
 12 17  1  0  0  0  0
 13 16  2  0  0  0  0
 13  8  1  0  0  0  0
 14 12  1  0  0  0  0
 15  3  2  0  0  0  0
 16 10  1  0  0  0  0
 17 13  1  0  0  0  0
 18 21  2  0  0  0  0
 19 17  2  0  0  0  0
 20 25  1  0  0  0  0
 21  2  1  0  0  0  0
 21 28  1  0  0  0  0
 22 11  2  0  0  0  0
 22  9  1  0  0  0  0
 23 14  1  0  0  0  0
 23  6  2  0  0  0  0
 25 26  1  0  0  0  0
 25 24  1  0  0  0  0
 26 24  1  0  0  0  0
 28 27  1  0  0  0  0
M  END
>  <MODEL>
9

>  <REMARK>
 VINA RESULT:      -7.4      2.488      6.894
  Name = 
  2 active torsions:
  status: ('A' for Active; 'I' for Inactive)
    1  A    between atoms: C_15  and  N_24
    2  A    between atoms: C_25  and  O_26
                            x       y       z     vdW  Elec       q    Type
                         _______ _______ _______ _____ _____    ______ ____

>  <TORSDO>
F 2

$$$$
