=
 OpenBabel11042417223D

 26 30  0  0  1  0  0  0  0  0999 V2000
  187.1330  176.0980  142.1390 C   0  0  0  0  0  1  0  0  0  0  0  0
  188.8010  178.2830  142.0070 S   0  0  0  0  0  0  0  0  0  0  0  0
  186.8850  177.8970  143.9200 C   0  0  2  0  0  3  0  0  0  0  0  0
  185.5740  177.3400  144.4880 C   0  0  2  0  0  3  0  0  0  0  0  0
  189.7890  177.4740  143.2940 C   0  0  0  0  0  0  0  0  0  0  0  0
  190.0830  176.5860  145.5590 C   0  0  0  0  0  0  0  0  0  0  0  0
  187.1530  177.5940  142.4400 C   0  0  2  0  0  0  0  0  0  0  0  0
  191.4230  176.3180  145.2770 C   0  0  0  0  0  3  0  0  0  0  0  0
  184.6620  177.9220  141.8060 C   0  0  1  0  0  3  0  0  0  0  0  0
  186.1230  178.3230  141.5600 C   0  0  0  0  0  2  0  0  0  0  0  0
  184.4830  178.3350  144.2430 C   0  0  0  0  0  0  0  0  0  0  0  0
  185.1100  176.7030  146.8170 O   0  0  0  0  0  0  0  0  0  0  0  0
  184.1120  178.6210  142.9260 O   0  0  0  0  0  0  0  0  0  0  0  0
  191.1300  177.1810  143.0270 C   0  0  0  0  0  3  0  0  0  0  0  0
  183.9110  178.9610  145.2180 N   0  0  0  0  0  2  0  0  0  0  0  0
  189.5250  176.2110  146.7970 C   0  0  0  0  0  3  0  0  0  0  0  0
  187.3710  176.9630  146.0370 C   0  0  0  0  0  0  0  0  0  0  0  0
  189.2670  177.1830  144.5640 C   0  0  0  0  0  0  0  0  0  0  0  0
  187.9200  177.3740  144.8480 C   0  0  0  0  0  0  0  0  0  0  0  0
  185.9290  177.0250  145.9150 C   0  0  0  0  0  0  0  0  0  0  0  0
  191.9530  176.6110  144.0150 C   0  0  0  0  0  0  0  0  0  0  0  0
  188.1490  176.3800  147.0390 C   0  0  0  0  0  3  0  0  0  0  0  0
  183.8650  178.2390  140.5860 C   0  0  0  0  0  3  0  0  0  0  0  0
  182.6470  178.2770  140.6410 O   0  0  0  0  0  0  0  0  0  0  0  0
  193.2980  176.3230  143.7680 O   0  0  0  0  0  0  0  0  0  0  0  0
  194.2970  176.3950  144.7770 C   0  0  0  0  0  1  0  0  0  0  0  0
  2  7  1  0  0  0  0
  2  5  1  0  0  0  0
  3  4  1  0  0  0  0
  3 19  1  1  0  0  0
  4 11  1  1  0  0  0
  4 20  1  0  0  0  0
  5 18  1  0  0  0  0
  6 16  1  0  0  0  0
  7  1  1  6  0  0  0
  7  3  1  0  0  0  0
  8  6  1  0  0  0  0
  9 23  1  6  0  0  0
  9 13  1  0  0  0  0
 10  9  1  0  0  0  0
 10  7  1  0  0  0  0
 11 15  2  0  0  0  0
 13 11  1  0  0  0  0
 14  5  2  0  0  0  0
 14 21  1  0  0  0  0
 16 22  2  0  0  0  0
 17 22  1  0  0  0  0
 18 19  1  0  0  0  0
 18  6  2  0  0  0  0
 19 17  2  0  0  0  0
 20 17  1  0  0  0  0
 20 12  2  0  0  0  0
 21  8  2  0  0  0  0
 23 24  2  0  0  0  0
 25 21  1  0  0  0  0
 25 26  1  0  0  0  0
M  END
>  <MODEL>
1

>  <REMARK>
 VINA RESULT:      -8.7      0.000      0.000
  Name = 
  2 active torsions:
  status: ('A' for Active; 'I' for Inactive)
    1  A    between atoms: C_6  and  C_11
    2  A    between atoms: O_8  and  C_24
                            x       y       z     vdW  Elec       q    Type
                         _______ _______ _______ _____ _____    ______ ____

>  <TORSDO>
F 2

$$$$
=
 OpenBabel11042417223D

 26 30  0  0  1  0  0  0  0  0999 V2000
  189.7570  177.9880  142.7340 C   0  0  0  0  0  1  0  0  0  0  0  0
  188.0540  175.9120  142.1310 S   0  0  0  0  0  0  0  0  0  0  0  0
  189.3320  176.2350  144.5280 C   0  0  2  0  0  3  0  0  0  0  0  0
  190.4490  176.7240  145.4580 C   0  0  2  0  0  3  0  0  0  0  0  0
  186.7860  176.8230  143.0520 C   0  0  0  0  0  0  0  0  0  0  0  0
  185.8920  177.7990  145.1140 C   0  0  0  0  0  0  0  0  0  0  0  0
  189.5420  176.5070  143.0320 C   0  0  2  0  0  0  0  0  0  0  0  0
  184.7190  178.1430  144.4390 C   0  0  0  0  0  3  0  0  0  0  0  0
  192.0790  176.0010  143.1800 C   0  0  1  0  0  3  0  0  0  0  0  0
  190.7340  175.6860  142.5110 C   0  0  0  0  0  2  0  0  0  0  0  0
  191.4910  175.6540  145.5630 C   0  0  0  0  0  0  0  0  0  0  0  0
  190.2380  177.4040  147.8110 O   0  0  0  0  0  0  0  0  0  0  0  0
  192.2180  175.3030  144.4220 O   0  0  0  0  0  0  0  0  0  0  0  0
  185.6110  177.1920  142.3920 C   0  0  0  0  0  3  0  0  0  0  0  0
  191.6980  175.0250  146.6720 N   0  0  0  0  0  2  0  0  0  0  0  0
  186.0780  178.1770  146.4590 C   0  0  0  0  0  3  0  0  0  0  0  0
  188.3020  177.2650  146.3900 C   0  0  0  0  0  0  0  0  0  0  0  0
  186.9240  177.1200  144.4180 C   0  0  0  0  0  0  0  0  0  0  0  0
  188.1060  176.8530  145.0960 C   0  0  0  0  0  0  0  0  0  0  0  0
  189.7070  177.1070  146.7080 C   0  0  0  0  0  0  0  0  0  0  0  0
  184.5720  177.8450  143.0790 C   0  0  0  0  0  0  0  0  0  0  0  0
  187.3030  177.9280  147.1050 C   0  0  0  0  0  3  0  0  0  0  0  0
  193.1790  175.5940  142.2610 C   0  0  0  0  0  3  0  0  0  0  0  0
  194.2960  176.0700  142.3910 O   0  0  0  0  0  0  0  0  0  0  0  0
  183.3870  178.2110  142.4360 O   0  0  0  0  0  0  0  0  0  0  0  0
  183.2840  178.3250  141.0220 C   0  0  0  0  0  1  0  0  0  0  0  0
  2  7  1  0  0  0  0
  2  5  1  0  0  0  0
  3 19  1  1  0  0  0
  3  4  1  0  0  0  0
  4 11  1  1  0  0  0
  4 20  1  0  0  0  0
  5 18  1  0  0  0  0
  6 16  1  0  0  0  0
  7  1  1  6  0  0  0
  7  3  1  0  0  0  0
  8  6  1  0  0  0  0
  9 23  1  6  0  0  0
  9 13  1  0  0  0  0
 10  7  1  0  0  0  0
 10  9  1  0  0  0  0
 11 15  2  0  0  0  0
 13 11  1  0  0  0  0
 14  5  2  0  0  0  0
 14 21  1  0  0  0  0
 16 22  2  0  0  0  0
 17 20  1  0  0  0  0
 17 22  1  0  0  0  0
 18 19  1  0  0  0  0
 18  6  2  0  0  0  0
 19 17  2  0  0  0  0
 20 12  2  0  0  0  0
 21  8  2  0  0  0  0
 23 24  2  0  0  0  0
 25 21  1  0  0  0  0
 26 25  1  0  0  0  0
M  END
>  <MODEL>
2

>  <REMARK>
 VINA RESULT:      -7.9      2.346      6.446
  Name = 
  2 active torsions:
  status: ('A' for Active; 'I' for Inactive)
    1  A    between atoms: C_6  and  C_11
    2  A    between atoms: O_8  and  C_24
                            x       y       z     vdW  Elec       q    Type
                         _______ _______ _______ _____ _____    ______ ____

>  <TORSDO>
F 2

$$$$
=
 OpenBabel11042417223D

 26 30  0  0  1  0  0  0  0  0999 V2000
  189.7630  175.5640  142.7530 C   0  0  0  0  0  1  0  0  0  0  0  0
  191.5310  177.6670  142.9200 S   0  0  0  0  0  0  0  0  0  0  0  0
  189.3780  177.3050  144.5680 C   0  0  2  0  0  3  0  0  0  0  0  0
  187.9830  176.7940  144.9480 C   0  0  2  0  0  3  0  0  0  0  0  0
  192.3150  176.7620  144.2810 C   0  0  0  0  0  0  0  0  0  0  0  0
  192.2860  175.7760  146.5240 C   0  0  0  0  0  0  0  0  0  0  0  0
  189.8130  177.0450  143.1190 C   0  0  2  0  0  0  0  0  0  0  0  0
  193.6380  175.4520  146.3960 C   0  0  0  0  0  3  0  0  0  0  0  0
  187.4360  177.5200  142.2020 C   0  0  1  0  0  3  0  0  0  0  0  0
  188.9330  177.8570  142.1530 C   0  0  0  0  0  2  0  0  0  0  0  0
  186.9760  177.8510  144.6150 C   0  0  0  0  0  0  0  0  0  0  0  0
  187.2070  176.0930  147.1730 O   0  0  0  0  0  0  0  0  0  0  0  0
  186.7830  178.2040  143.2760 O   0  0  0  0  0  0  0  0  0  0  0  0
  193.6640  176.4120  144.1670 C   0  0  0  0  0  3  0  0  0  0  0  0
  186.3170  178.4660  145.5400 N   0  0  0  0  0  2  0  0  0  0  0  0
  191.5640  175.3830  147.6680 C   0  0  0  0  0  3  0  0  0  0  0  0
  189.5560  176.2690  146.6860 C   0  0  0  0  0  0  0  0  0  0  0  0
  191.6270  176.4490  145.4650 C   0  0  0  0  0  0  0  0  0  0  0  0
  190.2660  176.6960  145.5910 C   0  0  0  0  0  0  0  0  0  0  0  0
  188.1440  176.4070  146.3920 C   0  0  0  0  0  0  0  0  0  0  0  0
  194.3330  175.7650  145.2220 C   0  0  0  0  0  0  0  0  0  0  0  0
  190.1770  175.6110  147.7480 C   0  0  0  0  0  3  0  0  0  0  0  0
  186.8110  177.9220  140.9100 C   0  0  0  0  0  3  0  0  0  0  0  0
  185.6720  178.3620  140.8880 O   0  0  0  0  0  0  0  0  0  0  0  0
  195.6840  175.4200  145.1270 O   0  0  0  0  0  0  0  0  0  0  0  0
  196.2220  174.2520  145.7320 C   0  0  0  0  0  1  0  0  0  0  0  0
  2  7  1  0  0  0  0
  2  5  1  0  0  0  0
  3  4  1  0  0  0  0
  3 19  1  1  0  0  0
  4 11  1  1  0  0  0
  4 20  1  0  0  0  0
  5 18  1  0  0  0  0
  6 16  1  0  0  0  0
  7  1  1  6  0  0  0
  7  3  1  0  0  0  0
  8  6  1  0  0  0  0
  9 23  1  6  0  0  0
  9 13  1  0  0  0  0
 10  9  1  0  0  0  0
 10  7  1  0  0  0  0
 11 15  2  0  0  0  0
 13 11  1  0  0  0  0
 14  5  2  0  0  0  0
 14 21  1  0  0  0  0
 16 22  2  0  0  0  0
 17 22  1  0  0  0  0
 18 19  1  0  0  0  0
 18  6  2  0  0  0  0
 19 17  2  0  0  0  0
 20 17  1  0  0  0  0
 20 12  2  0  0  0  0
 21  8  2  0  0  0  0
 24 23  2  0  0  0  0
 25 21  1  0  0  0  0
 25 26  1  0  0  0  0
M  END
>  <MODEL>
3

>  <REMARK>
 VINA RESULT:      -7.9      1.745      2.685
  Name = 
  2 active torsions:
  status: ('A' for Active; 'I' for Inactive)
    1  A    between atoms: C_6  and  C_11
    2  A    between atoms: O_8  and  C_24
                            x       y       z     vdW  Elec       q    Type
                         _______ _______ _______ _____ _____    ______ ____

>  <TORSDO>
F 2

$$$$
=
 OpenBabel11042417223D

 26 30  0  0  1  0  0  0  0  0999 V2000
  189.3130  177.8770  143.8330 C   0  0  0  0  0  1  0  0  0  0  0  0
  188.5930  175.5110  142.6250 S   0  0  0  0  0  0  0  0  0  0  0  0
  187.2330  176.6860  144.6850 C   0  0  2  0  0  3  0  0  0  0  0  0
  187.0760  177.5670  145.9310 C   0  0  2  0  0  3  0  0  0  0  0  0
  187.3740  176.4780  141.6960 C   0  0  0  0  0  0  0  0  0  0  0  0
  185.3750  177.8890  141.5670 C   0  0  0  0  0  0  0  0  0  0  0  0
  188.6630  176.5320  144.1510 C   0  0  2  0  0  0  0  0  0  0  0  0
  185.4510  177.8650  140.1730 C   0  0  0  0  0  3  0  0  0  0  0  0
  189.6650  176.4270  146.5380 C   0  0  1  0  0  3  0  0  0  0  0  0
  189.5230  175.7580  145.1650 C   0  0  0  0  0  2  0  0  0  0  0  0
  187.2810  176.7200  147.1480 C   0  0  0  0  0  0  0  0  0  0  0  0
  185.1020  178.8730  146.5950 O   0  0  0  0  0  0  0  0  0  0  0  0
  188.5360  176.1490  147.3730 O   0  0  0  0  0  0  0  0  0  0  0  0
  187.4410  176.4810  140.2990 C   0  0  0  0  0  3  0  0  0  0  0  0
  186.3110  176.4760  147.9670 N   0  0  0  0  0  2  0  0  0  0  0  0
  184.3940  178.6660  142.2150 C   0  0  0  0  0  3  0  0  0  0  0  0
  185.3490  178.0720  144.3400 C   0  0  0  0  0  0  0  0  0  0  0  0
  186.3350  177.1780  142.3300 C   0  0  0  0  0  0  0  0  0  0  0  0
  186.2770  177.2770  143.7150 C   0  0  0  0  0  0  0  0  0  0  0  0
  185.7270  178.1990  145.7330 C   0  0  0  0  0  0  0  0  0  0  0  0
  186.4810  177.1650  139.5330 C   0  0  0  0  0  0  0  0  0  0  0  0
  184.3870  178.7790  143.6170 C   0  0  0  0  0  3  0  0  0  0  0  0
  190.9010  175.9170  147.1950 C   0  0  0  0  0  3  0  0  0  0  0  0
  191.4370  176.5620  148.0820 O   0  0  0  0  0  0  0  0  0  0  0  0
  186.5280  177.1680  138.1360 O   0  0  0  0  0  0  0  0  0  0  0  0
  186.6910  175.9810  137.3710 C   0  0  0  0  0  1  0  0  0  0  0  0
  2  7  1  0  0  0  0
  3 19  1  6  0  0  0
  3  4  1  0  0  0  0
  4 20  1  1  0  0  0
  4 11  1  0  0  0  0
  5 18  1  0  0  0  0
  5  2  1  0  0  0  0
  6 16  2  0  0  0  0
  6 18  1  0  0  0  0
  7  1  1  6  0  0  0
  7  3  1  0  0  0  0
  7 10  1  0  0  0  0
  8  6  1  0  0  0  0
  9 23  1  1  0  0  0
  9 13  1  0  0  0  0
 10  9  1  0  0  0  0
 11 13  1  0  0  0  0
 11 15  2  0  0  0  0
 14  5  2  0  0  0  0
 16 22  1  0  0  0  0
 17 20  1  0  0  0  0
 18 19  2  0  0  0  0
 19 17  1  0  0  0  0
 20 12  2  0  0  0  0
 21  8  2  0  0  0  0
 21 14  1  0  0  0  0
 22 17  2  0  0  0  0
 23 24  2  0  0  0  0
 25 21  1  0  0  0  0
 26 25  1  0  0  0  0
M  END
>  <MODEL>
4

>  <REMARK>
 VINA RESULT:      -7.5      2.317      5.961
  Name = 
  2 active torsions:
  status: ('A' for Active; 'I' for Inactive)
    1  A    between atoms: C_6  and  C_11
    2  A    between atoms: O_8  and  C_24
                            x       y       z     vdW  Elec       q    Type
                         _______ _______ _______ _____ _____    ______ ____

>  <TORSDO>
F 2

$$$$
=
 OpenBabel11042417223D

 26 30  0  0  1  0  0  0  0  0999 V2000
  190.4410  178.0550  143.1430 C   0  0  0  0  0  1  0  0  0  0  0  0
  189.0350  175.9320  142.1000 S   0  0  0  0  0  0  0  0  0  0  0  0
  189.2990  176.4670  144.7690 C   0  0  2  0  0  3  0  0  0  0  0  0
  189.9860  177.0370  146.0160 C   0  0  2  0  0  3  0  0  0  0  0  0
  187.5410  176.9190  142.3800 C   0  0  0  0  0  0  0  0  0  0  0  0
  185.9530  178.0730  143.8470 C   0  0  0  0  0  0  0  0  0  0  0  0
  190.0790  176.6060  143.4540 C   0  0  2  0  0  0  0  0  0  0  0  0
  185.1440  178.3550  142.7450 C   0  0  0  0  0  3  0  0  0  0  0  0
  192.3430  176.1170  144.6140 C   0  0  1  0  0  3  0  0  0  0  0  0
  191.3520  175.7430  143.5040 C   0  0  0  0  0  2  0  0  0  0  0  0
  190.8710  175.9820  146.6030 C   0  0  0  0  0  0  0  0  0  0  0  0
  188.9070  177.9230  148.0390 O   0  0  0  0  0  0  0  0  0  0  0  0
  191.9700  175.5320  145.8660 O   0  0  0  0  0  0  0  0  0  0  0  0
  186.7250  177.2280  141.2880 C   0  0  0  0  0  3  0  0  0  0  0  0
  190.6130  175.4530  147.7530 N   0  0  0  0  0  2  0  0  0  0  0  0
  185.6190  178.5680  145.1230 C   0  0  0  0  0  3  0  0  0  0  0  0
  187.6650  177.6560  145.9960 C   0  0  0  0  0  0  0  0  0  0  0  0
  187.1510  177.3360  143.6630 C   0  0  0  0  0  0  0  0  0  0  0  0
  187.9710  177.1310  144.7650 C   0  0  0  0  0  0  0  0  0  0  0  0
  188.8320  177.5280  146.8450 C   0  0  0  0  0  0  0  0  0  0  0  0
  185.5230  177.9380  141.4640 C   0  0  0  0  0  0  0  0  0  0  0  0
  186.4910  178.3790  146.2110 C   0  0  0  0  0  3  0  0  0  0  0  0
  193.6990  175.6320  144.2290 C   0  0  0  0  0  3  0  0  0  0  0  0
  193.8270  174.8080  143.3390 O   0  0  0  0  0  0  0  0  0  0  0  0
  184.6910  178.2440  140.3830 O   0  0  0  0  0  0  0  0  0  0  0  0
  183.2730  178.2630  140.4880 C   0  0  0  0  0  1  0  0  0  0  0  0
  2  5  1  0  0  0  0
  2  7  1  0  0  0  0
  3 19  1  6  0  0  0
  3  4  1  0  0  0  0
  4 11  1  1  0  0  0
  4 20  1  0  0  0  0
  5 18  1  0  0  0  0
  6 16  1  0  0  0  0
  7  1  1  6  0  0  0
  7 10  1  0  0  0  0
  7  3  1  0  0  0  0
  8  6  1  0  0  0  0
  9 23  1  6  0  0  0
  9 13  1  0  0  0  0
 10  9  1  0  0  0  0
 11 15  2  0  0  0  0
 13 11  1  0  0  0  0
 14 21  1  0  0  0  0
 14  5  2  0  0  0  0
 16 22  2  0  0  0  0
 17 22  1  0  0  0  0
 17 20  1  0  0  0  0
 18  6  2  0  0  0  0
 18 19  1  0  0  0  0
 19 17  2  0  0  0  0
 20 12  2  0  0  0  0
 21  8  2  0  0  0  0
 24 23  2  0  0  0  0
 25 26  1  0  0  0  0
 25 21  1  0  0  0  0
M  END
>  <MODEL>
5

>  <REMARK>
 VINA RESULT:      -7.3      2.155      6.427
  Name = 
  2 active torsions:
  status: ('A' for Active; 'I' for Inactive)
    1  A    between atoms: C_6  and  C_11
    2  A    between atoms: O_8  and  C_24
                            x       y       z     vdW  Elec       q    Type
                         _______ _______ _______ _____ _____    ______ ____

>  <TORSDO>
F 2

$$$$
=
 OpenBabel11042417223D

 26 30  0  0  1  0  0  0  0  0999 V2000
  190.5780  174.7690  146.4000 C   0  0  0  0  0  1  0  0  0  0  0  0
  190.1180  177.4740  146.6160 S   0  0  0  0  0  0  0  0  0  0  0  0
  190.8940  176.2020  144.3220 C   0  0  2  0  0  3  0  0  0  0  0  0
  191.5670  175.0970  143.5000 C   0  0  2  0  0  3  0  0  0  0  0  0
  188.5010  177.1520  145.8630 C   0  0  0  0  0  0  0  0  0  0  0  0
  187.0890  176.4150  144.0010 C   0  0  0  0  0  0  0  0  0  0  0  0
  191.0680  176.1030  145.8440 C   0  0  2  0  0  0  0  0  0  0  0  0
  185.9520  176.7880  144.7190 C   0  0  0  0  0  3  0  0  0  0  0  0
  193.5210  175.2970  145.6230 C   0  0  1  0  0  3  0  0  0  0  0  0
  192.5440  176.3200  146.2190 C   0  0  0  0  0  2  0  0  0  0  0  0
  192.9790  175.5030  143.2140 C   0  0  0  0  0  0  0  0  0  0  0  0
  190.8720  174.2400  141.3030 O   0  0  0  0  0  0  0  0  0  0  0  0
  193.8740  175.6350  144.2790 O   0  0  0  0  0  0  0  0  0  0  0  0
  187.3480  177.5020  146.5720 C   0  0  0  0  0  3  0  0  0  0  0  0
  193.3710  175.7710  142.0120 N   0  0  0  0  0  2  0  0  0  0  0  0
  186.9660  175.7870  142.7450 C   0  0  0  0  0  3  0  0  0  0  0  0
  189.3540  175.5150  142.6650 C   0  0  0  0  0  0  0  0  0  0  0  0
  188.3710  176.6140  144.5730 C   0  0  0  0  0  0  0  0  0  0  0  0
  189.4810  176.1690  143.8650 C   0  0  0  0  0  0  0  0  0  0  0  0
  190.6350  174.9260  142.3320 C   0  0  0  0  0  0  0  0  0  0  0  0
  186.0720  177.3300  146.0040 C   0  0  0  0  0  0  0  0  0  0  0  0
  188.1060  175.3110  142.0730 C   0  0  0  0  0  3  0  0  0  0  0  0
  194.7520  175.2630  146.4630 C   0  0  0  0  0  3  0  0  0  0  0  0
  195.7410  174.6600  146.0790 O   0  0  0  0  0  0  0  0  0  0  0  0
  184.9110  177.6870  146.6950 O   0  0  0  0  0  0  0  0  0  0  0  0
  183.9970  178.6620  146.2100 C   0  0  0  0  0  1  0  0  0  0  0  0
  3 19  1  1  0  0  0
  3  7  1  0  0  0  0
  4 20  1  6  0  0  0
  4  3  1  0  0  0  0
  5 14  1  0  0  0  0
  5  2  1  0  0  0  0
  6 18  1  0  0  0  0
  6  8  2  0  0  0  0
  7 10  1  0  0  0  0
  7  1  1  1  0  0  0
  7  2  1  0  0  0  0
  8 21  1  0  0  0  0
  9 10  1  0  0  0  0
  9 23  1  1  0  0  0
 11  4  1  0  0  0  0
 11 13  1  0  0  0  0
 12 20  2  0  0  0  0
 13  9  1  0  0  0  0
 15 11  2  0  0  0  0
 16  6  1  0  0  0  0
 17 19  2  0  0  0  0
 18  5  2  0  0  0  0
 19 18  1  0  0  0  0
 20 17  1  0  0  0  0
 21 14  2  0  0  0  0
 21 25  1  0  0  0  0
 22 17  1  0  0  0  0
 22 16  2  0  0  0  0
 24 23  2  0  0  0  0
 26 25  1  0  0  0  0
M  END
>  <MODEL>
6

>  <REMARK>
 VINA RESULT:      -7.1      3.175      7.538
  Name = 
  2 active torsions:
  status: ('A' for Active; 'I' for Inactive)
    1  A    between atoms: C_6  and  C_11
    2  A    between atoms: O_8  and  C_24
                            x       y       z     vdW  Elec       q    Type
                         _______ _______ _______ _____ _____    ______ ____

>  <TORSDO>
F 2

$$$$
=
 OpenBabel11042417223D

 26 30  0  0  1  0  0  0  0  0999 V2000
  189.6920  172.8030  145.0420 C   0  0  0  0  0  1  0  0  0  0  0  0
  190.5140  175.1770  146.1660 S   0  0  0  0  0  0  0  0  0  0  0  0
  190.4590  174.6590  143.4820 C   0  0  2  0  0  3  0  0  0  0  0  0
  190.4990  173.7730  142.2310 C   0  0  2  0  0  3  0  0  0  0  0  0
  188.8730  175.8220  145.7470 C   0  0  0  0  0  0  0  0  0  0  0  0
  187.1430  176.4510  144.1300 C   0  0  0  0  0  0  0  0  0  0  0  0
  190.6850  173.9400  144.8180 C   0  0  2  0  0  0  0  0  0  0  0  0
  186.3530  176.9430  145.1700 C   0  0  0  0  0  3  0  0  0  0  0  0
  192.4900  172.3820  143.8020 C   0  0  1  0  0  3  0  0  0  0  0  0
  192.1260  173.4030  144.8880 C   0  0  0  0  0  2  0  0  0  0  0  0
  191.9170  173.6660  141.7620 C   0  0  0  0  0  0  0  0  0  0  0  0
  189.3290  174.1450  140.1010 O   0  0  0  0  0  0  0  0  0  0  0  0
  192.8550  173.0290  142.5800 O   0  0  0  0  0  0  0  0  0  0  0  0
  188.0580  176.3040  146.7760 C   0  0  0  0  0  3  0  0  0  0  0  0
  192.2950  174.1860  140.6410 N   0  0  0  0  0  2  0  0  0  0  0  0
  186.6560  176.4400  142.8080 C   0  0  0  0  0  3  0  0  0  0  0  0
  188.6530  175.3040  142.0980 C   0  0  0  0  0  0  0  0  0  0  0  0
  188.4170  175.9020  144.4220 C   0  0  0  0  0  0  0  0  0  0  0  0
  189.1520  175.3560  143.3760 C   0  0  0  0  0  0  0  0  0  0  0  0
  189.5040  174.4300  141.3160 C   0  0  0  0  0  0  0  0  0  0  0  0
  186.8020  176.8720  146.4940 C   0  0  0  0  0  0  0  0  0  0  0  0
  187.4060  175.8430  141.7770 C   0  0  0  0  0  3  0  0  0  0  0  0
  193.6350  171.5570  144.2840 C   0  0  0  0  0  3  0  0  0  0  0  0
  194.1120  171.7540  145.3900 O   0  0  0  0  0  0  0  0  0  0  0  0
  185.9810  177.3690  147.5100 O   0  0  0  0  0  0  0  0  0  0  0  0
  185.0270  178.4010  147.2910 C   0  0  0  0  0  1  0  0  0  0  0  0
  3 19  1  1  0  0  0
  3  7  1  0  0  0  0
  4 20  1  6  0  0  0
  4  3  1  0  0  0  0
  5  2  1  0  0  0  0
  5 14  1  0  0  0  0
  6 18  1  0  0  0  0
  6  8  2  0  0  0  0
  7 10  1  0  0  0  0
  7  1  1  1  0  0  0
  7  2  1  0  0  0  0
  8 21  1  0  0  0  0
  9 23  1  1  0  0  0
  9 10  1  0  0  0  0
 11  4  1  0  0  0  0
 11 13  1  0  0  0  0
 12 20  2  0  0  0  0
 13  9  1  0  0  0  0
 15 11  2  0  0  0  0
 16  6  1  0  0  0  0
 17 19  2  0  0  0  0
 18  5  2  0  0  0  0
 19 18  1  0  0  0  0
 20 17  1  0  0  0  0
 21 14  2  0  0  0  0
 21 25  1  0  0  0  0
 22 17  1  0  0  0  0
 22 16  2  0  0  0  0
 23 24  2  0  0  0  0
 26 25  1  0  0  0  0
M  END
>  <MODEL>
7

>  <REMARK>
 VINA RESULT:      -6.8      3.676      7.433
  Name = 
  2 active torsions:
  status: ('A' for Active; 'I' for Inactive)
    1  A    between atoms: C_6  and  C_11
    2  A    between atoms: O_8  and  C_24
                            x       y       z     vdW  Elec       q    Type
                         _______ _______ _______ _____ _____    ______ ____

>  <TORSDO>
F 2

$$$$
=
 OpenBabel11042417223D

 26 30  0  0  1  0  0  0  0  0999 V2000
  190.1960  176.5690  143.5100 C   0  0  0  0  0  1  0  0  0  0  0  0
  189.0030  174.1630  142.9070 S   0  0  0  0  0  0  0  0  0  0  0  0
  187.7650  176.2410  144.1830 C   0  0  2  0  0  3  0  0  0  0  0  0
  187.6970  177.5020  145.0530 C   0  0  2  0  0  3  0  0  0  0  0  0
  188.2530  175.0100  141.4910 C   0  0  0  0  0  0  0  0  0  0  0  0
  186.7810  176.7090  140.5170 C   0  0  0  0  0  0  0  0  0  0  0  0
  189.1510  175.5960  144.0490 C   0  0  2  0  0  0  0  0  0  0  0  0
  187.0400  176.1990  139.2430 C   0  0  0  0  0  3  0  0  0  0  0  0
  189.7390  176.0800  146.5250 C   0  0  1  0  0  3  0  0  0  0  0  0
  189.6030  175.0360  145.4080 C   0  0  0  0  0  2  0  0  0  0  0  0
  187.4780  177.0940  146.4760 C   0  0  0  0  0  0  0  0  0  0  0  0
  186.1080  179.3680  144.8530 O   0  0  0  0  0  0  0  0  0  0  0  0
  188.4740  176.3630  147.1300 O   0  0  0  0  0  0  0  0  0  0  0  0
  188.5120  174.5260  140.2050 C   0  0  0  0  0  3  0  0  0  0  0  0
  186.3760  177.3670  147.0920 N   0  0  0  0  0  2  0  0  0  0  0  0
  185.9840  177.8600  140.6760 C   0  0  0  0  0  3  0  0  0  0  0  0
  186.4240  177.8190  143.0390 C   0  0  0  0  0  0  0  0  0  0  0  0
  187.3810  176.0990  141.6470 C   0  0  0  0  0  0  0  0  0  0  0  0
  187.1620  176.6700  142.8940 C   0  0  0  0  0  0  0  0  0  0  0  0
  186.6260  178.3190  144.3840 C   0  0  0  0  0  0  0  0  0  0  0  0
  187.9030  175.1100  139.0790 C   0  0  0  0  0  0  0  0  0  0  0  0
  185.8150  178.4390  141.9470 C   0  0  0  0  0  3  0  0  0  0  0  0
  190.6740  175.5550  147.5610 C   0  0  0  0  0  3  0  0  0  0  0  0
  191.7650  175.1120  147.2370 O   0  0  0  0  0  0  0  0  0  0  0  0
  188.1420  174.6300  137.7880 O   0  0  0  0  0  0  0  0  0  0  0  0
  188.7790  173.3830  137.5380 C   0  0  0  0  0  1  0  0  0  0  0  0
  2  7  1  0  0  0  0
  3 19  1  6  0  0  0
  3  4  1  0  0  0  0
  4 20  1  6  0  0  0
  4 11  1  0  0  0  0
  5 18  1  0  0  0  0
  5  2  1  0  0  0  0
  6 16  2  0  0  0  0
  6 18  1  0  0  0  0
  7  1  1  6  0  0  0
  7  3  1  0  0  0  0
  7 10  1  0  0  0  0
  8  6  1  0  0  0  0
  9 13  1  0  0  0  0
  9 23  1  1  0  0  0
 10  9  1  0  0  0  0
 11 15  2  0  0  0  0
 11 13  1  0  0  0  0
 14  5  2  0  0  0  0
 16 22  1  0  0  0  0
 17 20  1  0  0  0  0
 18 19  2  0  0  0  0
 19 17  1  0  0  0  0
 20 12  2  0  0  0  0
 21  8  2  0  0  0  0
 21 14  1  0  0  0  0
 22 17  2  0  0  0  0
 24 23  2  0  0  0  0
 25 21  1  0  0  0  0
 26 25  1  0  0  0  0
M  END
>  <MODEL>
8

>  <REMARK>
 VINA RESULT:      -6.7      2.751      5.900
  Name = 
  2 active torsions:
  status: ('A' for Active; 'I' for Inactive)
    1  A    between atoms: C_6  and  C_11
    2  A    between atoms: O_8  and  C_24
                            x       y       z     vdW  Elec       q    Type
                         _______ _______ _______ _____ _____    ______ ____

>  <TORSDO>
F 2

$$$$
=
 OpenBabel11042417223D

 26 30  0  0  1  0  0  0  0  0999 V2000
  189.4850  177.8620  146.8210 C   0  0  0  0  0  1  0  0  0  0  0  0
  189.9560  175.1590  147.0380 S   0  0  0  0  0  0  0  0  0  0  0  0
  188.9240  176.3890  144.8240 C   0  0  2  0  0  3  0  0  0  0  0  0
  188.1640  177.4820  144.0630 C   0  0  2  0  0  3  0  0  0  0  0  0
  191.4760  175.4550  146.0950 C   0  0  0  0  0  0  0  0  0  0  0  0
  192.6640  176.1450  144.0670 C   0  0  0  0  0  0  0  0  0  0  0  0
  188.9280  176.5200  146.3530 C   0  0  2  0  0  0  0  0  0  0  0  0
  193.8760  175.7790  144.6550 C   0  0  0  0  0  3  0  0  0  0  0  0
  186.4700  177.3370  146.4030 C   0  0  1  0  0  3  0  0  0  0  0  0
  187.5050  176.3200  146.9020 C   0  0  0  0  0  2  0  0  0  0  0  0
  186.7260  177.0800  143.9520 C   0  0  0  0  0  0  0  0  0  0  0  0
  188.6010  178.2910  141.7830 O   0  0  0  0  0  0  0  0  0  0  0  0
  185.9610  176.9740  145.1160 O   0  0  0  0  0  0  0  0  0  0  0  0
  192.7020  175.1110  146.6720 C   0  0  0  0  0  3  0  0  0  0  0  0
  186.1960  176.7910  142.8090 N   0  0  0  0  0  2  0  0  0  0  0  0
  192.6430  176.7470  142.7930 C   0  0  0  0  0  3  0  0  0  0  0  0
  190.2630  177.0330  142.9850 C   0  0  0  0  0  0  0  0  0  0  0  0
  191.4570  175.9660  144.7870 C   0  0  0  0  0  0  0  0  0  0  0  0
  190.2740  176.4040  144.2050 C   0  0  0  0  0  0  0  0  0  0  0  0
  188.9540  177.6240  142.7920 C   0  0  0  0  0  0  0  0  0  0  0  0
  193.9040  175.2630  145.9560 C   0  0  0  0  0  0  0  0  0  0  0  0
  191.4340  177.2170  142.2470 C   0  0  0  0  0  3  0  0  0  0  0  0
  185.3450  177.3960  147.3800 C   0  0  0  0  0  3  0  0  0  0  0  0
  184.8110  178.4620  147.6390 O   0  0  0  0  0  0  0  0  0  0  0  0
  195.1360  174.9130  146.5140 O   0  0  0  0  0  0  0  0  0  0  0  0
  196.1520  174.2450  145.7770 C   0  0  0  0  0  1  0  0  0  0  0  0
  3 19  1  6  0  0  0
  3  7  1  0  0  0  0
  4 20  1  6  0  0  0
  4  3  1  0  0  0  0
  5 14  1  0  0  0  0
  5  2  1  0  0  0  0
  6  8  2  0  0  0  0
  6 18  1  0  0  0  0
  7  1  1  1  0  0  0
  7 10  1  0  0  0  0
  7  2  1  0  0  0  0
  8 21  1  0  0  0  0
  9 10  1  0  0  0  0
  9 23  1  1  0  0  0
 11  4  1  0  0  0  0
 11 13  1  0  0  0  0
 12 20  2  0  0  0  0
 13  9  1  0  0  0  0
 15 11  2  0  0  0  0
 16  6  1  0  0  0  0
 17 19  2  0  0  0  0
 18  5  2  0  0  0  0
 19 18  1  0  0  0  0
 20 17  1  0  0  0  0
 21 25  1  0  0  0  0
 21 14  2  0  0  0  0
 22 16  2  0  0  0  0
 22 17  1  0  0  0  0
 23 24  2  0  0  0  0
 26 25  1  0  0  0  0
M  END
>  <MODEL>
9

>  <REMARK>
 VINA RESULT:      -6.7      2.600      4.509
  Name = 
  2 active torsions:
  status: ('A' for Active; 'I' for Inactive)
    1  A    between atoms: C_6  and  C_11
    2  A    between atoms: O_8  and  C_24
                            x       y       z     vdW  Elec       q    Type
                         _______ _______ _______ _____ _____    ______ ____

>  <TORSDO>
F 2

$$$$
