=
 OpenBabel11042416173D

 33 36  0  0  1  0  0  0  0  0999 V2000
  188.3240  176.6800  145.4300 C   0  0  0  0  0  0  0  0  0  0  0  0
  186.7020  177.7560  146.3090 N   0  0  0  0  0  0  0  0  0  0  0  0
  187.4680  177.6940  145.2290 N   0  0  0  0  0  0  0  0  0  0  0  0
  189.6530  174.2520  146.1000 C   0  0  0  0  0  2  0  0  0  0  0  0
  189.3440  176.1800  144.4570 C   0  0  0  0  0  2  0  0  0  0  0  0
  187.0310  176.7980  147.2070 C   0  0  0  0  0  3  0  0  0  0  0  0
  188.0610  176.0810  146.6360 C   0  0  0  0  0  0  0  0  0  0  0  0
  190.3520  175.2650  145.1750 C   0  0  2  0  0  3  0  0  0  0  0  0
  188.8670  174.9620  147.2130 C   0  0  0  0  0  2  0  0  0  0  0  0
  191.2130  172.3750  139.7610 C   0  0  0  0  0  0  0  0  0  0  0  0
  192.8170  173.1970  142.2520 C   0  0  0  0  0  2  0  0  0  0  0  0
  188.9650  172.3650  138.6450 C   0  0  0  0  0  1  0  0  0  0  0  0
  191.1870  174.5730  144.2020 N   0  0  0  0  0  0  0  0  0  0  0  0
  190.9240  171.3220  137.5000 C   0  0  0  0  0  1  0  0  0  0  0  0
  193.4580  174.7920  145.8120 S   0  0  0  0  0  0  0  0  0  0  0  0
  194.8970  174.1350  145.2200 C   0  0  0  0  0  0  0  0  0  0  0  0
  196.1960  174.1610  145.9400 C   0  0  0  0  0  1  0  0  0  0  0  0
  190.6380  174.1120  142.9890 N   0  0  0  0  0  0  0  0  0  0  0  0
  190.6490  173.0690  140.8840 N   0  0  0  0  0  2  0  0  0  0  0  0
  192.5700  174.3480  144.4570 C   0  0  0  0  0  0  0  0  0  0  0  0
  190.3770  172.0260  138.6490 N   0  0  0  0  0  0  0  0  0  0  0  0
  191.3310  173.4850  142.0750 C   0  0  0  0  0  0  0  0  0  0  0  0
  193.3680  173.6970  143.5500 C   0  0  0  0  0  0  0  0  0  0  0  0
  192.4360  172.0690  139.7440 O   0  0  0  0  0  0  0  0  0  0  0  0
  194.6970  173.5650  143.9650 C   0  0  0  0  0  3  0  0  0  0  0  0
  185.7090  178.7000  146.4630 O   0  0  0  0  0  0  0  0  0  0  0  0
  184.3800  178.4690  146.0110 C   0  0  0  0  0  2  0  0  0  0  0  0
  184.2030  179.0450  144.6200 C   0  0  0  0  0  2  0  0  0  0  0  0
  184.3820  178.0430  143.6660 O   0  0  0  0  0  0  0  0  0  0  0  0
  185.0980  178.6600  142.6390 C   0  0  0  0  0  2  0  0  0  0  0  0
  184.6210  178.1450  141.2940 C   0  0  0  0  0  2  0  0  0  0  0  0
  185.8000  177.9260  140.3670 C   0  0  0  0  0  2  0  0  0  0  0  0
  187.2770  177.5480  141.3480 S   0  0  0  0  0  1  0  0  0  0  0  0
  1  7  1  0  0  0  0
  2 26  1  0  0  0  0
  2  6  1  0  0  0  0
  3  1  2  0  0  0  0
  3  2  1  0  0  0  0
  4  9  1  0  0  0  0
  5  8  1  0  0  0  0
  5  1  1  0  0  0  0
  7  6  2  0  0  0  0
  7  9  1  0  0  0  0
  8 13  1  6  0  0  0
  8  4  1  0  0  0  0
 10 19  1  0  0  0  0
 11 23  1  0  0  0  0
 12 21  1  0  0  0  0
 13 20  1  0  0  0  0
 14 21  1  0  0  0  0
 16 15  1  0  0  0  0
 16 17  1  0  0  0  0
 18 13  1  0  0  0  0
 19 22  1  0  0  0  0
 20 15  1  0  0  0  0
 21 10  1  0  0  0  0
 22 11  1  0  0  0  0
 22 18  2  0  0  0  0
 23 25  1  0  0  0  0
 23 20  2  0  0  0  0
 24 10  2  0  0  0  0
 25 16  2  0  0  0  0
 27 26  1  0  0  0  0
 28 27  1  0  0  0  0
 29 28  1  0  0  0  0
 30 29  1  0  0  0  0
 31 30  1  0  0  0  0
 32 31  1  0  0  0  0
 32 33  1  0  0  0  0
M  END
>  <MODEL>
1

>  <REMARK>
 VINA RESULT:      -6.9      0.000      0.000
  Name = 
  8 active torsions:
  status: ('A' for Active; 'I' for Inactive)
    1  A    between atoms: C_3  and  C_6
    2  A    between atoms: C_3  and  O_23
    3  A    between atoms: N_5  and  C_26
    4  A    between atoms: C_6  and  O_8
    5  A    between atoms: O_8  and  C_15
    6  A    between atoms: N_9  and  O_23
    7  A    between atoms: C_12  and  C_30
    8  A    between atoms: C_15  and  C_30
                            x       y       z     vdW  Elec       q    Type
                         _______ _______ _______ _____ _____    ______ ____

>  <TORSDO>
F 8

$$$$
=
 OpenBabel11042416173D

 33 36  0  0  1  0  0  0  0  0999 V2000
  186.1370  177.2720  142.7390 C   0  0  0  0  0  0  0  0  0  0  0  0
  184.4290  178.0810  141.7450 N   0  0  0  0  0  0  0  0  0  0  0  0
  185.6080  177.5130  141.5290 N   0  0  0  0  0  0  0  0  0  0  0  0
  186.6890  176.6050  145.4520 C   0  0  0  0  0  2  0  0  0  0  0  0
  187.4340  176.5790  143.0120 C   0  0  0  0  0  2  0  0  0  0  0  0
  184.1720  178.2050  143.0680 C   0  0  0  0  0  3  0  0  0  0  0  0
  185.2590  177.6610  143.7190 C   0  0  0  0  0  0  0  0  0  0  0  0
  187.8590  176.8120  144.4720 C   0  0  2  0  0  3  0  0  0  0  0  0
  185.5530  177.6030  145.1830 C   0  0  0  0  0  2  0  0  0  0  0  0
  191.4300  171.8370  143.5190 C   0  0  0  0  0  0  0  0  0  0  0  0
  191.1760  174.1900  145.4820 C   0  0  0  0  0  2  0  0  0  0  0  0
  190.4740  170.7100  141.4900 C   0  0  0  0  0  1  0  0  0  0  0  0
  188.9730  175.9400  144.8190 N   0  0  0  0  0  0  0  0  0  0  0  0
  192.4680  169.7310  142.6310 C   0  0  0  0  0  1  0  0  0  0  0  0
  189.6670  177.5010  147.0280 S   0  0  0  0  0  0  0  0  0  0  0  0
  190.9920  177.0000  147.9480 C   0  0  0  0  0  0  0  0  0  0  0  0
  191.5000  177.7080  149.1520 C   0  0  0  0  0  1  0  0  0  0  0  0
  189.2570  174.8000  144.0410 N   0  0  0  0  0  0  0  0  0  0  0  0
  190.4210  172.8540  143.4250 N   0  0  0  0  0  2  0  0  0  0  0  0
  189.7940  176.2200  145.9490 C   0  0  0  0  0  0  0  0  0  0  0  0
  191.4570  170.7730  142.5580 N   0  0  0  0  0  0  0  0  0  0  0  0
  190.2410  173.9780  144.2980 C   0  0  0  0  0  0  0  0  0  0  0  0
  190.8470  175.4070  146.2870 C   0  0  0  0  0  0  0  0  0  0  0  0
  192.2910  171.8710  144.4390 O   0  0  0  0  0  0  0  0  0  0  0  0
  191.5420  175.8340  147.4230 C   0  0  0  0  0  3  0  0  0  0  0  0
  183.6000  178.4870  140.7190 O   0  0  0  0  0  0  0  0  0  0  0  0
  182.2750  177.9890  140.5880 C   0  0  0  0  0  2  0  0  0  0  0  0
  181.2800  179.1150  140.7980 C   0  0  0  0  0  2  0  0  0  0  0  0
  180.6680  178.9780  142.0440 O   0  0  0  0  0  0  0  0  0  0  0  0
  179.3040  178.9070  141.7590 C   0  0  0  0  0  2  0  0  0  0  0  0
  178.7990  177.4960  141.9940 C   0  0  0  0  0  2  0  0  0  0  0  0
  177.9960  177.0200  140.7990 C   0  0  0  0  0  2  0  0  0  0  0  0
  177.6920  178.4140  139.6800 S   0  0  0  0  0  1  0  0  0  0  0  0
  1  5  1  0  0  0  0
  1  7  1  0  0  0  0
  2  6  1  0  0  0  0
  3  2  1  0  0  0  0
  3  1  2  0  0  0  0
  6  7  2  0  0  0  0
  7  9  1  0  0  0  0
  8  5  1  6  0  0  0
  8 13  1  0  0  0  0
  8  4  1  0  0  0  0
  9  4  1  0  0  0  0
 10 24  2  0  0  0  0
 11 23  1  0  0  0  0
 12 21  1  0  0  0  0
 13 20  1  0  0  0  0
 15 16  1  0  0  0  0
 16 17  1  0  0  0  0
 18 22  2  0  0  0  0
 18 13  1  0  0  0  0
 19 10  1  0  0  0  0
 19 22  1  0  0  0  0
 20 23  2  0  0  0  0
 20 15  1  0  0  0  0
 21 14  1  0  0  0  0
 21 10  1  0  0  0  0
 22 11  1  0  0  0  0
 23 25  1  0  0  0  0
 25 16  2  0  0  0  0
 26  2  1  0  0  0  0
 27 26  1  0  0  0  0
 27 28  1  0  0  0  0
 28 29  1  0  0  0  0
 30 31  1  0  0  0  0
 30 29  1  0  0  0  0
 32 31  1  0  0  0  0
 33 32  1  0  0  0  0
M  END
>  <MODEL>
2

>  <REMARK>
 VINA RESULT:      -6.8      3.642      4.877
  Name = 
  8 active torsions:
  status: ('A' for Active; 'I' for Inactive)
    1  A    between atoms: C_3  and  C_6
    2  A    between atoms: C_3  and  O_23
    3  A    between atoms: N_5  and  C_26
    4  A    between atoms: C_6  and  O_8
    5  A    between atoms: O_8  and  C_15
    6  A    between atoms: N_9  and  O_23
    7  A    between atoms: C_12  and  C_30
    8  A    between atoms: C_15  and  C_30
                            x       y       z     vdW  Elec       q    Type
                         _______ _______ _______ _____ _____    ______ ____

>  <TORSDO>
F 8

$$$$
=
 OpenBabel11042416173D

 33 36  0  0  1  0  0  0  0  0999 V2000
  187.2100  176.5480  143.1420 C   0  0  0  0  0  0  0  0  0  0  0  0
  185.5170  177.7410  143.6650 N   0  0  0  0  0  0  0  0  0  0  0  0
  185.9740  176.4960  143.6640 N   0  0  0  0  0  0  0  0  0  0  0  0
  189.8760  177.1710  142.3610 C   0  0  0  0  0  2  0  0  0  0  0  0
  188.1550  175.3980  142.9970 C   0  0  0  0  0  2  0  0  0  0  0  0
  186.4310  178.6060  143.1640 C   0  0  0  0  0  3  0  0  0  0  0  0
  187.5380  177.8470  142.8490 C   0  0  0  0  0  0  0  0  0  0  0  0
  189.3030  175.7770  142.0460 C   0  0  2  0  0  3  0  0  0  0  0  0
  188.8120  178.2650  142.1880 C   0  0  0  0  0  2  0  0  0  0  0  0
  194.5390  173.4400  144.3960 C   0  0  0  0  0  0  0  0  0  0  0  0
  192.4580  172.7920  142.2270 C   0  0  0  0  0  2  0  0  0  0  0  0
  195.2460  175.0530  146.1840 C   0  0  0  0  0  1  0  0  0  0  0  0
  190.3560  174.7710  142.0980 N   0  0  0  0  0  0  0  0  0  0  0  0
  196.6280  173.0240  145.7250 C   0  0  0  0  0  1  0  0  0  0  0  0
  189.2120  173.2890  140.0260 S   0  0  0  0  0  0  0  0  0  0  0  0
  190.0050  171.8750  139.5530 C   0  0  0  0  0  0  0  0  0  0  0  0
  189.5390  170.9670  138.4720 C   0  0  0  0  0  1  0  0  0  0  0  0
  191.4090  174.8870  143.0280 N   0  0  0  0  0  0  0  0  0  0  0  0
  193.3930  174.2570  144.1160 N   0  0  0  0  0  2  0  0  0  0  0  0
  190.3420  173.6540  141.2140 C   0  0  0  0  0  0  0  0  0  0  0  0
  195.4600  173.8340  145.4230 N   0  0  0  0  0  0  0  0  0  0  0  0
  192.3820  174.0200  143.1260 C   0  0  0  0  0  0  0  0  0  0  0  0
  191.3270  172.7000  141.2530 C   0  0  0  0  0  0  0  0  0  0  0  0
  194.7450  172.3780  143.7460 O   0  0  0  0  0  0  0  0  0  0  0  0
  191.1540  171.6770  140.3150 C   0  0  0  0  0  3  0  0  0  0  0  0
  184.2570  178.0700  144.1200 O   0  0  0  0  0  0  0  0  0  0  0  0
  184.0670  178.8690  145.2810 C   0  0  0  0  0  2  0  0  0  0  0  0
  184.4710  178.0850  146.5150 C   0  0  0  0  0  2  0  0  0  0  0  0
  185.3710  178.8320  147.2760 O   0  0  0  0  0  0  0  0  0  0  0  0
  186.6100  178.2340  147.0400 C   0  0  0  0  0  2  0  0  0  0  0  0
  186.4760  176.7230  147.1050 C   0  0  0  0  0  2  0  0  0  0  0  0
  187.8210  176.0660  146.8670 C   0  0  0  0  0  2  0  0  0  0  0  0
  189.0280  177.3230  146.3670 S   0  0  0  0  0  1  0  0  0  0  0  0
  1  3  2  0  0  0  0
  2 26  1  0  0  0  0
  3  2  1  0  0  0  0
  5  1  1  0  0  0  0
  6  2  1  0  0  0  0
  7  1  1  0  0  0  0
  7  6  2  0  0  0  0
  8 13  1  1  0  0  0
  8  4  1  0  0  0  0
  8  5  1  0  0  0  0
  9  4  1  0  0  0  0
  9  7  1  0  0  0  0
 10 21  1  0  0  0  0
 11 22  1  0  0  0  0
 13 18  1  0  0  0  0
 15 20  1  0  0  0  0
 16 15  1  0  0  0  0
 16 25  2  0  0  0  0
 17 16  1  0  0  0  0
 18 22  2  0  0  0  0
 19 10  1  0  0  0  0
 20 23  2  0  0  0  0
 20 13  1  0  0  0  0
 21 14  1  0  0  0  0
 21 12  1  0  0  0  0
 22 19  1  0  0  0  0
 23 11  1  0  0  0  0
 24 10  2  0  0  0  0
 25 23  1  0  0  0  0
 26 27  1  0  0  0  0
 27 28  1  0  0  0  0
 28 29  1  0  0  0  0
 30 31  1  0  0  0  0
 30 29  1  0  0  0  0
 32 31  1  0  0  0  0
 33 32  1  0  0  0  0
M  END
>  <MODEL>
3

>  <REMARK>
 VINA RESULT:      -6.7      2.286      5.355
  Name = 
  8 active torsions:
  status: ('A' for Active; 'I' for Inactive)
    1  A    between atoms: C_3  and  C_6
    2  A    between atoms: C_3  and  O_23
    3  A    between atoms: N_5  and  C_26
    4  A    between atoms: C_6  and  O_8
    5  A    between atoms: O_8  and  C_15
    6  A    between atoms: N_9  and  O_23
    7  A    between atoms: C_12  and  C_30
    8  A    between atoms: C_15  and  C_30
                            x       y       z     vdW  Elec       q    Type
                         _______ _______ _______ _____ _____    ______ ____

>  <TORSDO>
F 8

$$$$
=
 OpenBabel11042416173D

 33 36  0  0  1  0  0  0  0  0999 V2000
  188.7090  176.7010  145.6210 C   0  0  0  0  0  0  0  0  0  0  0  0
  187.2400  177.4090  147.0020 N   0  0  0  0  0  0  0  0  0  0  0  0
  187.8860  177.7270  145.8880 N   0  0  0  0  0  0  0  0  0  0  0  0
  189.9830  174.1840  145.2400 C   0  0  0  0  0  2  0  0  0  0  0  0
  189.5960  176.5700  144.4250 C   0  0  0  0  0  2  0  0  0  0  0  0
  187.6150  176.1910  147.4620 C   0  0  0  0  0  3  0  0  0  0  0  0
  188.5450  175.7160  146.5610 C   0  0  0  0  0  0  0  0  0  0  0  0
  190.6290  175.4530  144.6550 C   0  0  2  0  0  3  0  0  0  0  0  0
  189.3530  174.4590  146.6130 C   0  0  0  0  0  2  0  0  0  0  0  0
  190.7940  173.2250  138.8750 C   0  0  0  0  0  0  0  0  0  0  0  0
  192.6740  174.5190  140.9350 C   0  0  0  0  0  2  0  0  0  0  0  0
  188.4660  172.4110  138.4070 C   0  0  0  0  0  1  0  0  0  0  0  0
  191.3240  175.1440  143.4120 N   0  0  0  0  0  0  0  0  0  0  0  0
  190.2310  172.1970  136.6540 C   0  0  0  0  0  1  0  0  0  0  0  0
  193.7460  176.1480  144.3740 S   0  0  0  0  0  0  0  0  0  0  0  0
  195.0790  176.0850  143.3380 C   0  0  0  0  0  0  0  0  0  0  0  0
  196.4400  176.5730  143.6830 C   0  0  0  0  0  1  0  0  0  0  0  0
  190.6350  174.5440  142.3390 N   0  0  0  0  0  0  0  0  0  0  0  0
  190.3840  173.6320  140.1890 N   0  0  0  0  0  2  0  0  0  0  0  0
  192.7090  175.4410  143.2580 C   0  0  0  0  0  0  0  0  0  0  0  0
  189.8420  172.6190  137.9890 N   0  0  0  0  0  0  0  0  0  0  0  0
  191.2000  174.2410  141.2000 C   0  0  0  0  0  0  0  0  0  0  0  0
  193.3750  175.1550  142.0930 C   0  0  0  0  0  0  0  0  0  0  0  0
  191.9840  173.3940  138.4920 O   0  0  0  0  0  0  0  0  0  0  0  0
  194.7270  175.5140  142.1180 C   0  0  0  0  0  3  0  0  0  0  0  0
  186.3140  178.2440  147.5900 O   0  0  0  0  0  0  0  0  0  0  0  0
  185.4140  179.0270  146.8150 C   0  0  0  0  0  2  0  0  0  0  0  0
  184.3300  178.1380  146.2350 C   0  0  0  0  0  2  0  0  0  0  0  0
  184.4980  178.0290  144.8540 O   0  0  0  0  0  0  0  0  0  0  0  0
  184.8780  179.3070  144.4450 C   0  0  0  0  0  2  0  0  0  0  0  0
  185.7180  179.2180  143.1840 C   0  0  0  0  0  2  0  0  0  0  0  0
  184.9890  178.4170  142.1230 C   0  0  0  0  0  2  0  0  0  0  0  0
  186.1910  177.7210  140.9580 S   0  0  0  0  0  1  0  0  0  0  0  0
  1  3  2  0  0  0  0
  1  7  1  0  0  0  0
  2  6  1  0  0  0  0
  2 26  1  0  0  0  0
  3  2  1  0  0  0  0
  4  9  1  0  0  0  0
  5  8  1  0  0  0  0
  5  1  1  0  0  0  0
  7  9  1  0  0  0  0
  7  6  2  0  0  0  0
  8 13  1  6  0  0  0
  8  4  1  0  0  0  0
 10 19  1  0  0  0  0
 11 22  1  0  0  0  0
 11 23  1  0  0  0  0
 14 21  1  0  0  0  0
 16 17  1  0  0  0  0
 16 15  1  0  0  0  0
 18 13  1  0  0  0  0
 19 22  1  0  0  0  0
 20 13  1  0  0  0  0
 20 15  1  0  0  0  0
 21 12  1  0  0  0  0
 21 10  1  0  0  0  0
 22 18  2  0  0  0  0
 23 25  1  0  0  0  0
 23 20  2  0  0  0  0
 24 10  2  0  0  0  0
 25 16  2  0  0  0  0
 27 26  1  0  0  0  0
 28 27  1  0  0  0  0
 29 28  1  0  0  0  0
 30 29  1  0  0  0  0
 31 30  1  0  0  0  0
 32 31  1  0  0  0  0
 33 32  1  0  0  0  0
M  END
>  <MODEL>
4

>  <REMARK>
 VINA RESULT:      -6.6      1.420      1.569
  Name = 
  8 active torsions:
  status: ('A' for Active; 'I' for Inactive)
    1  A    between atoms: C_3  and  C_6
    2  A    between atoms: C_3  and  O_23
    3  A    between atoms: N_5  and  C_26
    4  A    between atoms: C_6  and  O_8
    5  A    between atoms: O_8  and  C_15
    6  A    between atoms: N_9  and  O_23
    7  A    between atoms: C_12  and  C_30
    8  A    between atoms: C_15  and  C_30
                            x       y       z     vdW  Elec       q    Type
                         _______ _______ _______ _____ _____    ______ ____

>  <TORSDO>
F 8

$$$$
=
 OpenBabel11042416173D

 33 36  0  0  1  0  0  0  0  0999 V2000
  188.1420  177.2120  142.7960 C   0  0  0  0  0  0  0  0  0  0  0  0
  186.1880  178.0660  142.9130 N   0  0  0  0  0  0  0  0  0  0  0  0
  187.4780  178.3630  142.9860 N   0  0  0  0  0  0  0  0  0  0  0  0
  189.1180  174.6660  141.9770 C   0  0  0  0  0  2  0  0  0  0  0  0
  189.6270  177.0510  142.7250 C   0  0  0  0  0  2  0  0  0  0  0  0
  185.9940  176.7480  142.6700 C   0  0  0  0  0  3  0  0  0  0  0  0
  187.2520  176.1930  142.5670 C   0  0  0  0  0  0  0  0  0  0  0  0
  190.0030  175.5650  142.8590 C   0  0  2  0  0  3  0  0  0  0  0  0
  187.6410  174.7610  142.3870 C   0  0  0  0  0  2  0  0  0  0  0  0
  194.5490  173.6370  139.1150 C   0  0  0  0  0  0  0  0  0  0  0  0
  194.1910  174.9670  141.8640 C   0  0  0  0  0  2  0  0  0  0  0  0
  193.3940  172.6770  137.1040 C   0  0  0  0  0  1  0  0  0  0  0  0
  191.4100  175.3690  142.5360 N   0  0  0  0  0  0  0  0  0  0  0  0
  195.8880  172.6800  137.2200 C   0  0  0  0  0  1  0  0  0  0  0  0
  192.2490  176.5020  144.9460 S   0  0  0  0  0  0  0  0  0  0  0  0
  193.9120  176.5890  145.2260 C   0  0  0  0  0  0  0  0  0  0  0  0
  194.5340  177.1600  146.4500 C   0  0  0  0  0  1  0  0  0  0  0  0
  191.7850  174.7720  141.3160 N   0  0  0  0  0  0  0  0  0  0  0  0
  193.2730  173.9490  139.6940 N   0  0  0  0  0  2  0  0  0  0  0  0
  192.4300  175.7750  143.4430 C   0  0  0  0  0  0  0  0  0  0  0  0
  194.6090  173.0070  137.8280 N   0  0  0  0  0  0  0  0  0  0  0  0
  193.0280  174.5680  140.9650 C   0  0  0  0  0  0  0  0  0  0  0  0
  193.7590  175.5970  143.1500 C   0  0  0  0  0  0  0  0  0  0  0  0
  195.6160  173.9130  139.7270 O   0  0  0  0  0  0  0  0  0  0  0  0
  194.6200  176.0530  144.1530 C   0  0  0  0  0  3  0  0  0  0  0  0
  185.1960  179.0110  143.0790 O   0  0  0  0  0  0  0  0  0  0  0  0
  184.9450  179.6190  144.3400 C   0  0  0  0  0  2  0  0  0  0  0  0
  184.1790  178.6580  145.2290 C   0  0  0  0  0  2  0  0  0  0  0  0
  184.4610  178.9270  146.5690 O   0  0  0  0  0  0  0  0  0  0  0  0
  185.8340  178.7060  146.6890 C   0  0  0  0  0  2  0  0  0  0  0  0
  186.0880  177.3150  147.2380 C   0  0  0  0  0  2  0  0  0  0  0  0
  187.0170  176.5480  146.3170 C   0  0  0  0  0  2  0  0  0  0  0  0
  188.7070  177.1760  146.5040 S   0  0  0  0  0  1  0  0  0  0  0  0
  1  3  2  0  0  0  0
  2  3  1  0  0  0  0
  2 26  1  0  0  0  0
  4  9  1  0  0  0  0
  5  1  1  0  0  0  0
  5  8  1  0  0  0  0
  6  2  1  0  0  0  0
  7  6  2  0  0  0  0
  7  1  1  0  0  0  0
  8  4  1  6  0  0  0
  9  7  1  0  0  0  0
 10 19  1  0  0  0  0
 10 24  2  0  0  0  0
 11 23  1  0  0  0  0
 12 21  1  0  0  0  0
 13  8  1  0  0  0  0
 13 20  1  0  0  0  0
 14 21  1  0  0  0  0
 15 16  1  0  0  0  0
 16 17  1  0  0  0  0
 18 13  1  0  0  0  0
 19 22  1  0  0  0  0
 20 15  1  0  0  0  0
 21 10  1  0  0  0  0
 22 18  2  0  0  0  0
 22 11  1  0  0  0  0
 23 20  2  0  0  0  0
 23 25  1  0  0  0  0
 25 16  2  0  0  0  0
 26 27  1  0  0  0  0
 27 28  1  0  0  0  0
 28 29  1  0  0  0  0
 29 30  1  0  0  0  0
 30 31  1  0  0  0  0
 32 33  1  0  0  0  0
 32 31  1  0  0  0  0
M  END
>  <MODEL>
5

>  <REMARK>
 VINA RESULT:      -6.3      2.649      3.583
  Name = 
  8 active torsions:
  status: ('A' for Active; 'I' for Inactive)
    1  A    between atoms: C_3  and  C_6
    2  A    between atoms: C_3  and  O_23
    3  A    between atoms: N_5  and  C_26
    4  A    between atoms: C_6  and  O_8
    5  A    between atoms: O_8  and  C_15
    6  A    between atoms: N_9  and  O_23
    7  A    between atoms: C_12  and  C_30
    8  A    between atoms: C_15  and  C_30
                            x       y       z     vdW  Elec       q    Type
                         _______ _______ _______ _____ _____    ______ ____

>  <TORSDO>
F 8

$$$$
=
 OpenBabel11042416173D

 33 36  0  0  1  0  0  0  0  0999 V2000
  188.5750  176.1160  145.3170 C   0  0  0  0  0  0  0  0  0  0  0  0
  187.1800  177.2140  146.5040 N   0  0  0  0  0  0  0  0  0  0  0  0
  187.4520  176.0010  146.0430 N   0  0  0  0  0  0  0  0  0  0  0  0
  191.1290  176.7380  144.2230 C   0  0  0  0  0  2  0  0  0  0  0  0
  189.3110  174.9990  144.6480 C   0  0  0  0  0  2  0  0  0  0  0  0
  188.1060  178.1170  146.1050 C   0  0  0  0  0  3  0  0  0  0  0  0
  189.0260  177.4110  145.3590 C   0  0  0  0  0  0  0  0  0  0  0  0
  190.3210  175.5660  143.6360 C   0  0  2  0  0  3  0  0  0  0  0  0
  190.2150  177.9120  144.6030 C   0  0  0  0  0  2  0  0  0  0  0  0
  195.5580  172.2720  143.9920 C   0  0  0  0  0  0  0  0  0  0  0  0
  193.0120  172.4350  142.2750 C   0  0  0  0  0  2  0  0  0  0  0  0
  196.8250  173.2410  145.9290 C   0  0  0  0  0  1  0  0  0  0  0  0
  191.2160  174.5140  143.1720 N   0  0  0  0  0  0  0  0  0  0  0  0
  197.7970  171.3370  144.6380 C   0  0  0  0  0  1  0  0  0  0  0  0
  189.4850  173.7850  141.1050 S   0  0  0  0  0  0  0  0  0  0  0  0
  189.9660  172.5140  140.1010 C   0  0  0  0  0  0  0  0  0  0  0  0
  189.1720  171.9960  138.9570 C   0  0  0  0  0  1  0  0  0  0  0  0
  192.4410  174.2780  143.8270 N   0  0  0  0  0  0  0  0  0  0  0  0
  194.5010  173.2170  144.2150 N   0  0  0  0  0  2  0  0  0  0  0  0
  190.8720  173.7060  142.0500 C   0  0  0  0  0  0  0  0  0  0  0  0
  196.7120  172.2830  144.8430 N   0  0  0  0  0  0  0  0  0  0  0  0
  193.2880  173.3510  143.4610 C   0  0  0  0  0  0  0  0  0  0  0  0
  191.7050  172.7120  141.6030 C   0  0  0  0  0  0  0  0  0  0  0  0
  195.4820  171.4330  143.0530 O   0  0  0  0  0  0  0  0  0  0  0  0
  191.2080  172.0210  140.4930 C   0  0  0  0  0  3  0  0  0  0  0  0
  186.0750  177.4820  147.2850 O   0  0  0  0  0  0  0  0  0  0  0  0
  184.7540  177.4030  146.7650 C   0  0  0  0  0  2  0  0  0  0  0  0
  184.4260  178.6720  146.0010 C   0  0  0  0  0  2  0  0  0  0  0  0
  184.5510  178.4440  144.6300 O   0  0  0  0  0  0  0  0  0  0  0  0
  185.3170  179.5140  144.1660 C   0  0  0  0  0  2  0  0  0  0  0  0
  186.2580  179.0410  143.0720 C   0  0  0  0  0  2  0  0  0  0  0  0
  185.7650  177.7330  142.4860 C   0  0  0  0  0  2  0  0  0  0  0  0
  185.5520  177.9150  140.6950 S   0  0  0  0  0  1  0  0  0  0  0  0
  1  7  1  0  0  0  0
  1  3  2  0  0  0  0
  2 26  1  0  0  0  0
  3  2  1  0  0  0  0
  4  9  1  0  0  0  0
  5  1  1  0  0  0  0
  6  2  1  0  0  0  0
  7  6  2  0  0  0  0
  8 13  1  1  0  0  0
  8  4  1  0  0  0  0
  8  5  1  0  0  0  0
  9  7  1  0  0  0  0
 10 19  1  0  0  0  0
 10 21  1  0  0  0  0
 11 22  1  0  0  0  0
 13 18  1  0  0  0  0
 14 21  1  0  0  0  0
 15 20  1  0  0  0  0
 16 25  2  0  0  0  0
 16 15  1  0  0  0  0
 17 16  1  0  0  0  0
 20 13  1  0  0  0  0
 21 12  1  0  0  0  0
 22 18  2  0  0  0  0
 22 19  1  0  0  0  0
 23 20  2  0  0  0  0
 23 11  1  0  0  0  0
 24 10  2  0  0  0  0
 25 23  1  0  0  0  0
 27 26  1  0  0  0  0
 28 27  1  0  0  0  0
 29 28  1  0  0  0  0
 30 29  1  0  0  0  0
 31 30  1  0  0  0  0
 32 31  1  0  0  0  0
 33 32  1  0  0  0  0
M  END
>  <MODEL>
6

>  <REMARK>
 VINA RESULT:      -6.1      2.145      4.594
  Name = 
  8 active torsions:
  status: ('A' for Active; 'I' for Inactive)
    1  A    between atoms: C_3  and  C_6
    2  A    between atoms: C_3  and  O_23
    3  A    between atoms: N_5  and  C_26
    4  A    between atoms: C_6  and  O_8
    5  A    between atoms: O_8  and  C_15
    6  A    between atoms: N_9  and  O_23
    7  A    between atoms: C_12  and  C_30
    8  A    between atoms: C_15  and  C_30
                            x       y       z     vdW  Elec       q    Type
                         _______ _______ _______ _____ _____    ______ ____

>  <TORSDO>
F 8

$$$$
=
 OpenBabel11042416173D

 33 36  0  0  1  0  0  0  0  0999 V2000
  186.4460  177.1850  141.5050 C   0  0  0  0  0  0  0  0  0  0  0  0
  184.5360  178.1100  141.2680 N   0  0  0  0  0  0  0  0  0  0  0  0
  185.5780  177.6480  140.5910 N   0  0  0  0  0  0  0  0  0  0  0  0
  187.7850  176.0000  143.7210 C   0  0  0  0  0  2  0  0  0  0  0  0
  187.7480  176.5060  141.2210 C   0  0  0  0  0  2  0  0  0  0  0  0
  184.6980  177.9490  142.6020 C   0  0  0  0  0  3  0  0  0  0  0  0
  185.9190  177.3290  142.7630 C   0  0  0  0  0  0  0  0  0  0  0  0
  188.6040  176.4520  142.4980 C   0  0  2  0  0  3  0  0  0  0  0  0
  186.6450  176.9840  144.0240 C   0  0  0  0  0  2  0  0  0  0  0  0
  191.4090  171.6170  139.8220 C   0  0  0  0  0  0  0  0  0  0  0  0
  192.0060  173.8160  141.8880 C   0  0  0  0  0  2  0  0  0  0  0  0
  189.7000  170.6270  138.2750 C   0  0  0  0  0  1  0  0  0  0  0  0
  189.7500  175.5740  142.3010 N   0  0  0  0  0  0  0  0  0  0  0  0
  191.9690  169.5980  138.4400 C   0  0  0  0  0  1  0  0  0  0  0  0
  191.3000  176.9800  144.1500 S   0  0  0  0  0  0  0  0  0  0  0  0
  192.8760  176.4340  144.4170 C   0  0  0  0  0  0  0  0  0  0  0  0
  193.8370  177.0600  145.3620 C   0  0  0  0  0  1  0  0  0  0  0  0
  189.6780  174.4990  141.3920 N   0  0  0  0  0  0  0  0  0  0  0  0
  190.4640  172.6220  140.2190 N   0  0  0  0  0  2  0  0  0  0  0  0
  190.9620  175.7840  143.0200 C   0  0  0  0  0  0  0  0  0  0  0  0
  191.0310  170.6260  138.8570 N   0  0  0  0  0  0  0  0  0  0  0  0
  190.6690  173.6760  141.1700 C   0  0  0  0  0  0  0  0  0  0  0  0
  192.0480  174.9650  142.8440 C   0  0  0  0  0  0  0  0  0  0  0  0
  192.5700  171.5970  140.3170 O   0  0  0  0  0  0  0  0  0  0  0  0
  193.1490  175.3180  143.6310 C   0  0  0  0  0  3  0  0  0  0  0  0
  183.4430  178.6820  140.6500 O   0  0  0  0  0  0  0  0  0  0  0  0
  182.1800  178.0290  140.6080 C   0  0  0  0  0  2  0  0  0  0  0  0
  181.1940  178.7610  141.4970 C   0  0  0  0  0  2  0  0  0  0  0  0
  180.2630  179.4410  140.7110 O   0  0  0  0  0  0  0  0  0  0  0  0
  179.0450  179.2510  141.3660 C   0  0  0  0  0  2  0  0  0  0  0  0
  178.0400  178.6230  140.4170 C   0  0  0  0  0  2  0  0  0  0  0  0
  177.9060  177.1400  140.7010 C   0  0  0  0  0  2  0  0  0  0  0  0
  177.6920  176.2430  139.1410 S   0  0  0  0  0  1  0  0  0  0  0  0
  1  7  1  0  0  0  0
  2  6  1  0  0  0  0
  3  2  1  0  0  0  0
  3  1  2  0  0  0  0
  4  9  1  0  0  0  0
  5  1  1  0  0  0  0
  6  7  2  0  0  0  0
  7  9  1  0  0  0  0
  8  5  1  6  0  0  0
  8  4  1  0  0  0  0
 10 19  1  0  0  0  0
 10 24  2  0  0  0  0
 11 23  1  0  0  0  0
 12 21  1  0  0  0  0
 13  8  1  0  0  0  0
 13 20  1  0  0  0  0
 14 21  1  0  0  0  0
 15 16  1  0  0  0  0
 16 17  1  0  0  0  0
 18 13  1  0  0  0  0
 19 22  1  0  0  0  0
 20 15  1  0  0  0  0
 21 10  1  0  0  0  0
 22 18  2  0  0  0  0
 22 11  1  0  0  0  0
 23 20  2  0  0  0  0
 23 25  1  0  0  0  0
 25 16  2  0  0  0  0
 26  2  1  0  0  0  0
 27 26  1  0  0  0  0
 27 28  1  0  0  0  0
 29 30  1  0  0  0  0
 29 28  1  0  0  0  0
 31 32  1  0  0  0  0
 31 30  1  0  0  0  0
 33 32  1  0  0  0  0
M  END
>  <MODEL>
7

>  <REMARK>
 VINA RESULT:      -6.0      3.519      4.342
  Name = 
  8 active torsions:
  status: ('A' for Active; 'I' for Inactive)
    1  A    between atoms: C_3  and  C_6
    2  A    between atoms: C_3  and  O_23
    3  A    between atoms: N_5  and  C_26
    4  A    between atoms: C_6  and  O_8
    5  A    between atoms: O_8  and  C_15
    6  A    between atoms: N_9  and  O_23
    7  A    between atoms: C_12  and  C_30
    8  A    between atoms: C_15  and  C_30
                            x       y       z     vdW  Elec       q    Type
                         _______ _______ _______ _____ _____    ______ ____

>  <TORSDO>
F 8

$$$$
=
 OpenBabel11042416173D

 33 36  0  0  1  0  0  0  0  0999 V2000
  193.6780  174.9840  144.1940 C   0  0  0  0  0  0  0  0  0  0  0  0
  195.7520  175.0220  144.7040 N   0  0  0  0  0  0  0  0  0  0  0  0
  194.9160  175.0050  143.6750 N   0  0  0  0  0  0  0  0  0  0  0  0
  191.2860  175.3300  145.6990 C   0  0  0  0  0  2  0  0  0  0  0  0
  192.3980  175.0250  143.4230 C   0  0  0  0  0  2  0  0  0  0  0  0
  195.0870  175.0240  145.8840 C   0  0  0  0  0  3  0  0  0  0  0  0
  193.7460  175.0260  145.5630 C   0  0  0  0  0  0  0  0  0  0  0  0
  191.2220  174.6250  144.3310 C   0  0  2  0  0  3  0  0  0  0  0  0
  192.5590  174.9440  146.4670 C   0  0  0  0  0  2  0  0  0  0  0  0
  185.7880  177.5770  143.9380 C   0  0  0  0  0  0  0  0  0  0  0  0
  187.4330  175.4920  142.3880 C   0  0  0  0  0  2  0  0  0  0  0  0
  185.6820  179.0520  145.9650 C   0  0  0  0  0  1  0  0  0  0  0  0
  189.9550  174.9080  143.6720 N   0  0  0  0  0  0  0  0  0  0  0  0
  183.7880  179.0410  144.3380 C   0  0  0  0  0  1  0  0  0  0  0  0
  190.4900  173.1130  141.6010 S   0  0  0  0  0  0  0  0  0  0  0  0
  189.3210  172.9480  140.3940 C   0  0  0  0  0  0  0  0  0  0  0  0
  189.4390  172.0420  139.2210 C   0  0  0  0  0  1  0  0  0  0  0  0
  189.0530  175.8390  144.2270 N   0  0  0  0  0  0  0  0  0  0  0  0
  187.0770  177.1030  144.3540 N   0  0  0  0  0  2  0  0  0  0  0  0
  189.6010  174.2520  142.4580 C   0  0  0  0  0  0  0  0  0  0  0  0
  185.0950  178.5450  144.7370 N   0  0  0  0  0  0  0  0  0  0  0  0
  187.9010  176.1380  143.6850 C   0  0  0  0  0  0  0  0  0  0  0  0
  188.4110  174.5100  141.8260 C   0  0  0  0  0  0  0  0  0  0  0  0
  185.2590  177.1490  142.8760 O   0  0  0  0  0  0  0  0  0  0  0  0
  188.2310  173.7770  140.6490 C   0  0  0  0  0  3  0  0  0  0  0  0
  197.1230  175.0300  144.5490 O   0  0  0  0  0  0  0  0  0  0  0  0
  197.9270  173.9270  144.9480 C   0  0  0  0  0  2  0  0  0  0  0  0
  197.4680  172.6710  144.2330 C   0  0  0  0  0  2  0  0  0  0  0  0
  196.8640  171.8020  145.1420 O   0  0  0  0  0  0  0  0  0  0  0  0
  195.6310  171.4930  144.5650 C   0  0  0  0  0  2  0  0  0  0  0  0
  194.5890  171.2910  145.6490 C   0  0  0  0  0  2  0  0  0  0  0  0
  194.6110  169.8560  146.1380 C   0  0  0  0  0  2  0  0  0  0  0  0
  194.6600  168.7330  144.7150 S   0  0  0  0  0  1  0  0  0  0  0  0
  1  7  1  0  0  0  0
  2  6  1  0  0  0  0
  3  1  2  0  0  0  0
  3  2  1  0  0  0  0
  4  9  1  0  0  0  0
  5  1  1  0  0  0  0
  7  6  2  0  0  0  0
  7  9  1  0  0  0  0
  8  5  1  6  0  0  0
  8  4  1  0  0  0  0
 10 19  1  0  0  0  0
 10 21  1  0  0  0  0
 11 22  1  0  0  0  0
 13 18  1  0  0  0  0
 13  8  1  0  0  0  0
 14 21  1  0  0  0  0
 15 20  1  0  0  0  0
 16 25  2  0  0  0  0
 16 15  1  0  0  0  0
 17 16  1  0  0  0  0
 20 13  1  0  0  0  0
 21 12  1  0  0  0  0
 22 18  2  0  0  0  0
 22 19  1  0  0  0  0
 23 11  1  0  0  0  0
 23 20  2  0  0  0  0
 24 10  2  0  0  0  0
 25 23  1  0  0  0  0
 26  2  1  0  0  0  0
 26 27  1  0  0  0  0
 28 27  1  0  0  0  0
 28 29  1  0  0  0  0
 30 29  1  0  0  0  0
 30 31  1  0  0  0  0
 31 32  1  0  0  0  0
 33 32  1  0  0  0  0
M  END
>  <MODEL>
8

>  <REMARK>
 VINA RESULT:      -5.9      3.122      8.976
  Name = 
  8 active torsions:
  status: ('A' for Active; 'I' for Inactive)
    1  A    between atoms: C_3  and  C_6
    2  A    between atoms: C_3  and  O_23
    3  A    between atoms: N_5  and  C_26
    4  A    between atoms: C_6  and  O_8
    5  A    between atoms: O_8  and  C_15
    6  A    between atoms: N_9  and  O_23
    7  A    between atoms: C_12  and  C_30
    8  A    between atoms: C_15  and  C_30
                            x       y       z     vdW  Elec       q    Type
                         _______ _______ _______ _____ _____    ______ ____

>  <TORSDO>
F 8

$$$$
=
 OpenBabel11042416173D

 33 36  0  0  1  0  0  0  0  0999 V2000
  184.8340  177.9040  142.1050 C   0  0  0  0  0  0  0  0  0  0  0  0
  183.0040  178.3730  141.1080 N   0  0  0  0  0  0  0  0  0  0  0  0
  183.5420  178.2070  142.3080 N   0  0  0  0  0  0  0  0  0  0  0  0
  187.5360  177.6830  141.2330 C   0  0  0  0  0  2  0  0  0  0  0  0
  185.8680  177.6920  143.1640 C   0  0  0  0  0  2  0  0  0  0  0  0
  183.9190  178.1970  140.1240 C   0  0  0  0  0  3  0  0  0  0  0  0
  185.1100  177.9190  140.7610 C   0  0  0  0  0  0  0  0  0  0  0  0
  187.1130  177.0220  142.5580 C   0  0  2  0  0  3  0  0  0  0  0  0
  186.4350  177.5580  140.1700 C   0  0  0  0  0  2  0  0  0  0  0  0
  193.1000  176.4080  144.0350 C   0  0  0  0  0  0  0  0  0  0  0  0
  190.4180  177.0820  145.3800 C   0  0  0  0  0  2  0  0  0  0  0  0
  194.2530  175.7810  141.8970 C   0  0  0  0  0  1  0  0  0  0  0  0
  188.2140  177.0450  143.5120 N   0  0  0  0  0  0  0  0  0  0  0  0
  195.5800  176.0160  143.9990 C   0  0  0  0  0  1  0  0  0  0  0  0
  186.5250  177.7230  145.6300 S   0  0  0  0  0  0  0  0  0  0  0  0
  187.2290  177.9200  147.1530 C   0  0  0  0  0  0  0  0  0  0  0  0
  186.4850  178.2800  148.3880 C   0  0  0  0  0  1  0  0  0  0  0  0
  189.5290  176.7600  143.0920 N   0  0  0  0  0  0  0  0  0  0  0  0
  191.8450  176.4570  143.3400 N   0  0  0  0  0  2  0  0  0  0  0  0
  187.9840  177.3530  144.8840 C   0  0  0  0  0  0  0  0  0  0  0  0
  194.2960  176.0730  143.3190 N   0  0  0  0  0  0  0  0  0  0  0  0
  190.5590  176.7640  143.8970 C   0  0  0  0  0  0  0  0  0  0  0  0
  189.0110  177.3780  145.7930 C   0  0  0  0  0  0  0  0  0  0  0  0
  193.1600  176.6570  145.2700 O   0  0  0  0  0  0  0  0  0  0  0  0
  188.6030  177.6990  147.0910 C   0  0  0  0  0  3  0  0  0  0  0  0
  181.6720  178.6810  140.9250 O   0  0  0  0  0  0  0  0  0  0  0  0
  180.8320  179.0440  142.0150 C   0  0  0  0  0  2  0  0  0  0  0  0
  179.4460  178.4640  141.8100 C   0  0  0  0  0  2  0  0  0  0  0  0
  178.4840  179.3660  142.2650 O   0  0  0  0  0  0  0  0  0  0  0  0
  177.6940  179.6290  141.1450 C   0  0  0  0  0  2  0  0  0  0  0  0
  178.0490  180.9870  140.5680 C   0  0  0  0  0  2  0  0  0  0  0  0
  178.4070  180.8560  139.1000 C   0  0  0  0  0  2  0  0  0  0  0  0
  179.1910  182.3880  138.5300 S   0  0  0  0  0  1  0  0  0  0  0  0
  1  3  2  0  0  0  0
  1  5  1  0  0  0  0
  2  3  1  0  0  0  0
  6  7  2  0  0  0  0
  6  2  1  0  0  0  0
  7  1  1  0  0  0  0
  8  4  1  6  0  0  0
  8  5  1  0  0  0  0
  8 13  1  0  0  0  0
  9  7  1  0  0  0  0
  9  4  1  0  0  0  0
 10 24  2  0  0  0  0
 11 23  1  0  0  0  0
 12 21  1  0  0  0  0
 13 20  1  0  0  0  0
 15 16  1  0  0  0  0
 16 17  1  0  0  0  0
 18 13  1  0  0  0  0
 18 22  2  0  0  0  0
 19 22  1  0  0  0  0
 19 10  1  0  0  0  0
 20 15  1  0  0  0  0
 20 23  2  0  0  0  0
 21 14  1  0  0  0  0
 21 10  1  0  0  0  0
 22 11  1  0  0  0  0
 23 25  1  0  0  0  0
 25 16  2  0  0  0  0
 26  2  1  0  0  0  0
 26 27  1  0  0  0  0
 28 27  1  0  0  0  0
 28 29  1  0  0  0  0
 30 29  1  0  0  0  0
 31 30  1  0  0  0  0
 32 31  1  0  0  0  0
 33 32  1  0  0  0  0
M  END
>  <MODEL>
9

>  <REMARK>
 VINA RESULT:      -5.9      4.111      6.751
  Name = 
  8 active torsions:
  status: ('A' for Active; 'I' for Inactive)
    1  A    between atoms: C_3  and  C_6
    2  A    between atoms: C_3  and  O_23
    3  A    between atoms: N_5  and  C_26
    4  A    between atoms: C_6  and  O_8
    5  A    between atoms: O_8  and  C_15
    6  A    between atoms: N_9  and  O_23
    7  A    between atoms: C_12  and  C_30
    8  A    between atoms: C_15  and  C_30
                            x       y       z     vdW  Elec       q    Type
                         _______ _______ _______ _____ _____    ______ ____

>  <TORSDO>
F 8

$$$$
