=
 OpenBabel11042413413D

 42 46  0  0  1  0  0  0  0  0999 V2000
  185.3830  177.6090  143.0660 C   0  0  0  0  0  0  0  0  0  0  0  0
  188.8370  175.5180  146.2070 C   0  0  0  0  0  0  0  0  0  0  0  0
  189.4170  176.4080  142.7280 O   0  0  0  0  0  0  0  0  0  0  0  0
  185.5460  177.1810  145.4490 C   0  0  0  0  0  3  0  0  0  0  0  0
  189.2670  174.7410  147.1020 O   0  0  0  0  0  0  0  0  0  0  0  0
  186.8730  176.7630  145.2980 C   0  0  0  0  0  0  0  0  0  0  0  0
  189.5060  175.6150  144.9300 N   0  0  0  0  0  0  0  0  0  0  0  0
  184.8040  177.5960  144.3410 C   0  0  0  0  0  3  0  0  0  0  0  0
  187.4590  176.7630  144.0170 C   0  0  0  0  0  0  0  0  0  0  0  0
  188.8380  176.2750  143.8420 C   0  0  0  0  0  0  0  0  0  0  0  0
  188.1560  177.6590  147.2130 C   0  0  0  0  0  1  0  0  0  0  0  0
  186.7100  177.1870  142.9110 C   0  0  0  0  0  3  0  0  0  0  0  0
  187.6650  176.3990  146.5220 C   0  0  2  0  0  3  0  0  0  0  0  0
  184.6060  178.0630  141.8970 C   0  0  0  0  0  0  0  0  0  0  0  0
  185.2020  178.4260  140.8460 O   0  0  0  0  0  0  0  0  0  0  0  0
  183.1760  178.0820  141.9520 N   0  0  0  0  0  2  0  0  0  0  0  0
  182.3570  178.5600  140.8490 C   0  0  0  0  0  2  0  0  0  0  0  0
  181.0280  179.0750  141.3730 C   0  0  0  0  0  2  0  0  0  0  0  0
  180.0520  177.9210  141.5440 C   0  0  0  0  0  2  0  0  0  0  0  0
  178.1190  176.9430  140.4070 O   0  0  0  0  0  0  0  0  0  0  0  0
  179.0280  177.9700  140.5140 N   0  0  0  0  0  0  0  0  0  0  0  0
  178.8900  178.9960  139.8170 O   0  0  0  0  0  0  0  0  0  0  0  0
  190.8260  175.0080  144.6820 C   0  0  2  0  0  3  0  0  0  0  0  0
  191.3720  172.4060  144.6330 C   0  0  0  0  0  2  0  0  0  0  0  0
  189.8580  172.5960  144.6200 C   0  0  0  0  0  2  0  0  0  0  0  0
  190.7650  173.6330  143.9900 C   0  0  0  0  0  0  0  0  0  0  0  0
  191.5200  173.9890  140.4080 O   0  0  0  0  0  0  0  0  0  0  0  0
  190.6750  173.6100  142.5360 N   0  0  0  0  0  2  0  0  0  0  0  0
  191.7490  173.9280  141.6450 C   0  0  0  0  0  0  0  0  0  0  0  0
  193.1290  174.2180  142.1540 C   0  0  0  0  0  2  0  0  0  0  0  0
  192.8440  176.5700  142.4190 O   0  0  0  0  0  0  0  0  0  0  0  0
  193.5160  175.6400  141.8970 C   0  0  0  0  0  0  0  0  0  0  0  0
  195.7260  176.7000  141.5540 O   0  0  0  0  0  1  0  0  0  0  0  0
  194.6990  175.5820  139.8430 O   0  0  0  0  0  0  0  0  0  0  0  0
  194.6640  175.9670  141.0400 C   0  0  0  0  0  0  0  0  0  0  0  0
  191.7010  174.9930  145.9300 C   0  0  0  0  0  2  0  0  0  0  0  0
  192.8490  175.9720  145.7780 C   0  0  0  0  0  2  0  0  0  0  0  0
  196.0290  174.2520  145.1460 C   0  0  2  0  0  3  0  0  0  0  0  0
  196.7110  173.9820  146.3330 O   0  0  0  0  0  1  0  0  0  0  0  0
  194.1190  175.3380  146.3020 C   0  0  2  0  0  3  0  0  0  0  0  0
  195.2320  175.5350  145.2930 C   0  0  2  0  0  3  0  0  0  0  0  0
  194.5320  174.2000  145.3900 C   0  0  1  0  0  3  0  0  0  0  0  0
  1  8  1  0  0  0  0
  2 13  1  0  0  0  0
  2  5  2  0  0  0  0
  3 10  2  0  0  0  0
  6  4  1  0  0  0  0
  6 13  1  0  0  0  0
  7  2  1  0  0  0  0
  8  4  2  0  0  0  0
  9  6  2  0  0  0  0
 10  9  1  0  0  0  0
 10  7  1  0  0  0  0
 12  1  2  0  0  0  0
 12  9  1  0  0  0  0
 13 11  1  6  0  0  0
 14 16  1  0  0  0  0
 14  1  1  0  0  0  0
 15 14  2  0  0  0  0
 17 18  1  0  0  0  0
 17 16  1  0  0  0  0
 18 19  1  0  0  0  0
 20 21  2  0  0  0  0
 21 19  1  0  0  0  0
 22 21  2  0  0  0  0
 23  7  1  0  0  0  0
 23 36  1  1  0  0  0
 25 24  1  0  0  0  0
 26 25  1  0  0  0  0
 26 24  1  0  0  0  0
 26 23  1  0  0  0  0
 27 29  2  0  0  0  0
 28 26  1  0  0  0  0
 29 30  1  0  0  0  0
 29 28  1  0  0  0  0
 32 30  1  0  0  0  0
 32 31  2  0  0  0  0
 34 35  2  0  0  0  0
 35 33  1  0  0  0  0
 35 32  1  0  0  0  0
 37 36  1  0  0  0  0
 37 40  1  0  0  0  0
 38 41  1  0  0  0  0
 38 42  1  0  0  0  0
 38 39  1  0  0  0  0
 41 42  1  0  0  0  0
 41 40  1  0  0  0  0
 42 40  1  0  0  0  0
M  END
>  <MODEL>
1

>  <REMARK>
 VINA RESULT:      -7.1      0.000      0.000
  Name = 
  14 active torsions:
  status: ('A' for Active; 'I' for Inactive)
    1  A    between atoms: C_1  and  C_8
    2  A    between atoms: C_5  and  C_7
    3  A    between atoms: C_5  and  N_20
    4  A    between atoms: C_7  and  C_11
    5  A    between atoms: C_11  and  N_40
    6  A    between atoms: C_13  and  C_36
    7  A    between atoms: N_16  and  C_24
    8  A    between atoms: C_23  and  C_28
    9  A    between atoms: C_23  and  C_35
   10  A    between atoms: C_24  and  C_28
   11  A    between atoms: C_24  and  C_41
   12  A    between atoms: C_25  and  C_36
   13  A    between atoms: C_25  and  C_39
   14  A    between atoms: N_32  and  C_41
                            x       y       z     vdW  Elec       q    Type
                         _______ _______ _______ _____ _____    ______ ____

>  <TORSDO>
F 14

$$$$
=
 OpenBabel11042413413D

 42 46  0  0  1  0  0  0  0  0999 V2000
  187.7670  176.5750  146.3370 C   0  0  0  0  0  0  0  0  0  0  0  0
  191.5480  173.8610  144.2120 C   0  0  0  0  0  0  0  0  0  0  0  0
  189.8460  176.6780  142.6630 O   0  0  0  0  0  0  0  0  0  0  0  0
  189.3620  174.9100  147.0930 C   0  0  0  0  0  3  0  0  0  0  0  0
  192.2010  172.8260  143.9090 O   0  0  0  0  0  0  0  0  0  0  0  0
  190.0110  174.9480  145.8540 C   0  0  0  0  0  0  0  0  0  0  0  0
  191.1560  174.8100  143.1970 N   0  0  0  0  0  0  0  0  0  0  0  0
  188.2450  175.7130  147.3320 C   0  0  0  0  0  3  0  0  0  0  0  0
  189.5310  175.8050  144.8450 C   0  0  0  0  0  0  0  0  0  0  0  0
  190.1770  175.8120  143.5210 C   0  0  0  0  0  0  0  0  0  0  0  0
  192.4440  174.8390  146.2870 C   0  0  0  0  0  1  0  0  0  0  0  0
  188.4130  176.6130  145.0940 C   0  0  0  0  0  3  0  0  0  0  0  0
  191.2570  174.1300  145.6590 C   0  0  2  0  0  3  0  0  0  0  0  0
  186.5980  177.4360  146.5930 C   0  0  0  0  0  0  0  0  0  0  0  0
  186.5870  178.2060  147.5930 O   0  0  0  0  0  0  0  0  0  0  0  0
  185.4780  177.4070  145.7010 N   0  0  0  0  0  2  0  0  0  0  0  0
  184.2790  178.1990  145.9240 C   0  0  0  0  0  2  0  0  0  0  0  0
  184.0570  179.1450  144.7570 C   0  0  0  0  0  2  0  0  0  0  0  0
  185.3610  179.3660  144.0070 C   0  0  0  0  0  2  0  0  0  0  0  0
  184.1640  178.1060  142.2860 O   0  0  0  0  0  0  0  0  0  0  0  0
  185.3380  178.6620  142.7360 N   0  0  0  0  0  0  0  0  0  0  0  0
  186.3420  178.6780  141.9950 O   0  0  0  0  0  0  0  0  0  0  0  0
  191.6750  174.7530  141.8190 C   0  0  2  0  0  3  0  0  0  0  0  0
  191.5650  173.3560  139.5590 C   0  0  0  0  0  2  0  0  0  0  0  0
  192.2110  172.4980  140.6430 C   0  0  0  0  0  2  0  0  0  0  0  0
  191.1770  173.5410  141.0090 C   0  0  0  0  0  0  0  0  0  0  0  0
  187.6030  172.8650  141.5550 O   0  0  0  0  0  0  0  0  0  0  0  0
  189.9180  172.9290  141.4140 N   0  0  0  0  0  2  0  0  0  0  0  0
  188.6200  173.4070  141.0480 C   0  0  0  0  0  0  0  0  0  0  0  0
  188.4470  174.5540  140.0990 C   0  0  0  0  0  2  0  0  0  0  0  0
  188.3130  172.8530  138.4330 O   0  0  0  0  0  0  0  0  0  0  0  0
  188.1670  174.0740  138.7100 C   0  0  0  0  0  0  0  0  0  0  0  0
  188.3100  174.9580  136.4020 O   0  0  0  0  0  0  0  0  0  0  0  0
  186.8250  175.8510  137.8960 O   0  0  0  0  0  1  0  0  0  0  0  0
  187.7290  175.0080  137.6630 C   0  0  0  0  0  0  0  0  0  0  0  0
  193.1910  174.9050  141.7660 C   0  0  0  0  0  2  0  0  0  0  0  0
  193.6340  176.0680  142.6320 C   0  0  0  0  0  2  0  0  0  0  0  0
  197.2050  175.3460  143.0790 C   0  0  2  0  0  3  0  0  0  0  0  0
  197.4860  174.9350  144.3820 O   0  0  0  0  0  1  0  0  0  0  0  0
  194.7770  175.6250  143.5180 C   0  0  2  0  0  3  0  0  0  0  0  0
  196.0490  176.3290  143.0880 C   0  0  2  0  0  3  0  0  0  0  0  0
  195.8100  174.8920  142.6860 C   0  0  1  0  0  3  0  0  0  0  0  0
  1 14  1  0  0  0  0
  1  8  1  0  0  0  0
  2 13  1  0  0  0  0
  3 10  2  0  0  0  0
  4  8  2  0  0  0  0
  5  2  2  0  0  0  0
  6  4  1  0  0  0  0
  7 10  1  0  0  0  0
  7  2  1  0  0  0  0
  9 12  1  0  0  0  0
  9  6  2  0  0  0  0
 10  9  1  0  0  0  0
 12  1  2  0  0  0  0
 13  6  1  0  0  0  0
 13 11  1  6  0  0  0
 14 15  2  0  0  0  0
 16 17  1  0  0  0  0
 16 14  1  0  0  0  0
 18 17  1  0  0  0  0
 19 18  1  0  0  0  0
 20 21  2  0  0  0  0
 21 19  1  0  0  0  0
 22 21  2  0  0  0  0
 23 36  1  1  0  0  0
 23  7  1  0  0  0  0
 24 25  1  0  0  0  0
 24 26  1  0  0  0  0
 25 26  1  0  0  0  0
 26 28  1  0  0  0  0
 26 23  1  0  0  0  0
 29 28  1  0  0  0  0
 29 27  2  0  0  0  0
 30 29  1  0  0  0  0
 31 32  2  0  0  0  0
 32 30  1  0  0  0  0
 33 35  2  0  0  0  0
 35 34  1  0  0  0  0
 35 32  1  0  0  0  0
 36 37  1  0  0  0  0
 37 40  1  0  0  0  0
 38 41  1  0  0  0  0
 38 39  1  0  0  0  0
 41 40  1  0  0  0  0
 42 38  1  0  0  0  0
 42 41  1  0  0  0  0
 42 40  1  0  0  0  0
M  END
>  <MODEL>
2

>  <REMARK>
 VINA RESULT:      -7.1      2.949      4.883
  Name = 
  14 active torsions:
  status: ('A' for Active; 'I' for Inactive)
    1  A    between atoms: C_1  and  C_8
    2  A    between atoms: C_5  and  C_7
    3  A    between atoms: C_5  and  N_20
    4  A    between atoms: C_7  and  C_11
    5  A    between atoms: C_11  and  N_40
    6  A    between atoms: C_13  and  C_36
    7  A    between atoms: N_16  and  C_24
    8  A    between atoms: C_23  and  C_28
    9  A    between atoms: C_23  and  C_35
   10  A    between atoms: C_24  and  C_28
   11  A    between atoms: C_24  and  C_41
   12  A    between atoms: C_25  and  C_36
   13  A    between atoms: C_25  and  C_39
   14  A    between atoms: N_32  and  C_41
                            x       y       z     vdW  Elec       q    Type
                         _______ _______ _______ _____ _____    ______ ____

>  <TORSDO>
F 14

$$$$
=
 OpenBabel11042413413D

 42 46  0  0  1  0  0  0  0  0999 V2000
  185.4570  177.6650  142.8780 C   0  0  0  0  0  0  0  0  0  0  0  0
  189.0050  175.6000  145.9290 C   0  0  0  0  0  0  0  0  0  0  0  0
  189.5760  176.8000  142.5430 O   0  0  0  0  0  0  0  0  0  0  0  0
  185.6100  177.0660  145.2240 C   0  0  0  0  0  3  0  0  0  0  0  0
  189.4780  174.7890  146.7720 O   0  0  0  0  0  0  0  0  0  0  0  0
  186.9680  176.7610  145.0720 C   0  0  0  0  0  0  0  0  0  0  0  0
  189.6870  175.8460  144.6800 N   0  0  0  0  0  0  0  0  0  0  0  0
  184.8590  177.5090  144.1340 C   0  0  0  0  0  3  0  0  0  0  0  0
  187.5740  176.9060  143.8100 C   0  0  0  0  0  0  0  0  0  0  0  0
  188.9890  176.5370  143.6300 C   0  0  0  0  0  0  0  0  0  0  0  0
  188.1440  177.5990  147.0800 C   0  0  0  0  0  1  0  0  0  0  0  0
  186.8150  177.3570  142.7220 C   0  0  0  0  0  3  0  0  0  0  0  0
  187.7640  176.3630  146.2840 C   0  0  2  0  0  3  0  0  0  0  0  0
  184.6680  178.1490  141.7290 C   0  0  0  0  0  0  0  0  0  0  0  0
  185.2540  178.5750  140.6960 O   0  0  0  0  0  0  0  0  0  0  0  0
  183.2380  178.1260  141.7820 N   0  0  0  0  0  2  0  0  0  0  0  0
  182.4070  178.6300  140.7000 C   0  0  0  0  0  2  0  0  0  0  0  0
  180.9700  178.1800  140.8950 C   0  0  0  0  0  2  0  0  0  0  0  0
  180.3560  178.8950  142.0880 C   0  0  0  0  0  2  0  0  0  0  0  0
  178.6400  177.2560  142.6810 O   0  0  0  0  0  0  0  0  0  0  0  0
  178.9610  178.5170  142.2390 N   0  0  0  0  0  0  0  0  0  0  0  0
  178.0630  179.3730  142.0980 O   0  0  0  0  0  0  0  0  0  0  0  0
  191.0530  175.3610  144.4170 C   0  0  2  0  0  3  0  0  0  0  0  0
  192.3850  173.2800  143.4320 C   0  0  0  0  0  2  0  0  0  0  0  0
  192.0190  172.9930  144.8850 C   0  0  0  0  0  2  0  0  0  0  0  0
  191.1280  173.8710  144.0310 C   0  0  0  0  0  0  0  0  0  0  0  0
  188.1790  172.6280  142.2190 O   0  0  0  0  0  0  0  0  0  0  0  0
  189.8820  173.1980  143.6880 N   0  0  0  0  0  2  0  0  0  0  0  0
  189.3210  173.1360  142.3730 C   0  0  0  0  0  0  0  0  0  0  0  0
  190.0480  173.6890  141.1850 C   0  0  0  0  0  2  0  0  0  0  0  0
  188.1970  174.9840  140.4240 O   0  0  0  0  0  0  0  0  0  0  0  0
  189.0930  174.1500  140.1280 C   0  0  0  0  0  0  0  0  0  0  0  0
  188.0550  173.1230  138.1300 O   0  0  0  0  0  0  0  0  0  0  0  0
  190.2770  173.6670  138.1310 O   0  0  0  0  0  1  0  0  0  0  0  0
  189.1840  173.6380  138.7540 C   0  0  0  0  0  0  0  0  0  0  0  0
  192.0210  175.7210  145.5380 C   0  0  0  0  0  2  0  0  0  0  0  0
  193.0890  176.6690  145.0270 C   0  0  0  0  0  2  0  0  0  0  0  0
  196.4050  176.2760  143.5060 C   0  0  2  0  0  3  0  0  0  0  0  0
  197.1110  175.2180  144.0790 O   0  0  0  0  0  1  0  0  0  0  0  0
  194.4100  175.9370  144.9440 C   0  0  2  0  0  3  0  0  0  0  0  0
  195.5000  176.9120  144.5450 C   0  0  2  0  0  3  0  0  0  0  0  0
  194.9190  175.9690  143.5160 C   0  0  1  0  0  3  0  0  0  0  0  0
  1  8  1  0  0  0  0
  2 13  1  0  0  0  0
  2  5  2  0  0  0  0
  3 10  2  0  0  0  0
  6  4  1  0  0  0  0
  6 13  1  0  0  0  0
  7  2  1  0  0  0  0
  8  4  2  0  0  0  0
  9  6  2  0  0  0  0
 10  9  1  0  0  0  0
 10  7  1  0  0  0  0
 12  1  2  0  0  0  0
 12  9  1  0  0  0  0
 13 11  1  6  0  0  0
 14 16  1  0  0  0  0
 14  1  1  0  0  0  0
 15 14  2  0  0  0  0
 17 18  1  0  0  0  0
 17 16  1  0  0  0  0
 18 19  1  0  0  0  0
 19 21  1  0  0  0  0
 21 20  2  0  0  0  0
 22 21  2  0  0  0  0
 23  7  1  0  0  0  0
 23 36  1  1  0  0  0
 24 26  1  0  0  0  0
 24 25  1  0  0  0  0
 26 23  1  0  0  0  0
 26 25  1  0  0  0  0
 27 29  2  0  0  0  0
 28 26  1  0  0  0  0
 29 28  1  0  0  0  0
 30 29  1  0  0  0  0
 32 31  2  0  0  0  0
 32 30  1  0  0  0  0
 33 35  2  0  0  0  0
 34 35  1  0  0  0  0
 35 32  1  0  0  0  0
 37 36  1  0  0  0  0
 38 42  1  0  0  0  0
 38 39  1  0  0  0  0
 38 41  1  0  0  0  0
 40 37  1  0  0  0  0
 41 40  1  0  0  0  0
 42 41  1  0  0  0  0
 42 40  1  0  0  0  0
M  END
>  <MODEL>
3

>  <REMARK>
 VINA RESULT:      -7.1      1.743      2.645
  Name = 
  14 active torsions:
  status: ('A' for Active; 'I' for Inactive)
    1  A    between atoms: C_1  and  C_8
    2  A    between atoms: C_5  and  C_7
    3  A    between atoms: C_5  and  N_20
    4  A    between atoms: C_7  and  C_11
    5  A    between atoms: C_11  and  N_40
    6  A    between atoms: C_13  and  C_36
    7  A    between atoms: N_16  and  C_24
    8  A    between atoms: C_23  and  C_28
    9  A    between atoms: C_23  and  C_35
   10  A    between atoms: C_24  and  C_28
   11  A    between atoms: C_24  and  C_41
   12  A    between atoms: C_25  and  C_36
   13  A    between atoms: C_25  and  C_39
   14  A    between atoms: N_32  and  C_41
                            x       y       z     vdW  Elec       q    Type
                         _______ _______ _______ _____ _____    ______ ____

>  <TORSDO>
F 14

$$$$
=
 OpenBabel11042413413D

 42 46  0  0  1  0  0  0  0  0999 V2000
  192.6120  170.6360  143.8750 C   0  0  0  0  0  0  0  0  0  0  0  0
  188.8250  173.7710  142.4600 C   0  0  0  0  0  0  0  0  0  0  0  0
  191.4950  174.6060  144.7840 O   0  0  0  0  0  0  0  0  0  0  0  0
  190.8850  170.6330  142.1700 C   0  0  0  0  0  3  0  0  0  0  0  0
  187.6440  174.1010  142.1680 O   0  0  0  0  0  0  0  0  0  0  0  0
  190.5220  171.9400  142.5150 C   0  0  0  0  0  0  0  0  0  0  0  0
  189.5800  174.5180  143.4380 N   0  0  0  0  0  0  0  0  0  0  0  0
  191.9190  169.9840  142.8480 C   0  0  0  0  0  3  0  0  0  0  0  0
  191.2070  172.5990  143.5540 C   0  0  0  0  0  0  0  0  0  0  0  0
  190.7960  173.9550  143.9580 C   0  0  0  0  0  0  0  0  0  0  0  0
  190.0520  173.1580  140.4150 C   0  0  0  0  0  1  0  0  0  0  0  0
  192.2480  171.9430  144.2260 C   0  0  0  0  0  3  0  0  0  0  0  0
  189.4600  172.6360  141.7120 C   0  0  2  0  0  3  0  0  0  0  0  0
  193.7150  169.9580  144.5820 C   0  0  0  0  0  0  0  0  0  0  0  0
  193.8800  168.7140  144.4470 O   0  0  0  0  0  0  0  0  0  0  0  0
  194.6040  170.7120  145.4130 N   0  0  0  0  0  2  0  0  0  0  0  0
  195.6810  170.0940  146.1690 C   0  0  0  0  0  2  0  0  0  0  0  0
  196.9920  170.8030  145.8820 C   0  0  0  0  0  2  0  0  0  0  0  0
  196.7620  171.9520  144.9130 C   0  0  0  0  0  2  0  0  0  0  0  0
  197.8760  174.1100  144.6200 O   0  0  0  0  0  0  0  0  0  0  0  0
  197.2960  173.1880  145.4590 N   0  0  0  0  0  0  0  0  0  0  0  0
  197.1110  173.4720  146.6610 O   0  0  0  0  0  0  0  0  0  0  0  0
  189.1190  175.8120  143.9710 C   0  0  2  0  0  3  0  0  0  0  0  0
  190.0970  178.2780  143.7910 C   0  0  0  0  0  2  0  0  0  0  0  0
  191.0430  177.3160  143.0790 C   0  0  0  0  0  2  0  0  0  0  0  0
  189.5570  177.0290  143.1330 C   0  0  0  0  0  0  0  0  0  0  0  0
  187.1470  177.8030  140.4650 O   0  0  0  0  0  0  0  0  0  0  0  0
  188.9270  177.2160  141.8320 N   0  0  0  0  0  2  0  0  0  0  0  0
  187.6370  177.8020  141.6240 C   0  0  0  0  0  0  0  0  0  0  0  0
  186.8490  178.3830  142.7590 C   0  0  0  0  0  2  0  0  0  0  0  0
  185.6530  176.3680  143.2000 O   0  0  0  0  0  0  0  0  0  0  0  0
  185.5900  177.6110  142.9990 C   0  0  0  0  0  0  0  0  0  0  0  0
  183.3800  178.0400  141.9710 O   0  0  0  0  0  0  0  0  0  0  0  0
  183.9680  179.0690  143.9280 O   0  0  0  0  0  1  0  0  0  0  0  0
  184.2820  178.2810  142.9990 C   0  0  0  0  0  0  0  0  0  0  0  0
  189.4430  175.9780  145.4510 C   0  0  0  0  0  2  0  0  0  0  0  0
  188.1770  175.8850  146.2810 C   0  0  0  0  0  2  0  0  0  0  0  0
  185.5070  178.0900  147.4960 C   0  0  2  0  0  3  0  0  0  0  0  0
  185.4850  179.2990  146.8020 O   0  0  0  0  0  1  0  0  0  0  0  0
  187.4300  177.1980  146.2030 C   0  0  2  0  0  3  0  0  0  0  0  0
  186.9320  177.5750  147.5840 C   0  0  2  0  0  3  0  0  0  0  0  0
  185.9770  176.9770  146.5760 C   0  0  1  0  0  3  0  0  0  0  0  0
  1 12  1  0  0  0  0
  1 14  1  0  0  0  0
  2  7  1  0  0  0  0
  4  6  2  0  0  0  0
  4  8  1  0  0  0  0
  5  2  2  0  0  0  0
  6  9  1  0  0  0  0
  7 10  1  0  0  0  0
  7 23  1  0  0  0  0
  8  1  2  0  0  0  0
  9 10  1  0  0  0  0
  9 12  2  0  0  0  0
 10  3  2  0  0  0  0
 13 11  1  6  0  0  0
 13  2  1  0  0  0  0
 13  6  1  0  0  0  0
 14 16  1  0  0  0  0
 15 14  2  0  0  0  0
 16 17  1  0  0  0  0
 18 17  1  0  0  0  0
 19 21  1  0  0  0  0
 19 18  1  0  0  0  0
 20 21  2  0  0  0  0
 21 22  2  0  0  0  0
 23 36  1  1  0  0  0
 25 26  1  0  0  0  0
 25 24  1  0  0  0  0
 26 24  1  0  0  0  0
 26 23  1  0  0  0  0
 27 29  2  0  0  0  0
 28 26  1  0  0  0  0
 29 28  1  0  0  0  0
 29 30  1  0  0  0  0
 30 32  1  0  0  0  0
 32 31  2  0  0  0  0
 33 35  2  0  0  0  0
 35 32  1  0  0  0  0
 35 34  1  0  0  0  0
 36 37  1  0  0  0  0
 38 41  1  0  0  0  0
 39 38  1  0  0  0  0
 40 37  1  0  0  0  0
 40 42  1  0  0  0  0
 40 41  1  0  0  0  0
 42 38  1  0  0  0  0
 42 41  1  0  0  0  0
M  END
>  <MODEL>
4

>  <REMARK>
 VINA RESULT:      -6.8      3.380     10.439
  Name = 
  14 active torsions:
  status: ('A' for Active; 'I' for Inactive)
    1  A    between atoms: C_1  and  C_8
    2  A    between atoms: C_5  and  C_7
    3  A    between atoms: C_5  and  N_20
    4  A    between atoms: C_7  and  C_11
    5  A    between atoms: C_11  and  N_40
    6  A    between atoms: C_13  and  C_36
    7  A    between atoms: N_16  and  C_24
    8  A    between atoms: C_23  and  C_28
    9  A    between atoms: C_23  and  C_35
   10  A    between atoms: C_24  and  C_28
   11  A    between atoms: C_24  and  C_41
   12  A    between atoms: C_25  and  C_36
   13  A    between atoms: C_25  and  C_39
   14  A    between atoms: N_32  and  C_41
                            x       y       z     vdW  Elec       q    Type
                         _______ _______ _______ _____ _____    ______ ____

>  <TORSDO>
F 14

$$$$
=
 OpenBabel11042413413D

 42 46  0  0  1  0  0  0  0  0999 V2000
  188.3690  176.2880  142.2920 C   0  0  0  0  0  0  0  0  0  0  0  0
  192.4790  173.2750  142.7310 C   0  0  0  0  0  0  0  0  0  0  0  0
  192.4170  176.8590  143.3500 O   0  0  0  0  0  0  0  0  0  0  0  0
  188.7900  173.8980  142.3150 C   0  0  0  0  0  3  0  0  0  0  0  0
  193.2770  172.3510  142.4130 O   0  0  0  0  0  0  0  0  0  0  0  0
  190.1330  174.1240  142.6380 C   0  0  0  0  0  0  0  0  0  0  0  0
  192.9650  174.6070  143.0030 N   0  0  0  0  0  0  0  0  0  0  0  0
  187.9150  174.9730  142.1380 C   0  0  0  0  0  3  0  0  0  0  0  0
  190.5990  175.4440  142.7850 C   0  0  0  0  0  0  0  0  0  0  0  0
  192.0230  175.6910  143.0740 C   0  0  0  0  0  0  0  0  0  0  0  0
  190.7900  172.4190  144.3050 C   0  0  0  0  0  1  0  0  0  0  0  0
  189.7140  176.5170  142.6120 C   0  0  0  0  0  3  0  0  0  0  0  0
  191.0260  172.9440  142.8990 C   0  0  2  0  0  3  0  0  0  0  0  0
  187.4430  177.4230  142.1210 C   0  0  0  0  0  0  0  0  0  0  0  0
  187.2050  177.8760  140.9680 O   0  0  0  0  0  0  0  0  0  0  0  0
  186.8050  178.0060  143.2630 N   0  0  0  0  0  2  0  0  0  0  0  0
  185.9180  179.1530  143.1640 C   0  0  0  0  0  2  0  0  0  0  0  0
  185.5260  179.6290  144.5510 C   0  0  0  0  0  2  0  0  0  0  0  0
  184.4370  178.7330  145.1220 C   0  0  0  0  0  2  0  0  0  0  0  0
  185.3230  178.8550  147.3990 O   0  0  0  0  0  0  0  0  0  0  0  0
  184.9010  178.0880  146.3390 N   0  0  0  0  0  0  0  0  0  0  0  0
  184.7910  176.8520  146.4710 O   0  0  0  0  0  0  0  0  0  0  0  0
  194.3990  174.9100  143.1520 C   0  0  2  0  0  3  0  0  0  0  0  0
  195.0840  173.3220  145.1720 C   0  0  0  0  0  2  0  0  0  0  0  0
  196.3170  174.0880  144.7030 C   0  0  0  0  0  2  0  0  0  0  0  0
  194.9400  174.7070  144.5800 C   0  0  0  0  0  0  0  0  0  0  0  0
  193.5190  176.9650  147.1110 O   0  0  0  0  0  0  0  0  0  0  0  0
  194.7520  175.7910  145.5360 N   0  0  0  0  0  2  0  0  0  0  0  0
  193.6300  175.9230  146.4140 C   0  0  0  0  0  0  0  0  0  0  0  0
  192.5720  174.8650  146.4970 C   0  0  0  0  0  2  0  0  0  0  0  0
  191.2520  175.3280  148.4270 O   0  0  0  0  0  0  0  0  0  0  0  0
  191.3390  175.3790  147.1710 C   0  0  0  0  0  0  0  0  0  0  0  0
  190.2310  177.2830  146.0430 O   0  0  0  0  0  1  0  0  0  0  0  0
  189.2740  175.2050  146.0200 O   0  0  0  0  0  0  0  0  0  0  0  0
  190.2280  175.9370  146.3880 C   0  0  0  0  0  0  0  0  0  0  0  0
  194.7650  176.2750  142.5810 C   0  0  0  0  0  2  0  0  0  0  0  0
  195.2700  176.1320  141.1580 C   0  0  0  0  0  2  0  0  0  0  0  0
  197.4070  173.9140  139.1620 C   0  0  2  0  0  3  0  0  0  0  0  0
  197.9310  172.8760  139.9330 O   0  0  0  0  0  1  0  0  0  0  0  0
  196.1600  174.9120  141.0630 C   0  0  2  0  0  3  0  0  0  0  0  0
  197.2330  175.1540  140.0210 C   0  0  2  0  0  3  0  0  0  0  0  0
  196.0340  174.2990  139.6830 C   0  0  1  0  0  3  0  0  0  0  0  0
  1 12  1  0  0  0  0
  2 13  1  0  0  0  0
  2  7  1  0  0  0  0
  4  6  2  0  0  0  0
  5  2  2  0  0  0  0
  6  9  1  0  0  0  0
  6 13  1  0  0  0  0
  7 10  1  0  0  0  0
  7 23  1  0  0  0  0
  8  1  2  0  0  0  0
  8  4  1  0  0  0  0
  9 10  1  0  0  0  0
 10  3  2  0  0  0  0
 12  9  2  0  0  0  0
 13 11  1  1  0  0  0
 14  1  1  0  0  0  0
 14 16  1  0  0  0  0
 15 14  2  0  0  0  0
 17 16  1  0  0  0  0
 17 18  1  0  0  0  0
 18 19  1  0  0  0  0
 19 21  1  0  0  0  0
 21 22  2  0  0  0  0
 21 20  2  0  0  0  0
 23 36  1  1  0  0  0
 23 26  1  0  0  0  0
 25 24  1  0  0  0  0
 26 25  1  0  0  0  0
 26 24  1  0  0  0  0
 26 28  1  0  0  0  0
 28 29  1  0  0  0  0
 29 30  1  0  0  0  0
 29 27  2  0  0  0  0
 30 32  1  0  0  0  0
 32 31  2  0  0  0  0
 33 35  1  0  0  0  0
 34 35  2  0  0  0  0
 35 32  1  0  0  0  0
 37 36  1  0  0  0  0
 38 42  1  0  0  0  0
 38 39  1  0  0  0  0
 38 41  1  0  0  0  0
 40 37  1  0  0  0  0
 41 40  1  0  0  0  0
 42 41  1  0  0  0  0
 42 40  1  0  0  0  0
M  END
>  <MODEL>
5

>  <REMARK>
 VINA RESULT:      -6.7      3.377      5.707
  Name = 
  14 active torsions:
  status: ('A' for Active; 'I' for Inactive)
    1  A    between atoms: C_1  and  C_8
    2  A    between atoms: C_5  and  C_7
    3  A    between atoms: C_5  and  N_20
    4  A    between atoms: C_7  and  C_11
    5  A    between atoms: C_11  and  N_40
    6  A    between atoms: C_13  and  C_36
    7  A    between atoms: N_16  and  C_24
    8  A    between atoms: C_23  and  C_28
    9  A    between atoms: C_23  and  C_35
   10  A    between atoms: C_24  and  C_28
   11  A    between atoms: C_24  and  C_41
   12  A    between atoms: C_25  and  C_36
   13  A    between atoms: C_25  and  C_39
   14  A    between atoms: N_32  and  C_41
                            x       y       z     vdW  Elec       q    Type
                         _______ _______ _______ _____ _____    ______ ____

>  <TORSDO>
F 14

$$$$
=
 OpenBabel11042413413D

 42 46  0  0  1  0  0  0  0  0999 V2000
  187.6430  177.4060  145.8790 C   0  0  0  0  0  0  0  0  0  0  0  0
  191.9030  174.5750  145.7860 C   0  0  0  0  0  0  0  0  0  0  0  0
  191.3730  177.6490  143.9150 O   0  0  0  0  0  0  0  0  0  0  0  0
  188.5390  175.5520  147.1640 C   0  0  0  0  0  3  0  0  0  0  0  0
  192.5910  173.5190  145.7560 O   0  0  0  0  0  0  0  0  0  0  0  0
  189.7530  175.6430  146.4740 C   0  0  0  0  0  0  0  0  0  0  0  0
  192.1430  175.6380  144.8380 N   0  0  0  0  0  0  0  0  0  0  0  0
  187.4890  176.4240  146.8650 C   0  0  0  0  0  3  0  0  0  0  0  0
  189.9120  176.6210  145.4740 C   0  0  0  0  0  0  0  0  0  0  0  0
  191.1690  176.6880  144.7080 C   0  0  0  0  0  0  0  0  0  0  0  0
  191.5670  175.2910  148.1180 C   0  0  0  0  0  1  0  0  0  0  0  0
  188.8570  177.4960  145.1840 C   0  0  0  0  0  3  0  0  0  0  0  0
  190.8860  174.7410  146.8770 C   0  0  2  0  0  3  0  0  0  0  0  0
  186.5410  178.3380  145.5730 C   0  0  0  0  0  0  0  0  0  0  0  0
  185.7070  178.6440  146.4680 O   0  0  0  0  0  0  0  0  0  0  0  0
  186.4240  178.9030  144.2630 N   0  0  0  0  0  2  0  0  0  0  0  0
  185.3360  179.7920  143.8890 C   0  0  0  0  0  2  0  0  0  0  0  0
  184.0710  178.9900  143.6430 C   0  0  0  0  0  2  0  0  0  0  0  0
  184.3280  177.9160  142.5980 C   0  0  0  0  0  2  0  0  0  0  0  0
  182.3060  178.2900  141.2720 O   0  0  0  0  0  0  0  0  0  0  0  0
  183.6790  178.2650  141.3450 N   0  0  0  0  0  0  0  0  0  0  0  0
  184.3590  178.6680  140.3800 O   0  0  0  0  0  0  0  0  0  0  0  0
  193.3200  175.6560  143.9520 C   0  0  2  0  0  3  0  0  0  0  0  0
  194.3640  177.4480  145.6170 C   0  0  0  0  0  2  0  0  0  0  0  0
  194.9160  176.0680  145.9630 C   0  0  0  0  0  2  0  0  0  0  0  0
  194.5340  176.4040  144.5360 C   0  0  0  0  0  0  0  0  0  0  0  0
  197.5690  175.7270  142.5710 O   0  0  0  0  0  0  0  0  0  0  0  0
  195.7100  176.5520  143.6880 N   0  0  0  0  0  2  0  0  0  0  0  0
  196.5080  175.4690  143.1990 C   0  0  0  0  0  0  0  0  0  0  0  0
  196.1240  174.0410  143.4430 C   0  0  0  0  0  2  0  0  0  0  0  0
  197.7520  174.1650  145.1810 O   0  0  0  0  0  0  0  0  0  0  0  0
  196.9260  173.4460  144.5580 C   0  0  0  0  0  0  0  0  0  0  0  0
  196.5640  171.0750  143.9470 O   0  0  0  0  0  0  0  0  0  0  0  0
  196.8170  171.6820  146.1390 O   0  0  0  0  0  1  0  0  0  0  0  0
  196.7660  172.0340  144.9320 C   0  0  0  0  0  0  0  0  0  0  0  0
  192.9760  176.1180  142.5410 C   0  0  0  0  0  2  0  0  0  0  0  0
  192.7330  174.9220  141.6410 C   0  0  0  0  0  2  0  0  0  0  0  0
  190.2100  172.2980  141.1730 C   0  0  2  0  0  3  0  0  0  0  0  0
  189.0020  172.6330  141.7860 O   0  0  0  0  0  1  0  0  0  0  0  0
  191.3310  174.4010  141.8690 C   0  0  2  0  0  3  0  0  0  0  0  0
  191.3650  172.8890  141.9610 C   0  0  2  0  0  3  0  0  0  0  0  0
  190.9050  173.5560  140.6850 C   0  0  1  0  0  3  0  0  0  0  0  0
  1  8  1  0  0  0  0
  2 13  1  0  0  0  0
  3 10  2  0  0  0  0
  5  2  2  0  0  0  0
  6 13  1  0  0  0  0
  6  4  1  0  0  0  0
  7  2  1  0  0  0  0
  8  4  2  0  0  0  0
  9  6  2  0  0  0  0
 10  7  1  0  0  0  0
 10  9  1  0  0  0  0
 12  9  1  0  0  0  0
 12  1  2  0  0  0  0
 13 11  1  1  0  0  0
 14  1  1  0  0  0  0
 14 15  2  0  0  0  0
 16 14  1  0  0  0  0
 17 16  1  0  0  0  0
 18 17  1  0  0  0  0
 19 18  1  0  0  0  0
 20 21  2  0  0  0  0
 21 19  1  0  0  0  0
 22 21  2  0  0  0  0
 23 36  1  6  0  0  0
 23 26  1  0  0  0  0
 23  7  1  0  0  0  0
 24 25  1  0  0  0  0
 26 24  1  0  0  0  0
 26 25  1  0  0  0  0
 27 29  2  0  0  0  0
 28 26  1  0  0  0  0
 29 30  1  0  0  0  0
 29 28  1  0  0  0  0
 30 32  1  0  0  0  0
 32 35  1  0  0  0  0
 32 31  2  0  0  0  0
 33 35  2  0  0  0  0
 35 34  1  0  0  0  0
 37 40  1  0  0  0  0
 37 36  1  0  0  0  0
 38 39  1  0  0  0  0
 38 41  1  0  0  0  0
 40 41  1  0  0  0  0
 42 38  1  0  0  0  0
 42 40  1  0  0  0  0
 42 41  1  0  0  0  0
M  END
>  <MODEL>
6

>  <REMARK>
 VINA RESULT:      -6.7      2.414      4.929
  Name = 
  14 active torsions:
  status: ('A' for Active; 'I' for Inactive)
    1  A    between atoms: C_1  and  C_8
    2  A    between atoms: C_5  and  C_7
    3  A    between atoms: C_5  and  N_20
    4  A    between atoms: C_7  and  C_11
    5  A    between atoms: C_11  and  N_40
    6  A    between atoms: C_13  and  C_36
    7  A    between atoms: N_16  and  C_24
    8  A    between atoms: C_23  and  C_28
    9  A    between atoms: C_23  and  C_35
   10  A    between atoms: C_24  and  C_28
   11  A    between atoms: C_24  and  C_41
   12  A    between atoms: C_25  and  C_36
   13  A    between atoms: C_25  and  C_39
   14  A    between atoms: N_32  and  C_41
                            x       y       z     vdW  Elec       q    Type
                         _______ _______ _______ _____ _____    ______ ____

>  <TORSDO>
F 14

$$$$
=
 OpenBabel11042413413D

 42 46  0  0  1  0  0  0  0  0999 V2000
  185.7270  177.6310  143.0000 C   0  0  0  0  0  0  0  0  0  0  0  0
  189.6240  175.8760  145.8120 C   0  0  0  0  0  0  0  0  0  0  0  0
  189.9230  177.4690  142.5560 O   0  0  0  0  0  0  0  0  0  0  0  0
  186.0250  176.8430  145.2760 C   0  0  0  0  0  3  0  0  0  0  0  0
  190.2370  175.0750  146.5690 O   0  0  0  0  0  0  0  0  0  0  0  0
  187.4100  176.7740  145.0860 C   0  0  0  0  0  0  0  0  0  0  0  0
  190.2310  176.3450  144.5890 N   0  0  0  0  0  0  0  0  0  0  0  0
  185.1890  177.2620  144.2400 C   0  0  0  0  0  3  0  0  0  0  0  0
  187.9580  177.1330  143.8400 C   0  0  0  0  0  0  0  0  0  0  0  0
  189.4090  177.0140  143.6160 C   0  0  0  0  0  0  0  0  0  0  0  0
  188.4840  177.5930  147.1580 C   0  0  0  0  0  1  0  0  0  0  0  0
  187.1130  177.5590  142.8070 C   0  0  0  0  0  3  0  0  0  0  0  0
  188.2850  176.3950  146.2480 C   0  0  2  0  0  3  0  0  0  0  0  0
  184.8470  178.0900  141.9100 C   0  0  0  0  0  0  0  0  0  0  0  0
  185.3380  178.3980  140.7890 O   0  0  0  0  0  0  0  0  0  0  0  0
  183.4330  178.1770  142.1180 N   0  0  0  0  0  2  0  0  0  0  0  0
  182.5200  178.6640  141.0970 C   0  0  0  0  0  2  0  0  0  0  0  0
  181.1090  178.7350  141.6530 C   0  0  0  0  0  2  0  0  0  0  0  0
  180.0970  178.6700  140.5200 C   0  0  0  0  0  2  0  0  0  0  0  0
  178.0110  179.9050  140.8460 O   0  0  0  0  0  0  0  0  0  0  0  0
  179.3290  179.9030  140.4570 N   0  0  0  0  0  0  0  0  0  0  0  0
  179.8970  180.9790  140.1800 O   0  0  0  0  0  0  0  0  0  0  0  0
  191.6500  176.1120  144.2710 C   0  0  2  0  0  3  0  0  0  0  0  0
  191.6990  174.9580  141.8750 C   0  0  0  0  0  2  0  0  0  0  0  0
  193.1070  174.9450  142.4610 C   0  0  0  0  0  2  0  0  0  0  0  0
  191.8990  174.8850  143.3720 C   0  0  0  0  0  0  0  0  0  0  0  0
  190.4860  171.7360  144.6430 O   0  0  0  0  0  0  0  0  0  0  0  0
  191.7450  173.5660  143.9720 N   0  0  0  0  0  2  0  0  0  0  0  0
  190.5280  172.8130  143.9920 C   0  0  0  0  0  0  0  0  0  0  0  0
  189.2990  173.2940  143.2820 C   0  0  0  0  0  2  0  0  0  0  0  0
  189.6520  171.5330  141.7140 O   0  0  0  0  0  0  0  0  0  0  0  0
  189.1830  172.6840  141.9200 C   0  0  0  0  0  0  0  0  0  0  0  0
  188.3770  172.8010  139.5830 O   0  0  0  0  0  0  0  0  0  0  0  0
  188.1130  174.5850  140.9910 O   0  0  0  0  0  1  0  0  0  0  0  0
  188.5350  173.4120  140.8210 C   0  0  0  0  0  0  0  0  0  0  0  0
  192.5300  176.1100  145.5150 C   0  0  0  0  0  2  0  0  0  0  0  0
  193.9270  176.5910  145.1730 C   0  0  0  0  0  2  0  0  0  0  0  0
  196.3220  173.8130  145.3120 C   0  0  2  0  0  3  0  0  0  0  0  0
  196.9350  173.7270  146.5630 O   0  0  0  0  0  1  0  0  0  0  0  0
  194.9400  175.7760  145.9470 C   0  0  2  0  0  3  0  0  0  0  0  0
  196.0030  175.2630  144.9960 C   0  0  2  0  0  3  0  0  0  0  0  0
  194.9060  174.3380  145.4690 C   0  0  1  0  0  3  0  0  0  0  0  0
  1  8  1  0  0  0  0
  2 13  1  0  0  0  0
  2  5  2  0  0  0  0
  3 10  2  0  0  0  0
  6  4  1  0  0  0  0
  6 13  1  0  0  0  0
  7  2  1  0  0  0  0
  8  4  2  0  0  0  0
  9  6  2  0  0  0  0
 10  9  1  0  0  0  0
 10  7  1  0  0  0  0
 12  1  2  0  0  0  0
 12  9  1  0  0  0  0
 13 11  1  1  0  0  0
 14 16  1  0  0  0  0
 14  1  1  0  0  0  0
 15 14  2  0  0  0  0
 17 18  1  0  0  0  0
 17 16  1  0  0  0  0
 19 18  1  0  0  0  0
 21 19  1  0  0  0  0
 21 20  2  0  0  0  0
 22 21  2  0  0  0  0
 23  7  1  0  0  0  0
 23 36  1  1  0  0  0
 24 25  1  0  0  0  0
 24 26  1  0  0  0  0
 25 26  1  0  0  0  0
 26 28  1  0  0  0  0
 26 23  1  0  0  0  0
 28 29  1  0  0  0  0
 29 27  2  0  0  0  0
 30 29  1  0  0  0  0
 31 32  2  0  0  0  0
 32 30  1  0  0  0  0
 33 35  2  0  0  0  0
 35 34  1  0  0  0  0
 35 32  1  0  0  0  0
 37 36  1  0  0  0  0
 37 40  1  0  0  0  0
 38 42  1  0  0  0  0
 38 39  1  0  0  0  0
 41 38  1  0  0  0  0
 41 42  1  0  0  0  0
 41 40  1  0  0  0  0
 42 40  1  0  0  0  0
M  END
>  <MODEL>
7

>  <REMARK>
 VINA RESULT:      -6.7      1.801      2.902
  Name = 
  14 active torsions:
  status: ('A' for Active; 'I' for Inactive)
    1  A    between atoms: C_1  and  C_8
    2  A    between atoms: C_5  and  C_7
    3  A    between atoms: C_5  and  N_20
    4  A    between atoms: C_7  and  C_11
    5  A    between atoms: C_11  and  N_40
    6  A    between atoms: C_13  and  C_36
    7  A    between atoms: N_16  and  C_24
    8  A    between atoms: C_23  and  C_28
    9  A    between atoms: C_23  and  C_35
   10  A    between atoms: C_24  and  C_28
   11  A    between atoms: C_24  and  C_41
   12  A    between atoms: C_25  and  C_36
   13  A    between atoms: C_25  and  C_39
   14  A    between atoms: N_32  and  C_41
                            x       y       z     vdW  Elec       q    Type
                         _______ _______ _______ _____ _____    ______ ____

>  <TORSDO>
F 14

$$$$
=
 OpenBabel11042413413D

 42 46  0  0  1  0  0  0  0  0999 V2000
  195.2430  172.5370  145.5260 C   0  0  0  0  0  0  0  0  0  0  0  0
  192.4340  176.7470  144.7750 C   0  0  0  0  0  0  0  0  0  0  0  0
  191.1140  173.4160  145.4030 O   0  0  0  0  0  0  0  0  0  0  0  0
  195.6650  174.9250  145.4170 C   0  0  0  0  0  3  0  0  0  0  0  0
  192.1100  177.8420  144.2410 O   0  0  0  0  0  0  0  0  0  0  0  0
  194.2900  175.1790  145.3510 C   0  0  0  0  0  0  0  0  0  0  0  0
  191.4720  175.6770  144.9050 N   0  0  0  0  0  0  0  0  0  0  0  0
  196.1380  173.6130  145.4990 C   0  0  0  0  0  3  0  0  0  0  0  0
  193.3830  174.1020  145.3670 C   0  0  0  0  0  0  0  0  0  0  0  0
  191.9380  174.3590  145.2440 C   0  0  0  0  0  0  0  0  0  0  0  0
  193.8340  177.1620  146.7560 C   0  0  0  0  0  1  0  0  0  0  0  0
  193.8660  172.7900  145.4550 C   0  0  0  0  0  3  0  0  0  0  0  0
  193.8140  176.6050  145.3440 C   0  0  2  0  0  3  0  0  0  0  0  0
  195.7400  171.1530  145.6280 C   0  0  0  0  0  0  0  0  0  0  0  0
  196.9050  170.9310  146.0570 O   0  0  0  0  0  0  0  0  0  0  0  0
  194.8970  170.0590  145.2500 N   0  0  0  0  0  2  0  0  0  0  0  0
  195.3450  168.6770  145.2870 C   0  0  0  0  0  2  0  0  0  0  0  0
  195.5810  168.1690  143.8760 C   0  0  0  0  0  2  0  0  0  0  0  0
  197.0090  168.4640  143.4460 C   0  0  0  0  0  2  0  0  0  0  0  0
  197.1200  168.7580  141.0190 O   0  0  0  0  0  0  0  0  0  0  0  0
  197.0160  169.3190  142.2700 N   0  0  0  0  0  0  0  0  0  0  0  0
  196.7940  170.5420  142.3860 O   0  0  0  0  0  0  0  0  0  0  0  0
  190.0350  175.8710  144.6460 C   0  0  2  0  0  3  0  0  0  0  0  0
  188.2380  176.1020  142.6990 C   0  0  0  0  0  2  0  0  0  0  0  0
  189.1510  177.3240  142.6800 C   0  0  0  0  0  2  0  0  0  0  0  0
  189.6760  175.9840  143.1510 C   0  0  0  0  0  0  0  0  0  0  0  0
  191.5710  173.6090  141.0790 O   0  0  0  0  0  0  0  0  0  0  0  0
  190.6010  175.4020  142.1880 N   0  0  0  0  0  2  0  0  0  0  0  0
  190.6500  174.0150  141.8350 C   0  0  0  0  0  0  0  0  0  0  0  0
  189.6500  173.0360  142.3710 C   0  0  0  0  0  2  0  0  0  0  0  0
  187.3300  172.6630  141.9670 O   0  0  0  0  0  0  0  0  0  0  0  0
  188.4580  172.9290  141.4720 C   0  0  0  0  0  0  0  0  0  0  0  0
  189.1480  172.1270  139.2350 O   0  0  0  0  0  0  0  0  0  0  0  0
  188.1870  174.1880  139.4820 O   0  0  0  0  0  1  0  0  0  0  0  0
  188.5870  173.1250  140.0220 C   0  0  0  0  0  0  0  0  0  0  0  0
  189.4440  177.0050  145.4740 C   0  0  0  0  0  2  0  0  0  0  0  0
  188.2580  176.5090  146.2770 C   0  0  0  0  0  2  0  0  0  0  0  0
  184.6980  177.3630  146.5360 C   0  0  2  0  0  3  0  0  0  0  0  0
  184.4840  178.7290  146.3510 O   0  0  0  0  0  1  0  0  0  0  0  0
  187.1560  177.5440  146.2350 C   0  0  2  0  0  3  0  0  0  0  0  0
  186.0500  177.1400  147.1890 C   0  0  2  0  0  3  0  0  0  0  0  0
  185.8850  176.9110  145.7040 C   0  0  1  0  0  3  0  0  0  0  0  0
  1 14  1  0  0  0  0
  2  7  1  0  0  0  0
  2 13  1  0  0  0  0
  4  8  2  0  0  0  0
  5  2  2  0  0  0  0
  6  9  2  0  0  0  0
  6  4  1  0  0  0  0
  7 10  1  0  0  0  0
  8  1  1  0  0  0  0
  9 12  1  0  0  0  0
 10  9  1  0  0  0  0
 10  3  2  0  0  0  0
 12  1  2  0  0  0  0
 13  6  1  0  0  0  0
 13 11  1  1  0  0  0
 14 15  2  0  0  0  0
 16 17  1  0  0  0  0
 16 14  1  0  0  0  0
 18 17  1  0  0  0  0
 19 18  1  0  0  0  0
 20 21  2  0  0  0  0
 21 22  2  0  0  0  0
 21 19  1  0  0  0  0
 23  7  1  0  0  0  0
 23 36  1  1  0  0  0
 24 26  1  0  0  0  0
 25 24  1  0  0  0  0
 25 26  1  0  0  0  0
 26 23  1  0  0  0  0
 27 29  2  0  0  0  0
 28 26  1  0  0  0  0
 29 28  1  0  0  0  0
 29 30  1  0  0  0  0
 32 31  2  0  0  0  0
 32 30  1  0  0  0  0
 33 35  2  0  0  0  0
 34 35  1  0  0  0  0
 35 32  1  0  0  0  0
 36 37  1  0  0  0  0
 38 41  1  0  0  0  0
 39 38  1  0  0  0  0
 40 37  1  0  0  0  0
 40 41  1  0  0  0  0
 42 40  1  0  0  0  0
 42 38  1  0  0  0  0
 42 41  1  0  0  0  0
M  END
>  <MODEL>
8

>  <REMARK>
 VINA RESULT:      -6.6      4.066     10.297
  Name = 
  14 active torsions:
  status: ('A' for Active; 'I' for Inactive)
    1  A    between atoms: C_1  and  C_8
    2  A    between atoms: C_5  and  C_7
    3  A    between atoms: C_5  and  N_20
    4  A    between atoms: C_7  and  C_11
    5  A    between atoms: C_11  and  N_40
    6  A    between atoms: C_13  and  C_36
    7  A    between atoms: N_16  and  C_24
    8  A    between atoms: C_23  and  C_28
    9  A    between atoms: C_23  and  C_35
   10  A    between atoms: C_24  and  C_28
   11  A    between atoms: C_24  and  C_41
   12  A    between atoms: C_25  and  C_36
   13  A    between atoms: C_25  and  C_39
   14  A    between atoms: N_32  and  C_41
                            x       y       z     vdW  Elec       q    Type
                         _______ _______ _______ _____ _____    ______ ____

>  <TORSDO>
F 14

$$$$
=
 OpenBabel11042413413D

 42 46  0  0  1  0  0  0  0  0999 V2000
  185.0550  177.8720  144.1650 C   0  0  0  0  0  0  0  0  0  0  0  0
  188.9950  175.3170  146.1960 C   0  0  0  0  0  0  0  0  0  0  0  0
  188.5850  176.1010  142.6680 O   0  0  0  0  0  0  0  0  0  0  0  0
  185.8880  177.4340  146.4010 C   0  0  0  0  0  3  0  0  0  0  0  0
  189.5710  174.4890  146.9530 O   0  0  0  0  0  0  0  0  0  0  0  0
  187.0330  176.8280  145.8720 C   0  0  0  0  0  0  0  0  0  0  0  0
  189.2430  175.3120  144.7730 N   0  0  0  0  0  0  0  0  0  0  0  0
  184.9040  177.9470  145.5550 C   0  0  0  0  0  3  0  0  0  0  0  0
  187.1890  176.7400  144.4750 C   0  0  0  0  0  0  0  0  0  0  0  0
  188.3660  176.0570  143.9110 C   0  0  0  0  0  0  0  0  0  0  0  0
  188.9550  177.5380  147.2580 C   0  0  0  0  0  1  0  0  0  0  0  0
  186.2000  177.2620  143.6320 C   0  0  0  0  0  3  0  0  0  0  0  0
  188.1080  176.3590  146.8120 C   0  0  2  0  0  3  0  0  0  0  0  0
  184.0240  178.4280  143.2680 C   0  0  0  0  0  0  0  0  0  0  0  0
  183.2160  179.2960  143.6980 O   0  0  0  0  0  0  0  0  0  0  0  0
  183.9470  177.9900  141.9070 N   0  0  0  0  0  2  0  0  0  0  0  0
  182.9260  178.4680  140.9890 C   0  0  0  0  0  2  0  0  0  0  0  0
  181.5460  178.1520  141.5360 C   0  0  0  0  0  2  0  0  0  0  0  0
  180.4790  178.5760  140.5390 C   0  0  0  0  0  2  0  0  0  0  0  0
  178.1290  179.2410  140.6830 O   0  0  0  0  0  0  0  0  0  0  0  0
  179.1570  178.4420  141.1260 N   0  0  0  0  0  0  0  0  0  0  0  0
  178.9220  177.5190  141.9320 O   0  0  0  0  0  0  0  0  0  0  0  0
  190.3250  174.5200  144.1630 C   0  0  2  0  0  3  0  0  0  0  0  0
  190.8820  171.9220  144.0670 C   0  0  0  0  0  2  0  0  0  0  0  0
  189.6890  172.1400  144.9930 C   0  0  0  0  0  2  0  0  0  0  0  0
  189.9290  173.0710  143.8230 C   0  0  0  0  0  0  0  0  0  0  0  0
  188.2310  172.9720  140.5620 O   0  0  0  0  0  0  0  0  0  0  0  0
  188.9450  172.8690  142.7670 N   0  0  0  0  0  2  0  0  0  0  0  0
  189.1920  173.0630  141.3700 C   0  0  0  0  0  0  0  0  0  0  0  0
  190.5580  173.4010  140.8560 C   0  0  0  0  0  2  0  0  0  0  0  0
  191.4260  171.1960  140.5940 O   0  0  0  0  0  0  0  0  0  0  0  0
  191.1230  172.2840  140.0360 C   0  0  0  0  0  0  0  0  0  0  0  0
  192.6140  172.6390  138.0930 O   0  0  0  0  0  1  0  0  0  0  0  0
  190.3590  172.3920  137.7930 O   0  0  0  0  0  0  0  0  0  0  0  0
  191.3320  172.4420  138.5900 C   0  0  0  0  0  0  0  0  0  0  0  0
  191.6200  174.5970  144.9630 C   0  0  0  0  0  2  0  0  0  0  0  0
  192.5000  175.7130  144.4340 C   0  0  0  0  0  2  0  0  0  0  0  0
  196.0540  176.4280  143.8600 C   0  0  2  0  0  3  0  0  0  0  0  0
  196.8480  175.3080  144.1040 O   0  0  0  0  0  1  0  0  0  0  0  0
  193.9400  175.2500  144.4160 C   0  0  2  0  0  3  0  0  0  0  0  0
  194.8450  176.4100  144.7790 C   0  0  2  0  0  3  0  0  0  0  0  0
  194.6980  175.9930  143.3340 C   0  0  1  0  0  3  0  0  0  0  0  0
  1  8  1  0  0  0  0
  2 13  1  0  0  0  0
  2  5  2  0  0  0  0
  3 10  2  0  0  0  0
  6  4  1  0  0  0  0
  6 13  1  0  0  0  0
  7  2  1  0  0  0  0
  8  4  2  0  0  0  0
  9  6  2  0  0  0  0
 10  9  1  0  0  0  0
 10  7  1  0  0  0  0
 12  1  2  0  0  0  0
 12  9  1  0  0  0  0
 13 11  1  6  0  0  0
 14 15  2  0  0  0  0
 14  1  1  0  0  0  0
 16 14  1  0  0  0  0
 17 18  1  0  0  0  0
 17 16  1  0  0  0  0
 19 21  1  0  0  0  0
 19 18  1  0  0  0  0
 20 21  2  0  0  0  0
 21 22  2  0  0  0  0
 23  7  1  0  0  0  0
 23 36  1  1  0  0  0
 24 25  1  0  0  0  0
 26 24  1  0  0  0  0
 26 23  1  0  0  0  0
 26 25  1  0  0  0  0
 27 29  2  0  0  0  0
 28 26  1  0  0  0  0
 29 28  1  0  0  0  0
 30 29  1  0  0  0  0
 32 31  2  0  0  0  0
 32 30  1  0  0  0  0
 33 35  1  0  0  0  0
 34 35  2  0  0  0  0
 35 32  1  0  0  0  0
 37 36  1  0  0  0  0
 38 39  1  0  0  0  0
 38 41  1  0  0  0  0
 40 37  1  0  0  0  0
 40 41  1  0  0  0  0
 42 38  1  0  0  0  0
 42 40  1  0  0  0  0
 42 41  1  0  0  0  0
M  END
>  <MODEL>
9

>  <REMARK>
 VINA RESULT:      -6.6      1.758      2.480
  Name = 
  14 active torsions:
  status: ('A' for Active; 'I' for Inactive)
    1  A    between atoms: C_1  and  C_8
    2  A    between atoms: C_5  and  C_7
    3  A    between atoms: C_5  and  N_20
    4  A    between atoms: C_7  and  C_11
    5  A    between atoms: C_11  and  N_40
    6  A    between atoms: C_13  and  C_36
    7  A    between atoms: N_16  and  C_24
    8  A    between atoms: C_23  and  C_28
    9  A    between atoms: C_23  and  C_35
   10  A    between atoms: C_24  and  C_28
   11  A    between atoms: C_24  and  C_41
   12  A    between atoms: C_25  and  C_36
   13  A    between atoms: C_25  and  C_39
   14  A    between atoms: N_32  and  C_41
                            x       y       z     vdW  Elec       q    Type
                         _______ _______ _______ _____ _____    ______ ____

>  <TORSDO>
F 14

$$$$
