=
 OpenBabel11042419513D

 56 67  0  0  1  0  0  0  0  0999 V2000
  189.1440  175.9210  142.8580 C   0  0  0  0  0  0  0  0  0  0  0  0
  189.4670  175.4660  141.5980 C   0  0  0  0  0  3  0  0  0  0  0  0
  189.8750  174.1790  141.6790 N   0  0  0  0  0  0  0  0  0  0  0  0
  189.3240  174.8880  143.7600 C   0  0  0  0  0  3  0  0  0  0  0  0
  189.8080  173.8340  142.9940 C   0  0  0  0  0  0  0  0  0  0  0  0
  192.4980  173.0160  143.5920 C   0  0  0  0  0  3  0  0  0  0  0  0
  196.2630  173.0050  145.6360 O   0  0  0  0  0  0  0  0  0  0  0  0
  194.4780  171.6320  144.2070 N   0  0  0  0  0  0  0  0  0  0  0  0
  193.9880  170.2510  144.3740 C   0  0  1  0  0  3  0  0  0  0  0  0
  192.6990  169.8830  143.6820 C   0  0  0  0  0  3  0  0  0  0  0  0
  196.7230  170.3510  145.4130 C   0  0  2  0  0  3  0  0  0  0  0  0
  196.1950  168.8370  147.1760 N   0  0  0  0  0  2  0  0  0  0  0  0
  196.1210  169.0920  144.7850 C   0  0  2  0  0  3  0  0  0  0  0  0
  190.4340  172.3930  144.9940 C   0  0  0  0  0  2  0  0  0  0  0  0
  196.3300  170.2610  146.8730 C   0  0  0  0  0  2  0  0  0  0  0  0
  195.0060  169.3300  143.8510 N   0  0  0  0  0  2  0  0  0  0  0  0
  195.6830  168.2200  145.9560 C   0  0  0  0  0  2  0  0  0  0  0  0
  196.1330  171.8650  144.6590 S   0  0  0  0  0  0  0  0  0  0  0  0
  196.9520  172.1570  143.4310 O   0  0  0  0  0  0  0  0  0  0  0  0
  191.5970  170.6070  143.5230 C   0  0  0  0  0  3  0  0  0  0  0  0
  191.4210  172.0300  143.9110 C   0  0  2  0  0  0  0  0  0  0  0  0
  189.9920  172.4290  143.5290 C   0  0  2  0  0  3  0  0  0  0  0  0
  193.8070  172.8190  143.7410 C   0  0  0  0  0  3  0  0  0  0  0  0
  184.9780  178.4340  140.4630 C   0  0  0  0  0  3  0  0  0  0  0  0
  187.3090  177.5440  142.3200 C   0  0  0  0  0  0  0  0  0  0  0  0
  182.9960  178.2450  141.8290 N   0  0  0  0  0  0  0  0  0  0  0  0
  186.8460  178.1330  144.5530 N   0  0  0  0  0  0  0  0  0  0  0  0
  188.5480  177.2710  143.1040 C   0  0  1  0  0  3  0  0  0  0  0  0
  181.2340  179.2170  143.1590 C   0  0  0  0  0  1  0  0  0  0  0  0
  183.9030  179.0230  144.1780 S   0  0  0  0  0  0  0  0  0  0  0  0
  184.3820  177.8770  141.7170 C   0  0  2  0  0  3  0  0  0  0  0  0
  188.1720  177.5240  144.5680 C   0  0  0  0  0  2  0  0  0  0  0  0
  187.3310  177.6810  140.9870 C   0  0  0  0  0  3  0  0  0  0  0  0
  182.6260  178.7240  142.9670 C   0  0  0  0  0  0  0  0  0  0  0  0
  185.0430  178.3820  142.9500 C   0  0  2  0  0  3  0  0  0  0  0  0
  186.2690  178.2830  140.1370 C   0  0  0  0  0  3  0  0  0  0  0  0
  186.3100  178.0570  143.2470 C   0  0  0  0  0  0  0  0  0  0  0  0
  192.2490  172.1540  140.2340 N   0  0  0  0  0  2  0  0  0  0  0  0
  189.1470  172.5770  139.9510 C   0  0  0  0  0  0  0  0  0  0  0  0
  191.4190  173.2520  139.9790 N   0  0  0  0  0  2  0  0  0  0  0  0
  190.6770  170.0610  137.4070 N   0  0  2  0  0  0  0  0  0  0  0  0
  191.9990  169.6790  139.9390 C   0  0  0  0  0  2  0  0  0  0  0  0
  190.1200  173.3000  140.5460 C   0  0  0  0  0  0  0  0  0  0  0  0
  190.7830  171.2760  138.2550 C   0  0  1  0  0  3  0  0  0  0  0  0
  189.3730  171.6320  138.7880 C   0  0  0  0  0  2  0  0  0  0  0  0
  190.6840  168.9400  139.7140 C   0  0  0  0  0  2  0  0  0  0  0  0
  190.3510  168.8470  138.2130 C   0  0  0  0  0  2  0  0  0  0  0  0
  191.9030  171.0670  139.3170 C   0  0  1  0  0  3  0  0  0  0  0  0
  187.8310  172.6690  140.3930 O   0  0  0  0  0  1  0  0  0  0  0  0
  191.9080  170.7430  135.3560 C   0  0  2  0  0  3  0  0  0  0  0  0
  192.9990  171.7990  135.4150 C   0  0  0  0  0  2  0  0  0  0  0  0
  194.1950  169.6240  135.1350 C   0  0  0  0  0  2  0  0  0  0  0  0
  191.9290  169.8850  136.6360 C   0  0  2  0  0  3  0  0  0  0  0  0
  192.2260  168.4190  136.2420 C   0  0  0  0  0  2  0  0  0  0  0  0
  193.1850  170.5930  134.5130 C   0  0  1  0  0  3  0  0  0  0  0  0
  193.5460  168.2780  135.4590 C   0  0  0  0  0  2  0  0  0  0  0  0
  1  4  1  0  0  0  0
  2  3  1  0  0  0  0
  2  1  2  0  0  0  0
  3  5  1  0  0  0  0
  5  4  2  0  0  0  0
  6 23  2  0  0  0  0
  6 21  1  0  0  0  0
  8  9  1  0  0  0  0
  8 18  1  0  0  0  0
  9 10  1  6  0  0  0
 11 15  1  1  0  0  0
 13 11  1  0  0  0  0
 13 17  1  1  0  0  0
 15 12  1  0  0  0  0
 16  9  1  0  0  0  0
 16 13  1  0  0  0  0
 17 12  1  0  0  0  0
 18 11  1  0  0  0  0
 18  7  2  0  0  0  0
 19 18  2  0  0  0  0
 20 10  2  0  0  0  0
 21 20  1  6  0  0  0
 21 14  1  0  0  0  0
 22  5  1  6  0  0  0
 22 21  1  0  0  0  0
 22 14  1  0  0  0  0
 23  8  1  0  0  0  0
 25 28  1  0  0  0  0
 25 37  1  0  0  0  0
 26 34  2  0  0  0  0
 27 32  1  0  0  0  0
 28  1  1  1  0  0  0
 28 32  1  0  0  0  0
 31 24  1  6  0  0  0
 31 26  1  0  0  0  0
 31 35  1  0  0  0  0
 33 25  2  0  0  0  0
 34 29  1  0  0  0  0
 34 30  1  0  0  0  0
 35 37  1  1  0  0  0
 35 30  1  0  0  0  0
 36 24  2  0  0  0  0
 36 33  1  0  0  0  0
 37 27  2  0  0  0  0
 39 49  1  0  0  0  0
 39 43  2  0  0  0  0
 40 38  1  0  0  0  0
 40 43  1  0  0  0  0
 41 47  1  1  0  0  0
 41 44  1  0  0  0  0
 43  3  1  0  0  0  0
 44 45  1  1  0  0  0
 44 48  1  0  0  0  0
 45 39  1  0  0  0  0
 46 42  1  0  0  0  0
 47 46  1  0  0  0  0
 48 42  1  1  0  0  0
 48 38  1  0  0  0  0
 50 51  1  1  0  0  0
 50 53  1  0  0  0  0
 52 56  1  0  0  0  0
 53 54  1  6  0  0  0
 53 41  1  0  0  0  0
 55 52  1  1  0  0  0
 55 50  1  0  0  0  0
 55 51  1  0  0  0  0
 56 54  1  0  0  0  0
M  END
>  <MODEL>
1

>  <REMARK>
 VINA RESULT:      -7.9      0.000      0.000
  Name = 
  4 active torsions:
  status: ('A' for Active; 'I' for Inactive)
    1  A    between atoms: C_9  and  C_17
    2  A    between atoms: N_23  and  C_36
    3  A    between atoms: N_27  and  C_34
    4  A    between atoms: C_33  and  C_54
                            x       y       z     vdW  Elec       q    Type
                         _______ _______ _______ _____ _____    ______ ____

>  <TORSDO>
F 4

$$$$
=
 OpenBabel11042419513D

 56 67  0  0  1  0  0  0  0  0999 V2000
  187.8370  176.8980  143.0560 C   0  0  0  0  0  0  0  0  0  0  0  0
  188.0480  176.2650  141.8500 C   0  0  0  0  0  3  0  0  0  0  0  0
  188.7270  175.1140  142.0630 N   0  0  0  0  0  0  0  0  0  0  0  0
  188.3700  176.1150  144.0640 C   0  0  0  0  0  3  0  0  0  0  0  0
  188.9400  175.0330  143.4040 C   0  0  0  0  0  0  0  0  0  0  0  0
  191.7950  174.6990  143.3560 C   0  0  0  0  0  3  0  0  0  0  0  0
  195.8940  175.6020  144.2110 O   0  0  0  0  0  0  0  0  0  0  0  0
  194.0770  173.7370  143.6310 N   0  0  0  0  0  0  0  0  0  0  0  0
  193.8970  172.3830  144.1860 C   0  0  1  0  0  3  0  0  0  0  0  0
  192.5620  171.7160  143.9700 C   0  0  0  0  0  3  0  0  0  0  0  0
  196.7440  173.0410  144.3670 C   0  0  2  0  0  3  0  0  0  0  0  0
  196.9540  171.9180  146.4590 N   0  0  0  0  0  2  0  0  0  0  0  0
  196.2360  171.6100  144.1840 C   0  0  2  0  0  3  0  0  0  0  0  0
  190.2950  174.1720  145.3770 C   0  0  0  0  0  2  0  0  0  0  0  0
  196.7550  173.2420  145.8690 C   0  0  0  0  0  2  0  0  0  0  0  0
  194.8970  171.4940  143.5780 N   0  0  0  0  0  2  0  0  0  0  0  0
  196.2680  170.9830  145.5730 C   0  0  0  0  0  2  0  0  0  0  0  0
  195.7260  174.2620  143.5420 S   0  0  0  0  0  0  0  0  0  0  0  0
  196.1430  174.3610  142.1000 O   0  0  0  0  0  0  0  0  0  0  0  0
  191.3460  172.2490  143.9980 C   0  0  0  0  0  3  0  0  0  0  0  0
  191.0250  173.6910  144.1470 C   0  0  2  0  0  0  0  0  0  0  0  0
  189.4980  173.8200  144.1190 C   0  0  2  0  0  3  0  0  0  0  0  0
  193.1120  174.6980  143.1610 C   0  0  0  0  0  3  0  0  0  0  0  0
  183.5550  178.6150  140.2060 C   0  0  0  0  0  3  0  0  0  0  0  0
  185.8230  178.1810  142.2900 C   0  0  0  0  0  0  0  0  0  0  0  0
  181.5140  178.1550  141.4120 N   0  0  0  0  0  0  0  0  0  0  0  0
  185.0760  178.7650  144.4460 N   0  0  0  0  0  0  0  0  0  0  0  0
  187.0150  178.1410  143.1850 C   0  0  1  0  0  3  0  0  0  0  0  0
  179.5090  178.8730  142.5430 C   0  0  0  0  0  1  0  0  0  0  0  0
  182.0730  179.1520  143.7870 S   0  0  0  0  0  0  0  0  0  0  0  0
  182.9460  178.0130  141.4320 C   0  0  2  0  0  3  0  0  0  0  0  0
  186.4750  178.3810  144.5990 C   0  0  0  0  0  2  0  0  0  0  0  0
  185.9410  178.2730  140.9580 C   0  0  0  0  0  3  0  0  0  0  0  0
  180.9730  178.6070  142.4910 C   0  0  0  0  0  0  0  0  0  0  0  0
  183.4060  178.6620  142.6900 C   0  0  2  0  0  3  0  0  0  0  0  0
  184.8780  178.6640  139.9950 C   0  0  0  0  0  3  0  0  0  0  0  0
  184.6760  178.5580  143.1060 C   0  0  0  0  0  0  0  0  0  0  0  0
  191.1910  173.6880  140.1340 N   0  0  0  0  0  2  0  0  0  0  0  0
  188.2640  172.9370  141.0000 C   0  0  0  0  0  0  0  0  0  0  0  0
  189.9440  174.3180  140.0570 N   0  0  0  0  0  2  0  0  0  0  0  0
  189.8840  170.4700  138.4640 N   0  0  2  0  0  0  0  0  0  0  0  0
  191.9230  171.3000  140.3250 C   0  0  0  0  0  2  0  0  0  0  0  0
  188.9720  174.0850  141.0640 C   0  0  0  0  0  0  0  0  0  0  0  0
  189.7160  171.8380  139.0180 C   0  0  1  0  0  3  0  0  0  0  0  0
  188.5110  171.8340  139.9920 C   0  0  0  0  0  2  0  0  0  0  0  0
  191.0340  170.1280  140.7310 C   0  0  0  0  0  2  0  0  0  0  0  0
  190.3470  169.5020  139.5030 C   0  0  0  0  0  2  0  0  0  0  0  0
  191.0780  172.3330  139.5900 C   0  0  1  0  0  3  0  0  0  0  0  0
  187.2230  172.7010  141.8930 O   0  0  0  0  0  1  0  0  0  0  0  0
  190.0330  170.7510  135.9980 C   0  0  2  0  0  3  0  0  0  0  0  0
  190.4310  172.0840  135.3850 C   0  0  0  0  0  2  0  0  0  0  0  0
  192.4250  170.6050  135.1100 C   0  0  0  0  0  2  0  0  0  0  0  0
  190.8080  170.5160  137.3080 C   0  0  2  0  0  3  0  0  0  0  0  0
  191.6770  169.2460  137.1460 C   0  0  0  0  0  2  0  0  0  0  0  0
  190.9460  170.8000  134.7620 C   0  0  1  0  0  3  0  0  0  0  0  0
  192.6370  169.3410  135.9440 C   0  0  0  0  0  2  0  0  0  0  0  0
  1  4  1  0  0  0  0
  2  3  1  0  0  0  0
  2  1  2  0  0  0  0
  3  5  1  0  0  0  0
  5  4  2  0  0  0  0
  8  9  1  0  0  0  0
  9 10  1  6  0  0  0
 10 20  2  0  0  0  0
 11 15  1  1  0  0  0
 13 11  1  0  0  0  0
 13 17  1  1  0  0  0
 15 12  1  0  0  0  0
 16 13  1  0  0  0  0
 16  9  1  0  0  0  0
 17 12  1  0  0  0  0
 18  8  1  0  0  0  0
 18  7  2  0  0  0  0
 18 11  1  0  0  0  0
 19 18  2  0  0  0  0
 20 21  1  0  0  0  0
 21  6  1  6  0  0  0
 21 14  1  0  0  0  0
 22  5  1  6  0  0  0
 22 21  1  0  0  0  0
 22 14  1  0  0  0  0
 23  6  2  0  0  0  0
 23  8  1  0  0  0  0
 25 37  1  0  0  0  0
 25 28  1  0  0  0  0
 26 31  1  0  0  0  0
 26 34  2  0  0  0  0
 27 32  1  0  0  0  0
 28  1  1  1  0  0  0
 28 32  1  0  0  0  0
 31 24  1  6  0  0  0
 31 35  1  0  0  0  0
 33 25  2  0  0  0  0
 34 29  1  0  0  0  0
 34 30  1  0  0  0  0
 35 37  1  1  0  0  0
 35 30  1  0  0  0  0
 36 24  2  0  0  0  0
 36 33  1  0  0  0  0
 37 27  2  0  0  0  0
 39 43  2  0  0  0  0
 39 49  1  0  0  0  0
 40 38  1  0  0  0  0
 40 43  1  0  0  0  0
 41 44  1  0  0  0  0
 41 47  1  1  0  0  0
 42 46  1  0  0  0  0
 43  3  1  0  0  0  0
 44 48  1  0  0  0  0
 44 45  1  1  0  0  0
 45 39  1  0  0  0  0
 47 46  1  0  0  0  0
 48 38  1  0  0  0  0
 48 42  1  1  0  0  0
 50 51  1  1  0  0  0
 50 53  1  0  0  0  0
 52 56  1  0  0  0  0
 53 54  1  6  0  0  0
 53 41  1  0  0  0  0
 55 52  1  1  0  0  0
 55 51  1  0  0  0  0
 55 50  1  0  0  0  0
 56 54  1  0  0  0  0
M  END
>  <MODEL>
2

>  <REMARK>
 VINA RESULT:      -7.5      1.575      1.947
  Name = 
  4 active torsions:
  status: ('A' for Active; 'I' for Inactive)
    1  A    between atoms: C_9  and  C_17
    2  A    between atoms: N_23  and  C_36
    3  A    between atoms: N_27  and  C_34
    4  A    between atoms: C_33  and  C_54
                            x       y       z     vdW  Elec       q    Type
                         _______ _______ _______ _____ _____    ______ ____

>  <TORSDO>
F 4

$$$$
=
 OpenBabel11042419513D

 56 67  0  0  1  0  0  0  0  0999 V2000
  189.3120  175.5630  143.0230 C   0  0  0  0  0  0  0  0  0  0  0  0
  190.5150  175.1830  143.5800 C   0  0  0  0  0  3  0  0  0  0  0  0
  190.7860  173.9050  143.2300 N   0  0  0  0  0  0  0  0  0  0  0  0
  188.8210  174.5080  142.2750 C   0  0  0  0  0  3  0  0  0  0  0  0
  189.7490  173.4890  142.4550 C   0  0  0  0  0  0  0  0  0  0  0  0
  190.4630  173.6100  139.6720 C   0  0  0  0  0  3  0  0  0  0  0  0
  192.9940  174.1810  136.2640 O   0  0  0  0  0  0  0  0  0  0  0  0
  190.8400  172.9880  137.2890 N   0  0  0  0  0  0  0  0  0  0  0  0
  190.3600  171.6020  137.1370 C   0  0  1  0  0  3  0  0  0  0  0  0
  189.3560  171.1000  138.1440 C   0  0  0  0  0  3  0  0  0  0  0  0
  191.8400  172.2970  134.7080 C   0  0  2  0  0  3  0  0  0  0  0  0
  192.7410  170.0980  134.5300 N   0  0  0  0  0  2  0  0  0  0  0  0
  190.6700  171.3100  134.7110 C   0  0  2  0  0  3  0  0  0  0  0  0
  191.1040  171.6950  141.2640 C   0  0  0  0  0  2  0  0  0  0  0  0
  193.0500  171.4410  135.0200 C   0  0  0  0  0  2  0  0  0  0  0  0
  189.7160  171.4740  135.8230 N   0  0  0  0  0  2  0  0  0  0  0  0
  191.3050  169.9240  134.7290 C   0  0  0  0  0  2  0  0  0  0  0  0
  191.6430  173.6260  135.8930 S   0  0  0  0  0  0  0  0  0  0  0  0
  190.8010  174.7130  135.2830 O   0  0  0  0  0  0  0  0  0  0  0  0
  189.2930  171.3300  139.4500 C   0  0  0  0  0  3  0  0  0  0  0  0
  190.1670  172.2510  140.2200 C   0  0  2  0  0  0  0  0  0  0  0  0
  189.7160  172.1850  141.6830 C   0  0  2  0  0  3  0  0  0  0  0  0
  190.7610  173.8950  138.4060 C   0  0  0  0  0  3  0  0  0  0  0  0
  185.2880  178.0040  140.3310 C   0  0  0  0  0  3  0  0  0  0  0  0
  187.5590  177.2030  142.3000 C   0  0  0  0  0  0  0  0  0  0  0  0
  183.2870  178.0440  141.6830 N   0  0  0  0  0  0  0  0  0  0  0  0
  187.1040  178.0350  144.4560 N   0  0  0  0  0  0  0  0  0  0  0  0
  188.7770  176.9560  143.1230 C   0  0  1  0  0  3  0  0  0  0  0  0
  181.5600  179.2220  142.8840 C   0  0  0  0  0  1  0  0  0  0  0  0
  184.2080  179.0130  143.9530 S   0  0  0  0  0  0  0  0  0  0  0  0
  184.6550  177.6040  141.6270 C   0  0  2  0  0  3  0  0  0  0  0  0
  188.4010  177.3720  144.5490 C   0  0  0  0  0  2  0  0  0  0  0  0
  187.5990  177.2030  140.9600 C   0  0  0  0  0  3  0  0  0  0  0  0
  182.9290  178.6510  142.7620 C   0  0  0  0  0  0  0  0  0  0  0  0
  185.3290  178.2020  142.8120 C   0  0  2  0  0  3  0  0  0  0  0  0
  186.5730  177.7630  140.0400 C   0  0  0  0  0  3  0  0  0  0  0  0
  186.5760  177.8520  143.1570 C   0  0  0  0  0  0  0  0  0  0  0  0
  192.1290  170.9090  144.2510 N   0  0  0  0  0  2  0  0  0  0  0  0
  193.1710  173.4790  142.7700 C   0  0  0  0  0  0  0  0  0  0  0  0
  192.1300  172.2800  144.5300 N   0  0  0  0  0  2  0  0  0  0  0  0
  195.9240  170.8490  143.5780 N   0  0  2  0  0  0  0  0  0  0  0  0
  193.5380  169.4300  142.8010 C   0  0  0  0  0  2  0  0  0  0  0  0
  192.0450  173.2160  143.4680 C   0  0  0  0  0  0  0  0  0  0  0  0
  194.6460  171.5330  143.9040 C   0  0  1  0  0  3  0  0  0  0  0  0
  194.4900  172.7610  142.9740 C   0  0  0  0  0  2  0  0  0  0  0  0
  194.4690  169.9030  141.6890 C   0  0  0  0  0  2  0  0  0  0  0  0
  195.8790  170.1980  142.2350 C   0  0  0  0  0  2  0  0  0  0  0  0
  193.4860  170.4930  143.8920 C   0  0  1  0  0  3  0  0  0  0  0  0
  193.1790  174.4660  141.7900 O   0  0  0  0  0  1  0  0  0  0  0  0
  196.1700  170.5420  146.0340 C   0  0  2  0  0  3  0  0  0  0  0  0
  195.0620  169.9070  146.8570 C   0  0  0  0  0  2  0  0  0  0  0  0
  196.8450  168.1660  146.6890 C   0  0  0  0  0  2  0  0  0  0  0  0
  196.2490  169.8760  144.6460 C   0  0  2  0  0  3  0  0  0  0  0  0
  197.6410  169.2170  144.4950 C   0  0  0  0  0  2  0  0  0  0  0  0
  196.5070  169.5760  147.1820 C   0  0  1  0  0  3  0  0  0  0  0  0
  197.9320  168.1990  145.6150 C   0  0  0  0  0  2  0  0  0  0  0  0
  1  2  2  0  0  0  0
  3 43  1  0  0  0  0
  3  2  1  0  0  0  0
  4  5  2  0  0  0  0
  4  1  1  0  0  0  0
  5  3  1  0  0  0  0
  6 21  1  0  0  0  0
  8 23  1  0  0  0  0
  9  8  1  0  0  0  0
  9 10  1  1  0  0  0
 10 20  2  0  0  0  0
 11 13  1  0  0  0  0
 11 15  1  1  0  0  0
 11 18  1  0  0  0  0
 12 17  1  0  0  0  0
 12 15  1  0  0  0  0
 13 17  1  1  0  0  0
 13 16  1  0  0  0  0
 14 22  1  0  0  0  0
 16  9  1  0  0  0  0
 18  7  2  0  0  0  0
 18  8  1  0  0  0  0
 19 18  2  0  0  0  0
 21 20  1  6  0  0  0
 21 14  1  0  0  0  0
 21 22  1  0  0  0  0
 22  5  1  1  0  0  0
 23  6  2  0  0  0  0
 25 28  1  0  0  0  0
 25 37  1  0  0  0  0
 26 34  2  0  0  0  0
 27 32  1  0  0  0  0
 28  1  1  1  0  0  0
 28 32  1  0  0  0  0
 31 24  1  6  0  0  0
 31 26  1  0  0  0  0
 31 35  1  0  0  0  0
 33 25  2  0  0  0  0
 34 29  1  0  0  0  0
 34 30  1  0  0  0  0
 35 37  1  1  0  0  0
 35 30  1  0  0  0  0
 36 24  2  0  0  0  0
 36 33  1  0  0  0  0
 37 27  2  0  0  0  0
 38 40  1  0  0  0  0
 39 45  1  0  0  0  0
 39 43  2  0  0  0  0
 41 47  1  6  0  0  0
 41 44  1  0  0  0  0
 41 53  1  0  0  0  0
 43 40  1  0  0  0  0
 44 45  1  6  0  0  0
 46 47  1  0  0  0  0
 46 42  1  0  0  0  0
 48 42  1  6  0  0  0
 48 44  1  0  0  0  0
 48 38  1  0  0  0  0
 49 39  1  0  0  0  0
 50 51  1  1  0  0  0
 50 55  1  0  0  0  0
 51 55  1  0  0  0  0
 53 54  1  6  0  0  0
 53 50  1  0  0  0  0
 54 56  1  0  0  0  0
 55 52  1  6  0  0  0
 56 52  1  0  0  0  0
M  END
>  <MODEL>
3

>  <REMARK>
 VINA RESULT:      -6.8      2.375      6.974
  Name = 
  4 active torsions:
  status: ('A' for Active; 'I' for Inactive)
    1  A    between atoms: C_9  and  C_17
    2  A    between atoms: N_23  and  C_36
    3  A    between atoms: N_27  and  C_34
    4  A    between atoms: C_33  and  C_54
                            x       y       z     vdW  Elec       q    Type
                         _______ _______ _______ _____ _____    ______ ____

>  <TORSDO>
F 4

$$$$
