=
 OpenBabel11042419053D

 43 45  0  0  1  0  0  0  0  0999 V2000
  185.3570  176.7320  143.4030 C   0  0  0  0  0  3  0  0  0  0  0  0
  190.8830  177.5030  143.0890 C   0  0  0  0  0  2  0  0  0  0  0  0
  189.9200  175.2800  142.2380 C   0  0  0  0  0  0  0  0  0  0  0  0
  191.2890  174.3770  145.7090 C   0  0  0  0  0  3  0  0  0  0  0  0
  193.0760  174.9660  144.1230 C   0  0  0  0  0  0  0  0  0  0  0  0
  186.2620  178.6740  144.8170 C   0  0  0  0  0  0  0  0  0  0  0  0
  186.0400  179.8190  145.2930 O   0  0  0  0  0  0  0  0  0  0  0  0
  185.2600  178.0320  144.0050 N   0  0  0  0  0  0  0  0  0  0  0  0
  189.8730  177.8270  144.2070 C   0  0  0  0  0  2  0  0  0  0  0  0
  188.3540  177.7510  143.8590 C   0  0  2  0  0  3  0  0  0  0  0  0
  189.0730  175.1710  146.8330 C   0  0  0  0  0  3  0  0  0  0  0  0
  187.5720  178.0410  145.1340 C   0  0  2  0  0  3  0  0  0  0  0  0
  188.7180  176.6170  146.8450 C   0  0  0  0  0  2  0  0  0  0  0  0
  193.3060  176.3390  142.1690 O   0  0  0  0  0  1  0  0  0  0  0  0
  190.1860  174.7760  146.2790 C   0  0  0  0  0  0  0  0  0  0  0  0
  192.4700  175.4200  142.8080 C   0  0  2  0  0  3  0  0  0  0  0  0
  187.4240  176.8490  146.0830 C   0  0  0  0  0  2  0  0  0  0  0  0
  191.0510  175.9760  142.9480 C   0  0  1  0  0  3  0  0  0  0  0  0
  188.7780  175.7350  142.6320 C   0  0  0  0  0  0  0  0  0  0  0  0
  186.4650  176.0690  143.0520 C   0  0  0  0  0  3  0  0  0  0  0  0
  187.8720  176.4780  143.1770 C   0  0  0  0  0  0  0  0  0  0  0  0
  194.1980  174.1930  144.1420 C   0  0  0  0  0  0  0  0  0  0  0  0
  183.9580  178.6700  143.8900 C   0  0  0  0  0  1  0  0  0  0  0  0
  192.3750  175.3530  145.4010 C   0  0  0  0  0  2  0  0  0  0  0  0
  195.6560  174.7670  146.0800 O   0  0  0  0  0  1  0  0  0  0  0  0
  194.7880  172.6670  145.8970 O   0  0  0  0  0  0  0  0  0  0  0  0
  194.8900  173.8210  145.4060 C   0  0  0  0  0  0  0  0  0  0  0  0
  190.0210  174.5950  140.9410 C   0  0  0  0  0  3  0  0  0  0  0  0
  188.9700  174.0980  140.3040 C   0  0  0  0  0  3  0  0  0  0  0  0
  189.1360  173.3900  139.0080 C   0  0  0  0  0  2  0  0  0  0  0  0
  190.5650  172.8940  138.8980 C   0  0  0  0  0  2  0  0  0  0  0  0
  190.6200  171.4280  139.1480 C   0  0  0  0  0  0  0  0  0  0  0  0
  189.8190  170.4170  138.1300 S   0  0  0  0  0  0  0  0  0  0  0  0
  191.3220  170.9570  140.3100 N   0  0  0  0  0  2  0  0  0  0  0  0
  189.6750  171.2540  141.9600 O   0  0  0  0  0  0  0  0  0  0  0  0
  190.8620  170.9510  141.6670 C   0  0  0  0  0  0  0  0  0  0  0  0
  191.7960  170.5340  142.7490 C   0  0  0  0  0  2  0  0  0  0  0  0
  191.5910  171.4040  143.9710 C   0  0  0  0  0  1  0  0  0  0  0  0
  194.7890  173.6650  142.8870 C   0  0  0  0  0  0  0  0  0  0  0  0
  194.1830  172.7810  142.2180 O   0  0  0  0  0  0  0  0  0  0  0  0
  196.0420  174.1240  142.4680 O   0  0  0  0  0  0  0  0  0  0  0  0
  196.8850  176.0530  141.2870 C   0  0  0  0  0  1  0  0  0  0  0  0
  196.4500  175.4780  142.6210 C   0  0  0  0  0  2  0  0  0  0  0  0
  1  8  1  0  0  0  0
  2  9  1  0  0  0  0
  3 19  2  0  0  0  0
  3 18  1  0  0  0  0
  4 15  2  0  0  0  0
  5 22  2  0  0  0  0
  5 24  1  0  0  0  0
  6 12  1  0  0  0  0
  6  7  2  0  0  0  0
  8  6  1  0  0  0  0
 10  9  1  1  0  0  0
 10 12  1  0  0  0  0
 11 13  1  0  0  0  0
 12 17  1  6  0  0  0
 15 11  2  0  0  0  0
 16 14  1  1  0  0  0
 16 18  1  0  0  0  0
 16  5  1  0  0  0  0
 17 13  1  0  0  0  0
 18  2  1  6  0  0  0
 19 21  2  0  0  0  0
 20 21  1  0  0  0  0
 20  1  2  0  0  0  0
 21 10  1  0  0  0  0
 22 27  1  0  0  0  0
 23  8  1  0  0  0  0
 24  4  1  0  0  0  0
 27 26  2  0  0  0  0
 27 25  1  0  0  0  0
 28  3  1  0  0  0  0
 29 28  2  0  0  0  0
 30 29  1  0  0  0  0
 31 30  1  0  0  0  0
 31 32  1  0  0  0  0
 32 34  1  0  0  0  0
 33 32  2  0  0  0  0
 34 36  1  0  0  0  0
 36 35  2  0  0  0  0
 36 37  1  0  0  0  0
 37 38  1  0  0  0  0
 39 22  1  0  0  0  0
 40 39  2  0  0  0  0
 41 43  1  0  0  0  0
 41 39  1  0  0  0  0
 42 43  1  0  0  0  0
M  END
>  <MODEL>
1

>  <REMARK>
 VINA RESULT:      -7.2      0.000      0.000
  Name = 
  10 active torsions:
  status: ('A' for Active; 'I' for Inactive)
    1  A    between atoms: C_1  and  C_6
    2  A    between atoms: C_5  and  C_15
    3  A    between atoms: N_10  and  C_24
    4  A    between atoms: C_13  and  O_40
    5  A    between atoms: C_14  and  C_15
    6  A    between atoms: C_14  and  C_24
    7  A    between atoms: C_19  and  C_34
    8  A    between atoms: C_23  and  C_38
    9  A    between atoms: C_23  and  O_40
   10  A    between atoms: C_27  and  C_38
                            x       y       z     vdW  Elec       q    Type
                         _______ _______ _______ _____ _____    ______ ____

>  <TORSDO>
F 10

$$$$
=
 OpenBabel11042419053D

 43 45  0  0  1  0  0  0  0  0999 V2000
  185.2160  176.8530  143.3600 C   0  0  0  0  0  3  0  0  0  0  0  0
  190.7720  177.3560  143.0510 C   0  0  0  0  0  2  0  0  0  0  0  0
  189.7000  175.2000  142.1600 C   0  0  0  0  0  0  0  0  0  0  0  0
  191.0260  174.1640  145.6100 C   0  0  0  0  0  3  0  0  0  0  0  0
  192.8390  174.6950  144.0330 C   0  0  0  0  0  0  0  0  0  0  0  0
  186.2170  178.7210  144.8100 C   0  0  0  0  0  0  0  0  0  0  0  0
  186.0520  179.8670  145.3080 O   0  0  0  0  0  0  0  0  0  0  0  0
  185.1830  178.1450  143.9870 N   0  0  0  0  0  0  0  0  0  0  0  0
  189.7810  177.7080  144.1770 C   0  0  0  0  0  2  0  0  0  0  0  0
  188.2600  177.7150  143.8300 C   0  0  2  0  0  3  0  0  0  0  0  0
  188.8520  175.0460  146.7530 C   0  0  0  0  0  3  0  0  0  0  0  0
  187.4940  178.0180  145.1120 C   0  0  2  0  0  3  0  0  0  0  0  0
  188.5700  176.5070  146.7940 C   0  0  0  0  0  2  0  0  0  0  0  0
  193.1350  176.0920  142.1050 O   0  0  0  0  0  1  0  0  0  0  0  0
  189.9440  174.6060  146.1890 C   0  0  0  0  0  0  0  0  0  0  0  0
  192.2540  175.2040  142.7270 C   0  0  2  0  0  3  0  0  0  0  0  0
  187.2880  176.8170  146.0380 C   0  0  0  0  0  2  0  0  0  0  0  0
  190.8650  175.8260  142.8810 C   0  0  1  0  0  3  0  0  0  0  0  0
  188.5830  175.7030  142.5640 C   0  0  0  0  0  0  0  0  0  0  0  0
  186.2890  176.1430  142.9950 C   0  0  0  0  0  3  0  0  0  0  0  0
  187.7140  176.4810  143.1250 C   0  0  0  0  0  0  0  0  0  0  0  0
  193.9210  173.8670  144.0350 C   0  0  0  0  0  0  0  0  0  0  0  0
  183.9150  178.8490  143.8860 C   0  0  0  0  0  1  0  0  0  0  0  0
  192.1580  175.0920  145.3190 C   0  0  0  0  0  2  0  0  0  0  0  0
  194.2380  172.2350  145.8900 O   0  0  0  0  0  1  0  0  0  0  0  0
  195.5010  174.1310  145.8210 O   0  0  0  0  0  0  0  0  0  0  0  0
  194.5950  173.4380  145.2900 C   0  0  0  0  0  0  0  0  0  0  0  0
  189.7660  174.5370  140.8490 C   0  0  0  0  0  3  0  0  0  0  0  0
  188.6870  174.1900  140.1620 C   0  0  0  0  0  3  0  0  0  0  0  0
  188.8150  173.4950  138.8540 C   0  0  0  0  0  2  0  0  0  0  0  0
  189.0840  172.0240  139.1020 C   0  0  0  0  0  2  0  0  0  0  0  0
  190.1640  171.5400  138.1990 C   0  0  0  0  0  0  0  0  0  0  0  0
  189.9430  170.1320  137.3810 S   0  0  0  0  0  0  0  0  0  0  0  0
  191.3850  172.2920  138.1260 N   0  0  0  0  0  2  0  0  0  0  0  0
  192.8700  170.8090  139.1840 O   0  0  0  0  0  0  0  0  0  0  0  0
  192.6630  171.9420  138.6730 C   0  0  0  0  0  0  0  0  0  0  0  0
  193.7800  172.9230  138.5960 C   0  0  0  0  0  2  0  0  0  0  0  0
  193.3210  174.2680  139.1160 C   0  0  0  0  0  1  0  0  0  0  0  0
  194.4840  173.3350  142.7690 C   0  0  0  0  0  0  0  0  0  0  0  0
  195.5710  173.7870  142.3120 O   0  0  0  0  0  0  0  0  0  0  0  0
  193.7820  172.3520  142.0610 O   0  0  0  0  0  0  0  0  0  0  0  0
  191.5100  171.5870  142.3330 C   0  0  0  0  0  1  0  0  0  0  0  0
  192.9650  171.3830  142.7060 C   0  0  0  0  0  2  0  0  0  0  0  0
  1  8  1  0  0  0  0
  2  9  1  0  0  0  0
  3 19  2  0  0  0  0
  3 18  1  0  0  0  0
  4 15  2  0  0  0  0
  5 22  2  0  0  0  0
  5 24  1  0  0  0  0
  6 12  1  0  0  0  0
  6  7  2  0  0  0  0
  8  6  1  0  0  0  0
 10  9  1  1  0  0  0
 10 12  1  0  0  0  0
 11 13  1  0  0  0  0
 12 17  1  6  0  0  0
 15 11  2  0  0  0  0
 16 14  1  1  0  0  0
 16 18  1  0  0  0  0
 16  5  1  0  0  0  0
 17 13  1  0  0  0  0
 18  2  1  6  0  0  0
 19 21  2  0  0  0  0
 20 21  1  0  0  0  0
 20  1  2  0  0  0  0
 21 10  1  0  0  0  0
 22 27  1  0  0  0  0
 23  8  1  0  0  0  0
 24  4  1  0  0  0  0
 27 26  2  0  0  0  0
 27 25  1  0  0  0  0
 28  3  1  0  0  0  0
 29 28  2  0  0  0  0
 30 31  1  0  0  0  0
 30 29  1  0  0  0  0
 32 31  1  0  0  0  0
 33 32  2  0  0  0  0
 34 32  1  0  0  0  0
 34 36  1  0  0  0  0
 36 35  2  0  0  0  0
 37 36  1  0  0  0  0
 37 38  1  0  0  0  0
 39 22  1  0  0  0  0
 40 39  2  0  0  0  0
 41 43  1  0  0  0  0
 41 39  1  0  0  0  0
 42 43  1  0  0  0  0
M  END
>  <MODEL>
2

>  <REMARK>
 VINA RESULT:      -7.1      1.201      2.198
  Name = 
  10 active torsions:
  status: ('A' for Active; 'I' for Inactive)
    1  A    between atoms: C_1  and  C_6
    2  A    between atoms: C_5  and  C_15
    3  A    between atoms: N_10  and  C_24
    4  A    between atoms: C_13  and  O_40
    5  A    between atoms: C_14  and  C_15
    6  A    between atoms: C_14  and  C_24
    7  A    between atoms: C_19  and  C_34
    8  A    between atoms: C_23  and  C_38
    9  A    between atoms: C_23  and  O_40
   10  A    between atoms: C_27  and  C_38
                            x       y       z     vdW  Elec       q    Type
                         _______ _______ _______ _____ _____    ______ ____

>  <TORSDO>
F 10

$$$$
=
 OpenBabel11042419053D

 43 45  0  0  1  0  0  0  0  0999 V2000
  189.5140  172.9390  137.3020 C   0  0  0  0  0  3  0  0  0  0  0  0
  190.8560  172.2400  142.6810 C   0  0  0  0  0  2  0  0  0  0  0  0
  189.5860  174.3700  142.0170 C   0  0  0  0  0  0  0  0  0  0  0  0
  193.2170  175.5730  142.3420 C   0  0  0  0  0  3  0  0  0  0  0  0
  192.2620  174.8890  144.5040 C   0  0  0  0  0  0  0  0  0  0  0  0
  191.2830  171.1330  137.7520 C   0  0  0  0  0  0  0  0  0  0  0  0
  191.7680  170.0260  137.3940 O   0  0  0  0  0  0  0  0  0  0  0  0
  190.1680  171.6900  137.0280 N   0  0  0  0  0  0  0  0  0  0  0  0
  191.6620  171.9900  141.3920 C   0  0  0  0  0  2  0  0  0  0  0  0
  190.8890  172.0110  140.0370 C   0  0  2  0  0  3  0  0  0  0  0  0
  193.7230  174.8340  139.8910 C   0  0  0  0  0  3  0  0  0  0  0  0
  191.9080  171.8110  138.9200 C   0  0  2  0  0  3  0  0  0  0  0  0
  193.7520  173.3880  139.5380 C   0  0  0  0  0  2  0  0  0  0  0  0
  190.5740  173.3660  145.2740 O   0  0  0  0  0  1  0  0  0  0  0  0
  193.4790  175.2020  141.1190 C   0  0  0  0  0  0  0  0  0  0  0  0
  190.8700  174.3200  144.2960 C   0  0  2  0  0  3  0  0  0  0  0  0
  192.6730  173.0730  138.5150 C   0  0  0  0  0  2  0  0  0  0  0  0
  190.6450  173.7530  142.8930 C   0  0  1  0  0  3  0  0  0  0  0  0
  189.6740  173.9290  140.8070 C   0  0  0  0  0  0  0  0  0  0  0  0
  189.4410  173.5900  138.4680 C   0  0  0  0  0  3  0  0  0  0  0  0
  189.9960  173.2160  139.7780 C   0  0  0  0  0  0  0  0  0  0  0  0
  192.5370  175.6790  145.5790 C   0  0  0  0  0  0  0  0  0  0  0  0
  189.7390  171.0230  135.8100 C   0  0  0  0  0  1  0  0  0  0  0  0
  193.3140  174.5930  143.4640 C   0  0  0  0  0  2  0  0  0  0  0  0
  194.3110  177.4260  145.4560 O   0  0  0  0  0  0  0  0  0  0  0  0
  194.7260  175.4620  146.5380 O   0  0  0  0  0  1  0  0  0  0  0  0
  193.9110  176.1640  145.8830 C   0  0  0  0  0  0  0  0  0  0  0  0
  188.3200  174.9490  142.4890 C   0  0  0  0  0  3  0  0  0  0  0  0
  187.8450  176.1040  142.0450 C   0  0  0  0  0  3  0  0  0  0  0  0
  186.5730  176.6540  142.5810 C   0  0  0  0  0  2  0  0  0  0  0  0
  186.0320  177.6830  141.6080 C   0  0  0  0  0  2  0  0  0  0  0  0
  184.6260  178.0280  141.9540 C   0  0  0  0  0  0  0  0  0  0  0  0
  183.5790  178.4000  140.7430 S   0  0  0  0  0  0  0  0  0  0  0  0
  184.2550  178.0840  143.3400 N   0  0  0  0  0  2  0  0  0  0  0  0
  185.2790  180.1000  143.9810 O   0  0  0  0  0  0  0  0  0  0  0  0
  184.6440  179.0630  144.3120 C   0  0  0  0  0  0  0  0  0  0  0  0
  184.2520  178.8710  145.7350 C   0  0  0  0  0  2  0  0  0  0  0  0
  185.4730  178.9650  146.6240 C   0  0  0  0  0  1  0  0  0  0  0  0
  191.4640  176.1150  146.5070 C   0  0  0  0  0  0  0  0  0  0  0  0
  191.3830  175.6210  147.6670 O   0  0  0  0  0  0  0  0  0  0  0  0
  190.5170  177.0510  146.0770 O   0  0  0  0  0  0  0  0  0  0  0  0
  188.2300  176.2900  145.9640 C   0  0  0  0  0  1  0  0  0  0  0  0
  189.2340  177.1730  146.6790 C   0  0  0  0  0  2  0  0  0  0  0  0
  1 20  2  0  0  0  0
  3 28  1  0  0  0  0
  3 18  1  0  0  0  0
  4 24  1  0  0  0  0
  5 22  2  0  0  0  0
  6 12  1  0  0  0  0
  7  6  2  0  0  0  0
  8  1  1  0  0  0  0
  8  6  1  0  0  0  0
  9  2  1  0  0  0  0
 10  9  1  1  0  0  0
 11 15  2  0  0  0  0
 12 17  1  6  0  0  0
 12 10  1  0  0  0  0
 13 11  1  0  0  0  0
 15  4  2  0  0  0  0
 16  5  1  0  0  0  0
 16 14  1  1  0  0  0
 17 13  1  0  0  0  0
 18  2  1  1  0  0  0
 18 16  1  0  0  0  0
 19  3  2  0  0  0  0
 20 21  1  0  0  0  0
 21 10  1  0  0  0  0
 21 19  2  0  0  0  0
 22 27  1  0  0  0  0
 22 39  1  0  0  0  0
 23  8  1  0  0  0  0
 24  5  1  0  0  0  0
 25 27  2  0  0  0  0
 27 26  1  0  0  0  0
 29 28  2  0  0  0  0
 29 30  1  0  0  0  0
 31 32  1  0  0  0  0
 31 30  1  0  0  0  0
 32 34  1  0  0  0  0
 33 32  2  0  0  0  0
 34 36  1  0  0  0  0
 35 36  2  0  0  0  0
 36 37  1  0  0  0  0
 37 38  1  0  0  0  0
 39 40  2  0  0  0  0
 41 39  1  0  0  0  0
 41 43  1  0  0  0  0
 42 43  1  0  0  0  0
M  END
>  <MODEL>
3

>  <REMARK>
 VINA RESULT:      -7.1      2.722      7.611
  Name = 
  10 active torsions:
  status: ('A' for Active; 'I' for Inactive)
    1  A    between atoms: C_1  and  C_6
    2  A    between atoms: C_5  and  C_15
    3  A    between atoms: N_10  and  C_24
    4  A    between atoms: C_13  and  O_40
    5  A    between atoms: C_14  and  C_15
    6  A    between atoms: C_14  and  C_24
    7  A    between atoms: C_19  and  C_34
    8  A    between atoms: C_23  and  C_38
    9  A    between atoms: C_23  and  O_40
   10  A    between atoms: C_27  and  C_38
                            x       y       z     vdW  Elec       q    Type
                         _______ _______ _______ _____ _____    ______ ____

>  <TORSDO>
F 10

$$$$
=
 OpenBabel11042419053D

 43 45  0  0  1  0  0  0  0  0999 V2000
  185.1110  176.9150  143.4270 C   0  0  0  0  0  3  0  0  0  0  0  0
  190.6680  177.2950  142.9810 C   0  0  0  0  0  2  0  0  0  0  0  0
  189.5330  175.1380  142.1730 C   0  0  0  0  0  0  0  0  0  0  0  0
  190.9150  174.1680  145.6190 C   0  0  0  0  0  3  0  0  0  0  0  0
  192.7020  174.6180  143.9890 C   0  0  0  0  0  0  0  0  0  0  0  0
  186.1820  178.8000  144.8030 C   0  0  0  0  0  0  0  0  0  0  0  0
  186.0510  179.9620  145.2730 O   0  0  0  0  0  0  0  0  0  0  0  0
  185.1180  178.2240  144.0190 N   0  0  0  0  0  0  0  0  0  0  0  0
  189.7100  177.6970  144.1190 C   0  0  0  0  0  2  0  0  0  0  0  0
  188.1820  177.7260  143.8050 C   0  0  2  0  0  3  0  0  0  0  0  0
  188.7870  175.1250  146.7870 C   0  0  0  0  0  3  0  0  0  0  0  0
  187.4520  178.0790  145.0950 C   0  0  2  0  0  3  0  0  0  0  0  0
  188.5340  176.5920  146.7940 C   0  0  0  0  0  2  0  0  0  0  0  0
  192.9820  175.9570  142.0170 O   0  0  0  0  0  1  0  0  0  0  0  0
  189.8570  174.6480  146.2110 C   0  0  0  0  0  0  0  0  0  0  0  0
  192.0990  175.1040  142.6830 C   0  0  2  0  0  3  0  0  0  0  0  0
  187.2420  176.9080  146.0590 C   0  0  0  0  0  2  0  0  0  0  0  0
  190.7260  175.7590  142.8510 C   0  0  1  0  0  3  0  0  0  0  0  0
  188.4350  175.6750  142.5880 C   0  0  0  0  0  0  0  0  0  0  0  0
  186.1610  176.1740  143.0570 C   0  0  0  0  0  3  0  0  0  0  0  0
  187.5950  176.4850  143.1460 C   0  0  0  0  0  0  0  0  0  0  0  0
  193.7670  173.7690  143.9890 C   0  0  0  0  0  0  0  0  0  0  0  0
  183.8630  178.9500  143.9270 C   0  0  0  0  0  1  0  0  0  0  0  0
  192.0600  175.0640  145.2780 C   0  0  0  0  0  2  0  0  0  0  0  0
  194.1190  172.1630  145.8620 O   0  0  0  0  0  1  0  0  0  0  0  0
  195.3710  174.0650  145.7500 O   0  0  0  0  0  0  0  0  0  0  0  0
  194.4610  173.3600  145.2410 C   0  0  0  0  0  0  0  0  0  0  0  0
  189.5550  174.4390  140.8800 C   0  0  0  0  0  3  0  0  0  0  0  0
  188.6010  173.6030  140.4950 C   0  0  0  0  0  3  0  0  0  0  0  0
  188.6920  172.9020  139.1880 C   0  0  0  0  0  2  0  0  0  0  0  0
  188.7900  173.9330  138.0810 C   0  0  0  0  0  2  0  0  0  0  0  0
  190.0270  173.7140  137.2840 C   0  0  0  0  0  0  0  0  0  0  0  0
  190.2480  174.5820  135.9060 S   0  0  0  0  0  0  0  0  0  0  0  0
  190.9540  172.7050  137.7170 N   0  0  0  0  0  2  0  0  0  0  0  0
  192.4550  174.0070  138.9710 O   0  0  0  0  0  0  0  0  0  0  0  0
  192.1570  172.8890  138.4740 C   0  0  0  0  0  0  0  0  0  0  0  0
  193.0500  171.7220  138.7140 C   0  0  0  0  0  2  0  0  0  0  0  0
  192.2480  170.4390  138.6570 C   0  0  0  0  0  1  0  0  0  0  0  0
  194.2910  173.1910  142.7260 C   0  0  0  0  0  0  0  0  0  0  0  0
  195.4220  173.5380  142.2840 O   0  0  0  0  0  0  0  0  0  0  0  0
  193.5050  172.2850  142.0050 O   0  0  0  0  0  0  0  0  0  0  0  0
  191.2720  171.4140  142.2830 C   0  0  0  0  0  1  0  0  0  0  0  0
  192.7390  171.2660  142.6360 C   0  0  0  0  0  2  0  0  0  0  0  0
  1  8  1  0  0  0  0
  2  9  1  0  0  0  0
  3 19  2  0  0  0  0
  3 18  1  0  0  0  0
  4 15  2  0  0  0  0
  5 22  2  0  0  0  0
  5 24  1  0  0  0  0
  6 12  1  0  0  0  0
  6  7  2  0  0  0  0
  8  6  1  0  0  0  0
 10  9  1  1  0  0  0
 10 12  1  0  0  0  0
 11 13  1  0  0  0  0
 12 17  1  6  0  0  0
 15 11  2  0  0  0  0
 16 14  1  1  0  0  0
 16 18  1  0  0  0  0
 16  5  1  0  0  0  0
 17 13  1  0  0  0  0
 18  2  1  6  0  0  0
 19 21  2  0  0  0  0
 20 21  1  0  0  0  0
 20  1  2  0  0  0  0
 21 10  1  0  0  0  0
 22 27  1  0  0  0  0
 23  8  1  0  0  0  0
 24  4  1  0  0  0  0
 27 26  2  0  0  0  0
 27 25  1  0  0  0  0
 28  3  1  0  0  0  0
 29 28  2  0  0  0  0
 30 29  1  0  0  0  0
 31 30  1  0  0  0  0
 32 34  1  0  0  0  0
 32 31  1  0  0  0  0
 33 32  2  0  0  0  0
 34 36  1  0  0  0  0
 36 37  1  0  0  0  0
 36 35  2  0  0  0  0
 38 37  1  0  0  0  0
 39 22  1  0  0  0  0
 40 39  2  0  0  0  0
 41 43  1  0  0  0  0
 41 39  1  0  0  0  0
 42 43  1  0  0  0  0
M  END
>  <MODEL>
4

>  <REMARK>
 VINA RESULT:      -7.0      1.483      2.408
  Name = 
  10 active torsions:
  status: ('A' for Active; 'I' for Inactive)
    1  A    between atoms: C_1  and  C_6
    2  A    between atoms: C_5  and  C_15
    3  A    between atoms: N_10  and  C_24
    4  A    between atoms: C_13  and  O_40
    5  A    between atoms: C_14  and  C_15
    6  A    between atoms: C_14  and  C_24
    7  A    between atoms: C_19  and  C_34
    8  A    between atoms: C_23  and  C_38
    9  A    between atoms: C_23  and  O_40
   10  A    between atoms: C_27  and  C_38
                            x       y       z     vdW  Elec       q    Type
                         _______ _______ _______ _____ _____    ______ ____

>  <TORSDO>
F 10

$$$$
=
 OpenBabel11042419053D

 43 45  0  0  1  0  0  0  0  0999 V2000
  185.1940  176.8000  143.5880 C   0  0  0  0  0  3  0  0  0  0  0  0
  190.7360  177.3410  143.1210 C   0  0  0  0  0  2  0  0  0  0  0  0
  189.6500  175.1910  142.2320 C   0  0  0  0  0  0  0  0  0  0  0  0
  191.0840  174.1160  145.6260 C   0  0  0  0  0  3  0  0  0  0  0  0
  192.8460  174.6790  144.0040 C   0  0  0  0  0  0  0  0  0  0  0  0
  186.2270  178.6530  145.0340 C   0  0  0  0  0  0  0  0  0  0  0  0
  186.0700  179.7910  145.5520 O   0  0  0  0  0  0  0  0  0  0  0  0
  185.1730  178.0830  144.2340 N   0  0  0  0  0  0  0  0  0  0  0  0
  189.7770  177.6710  144.2810 C   0  0  0  0  0  2  0  0  0  0  0  0
  188.2460  177.6730  143.9790 C   0  0  2  0  0  3  0  0  0  0  0  0
  188.9410  174.9680  146.8460 C   0  0  0  0  0  3  0  0  0  0  0  0
  187.5170  177.9550  145.2880 C   0  0  2  0  0  3  0  0  0  0  0  0
  188.6510  176.4260  146.9160 C   0  0  0  0  0  2  0  0  0  0  0  0
  193.0760  176.1050  142.0870 O   0  0  0  0  0  1  0  0  0  0  0  0
  190.0180  174.5430  146.2440 C   0  0  0  0  0  0  0  0  0  0  0  0
  192.2200  175.2020  142.7230 C   0  0  2  0  0  3  0  0  0  0  0  0
  187.3450  176.7390  146.2030 C   0  0  0  0  0  2  0  0  0  0  0  0
  190.8320  175.8140  142.9270 C   0  0  1  0  0  3  0  0  0  0  0  0
  188.5420  175.6820  142.6770 C   0  0  0  0  0  0  0  0  0  0  0  0
  186.2600  176.1020  143.1810 C   0  0  0  0  0  3  0  0  0  0  0  0
  187.6870  176.4460  143.2730 C   0  0  0  0  0  0  0  0  0  0  0  0
  193.9320  173.8590  143.9620 C   0  0  0  0  0  0  0  0  0  0  0  0
  183.8980  178.7800  144.1810 C   0  0  0  0  0  1  0  0  0  0  0  0
  192.2020  175.0540  145.3150 C   0  0  0  0  0  2  0  0  0  0  0  0
  194.3470  172.1820  145.7580 O   0  0  0  0  0  1  0  0  0  0  0  0
  195.5350  174.1270  145.7270 O   0  0  0  0  0  0  0  0  0  0  0  0
  194.6460  173.4160  145.1910 C   0  0  0  0  0  0  0  0  0  0  0  0
  189.6800  174.5460  140.9110 C   0  0  0  0  0  3  0  0  0  0  0  0
  188.5840  174.2500  140.2280 C   0  0  0  0  0  3  0  0  0  0  0  0
  188.6760  173.5710  138.9090 C   0  0  0  0  0  2  0  0  0  0  0  0
  190.1300  173.2640  138.6130 C   0  0  0  0  0  2  0  0  0  0  0  0
  190.3430  173.1590  137.1430 C   0  0  0  0  0  0  0  0  0  0  0  0
  191.5270  172.1670  136.5820 S   0  0  0  0  0  0  0  0  0  0  0  0
  189.5460  173.9780  136.2740 N   0  0  0  0  0  2  0  0  0  0  0  0
  191.1430  175.5620  135.5900 O   0  0  0  0  0  0  0  0  0  0  0  0
  189.9440  175.1750  135.5920 C   0  0  0  0  0  0  0  0  0  0  0  0
  188.9250  175.9510  134.8330 C   0  0  0  0  0  2  0  0  0  0  0  0
  187.6470  176.0510  135.6400 C   0  0  0  0  0  1  0  0  0  0  0  0
  194.4600  173.3470  142.6730 C   0  0  0  0  0  0  0  0  0  0  0  0
  195.3530  173.9860  142.0480 O   0  0  0  0  0  0  0  0  0  0  0  0
  193.9350  172.1680  142.1310 O   0  0  0  0  0  0  0  0  0  0  0  0
  191.6040  171.6090  141.8540 C   0  0  0  0  0  1  0  0  0  0  0  0
  192.8560  172.1670  141.2050 C   0  0  0  0  0  2  0  0  0  0  0  0
  1  8  1  0  0  0  0
  2  9  1  0  0  0  0
  3 19  2  0  0  0  0
  3 18  1  0  0  0  0
  4 15  2  0  0  0  0
  5 24  1  0  0  0  0
  6 12  1  0  0  0  0
  6  7  2  0  0  0  0
  8  6  1  0  0  0  0
 10  9  1  1  0  0  0
 10 12  1  0  0  0  0
 11 13  1  0  0  0  0
 12 17  1  6  0  0  0
 15 11  2  0  0  0  0
 16 14  1  1  0  0  0
 16 18  1  0  0  0  0
 16  5  1  0  0  0  0
 17 13  1  0  0  0  0
 18  2  1  6  0  0  0
 19 21  2  0  0  0  0
 20 21  1  0  0  0  0
 20  1  2  0  0  0  0
 21 10  1  0  0  0  0
 22  5  2  0  0  0  0
 22 27  1  0  0  0  0
 23  8  1  0  0  0  0
 24  4  1  0  0  0  0
 27 26  2  0  0  0  0
 27 25  1  0  0  0  0
 28  3  1  0  0  0  0
 29 28  2  0  0  0  0
 30 29  1  0  0  0  0
 31 30  1  0  0  0  0
 32 31  1  0  0  0  0
 33 32  2  0  0  0  0
 34 32  1  0  0  0  0
 35 36  2  0  0  0  0
 36 34  1  0  0  0  0
 37 36  1  0  0  0  0
 37 38  1  0  0  0  0
 39 22  1  0  0  0  0
 40 39  2  0  0  0  0
 41 39  1  0  0  0  0
 43 42  1  0  0  0  0
 43 41  1  0  0  0  0
M  END
>  <MODEL>
5

>  <REMARK>
 VINA RESULT:      -6.7      1.935      3.297
  Name = 
  10 active torsions:
  status: ('A' for Active; 'I' for Inactive)
    1  A    between atoms: C_1  and  C_6
    2  A    between atoms: C_5  and  C_15
    3  A    between atoms: N_10  and  C_24
    4  A    between atoms: C_13  and  O_40
    5  A    between atoms: C_14  and  C_15
    6  A    between atoms: C_14  and  C_24
    7  A    between atoms: C_19  and  C_34
    8  A    between atoms: C_23  and  C_38
    9  A    between atoms: C_23  and  O_40
   10  A    between atoms: C_27  and  C_38
                            x       y       z     vdW  Elec       q    Type
                         _______ _______ _______ _____ _____    ______ ____

>  <TORSDO>
F 10

$$$$
=
 OpenBabel11042419053D

 43 45  0  0  1  0  0  0  0  0999 V2000
  195.1560  174.6150  138.8960 C   0  0  0  0  0  3  0  0  0  0  0  0
  192.6640  172.6350  143.4880 C   0  0  0  0  0  2  0  0  0  0  0  0
  191.5740  174.6220  142.2800 C   0  0  0  0  0  0  0  0  0  0  0  0
  193.3870  176.2720  145.2330 C   0  0  0  0  0  3  0  0  0  0  0  0
  191.5200  174.8450  145.9630 C   0  0  0  0  0  0  0  0  0  0  0  0
  196.6170  173.0790  140.3450 C   0  0  0  0  0  0  0  0  0  0  0  0
  197.5380  172.2200  140.3660 O   0  0  0  0  0  0  0  0  0  0  0  0
  196.1800  173.6260  139.0840 N   0  0  0  0  0  0  0  0  0  0  0  0
  194.1480  172.9050  143.1730 C   0  0  0  0  0  2  0  0  0  0  0  0
  194.5360  173.1850  141.6880 C   0  0  2  0  0  3  0  0  0  0  0  0
  195.6100  176.3640  143.8690 C   0  0  0  0  0  3  0  0  0  0  0  0
  196.0290  173.4880  141.6500 C   0  0  2  0  0  3  0  0  0  0  0  0
  196.3340  175.1070  143.5360 C   0  0  0  0  0  2  0  0  0  0  0  0
  190.3700  172.9050  145.1430 O   0  0  0  0  0  1  0  0  0  0  0  0
  194.5030  176.3180  144.5600 C   0  0  0  0  0  0  0  0  0  0  0  0
  190.9150  174.1350  144.7650 C   0  0  2  0  0  3  0  0  0  0  0  0
  196.4040  174.9240  142.0280 C   0  0  0  0  0  2  0  0  0  0  0  0
  191.8910  173.9660  143.5980 C   0  0  1  0  0  3  0  0  0  0  0  0
  192.5880  174.5680  141.4830 C   0  0  0  0  0  0  0  0  0  0  0  0
  194.1140  174.8820  139.6900 C   0  0  0  0  0  3  0  0  0  0  0  0
  193.7250  174.2460  140.9570 C   0  0  0  0  0  0  0  0  0  0  0  0
  190.7260  175.3280  146.9580 C   0  0  0  0  0  0  0  0  0  0  0  0
  196.9280  173.2750  137.8880 C   0  0  0  0  0  1  0  0  0  0  0  0
  193.0150  175.0420  145.9930 C   0  0  0  0  0  2  0  0  0  0  0  0
  191.4780  177.3030  148.2790 O   0  0  0  0  0  0  0  0  0  0  0  0
  191.5640  175.2210  149.2040 O   0  0  0  0  0  1  0  0  0  0  0  0
  191.2800  175.9280  148.2020 C   0  0  0  0  0  0  0  0  0  0  0  0
  190.2260  174.8190  141.7280 C   0  0  0  0  0  3  0  0  0  0  0  0
  189.3660  175.6980  142.2230 C   0  0  0  0  0  3  0  0  0  0  0  0
  188.0050  175.8330  141.6410 C   0  0  0  0  0  2  0  0  0  0  0  0
  187.0040  176.0140  142.7660 C   0  0  0  0  0  2  0  0  0  0  0  0
  186.0520  177.1090  142.4350 C   0  0  0  0  0  0  0  0  0  0  0  0
  186.2140  177.8960  141.0010 S   0  0  0  0  0  0  0  0  0  0  0  0
  185.0660  177.4790  143.4110 N   0  0  0  0  0  2  0  0  0  0  0  0
  186.0970  179.3570  144.3770 O   0  0  0  0  0  0  0  0  0  0  0  0
  185.1480  178.5290  144.3840 C   0  0  0  0  0  0  0  0  0  0  0  0
  184.0640  178.6690  145.3940 C   0  0  0  0  0  2  0  0  0  0  0  0
  184.5230  178.1070  146.7230 C   0  0  0  0  0  1  0  0  0  0  0  0
  189.2460  175.2920  146.8470 C   0  0  0  0  0  0  0  0  0  0  0  0
  188.5670  174.5380  147.6000 O   0  0  0  0  0  0  0  0  0  0  0  0
  188.6070  176.0720  145.8770 O   0  0  0  0  0  0  0  0  0  0  0  0
  189.6420  177.9150  144.7130 C   0  0  0  0  0  1  0  0  0  0  0  0
  188.7210  177.4890  145.8390 C   0  0  0  0  0  2  0  0  0  0  0  0
  1  8  1  0  0  0  0
  1 20  2  0  0  0  0
  3 18  1  0  0  0  0
  4 24  1  0  0  0  0
  5 24  1  0  0  0  0
  5 22  2  0  0  0  0
  6  7  2  0  0  0  0
  6 12  1  0  0  0  0
  8  6  1  0  0  0  0
  9  2  1  0  0  0  0
 10  9  1  1  0  0  0
 11 15  2  0  0  0  0
 12 10  1  0  0  0  0
 12 17  1  6  0  0  0
 13 11  1  0  0  0  0
 15  4  2  0  0  0  0
 16 14  1  1  0  0  0
 16  5  1  0  0  0  0
 17 13  1  0  0  0  0
 18  2  1  6  0  0  0
 18 16  1  0  0  0  0
 19  3  2  0  0  0  0
 20 21  1  0  0  0  0
 21 19  2  0  0  0  0
 21 10  1  0  0  0  0
 22 27  1  0  0  0  0
 23  8  1  0  0  0  0
 27 25  2  0  0  0  0
 27 26  1  0  0  0  0
 28 29  2  0  0  0  0
 28  3  1  0  0  0  0
 30 29  1  0  0  0  0
 30 31  1  0  0  0  0
 32 31  1  0  0  0  0
 32 34  1  0  0  0  0
 33 32  2  0  0  0  0
 34 36  1  0  0  0  0
 35 36  2  0  0  0  0
 36 37  1  0  0  0  0
 37 38  1  0  0  0  0
 39 22  1  0  0  0  0
 39 40  2  0  0  0  0
 41 39  1  0  0  0  0
 42 43  1  0  0  0  0
 43 41  1  0  0  0  0
M  END
>  <MODEL>
6

>  <REMARK>
 VINA RESULT:      -6.7      2.897      7.934
  Name = 
  10 active torsions:
  status: ('A' for Active; 'I' for Inactive)
    1  A    between atoms: C_1  and  C_6
    2  A    between atoms: C_5  and  C_15
    3  A    between atoms: N_10  and  C_24
    4  A    between atoms: C_13  and  O_40
    5  A    between atoms: C_14  and  C_15
    6  A    between atoms: C_14  and  C_24
    7  A    between atoms: C_19  and  C_34
    8  A    between atoms: C_23  and  C_38
    9  A    between atoms: C_23  and  O_40
   10  A    between atoms: C_27  and  C_38
                            x       y       z     vdW  Elec       q    Type
                         _______ _______ _______ _____ _____    ______ ____

>  <TORSDO>
F 10

$$$$
=
 OpenBabel11042419053D

 43 45  0  0  1  0  0  0  0  0999 V2000
  185.1760  176.7550  143.5530 C   0  0  0  0  0  3  0  0  0  0  0  0
  190.7120  177.3440  143.0750 C   0  0  0  0  0  2  0  0  0  0  0  0
  189.6470  175.1690  142.2200 C   0  0  0  0  0  0  0  0  0  0  0  0
  191.0920  174.1620  145.6300 C   0  0  0  0  0  3  0  0  0  0  0  0
  192.8480  174.7170  143.9990 C   0  0  0  0  0  0  0  0  0  0  0  0
  186.1910  178.6410  144.9680 C   0  0  0  0  0  0  0  0  0  0  0  0
  186.0220  179.7860  145.4690 O   0  0  0  0  0  0  0  0  0  0  0  0
  185.1410  178.0480  144.1780 N   0  0  0  0  0  0  0  0  0  0  0  0
  189.7490  177.6830  144.2300 C   0  0  0  0  0  2  0  0  0  0  0  0
  188.2190  177.6650  143.9290 C   0  0  2  0  0  3  0  0  0  0  0  0
  188.9410  175.0120  146.8380 C   0  0  0  0  0  3  0  0  0  0  0  0
  187.4870  177.9590  145.2330 C   0  0  2  0  0  3  0  0  0  0  0  0
  188.6360  176.4690  146.8840 C   0  0  0  0  0  2  0  0  0  0  0  0
  193.0640  176.1150  142.0600 O   0  0  0  0  0  1  0  0  0  0  0  0
  190.0220  174.5890  146.2420 C   0  0  0  0  0  0  0  0  0  0  0  0
  192.2170  175.2140  142.7100 C   0  0  2  0  0  3  0  0  0  0  0  0
  187.3280  176.7570  146.1670 C   0  0  0  0  0  2  0  0  0  0  0  0
  190.8230  175.8150  142.9050 C   0  0  1  0  0  3  0  0  0  0  0  0
  188.5340  175.6560  142.6580 C   0  0  0  0  0  0  0  0  0  0  0  0
  186.2480  176.0610  143.1560 C   0  0  0  0  0  3  0  0  0  0  0  0
  187.6710  176.4210  143.2420 C   0  0  0  0  0  0  0  0  0  0  0  0
  193.9420  173.9070  143.9700 C   0  0  0  0  0  0  0  0  0  0  0  0
  183.8600  178.7310  144.1150 C   0  0  0  0  0  1  0  0  0  0  0  0
  192.2010  175.1070  145.3040 C   0  0  0  0  0  2  0  0  0  0  0  0
  194.4080  172.2430  145.7650 O   0  0  0  0  0  1  0  0  0  0  0  0
  195.5130  174.2370  145.7540 O   0  0  0  0  0  0  0  0  0  0  0  0
  194.6610  173.4900  145.2040 C   0  0  0  0  0  0  0  0  0  0  0  0
  189.6830  174.5040  140.9090 C   0  0  0  0  0  3  0  0  0  0  0  0
  188.5970  174.2790  140.1850 C   0  0  0  0  0  3  0  0  0  0  0  0
  188.6910  173.5750  138.8790 C   0  0  0  0  0  2  0  0  0  0  0  0
  190.0300  173.8950  138.2430 C   0  0  0  0  0  2  0  0  0  0  0  0
  190.4750  172.7620  137.3870 C   0  0  0  0  0  0  0  0  0  0  0  0
  191.2840  173.0880  135.9950 S   0  0  0  0  0  0  0  0  0  0  0  0
  190.1240  171.4250  137.7810 N   0  0  0  0  0  2  0  0  0  0  0  0
  192.1490  170.7100  138.7360 O   0  0  0  0  0  0  0  0  0  0  0  0
  190.9770  170.4330  138.3670 C   0  0  0  0  0  0  0  0  0  0  0  0
  190.4490  169.0590  138.5860 C   0  0  0  0  0  2  0  0  0  0  0  0
  190.8410  168.1660  137.4280 C   0  0  0  0  0  1  0  0  0  0  0  0
  194.4750  173.3800  142.6880 C   0  0  0  0  0  0  0  0  0  0  0  0
  193.9100  172.4080  142.1120 O   0  0  0  0  0  0  0  0  0  0  0  0
  195.6320  173.9430  142.1380 O   0  0  0  0  0  0  0  0  0  0  0  0
  195.7260  175.2120  140.0880 C   0  0  0  0  0  1  0  0  0  0  0  0
  195.9360  173.8650  140.7510 C   0  0  0  0  0  2  0  0  0  0  0  0
  1  8  1  0  0  0  0
  2  9  1  0  0  0  0
  3 19  2  0  0  0  0
  3 18  1  0  0  0  0
  4 15  2  0  0  0  0
  5 24  1  0  0  0  0
  6 12  1  0  0  0  0
  6  7  2  0  0  0  0
  8  6  1  0  0  0  0
 10  9  1  1  0  0  0
 10 12  1  0  0  0  0
 11 13  1  0  0  0  0
 12 17  1  6  0  0  0
 15 11  2  0  0  0  0
 16 14  1  1  0  0  0
 16 18  1  0  0  0  0
 16  5  1  0  0  0  0
 17 13  1  0  0  0  0
 18  2  1  6  0  0  0
 19 21  2  0  0  0  0
 20 21  1  0  0  0  0
 20  1  2  0  0  0  0
 21 10  1  0  0  0  0
 22  5  2  0  0  0  0
 22 27  1  0  0  0  0
 23  8  1  0  0  0  0
 24  4  1  0  0  0  0
 27 26  2  0  0  0  0
 27 25  1  0  0  0  0
 28  3  1  0  0  0  0
 29 28  2  0  0  0  0
 30 29  1  0  0  0  0
 31 30  1  0  0  0  0
 32 34  1  0  0  0  0
 32 31  1  0  0  0  0
 33 32  2  0  0  0  0
 34 36  1  0  0  0  0
 36 37  1  0  0  0  0
 36 35  2  0  0  0  0
 38 37  1  0  0  0  0
 39 22  1  0  0  0  0
 40 39  2  0  0  0  0
 41 39  1  0  0  0  0
 42 43  1  0  0  0  0
 43 41  1  0  0  0  0
M  END
>  <MODEL>
7

>  <REMARK>
 VINA RESULT:      -6.5      1.470      1.903
  Name = 
  10 active torsions:
  status: ('A' for Active; 'I' for Inactive)
    1  A    between atoms: C_1  and  C_6
    2  A    between atoms: C_5  and  C_15
    3  A    between atoms: N_10  and  C_24
    4  A    between atoms: C_13  and  O_40
    5  A    between atoms: C_14  and  C_15
    6  A    between atoms: C_14  and  C_24
    7  A    between atoms: C_19  and  C_34
    8  A    between atoms: C_23  and  C_38
    9  A    between atoms: C_23  and  O_40
   10  A    between atoms: C_27  and  C_38
                            x       y       z     vdW  Elec       q    Type
                         _______ _______ _______ _____ _____    ______ ____

>  <TORSDO>
F 10

$$$$
=
 OpenBabel11042419053D

 43 45  0  0  1  0  0  0  0  0999 V2000
  185.6280  176.5280  143.1160 C   0  0  0  0  0  3  0  0  0  0  0  0
  191.1520  177.3590  142.9840 C   0  0  0  0  0  2  0  0  0  0  0  0
  190.2370  175.1510  142.0460 C   0  0  0  0  0  0  0  0  0  0  0  0
  191.5130  174.1660  145.5290 C   0  0  0  0  0  3  0  0  0  0  0  0
  193.3400  174.8150  144.0130 C   0  0  0  0  0  0  0  0  0  0  0  0
  186.4720  178.4390  144.6090 C   0  0  0  0  0  0  0  0  0  0  0  0
  186.2240  179.5690  145.1090 O   0  0  0  0  0  0  0  0  0  0  0  0
  185.4990  177.8100  143.7500 N   0  0  0  0  0  0  0  0  0  0  0  0
  190.1070  177.6420  144.0810 C   0  0  0  0  0  2  0  0  0  0  0  0
  188.6000  177.5620  143.6860 C   0  0  2  0  0  3  0  0  0  0  0  0
  189.2580  174.9090  146.6100 C   0  0  0  0  0  3  0  0  0  0  0  0
  187.7780  177.8100  144.9460 C   0  0  2  0  0  3  0  0  0  0  0  0
  188.8880  176.3500  146.6510 C   0  0  0  0  0  2  0  0  0  0  0  0
  193.6120  176.2430  142.1040 O   0  0  0  0  0  1  0  0  0  0  0  0
  190.3910  174.5390  146.0770 C   0  0  0  0  0  0  0  0  0  0  0  0
  192.7670  175.2990  142.6930 C   0  0  2  0  0  3  0  0  0  0  0  0
  187.6150  176.5910  145.8580 C   0  0  0  0  0  2  0  0  0  0  0  0
  191.3400  175.8380  142.8070 C   0  0  1  0  0  3  0  0  0  0  0  0
  189.0790  175.5840  142.4190 C   0  0  0  0  0  0  0  0  0  0  0  0
  186.7510  175.8850  142.7800 C   0  0  0  0  0  3  0  0  0  0  0  0
  188.1500  176.3040  142.9560 C   0  0  0  0  0  0  0  0  0  0  0  0
  194.4680  174.0520  144.0430 C   0  0  0  0  0  0  0  0  0  0  0  0
  184.1960  178.4390  143.6140 C   0  0  0  0  0  1  0  0  0  0  0  0
  192.5980  175.1610  145.2800 C   0  0  0  0  0  2  0  0  0  0  0  0
  196.0100  174.5260  145.9430 O   0  0  0  0  0  1  0  0  0  0  0  0
  194.8940  172.5400  145.8570 O   0  0  0  0  0  0  0  0  0  0  0  0
  195.1280  173.6520  145.3160 C   0  0  0  0  0  0  0  0  0  0  0  0
  190.3810  174.5040  140.7340 C   0  0  0  0  0  3  0  0  0  0  0  0
  189.6750  173.4420  140.3710 C   0  0  0  0  0  3  0  0  0  0  0  0
  189.8860  172.8120  139.0420 C   0  0  0  0  0  2  0  0  0  0  0  0
  189.4620  173.7870  137.9620 C   0  0  0  0  0  2  0  0  0  0  0  0
  190.3300  173.6350  136.7620 C   0  0  0  0  0  0  0  0  0  0  0  0
  190.1930  172.2760  135.8500 S   0  0  0  0  0  0  0  0  0  0  0  0
  191.3010  174.6570  136.4840 N   0  0  0  0  0  2  0  0  0  0  0  0
  193.1250  173.8740  137.7430 O   0  0  0  0  0  0  0  0  0  0  0  0
  192.6210  174.7820  137.0300 C   0  0  0  0  0  0  0  0  0  0  0  0
  193.4280  175.9900  136.7080 C   0  0  0  0  0  2  0  0  0  0  0  0
  192.8190  176.7190  135.5300 C   0  0  0  0  0  1  0  0  0  0  0  0
  195.1000  173.5640  142.7920 C   0  0  0  0  0  0  0  0  0  0  0  0
  194.7010  172.4960  142.2480 O   0  0  0  0  0  0  0  0  0  0  0  0
  196.1700  174.2750  142.2370 O   0  0  0  0  0  0  0  0  0  0  0  0
  197.8880  173.1590  140.9610 C   0  0  0  0  0  1  0  0  0  0  0  0
  197.5100  173.7990  142.2830 C   0  0  0  0  0  2  0  0  0  0  0  0
  1  8  1  0  0  0  0
  2  9  1  0  0  0  0
  3 19  2  0  0  0  0
  3 18  1  0  0  0  0
  4 15  2  0  0  0  0
  5 22  2  0  0  0  0
  5 24  1  0  0  0  0
  6 12  1  0  0  0  0
  6  7  2  0  0  0  0
  8  6  1  0  0  0  0
 10  9  1  1  0  0  0
 10 12  1  0  0  0  0
 11 13  1  0  0  0  0
 12 17  1  6  0  0  0
 15 11  2  0  0  0  0
 16 14  1  1  0  0  0
 16 18  1  0  0  0  0
 16  5  1  0  0  0  0
 17 13  1  0  0  0  0
 18  2  1  6  0  0  0
 19 21  2  0  0  0  0
 20 21  1  0  0  0  0
 20  1  2  0  0  0  0
 21 10  1  0  0  0  0
 22 27  1  0  0  0  0
 23  8  1  0  0  0  0
 24  4  1  0  0  0  0
 27 26  2  0  0  0  0
 27 25  1  0  0  0  0
 28  3  1  0  0  0  0
 29 28  2  0  0  0  0
 30 29  1  0  0  0  0
 31 30  1  0  0  0  0
 32 31  1  0  0  0  0
 33 32  2  0  0  0  0
 34 32  1  0  0  0  0
 34 36  1  0  0  0  0
 36 35  2  0  0  0  0
 37 36  1  0  0  0  0
 38 37  1  0  0  0  0
 39 22  1  0  0  0  0
 40 39  2  0  0  0  0
 41 43  1  0  0  0  0
 41 39  1  0  0  0  0
 42 43  1  0  0  0  0
M  END
>  <MODEL>
8

>  <REMARK>
 VINA RESULT:      -6.4      1.869      2.712
  Name = 
  10 active torsions:
  status: ('A' for Active; 'I' for Inactive)
    1  A    between atoms: C_1  and  C_6
    2  A    between atoms: C_5  and  C_15
    3  A    between atoms: N_10  and  C_24
    4  A    between atoms: C_13  and  O_40
    5  A    between atoms: C_14  and  C_15
    6  A    between atoms: C_14  and  C_24
    7  A    between atoms: C_19  and  C_34
    8  A    between atoms: C_23  and  C_38
    9  A    between atoms: C_23  and  O_40
   10  A    between atoms: C_27  and  C_38
                            x       y       z     vdW  Elec       q    Type
                         _______ _______ _______ _____ _____    ______ ____

>  <TORSDO>
F 10

$$$$
=
 OpenBabel11042419053D

 43 45  0  0  1  0  0  0  0  0999 V2000
  190.5950  177.6400  144.8550 C   0  0  0  0  0  3  0  0  0  0  0  0
  191.1530  172.4490  142.8650 C   0  0  0  0  0  2  0  0  0  0  0  0
  192.3570  174.3530  141.6340 C   0  0  0  0  0  0  0  0  0  0  0  0
  189.2470  173.7340  139.4720 C   0  0  0  0  0  3  0  0  0  0  0  0
  190.8100  171.8340  139.4270 C   0  0  0  0  0  0  0  0  0  0  0  0
  188.8920  175.9450  145.7580 C   0  0  0  0  0  0  0  0  0  0  0  0
  188.1820  175.5890  146.7370 O   0  0  0  0  0  0  0  0  0  0  0  0
  189.7400  177.1040  145.8770 N   0  0  0  0  0  0  0  0  0  0  0  0
  189.9220  173.2050  143.4000 C   0  0  0  0  0  2  0  0  0  0  0  0
  190.1660  174.5500  144.1530 C   0  0  2  0  0  3  0  0  0  0  0  0
  187.8270  175.3070  140.9950 C   0  0  0  0  0  3  0  0  0  0  0  0
  188.8040  175.1310  144.5150 C   0  0  2  0  0  3  0  0  0  0  0  0
  187.5000  174.9010  142.3900 C   0  0  0  0  0  2  0  0  0  0  0  0
  192.4620  170.8860  140.8860 O   0  0  0  0  0  1  0  0  0  0  0  0
  188.5290  174.5150  140.2310 C   0  0  0  0  0  0  0  0  0  0  0  0
  191.9600  172.0890  140.3840 C   0  0  2  0  0  3  0  0  0  0  0  0
  188.1040  175.8830  143.3800 C   0  0  0  0  0  2  0  0  0  0  0  0
  191.6080  173.0520  141.5200 C   0  0  1  0  0  3  0  0  0  0  0  0
  191.7980  175.1340  142.4960 C   0  0  0  0  0  0  0  0  0  0  0  0
  191.1510  176.9940  143.8250 C   0  0  0  0  0  3  0  0  0  0  0  0
  191.0510  175.5740  143.4560 C   0  0  0  0  0  0  0  0  0  0  0  0
  191.0280  171.2420  138.2200 C   0  0  0  0  0  0  0  0  0  0  0  0
  189.6300  177.9150  147.0780 C   0  0  0  0  0  1  0  0  0  0  0  0
  189.4320  172.2970  139.8310 C   0  0  0  0  0  2  0  0  0  0  0  0
  189.5240  171.7500  136.2990 O   0  0  0  0  0  0  0  0  0  0  0  0
  189.3290  169.7610  137.3960 O   0  0  0  0  0  1  0  0  0  0  0  0
  189.9180  170.8700  137.3010 C   0  0  0  0  0  0  0  0  0  0  0  0
  193.7690  174.5580  141.2780 C   0  0  0  0  0  3  0  0  0  0  0  0
  194.3400  175.7540  141.2490 C   0  0  0  0  0  3  0  0  0  0  0  0
  195.7640  175.9020  140.8530 C   0  0  0  0  0  2  0  0  0  0  0  0
  196.4600  176.8130  141.8450 C   0  0  0  0  0  2  0  0  0  0  0  0
  196.7170  176.0840  143.1170 C   0  0  0  0  0  0  0  0  0  0  0  0
  197.8160  174.8630  143.1260 S   0  0  0  0  0  0  0  0  0  0  0  0
  195.9460  176.4370  144.2770 N   0  0  0  0  0  2  0  0  0  0  0  0
  194.6410  174.4990  144.5330 O   0  0  0  0  0  0  0  0  0  0  0  0
  194.9000  175.6770  144.8960 C   0  0  0  0  0  0  0  0  0  0  0  0
  194.1330  176.2780  146.0220 C   0  0  0  0  0  2  0  0  0  0  0  0
  193.0790  175.3060  146.5060 C   0  0  0  0  0  1  0  0  0  0  0  0
  192.4030  170.9450  137.7460 C   0  0  0  0  0  0  0  0  0  0  0  0
  192.8200  169.7540  137.7010 O   0  0  0  0  0  0  0  0  0  0  0  0
  193.2510  171.9980  137.3850 O   0  0  0  0  0  0  0  0  0  0  0  0
  193.1400  174.4000  137.5970 C   0  0  0  0  0  1  0  0  0  0  0  0
  192.7730  173.1860  136.7650 C   0  0  0  0  0  2  0  0  0  0  0  0
  1  8  1  0  0  0  0
  2  9  1  0  0  0  0
  3 19  2  0  0  0  0
  4 24  1  0  0  0  0
  4 15  2  0  0  0  0
  5 24  1  0  0  0  0
  5 16  1  0  0  0  0
  6  8  1  0  0  0  0
  6  7  2  0  0  0  0
  8 23  1  0  0  0  0
 10  9  1  6  0  0  0
 10 12  1  0  0  0  0
 11 13  1  0  0  0  0
 12 17  1  6  0  0  0
 12  6  1  0  0  0  0
 13 17  1  0  0  0  0
 15 11  2  0  0  0  0
 16 14  1  1  0  0  0
 16 18  1  0  0  0  0
 18  3  1  0  0  0  0
 18  2  1  1  0  0  0
 19 21  2  0  0  0  0
 20  1  2  0  0  0  0
 21 20  1  0  0  0  0
 21 10  1  0  0  0  0
 22  5  2  0  0  0  0
 25 27  2  0  0  0  0
 27 26  1  0  0  0  0
 27 22  1  0  0  0  0
 28  3  1  0  0  0  0
 29 28  2  0  0  0  0
 30 29  1  0  0  0  0
 30 31  1  0  0  0  0
 31 32  1  0  0  0  0
 32 33  2  0  0  0  0
 32 34  1  0  0  0  0
 34 36  1  0  0  0  0
 35 36  2  0  0  0  0
 36 37  1  0  0  0  0
 37 38  1  0  0  0  0
 39 22  1  0  0  0  0
 40 39  2  0  0  0  0
 41 39  1  0  0  0  0
 43 41  1  0  0  0  0
 43 42  1  0  0  0  0
M  END
>  <MODEL>
9

>  <REMARK>
 VINA RESULT:      -6.3      3.214      6.342
  Name = 
  10 active torsions:
  status: ('A' for Active; 'I' for Inactive)
    1  A    between atoms: C_1  and  C_6
    2  A    between atoms: C_5  and  C_15
    3  A    between atoms: N_10  and  C_24
    4  A    between atoms: C_13  and  O_40
    5  A    between atoms: C_14  and  C_15
    6  A    between atoms: C_14  and  C_24
    7  A    between atoms: C_19  and  C_34
    8  A    between atoms: C_23  and  C_38
    9  A    between atoms: C_23  and  O_40
   10  A    between atoms: C_27  and  C_38
                            x       y       z     vdW  Elec       q    Type
                         _______ _______ _______ _____ _____    ______ ____

>  <TORSDO>
F 10

$$$$
