=
 OpenBabel11042419493D

 50 58  0  0  1  0  0  0  0  0999 V2000
  194.2550  177.0700  146.5960 C   0  0  0  0  0  3  0  0  0  0  0  0
  193.1120  172.9390  142.6860 O   0  0  0  0  0  1  0  0  0  0  0  0
  194.9240  173.1760  141.1380 C   0  0  0  0  0  0  0  0  0  0  0  0
  195.9470  175.4990  142.5780 C   0  0  1  0  0  3  0  0  0  0  0  0
  196.4380  173.0620  140.8900 C   0  0  0  0  0  2  0  0  0  0  0  0
  194.5260  174.9410  142.9040 C   0  0  1  0  0  3  0  0  0  0  0  0
  195.1580  177.3680  145.5720 C   0  0  0  0  0  3  0  0  0  0  0  0
  193.4180  175.1470  145.3470 C   0  0  0  0  0  0  0  0  0  0  0  0
  197.7830  174.6610  143.9210 O   0  0  0  0  0  0  0  0  0  0  0  0
  194.1170  173.1660  140.1320 N   0  0  0  0  0  0  0  0  0  0  0  0
  195.1660  176.5490  144.4540 C   0  0  0  0  0  0  0  0  0  0  0  0
  196.0780  176.6950  143.3810 N   0  0  0  0  0  2  0  0  0  0  0  0
  197.2500  173.3380  142.0690 N   0  0  0  0  0  2  0  0  0  0  0  0
  197.0530  174.5010  142.9030 C   0  0  0  0  0  0  0  0  0  0  0  0
  194.4060  173.4440  142.5500 C   0  0  1  0  0  3  0  0  0  0  0  0
  193.4110  175.9540  146.4930 C   0  0  0  0  0  3  0  0  0  0  0  0
  194.3280  175.4530  144.3170 C   0  0  0  0  0  0  0  0  0  0  0  0
  194.6920  173.9470  136.5550 N   0  0  0  0  0  0  0  0  0  0  0  0
  194.0640  171.9980  137.9170 C   0  0  0  0  0  2  0  0  0  0  0  0
  195.2100  175.4130  138.3700 O   0  0  0  0  0  1  0  0  0  0  0  0
  194.6570  173.0770  138.7710 C   0  0  1  0  0  3  0  0  0  0  0  0
  194.4200  174.3190  137.9590 C   0  0  2  0  0  3  0  0  0  0  0  0
  194.4250  172.4850  136.5170 C   0  0  0  0  0  2  0  0  0  0  0  0
  196.0880  174.1850  136.0890 C   0  0  1  0  0  3  0  0  0  0  0  0
  196.8830  172.8990  135.7500 C   0  0  0  0  0  1  0  0  0  0  0  0
  196.2200  175.2970  135.0170 C   0  0  2  0  0  3  0  0  0  0  0  0
  194.7980  177.1990  134.7610 C   0  0  0  0  0  2  0  0  0  0  0  0
  196.9260  176.4910  135.5040 N   0  0  0  0  0  2  0  0  0  0  0  0
  194.8530  175.7070  134.5830 C   0  0  0  0  0  2  0  0  0  0  0  0
  196.2200  177.6150  134.9330 C   0  0  0  0  0  2  0  0  0  0  0  0
  192.3330  173.7010  145.3300 S   0  0  0  0  0  0  0  0  0  0  0  0
  189.0130  177.1140  143.1080 C   0  0  0  0  0  2  0  0  0  0  0  0
  188.0240  176.1040  143.4680 N   0  0  0  0  0  0  0  0  0  0  0  0
  190.0220  175.1820  144.6580 C   0  0  1  0  0  0  0  0  0  0  0  0
  190.7100  174.4510  145.8180 C   0  0  2  0  0  3  0  0  0  0  0  0
  190.3750  176.4950  142.7580 C   0  0  1  0  0  3  0  0  0  0  0  0
  188.4910  175.4000  144.6700 C   0  0  0  0  0  2  0  0  0  0  0  0
  190.7020  175.9800  145.7600 C   0  0  0  0  0  2  0  0  0  0  0  0
  191.4950  177.5290  142.9340 C   0  0  0  0  0  1  0  0  0  0  0  0
  190.7050  175.2780  143.4110 O   0  0  0  0  0  0  0  0  0  0  0  0
  186.8670  176.8520  143.8220 N   0  0  0  0  0  2  0  0  0  0  0  0
  186.6860  176.9400  145.2730 C   0  0  1  0  0  3  0  0  0  0  0  0
  186.8220  178.3960  145.7860 C   0  0  2  0  0  3  0  0  0  0  0  0
  184.8630  177.6530  146.7240 C   0  0  2  0  0  3  0  0  0  0  0  0
  186.1260  178.3350  147.0650 N   0  0  0  0  0  0  0  0  0  0  0  0
  185.2970  176.5210  145.7790 C   0  0  0  0  0  2  0  0  0  0  0  0
  184.6100  179.0970  144.6420 C   0  0  0  0  0  2  0  0  0  0  0  0
  183.9270  178.5930  145.9300 C   0  0  0  0  0  2  0  0  0  0  0  0
  185.9750  179.6390  147.7310 C   0  0  0  0  0  1  0  0  0  0  0  0
  186.1060  179.4250  144.8480 C   0  0  0  0  0  2  0  0  0  0  0  0
  3 15  1  0  0  0  0
  4 14  1  1  0  0  0
  4  6  1  0  0  0  0
  4 12  1  0  0  0  0
  5  3  1  0  0  0  0
  5 13  1  0  0  0  0
  6 17  1  1  0  0  0
  7  1  2  0  0  0  0
  8 16  2  0  0  0  0
 10  3  2  0  0  0  0
 11  7  1  0  0  0  0
 12 11  1  0  0  0  0
 13 14  1  0  0  0  0
 14  9  2  0  0  0  0
 15  2  1  6  0  0  0
 15  6  1  0  0  0  0
 16  1  1  0  0  0  0
 17 11  2  0  0  0  0
 17  8  1  0  0  0  0
 18 22  1  0  0  0  0
 19 21  1  0  0  0  0
 21 10  1  1  0  0  0
 22 20  1  1  0  0  0
 22 21  1  0  0  0  0
 23 18  1  0  0  0  0
 23 19  1  0  0  0  0
 24 25  1  6  0  0  0
 24 18  1  0  0  0  0
 26 28  1  0  0  0  0
 26 24  1  1  0  0  0
 27 30  1  0  0  0  0
 29 27  1  0  0  0  0
 29 26  1  0  0  0  0
 30 28  1  0  0  0  0
 31  8  1  0  0  0  0
 32 33  1  0  0  0  0
 33 41  1  0  0  0  0
 33 37  1  0  0  0  0
 34 37  1  6  0  0  0
 34 38  1  0  0  0  0
 34 35  1  0  0  0  0
 35 31  1  6  0  0  0
 36 39  1  1  0  0  0
 36 32  1  0  0  0  0
 36 40  1  0  0  0  0
 38 35  1  0  0  0  0
 40 34  1  0  0  0  0
 42 41  1  6  0  0  0
 42 46  1  0  0  0  0
 42 43  1  0  0  0  0
 43 50  1  6  0  0  0
 43 45  1  0  0  0  0
 44 46  1  6  0  0  0
 44 45  1  0  0  0  0
 45 49  1  0  0  0  0
 47 50  1  0  0  0  0
 47 48  1  0  0  0  0
 48 44  1  0  0  0  0
M  END
>  <MODEL>
1

>  <REMARK>
 VINA RESULT:      -8.2      0.000      0.000
  Name = 
  7 active torsions:
  status: ('A' for Active; 'I' for Inactive)
    1  A    between atoms: C_1  and  C_28
    2  A    between atoms: N_3  and  C_28
    3  A    between atoms: C_5  and  N_12
    4  A    between atoms: N_6  and  N_12
    5  A    between atoms: C_10  and  S_21
    6  A    between atoms: C_20  and  S_21
    7  A    between atoms: N_27  and  C_38
                            x       y       z     vdW  Elec       q    Type
                         _______ _______ _______ _____ _____    ______ ____

>  <TORSDO>
F 7

$$$$
=
 OpenBabel11042419493D

 50 58  0  0  1  0  0  0  0  0999 V2000
  187.1100  176.5990  146.9470 C   0  0  0  0  0  3  0  0  0  0  0  0
  190.6580  177.3330  142.4150 O   0  0  0  0  0  1  0  0  0  0  0  0
  192.2710  175.5920  142.7330 C   0  0  0  0  0  0  0  0  0  0  0  0
  191.0440  174.8160  145.2640 C   0  0  1  0  0  3  0  0  0  0  0  0
  192.5530  174.0790  142.7730 C   0  0  0  0  0  2  0  0  0  0  0  0
  190.6340  176.1560  144.5750 C   0  0  1  0  0  3  0  0  0  0  0  0
  188.1800  175.7570  147.2630 C   0  0  0  0  0  3  0  0  0  0  0  0
  188.1840  177.2310  144.8480 C   0  0  0  0  0  0  0  0  0  0  0  0
  189.6940  172.8690  144.7510 O   0  0  0  0  0  0  0  0  0  0  0  0
  193.2500  176.4120  142.5510 N   0  0  0  0  0  0  0  0  0  0  0  0
  189.2320  175.6760  146.3640 C   0  0  0  0  0  0  0  0  0  0  0  0
  190.3390  174.8100  146.5280 N   0  0  0  0  0  2  0  0  0  0  0  0
  191.4230  173.2820  143.2330 N   0  0  0  0  0  2  0  0  0  0  0  0
  190.6750  173.5960  144.4280 C   0  0  0  0  0  0  0  0  0  0  0  0
  190.8690  176.1090  143.0520 C   0  0  1  0  0  3  0  0  0  0  0  0
  187.1030  177.3090  145.7370 C   0  0  0  0  0  3  0  0  0  0  0  0
  189.2600  176.3840  145.1730 C   0  0  0  0  0  0  0  0  0  0  0  0
  196.8750  175.9450  143.1630 N   0  0  0  0  0  0  0  0  0  0  0  0
  195.3960  176.4410  141.2610 C   0  0  0  0  0  2  0  0  0  0  0  0
  195.1540  175.4760  144.7530 O   0  0  0  0  0  1  0  0  0  0  0  0
  194.6150  175.8930  142.4160 C   0  0  1  0  0  3  0  0  0  0  0  0
  195.4880  176.2120  143.5970 C   0  0  2  0  0  3  0  0  0  0  0  0
  196.8280  176.1320  141.6890 C   0  0  0  0  0  2  0  0  0  0  0  0
  197.3820  174.5730  143.4500 C   0  0  1  0  0  3  0  0  0  0  0  0
  197.3600  174.1770  144.9470 C   0  0  0  0  0  1  0  0  0  0  0  0
  196.8190  173.4770  142.5090 C   0  0  2  0  0  3  0  0  0  0  0  0
  197.5070  171.1920  142.4160 C   0  0  0  0  0  2  0  0  0  0  0  0
  195.7890  172.6420  143.1430 N   0  0  0  0  0  2  0  0  0  0  0  0
  197.9400  172.5920  142.0800 C   0  0  0  0  0  2  0  0  0  0  0  0
  196.0420  171.2980  142.6750 C   0  0  0  0  0  2  0  0  0  0  0  0
  188.0590  178.1420  143.2910 S   0  0  0  0  0  0  0  0  0  0  0  0
  182.8460  178.7670  143.5120 C   0  0  0  0  0  2  0  0  0  0  0  0
  182.9650  178.7270  142.0580 N   0  0  0  0  0  0  0  0  0  0  0  0
  185.2980  178.0820  142.6900 C   0  0  1  0  0  0  0  0  0  0  0  0
  186.6080  177.3090  142.4910 C   0  0  2  0  0  3  0  0  0  0  0  0
  184.0750  179.4060  144.1780 C   0  0  1  0  0  3  0  0  0  0  0  0
  184.1200  177.8900  141.7070 C   0  0  0  0  0  2  0  0  0  0  0  0
  185.5600  176.8160  143.4910 C   0  0  0  0  0  2  0  0  0  0  0  0
  184.1930  178.9480  145.6380 C   0  0  0  0  0  1  0  0  0  0  0  0
  185.3140  179.2550  143.4990 O   0  0  0  0  0  0  0  0  0  0  0  0
  181.7890  178.0520  141.6260 N   0  0  0  0  0  2  0  0  0  0  0  0
  181.1120  178.7620  140.5380 C   0  0  1  0  0  3  0  0  0  0  0  0
  179.8240  178.0290  140.0820 C   0  0  2  0  0  3  0  0  0  0  0  0
  179.1490  180.1990  140.4030 C   0  0  2  0  0  3  0  0  0  0  0  0
  179.0830  179.0970  139.4240 N   0  0  0  0  0  0  0  0  0  0  0  0
  180.6030  180.1660  140.8990 C   0  0  0  0  0  2  0  0  0  0  0  0
  178.6170  178.5870  142.3010 C   0  0  0  0  0  2  0  0  0  0  0  0
  178.2330  179.9150  141.6160 C   0  0  0  0  0  2  0  0  0  0  0  0
  177.7250  178.7140  139.0010 C   0  0  0  0  0  1  0  0  0  0  0  0
  178.9940  177.4810  141.2910 C   0  0  0  0  0  2  0  0  0  0  0  0
  1  7  1  0  0  0  0
  3  5  1  0  0  0  0
  3 15  1  0  0  0  0
  4 14  1  6  0  0  0
  4 12  1  0  0  0  0
  5 13  1  0  0  0  0
  6 17  1  6  0  0  0
  6  4  1  0  0  0  0
  8 17  2  0  0  0  0
  8 16  1  0  0  0  0
 10  3  2  0  0  0  0
 11 12  1  0  0  0  0
 11  7  2  0  0  0  0
 13 14  1  0  0  0  0
 14  9  2  0  0  0  0
 15  2  1  1  0  0  0
 15  6  1  0  0  0  0
 16  1  2  0  0  0  0
 17 11  1  0  0  0  0
 18 24  1  0  0  0  0
 18 22  1  0  0  0  0
 19 23  1  0  0  0  0
 19 21  1  0  0  0  0
 21 10  1  1  0  0  0
 21 22  1  0  0  0  0
 22 20  1  1  0  0  0
 23 18  1  0  0  0  0
 24 25  1  1  0  0  0
 26 28  1  0  0  0  0
 26 24  1  1  0  0  0
 27 30  1  0  0  0  0
 29 27  1  0  0  0  0
 29 26  1  0  0  0  0
 30 28  1  0  0  0  0
 31  8  1  0  0  0  0
 32 36  1  0  0  0  0
 33 32  1  0  0  0  0
 34 37  1  6  0  0  0
 34 38  1  0  0  0  0
 34 40  1  0  0  0  0
 35 34  1  0  0  0  0
 35 31  1  1  0  0  0
 35 38  1  0  0  0  0
 36 39  1  1  0  0  0
 37 33  1  0  0  0  0
 40 36  1  0  0  0  0
 41 33  1  0  0  0  0
 42 46  1  0  0  0  0
 42 41  1  1  0  0  0
 43 42  1  0  0  0  0
 43 50  1  1  0  0  0
 44 46  1  1  0  0  0
 44 48  1  0  0  0  0
 45 43  1  0  0  0  0
 45 44  1  0  0  0  0
 48 47  1  0  0  0  0
 49 45  1  0  0  0  0
 50 47  1  0  0  0  0
M  END
>  <MODEL>
2

>  <REMARK>
 VINA RESULT:      -7.6      3.896      7.085
  Name = 
  7 active torsions:
  status: ('A' for Active; 'I' for Inactive)
    1  A    between atoms: C_1  and  C_28
    2  A    between atoms: N_3  and  C_28
    3  A    between atoms: C_5  and  N_12
    4  A    between atoms: N_6  and  N_12
    5  A    between atoms: C_10  and  S_21
    6  A    between atoms: C_20  and  S_21
    7  A    between atoms: N_27  and  C_38
                            x       y       z     vdW  Elec       q    Type
                         _______ _______ _______ _____ _____    ______ ____

>  <TORSDO>
F 7

$$$$
=
 OpenBabel11042419493D

 50 58  0  0  1  0  0  0  0  0999 V2000
  191.2360  171.7020  136.3460 C   0  0  0  0  0  3  0  0  0  0  0  0
  192.7590  174.9120  140.9340 O   0  0  0  0  0  1  0  0  0  0  0  0
  191.0220  174.4230  142.5080 C   0  0  0  0  0  0  0  0  0  0  0  0
  189.6120  172.7790  140.5510 C   0  0  1  0  0  3  0  0  0  0  0  0
  190.3460  173.3710  143.4050 C   0  0  0  0  0  2  0  0  0  0  0  0
  190.7910  173.6960  140.0970 C   0  0  1  0  0  3  0  0  0  0  0  0
  190.1050  171.6160  137.1620 C   0  0  0  0  0  3  0  0  0  0  0  0
  192.3690  173.0900  138.0050 C   0  0  0  0  0  0  0  0  0  0  0  0
  190.1680  170.4890  141.1210 O   0  0  0  0  0  0  0  0  0  0  0  0
  190.8430  175.6750  142.7580 N   0  0  0  0  0  0  0  0  0  0  0  0
  190.1300  172.2750  138.3810 C   0  0  0  0  0  0  0  0  0  0  0  0
  189.0830  172.2090  139.3310 N   0  0  0  0  0  2  0  0  0  0  0  0
  190.4140  172.0140  142.8750 N   0  0  0  0  0  2  0  0  0  0  0  0
  190.0630  171.6850  141.5130 C   0  0  0  0  0  0  0  0  0  0  0  0
  191.7720  173.9780  141.2530 C   0  0  1  0  0  3  0  0  0  0  0  0
  192.3660  172.4130  136.7770 C   0  0  0  0  0  3  0  0  0  0  0  0
  191.2250  173.0020  138.8220 C   0  0  0  0  0  0  0  0  0  0  0  0
  188.1570  177.4080  144.6340 N   0  0  0  0  0  0  0  0  0  0  0  0
  190.5820  177.0510  144.8350 C   0  0  0  0  0  2  0  0  0  0  0  0
  187.7950  175.9120  142.8060 O   0  0  0  0  0  1  0  0  0  0  0  0
  189.9770  176.0750  143.8720 C   0  0  1  0  0  3  0  0  0  0  0  0
  188.7240  176.7740  143.4250 C   0  0  2  0  0  3  0  0  0  0  0  0
  189.3380  177.6230  145.5090 C   0  0  0  0  0  2  0  0  0  0  0  0
  187.1590  176.5870  145.3790 C   0  0  1  0  0  3  0  0  0  0  0  0
  187.5060  176.3470  146.8690 C   0  0  0  0  0  1  0  0  0  0  0  0
  185.6860  177.0100  145.1440 C   0  0  2  0  0  3  0  0  0  0  0  0
  184.3930  178.4780  146.5140 C   0  0  0  0  0  2  0  0  0  0  0  0
  185.5570  178.3070  144.4640 N   0  0  0  0  0  2  0  0  0  0  0  0
  184.9990  177.1030  146.4640 C   0  0  0  0  0  2  0  0  0  0  0  0
  184.4420  178.9670  145.1050 C   0  0  0  0  0  2  0  0  0  0  0  0
  193.8910  173.9330  138.4970 S   0  0  0  0  0  0  0  0  0  0  0  0
  197.0680  172.8340  142.5340 C   0  0  0  0  0  2  0  0  0  0  0  0
  196.3460  171.5660  142.5190 N   0  0  0  0  0  0  0  0  0  0  0  0
  195.4760  172.5740  140.4010 C   0  0  1  0  0  0  0  0  0  0  0  0
  194.9760  172.5010  138.9530 C   0  0  2  0  0  3  0  0  0  0  0  0
  196.1830  174.0130  142.1010 C   0  0  1  0  0  3  0  0  0  0  0  0
  195.9170  171.2900  141.1420 C   0  0  0  0  0  2  0  0  0  0  0  0
  196.4210  172.9030  139.2560 C   0  0  0  0  0  2  0  0  0  0  0  0
  197.0480  175.1750  141.5940 C   0  0  0  0  0  1  0  0  0  0  0  0
  195.1410  173.7180  141.1820 O   0  0  0  0  0  0  0  0  0  0  0  0
  197.3250  170.5970  142.8740 N   0  0  0  0  0  2  0  0  0  0  0  0
  196.7330  169.4250  143.5240 C   0  0  1  0  0  3  0  0  0  0  0  0
  197.2640  169.2320  144.9670 C   0  0  2  0  0  3  0  0  0  0  0  0
  194.9840  169.1000  145.1900 C   0  0  2  0  0  3  0  0  0  0  0  0
  196.2270  168.4010  145.5660 N   0  0  0  0  0  0  0  0  0  0  0  0
  195.2100  169.4940  143.7220 C   0  0  0  0  0  2  0  0  0  0  0  0
  196.0240  171.3440  145.8000 C   0  0  0  0  0  2  0  0  0  0  0  0
  194.8170  170.4040  146.0040 C   0  0  0  0  0  2  0  0  0  0  0  0
  196.4030  168.1660  147.0090 C   0  0  0  0  0  1  0  0  0  0  0  0
  197.3680  170.5850  145.7470 C   0  0  0  0  0  2  0  0  0  0  0  0
  1 16  2  0  0  0  0
  1  7  1  0  0  0  0
  3 10  2  0  0  0  0
  3  5  1  0  0  0  0
  4 12  1  6  0  0  0
  4 14  1  0  0  0  0
  6 17  1  6  0  0  0
  6  4  1  0  0  0  0
  6 15  1  0  0  0  0
  7 11  2  0  0  0  0
  8 31  1  0  0  0  0
  8 17  2  0  0  0  0
  9 14  2  0  0  0  0
 11 17  1  0  0  0  0
 11 12  1  0  0  0  0
 13  5  1  0  0  0  0
 14 13  1  0  0  0  0
 15  2  1  6  0  0  0
 15  3  1  0  0  0  0
 16  8  1  0  0  0  0
 18 24  1  0  0  0  0
 18 23  1  0  0  0  0
 19 23  1  0  0  0  0
 21 10  1  6  0  0  0
 21 19  1  0  0  0  0
 22 20  1  1  0  0  0
 22 21  1  0  0  0  0
 22 18  1  0  0  0  0
 24 25  1  1  0  0  0
 26 24  1  1  0  0  0
 26 29  1  0  0  0  0
 28 30  1  0  0  0  0
 28 26  1  0  0  0  0
 29 27  1  0  0  0  0
 30 27  1  0  0  0  0
 33 32  1  0  0  0  0
 33 41  1  0  0  0  0
 34 38  1  6  0  0  0
 34 37  1  0  0  0  0
 34 40  1  0  0  0  0
 35 31  1  1  0  0  0
 35 38  1  0  0  0  0
 35 34  1  0  0  0  0
 36 39  1  6  0  0  0
 36 32  1  0  0  0  0
 37 33  1  0  0  0  0
 40 36  1  0  0  0  0
 42 41  1  1  0  0  0
 42 46  1  0  0  0  0
 42 43  1  0  0  0  0
 43 45  1  0  0  0  0
 43 50  1  1  0  0  0
 44 46  1  6  0  0  0
 44 45  1  0  0  0  0
 44 48  1  0  0  0  0
 45 49  1  0  0  0  0
 47 48  1  0  0  0  0
 50 47  1  0  0  0  0
M  END
>  <MODEL>
3

>  <REMARK>
 VINA RESULT:      -7.5      3.404     10.580
  Name = 
  7 active torsions:
  status: ('A' for Active; 'I' for Inactive)
    1  A    between atoms: C_1  and  C_28
    2  A    between atoms: N_3  and  C_28
    3  A    between atoms: C_5  and  N_12
    4  A    between atoms: N_6  and  N_12
    5  A    between atoms: C_10  and  S_21
    6  A    between atoms: C_20  and  S_21
    7  A    between atoms: N_27  and  C_38
                            x       y       z     vdW  Elec       q    Type
                         _______ _______ _______ _____ _____    ______ ____

>  <TORSDO>
F 7

$$$$
=
 OpenBabel11042419493D

 50 58  0  0  1  0  0  0  0  0999 V2000
  197.2170  172.3540  145.6080 C   0  0  0  0  0  3  0  0  0  0  0  0
  191.5390  172.4020  144.4120 O   0  0  0  0  0  1  0  0  0  0  0  0
  190.9710  174.7120  144.6920 C   0  0  0  0  0  0  0  0  0  0  0  0
  193.6770  175.3460  145.5820 C   0  0  1  0  0  3  0  0  0  0  0  0
  191.1400  176.1570  144.1910 C   0  0  0  0  0  2  0  0  0  0  0  0
  193.2210  173.8570  145.4640 C   0  0  1  0  0  3  0  0  0  0  0  0
  196.8360  173.6370  146.0110 C   0  0  0  0  0  3  0  0  0  0  0  0
  194.9340  171.8630  144.8940 C   0  0  0  0  0  0  0  0  0  0  0  0
  194.7770  176.3060  143.6470 O   0  0  0  0  0  0  0  0  0  0  0  0
  189.9510  174.4120  145.4230 N   0  0  0  0  0  0  0  0  0  0  0  0
  195.5080  174.0020  145.8500 C   0  0  0  0  0  0  0  0  0  0  0  0
  195.0070  175.2910  146.1490 N   0  0  0  0  0  2  0  0  0  0  0  0
  192.4440  176.4250  143.5960 N   0  0  0  0  0  2  0  0  0  0  0  0
  193.6870  176.0590  144.2340 C   0  0  0  0  0  0  0  0  0  0  0  0
  192.0780  173.6900  144.4420 C   0  0  1  0  0  3  0  0  0  0  0  0
  196.2770  171.4860  145.0320 C   0  0  0  0  0  3  0  0  0  0  0  0
  194.5550  173.1560  145.3040 C   0  0  0  0  0  0  0  0  0  0  0  0
  187.9700  177.5390  145.2440 N   0  0  0  0  0  0  0  0  0  0  0  0
  189.4520  176.4100  146.8490 C   0  0  0  0  0  2  0  0  0  0  0  0
  187.8400  175.7510  143.6630 O   0  0  0  0  0  1  0  0  0  0  0  0
  188.9890  175.4580  145.7890 C   0  0  1  0  0  3  0  0  0  0  0  0
  188.6440  176.3680  144.6440 C   0  0  2  0  0  3  0  0  0  0  0  0
  188.5140  177.5920  146.6260 C   0  0  0  0  0  2  0  0  0  0  0  0
  186.4840  177.4510  145.3230 C   0  0  1  0  0  3  0  0  0  0  0  0
  185.9280  177.1940  146.7450 C   0  0  0  0  0  1  0  0  0  0  0  0
  185.7390  178.5760  144.5580 C   0  0  2  0  0  3  0  0  0  0  0  0
  184.2250  178.2920  142.7340 C   0  0  0  0  0  2  0  0  0  0  0  0
  184.3670  178.7930  145.0390 N   0  0  0  0  0  2  0  0  0  0  0  0
  185.6770  178.2120  143.1130 C   0  0  0  0  0  2  0  0  0  0  0  0
  183.5800  179.0400  143.8520 C   0  0  0  0  0  2  0  0  0  0  0  0
  193.8110  170.6960  144.0910 S   0  0  0  0  0  0  0  0  0  0  0  0
  191.3920  170.1660  139.4570 C   0  0  0  0  0  2  0  0  0  0  0  0
  192.0530  171.4360  139.1750 N   0  0  0  0  0  0  0  0  0  0  0  0
  193.1510  170.8630  141.3480 C   0  0  1  0  0  0  0  0  0  0  0  0
  194.3380  170.8350  142.3200 C   0  0  2  0  0  3  0  0  0  0  0  0
  191.0070  170.0280  140.9380 C   0  0  1  0  0  3  0  0  0  0  0  0
  193.3020  171.4940  139.9450 C   0  0  0  0  0  2  0  0  0  0  0  0
  193.9910  169.6020  141.4810 C   0  0  0  0  0  2  0  0  0  0  0  0
  190.8480  168.5490  141.3150 C   0  0  0  0  0  1  0  0  0  0  0  0
  191.8360  170.7020  141.8740 O   0  0  0  0  0  0  0  0  0  0  0  0
  192.3930  171.3590  137.7960 N   0  0  0  0  0  2  0  0  0  0  0  0
  192.1520  172.6230  137.0950 C   0  0  1  0  0  3  0  0  0  0  0  0
  191.2850  172.4260  135.8250 C   0  0  2  0  0  3  0  0  0  0  0  0
  190.2600  174.1510  136.9370 C   0  0  2  0  0  3  0  0  0  0  0  0
  190.7580  173.7660  135.6040 N   0  0  0  0  0  0  0  0  0  0  0  0
  191.3590  173.6670  137.8970 C   0  0  0  0  0  2  0  0  0  0  0  0
  189.1920  171.8590  137.2350 C   0  0  0  0  0  2  0  0  0  0  0  0
  188.9630  173.3840  137.2850 C   0  0  0  0  0  2  0  0  0  0  0  0
  189.7700  173.8520  134.5150 C   0  0  0  0  0  1  0  0  0  0  0  0
  190.1020  171.4290  136.0630 C   0  0  0  0  0  2  0  0  0  0  0  0
  1  7  1  0  0  0  0
  3 10  2  0  0  0  0
  4 14  1  6  0  0  0
  4 12  1  0  0  0  0
  5  3  1  0  0  0  0
  6 17  1  6  0  0  0
  6  4  1  0  0  0  0
  8 16  1  0  0  0  0
  8 17  2  0  0  0  0
  9 14  2  0  0  0  0
 11  7  2  0  0  0  0
 11 12  1  0  0  0  0
 13  5  1  0  0  0  0
 13 14  1  0  0  0  0
 15  2  1  1  0  0  0
 15  3  1  0  0  0  0
 15  6  1  0  0  0  0
 16  1  2  0  0  0  0
 17 11  1  0  0  0  0
 18 24  1  0  0  0  0
 18 23  1  0  0  0  0
 21 10  1  6  0  0  0
 21 19  1  0  0  0  0
 22 20  1  6  0  0  0
 22 18  1  0  0  0  0
 22 21  1  0  0  0  0
 23 19  1  0  0  0  0
 24 25  1  1  0  0  0
 26 28  1  0  0  0  0
 26 24  1  1  0  0  0
 27 29  1  0  0  0  0
 27 30  1  0  0  0  0
 29 26  1  0  0  0  0
 30 28  1  0  0  0  0
 31  8  1  0  0  0  0
 32 36  1  0  0  0  0
 33 32  1  0  0  0  0
 33 37  1  0  0  0  0
 34 37  1  6  0  0  0
 34 38  1  0  0  0  0
 34 40  1  0  0  0  0
 34 35  1  0  0  0  0
 35 31  1  1  0  0  0
 36 39  1  1  0  0  0
 36 40  1  0  0  0  0
 38 35  1  0  0  0  0
 41 33  1  0  0  0  0
 42 41  1  1  0  0  0
 42 46  1  0  0  0  0
 43 50  1  1  0  0  0
 43 42  1  0  0  0  0
 44 48  1  1  0  0  0
 44 46  1  0  0  0  0
 45 43  1  0  0  0  0
 45 44  1  0  0  0  0
 47 48  1  0  0  0  0
 49 45  1  0  0  0  0
 50 47  1  0  0  0  0
M  END
>  <MODEL>
4

>  <REMARK>
 VINA RESULT:      -7.5      3.106      9.410
  Name = 
  7 active torsions:
  status: ('A' for Active; 'I' for Inactive)
    1  A    between atoms: C_1  and  C_28
    2  A    between atoms: N_3  and  C_28
    3  A    between atoms: C_5  and  N_12
    4  A    between atoms: N_6  and  N_12
    5  A    between atoms: C_10  and  S_21
    6  A    between atoms: C_20  and  S_21
    7  A    between atoms: N_27  and  C_38
                            x       y       z     vdW  Elec       q    Type
                         _______ _______ _______ _____ _____    ______ ____

>  <TORSDO>
F 7

$$$$
=
 OpenBabel11042419493D

 50 58  0  0  1  0  0  0  0  0999 V2000
  197.1680  172.4290  145.5820 C   0  0  0  0  0  3  0  0  0  0  0  0
  191.4880  172.4860  144.4000 O   0  0  0  0  0  1  0  0  0  0  0  0
  190.8940  174.7670  144.8230 C   0  0  0  0  0  0  0  0  0  0  0  0
  193.5940  175.3750  145.7470 C   0  0  1  0  0  3  0  0  0  0  0  0
  191.0450  176.2420  144.4120 C   0  0  0  0  0  2  0  0  0  0  0  0
  193.1560  173.8920  145.5380 C   0  0  1  0  0  3  0  0  0  0  0  0
  196.7730  173.6800  146.0640 C   0  0  0  0  0  3  0  0  0  0  0  0
  194.8900  171.9570  144.8430 C   0  0  0  0  0  0  0  0  0  0  0  0
  194.6800  176.4660  143.8740 O   0  0  0  0  0  0  0  0  0  0  0  0
  189.8790  174.4110  145.5360 N   0  0  0  0  0  0  0  0  0  0  0  0
  195.4410  174.0390  145.9280 C   0  0  0  0  0  0  0  0  0  0  0  0
  194.9260  175.3010  146.3070 N   0  0  0  0  0  2  0  0  0  0  0  0
  192.3450  176.5610  143.8340 N   0  0  0  0  0  2  0  0  0  0  0  0
  193.5930  176.1710  144.4460 C   0  0  0  0  0  0  0  0  0  0  0  0
  192.0120  173.7750  144.5090 C   0  0  1  0  0  3  0  0  0  0  0  0
  196.2380  171.5870  144.9550 C   0  0  0  0  0  3  0  0  0  0  0  0
  194.4970  173.2170  145.3330 C   0  0  0  0  0  0  0  0  0  0  0  0
  187.7670  177.4550  145.4890 N   0  0  0  0  0  0  0  0  0  0  0  0
  189.4080  176.3990  146.9850 C   0  0  0  0  0  2  0  0  0  0  0  0
  187.5910  175.6510  143.9320 O   0  0  0  0  0  1  0  0  0  0  0  0
  188.9060  175.4200  145.9670 C   0  0  1  0  0  3  0  0  0  0  0  0
  188.4410  176.3070  144.8470 C   0  0  2  0  0  3  0  0  0  0  0  0
  188.4100  177.5410  146.8260 C   0  0  0  0  0  2  0  0  0  0  0  0
  186.2960  177.3100  145.6790 C   0  0  1  0  0  3  0  0  0  0  0  0
  185.8250  177.3890  147.1530 C   0  0  0  0  0  1  0  0  0  0  0  0
  185.4410  178.1630  144.7070 C   0  0  2  0  0  3  0  0  0  0  0  0
  186.1390  179.0390  142.5970 C   0  0  0  0  0  2  0  0  0  0  0  0
  184.8220  177.3730  143.6330 N   0  0  0  0  0  2  0  0  0  0  0  0
  186.3170  179.1960  144.0820 C   0  0  0  0  0  2  0  0  0  0  0  0
  184.9190  178.1930  142.4470 C   0  0  0  0  0  2  0  0  0  0  0  0
  193.7780  170.8280  143.9710 S   0  0  0  0  0  0  0  0  0  0  0  0
  193.4860  172.9360  139.1670 C   0  0  0  0  0  2  0  0  0  0  0  0
  194.9320  173.0500  139.3300 N   0  0  0  0  0  0  0  0  0  0  0  0
  194.3880  171.6680  141.3420 C   0  0  1  0  0  0  0  0  0  0  0  0
  194.6870  170.5740  142.3750 C   0  0  2  0  0  3  0  0  0  0  0  0
  192.7370  173.0910  140.5000 C   0  0  1  0  0  3  0  0  0  0  0  0
  195.3910  171.9620  140.2020 C   0  0  0  0  0  2  0  0  0  0  0  0
  193.7650  170.2880  141.1870 C   0  0  0  0  0  2  0  0  0  0  0  0
  191.3530  172.4340  140.4150 C   0  0  0  0  0  1  0  0  0  0  0  0
  193.4270  172.6690  141.6670 O   0  0  0  0  0  0  0  0  0  0  0  0
  195.4540  172.8160  138.0270 N   0  0  0  0  0  2  0  0  0  0  0  0
  195.0850  173.8750  137.0840 C   0  0  1  0  0  3  0  0  0  0  0  0
  196.0980  175.0480  137.1040 C   0  0  2  0  0  3  0  0  0  0  0  0
  195.8740  174.5430  134.8770 C   0  0  2  0  0  3  0  0  0  0  0  0
  195.8570  175.6810  135.8140 N   0  0  0  0  0  0  0  0  0  0  0  0
  195.0750  173.4510  135.6070 C   0  0  0  0  0  2  0  0  0  0  0  0
  197.9400  173.5910  136.0210 C   0  0  0  0  0  2  0  0  0  0  0  0
  197.3130  174.0150  134.6760 C   0  0  0  0  0  2  0  0  0  0  0  0
  196.7940  176.7710  135.4950 C   0  0  0  0  0  1  0  0  0  0  0  0
  197.5800  174.5510  137.1760 C   0  0  0  0  0  2  0  0  0  0  0  0
  1  7  1  0  0  0  0
  3 10  2  0  0  0  0
  4 14  1  6  0  0  0
  4 12  1  0  0  0  0
  5  3  1  0  0  0  0
  6 17  1  6  0  0  0
  6  4  1  0  0  0  0
  8 16  1  0  0  0  0
  8 17  2  0  0  0  0
  9 14  2  0  0  0  0
 11  7  2  0  0  0  0
 11 12  1  0  0  0  0
 13  5  1  0  0  0  0
 13 14  1  0  0  0  0
 15  2  1  1  0  0  0
 15  3  1  0  0  0  0
 15  6  1  0  0  0  0
 16  1  2  0  0  0  0
 17 11  1  0  0  0  0
 18 24  1  0  0  0  0
 18 23  1  0  0  0  0
 21 10  1  6  0  0  0
 21 19  1  0  0  0  0
 22 20  1  6  0  0  0
 22 18  1  0  0  0  0
 22 21  1  0  0  0  0
 23 19  1  0  0  0  0
 24 25  1  1  0  0  0
 26 24  1  1  0  0  0
 27 29  1  0  0  0  0
 28 26  1  0  0  0  0
 29 26  1  0  0  0  0
 30 27  1  0  0  0  0
 30 28  1  0  0  0  0
 31  8  1  0  0  0  0
 32 33  1  0  0  0  0
 32 36  1  0  0  0  0
 33 37  1  0  0  0  0
 34 37  1  6  0  0  0
 34 40  1  0  0  0  0
 34 35  1  0  0  0  0
 35 31  1  1  0  0  0
 36 39  1  6  0  0  0
 36 40  1  0  0  0  0
 38 34  1  0  0  0  0
 38 35  1  0  0  0  0
 41 33  1  0  0  0  0
 42 43  1  0  0  0  0
 42 41  1  1  0  0  0
 43 50  1  6  0  0  0
 44 48  1  1  0  0  0
 44 46  1  0  0  0  0
 44 45  1  0  0  0  0
 45 43  1  0  0  0  0
 46 42  1  0  0  0  0
 47 50  1  0  0  0  0
 48 47  1  0  0  0  0
 49 45  1  0  0  0  0
M  END
>  <MODEL>
5

>  <REMARK>
 VINA RESULT:      -7.3      2.196     10.143
  Name = 
  7 active torsions:
  status: ('A' for Active; 'I' for Inactive)
    1  A    between atoms: C_1  and  C_28
    2  A    between atoms: N_3  and  C_28
    3  A    between atoms: C_5  and  N_12
    4  A    between atoms: N_6  and  N_12
    5  A    between atoms: C_10  and  S_21
    6  A    between atoms: C_20  and  S_21
    7  A    between atoms: N_27  and  C_38
                            x       y       z     vdW  Elec       q    Type
                         _______ _______ _______ _____ _____    ______ ____

>  <TORSDO>
F 7

$$$$
=
 OpenBabel11042419493D

 50 58  0  0  1  0  0  0  0  0999 V2000
  196.0880  176.7020  144.4810 C   0  0  0  0  0  3  0  0  0  0  0  0
  192.2070  172.6650  142.9610 O   0  0  0  0  0  1  0  0  0  0  0  0
  192.6810  172.3420  140.6350 C   0  0  0  0  0  0  0  0  0  0  0  0
  194.6860  174.4610  140.6740 C   0  0  1  0  0  3  0  0  0  0  0  0
  193.6810  171.8520  139.5740 C   0  0  0  0  0  2  0  0  0  0  0  0
  193.7130  174.2840  141.8820 C   0  0  1  0  0  3  0  0  0  0  0  0
  196.1920  176.6950  143.0870 C   0  0  0  0  0  3  0  0  0  0  0  0
  194.4000  174.9400  144.3980 C   0  0  0  0  0  0  0  0  0  0  0  0
  196.8200  173.3200  140.8160 O   0  0  0  0  0  0  0  0  0  0  0  0
  191.4330  172.4440  140.3270 N   0  0  0  0  0  0  0  0  0  0  0  0
  195.3920  175.8120  142.3800 C   0  0  0  0  0  0  0  0  0  0  0  0
  195.4510  175.6520  140.9750 N   0  0  0  0  0  2  0  0  0  0  0  0
  195.0770  172.0190  139.9590 N   0  0  0  0  0  2  0  0  0  0  0  0
  195.6030  173.2580  140.4840 C   0  0  0  0  0  0  0  0  0  0  0  0
  193.1930  172.8360  141.9870 C   0  0  1  0  0  3  0  0  0  0  0  0
  195.2170  175.8140  145.1290 C   0  0  0  0  0  3  0  0  0  0  0  0
  194.5070  174.9390  142.9940 C   0  0  0  0  0  0  0  0  0  0  0  0
  189.8140  172.8030  137.0130 N   0  0  0  0  0  0  0  0  0  0  0  0
  189.8200  171.1950  138.8740 C   0  0  0  0  0  2  0  0  0  0  0  0
  191.5900  174.1840  137.8180 O   0  0  0  0  0  1  0  0  0  0  0  0
  190.9940  172.1220  138.9650 C   0  0  1  0  0  3  0  0  0  0  0  0
  190.5350  173.3260  138.1920 C   0  0  2  0  0  3  0  0  0  0  0  0
  189.3240  171.4720  137.4580 C   0  0  0  0  0  2  0  0  0  0  0  0
  190.6420  172.6160  135.7870 C   0  0  1  0  0  3  0  0  0  0  0  0
  190.6410  171.1740  135.2220 C   0  0  0  0  0  1  0  0  0  0  0  0
  190.4310  173.7080  134.7060 C   0  0  2  0  0  3  0  0  0  0  0  0
  189.2670  175.7750  134.9810 C   0  0  0  0  0  2  0  0  0  0  0  0
  191.4110  174.8000  134.7880 N   0  0  0  0  0  2  0  0  0  0  0  0
  189.0670  174.2890  134.8720 C   0  0  0  0  0  2  0  0  0  0  0  0
  190.6640  176.0070  134.5130 C   0  0  0  0  0  2  0  0  0  0  0  0
  193.3500  173.7970  145.3250 S   0  0  0  0  0  0  0  0  0  0  0  0
  189.7510  177.5740  144.7020 C   0  0  0  0  0  2  0  0  0  0  0  0
  189.0920  176.8710  145.7980 N   0  0  0  0  0  0  0  0  0  0  0  0
  191.2870  175.6720  145.7880 C   0  0  1  0  0  0  0  0  0  0  0  0
  192.4610  174.9540  146.4670 C   0  0  2  0  0  3  0  0  0  0  0  0
  190.5360  176.6200  143.7880 C   0  0  1  0  0  3  0  0  0  0  0  0
  190.1210  176.2360  146.6320 C   0  0  0  0  0  2  0  0  0  0  0  0
  192.5810  176.4250  146.0610 C   0  0  0  0  0  2  0  0  0  0  0  0
  191.6290  177.3830  143.0290 C   0  0  0  0  0  1  0  0  0  0  0  0
  191.0650  175.4510  144.3970 O   0  0  0  0  0  0  0  0  0  0  0  0
  188.4830  177.9030  146.5650 N   0  0  0  0  0  2  0  0  0  0  0  0
  187.1190  177.5580  146.9740 C   0  0  1  0  0  3  0  0  0  0  0  0
  186.1050  178.6720  146.6080 C   0  0  2  0  0  3  0  0  0  0  0  0
  185.1400  176.7520  145.8020 C   0  0  2  0  0  3  0  0  0  0  0  0
  184.8410  177.9470  146.6130 N   0  0  0  0  0  0  0  0  0  0  0  0
  186.5320  176.3150  146.2870 C   0  0  0  0  0  2  0  0  0  0  0  0
  186.3500  178.1850  144.0790 C   0  0  0  0  0  2  0  0  0  0  0  0
  185.2590  177.1170  144.3040 C   0  0  0  0  0  2  0  0  0  0  0  0
  183.6900  178.7430  146.1560 C   0  0  0  0  0  1  0  0  0  0  0  0
  186.3640  179.2650  145.1830 C   0  0  0  0  0  2  0  0  0  0  0  0
  1 16  1  0  0  0  0
  3 15  1  0  0  0  0
  4 14  1  1  0  0  0
  4 12  1  0  0  0  0
  4  6  1  0  0  0  0
  5 13  1  0  0  0  0
  5  3  1  0  0  0  0
  6 15  1  0  0  0  0
  6 17  1  1  0  0  0
  7  1  2  0  0  0  0
  8 16  2  0  0  0  0
  8 31  1  0  0  0  0
 10  3  2  0  0  0  0
 11 17  2  0  0  0  0
 11  7  1  0  0  0  0
 12 11  1  0  0  0  0
 13 14  1  0  0  0  0
 14  9  2  0  0  0  0
 15  2  1  1  0  0  0
 17  8  1  0  0  0  0
 18 23  1  0  0  0  0
 18 22  1  0  0  0  0
 19 21  1  0  0  0  0
 21 10  1  1  0  0  0
 22 20  1  6  0  0  0
 22 21  1  0  0  0  0
 23 19  1  0  0  0  0
 24 25  1  6  0  0  0
 24 18  1  0  0  0  0
 26 28  1  0  0  0  0
 26 29  1  0  0  0  0
 26 24  1  1  0  0  0
 29 27  1  0  0  0  0
 30 28  1  0  0  0  0
 30 27  1  0  0  0  0
 32 33  1  0  0  0  0
 33 41  1  0  0  0  0
 33 37  1  0  0  0  0
 34 38  1  6  0  0  0
 34 35  1  0  0  0  0
 34 37  1  0  0  0  0
 35 31  1  6  0  0  0
 36 39  1  1  0  0  0
 36 40  1  0  0  0  0
 36 32  1  0  0  0  0
 38 35  1  0  0  0  0
 40 34  1  0  0  0  0
 42 41  1  6  0  0  0
 43 50  1  6  0  0  0
 43 45  1  0  0  0  0
 43 42  1  0  0  0  0
 44 48  1  6  0  0  0
 44 46  1  0  0  0  0
 44 45  1  0  0  0  0
 46 42  1  0  0  0  0
 47 48  1  0  0  0  0
 47 50  1  0  0  0  0
 49 45  1  0  0  0  0
M  END
>  <MODEL>
6

>  <REMARK>
 VINA RESULT:      -7.2      2.631      3.295
  Name = 
  7 active torsions:
  status: ('A' for Active; 'I' for Inactive)
    1  A    between atoms: C_1  and  C_28
    2  A    between atoms: N_3  and  C_28
    3  A    between atoms: C_5  and  N_12
    4  A    between atoms: N_6  and  N_12
    5  A    between atoms: C_10  and  S_21
    6  A    between atoms: C_20  and  S_21
    7  A    between atoms: N_27  and  C_38
                            x       y       z     vdW  Elec       q    Type
                         _______ _______ _______ _____ _____    ______ ____

>  <TORSDO>
F 7

$$$$
=
 OpenBabel11042419493D

 50 58  0  0  1  0  0  0  0  0999 V2000
  194.5840  177.5570  146.3480 C   0  0  0  0  0  3  0  0  0  0  0  0
  191.9650  172.6780  144.6180 O   0  0  0  0  0  1  0  0  0  0  0  0
  193.1580  172.1320  142.6140 C   0  0  0  0  0  0  0  0  0  0  0  0
  194.7320  174.5830  142.7960 C   0  0  1  0  0  3  0  0  0  0  0  0
  194.4910  171.7020  141.9770 C   0  0  0  0  0  2  0  0  0  0  0  0
  193.4770  174.3910  143.7050 C   0  0  1  0  0  3  0  0  0  0  0  0
  195.1030  177.3780  145.0630 C   0  0  0  0  0  3  0  0  0  0  0  0
  193.2720  175.5100  146.1420 C   0  0  0  0  0  0  0  0  0  0  0  0
  196.8650  173.9050  143.7270 O   0  0  0  0  0  0  0  0  0  0  0  0
  192.0590  171.9490  141.9640 N   0  0  0  0  0  0  0  0  0  0  0  0
  194.6890  176.2670  144.3440 C   0  0  0  0  0  0  0  0  0  0  0  0
  195.1910  175.9290  143.0640 N   0  0  0  0  0  2  0  0  0  0  0  0
  195.6670  172.1870  142.6900 N   0  0  0  0  0  2  0  0  0  0  0  0
  195.8270  173.5640  143.0950 C   0  0  0  0  0  0  0  0  0  0  0  0
  193.1630  172.8990  143.9360 C   0  0  1  0  0  3  0  0  0  0  0  0
  193.6960  176.6170  146.8890 C   0  0  0  0  0  3  0  0  0  0  0  0
  193.7960  175.3340  144.8470 C   0  0  0  0  0  0  0  0  0  0  0  0
  191.1280  171.2150  138.4530 N   0  0  0  0  0  0  0  0  0  0  0  0
  191.5850  169.9600  140.5170 C   0  0  0  0  0  2  0  0  0  0  0  0
  191.7970  173.3610  139.2640 O   0  0  0  0  0  1  0  0  0  0  0  0
  192.1020  171.3620  140.6200 C   0  0  1  0  0  3  0  0  0  0  0  0
  191.2590  172.1080  139.6230 C   0  0  2  0  0  3  0  0  0  0  0  0
  191.2910  169.8530  139.0240 C   0  0  0  0  0  2  0  0  0  0  0  0
  192.1520  171.4060  137.3850 C   0  0  1  0  0  3  0  0  0  0  0  0
  193.2010  170.2710  137.2880 C   0  0  0  0  0  1  0  0  0  0  0  0
  191.5670  171.8310  136.0130 C   0  0  2  0  0  3  0  0  0  0  0  0
  189.3120  171.5490  135.2800 C   0  0  0  0  0  2  0  0  0  0  0  0
  190.8860  173.1330  136.0520 N   0  0  0  0  0  2  0  0  0  0  0  0
  190.5830  170.8010  135.5720 C   0  0  0  0  0  2  0  0  0  0  0  0
  189.7210  172.9820  135.2110 C   0  0  0  0  0  2  0  0  0  0  0  0
  192.1680  174.3250  146.9460 S   0  0  0  0  0  0  0  0  0  0  0  0
  188.7480  177.4510  144.4670 C   0  0  0  0  0  2  0  0  0  0  0  0
  187.7810  176.7470  145.3040 N   0  0  0  0  0  0  0  0  0  0  0  0
  189.9070  175.8980  146.3120 C   0  0  1  0  0  0  0  0  0  0  0  0
  190.7750  175.4240  147.4840 C   0  0  2  0  0  3  0  0  0  0  0  0
  189.9310  176.5550  144.0690 C   0  0  1  0  0  3  0  0  0  0  0  0
  188.4460  176.3450  146.5500 C   0  0  0  0  0  2  0  0  0  0  0  0
  190.8920  176.8570  146.9620 C   0  0  0  0  0  2  0  0  0  0  0  0
  191.1500  177.4110  143.6990 C   0  0  0  0  0  1  0  0  0  0  0  0
  190.2900  175.5330  144.9880 O   0  0  0  0  0  0  0  0  0  0  0  0
  186.8090  177.7340  145.6270 N   0  0  0  0  0  2  0  0  0  0  0  0
  185.5030  177.4420  145.0290 C   0  0  1  0  0  3  0  0  0  0  0  0
  184.7000  178.7330  144.7300 C   0  0  2  0  0  3  0  0  0  0  0  0
  184.6010  177.5470  142.7680 C   0  0  2  0  0  3  0  0  0  0  0  0
  183.7480  178.2750  143.7260 N   0  0  0  0  0  0  0  0  0  0  0  0
  185.5590  176.7440  143.6620 C   0  0  0  0  0  2  0  0  0  0  0  0
  186.3310  179.4140  142.8420 C   0  0  0  0  0  2  0  0  0  0  0  0
  185.4540  178.5300  141.9320 C   0  0  0  0  0  2  0  0  0  0  0  0
  182.9250  179.3480  143.1450 C   0  0  0  0  0  1  0  0  0  0  0  0
  185.5980  179.8630  144.1250 C   0  0  0  0  0  2  0  0  0  0  0  0
  1 16  1  0  0  0  0
  3 15  1  0  0  0  0
  4 12  1  1  0  0  0
  4 14  1  0  0  0  0
  4  6  1  0  0  0  0
  5  3  1  0  0  0  0
  5 13  1  0  0  0  0
  6 15  1  0  0  0  0
  6 17  1  1  0  0  0
  7  1  2  0  0  0  0
  8 16  2  0  0  0  0
  8 31  1  0  0  0  0
 10  3  2  0  0  0  0
 11 17  2  0  0  0  0
 11  7  1  0  0  0  0
 12 11  1  0  0  0  0
 13 14  1  0  0  0  0
 14  9  2  0  0  0  0
 15  2  1  6  0  0  0
 17  8  1  0  0  0  0
 18 23  1  0  0  0  0
 18 22  1  0  0  0  0
 19 21  1  0  0  0  0
 21 10  1  1  0  0  0
 22 20  1  6  0  0  0
 22 21  1  0  0  0  0
 23 19  1  0  0  0  0
 24 25  1  6  0  0  0
 24 18  1  0  0  0  0
 26 28  1  0  0  0  0
 26 24  1  1  0  0  0
 27 29  1  0  0  0  0
 29 26  1  0  0  0  0
 30 27  1  0  0  0  0
 30 28  1  0  0  0  0
 32 33  1  0  0  0  0
 33 41  1  0  0  0  0
 33 37  1  0  0  0  0
 34 37  1  1  0  0  0
 34 38  1  0  0  0  0
 34 35  1  0  0  0  0
 35 31  1  6  0  0  0
 36 39  1  1  0  0  0
 36 32  1  0  0  0  0
 36 40  1  0  0  0  0
 38 35  1  0  0  0  0
 40 34  1  0  0  0  0
 42 41  1  6  0  0  0
 43 50  1  6  0  0  0
 43 42  1  0  0  0  0
 44 48  1  6  0  0  0
 44 46  1  0  0  0  0
 44 45  1  0  0  0  0
 45 43  1  0  0  0  0
 46 42  1  0  0  0  0
 47 50  1  0  0  0  0
 48 47  1  0  0  0  0
 49 45  1  0  0  0  0
M  END
>  <MODEL>
7

>  <REMARK>
 VINA RESULT:      -7.1      2.887      3.440
  Name = 
  7 active torsions:
  status: ('A' for Active; 'I' for Inactive)
    1  A    between atoms: C_1  and  C_28
    2  A    between atoms: N_3  and  C_28
    3  A    between atoms: C_5  and  N_12
    4  A    between atoms: N_6  and  N_12
    5  A    between atoms: C_10  and  S_21
    6  A    between atoms: C_20  and  S_21
    7  A    between atoms: N_27  and  C_38
                            x       y       z     vdW  Elec       q    Type
                         _______ _______ _______ _____ _____    ______ ____

>  <TORSDO>
F 7

$$$$
=
 OpenBabel11042419493D

 50 58  0  0  1  0  0  0  0  0999 V2000
  189.5460  175.4570  147.1900 C   0  0  0  0  0  3  0  0  0  0  0  0
  187.8560  177.8790  142.1960 O   0  0  0  0  0  1  0  0  0  0  0  0
  185.6550  178.6650  142.7200 C   0  0  0  0  0  0  0  0  0  0  0  0
  185.7880  177.4820  145.3840 C   0  0  1  0  0  3  0  0  0  0  0  0
  184.7880  179.6350  143.5420 C   0  0  0  0  0  2  0  0  0  0  0  0
  186.8610  177.1140  144.3110 C   0  0  1  0  0  3  0  0  0  0  0  0
  188.1860  175.6890  147.4140 C   0  0  0  0  0  3  0  0  0  0  0  0
  189.3820  176.4390  144.9610 C   0  0  0  0  0  0  0  0  0  0  0  0
  186.3210  179.3190  146.8740 O   0  0  0  0  0  0  0  0  0  0  0  0
  185.1690  178.1370  141.6480 N   0  0  0  0  0  0  0  0  0  0  0  0
  187.4530  176.2870  146.4010 C   0  0  0  0  0  0  0  0  0  0  0  0
  186.0880  176.6430  146.5240 N   0  0  0  0  0  2  0  0  0  0  0  0
  185.3470  179.9610  144.8480 N   0  0  0  0  0  2  0  0  0  0  0  0
  185.8310  178.9570  145.7670 C   0  0  0  0  0  0  0  0  0  0  0  0
  187.0170  178.2270  143.2560 C   0  0  1  0  0  3  0  0  0  0  0  0
  190.1410  175.8520  145.9830 C   0  0  0  0  0  3  0  0  0  0  0  0
  188.0120  176.6680  145.1910 C   0  0  0  0  0  0  0  0  0  0  0  0
  181.4690  177.9960  141.5040 N   0  0  0  0  0  0  0  0  0  0  0  0
  183.3600  177.8610  139.9380 C   0  0  0  0  0  2  0  0  0  0  0  0
  182.7340  178.6200  143.4330 O   0  0  0  0  0  1  0  0  0  0  0  0
  183.7920  178.4470  141.2480 C   0  0  1  0  0  3  0  0  0  0  0  0
  182.7650  177.9190  142.2100 C   0  0  2  0  0  3  0  0  0  0  0  0
  181.8410  177.9160  140.0680 C   0  0  0  0  0  2  0  0  0  0  0  0
  180.6950  179.2510  141.7230 C   0  0  1  0  0  3  0  0  0  0  0  0
  180.6780  180.2180  140.5130 C   0  0  0  0  0  1  0  0  0  0  0  0
  179.3000  179.0340  142.3650 C   0  0  2  0  0  3  0  0  0  0  0  0
  178.4120  176.9680  143.1690 C   0  0  0  0  0  2  0  0  0  0  0  0
  179.3310  179.0410  143.8340 N   0  0  0  0  0  2  0  0  0  0  0  0
  178.7660  177.7160  141.9140 C   0  0  0  0  0  2  0  0  0  0  0  0
  178.4100  178.0040  144.2420 C   0  0  0  0  0  2  0  0  0  0  0  0
  190.2500  176.9630  143.4640 S   0  0  0  0  0  0  0  0  0  0  0  0
  189.4030  172.6490  140.5870 C   0  0  0  0  0  2  0  0  0  0  0  0
  190.7190  172.9760  140.0450 N   0  0  0  0  0  0  0  0  0  0  0  0
  190.6170  174.6200  141.9280 C   0  0  1  0  0  0  0  0  0  0  0  0
  191.2380  175.4490  143.0600 C   0  0  2  0  0  3  0  0  0  0  0  0
  188.6070  173.9050  140.9750 C   0  0  1  0  0  3  0  0  0  0  0  0
  191.4940  173.6650  141.0850 C   0  0  0  0  0  2  0  0  0  0  0  0
  190.5050  174.1410  143.3680 C   0  0  0  0  0  2  0  0  0  0  0  0
  187.5310  173.5570  142.0130 C   0  0  0  0  0  1  0  0  0  0  0  0
  189.3640  175.0320  141.3890 O   0  0  0  0  0  0  0  0  0  0  0  0
  191.3290  171.7120  139.8110 N   0  0  0  0  0  2  0  0  0  0  0  0
  192.0770  171.6840  138.5520 C   0  0  1  0  0  3  0  0  0  0  0  0
  192.2160  170.2440  137.9930 C   0  0  2  0  0  3  0  0  0  0  0  0
  191.4560  171.4660  136.2050 C   0  0  2  0  0  3  0  0  0  0  0  0
  192.4950  170.4890  136.5840 N   0  0  0  0  0  0  0  0  0  0  0  0
  191.4180  172.4440  137.3900 C   0  0  0  0  0  2  0  0  0  0  0  0
  189.6900  170.1170  137.4490 C   0  0  0  0  0  2  0  0  0  0  0  0
  190.0700  170.7870  136.1120 C   0  0  0  0  0  2  0  0  0  0  0  0
  192.5420  169.2700  135.7590 C   0  0  0  0  0  1  0  0  0  0  0  0
  190.8900  169.4230  138.1310 C   0  0  0  0  0  2  0  0  0  0  0  0
  1  7  1  0  0  0  0
  3 15  1  0  0  0  0
  3  5  1  0  0  0  0
  4 14  1  1  0  0  0
  4 12  1  0  0  0  0
  5 13  1  0  0  0  0
  6 17  1  1  0  0  0
  6  4  1  0  0  0  0
  8 17  2  0  0  0  0
  8 16  1  0  0  0  0
 10  3  2  0  0  0  0
 11 12  1  0  0  0  0
 11  7  2  0  0  0  0
 13 14  1  0  0  0  0
 14  9  2  0  0  0  0
 15  2  1  6  0  0  0
 15  6  1  0  0  0  0
 16  1  2  0  0  0  0
 17 11  1  0  0  0  0
 18 24  1  0  0  0  0
 18 22  1  0  0  0  0
 19 23  1  0  0  0  0
 19 21  1  0  0  0  0
 21 10  1  1  0  0  0
 21 22  1  0  0  0  0
 22 20  1  1  0  0  0
 23 18  1  0  0  0  0
 24 25  1  6  0  0  0
 26 24  1  6  0  0  0
 26 28  1  0  0  0  0
 27 30  1  0  0  0  0
 28 30  1  0  0  0  0
 29 26  1  0  0  0  0
 29 27  1  0  0  0  0
 31  8  1  0  0  0  0
 32 36  1  0  0  0  0
 33 32  1  0  0  0  0
 33 37  1  0  0  0  0
 34 37  1  6  0  0  0
 34 35  1  0  0  0  0
 34 38  1  0  0  0  0
 35 38  1  0  0  0  0
 35 31  1  1  0  0  0
 36 40  1  0  0  0  0
 36 39  1  1  0  0  0
 40 34  1  0  0  0  0
 41 33  1  0  0  0  0
 42 41  1  1  0  0  0
 43 50  1  6  0  0  0
 43 42  1  0  0  0  0
 44 48  1  1  0  0  0
 44 45  1  0  0  0  0
 44 46  1  0  0  0  0
 45 43  1  0  0  0  0
 46 42  1  0  0  0  0
 47 50  1  0  0  0  0
 48 47  1  0  0  0  0
 49 45  1  0  0  0  0
M  END
>  <MODEL>
8

>  <REMARK>
 VINA RESULT:      -6.7      4.178     11.756
  Name = 
  7 active torsions:
  status: ('A' for Active; 'I' for Inactive)
    1  A    between atoms: C_1  and  C_28
    2  A    between atoms: N_3  and  C_28
    3  A    between atoms: C_5  and  N_12
    4  A    between atoms: N_6  and  N_12
    5  A    between atoms: C_10  and  S_21
    6  A    between atoms: C_20  and  S_21
    7  A    between atoms: N_27  and  C_38
                            x       y       z     vdW  Elec       q    Type
                         _______ _______ _______ _____ _____    ______ ____

>  <TORSDO>
F 7

$$$$
=
 OpenBabel11042419493D

 50 58  0  0  1  0  0  0  0  0999 V2000
  189.3150  175.7000  146.6450 C   0  0  0  0  0  3  0  0  0  0  0  0
  186.4330  177.6600  142.0060 O   0  0  0  0  0  1  0  0  0  0  0  0
  184.3780  178.4340  142.9620 C   0  0  0  0  0  0  0  0  0  0  0  0
  185.1630  177.4780  145.6050 C   0  0  1  0  0  3  0  0  0  0  0  0
  183.6800  179.4470  143.8860 C   0  0  0  0  0  2  0  0  0  0  0  0
  185.9780  177.0480  144.3450 C   0  0  1  0  0  3  0  0  0  0  0  0
  188.0330  175.9170  147.1570 C   0  0  0  0  0  3  0  0  0  0  0  0
  188.6070  176.4910  144.4460 C   0  0  0  0  0  0  0  0  0  0  0  0
  185.9430  179.4440  146.7900 O   0  0  0  0  0  0  0  0  0  0  0  0
  183.6840  177.8080  142.0730 N   0  0  0  0  0  0  0  0  0  0  0  0
  187.0640  176.4120  146.2980 C   0  0  0  0  0  0  0  0  0  0  0  0
  185.7500  176.7430  146.7050 N   0  0  0  0  0  2  0  0  0  0  0  0
  184.5070  179.8930  145.0010 N   0  0  0  0  0  2  0  0  0  0  0  0
  185.2300  178.9810  145.8560 C   0  0  0  0  0  0  0  0  0  0  0  0
  185.8440  178.0740  143.2020 C   0  0  1  0  0  3  0  0  0  0  0  0
  189.6030  176.0090  145.3070 C   0  0  0  0  0  3  0  0  0  0  0  0
  187.3170  176.7040  144.9670 C   0  0  0  0  0  0  0  0  0  0  0  0
  180.4200  178.9100  140.7080 N   0  0  0  0  0  0  0  0  0  0  0  0
  181.7360  179.2230  142.7610 C   0  0  0  0  0  2  0  0  0  0  0  0
  181.8110  177.2340  139.7250 O   0  0  0  0  0  1  0  0  0  0  0  0
  182.2400  178.0500  141.9780 C   0  0  1  0  0  3  0  0  0  0  0  0
  181.7840  178.3560  140.5790 C   0  0  2  0  0  3  0  0  0  0  0  0
  180.4030  179.4980  142.0730 C   0  0  0  0  0  2  0  0  0  0  0  0
  179.3130  177.9160  140.6070 C   0  0  1  0  0  3  0  0  0  0  0  0
  178.9040  177.2660  141.9520 C   0  0  0  0  0  1  0  0  0  0  0  0
  178.1080  178.3920  139.7550 C   0  0  2  0  0  3  0  0  0  0  0  0
  178.0600  180.2740  138.2860 C   0  0  0  0  0  2  0  0  0  0  0  0
  178.1560  177.9140  138.3650 N   0  0  0  0  0  2  0  0  0  0  0  0
  178.0930  179.8830  139.7370 C   0  0  0  0  0  2  0  0  0  0  0  0
  177.6920  179.0220  137.5620 C   0  0  0  0  0  2  0  0  0  0  0  0
  189.0890  176.9100  142.7550 S   0  0  0  0  0  0  0  0  0  0  0  0
  189.4010  172.1610  140.5280 C   0  0  0  0  0  2  0  0  0  0  0  0
  190.5280  172.7670  139.8270 N   0  0  0  0  0  0  0  0  0  0  0  0
  190.0490  174.5710  141.4930 C   0  0  1  0  0  0  0  0  0  0  0  0
  190.4580  175.6990  142.4490 C   0  0  2  0  0  3  0  0  0  0  0  0
  188.2910  173.1800  140.8320 C   0  0  1  0  0  3  0  0  0  0  0  0
  191.1210  173.7930  140.6950 C   0  0  0  0  0  2  0  0  0  0  0  0
  190.1630  174.2960  142.9850 C   0  0  0  0  0  2  0  0  0  0  0  0
  187.4250  172.6950  142.0030 C   0  0  0  0  0  1  0  0  0  0  0  0
  188.7020  174.5250  141.0290 O   0  0  0  0  0  0  0  0  0  0  0  0
  191.4710  171.7100  139.6940 N   0  0  0  0  0  2  0  0  0  0  0  0
  192.1350  171.7220  138.3880 C   0  0  1  0  0  3  0  0  0  0  0  0
  192.2840  170.2950  137.8000 C   0  0  2  0  0  3  0  0  0  0  0  0
  191.3690  171.5130  136.0840 C   0  0  2  0  0  3  0  0  0  0  0  0
  192.4610  170.5670  136.3800 N   0  0  0  0  0  0  0  0  0  0  0  0
  191.3780  172.4750  137.2830 C   0  0  0  0  0  2  0  0  0  0  0  0
  189.7330  170.0920  137.4210 C   0  0  0  0  0  2  0  0  0  0  0  0
  190.0010  170.7920  136.0720 C   0  0  0  0  0  2  0  0  0  0  0  0
  192.4920  169.3610  135.5360 C   0  0  0  0  0  1  0  0  0  0  0  0
  190.9960  169.4300  138.0120 C   0  0  0  0  0  2  0  0  0  0  0  0
  1  7  1  0  0  0  0
  3 15  1  0  0  0  0
  3  5  1  0  0  0  0
  4 14  1  1  0  0  0
  4 12  1  0  0  0  0
  5 13  1  0  0  0  0
  6 17  1  1  0  0  0
  6  4  1  0  0  0  0
  8 17  2  0  0  0  0
  8 16  1  0  0  0  0
 10  3  2  0  0  0  0
 11 12  1  0  0  0  0
 11  7  2  0  0  0  0
 13 14  1  0  0  0  0
 14  9  2  0  0  0  0
 15  2  1  6  0  0  0
 15  6  1  0  0  0  0
 16  1  2  0  0  0  0
 17 11  1  0  0  0  0
 18 23  1  0  0  0  0
 21 10  1  6  0  0  0
 21 19  1  0  0  0  0
 22 20  1  6  0  0  0
 22 18  1  0  0  0  0
 22 21  1  0  0  0  0
 23 19  1  0  0  0  0
 24 18  1  0  0  0  0
 24 25  1  1  0  0  0
 26 24  1  1  0  0  0
 27 29  1  0  0  0  0
 28 26  1  0  0  0  0
 29 26  1  0  0  0  0
 30 27  1  0  0  0  0
 30 28  1  0  0  0  0
 31  8  1  0  0  0  0
 32 36  1  0  0  0  0
 33 32  1  0  0  0  0
 33 37  1  0  0  0  0
 34 37  1  6  0  0  0
 34 35  1  0  0  0  0
 34 38  1  0  0  0  0
 35 31  1  1  0  0  0
 35 38  1  0  0  0  0
 36 40  1  0  0  0  0
 36 39  1  1  0  0  0
 40 34  1  0  0  0  0
 41 33  1  0  0  0  0
 42 41  1  1  0  0  0
 43 50  1  6  0  0  0
 43 42  1  0  0  0  0
 44 48  1  1  0  0  0
 44 45  1  0  0  0  0
 44 46  1  0  0  0  0
 45 43  1  0  0  0  0
 46 42  1  0  0  0  0
 47 50  1  0  0  0  0
 48 47  1  0  0  0  0
 49 45  1  0  0  0  0
M  END
>  <MODEL>
9

>  <REMARK>
 VINA RESULT:      -6.6      4.755     12.151
  Name = 
  7 active torsions:
  status: ('A' for Active; 'I' for Inactive)
    1  A    between atoms: C_1  and  C_28
    2  A    between atoms: N_3  and  C_28
    3  A    between atoms: C_5  and  N_12
    4  A    between atoms: N_6  and  N_12
    5  A    between atoms: C_10  and  S_21
    6  A    between atoms: C_20  and  S_21
    7  A    between atoms: N_27  and  C_38
                            x       y       z     vdW  Elec       q    Type
                         _______ _______ _______ _____ _____    ______ ____

>  <TORSDO>
F 7

$$$$
