=
 OpenBabel11042418163D

 53 56  0  0  1  0  0  0  0  0999 V2000
  192.2550  172.0230  138.8700 C   0  0  0  0  0  2  0  0  0  0  0  0
  191.5340  172.2790  140.1930 C   0  0  2  0  0  3  0  0  0  0  0  0
  191.2970  174.2070  145.1540 C   0  0  0  0  0  2  0  0  0  0  0  0
  192.3800  173.0470  141.1320 N   0  0  2  0  0  0  0  0  0  0  0  0
  196.9160  173.8440  141.6360 C   0  0  0  0  0  3  0  0  0  0  0  0
  193.3030  175.7230  145.1140 C   0  0  2  0  0  3  0  0  0  0  0  0
  188.2420  175.3550  143.2250 C   0  0  0  0  0  0  0  0  0  0  0  0
  193.9650  175.5890  142.7860 C   0  0  0  0  0  0  0  0  0  0  0  0
  188.4720  174.7890  141.9660 C   0  0  0  0  0  3  0  0  0  0  0  0
  191.8350  173.0450  142.5070 C   0  0  0  0  0  2  0  0  0  0  0  0
  192.5360  174.4290  140.6660 C   0  0  0  0  0  2  0  0  0  0  0  0
  193.2580  176.1920  143.7020 C   0  0  0  0  0  3  0  0  0  0  0  0
  192.2770  173.2710  138.0040 C   0  0  1  0  0  3  0  0  0  0  0  0
  193.9210  175.3520  137.5380 O   0  0  0  0  0  0  0  0  0  0  0  0
  196.0810  174.1070  139.3660 C   0  0  0  0  0  2  0  0  0  0  0  0
  194.6700  173.8110  139.5770 N   0  0  1  0  0  0  0  0  0  0  0  0
  194.0250  174.7940  140.4850 C   0  0  2  0  0  3  0  0  0  0  0  0
  193.9490  173.9170  137.9880 S   0  0  0  0  0  0  0  0  0  0  0  0
  189.1770  175.1650  144.2450 C   0  0  0  0  0  3  0  0  0  0  0  0
  189.6350  174.0550  141.7290 C   0  0  0  0  0  3  0  0  0  0  0  0
  194.6940  175.0030  141.8600 C   0  0  0  0  0  0  0  0  0  0  0  0
  196.2090  175.1150  142.0050 C   0  0  1  0  0  3  0  0  0  0  0  0
  190.3530  174.4380  144.0140 C   0  0  0  0  0  0  0  0  0  0  0  0
  190.5970  173.8880  142.7390 C   0  0  0  0  0  0  0  0  0  0  0  0
  194.7640  173.1120  137.0120 O   0  0  0  0  0  0  0  0  0  0  0  0
  196.8830  173.3830  140.3900 C   0  0  0  0  0  3  0  0  0  0  0  0
  191.8970  175.5140  145.6520 C   0  0  0  0  0  2  0  0  0  0  0  0
  192.0070  169.9350  140.7110 C   0  0  0  0  0  2  0  0  0  0  0  0
  189.8960  170.7530  141.3290 O   0  0  0  0  0  1  0  0  0  0  0  0
  191.1460  170.9400  140.7510 C   0  0  0  0  0  0  0  0  0  0  0  0
  197.1780  177.0060  143.3310 C   0  0  0  0  0  1  0  0  0  0  0  0
  196.6910  175.5700  143.3850 C   0  0  0  0  0  2  0  0  0  0  0  0
  192.1730  173.9770  135.7110 O   0  0  0  0  0  1  0  0  0  0  0  0
  191.7630  172.9730  136.5900 C   0  0  2  0  0  3  0  0  0  0  0  0
  189.2730  173.9020  137.8210 C   0  0  0  0  0  1  0  0  0  0  0  0
  189.4650  173.3140  135.2100 O   0  0  0  0  0  0  0  0  0  0  0  0
  189.9750  172.8710  136.5530 S   0  0  0  0  0  0  0  0  0  0  0  0
  189.5510  171.4500  136.7980 O   0  0  0  0  0  0  0  0  0  0  0  0
  194.5180  177.5240  146.5810 N   0  0  0  0  0  0  0  0  0  0  0  0
  193.9830  176.7280  145.9330 C   0  0  0  0  0  0  0  0  0  0  0  0
  187.0600  176.1120  143.4930 N   0  0  0  0  0  2  0  0  0  0  0  0
  187.0910  177.5290  143.8380 C   0  0  0  0  0  2  0  0  0  0  0  0
  185.7340  178.1910  143.5830 C   0  0  1  0  0  0  0  0  0  0  0  0
  185.9120  179.7080  143.7270 C   0  0  0  0  0  1  0  0  0  0  0  0
  186.0260  178.5140  141.2130 F   0  0  0  0  0  0  0  0  0  0  0  0
  185.2710  177.8260  142.1490 C   0  0  2  0  0  3  0  0  0  0  0  0
  183.7900  178.0930  141.8910 C   0  0  0  0  0  2  0  0  0  0  0  0
  183.5440  178.3180  140.4120 C   0  0  0  0  0  1  0  0  0  0  0  0
  184.8220  177.6930  144.5510 O   0  0  0  0  0  0  0  0  0  0  0  0
  184.4790  178.7070  145.4660 C   0  0  0  0  0  2  0  0  0  0  0  0
  185.2210  176.9280  146.8680 O   0  0  0  0  0  1  0  0  0  0  0  0
  184.7950  178.2560  146.8790 C   0  0  1  0  0  3  0  0  0  0  0  0
  185.8900  179.1300  147.4540 C   0  0  0  0  0  1  0  0  0  0  0  0
  1  2  1  0  0  0  0
  2 30  1  1  0  0  0
  2  4  1  0  0  0  0
  3 27  1  0  0  0  0
  4 11  1  6  0  0  0
  4 10  1  0  0  0  0
  5 22  1  0  0  0  0
  6 27  1  0  0  0  0
  6 40  1  1  0  0  0
  7 41  1  0  0  0  0
  7 19  1  0  0  0  0
  8 12  2  0  0  0  0
  9  7  2  0  0  0  0
 10 24  1  0  0  0  0
 12  6  1  0  0  0  0
 13 34  1  6  0  0  0
 13  1  1  0  0  0  0
 14 18  2  0  0  0  0
 15 26  1  0  0  0  0
 16 15  1  6  0  0  0
 16 17  1  0  0  0  0
 17 11  1  1  0  0  0
 17 21  1  0  0  0  0
 18 13  1  0  0  0  0
 18 16  1  0  0  0  0
 20  9  1  0  0  0  0
 20 24  2  0  0  0  0
 21 22  1  0  0  0  0
 21  8  2  0  0  0  0
 22 32  1  1  0  0  0
 23 19  2  0  0  0  0
 23  3  1  0  0  0  0
 24 23  1  0  0  0  0
 25 18  2  0  0  0  0
 26  5  2  0  0  0  0
 28 30  2  0  0  0  0
 30 29  1  0  0  0  0
 31 32  1  0  0  0  0
 34 33  1  6  0  0  0
 36 37  2  0  0  0  0
 37 34  1  0  0  0  0
 37 38  2  0  0  0  0
 37 35  1  0  0  0  0
 40 39  3  0  0  0  0
 41 42  1  0  0  0  0
 43 44  1  1  0  0  0
 43 42  1  0  0  0  0
 43 49  1  0  0  0  0
 46 45  1  6  0  0  0
 46 43  1  0  0  0  0
 47 46  1  0  0  0  0
 48 47  1  0  0  0  0
 49 50  1  0  0  0  0
 50 52  1  0  0  0  0
 51 52  1  0  0  0  0
 52 53  1  6  0  0  0
M  END
>  <MODEL>
1

>  <REMARK>
 VINA RESULT:      -7.2      0.000      0.000
  Name = 
  13 active torsions:
  status: ('A' for Active; 'I' for Inactive)
    1  A    between atoms: C_3  and  C_38
    2  A    between atoms: C_6  and  C_43
    3  A    between atoms: C_8  and  C_38
    4  A    between atoms: C_8  and  C_42
    5  A    between atoms: C_8  and  O_49
    6  A    between atoms: C_9  and  C_27
    7  A    between atoms: C_9  and  S_28
    8  A    between atoms: C_15  and  C_44
    9  A    between atoms: C_16  and  O_49
   10  A    between atoms: C_16  and  C_50
   11  A    between atoms: N_17  and  C_19
   12  A    between atoms: N_17  and  C_42
   13  A    between atoms: C_31  and  C_41
                            x       y       z     vdW  Elec       q    Type
                         _______ _______ _______ _____ _____    ______ ____

>  <TORSDO>
F 13

$$$$
=
 OpenBabel11042418163D

 53 56  0  0  1  0  0  0  0  0999 V2000
  193.5540  171.7110  138.3760 C   0  0  0  0  0  2  0  0  0  0  0  0
  192.6340  171.7970  139.5930 C   0  0  2  0  0  3  0  0  0  0  0  0
  191.5150  173.3050  144.5790 C   0  0  0  0  0  2  0  0  0  0  0  0
  193.2600  172.5630  140.6930 N   0  0  2  0  0  0  0  0  0  0  0  0
  197.5780  173.7230  141.9050 C   0  0  0  0  0  3  0  0  0  0  0  0
  193.3460  174.9930  144.9300 C   0  0  2  0  0  3  0  0  0  0  0  0
  188.6600  174.3200  142.3010 C   0  0  0  0  0  0  0  0  0  0  0  0
  194.3350  175.1010  142.7210 C   0  0  0  0  0  0  0  0  0  0  0  0
  189.1190  173.8770  141.0560 C   0  0  0  0  0  3  0  0  0  0  0  0
  192.5310  172.4050  141.9700 C   0  0  0  0  0  2  0  0  0  0  0  0
  193.3400  173.9860  140.3440 C   0  0  0  0  0  2  0  0  0  0  0  0
  193.4510  175.5650  143.5600 C   0  0  0  0  0  3  0  0  0  0  0  0
  193.5720  173.0190  137.6040 C   0  0  1  0  0  3  0  0  0  0  0  0
  195.0480  175.2690  137.5180 O   0  0  0  0  0  0  0  0  0  0  0  0
  197.0460  174.0850  139.5590 C   0  0  0  0  0  2  0  0  0  0  0  0
  195.6560  173.6480  139.5420 N   0  0  1  0  0  0  0  0  0  0  0  0
  194.7960  174.4960  140.4070 C   0  0  2  0  0  3  0  0  0  0  0  0
  195.1560  173.8120  137.8740 S   0  0  0  0  0  0  0  0  0  0  0  0
  189.4570  174.1360  143.4320 C   0  0  0  0  0  3  0  0  0  0  0  0
  190.3710  173.2700  140.9460 C   0  0  0  0  0  3  0  0  0  0  0  0
  195.2420  174.6560  141.8750 C   0  0  0  0  0  0  0  0  0  0  0  0
  196.7030  174.8930  142.2470 C   0  0  1  0  0  3  0  0  0  0  0  0
  190.7210  173.5380  143.3300 C   0  0  0  0  0  0  0  0  0  0  0  0
  191.1940  173.1130  142.0720 C   0  0  0  0  0  0  0  0  0  0  0  0
  196.1760  173.1620  136.9780 O   0  0  0  0  0  0  0  0  0  0  0  0
  197.7660  173.3600  140.6410 C   0  0  0  0  0  3  0  0  0  0  0  0
  191.9060  174.6180  145.2430 C   0  0  0  0  0  2  0  0  0  0  0  0
  191.0950  169.9040  139.7800 C   0  0  0  0  0  2  0  0  0  0  0  0
  193.2750  169.5850  140.5910 O   0  0  0  0  0  1  0  0  0  0  0  0
  192.3080  170.3900  140.0010 C   0  0  0  0  0  0  0  0  0  0  0  0
  197.3980  174.0770  144.5110 C   0  0  0  0  0  1  0  0  0  0  0  0
  196.9390  175.2810  143.7100 C   0  0  0  0  0  2  0  0  0  0  0  0
  193.6760  173.9080  135.3750 O   0  0  0  0  0  1  0  0  0  0  0  0
  193.2930  172.7870  136.1140 C   0  0  2  0  0  3  0  0  0  0  0  0
  191.2590  170.7180  135.7140 C   0  0  0  0  0  1  0  0  0  0  0  0
  190.7300  173.0500  136.9320 O   0  0  0  0  0  0  0  0  0  0  0  0
  191.5560  172.4680  135.8170 S   0  0  0  0  0  0  0  0  0  0  0  0
  191.1470  173.1030  134.5180 O   0  0  0  0  0  0  0  0  0  0  0  0
  194.1580  176.7790  146.6700 N   0  0  0  0  0  0  0  0  0  0  0  0
  193.8000  175.9890  145.9020 C   0  0  0  0  0  0  0  0  0  0  0  0
  187.3830  174.9440  142.4410 N   0  0  0  0  0  2  0  0  0  0  0  0
  187.0860  176.2670  141.9010 C   0  0  0  0  0  2  0  0  0  0  0  0
  187.1050  177.3310  143.0010 C   0  0  1  0  0  0  0  0  0  0  0  0
  186.8260  176.6370  144.3400 C   0  0  0  0  0  1  0  0  0  0  0  0
  189.2510  177.5650  141.9320 F   0  0  0  0  0  0  0  0  0  0  0  0
  188.5020  178.0030  143.0110 C   0  0  2  0  0  3  0  0  0  0  0  0
  189.2910  177.7690  144.2970 C   0  0  0  0  0  2  0  0  0  0  0  0
  190.7660  178.0310  144.0660 C   0  0  0  0  0  1  0  0  0  0  0  0
  186.0910  178.2790  142.7000 O   0  0  0  0  0  0  0  0  0  0  0  0
  184.8710  177.8940  143.2900 C   0  0  0  0  0  2  0  0  0  0  0  0
  183.9410  178.5690  145.3790 O   0  0  0  0  0  1  0  0  0  0  0  0
  184.3150  179.0360  144.1190 C   0  0  1  0  0  3  0  0  0  0  0  0
  185.3740  180.1070  144.2740 C   0  0  0  0  0  1  0  0  0  0  0  0
  1  2  1  0  0  0  0
  2 30  1  1  0  0  0
  2  4  1  0  0  0  0
  3 27  1  0  0  0  0
  4 11  1  6  0  0  0
  4 10  1  0  0  0  0
  5 22  1  0  0  0  0
  6 27  1  0  0  0  0
  6 40  1  1  0  0  0
  7 41  1  0  0  0  0
  7 19  1  0  0  0  0
  8 12  2  0  0  0  0
  9  7  2  0  0  0  0
 10 24  1  0  0  0  0
 12  6  1  0  0  0  0
 13 34  1  6  0  0  0
 13 18  1  0  0  0  0
 13  1  1  0  0  0  0
 14 18  2  0  0  0  0
 15 26  1  0  0  0  0
 16 15  1  6  0  0  0
 16 17  1  0  0  0  0
 17 11  1  1  0  0  0
 17 21  1  0  0  0  0
 18 16  1  0  0  0  0
 20  9  1  0  0  0  0
 20 24  2  0  0  0  0
 21 22  1  0  0  0  0
 21  8  2  0  0  0  0
 22 32  1  1  0  0  0
 23 19  2  0  0  0  0
 23  3  1  0  0  0  0
 24 23  1  0  0  0  0
 25 18  2  0  0  0  0
 26  5  2  0  0  0  0
 28 30  2  0  0  0  0
 30 29  1  0  0  0  0
 32 31  1  0  0  0  0
 34 33  1  6  0  0  0
 35 37  1  0  0  0  0
 37 34  1  0  0  0  0
 37 36  2  0  0  0  0
 38 37  2  0  0  0  0
 40 39  3  0  0  0  0
 42 41  1  0  0  0  0
 42 43  1  0  0  0  0
 43 46  1  0  0  0  0
 43 44  1  1  0  0  0
 46 45  1  6  0  0  0
 46 47  1  0  0  0  0
 48 47  1  0  0  0  0
 49 43  1  0  0  0  0
 49 50  1  0  0  0  0
 50 52  1  0  0  0  0
 52 53  1  1  0  0  0
 52 51  1  0  0  0  0
M  END
>  <MODEL>
2

>  <REMARK>
 VINA RESULT:      -7.2      1.598      2.327
  Name = 
  13 active torsions:
  status: ('A' for Active; 'I' for Inactive)
    1  A    between atoms: C_3  and  C_38
    2  A    between atoms: C_6  and  C_43
    3  A    between atoms: C_8  and  C_38
    4  A    between atoms: C_8  and  C_42
    5  A    between atoms: C_8  and  O_49
    6  A    between atoms: C_9  and  C_27
    7  A    between atoms: C_9  and  S_28
    8  A    between atoms: C_15  and  C_44
    9  A    between atoms: C_16  and  O_49
   10  A    between atoms: C_16  and  C_50
   11  A    between atoms: N_17  and  C_19
   12  A    between atoms: N_17  and  C_42
   13  A    between atoms: C_31  and  C_41
                            x       y       z     vdW  Elec       q    Type
                         _______ _______ _______ _____ _____    ______ ____

>  <TORSDO>
F 13

$$$$
=
 OpenBabel11042418163D

 53 56  0  0  1  0  0  0  0  0999 V2000
  193.3730  171.8540  138.4040 C   0  0  0  0  0  2  0  0  0  0  0  0
  192.4490  171.9330  139.6180 C   0  0  2  0  0  3  0  0  0  0  0  0
  191.3430  173.3450  144.6350 C   0  0  0  0  0  2  0  0  0  0  0  0
  193.0880  172.6560  140.7400 N   0  0  2  0  0  0  0  0  0  0  0  0
  197.4270  173.6820  141.9980 C   0  0  0  0  0  3  0  0  0  0  0  0
  193.2120  174.9790  145.0350 C   0  0  2  0  0  3  0  0  0  0  0  0
  188.5240  174.4840  142.3720 C   0  0  0  0  0  0  0  0  0  0  0  0
  194.2150  175.1170  142.8330 C   0  0  0  0  0  0  0  0  0  0  0  0
  188.9790  174.0610  141.1170 C   0  0  0  0  0  3  0  0  0  0  0  0
  192.3500  172.4850  142.0090 C   0  0  0  0  0  2  0  0  0  0  0  0
  193.2050  174.0850  140.4260 C   0  0  0  0  0  2  0  0  0  0  0  0
  193.3380  175.5820  143.6800 C   0  0  0  0  0  3  0  0  0  0  0  0
  193.4270  173.1800  137.6640 C   0  0  1  0  0  3  0  0  0  0  0  0
  194.9560  175.3960  137.6390 O   0  0  0  0  0  0  0  0  0  0  0  0
  196.9160  174.1140  139.6590 C   0  0  0  0  0  2  0  0  0  0  0  0
  195.5150  173.7110  139.6260 N   0  0  1  0  0  0  0  0  0  0  0  0
  194.6720  174.5580  140.5070 C   0  0  2  0  0  3  0  0  0  0  0  0
  195.0280  173.9280  137.9600 S   0  0  0  0  0  0  0  0  0  0  0  0
  189.3120  174.2530  143.5010 C   0  0  0  0  0  3  0  0  0  0  0  0
  190.2160  173.4270  140.9970 C   0  0  0  0  0  3  0  0  0  0  0  0
  195.1150  174.6720  141.9810 C   0  0  0  0  0  0  0  0  0  0  0  0
  196.5790  174.8630  142.3650 C   0  0  1  0  0  3  0  0  0  0  0  0
  190.5610  173.6270  143.3890 C   0  0  0  0  0  0  0  0  0  0  0  0
  191.0300  173.2220  142.1230 C   0  0  0  0  0  0  0  0  0  0  0  0
  196.0360  173.2760  137.0530 O   0  0  0  0  0  0  0  0  0  0  0  0
  197.6120  173.3450  140.7260 C   0  0  0  0  0  3  0  0  0  0  0  0
  191.7630  174.6310  145.3330 C   0  0  0  0  0  2  0  0  0  0  0  0
  190.8620  170.0770  139.7620 C   0  0  0  0  0  2  0  0  0  0  0  0
  193.0350  169.6790  140.5550 O   0  0  0  0  0  1  0  0  0  0  0  0
  192.0880  170.5240  139.9910 C   0  0  0  0  0  0  0  0  0  0  0  0
  197.2770  173.9830  144.6040 C   0  0  0  0  0  1  0  0  0  0  0  0
  196.8170  175.2100  143.8380 C   0  0  0  0  0  2  0  0  0  0  0  0
  193.7300  174.0300  135.4380 O   0  0  0  0  0  1  0  0  0  0  0  0
  193.1480  172.9910  136.1680 C   0  0  2  0  0  3  0  0  0  0  0  0
  190.5000  173.8020  137.1200 C   0  0  0  0  0  1  0  0  0  0  0  0
  191.1120  173.6390  134.5130 O   0  0  0  0  0  0  0  0  0  0  0  0
  191.3900  172.9650  135.8280 S   0  0  0  0  0  0  0  0  0  0  0  0
  190.9160  171.5410  135.7620 O   0  0  0  0  0  0  0  0  0  0  0  0
  194.0620  176.7010  146.8210 N   0  0  0  0  0  0  0  0  0  0  0  0
  193.6860  175.9400  146.0340 C   0  0  0  0  0  0  0  0  0  0  0  0
  187.2620  175.1350  142.5210 N   0  0  0  0  0  2  0  0  0  0  0  0
  187.0060  176.4850  142.0310 C   0  0  0  0  0  2  0  0  0  0  0  0
  186.7480  177.4550  143.1870 C   0  0  1  0  0  0  0  0  0  0  0  0
  186.4300  178.8320  142.5890 C   0  0  0  0  0  1  0  0  0  0  0  0
  184.4500  177.7520  143.8460 F   0  0  0  0  0  0  0  0  0  0  0  0
  185.5490  176.9270  144.0150 C   0  0  2  0  0  3  0  0  0  0  0  0
  185.8430  176.7830  145.5060 C   0  0  0  0  0  2  0  0  0  0  0  0
  185.2120  177.9240  146.2800 C   0  0  0  0  0  1  0  0  0  0  0  0
  187.9260  177.5060  143.9780 O   0  0  0  0  0  0  0  0  0  0  0  0
  189.0010  178.0150  143.2230 C   0  0  0  0  0  2  0  0  0  0  0  0
  191.1910  178.8030  143.7390 O   0  0  0  0  0  1  0  0  0  0  0  0
  190.3100  177.7400  143.9380 C   0  0  1  0  0  3  0  0  0  0  0  0
  190.0490  177.5740  145.4200 C   0  0  0  0  0  1  0  0  0  0  0  0
  1  2  1  0  0  0  0
  2 30  1  1  0  0  0
  2  4  1  0  0  0  0
  3 27  1  0  0  0  0
  4 11  1  6  0  0  0
  4 10  1  0  0  0  0
  5 22  1  0  0  0  0
  6 27  1  0  0  0  0
  6 40  1  1  0  0  0
  7 41  1  0  0  0  0
  7 19  1  0  0  0  0
  8 12  2  0  0  0  0
  9  7  2  0  0  0  0
 10 24  1  0  0  0  0
 12  6  1  0  0  0  0
 13 34  1  6  0  0  0
 13 18  1  0  0  0  0
 13  1  1  0  0  0  0
 14 18  2  0  0  0  0
 15 26  1  0  0  0  0
 16 15  1  6  0  0  0
 16 17  1  0  0  0  0
 17 11  1  1  0  0  0
 17 21  1  0  0  0  0
 18 16  1  0  0  0  0
 20  9  1  0  0  0  0
 20 24  2  0  0  0  0
 21 22  1  0  0  0  0
 21  8  2  0  0  0  0
 22 32  1  1  0  0  0
 23 19  2  0  0  0  0
 23  3  1  0  0  0  0
 24 23  1  0  0  0  0
 25 18  2  0  0  0  0
 26  5  2  0  0  0  0
 28 30  2  0  0  0  0
 30 29  1  0  0  0  0
 32 31  1  0  0  0  0
 34 33  1  6  0  0  0
 36 37  2  0  0  0  0
 37 34  1  0  0  0  0
 37 35  1  0  0  0  0
 38 37  2  0  0  0  0
 40 39  3  0  0  0  0
 42 41  1  0  0  0  0
 42 43  1  0  0  0  0
 43 44  1  6  0  0  0
 43 49  1  0  0  0  0
 43 46  1  0  0  0  0
 46 45  1  1  0  0  0
 46 47  1  0  0  0  0
 47 48  1  0  0  0  0
 50 52  1  0  0  0  0
 50 49  1  0  0  0  0
 51 52  1  0  0  0  0
 52 53  1  1  0  0  0
M  END
>  <MODEL>
3

>  <REMARK>
 VINA RESULT:      -7.1      1.709      2.371
  Name = 
  13 active torsions:
  status: ('A' for Active; 'I' for Inactive)
    1  A    between atoms: C_3  and  C_38
    2  A    between atoms: C_6  and  C_43
    3  A    between atoms: C_8  and  C_38
    4  A    between atoms: C_8  and  C_42
    5  A    between atoms: C_8  and  O_49
    6  A    between atoms: C_9  and  C_27
    7  A    between atoms: C_9  and  S_28
    8  A    between atoms: C_15  and  C_44
    9  A    between atoms: C_16  and  O_49
   10  A    between atoms: C_16  and  C_50
   11  A    between atoms: N_17  and  C_19
   12  A    between atoms: N_17  and  C_42
   13  A    between atoms: C_31  and  C_41
                            x       y       z     vdW  Elec       q    Type
                         _______ _______ _______ _____ _____    ______ ____

>  <TORSDO>
F 13

$$$$
=
 OpenBabel11042418163D

 53 56  0  0  1  0  0  0  0  0999 V2000
  193.4570  171.7650  138.4480 C   0  0  0  0  0  2  0  0  0  0  0  0
  192.5270  171.8680  139.6550 C   0  0  2  0  0  3  0  0  0  0  0  0
  191.3760  173.4280  144.6180 C   0  0  0  0  0  2  0  0  0  0  0  0
  193.1480  172.6400  140.7540 N   0  0  2  0  0  0  0  0  0  0  0  0
  197.4620  173.7900  141.9900 C   0  0  0  0  0  3  0  0  0  0  0  0
  193.2120  175.1100  144.9680 C   0  0  2  0  0  3  0  0  0  0  0  0
  188.5450  174.4360  142.3080 C   0  0  0  0  0  0  0  0  0  0  0  0
  194.2200  175.1920  142.7660 C   0  0  0  0  0  0  0  0  0  0  0  0
  189.0120  173.9790  141.0700 C   0  0  0  0  0  3  0  0  0  0  0  0
  192.4080  172.4980  142.0260 C   0  0  0  0  0  2  0  0  0  0  0  0
  193.2390  174.0600  140.3920 C   0  0  0  0  0  2  0  0  0  0  0  0
  193.3320  175.6690  143.5930 C   0  0  0  0  0  3  0  0  0  0  0  0
  193.4880  173.0660  137.6630 C   0  0  1  0  0  3  0  0  0  0  0  0
  194.9760  175.3080  137.5680 O   0  0  0  0  0  0  0  0  0  0  0  0
  196.9520  174.1330  139.6360 C   0  0  0  0  0  2  0  0  0  0  0  0
  195.5590  173.7020  139.6120 N   0  0  1  0  0  0  0  0  0  0  0  0
  194.6960  174.5630  140.4610 C   0  0  2  0  0  3  0  0  0  0  0  0
  195.0740  173.8530  137.9390 S   0  0  0  0  0  0  0  0  0  0  0  0
  189.3320  174.2590  143.4470 C   0  0  0  0  0  3  0  0  0  0  0  0
  190.2610  173.3650  140.9760 C   0  0  0  0  0  3  0  0  0  0  0  0
  195.1320  174.7350  141.9320 C   0  0  0  0  0  0  0  0  0  0  0  0
  196.5910  174.9670  142.3140 C   0  0  1  0  0  3  0  0  0  0  0  0
  190.5930  173.6530  143.3610 C   0  0  0  0  0  0  0  0  0  0  0  0
  191.0740  173.2140  142.1100 C   0  0  0  0  0  0  0  0  0  0  0  0
  196.0980  173.1890  137.0570 O   0  0  0  0  0  0  0  0  0  0  0  0
  197.6580  173.4130  140.7310 C   0  0  0  0  0  3  0  0  0  0  0  0
  191.7680  174.7450  145.2720 C   0  0  0  0  0  2  0  0  0  0  0  0
  193.1630  169.6040  140.3340 C   0  0  0  0  0  2  0  0  0  0  0  0
  190.8650  170.0710  140.2140 O   0  0  0  0  0  1  0  0  0  0  0  0
  192.1900  170.4660  140.0750 C   0  0  0  0  0  0  0  0  0  0  0  0
  197.2700  174.1710  144.5900 C   0  0  0  0  0  1  0  0  0  0  0  0
  196.8170  175.3680  143.7740 C   0  0  0  0  0  2  0  0  0  0  0  0
  193.5400  173.9620  135.4360 O   0  0  0  0  0  1  0  0  0  0  0  0
  193.2190  172.8210  136.1740 C   0  0  2  0  0  3  0  0  0  0  0  0
  191.2760  170.6460  135.9060 C   0  0  0  0  0  1  0  0  0  0  0  0
  190.6350  173.0400  136.9340 O   0  0  0  0  0  0  0  0  0  0  0  0
  191.5020  172.4100  135.8780 S   0  0  0  0  0  0  0  0  0  0  0  0
  191.0900  172.9270  134.5280 O   0  0  0  0  0  0  0  0  0  0  0  0
  194.0210  176.9050  146.7010 N   0  0  0  0  0  0  0  0  0  0  0  0
  193.6640  176.1130  145.9350 C   0  0  0  0  0  0  0  0  0  0  0  0
  187.2690  175.0680  142.4310 N   0  0  0  0  0  2  0  0  0  0  0  0
  186.9770  176.3760  141.8560 C   0  0  0  0  0  2  0  0  0  0  0  0
  187.0690  177.4800  142.9120 C   0  0  1  0  0  0  0  0  0  0  0  0
  188.4270  178.1770  142.7540 C   0  0  0  0  0  1  0  0  0  0  0  0
  186.2650  179.7410  143.1350 F   0  0  0  0  0  0  0  0  0  0  0  0
  185.9090  178.4810  142.6800 C   0  0  2  0  0  3  0  0  0  0  0  0
  184.5940  178.0660  143.3360 C   0  0  0  0  0  2  0  0  0  0  0  0
  184.2510  179.0060  144.4740 C   0  0  0  0  0  1  0  0  0  0  0  0
  186.9600  176.8660  144.1880 O   0  0  0  0  0  0  0  0  0  0  0  0
  187.8840  177.4370  145.0860 C   0  0  0  0  0  2  0  0  0  0  0  0
  186.2330  176.6910  146.6360 O   0  0  0  0  0  1  0  0  0  0  0  0
  187.5950  176.9590  146.4960 C   0  0  1  0  0  3  0  0  0  0  0  0
  188.3870  175.6980  146.7720 C   0  0  0  0  0  1  0  0  0  0  0  0
  1  2  1  0  0  0  0
  2 30  1  1  0  0  0
  2  4  1  0  0  0  0
  3 27  1  0  0  0  0
  4 11  1  6  0  0  0
  4 10  1  0  0  0  0
  5 22  1  0  0  0  0
  6 27  1  0  0  0  0
  6 40  1  1  0  0  0
  7 41  1  0  0  0  0
  7 19  1  0  0  0  0
  8 12  2  0  0  0  0
  9  7  2  0  0  0  0
 10 24  1  0  0  0  0
 12  6  1  0  0  0  0
 13 34  1  6  0  0  0
 13 18  1  0  0  0  0
 13  1  1  0  0  0  0
 14 18  2  0  0  0  0
 15 26  1  0  0  0  0
 16 15  1  6  0  0  0
 16 17  1  0  0  0  0
 17 11  1  1  0  0  0
 17 21  1  0  0  0  0
 18 16  1  0  0  0  0
 20  9  1  0  0  0  0
 20 24  2  0  0  0  0
 21 22  1  0  0  0  0
 21  8  2  0  0  0  0
 22 32  1  1  0  0  0
 23 19  2  0  0  0  0
 23  3  1  0  0  0  0
 24 23  1  0  0  0  0
 25 18  2  0  0  0  0
 26  5  2  0  0  0  0
 30 29  1  0  0  0  0
 30 28  2  0  0  0  0
 32 31  1  0  0  0  0
 34 33  1  6  0  0  0
 37 35  1  0  0  0  0
 37 34  1  0  0  0  0
 37 36  2  0  0  0  0
 38 37  2  0  0  0  0
 40 39  3  0  0  0  0
 42 41  1  0  0  0  0
 42 43  1  0  0  0  0
 43 44  1  6  0  0  0
 43 49  1  0  0  0  0
 46 43  1  0  0  0  0
 46 45  1  1  0  0  0
 46 47  1  0  0  0  0
 47 48  1  0  0  0  0
 49 50  1  0  0  0  0
 50 52  1  0  0  0  0
 52 51  1  0  0  0  0
 52 53  1  6  0  0  0
M  END
>  <MODEL>
4

>  <REMARK>
 VINA RESULT:      -7.0      1.407      1.830
  Name = 
  13 active torsions:
  status: ('A' for Active; 'I' for Inactive)
    1  A    between atoms: C_3  and  C_38
    2  A    between atoms: C_6  and  C_43
    3  A    between atoms: C_8  and  C_38
    4  A    between atoms: C_8  and  C_42
    5  A    between atoms: C_8  and  O_49
    6  A    between atoms: C_9  and  C_27
    7  A    between atoms: C_9  and  S_28
    8  A    between atoms: C_15  and  C_44
    9  A    between atoms: C_16  and  O_49
   10  A    between atoms: C_16  and  C_50
   11  A    between atoms: N_17  and  C_19
   12  A    between atoms: N_17  and  C_42
   13  A    between atoms: C_31  and  C_41
                            x       y       z     vdW  Elec       q    Type
                         _______ _______ _______ _____ _____    ______ ____

>  <TORSDO>
F 13

$$$$
=
 OpenBabel11042418163D

 53 56  0  0  1  0  0  0  0  0999 V2000
  194.2370  172.9090  144.2650 C   0  0  0  0  0  2  0  0  0  0  0  0
  193.0630  172.6560  143.3200 C   0  0  2  0  0  3  0  0  0  0  0  0
  188.0710  173.4830  141.6520 C   0  0  0  0  0  2  0  0  0  0  0  0
  191.8990  173.5020  143.6620 N   0  0  2  0  0  0  0  0  0  0  0  0
  190.4280  175.7790  147.4190 C   0  0  0  0  0  3  0  0  0  0  0  0
  187.5540  175.6020  142.9050 C   0  0  2  0  0  3  0  0  0  0  0  0
  190.4330  173.7690  138.7010 C   0  0  0  0  0  0  0  0  0  0  0  0
  189.7060  176.1190  143.8920 C   0  0  0  0  0  0  0  0  0  0  0  0
  191.6750  173.5510  139.3090 C   0  0  0  0  0  3  0  0  0  0  0  0
  190.6680  173.0680  142.9690 C   0  0  0  0  0  2  0  0  0  0  0  0
  192.1770  174.9070  143.3390 C   0  0  0  0  0  2  0  0  0  0  0  0
  188.8890  176.2600  142.8850 C   0  0  0  0  0  3  0  0  0  0  0  0
  194.9450  174.2100  143.9300 C   0  0  1  0  0  3  0  0  0  0  0  0
  194.8550  176.7900  144.6940 O   0  0  0  0  0  0  0  0  0  0  0  0
  192.7780  176.1110  146.8820 C   0  0  0  0  0  2  0  0  0  0  0  0
  192.8820  175.2950  145.6780 N   0  0  1  0  0  0  0  0  0  0  0  0
  192.0210  175.8080  144.5820 C   0  0  2  0  0  3  0  0  0  0  0  0
  194.5630  175.4070  145.2070 S   0  0  0  0  0  0  0  0  0  0  0  0
  189.2750  173.7560  139.4800 C   0  0  0  0  0  3  0  0  0  0  0  0
  191.7530  173.3360  140.6860 C   0  0  0  0  0  3  0  0  0  0  0  0
  190.5270  176.0030  144.9160 C   0  0  0  0  0  0  0  0  0  0  0  0
  190.0740  176.6260  146.2330 C   0  0  1  0  0  3  0  0  0  0  0  0
  189.3440  173.5520  140.8660 C   0  0  0  0  0  0  0  0  0  0  0  0
  190.5970  173.3560  141.4820 C   0  0  0  0  0  0  0  0  0  0  0  0
  195.4380  175.1300  146.4000 O   0  0  0  0  0  0  0  0  0  0  0  0
  191.6980  175.5590  147.7450 C   0  0  0  0  0  3  0  0  0  0  0  0
  187.3290  174.8120  141.6260 C   0  0  0  0  0  2  0  0  0  0  0  0
  192.9840  170.4040  142.3650 C   0  0  0  0  0  2  0  0  0  0  0  0
  192.1980  170.6540  144.5630 O   0  0  0  0  0  1  0  0  0  0  0  0
  192.7370  171.1920  143.4010 C   0  0  0  0  0  0  0  0  0  0  0  0
  187.8100  175.8790  147.0010 C   0  0  0  0  0  1  0  0  0  0  0  0
  188.5860  176.9790  146.3000 C   0  0  0  0  0  2  0  0  0  0  0  0
  197.1390  175.1780  144.0690 O   0  0  0  0  0  1  0  0  0  0  0  0
  196.4560  173.9950  143.7770 C   0  0  2  0  0  3  0  0  0  0  0  0
  197.5040  171.8180  142.1230 C   0  0  0  0  0  1  0  0  0  0  0  0
  195.6640  173.5540  141.2310 O   0  0  0  0  0  0  0  0  0  0  0  0
  196.8790  173.4820  142.1140 S   0  0  0  0  0  0  0  0  0  0  0  0
  197.9410  174.3930  141.5670 O   0  0  0  0  0  0  0  0  0  0  0  0
  185.6950  177.4400  143.1110 N   0  0  0  0  0  0  0  0  0  0  0  0
  186.5150  176.6280  143.0200 C   0  0  0  0  0  0  0  0  0  0  0  0
  190.3260  173.9920  137.2940 N   0  0  0  0  0  2  0  0  0  0  0  0
  189.8890  172.9580  136.3620 C   0  0  0  0  0  2  0  0  0  0  0  0
  191.0520  172.0510  135.9540 C   0  0  1  0  0  0  0  0  0  0  0  0
  190.7330  171.4600  134.5750 C   0  0  0  0  0  1  0  0  0  0  0  0
  192.6640  173.2080  134.5860 F   0  0  0  0  0  0  0  0  0  0  0  0
  192.3460  172.9040  135.9000 C   0  0  2  0  0  3  0  0  0  0  0  0
  193.5500  172.2440  136.5670 C   0  0  0  0  0  2  0  0  0  0  0  0
  194.2870  171.3660  135.5750 C   0  0  0  0  0  1  0  0  0  0  0  0
  191.1630  171.0270  136.9320 O   0  0  0  0  0  0  0  0  0  0  0  0
  189.9100  170.4180  137.1460 C   0  0  0  0  0  2  0  0  0  0  0  0
  190.7780  168.2700  137.7090 O   0  0  0  0  0  1  0  0  0  0  0  0
  190.0350  169.3410  138.2060 C   0  0  1  0  0  3  0  0  0  0  0  0
  190.7290  169.9120  139.4250 C   0  0  0  0  0  1  0  0  0  0  0  0
  2 30  1  1  0  0  0
  2  4  1  0  0  0  0
  2  1  1  0  0  0  0
  4 10  1  6  0  0  0
  5 26  2  0  0  0  0
  6 40  1  6  0  0  0
  7  9  2  0  0  0  0
  7 19  1  0  0  0  0
  8 21  2  0  0  0  0
  9 20  1  0  0  0  0
 11  4  1  0  0  0  0
 12  6  1  0  0  0  0
 12  8  2  0  0  0  0
 13 34  1  1  0  0  0
 13  1  1  0  0  0  0
 13 18  1  0  0  0  0
 14 18  2  0  0  0  0
 15 26  1  0  0  0  0
 16 15  1  1  0  0  0
 17 11  1  6  0  0  0
 17 21  1  0  0  0  0
 17 16  1  0  0  0  0
 18 16  1  0  0  0  0
 18 25  2  0  0  0  0
 19 23  2  0  0  0  0
 20 24  2  0  0  0  0
 21 22  1  0  0  0  0
 22 32  1  6  0  0  0
 22  5  1  0  0  0  0
 23 24  1  0  0  0  0
 23  3  1  0  0  0  0
 24 10  1  0  0  0  0
 27  3  1  0  0  0  0
 27  6  1  0  0  0  0
 28 30  2  0  0  0  0
 30 29  1  0  0  0  0
 32 31  1  0  0  0  0
 34 33  1  6  0  0  0
 36 37  2  0  0  0  0
 37 35  1  0  0  0  0
 37 34  1  0  0  0  0
 38 37  2  0  0  0  0
 40 39  3  0  0  0  0
 41  7  1  0  0  0  0
 42 41  1  0  0  0  0
 43 44  1  6  0  0  0
 43 42  1  0  0  0  0
 43 49  1  0  0  0  0
 46 45  1  6  0  0  0
 46 43  1  0  0  0  0
 46 47  1  0  0  0  0
 48 47  1  0  0  0  0
 49 50  1  0  0  0  0
 50 52  1  0  0  0  0
 51 52  1  0  0  0  0
 52 53  1  1  0  0  0
M  END
>  <MODEL>
5

>  <REMARK>
 VINA RESULT:      -6.6      3.700      8.319
  Name = 
  13 active torsions:
  status: ('A' for Active; 'I' for Inactive)
    1  A    between atoms: C_3  and  C_38
    2  A    between atoms: C_6  and  C_43
    3  A    between atoms: C_8  and  C_38
    4  A    between atoms: C_8  and  C_42
    5  A    between atoms: C_8  and  O_49
    6  A    between atoms: C_9  and  C_27
    7  A    between atoms: C_9  and  S_28
    8  A    between atoms: C_15  and  C_44
    9  A    between atoms: C_16  and  O_49
   10  A    between atoms: C_16  and  C_50
   11  A    between atoms: N_17  and  C_19
   12  A    between atoms: N_17  and  C_42
   13  A    between atoms: C_31  and  C_41
                            x       y       z     vdW  Elec       q    Type
                         _______ _______ _______ _____ _____    ______ ____

>  <TORSDO>
F 13

$$$$
=
 OpenBabel11042418163D

 53 56  0  0  1  0  0  0  0  0999 V2000
  192.1200  173.5520  139.8000 C   0  0  0  0  0  2  0  0  0  0  0  0
  193.1790  173.8540  140.8580 C   0  0  2  0  0  3  0  0  0  0  0  0
  194.7900  176.0030  145.4600 C   0  0  0  0  0  2  0  0  0  0  0  0
  192.6090  174.6030  141.9990 N   0  0  2  0  0  0  0  0  0  0  0  0
  188.8810  177.2620  142.7050 C   0  0  0  0  0  3  0  0  0  0  0  0
  192.5540  176.4580  146.5180 C   0  0  2  0  0  3  0  0  0  0  0  0
  195.9130  172.3850  145.3150 C   0  0  0  0  0  0  0  0  0  0  0  0
  191.0470  175.4130  144.9340 C   0  0  0  0  0  0  0  0  0  0  0  0
  195.3990  171.9780  144.0780 C   0  0  0  0  0  3  0  0  0  0  0  0
  193.6550  175.1660  142.8790 C   0  0  0  0  0  2  0  0  0  0  0  0
  191.7180  173.7390  142.7830 C   0  0  0  0  0  2  0  0  0  0  0  0
  191.7740  175.2960  146.0110 C   0  0  0  0  0  3  0  0  0  0  0  0
  191.2130  172.4140  140.2360 C   0  0  1  0  0  3  0  0  0  0  0  0
  188.8500  172.1080  141.4900 O   0  0  0  0  0  0  0  0  0  0  0  0
  188.4360  175.1720  141.5430 C   0  0  0  0  0  2  0  0  0  0  0  0
  189.7790  174.6050  141.5140 N   0  0  1  0  0  0  0  0  0  0  0  0
  190.2990  174.3390  142.8800 C   0  0  2  0  0  3  0  0  0  0  0  0
  189.6080  173.0960  140.6460 S   0  0  0  0  0  0  0  0  0  0  0  0
  195.6950  173.6930  145.7520 C   0  0  0  0  0  3  0  0  0  0  0  0
  194.6620  172.8690  143.2980 C   0  0  0  0  0  3  0  0  0  0  0  0
  190.2890  175.5290  143.8630 C   0  0  0  0  0  0  0  0  0  0  0  0
  189.0960  176.4750  143.9640 C   0  0  1  0  0  3  0  0  0  0  0  0
  194.9460  174.5920  144.9800 C   0  0  0  0  0  0  0  0  0  0  0  0
  194.4070  174.1750  143.7460 C   0  0  0  0  0  0  0  0  0  0  0  0
  188.8480  173.3350  139.3690 O   0  0  0  0  0  0  0  0  0  0  0  0
  188.5410  176.6560  141.5720 C   0  0  0  0  0  3  0  0  0  0  0  0
  194.0020  176.0640  146.7620 C   0  0  0  0  0  2  0  0  0  0  0  0
  193.9820  175.6530  139.4070 C   0  0  0  0  0  2  0  0  0  0  0  0
  195.6080  174.2600  140.3680 O   0  0  0  0  0  1  0  0  0  0  0  0
  194.2790  174.6180  140.1780 C   0  0  0  0  0  0  0  0  0  0  0  0
  187.9660  177.1880  146.0830 C   0  0  0  0  0  1  0  0  0  0  0  0
  189.1390  177.4390  145.1530 C   0  0  0  0  0  2  0  0  0  0  0  0
  190.2970  170.2920  139.5840 O   0  0  0  0  0  1  0  0  0  0  0  0
  191.1180  171.3350  139.1510 C   0  0  2  0  0  3  0  0  0  0  0  0
  193.5700  170.1520  140.2310 C   0  0  0  0  0  1  0  0  0  0  0  0
  192.5830  169.4900  137.8260 O   0  0  0  0  0  0  0  0  0  0  0  0
  192.7310  170.6670  138.7500 S   0  0  0  0  0  0  0  0  0  0  0  0
  193.5550  171.7260  138.0730 O   0  0  0  0  0  0  0  0  0  0  0  0
  191.5050  177.2790  148.7770 N   0  0  0  0  0  0  0  0  0  0  0  0
  191.9670  176.9160  147.7790 C   0  0  0  0  0  0  0  0  0  0  0  0
  196.6710  171.4930  146.1330 N   0  0  0  0  0  2  0  0  0  0  0  0
  197.4840  170.4140  145.5820 C   0  0  0  0  0  2  0  0  0  0  0  0
  196.9230  169.0430  145.9700 C   0  0  1  0  0  0  0  0  0  0  0  0
  197.7410  168.5130  147.1550 C   0  0  0  0  0  1  0  0  0  0  0  0
  195.2800  169.0580  147.7320 F   0  0  0  0  0  0  0  0  0  0  0  0
  195.4340  169.2150  146.3640 C   0  0  2  0  0  3  0  0  0  0  0  0
  194.4890  168.2580  145.6400 C   0  0  0  0  0  2  0  0  0  0  0  0
  193.4620  169.0350  144.8400 C   0  0  0  0  0  1  0  0  0  0  0  0
  197.0530  168.1900  144.8420 O   0  0  0  0  0  0  0  0  0  0  0  0
  197.7840  168.8330  143.8240 C   0  0  0  0  0  2  0  0  0  0  0  0
  196.0140  168.1760  142.3680 O   0  0  0  0  0  1  0  0  0  0  0  0
  197.4020  168.2580  142.4730 C   0  0  1  0  0  3  0  0  0  0  0  0
  197.9370  169.1550  141.3760 C   0  0  0  0  0  1  0  0  0  0  0  0
  1 13  1  0  0  0  0
  1  2  1  0  0  0  0
  2 30  1  6  0  0  0
  2  4  1  0  0  0  0
  3 27  1  0  0  0  0
  4 11  1  1  0  0  0
  4 10  1  0  0  0  0
  5 22  1  0  0  0  0
  6 27  1  0  0  0  0
  6 40  1  1  0  0  0
  7 19  1  0  0  0  0
  7 41  1  0  0  0  0
  8 12  2  0  0  0  0
  9  7  2  0  0  0  0
 10 24  1  0  0  0  0
 12  6  1  0  0  0  0
 13 34  1  6  0  0  0
 13 18  1  0  0  0  0
 15 26  1  0  0  0  0
 16 15  1  1  0  0  0
 16 17  1  0  0  0  0
 17 11  1  6  0  0  0
 17 21  1  0  0  0  0
 18 14  2  0  0  0  0
 18 16  1  0  0  0  0
 20 24  2  0  0  0  0
 20  9  1  0  0  0  0
 21 22  1  0  0  0  0
 21  8  2  0  0  0  0
 22 32  1  1  0  0  0
 23  3  1  0  0  0  0
 23 19  2  0  0  0  0
 24 23  1  0  0  0  0
 25 18  2  0  0  0  0
 26  5  2  0  0  0  0
 28 30  2  0  0  0  0
 30 29  1  0  0  0  0
 32 31  1  0  0  0  0
 34 33  1  1  0  0  0
 36 37  2  0  0  0  0
 37 34  1  0  0  0  0
 37 35  1  0  0  0  0
 38 37  2  0  0  0  0
 40 39  3  0  0  0  0
 42 43  1  0  0  0  0
 42 41  1  0  0  0  0
 43 46  1  0  0  0  0
 43 44  1  1  0  0  0
 46 45  1  1  0  0  0
 47 46  1  0  0  0  0
 48 47  1  0  0  0  0
 49 43  1  0  0  0  0
 50 49  1  0  0  0  0
 51 52  1  0  0  0  0
 52 53  1  6  0  0  0
 52 50  1  0  0  0  0
M  END
>  <MODEL>
6

>  <REMARK>
 VINA RESULT:      -6.3      4.075      8.831
  Name = 
  13 active torsions:
  status: ('A' for Active; 'I' for Inactive)
    1  A    between atoms: C_3  and  C_38
    2  A    between atoms: C_6  and  C_43
    3  A    between atoms: C_8  and  C_38
    4  A    between atoms: C_8  and  C_42
    5  A    between atoms: C_8  and  O_49
    6  A    between atoms: C_9  and  C_27
    7  A    between atoms: C_9  and  S_28
    8  A    between atoms: C_15  and  C_44
    9  A    between atoms: C_16  and  O_49
   10  A    between atoms: C_16  and  C_50
   11  A    between atoms: N_17  and  C_19
   12  A    between atoms: N_17  and  C_42
   13  A    between atoms: C_31  and  C_41
                            x       y       z     vdW  Elec       q    Type
                         _______ _______ _______ _____ _____    ______ ____

>  <TORSDO>
F 13

$$$$
=
 OpenBabel11042418163D

 53 56  0  0  1  0  0  0  0  0999 V2000
  193.5370  172.3440  139.7340 C   0  0  0  0  0  2  0  0  0  0  0  0
  192.2600  172.4770  140.5630 C   0  0  2  0  0  3  0  0  0  0  0  0
  189.6070  173.8570  144.9730 C   0  0  0  0  0  2  0  0  0  0  0  0
  192.5280  173.1090  141.8730 N   0  0  2  0  0  0  0  0  0  0  0  0
  196.2340  173.7000  144.5900 C   0  0  0  0  0  3  0  0  0  0  0  0
  191.3450  175.3020  146.0760 C   0  0  2  0  0  3  0  0  0  0  0  0
  187.8380  175.3070  141.9500 C   0  0  0  0  0  0  0  0  0  0  0  0
  193.0520  175.4030  144.3580 C   0  0  0  0  0  0  0  0  0  0  0  0
  188.6620  174.8760  140.9050 C   0  0  0  0  0  3  0  0  0  0  0  0
  191.3870  172.9740  142.8040 C   0  0  0  0  0  2  0  0  0  0  0  0
  192.8560  174.5290  141.6980 C   0  0  0  0  0  2  0  0  0  0  0  0
  191.9770  175.9250  144.8800 C   0  0  0  0  0  3  0  0  0  0  0  0
  193.9440  173.6780  139.1310 C   0  0  1  0  0  3  0  0  0  0  0  0
  195.5560  175.7440  139.7520 O   0  0  0  0  0  0  0  0  0  0  0  0
  196.5940  174.2360  142.2440 C   0  0  0  0  0  2  0  0  0  0  0  0
  195.2640  173.9650  141.7130 N   0  0  1  0  0  0  0  0  0  0  0  0
  194.2370  174.8630  142.3000 C   0  0  2  0  0  3  0  0  0  0  0  0
  195.3980  174.2680  139.9960 S   0  0  0  0  0  0  0  0  0  0  0  0
  188.1680  174.9770  143.2660 C   0  0  0  0  0  3  0  0  0  0  0  0
  189.8120  174.1340  141.1790 C   0  0  0  0  0  3  0  0  0  0  0  0
  194.1530  174.8980  143.8400 C   0  0  0  0  0  0  0  0  0  0  0  0
  195.4060  174.9450  144.7100 C   0  0  1  0  0  3  0  0  0  0  0  0
  189.3260  174.2420  143.5520 C   0  0  0  0  0  0  0  0  0  0  0  0
  190.1700  173.8270  142.5010 C   0  0  0  0  0  0  0  0  0  0  0  0
  196.6030  173.5480  139.4520 O   0  0  0  0  0  0  0  0  0  0  0  0
  196.8190  173.3790  143.4400 C   0  0  0  0  0  3  0  0  0  0  0  0
  189.8600  175.0810  145.8410 C   0  0  0  0  0  2  0  0  0  0  0  0
  190.5890  170.7670  140.0430 C   0  0  0  0  0  2  0  0  0  0  0  0
  192.3020  170.1600  141.5290 O   0  0  0  0  0  1  0  0  0  0  0  0
  191.6840  171.0990  140.7110 C   0  0  0  0  0  0  0  0  0  0  0  0
  194.9500  176.7170  146.4210 C   0  0  0  0  0  1  0  0  0  0  0  0
  195.1490  175.2300  146.1930 C   0  0  0  0  0  2  0  0  0  0  0  0
  194.7650  174.7250  137.1310 O   0  0  0  0  0  1  0  0  0  0  0  0
  194.1840  173.5540  137.6220 C   0  0  2  0  0  3  0  0  0  0  0  0
  192.7890  173.8370  135.0630 C   0  0  0  0  0  1  0  0  0  0  0  0
  192.3430  171.7860  136.7340 O   0  0  0  0  0  0  0  0  0  0  0  0
  192.6550  173.2570  136.7390 S   0  0  0  0  0  0  0  0  0  0  0  0
  191.5360  173.9970  137.4160 O   0  0  0  0  0  0  0  0  0  0  0  0
  191.6550  176.8930  148.1370 N   0  0  0  0  0  0  0  0  0  0  0  0
  191.5190  176.1890  147.2270 C   0  0  0  0  0  0  0  0  0  0  0  0
  186.6560  176.0680  141.6970 N   0  0  0  0  0  2  0  0  0  0  0  0
  186.5400  177.4830  142.0310 C   0  0  0  0  0  2  0  0  0  0  0  0
  185.5190  177.7070  143.1500 C   0  0  1  0  0  0  0  0  0  0  0  0
  185.4430  176.4240  143.9870 C   0  0  0  0  0  1  0  0  0  0  0  0
  187.2020  178.5980  144.6270 F   0  0  0  0  0  0  0  0  0  0  0  0
  185.9950  178.9010  144.0170 C   0  0  2  0  0  3  0  0  0  0  0  0
  184.9900  179.3300  145.0830 C   0  0  0  0  0  2  0  0  0  0  0  0
  185.5540  179.0890  146.4690 C   0  0  0  0  0  1  0  0  0  0  0  0
  184.2680  177.9920  142.5420 O   0  0  0  0  0  0  0  0  0  0  0  0
  184.4620  178.5990  141.2850 C   0  0  0  0  0  2  0  0  0  0  0  0
  183.4250  177.2500  139.6160 O   0  0  0  0  0  1  0  0  0  0  0  0
  183.2420  178.3810  140.4120 C   0  0  1  0  0  3  0  0  0  0  0  0
  182.0240  178.1850  141.2900 C   0  0  0  0  0  1  0  0  0  0  0  0
  1  2  1  0  0  0  0
  2 30  1  1  0  0  0
  2  4  1  0  0  0  0
  3 27  1  0  0  0  0
  4 11  1  6  0  0  0
  4 10  1  0  0  0  0
  5 22  1  0  0  0  0
  6 40  1  1  0  0  0
  7 19  1  0  0  0  0
  8 12  2  0  0  0  0
  9 20  1  0  0  0  0
  9  7  2  0  0  0  0
 12  6  1  0  0  0  0
 13 34  1  6  0  0  0
 13  1  1  0  0  0  0
 13 18  1  0  0  0  0
 14 18  2  0  0  0  0
 15 26  1  0  0  0  0
 16 15  1  1  0  0  0
 16 17  1  0  0  0  0
 17 11  1  6  0  0  0
 17 21  1  0  0  0  0
 18 16  1  0  0  0  0
 19 23  2  0  0  0  0
 20 24  2  0  0  0  0
 21  8  2  0  0  0  0
 21 22  1  0  0  0  0
 22 32  1  1  0  0  0
 23  3  1  0  0  0  0
 24 10  1  0  0  0  0
 24 23  1  0  0  0  0
 25 18  2  0  0  0  0
 26  5  2  0  0  0  0
 27  6  1  0  0  0  0
 28 30  2  0  0  0  0
 30 29  1  0  0  0  0
 32 31  1  0  0  0  0
 34 33  1  6  0  0  0
 35 37  1  0  0  0  0
 36 37  2  0  0  0  0
 37 38  2  0  0  0  0
 37 34  1  0  0  0  0
 40 39  3  0  0  0  0
 41  7  1  0  0  0  0
 41 42  1  0  0  0  0
 42 43  1  0  0  0  0
 43 44  1  1  0  0  0
 43 46  1  0  0  0  0
 46 45  1  1  0  0  0
 46 47  1  0  0  0  0
 47 48  1  0  0  0  0
 49 43  1  0  0  0  0
 50 49  1  0  0  0  0
 51 52  1  0  0  0  0
 52 50  1  0  0  0  0
 52 53  1  1  0  0  0
M  END
>  <MODEL>
7

>  <REMARK>
 VINA RESULT:      -6.1      1.801      3.055
  Name = 
  13 active torsions:
  status: ('A' for Active; 'I' for Inactive)
    1  A    between atoms: C_3  and  C_38
    2  A    between atoms: C_6  and  C_43
    3  A    between atoms: C_8  and  C_38
    4  A    between atoms: C_8  and  C_42
    5  A    between atoms: C_8  and  O_49
    6  A    between atoms: C_9  and  C_27
    7  A    between atoms: C_9  and  S_28
    8  A    between atoms: C_15  and  C_44
    9  A    between atoms: C_16  and  O_49
   10  A    between atoms: C_16  and  C_50
   11  A    between atoms: N_17  and  C_19
   12  A    between atoms: N_17  and  C_42
   13  A    between atoms: C_31  and  C_41
                            x       y       z     vdW  Elec       q    Type
                         _______ _______ _______ _____ _____    ______ ____

>  <TORSDO>
F 13

$$$$
=
 OpenBabel11042418163D

 53 56  0  0  1  0  0  0  0  0999 V2000
  189.4370  177.4080  144.8430 C   0  0  0  0  0  2  0  0  0  0  0  0
  189.8000  176.7730  143.5010 C   0  0  2  0  0  3  0  0  0  0  0  0
  193.1200  174.1760  140.2420 C   0  0  0  0  0  2  0  0  0  0  0  0
  191.1430  176.1540  143.5400 N   0  0  2  0  0  0  0  0  0  0  0  0
  194.9500  176.6200  146.1370 C   0  0  0  0  0  3  0  0  0  0  0  0
  194.7780  173.3170  141.9260 C   0  0  2  0  0  3  0  0  0  0  0  0
  189.7260  172.4890  140.1640 C   0  0  0  0  0  0  0  0  0  0  0  0
  193.7280  173.9620  144.0130 C   0  0  0  0  0  0  0  0  0  0  0  0
  189.0000  173.2690  141.0720 C   0  0  0  0  0  3  0  0  0  0  0  0
  191.6380  175.8060  142.1910 C   0  0  0  0  0  2  0  0  0  0  0  0
  191.1280  174.9530  144.3840 C   0  0  0  0  0  2  0  0  0  0  0  0
  193.8780  173.0590  143.0830 C   0  0  0  0  0  3  0  0  0  0  0  0
  189.0430  176.3540  145.8640 C   0  0  1  0  0  3  0  0  0  0  0  0
  190.2240  174.9160  147.8100 O   0  0  0  0  0  0  0  0  0  0  0  0
  192.8740  176.4540  147.3940 C   0  0  0  0  0  2  0  0  0  0  0  0
  191.9240  176.3020  146.2990 N   0  0  1  0  0  0  0  0  0  0  0  0
  192.1640  175.0580  145.5240 C   0  0  2  0  0  3  0  0  0  0  0  0
  190.3580  176.2210  147.0730 S   0  0  0  0  0  0  0  0  0  0  0  0
  191.0660  172.7920  139.9160 C   0  0  0  0  0  3  0  0  0  0  0  0
  189.6180  174.3310  141.7340 C   0  0  0  0  0  3  0  0  0  0  0  0
  193.5890  174.8570  144.9690 C   0  0  0  0  0  0  0  0  0  0  0  0
  194.8260  175.1620  145.8090 C   0  0  1  0  0  3  0  0  0  0  0  0
  191.6980  173.8490  140.5850 C   0  0  0  0  0  0  0  0  0  0  0  0
  190.9750  174.6200  141.5180 C   0  0  0  0  0  0  0  0  0  0  0  0
  190.2240  177.3540  148.0540 O   0  0  0  0  0  0  0  0  0  0  0  0
  194.0510  177.2240  146.9070 C   0  0  0  0  0  3  0  0  0  0  0  0
  194.0580  173.0380  140.6170 C   0  0  0  0  0  2  0  0  0  0  0  0
  188.6700  177.8890  141.6400 C   0  0  0  0  0  2  0  0  0  0  0  0
  190.6950  178.8270  142.3680 O   0  0  0  0  0  1  0  0  0  0  0  0
  189.7080  177.8520  142.4620 C   0  0  0  0  0  0  0  0  0  0  0  0
  196.8160  173.6760  146.1370 C   0  0  0  0  0  1  0  0  0  0  0  0
  196.1480  174.6720  145.2080 C   0  0  0  0  0  2  0  0  0  0  0  0
  187.3180  175.6670  147.3860 O   0  0  0  0  0  1  0  0  0  0  0  0
  187.6960  176.6900  146.5140 C   0  0  2  0  0  3  0  0  0  0  0  0
  186.3180  178.6050  144.7790 C   0  0  0  0  0  1  0  0  0  0  0  0
  186.7010  176.0410  144.0870 O   0  0  0  0  0  0  0  0  0  0  0  0
  186.4110  176.9020  145.2850 S   0  0  0  0  0  0  0  0  0  0  0  0
  185.0870  176.5020  145.8730 O   0  0  0  0  0  0  0  0  0  0  0  0
  196.8720  171.7480  142.0980 N   0  0  0  0  0  0  0  0  0  0  0  0
  195.9480  172.4420  142.0230 C   0  0  0  0  0  0  0  0  0  0  0  0
  189.1170  171.3970  139.4730 N   0  0  0  0  0  2  0  0  0  0  0  0
  189.6910  170.8040  138.2710 C   0  0  0  0  0  2  0  0  0  0  0  0
  190.6220  169.6380  138.6170 C   0  0  1  0  0  0  0  0  0  0  0  0
  189.9820  168.3470  138.0900 C   0  0  0  0  0  1  0  0  0  0  0  0
  192.1010  171.2110  137.5480 F   0  0  0  0  0  0  0  0  0  0  0  0
  191.9940  169.8870  137.9410 C   0  0  2  0  0  3  0  0  0  0  0  0
  192.2640  168.9850  136.7390 C   0  0  0  0  0  2  0  0  0  0  0  0
  192.0760  169.7560  135.4480 C   0  0  0  0  0  1  0  0  0  0  0  0
  190.7550  169.5990  140.0300 O   0  0  0  0  0  0  0  0  0  0  0  0
  191.7160  168.6380  140.4040 C   0  0  0  0  0  2  0  0  0  0  0  0
  193.6760  169.6470  141.3100 O   0  0  0  0  0  1  0  0  0  0  0  0
  192.4420  169.0950  141.6540 C   0  0  1  0  0  3  0  0  0  0  0  0
  191.6070  170.1360  142.3700 C   0  0  0  0  0  1  0  0  0  0  0  0
  1 13  1  0  0  0  0
  2 30  1  6  0  0  0
  2  4  1  0  0  0  0
  2  1  1  0  0  0  0
  3 23  1  0  0  0  0
  3 27  1  0  0  0  0
  4 10  1  6  0  0  0
  4 11  1  0  0  0  0
  5 26  2  0  0  0  0
  6 40  1  1  0  0  0
  6 12  1  0  0  0  0
  7  9  1  0  0  0  0
  8 21  2  0  0  0  0
  9 20  2  0  0  0  0
 12  8  2  0  0  0  0
 13 34  1  1  0  0  0
 13 18  1  0  0  0  0
 16 18  1  0  0  0  0
 16 15  1  1  0  0  0
 17 11  1  6  0  0  0
 17 16  1  0  0  0  0
 18 14  2  0  0  0  0
 18 25  2  0  0  0  0
 19  7  2  0  0  0  0
 19 23  1  0  0  0  0
 21 17  1  0  0  0  0
 21 22  1  0  0  0  0
 22 32  1  6  0  0  0
 22  5  1  0  0  0  0
 23 24  2  0  0  0  0
 24 20  1  0  0  0  0
 24 10  1  0  0  0  0
 26 15  1  0  0  0  0
 27  6  1  0  0  0  0
 28 30  2  0  0  0  0
 29 30  1  0  0  0  0
 32 31  1  0  0  0  0
 34 33  1  1  0  0  0
 35 37  1  0  0  0  0
 36 37  2  0  0  0  0
 37 38  2  0  0  0  0
 37 34  1  0  0  0  0
 40 39  3  0  0  0  0
 41  7  1  0  0  0  0
 42 43  1  0  0  0  0
 42 41  1  0  0  0  0
 43 44  1  6  0  0  0
 43 49  1  0  0  0  0
 46 45  1  6  0  0  0
 46 43  1  0  0  0  0
 47 46  1  0  0  0  0
 48 47  1  0  0  0  0
 49 50  1  0  0  0  0
 50 52  1  0  0  0  0
 51 52  1  0  0  0  0
 52 53  1  6  0  0  0
M  END
>  <MODEL>
8

>  <REMARK>
 VINA RESULT:      -5.8      3.690      8.523
  Name = 
  13 active torsions:
  status: ('A' for Active; 'I' for Inactive)
    1  A    between atoms: C_3  and  C_38
    2  A    between atoms: C_6  and  C_43
    3  A    between atoms: C_8  and  C_38
    4  A    between atoms: C_8  and  C_42
    5  A    between atoms: C_8  and  O_49
    6  A    between atoms: C_9  and  C_27
    7  A    between atoms: C_9  and  S_28
    8  A    between atoms: C_15  and  C_44
    9  A    between atoms: C_16  and  O_49
   10  A    between atoms: C_16  and  C_50
   11  A    between atoms: N_17  and  C_19
   12  A    between atoms: N_17  and  C_42
   13  A    between atoms: C_31  and  C_41
                            x       y       z     vdW  Elec       q    Type
                         _______ _______ _______ _____ _____    ______ ____

>  <TORSDO>
F 13

$$$$
=
 OpenBabel11042418163D

 53 56  0  0  1  0  0  0  0  0999 V2000
  189.4800  177.4520  144.8330 C   0  0  0  0  0  2  0  0  0  0  0  0
  189.8470  176.8350  143.4850 C   0  0  2  0  0  3  0  0  0  0  0  0
  193.1670  174.2550  140.2110 C   0  0  0  0  0  2  0  0  0  0  0  0
  191.1830  176.2000  143.5250 N   0  0  2  0  0  0  0  0  0  0  0  0
  194.9730  176.5830  146.1610 C   0  0  0  0  0  3  0  0  0  0  0  0
  194.8010  173.3510  141.8950 C   0  0  2  0  0  3  0  0  0  0  0  0
  189.7550  172.6070  140.0770 C   0  0  0  0  0  0  0  0  0  0  0  0
  193.7400  173.9730  143.9830 C   0  0  0  0  0  0  0  0  0  0  0  0
  189.0300  173.3800  140.9920 C   0  0  0  0  0  3  0  0  0  0  0  0
  191.6860  175.8690  142.1740 C   0  0  0  0  0  2  0  0  0  0  0  0
  191.1480  174.9870  144.3490 C   0  0  0  0  0  2  0  0  0  0  0  0
  193.8890  173.0840  143.0410 C   0  0  0  0  0  3  0  0  0  0  0  0
  189.0660  176.3860  145.8340 C   0  0  1  0  0  3  0  0  0  0  0  0
  190.2140  174.9030  147.7660 O   0  0  0  0  0  0  0  0  0  0  0  0
  192.8840  176.4190  147.3980 C   0  0  0  0  0  2  0  0  0  0  0  0
  191.9420  176.2950  146.2920 N   0  0  1  0  0  0  0  0  0  0  0  0
  192.1750  175.0610  145.4990 C   0  0  2  0  0  3  0  0  0  0  0  0
  190.3690  176.2180  147.0520 S   0  0  0  0  0  0  0  0  0  0  0  0
  191.1010  172.8990  139.8460 C   0  0  0  0  0  3  0  0  0  0  0  0
  189.6540  174.4240  141.6770 C   0  0  0  0  0  3  0  0  0  0  0  0
  193.6030  174.8540  144.9530 C   0  0  0  0  0  0  0  0  0  0  0  0
  194.8360  175.1310  145.8080 C   0  0  1  0  0  3  0  0  0  0  0  0
  191.7390  173.9380  140.5370 C   0  0  0  0  0  0  0  0  0  0  0  0
  191.0160  174.7020  141.4760 C   0  0  0  0  0  0  0  0  0  0  0  0
  190.2380  177.3370  148.0500 O   0  0  0  0  0  0  0  0  0  0  0  0
  194.0730  177.1840  146.9340 C   0  0  0  0  0  3  0  0  0  0  0  0
  194.0900  173.1010  140.5750 C   0  0  0  0  0  2  0  0  0  0  0  0
  188.7410  177.9980  141.6380 C   0  0  0  0  0  2  0  0  0  0  0  0
  190.7780  178.8920  142.3880 O   0  0  0  0  0  1  0  0  0  0  0  0
  189.7760  177.9320  142.4620 C   0  0  0  0  0  0  0  0  0  0  0  0
  196.8170  173.6340  146.1380 C   0  0  0  0  0  1  0  0  0  0  0  0
  196.1570  174.6370  145.2110 C   0  0  0  0  0  2  0  0  0  0  0  0
  187.3440  175.7160  147.3680 O   0  0  0  0  0  1  0  0  0  0  0  0
  187.7170  176.7260  146.4780 C   0  0  2  0  0  3  0  0  0  0  0  0
  186.3160  178.6060  144.7230 C   0  0  0  0  0  1  0  0  0  0  0  0
  186.7330  176.0400  144.0560 O   0  0  0  0  0  0  0  0  0  0  0  0
  186.4310  176.9100  145.2460 S   0  0  0  0  0  0  0  0  0  0  0  0
  185.1120  176.4980  145.8350 O   0  0  0  0  0  0  0  0  0  0  0  0
  196.8760  171.7560  142.0600 N   0  0  0  0  0  0  0  0  0  0  0  0
  195.9610  172.4610  141.9870 C   0  0  0  0  0  0  0  0  0  0  0  0
  189.1410  171.5330  139.3640 N   0  0  0  0  0  2  0  0  0  0  0  0
  189.8900  170.3860  138.8620 C   0  0  0  0  0  2  0  0  0  0  0  0
  190.4550  170.6590  137.4660 C   0  0  1  0  0  0  0  0  0  0  0  0
  190.5020  169.3280  136.7040 C   0  0  0  0  0  1  0  0  0  0  0  0
  188.9410  171.0780  135.6390 F   0  0  0  0  0  0  0  0  0  0  0  0
  189.5240  171.6700  136.7480 C   0  0  2  0  0  3  0  0  0  0  0  0
  190.2220  172.9580  136.3200 C   0  0  0  0  0  2  0  0  0  0  0  0
  189.4200  174.1650  136.7620 C   0  0  0  0  0  1  0  0  0  0  0  0
  191.7580  171.1990  137.6260 O   0  0  0  0  0  0  0  0  0  0  0  0
  192.7290  170.1920  137.4550 C   0  0  0  0  0  2  0  0  0  0  0  0
  194.5590  170.2530  135.9280 O   0  0  0  0  0  1  0  0  0  0  0  0
  194.0650  170.8170  137.1050 C   0  0  1  0  0  3  0  0  0  0  0  0
  193.8880  172.3090  136.9110 C   0  0  0  0  0  1  0  0  0  0  0  0
  1 13  1  0  0  0  0
  2 30  1  6  0  0  0
  2  4  1  0  0  0  0
  2  1  1  0  0  0  0
  3 23  1  0  0  0  0
  3 27  1  0  0  0  0
  4 10  1  6  0  0  0
  4 11  1  0  0  0  0
  5 26  2  0  0  0  0
  6 40  1  1  0  0  0
  6 12  1  0  0  0  0
  7  9  1  0  0  0  0
  8 21  2  0  0  0  0
  9 20  2  0  0  0  0
 12  8  2  0  0  0  0
 13 34  1  1  0  0  0
 13 18  1  0  0  0  0
 16 18  1  0  0  0  0
 16 15  1  1  0  0  0
 17 11  1  6  0  0  0
 17 16  1  0  0  0  0
 18 14  2  0  0  0  0
 18 25  2  0  0  0  0
 19  7  2  0  0  0  0
 19 23  1  0  0  0  0
 21 17  1  0  0  0  0
 21 22  1  0  0  0  0
 22 32  1  6  0  0  0
 22  5  1  0  0  0  0
 23 24  2  0  0  0  0
 24 20  1  0  0  0  0
 24 10  1  0  0  0  0
 26 15  1  0  0  0  0
 27  6  1  0  0  0  0
 28 30  2  0  0  0  0
 29 30  1  0  0  0  0
 32 31  1  0  0  0  0
 34 33  1  1  0  0  0
 35 37  1  0  0  0  0
 36 37  2  0  0  0  0
 37 38  2  0  0  0  0
 37 34  1  0  0  0  0
 40 39  3  0  0  0  0
 41  7  1  0  0  0  0
 42 41  1  0  0  0  0
 43 44  1  6  0  0  0
 43 49  1  0  0  0  0
 43 42  1  0  0  0  0
 46 45  1  6  0  0  0
 46 43  1  0  0  0  0
 47 46  1  0  0  0  0
 47 48  1  0  0  0  0
 50 49  1  0  0  0  0
 51 52  1  0  0  0  0
 52 53  1  6  0  0  0
 52 50  1  0  0  0  0
M  END
>  <MODEL>
9

>  <REMARK>
 VINA RESULT:      -5.7      3.468      8.573
  Name = 
  13 active torsions:
  status: ('A' for Active; 'I' for Inactive)
    1  A    between atoms: C_3  and  C_38
    2  A    between atoms: C_6  and  C_43
    3  A    between atoms: C_8  and  C_38
    4  A    between atoms: C_8  and  C_42
    5  A    between atoms: C_8  and  O_49
    6  A    between atoms: C_9  and  C_27
    7  A    between atoms: C_9  and  S_28
    8  A    between atoms: C_15  and  C_44
    9  A    between atoms: C_16  and  O_49
   10  A    between atoms: C_16  and  C_50
   11  A    between atoms: N_17  and  C_19
   12  A    between atoms: N_17  and  C_42
   13  A    between atoms: C_31  and  C_41
                            x       y       z     vdW  Elec       q    Type
                         _______ _______ _______ _____ _____    ______ ____

>  <TORSDO>
F 13

$$$$
