=
 OpenBabel11042414033D

 31 35  0  0  1  0  0  0  0  0999 V2000
  191.5890  175.9750  146.9000 C   0  0  0  0  0  2  0  0  0  0  0  0
  195.1670  174.9990  146.0890 C   0  0  0  0  0  2  0  0  0  0  0  0
  194.3430  174.5260  140.8560 C   0  0  0  0  0  1  0  0  0  0  0  0
  193.1470  174.9180  144.3770 C   0  0  2  0  0  3  0  0  0  0  0  0
  193.9330  175.8220  146.4110 C   0  0  1  0  0  0  0  0  0  0  0  0
  192.7110  175.0580  146.7250 N   0  0  0  0  0  0  0  0  0  0  0  0
  193.5170  174.1290  143.1920 N   0  0  0  0  0  0  0  0  0  0  0  0
  195.0480  176.6050  144.0890 C   0  0  0  0  0  2  0  0  0  0  0  0
  194.1190  177.1020  146.9430 O   0  0  0  0  0  1  0  0  0  0  0  0
  194.1070  175.1070  142.2390 C   0  0  1  0  0  3  0  0  0  0  0  0
  195.3540  175.8540  142.7810 C   0  0  0  0  0  2  0  0  0  0  0  0
  194.3160  175.6310  144.9820 C   0  0  1  0  0  0  0  0  0  0  0  0
  192.4200  174.2460  145.5280 C   0  0  0  0  0  2  0  0  0  0  0  0
  193.5120  171.7780  144.4920 N   0  0  0  0  0  1  0  0  0  0  0  0
  194.6970  172.8000  143.6090 P   0  0  1  0  0  0  0  0  0  0  0  0
  194.5250  171.9150  142.1250 O   0  0  0  0  0  1  0  0  0  0  0  0
  190.4630  175.2590  147.5700 C   0  0  0  0  0  3  0  0  0  0  0  0
  189.1840  175.3470  147.1970 C   0  0  0  0  0  3  0  0  0  0  0  0
  188.8860  175.6970  144.8280 N   0  0  0  0  0  0  0  0  0  0  0  0
  189.4600  177.4140  143.2070 C   0  0  0  0  0  1  0  0  0  0  0  0
  187.4300  176.0420  142.8570 C   0  0  0  0  0  3  0  0  0  0  0  0
  185.0940  178.7170  142.5270 O   0  0  0  0  0  0  0  0  0  0  0  0
  188.3300  176.6630  143.8940 C   0  0  1  0  0  0  0  0  0  0  0  0
  186.3470  176.7040  142.4250 C   0  0  0  0  0  3  0  0  0  0  0  0
  187.5850  177.5850  144.8000 C   0  0  1  0  0  3  0  0  0  0  0  0
  186.5120  178.2870  144.4150 C   0  0  1  0  0  3  0  0  0  0  0  0
  185.9490  177.9710  143.0750 C   0  0  0  0  0  0  0  0  0  0  0  0
  187.8970  177.2980  146.1530 N   0  0  0  0  0  2  0  0  0  0  0  0
  188.6670  176.0990  146.0440 C   0  0  0  0  0  0  0  0  0  0  0  0
  184.5740  178.8180  145.9880 C   0  0  0  0  0  1  0  0  0  0  0  0
  185.8430  179.1370  145.3560 N   0  0  0  0  0  2  0  0  0  0  0  0
  1 17  1  0  0  0  0
  2  5  1  0  0  0  0
  4 12  1  0  0  0  0
  4 13  1  1  0  0  0
  5  6  1  0  0  0  0
  5  9  1  1  0  0  0
  6  1  1  0  0  0  0
  7 15  1  0  0  0  0
  7  4  1  0  0  0  0
 10  3  1  6  0  0  0
 10 11  1  0  0  0  0
 10  7  1  0  0  0  0
 11  8  1  0  0  0  0
 12  8  1  6  0  0  0
 12  2  1  0  0  0  0
 12  5  1  0  0  0  0
 13  6  1  0  0  0  0
 15 16  1  6  0  0  0
 15 14  1  0  0  0  0
 18 17  2  0  0  0  0
 19 29  2  0  0  0  0
 21 23  1  0  0  0  0
 22 27  2  0  0  0  0
 23 20  1  6  0  0  0
 23 25  1  0  0  0  0
 23 19  1  0  0  0  0
 24 21  2  0  0  0  0
 24 27  1  0  0  0  0
 25 28  1  1  0  0  0
 26 25  1  0  0  0  0
 26 31  1  1  0  0  0
 27 26  1  0  0  0  0
 29 28  1  0  0  0  0
 29 18  1  0  0  0  0
 31 30  1  0  0  0  0
M  END
>  <MODEL>
1

>  <REMARK>
 VINA RESULT:      -7.4      0.000      0.000
  Name = 
  5 active torsions:
  status: ('A' for Active; 'I' for Inactive)
    1  A    between atoms: N_7  and  C_30
    2  A    between atoms: N_8  and  P_12
    3  A    between atoms: C_16  and  C_30
    4  A    between atoms: C_22  and  N_24
    5  A    between atoms: C_26  and  C_31
                            x       y       z     vdW  Elec       q    Type
                         _______ _______ _______ _____ _____    ______ ____

>  <TORSDO>
F 5

$$$$
=
 OpenBabel11042414033D

 31 35  0  0  1  0  0  0  0  0999 V2000
  188.5840  174.2300  143.0050 C   0  0  0  0  0  2  0  0  0  0  0  0
  189.0740  177.6740  144.5240 C   0  0  0  0  0  2  0  0  0  0  0  0
  184.1600  177.9980  146.5310 C   0  0  0  0  0  1  0  0  0  0  0  0
  186.7560  176.4010  144.3660 C   0  0  2  0  0  3  0  0  0  0  0  0
  189.1050  176.1710  144.3150 C   0  0  1  0  0  0  0  0  0  0  0  0
  188.5990  175.6890  143.0160 N   0  0  0  0  0  0  0  0  0  0  0  0
  185.6470  177.3320  144.6230 N   0  0  0  0  0  0  0  0  0  0  0  0
  187.8810  176.8090  146.6260 C   0  0  0  0  0  2  0  0  0  0  0  0
  190.0630  175.4320  145.0150 O   0  0  0  0  0  1  0  0  0  0  0  0
  185.4220  177.2770  146.0920 C   0  0  1  0  0  3  0  0  0  0  0  0
  186.6540  177.6830  146.9430 C   0  0  0  0  0  2  0  0  0  0  0  0
  187.9970  176.7610  145.1210 C   0  0  1  0  0  0  0  0  0  0  0  0
  187.1940  176.1330  142.9370 C   0  0  0  0  0  2  0  0  0  0  0  0
  185.8050  178.7000  142.3160 N   0  0  0  0  0  1  0  0  0  0  0  0
  186.0450  179.0250  144.0670 P   0  0  1  0  0  0  0  0  0  0  0  0
  184.4510  179.6790  144.2790 O   0  0  0  0  0  1  0  0  0  0  0  0
  189.0880  173.7390  141.6880 C   0  0  0  0  0  3  0  0  0  0  0  0
  190.3670  173.7780  141.3060 C   0  0  0  0  0  3  0  0  0  0  0  0
  191.9260  175.4680  142.0350 N   0  0  0  0  0  0  0  0  0  0  0  0
  194.3360  175.7770  142.0200 C   0  0  0  0  0  1  0  0  0  0  0  0
  192.9900  176.8050  143.8250 C   0  0  0  0  0  3  0  0  0  0  0  0
  194.7560  175.4120  146.5930 O   0  0  0  0  0  0  0  0  0  0  0  0
  193.0940  175.6310  142.8850 C   0  0  1  0  0  0  0  0  0  0  0  0
  193.5120  176.7260  145.0570 C   0  0  0  0  0  3  0  0  0  0  0  0
  193.1350  174.3320  143.6170 C   0  0  1  0  0  3  0  0  0  0  0  0
  193.6630  174.1920  144.8390 C   0  0  1  0  0  3  0  0  0  0  0  0
  194.0500  175.4390  145.5500 C   0  0  0  0  0  0  0  0  0  0  0  0
  192.2080  173.4220  143.0480 N   0  0  0  0  0  2  0  0  0  0  0  0
  191.5000  174.2440  142.1190 C   0  0  0  0  0  0  0  0  0  0  0  0
  194.7800  172.0020  145.5270 C   0  0  0  0  0  1  0  0  0  0  0  0
  193.6450  172.9090  145.4790 N   0  0  0  0  0  2  0  0  0  0  0  0
  1  6  1  0  0  0  0
  4 13  1  6  0  0  0
  4  7  1  0  0  0  0
  4 12  1  0  0  0  0
  5  2  1  0  0  0  0
  5  9  1  1  0  0  0
  5 12  1  0  0  0  0
  6  5  1  0  0  0  0
  7 10  1  0  0  0  0
  8 11  1  0  0  0  0
 10  3  1  6  0  0  0
 10 11  1  0  0  0  0
 12  2  1  6  0  0  0
 12  8  1  0  0  0  0
 13  6  1  0  0  0  0
 15 14  1  6  0  0  0
 15 16  1  0  0  0  0
 15  7  1  0  0  0  0
 17  1  1  0  0  0  0
 18 17  2  0  0  0  0
 18 29  1  0  0  0  0
 19 29  2  0  0  0  0
 19 23  1  0  0  0  0
 21 24  2  0  0  0  0
 23 20  1  6  0  0  0
 23 25  1  0  0  0  0
 23 21  1  0  0  0  0
 24 27  1  0  0  0  0
 25 28  1  1  0  0  0
 25 26  1  0  0  0  0
 26 31  1  1  0  0  0
 26 27  1  0  0  0  0
 27 22  2  0  0  0  0
 29 28  1  0  0  0  0
 31 30  1  0  0  0  0
M  END
>  <MODEL>
2

>  <REMARK>
 VINA RESULT:      -7.4      2.819      8.051
  Name = 
  5 active torsions:
  status: ('A' for Active; 'I' for Inactive)
    1  A    between atoms: N_7  and  C_30
    2  A    between atoms: N_8  and  P_12
    3  A    between atoms: C_16  and  C_30
    4  A    between atoms: C_22  and  N_24
    5  A    between atoms: C_26  and  C_31
                            x       y       z     vdW  Elec       q    Type
                         _______ _______ _______ _____ _____    ______ ____

>  <TORSDO>
F 5

$$$$
=
 OpenBabel11042414033D

 31 35  0  0  1  0  0  0  0  0999 V2000
  190.5390  175.0700  146.4190 C   0  0  0  0  0  2  0  0  0  0  0  0
  192.3400  173.9080  143.2860 C   0  0  0  0  0  2  0  0  0  0  0  0
  196.7770  172.4360  145.8210 C   0  0  0  0  0  1  0  0  0  0  0  0
  193.4560  174.1450  145.6770 C   0  0  2  0  0  3  0  0  0  0  0  0
  191.4220  173.9420  144.4940 C   0  0  1  0  0  0  0  0  0  0  0  0
  191.3670  175.2210  145.2260 N   0  0  0  0  0  0  0  0  0  0  0  0
  194.9210  174.1030  145.5600 N   0  0  0  0  0  0  0  0  0  0  0  0
  193.1080  171.8470  144.6100 C   0  0  0  0  0  2  0  0  0  0  0  0
  190.3270  173.0730  144.5100 O   0  0  0  0  0  1  0  0  0  0  0  0
  195.2830  172.6660  145.6850 C   0  0  1  0  0  3  0  0  0  0  0  0
  194.6450  171.7510  144.6060 C   0  0  0  0  0  2  0  0  0  0  0  0
  192.7700  173.3190  144.6340 C   0  0  1  0  0  0  0  0  0  0  0  0
  192.7420  175.4860  145.6880 C   0  0  0  0  0  2  0  0  0  0  0  0
  195.3260  176.5250  144.4680 N   0  0  0  0  0  1  0  0  0  0  0  0
  195.4910  174.8050  143.9740 P   0  0  1  0  0  0  0  0  0  0  0  0
  197.1890  174.7470  144.3340 O   0  0  0  0  0  1  0  0  0  0  0  0
  190.6650  176.2900  147.2690 C   0  0  0  0  0  3  0  0  0  0  0  0
  189.8200  177.3230  147.2380 C   0  0  0  0  0  3  0  0  0  0  0  0
  187.4890  177.8650  146.9280 N   0  0  0  0  0  0  0  0  0  0  0  0
  185.4630  176.6750  146.3050 C   0  0  0  0  0  1  0  0  0  0  0  0
  185.6860  179.0750  145.7400 C   0  0  0  0  0  3  0  0  0  0  0  0
  185.0520  178.8040  142.2410 O   0  0  0  0  0  0  0  0  0  0  0  0
  186.4370  177.7810  145.9280 C   0  0  1  0  0  0  0  0  0  0  0  0
  185.2540  179.4290  144.5220 C   0  0  0  0  0  3  0  0  0  0  0  0
  187.1960  177.3930  144.7040 C   0  0  1  0  0  3  0  0  0  0  0  0
  186.7980  177.7000  143.4630 C   0  0  1  0  0  3  0  0  0  0  0  0
  185.6450  178.6310  143.3390 C   0  0  0  0  0  0  0  0  0  0  0  0
  188.5300  177.0510  145.0440 N   0  0  0  0  0  2  0  0  0  0  0  0
  188.5990  177.4200  146.4220 C   0  0  0  0  0  0  0  0  0  0  0  0
  188.5250  178.1820  141.6460 C   0  0  0  0  0  1  0  0  0  0  0  0
  187.5970  177.3040  142.3410 N   0  0  0  0  0  2  0  0  0  0  0  0
  1 17  1  0  0  0  0
  2  5  1  0  0  0  0
  4 13  1  6  0  0  0
  5  9  1  1  0  0  0
  5 12  1  0  0  0  0
  5  6  1  0  0  0  0
  6 13  1  0  0  0  0
  6  1  1  0  0  0  0
  7  4  1  0  0  0  0
  7 10  1  0  0  0  0
  8 12  1  0  0  0  0
 10  3  1  6  0  0  0
 11  8  1  0  0  0  0
 11 10  1  0  0  0  0
 12  2  1  6  0  0  0
 12  4  1  0  0  0  0
 15 16  1  1  0  0  0
 15 14  1  0  0  0  0
 15  7  1  0  0  0  0
 18 17  2  0  0  0  0
 21 23  1  0  0  0  0
 22 27  2  0  0  0  0
 23 20  1  1  0  0  0
 23 19  1  0  0  0  0
 24 21  2  0  0  0  0
 25 28  1  1  0  0  0
 25 23  1  0  0  0  0
 26 31  1  6  0  0  0
 26 25  1  0  0  0  0
 27 26  1  0  0  0  0
 27 24  1  0  0  0  0
 28 29  1  0  0  0  0
 29 19  2  0  0  0  0
 29 18  1  0  0  0  0
 30 31  1  0  0  0  0
M  END
>  <MODEL>
3

>  <REMARK>
 VINA RESULT:      -7.4      2.234      3.530
  Name = 
  5 active torsions:
  status: ('A' for Active; 'I' for Inactive)
    1  A    between atoms: N_7  and  C_30
    2  A    between atoms: N_8  and  P_12
    3  A    between atoms: C_16  and  C_30
    4  A    between atoms: C_22  and  N_24
    5  A    between atoms: C_26  and  C_31
                            x       y       z     vdW  Elec       q    Type
                         _______ _______ _______ _____ _____    ______ ____

>  <TORSDO>
F 5

$$$$
=
 OpenBabel11042414033D

 31 35  0  0  1  0  0  0  0  0999 V2000
  187.6460  175.3760  141.6800 C   0  0  0  0  0  2  0  0  0  0  0  0
  190.4780  172.8750  142.0460 C   0  0  0  0  0  2  0  0  0  0  0  0
  192.5700  175.1740  146.3620 C   0  0  0  0  0  1  0  0  0  0  0  0
  190.2500  175.1220  143.4310 C   0  0  2  0  0  3  0  0  0  0  0  0
  189.1090  173.5250  142.1180 C   0  0  1  0  0  0  0  0  0  0  0  0
  188.9730  174.8220  141.4300 N   0  0  0  0  0  0  0  0  0  0  0  0
  191.5220  175.4390  144.0980 N   0  0  0  0  0  0  0  0  0  0  0  0
  189.9950  172.8450  144.5680 C   0  0  0  0  0  2  0  0  0  0  0  0
  187.9960  172.6940  142.2800 O   0  0  0  0  0  1  0  0  0  0  0  0
  191.4440  174.7730  145.4260 C   0  0  1  0  0  3  0  0  0  0  0  0
  191.2570  173.2340  145.3590 C   0  0  0  0  0  2  0  0  0  0  0  0
  190.0250  173.6490  143.2890 C   0  0  1  0  0  0  0  0  0  0  0  0
  189.9440  175.7280  142.0720 C   0  0  0  0  0  2  0  0  0  0  0  0
  193.2760  176.4140  142.3120 N   0  0  0  0  0  1  0  0  0  0  0  0
  192.9550  174.8490  143.1330 P   0  0  1  0  0  0  0  0  0  0  0  0
  194.1460  175.1220  144.3660 O   0  0  0  0  0  1  0  0  0  0  0  0
  187.4420  176.5820  140.8240 C   0  0  0  0  0  3  0  0  0  0  0  0
  186.9900  177.7560  141.2700 C   0  0  0  0  0  3  0  0  0  0  0  0
  185.5170  178.5790  142.9950 N   0  0  0  0  0  0  0  0  0  0  0  0
  185.5260  180.3900  144.6150 C   0  0  0  0  0  1  0  0  0  0  0  0
  184.3290  178.2900  145.1470 C   0  0  0  0  0  3  0  0  0  0  0  0
  185.9390  177.5950  148.2530 O   0  0  0  0  0  0  0  0  0  0  0  0
  185.5070  178.8830  144.4170 C   0  0  1  0  0  0  0  0  0  0  0  0
  184.4750  177.8390  146.4010 C   0  0  0  0  0  3  0  0  0  0  0  0
  186.8000  178.2950  144.8730 C   0  0  1  0  0  3  0  0  0  0  0  0
  187.0070  177.8500  146.1190 C   0  0  1  0  0  3  0  0  0  0  0  0
  185.8200  177.7780  147.0120 C   0  0  0  0  0  0  0  0  0  0  0  0
  187.5820  177.9060  143.7560 N   0  0  0  0  0  2  0  0  0  0  0  0
  186.6750  178.0900  142.6670 C   0  0  0  0  0  0  0  0  0  0  0  0
  188.4780  175.8860  146.8230 C   0  0  0  0  0  1  0  0  0  0  0  0
  188.2760  177.2820  146.4700 N   0  0  0  0  0  2  0  0  0  0  0  0
  2  5  1  0  0  0  0
  4 13  1  6  0  0  0
  4  7  1  0  0  0  0
  5  9  1  1  0  0  0
  5 12  1  0  0  0  0
  6  1  1  0  0  0  0
  6 13  1  0  0  0  0
  6  5  1  0  0  0  0
  7 10  1  0  0  0  0
  8 11  1  0  0  0  0
 10  3  1  6  0  0  0
 11 10  1  0  0  0  0
 12  2  1  6  0  0  0
 12  4  1  0  0  0  0
 12  8  1  0  0  0  0
 15 14  1  6  0  0  0
 15  7  1  0  0  0  0
 15 16  1  0  0  0  0
 17 18  2  0  0  0  0
 17  1  1  0  0  0  0
 18 29  1  0  0  0  0
 19 23  1  0  0  0  0
 21 24  2  0  0  0  0
 23 20  1  1  0  0  0
 23 25  1  0  0  0  0
 23 21  1  0  0  0  0
 24 27  1  0  0  0  0
 25 28  1  6  0  0  0
 25 26  1  0  0  0  0
 26 31  1  6  0  0  0
 26 27  1  0  0  0  0
 27 22  2  0  0  0  0
 29 19  2  0  0  0  0
 29 28  1  0  0  0  0
 31 30  1  0  0  0  0
M  END
>  <MODEL>
4

>  <REMARK>
 VINA RESULT:      -7.2      2.707      5.100
  Name = 
  5 active torsions:
  status: ('A' for Active; 'I' for Inactive)
    1  A    between atoms: N_7  and  C_30
    2  A    between atoms: N_8  and  P_12
    3  A    between atoms: C_16  and  C_30
    4  A    between atoms: C_22  and  N_24
    5  A    between atoms: C_26  and  C_31
                            x       y       z     vdW  Elec       q    Type
                         _______ _______ _______ _____ _____    ______ ____

>  <TORSDO>
F 5

$$$$
=
 OpenBabel11042414033D

 31 35  0  0  1  0  0  0  0  0999 V2000
  189.8100  173.7190  142.5370 C   0  0  0  0  0  2  0  0  0  0  0  0
  193.3240  172.6870  143.5340 C   0  0  0  0  0  2  0  0  0  0  0  0
  194.5670  177.3590  145.7510 C   0  0  0  0  0  1  0  0  0  0  0  0
  192.3660  175.1530  143.6850 C   0  0  2  0  0  3  0  0  0  0  0  0
  191.8170  172.8620  143.5340 C   0  0  1  0  0  0  0  0  0  0  0  0
  191.2430  173.5200  142.3460 N   0  0  0  0  0  0  0  0  0  0  0  0
  193.4640  176.1140  143.8730 N   0  0  0  0  0  0  0  0  0  0  0  0
  192.9090  173.8210  145.8000 C   0  0  0  0  0  2  0  0  0  0  0  0
  191.0520  171.9550  144.2750 O   0  0  0  0  0  1  0  0  0  0  0  0
  193.6310  176.2340  145.3460 C   0  0  1  0  0  3  0  0  0  0  0  0
  193.9740  174.9000  146.0610 C   0  0  0  0  0  2  0  0  0  0  0  0
  192.6500  173.8230  144.3120 C   0  0  1  0  0  0  0  0  0  0  0  0
  191.8580  174.8590  142.2840 C   0  0  0  0  0  2  0  0  0  0  0  0
  194.7220  176.4160  141.5180 N   0  0  0  0  0  1  0  0  0  0  0  0
  195.0010  175.5470  143.0660 P   0  0  1  0  0  0  0  0  0  0  0  0
  196.0280  176.7910  143.7090 O   0  0  0  0  0  1  0  0  0  0  0  0
  189.2100  174.2520  141.2790 C   0  0  0  0  0  3  0  0  0  0  0  0
  188.3700  175.2890  141.2230 C   0  0  0  0  0  3  0  0  0  0  0  0
  186.6840  176.3830  142.5560 N   0  0  0  0  0  0  0  0  0  0  0  0
  186.1490  178.6610  143.2130 C   0  0  0  0  0  1  0  0  0  0  0  0
  185.5660  176.7910  144.7270 C   0  0  0  0  0  3  0  0  0  0  0  0
  187.2250  178.0010  147.6430 O   0  0  0  0  0  0  0  0  0  0  0  0
  186.5530  177.2770  143.6960 C   0  0  1  0  0  0  0  0  0  0  0  0
  185.7990  177.0030  146.0300 C   0  0  0  0  0  3  0  0  0  0  0  0
  187.9460  177.3120  144.2290 C   0  0  1  0  0  3  0  0  0  0  0  0
  188.2360  177.5420  145.5160 C   0  0  1  0  0  3  0  0  0  0  0  0
  187.0920  177.5720  146.4660 C   0  0  0  0  0  0  0  0  0  0  0  0
  188.8330  176.6820  143.3200 N   0  0  0  0  0  2  0  0  0  0  0  0
  187.9390  176.1180  142.3590 C   0  0  0  0  0  0  0  0  0  0  0  0
  190.2180  176.4680  146.7130 C   0  0  0  0  0  1  0  0  0  0  0  0
  189.6020  177.5400  145.9480 N   0  0  0  0  0  2  0  0  0  0  0  0
  2  5  1  0  0  0  0
  4 13  1  6  0  0  0
  4  7  1  0  0  0  0
  4 12  1  0  0  0  0
  5  9  1  1  0  0  0
  5 12  1  0  0  0  0
  6  1  1  0  0  0  0
  6  5  1  0  0  0  0
  7 10  1  0  0  0  0
  8 11  1  0  0  0  0
 10  3  1  6  0  0  0
 10 11  1  0  0  0  0
 12  2  1  6  0  0  0
 12  8  1  0  0  0  0
 13  6  1  0  0  0  0
 15 14  1  6  0  0  0
 15 16  1  0  0  0  0
 15  7  1  0  0  0  0
 17  1  1  0  0  0  0
 18 17  2  0  0  0  0
 18 29  1  0  0  0  0
 19 23  1  0  0  0  0
 21 24  2  0  0  0  0
 23 20  1  6  0  0  0
 23 25  1  0  0  0  0
 23 21  1  0  0  0  0
 24 27  1  0  0  0  0
 25 28  1  1  0  0  0
 25 26  1  0  0  0  0
 26 31  1  1  0  0  0
 26 27  1  0  0  0  0
 27 22  2  0  0  0  0
 29 19  2  0  0  0  0
 29 28  1  0  0  0  0
 31 30  1  0  0  0  0
M  END
>  <MODEL>
5

>  <REMARK>
 VINA RESULT:      -7.1      2.373      4.205
  Name = 
  5 active torsions:
  status: ('A' for Active; 'I' for Inactive)
    1  A    between atoms: N_7  and  C_30
    2  A    between atoms: N_8  and  P_12
    3  A    between atoms: C_16  and  C_30
    4  A    between atoms: C_22  and  N_24
    5  A    between atoms: C_26  and  C_31
                            x       y       z     vdW  Elec       q    Type
                         _______ _______ _______ _____ _____    ______ ____

>  <TORSDO>
F 5

$$$$
=
 OpenBabel11042414033D

 31 35  0  0  1  0  0  0  0  0999 V2000
  191.1230  175.8230  142.8940 C   0  0  0  0  0  2  0  0  0  0  0  0
  193.5090  173.0150  141.9830 C   0  0  0  0  0  2  0  0  0  0  0  0
  196.7550  173.8040  146.1210 C   0  0  0  0  0  1  0  0  0  0  0  0
  193.9360  174.8130  143.8820 C   0  0  2  0  0  3  0  0  0  0  0  0
  192.3100  173.7710  142.5240 C   0  0  1  0  0  0  0  0  0  0  0  0
  192.2640  175.2130  142.2190 N   0  0  0  0  0  0  0  0  0  0  0  0
  195.3490  174.7910  144.2930 N   0  0  0  0  0  0  0  0  0  0  0  0
  193.5260  172.3560  144.4640 C   0  0  0  0  0  2  0  0  0  0  0  0
  191.1250  173.0580  142.7330 O   0  0  0  0  0  1  0  0  0  0  0  0
  195.4180  173.8020  145.4020 C   0  0  1  0  0  3  0  0  0  0  0  0
  194.9640  172.3710  145.0110 C   0  0  0  0  0  2  0  0  0  0  0  0
  193.4430  173.4680  143.4450 C   0  0  1  0  0  0  0  0  0  0  0  0
  193.4800  175.7950  142.8180 C   0  0  0  0  0  2  0  0  0  0  0  0
  196.5020  175.9640  142.1690 N   0  0  0  0  0  1  0  0  0  0  0  0
  196.4460  174.3280  142.9100 P   0  0  1  0  0  0  0  0  0  0  0  0
  197.9410  174.5430  143.7680 O   0  0  0  0  0  1  0  0  0  0  0  0
  191.4060  177.2690  143.1390 C   0  0  0  0  0  3  0  0  0  0  0  0
  190.6300  178.0780  143.8650 C   0  0  0  0  0  3  0  0  0  0  0  0
  189.4140  177.5730  145.8870 N   0  0  0  0  0  0  0  0  0  0  0  0
  188.2210  175.6650  146.8040 C   0  0  0  0  0  1  0  0  0  0  0  0
  187.5110  177.9550  147.4220 C   0  0  0  0  0  3  0  0  0  0  0  0
  184.0830  177.6640  146.4810 O   0  0  0  0  0  0  0  0  0  0  0  0
  188.1100  177.1060  146.3300 C   0  0  1  0  0  0  0  0  0  0  0  0
  186.1870  178.1640  147.4580 C   0  0  0  0  0  3  0  0  0  0  0  0
  187.3110  177.1660  145.0720 C   0  0  1  0  0  3  0  0  0  0  0  0
  185.9840  177.3500  145.0520 C   0  0  1  0  0  3  0  0  0  0  0  0
  185.3350  177.6940  146.3440 C   0  0  0  0  0  0  0  0  0  0  0  0
  188.1600  177.4160  143.9640 N   0  0  0  0  0  2  0  0  0  0  0  0
  189.4140  177.6880  144.5930 C   0  0  0  0  0  0  0  0  0  0  0  0
  184.8150  178.6440  143.1880 C   0  0  0  0  0  1  0  0  0  0  0  0
  185.2950  177.4140  143.7970 N   0  0  0  0  0  2  0  0  0  0  0  0
  1 17  1  0  0  0  0
  2  5  1  0  0  0  0
  4 13  1  6  0  0  0
  4  7  1  0  0  0  0
  5  9  1  1  0  0  0
  5 12  1  0  0  0  0
  6  5  1  0  0  0  0
  6 13  1  0  0  0  0
  6  1  1  0  0  0  0
  7 10  1  0  0  0  0
  8 11  1  0  0  0  0
 10  3  1  6  0  0  0
 11 10  1  0  0  0  0
 12  2  1  6  0  0  0
 12  4  1  0  0  0  0
 12  8  1  0  0  0  0
 15 14  1  6  0  0  0
 15 16  1  0  0  0  0
 15  7  1  0  0  0  0
 17 18  2  0  0  0  0
 18 29  1  0  0  0  0
 19 23  1  0  0  0  0
 21 24  2  0  0  0  0
 23 20  1  1  0  0  0
 23 21  1  0  0  0  0
 25 28  1  6  0  0  0
 25 23  1  0  0  0  0
 26 31  1  6  0  0  0
 26 25  1  0  0  0  0
 26 27  1  0  0  0  0
 27 22  2  0  0  0  0
 27 24  1  0  0  0  0
 28 29  1  0  0  0  0
 29 19  2  0  0  0  0
 30 31  1  0  0  0  0
M  END
>  <MODEL>
6

>  <REMARK>
 VINA RESULT:      -7.0      2.431      3.912
  Name = 
  5 active torsions:
  status: ('A' for Active; 'I' for Inactive)
    1  A    between atoms: N_7  and  C_30
    2  A    between atoms: N_8  and  P_12
    3  A    between atoms: C_16  and  C_30
    4  A    between atoms: C_22  and  N_24
    5  A    between atoms: C_26  and  C_31
                            x       y       z     vdW  Elec       q    Type
                         _______ _______ _______ _____ _____    ______ ____

>  <TORSDO>
F 5

$$$$
=
 OpenBabel11042414033D

 31 35  0  0  1  0  0  0  0  0999 V2000
  189.3130  173.9890  144.1110 C   0  0  0  0  0  2  0  0  0  0  0  0
  189.3720  177.6810  143.2330 C   0  0  0  0  0  2  0  0  0  0  0  0
  184.0820  178.2230  143.1480 C   0  0  0  0  0  1  0  0  0  0  0  0
  187.2010  176.1640  143.2620 C   0  0  2  0  0  3  0  0  0  0  0  0
  189.4270  176.3830  144.0170 C   0  0  1  0  0  0  0  0  0  0  0  0
  189.3650  175.1440  143.2210 N   0  0  0  0  0  0  0  0  0  0  0  0
  186.0970  176.8440  142.5680 N   0  0  0  0  0  0  0  0  0  0  0  0
  187.5270  178.0270  144.9840 C   0  0  0  0  0  2  0  0  0  0  0  0
  190.0780  176.3920  145.2550 O   0  0  0  0  0  1  0  0  0  0  0  0
  185.3970  177.6280  143.6210 C   0  0  1  0  0  3  0  0  0  0  0  0
  186.2900  178.6760  144.3370 C   0  0  0  0  0  2  0  0  0  0  0  0
  188.1330  177.1200  143.9390 C   0  0  1  0  0  0  0  0  0  0  0  0
  188.0790  175.1880  142.4990 C   0  0  0  0  0  2  0  0  0  0  0  0
  187.0670  176.5810  140.0770 N   0  0  0  0  0  1  0  0  0  0  0  0
  186.7050  177.9170  141.2230 P   0  0  1  0  0  0  0  0  0  0  0  0
  185.1520  178.2490  140.5210 O   0  0  0  0  0  1  0  0  0  0  0  0
  189.9250  172.8090  143.4300 C   0  0  0  0  0  3  0  0  0  0  0  0
  191.2290  172.6760  143.1780 C   0  0  0  0  0  3  0  0  0  0  0  0
  192.8630  173.5320  144.7330 N   0  0  0  0  0  0  0  0  0  0  0  0
  193.2750  175.6270  145.8930 C   0  0  0  0  0  1  0  0  0  0  0  0
  195.1860  174.1690  145.3010 C   0  0  0  0  0  3  0  0  0  0  0  0
  197.0990  176.5900  143.5120 O   0  0  0  0  0  0  0  0  0  0  0  0
  193.8110  174.6240  144.8830 C   0  0  1  0  0  0  0  0  0  0  0  0
  196.2720  174.7970  144.8290 C   0  0  0  0  0  3  0  0  0  0  0  0
  193.8130  175.2290  143.5200 C   0  0  1  0  0  3  0  0  0  0  0  0
  194.8610  175.8850  143.0070 C   0  0  1  0  0  3  0  0  0  0  0  0
  196.1300  175.8310  143.7810 C   0  0  0  0  0  0  0  0  0  0  0  0
  192.7710  174.6710  142.7360 N   0  0  0  0  0  2  0  0  0  0  0  0
  192.2890  173.6160  143.5710 C   0  0  0  0  0  0  0  0  0  0  0  0
  195.3720  175.7900  140.5080 C   0  0  0  0  0  1  0  0  0  0  0  0
  194.7860  176.4200  141.6800 N   0  0  0  0  0  2  0  0  0  0  0  0
  2  5  1  0  0  0  0
  4 13  1  6  0  0  0
  4 12  1  0  0  0  0
  5  9  1  1  0  0  0
  6  5  1  0  0  0  0
  6  1  1  0  0  0  0
  7  4  1  0  0  0  0
  7 10  1  0  0  0  0
 10  3  1  6  0  0  0
 10 11  1  0  0  0  0
 11  8  1  0  0  0  0
 12  2  1  6  0  0  0
 12  5  1  0  0  0  0
 12  8  1  0  0  0  0
 13  6  1  0  0  0  0
 15 14  1  6  0  0  0
 15  7  1  0  0  0  0
 16 15  1  0  0  0  0
 17  1  1  0  0  0  0
 18 17  2  0  0  0  0
 18 29  1  0  0  0  0
 19 23  1  0  0  0  0
 22 27  2  0  0  0  0
 23 21  1  0  0  0  0
 23 20  1  1  0  0  0
 24 21  2  0  0  0  0
 25 28  1  6  0  0  0
 25 23  1  0  0  0  0
 26 31  1  6  0  0  0
 26 25  1  0  0  0  0
 26 27  1  0  0  0  0
 27 24  1  0  0  0  0
 28 29  1  0  0  0  0
 29 19  2  0  0  0  0
 30 31  1  0  0  0  0
M  END
>  <MODEL>
7

>  <REMARK>
 VINA RESULT:      -6.9      2.838      8.018
  Name = 
  5 active torsions:
  status: ('A' for Active; 'I' for Inactive)
    1  A    between atoms: N_7  and  C_30
    2  A    between atoms: N_8  and  P_12
    3  A    between atoms: C_16  and  C_30
    4  A    between atoms: C_22  and  N_24
    5  A    between atoms: C_26  and  C_31
                            x       y       z     vdW  Elec       q    Type
                         _______ _______ _______ _____ _____    ______ ____

>  <TORSDO>
F 5

$$$$
=
 OpenBabel11042414033D

 31 35  0  0  1  0  0  0  0  0999 V2000
  190.2160  174.9330  142.4010 C   0  0  0  0  0  2  0  0  0  0  0  0
  192.1600  174.7130  145.6540 C   0  0  0  0  0  2  0  0  0  0  0  0
  196.8270  176.0740  143.4970 C   0  0  0  0  0  1  0  0  0  0  0  0
  193.2430  175.0360  143.2580 C   0  0  2  0  0  3  0  0  0  0  0  0
  191.2680  175.2240  144.5370 C   0  0  1  0  0  0  0  0  0  0  0  0
  190.9850  174.2700  143.4490 N   0  0  0  0  0  0  0  0  0  0  0  0
  194.6890  174.7730  143.3150 N   0  0  0  0  0  0  0  0  0  0  0  0
  193.3160  176.9100  144.9970 C   0  0  0  0  0  2  0  0  0  0  0  0
  190.3530  176.2380  144.8410 O   0  0  0  0  0  1  0  0  0  0  0  0
  195.3140  176.0870  143.6240 C   0  0  1  0  0  3  0  0  0  0  0  0
  194.8430  176.7190  144.9600 C   0  0  0  0  0  2  0  0  0  0  0  0
  192.7100  175.6050  144.5350 C   0  0  1  0  0  0  0  0  0  0  0  0
  192.2930  173.9180  142.8650 C   0  0  0  0  0  2  0  0  0  0  0  0
  194.5750  172.1040  143.6040 N   0  0  0  0  0  1  0  0  0  0  0  0
  195.0980  173.5200  144.5790 P   0  0  1  0  0  0  0  0  0  0  0  0
  196.7700  173.3440  144.1450 O   0  0  0  0  0  1  0  0  0  0  0  0
  189.1450  174.0130  141.9140 C   0  0  0  0  0  3  0  0  0  0  0  0
  187.8360  174.2620  142.0060 C   0  0  0  0  0  3  0  0  0  0  0  0
  186.7690  176.4090  141.7430 N   0  0  0  0  0  0  0  0  0  0  0  0
  187.2410  178.7090  142.3720 C   0  0  0  0  0  1  0  0  0  0  0  0
  184.8890  177.9610  142.1730 C   0  0  0  0  0  3  0  0  0  0  0  0
  183.7980  178.9410  145.4240 O   0  0  0  0  0  0  0  0  0  0  0  0
  186.2900  177.5330  142.5320 C   0  0  1  0  0  0  0  0  0  0  0  0
  184.0570  178.3980  143.1280 C   0  0  0  0  0  3  0  0  0  0  0  0
  186.3720  176.9990  143.9220 C   0  0  1  0  0  3  0  0  0  0  0  0
  185.5800  177.4160  144.9190 C   0  0  1  0  0  3  0  0  0  0  0  0
  184.4550  178.3150  144.5500 C   0  0  0  0  0  0  0  0  0  0  0  0
  187.0680  175.7630  143.9310 N   0  0  0  0  0  2  0  0  0  0  0  0
  187.2220  175.4880  142.5380 C   0  0  0  0  0  0  0  0  0  0  0  0
  186.4480  177.4470  147.3190 C   0  0  0  0  0  1  0  0  0  0  0  0
  185.7140  176.8360  146.2230 N   0  0  0  0  0  2  0  0  0  0  0  0
  1  6  1  0  0  0  0
  4 13  1  1  0  0  0
  4  7  1  0  0  0  0
  4 12  1  0  0  0  0
  5  9  1  1  0  0  0
  5  2  1  0  0  0  0
  6  5  1  0  0  0  0
  7 10  1  0  0  0  0
  7 15  1  0  0  0  0
 10  3  1  1  0  0  0
 10 11  1  0  0  0  0
 11  8  1  0  0  0  0
 12  5  1  0  0  0  0
 12  8  1  1  0  0  0
 12  2  1  0  0  0  0
 13  6  1  0  0  0  0
 15 14  1  6  0  0  0
 16 15  1  0  0  0  0
 17 18  2  0  0  0  0
 17  1  1  0  0  0  0
 18 29  1  0  0  0  0
 19 23  1  0  0  0  0
 19 29  2  0  0  0  0
 21 23  1  0  0  0  0
 21 24  2  0  0  0  0
 23 20  1  6  0  0  0
 23 25  1  0  0  0  0
 24 27  1  0  0  0  0
 25 28  1  6  0  0  0
 25 26  1  0  0  0  0
 26 31  1  6  0  0  0
 27 26  1  0  0  0  0
 27 22  2  0  0  0  0
 29 28  1  0  0  0  0
 31 30  1  0  0  0  0
M  END
>  <MODEL>
8

>  <REMARK>
 VINA RESULT:      -6.9      2.172      3.125
  Name = 
  5 active torsions:
  status: ('A' for Active; 'I' for Inactive)
    1  A    between atoms: N_7  and  C_30
    2  A    between atoms: N_8  and  P_12
    3  A    between atoms: C_16  and  C_30
    4  A    between atoms: C_22  and  N_24
    5  A    between atoms: C_26  and  C_31
                            x       y       z     vdW  Elec       q    Type
                         _______ _______ _______ _____ _____    ______ ____

>  <TORSDO>
F 5

$$$$
=
 OpenBabel11042414033D

 31 35  0  0  1  0  0  0  0  0999 V2000
  191.3860  176.4110  144.6870 C   0  0  0  0  0  2  0  0  0  0  0  0
  188.0400  175.2360  143.3330 C   0  0  0  0  0  2  0  0  0  0  0  0
  185.5310  179.8370  144.2400 C   0  0  0  0  0  1  0  0  0  0  0  0
  188.4390  177.5180  144.6180 C   0  0  2  0  0  3  0  0  0  0  0  0
  189.4600  175.7650  143.4100 C   0  0  1  0  0  0  0  0  0  0  0  0
  190.0740  175.7760  144.7510 N   0  0  0  0  0  0  0  0  0  0  0  0
  187.1530  178.0970  145.0370 N   0  0  0  0  0  0  0  0  0  0  0  0
  187.8430  177.4960  142.1310 C   0  0  0  0  0  2  0  0  0  0  0  0
  190.2630  175.6570  142.2700 O   0  0  0  0  0  1  0  0  0  0  0  0
  186.7290  178.9660  143.9060 C   0  0  1  0  0  3  0  0  0  0  0  0
  186.5530  178.2180  142.5580 C   0  0  0  0  0  2  0  0  0  0  0  0
  188.3330  176.7400  143.3430 C   0  0  1  0  0  0  0  0  0  0  0  0
  189.2170  176.6410  145.5840 C   0  0  0  0  0  2  0  0  0  0  0  0
  186.2170  176.7490  147.1630 N   0  0  0  0  0  1  0  0  0  0  0  0
  185.9160  176.8030  145.3920 P   0  0  1  0  0  0  0  0  0  0  0  0
  184.5550  177.8720  145.5430 O   0  0  0  0  0  1  0  0  0  0  0  0
  191.8400  176.7520  146.0680 C   0  0  0  0  0  3  0  0  0  0  0  0
  193.0310  176.4220  146.5740 C   0  0  0  0  0  3  0  0  0  0  0  0
  194.3370  174.4640  146.0420 N   0  0  0  0  0  0  0  0  0  0  0  0
  196.6650  173.7880  146.2180 C   0  0  0  0  0  1  0  0  0  0  0  0
  195.2630  172.8580  144.4020 C   0  0  0  0  0  3  0  0  0  0  0  0
  197.3610  173.7680  141.6650 O   0  0  0  0  0  0  0  0  0  0  0  0
  195.5050  174.0640  145.2740 C   0  0  1  0  0  0  0  0  0  0  0  0
  195.8510  172.7710  143.2000 C   0  0  0  0  0  3  0  0  0  0  0  0
  195.7870  175.2880  144.4690 C   0  0  1  0  0  3  0  0  0  0  0  0
  196.3910  175.2610  143.2740 C   0  0  1  0  0  3  0  0  0  0  0  0
  196.6090  173.9220  142.6640 C   0  0  0  0  0  0  0  0  0  0  0  0
  194.9890  176.3680  144.9260 N   0  0  0  0  0  2  0  0  0  0  0  0
  194.1150  175.7300  145.8590 C   0  0  0  0  0  0  0  0  0  0  0  0
  196.0210  176.7880  141.2630 C   0  0  0  0  0  1  0  0  0  0  0  0
  196.6070  176.4830  142.5580 N   0  0  0  0  0  2  0  0  0  0  0  0
  1  6  1  0  0  0  0
  1 17  1  0  0  0  0
  2 12  1  0  0  0  0
  2  5  1  0  0  0  0
  4  7  1  0  0  0  0
  4 13  1  1  0  0  0
  5  9  1  6  0  0  0
  5  6  1  0  0  0  0
  6 13  1  0  0  0  0
  7 15  1  0  0  0  0
  8 11  1  0  0  0  0
 10  3  1  1  0  0  0
 10  7  1  0  0  0  0
 11 10  1  0  0  0  0
 12  8  1  6  0  0  0
 12  5  1  0  0  0  0
 12  4  1  0  0  0  0
 15 16  1  1  0  0  0
 15 14  1  0  0  0  0
 17 18  2  0  0  0  0
 21 23  1  0  0  0  0
 22 27  2  0  0  0  0
 23 19  1  0  0  0  0
 23 20  1  1  0  0  0
 24 21  2  0  0  0  0
 25 28  1  6  0  0  0
 25 23  1  0  0  0  0
 26 31  1  6  0  0  0
 26 25  1  0  0  0  0
 27 24  1  0  0  0  0
 27 26  1  0  0  0  0
 28 29  1  0  0  0  0
 29 19  2  0  0  0  0
 29 18  1  0  0  0  0
 30 31  1  0  0  0  0
M  END
>  <MODEL>
9

>  <REMARK>
 VINA RESULT:      -6.9      2.805      8.369
  Name = 
  5 active torsions:
  status: ('A' for Active; 'I' for Inactive)
    1  A    between atoms: N_7  and  C_30
    2  A    between atoms: N_8  and  P_12
    3  A    between atoms: C_16  and  C_30
    4  A    between atoms: C_22  and  N_24
    5  A    between atoms: C_26  and  C_31
                            x       y       z     vdW  Elec       q    Type
                         _______ _______ _______ _____ _____    ______ ____

>  <TORSDO>
F 5

$$$$
