=
 OpenBabel11042418263D

 28 30  0  0  1  0  0  0  0  0999 V2000
  187.1540  177.7080  144.9300 C   0  0  0  0  0  0  0  0  0  0  0  0
  187.3250  176.5420  147.0340 C   0  0  0  0  0  3  0  0  0  0  0  0
  189.1590  177.9480  143.4750 N   0  0  0  0  0  0  0  0  0  0  0  0
  192.0390  176.1420  144.7750 C   0  0  0  0  0  0  0  0  0  0  0  0
  187.9020  176.8930  145.8050 C   0  0  0  0  0  0  0  0  0  0  0  0
  190.0980  175.6670  146.1220 C   0  0  0  0  0  0  0  0  0  0  0  0
  191.4780  175.4940  145.7500 N   0  0  0  0  0  0  0  0  0  0  0  0
  191.2760  177.0570  143.9890 N   0  0  0  0  0  2  0  0  0  0  0  0
  189.6100  174.8500  147.2710 C   0  0  0  0  0  1  0  0  0  0  0  0
  186.0450  176.9760  147.3720 C   0  0  0  0  0  3  0  0  0  0  0  0
  187.7010  178.1030  143.5740 C   0  0  1  0  0  3  0  0  0  0  0  0
  184.0400  178.2380  146.8040 N   0  0  0  0  0  1  0  0  0  0  0  0
  189.8880  177.2260  144.2710 C   0  0  0  0  0  0  0  0  0  0  0  0
  185.3460  177.7800  146.4770 C   0  0  0  0  0  0  0  0  0  0  0  0
  185.9090  178.1260  145.2910 N   0  0  0  0  0  0  0  0  0  0  0  0
  193.4130  175.9260  144.4760 N   0  0  0  0  0  1  0  0  0  0  0  0
  189.3020  176.5310  145.4390 C   0  0  0  0  0  0  0  0  0  0  0  0
  187.8280  177.6350  141.1340 C   0  0  0  0  0  1  0  0  0  0  0  0
  186.9630  177.4530  142.3730 C   0  0  2  0  0  0  0  0  0  0  0  0
  185.2750  177.9590  140.2510 C   0  0  0  0  0  1  0  0  0  0  0  0
  185.3400  178.2700  142.0430 S   0  0  0  0  0  0  0  0  0  0  0  0
  186.8060  175.9400  142.6230 C   0  0  0  0  0  2  0  0  0  0  0  0
  187.7880  175.0710  141.8410 C   0  0  0  0  0  2  0  0  0  0  0  0
  190.4920  173.0410  143.3390 N   0  0  0  0  0  2  0  0  0  0  0  0
  189.9720  173.9510  142.5850 C   0  0  0  0  0  0  0  0  0  0  0  0
  188.5830  174.2650  142.7540 N   0  0  0  0  0  2  0  0  0  0  0  0
  192.1620  174.2730  141.4360 C   0  0  0  0  0  1  0  0  0  0  0  0
  190.7930  174.5840  141.6420 O   0  0  0  0  0  0  0  0  0  0  0  0
  1 15  2  0  0  0  0
  1  5  1  0  0  0  0
  2 10  1  0  0  0  0
  3 11  1  0  0  0  0
  3 13  2  0  0  0  0
  4  7  2  0  0  0  0
  5  2  2  0  0  0  0
  6  9  1  0  0  0  0
  7  6  1  0  0  0  0
  8 13  1  0  0  0  0
  8  4  1  0  0  0  0
 11 19  1  6  0  0  0
 11  1  1  0  0  0  0
 13 17  1  0  0  0  0
 14 12  1  0  0  0  0
 14 10  2  0  0  0  0
 15 14  1  0  0  0  0
 16  4  1  0  0  0  0
 17  5  1  0  0  0  0
 17  6  2  0  0  0  0
 19 18  1  6  0  0  0
 19 22  1  0  0  0  0
 20 21  1  0  0  0  0
 21 19  1  0  0  0  0
 23 22  1  0  0  0  0
 23 26  1  0  0  0  0
 25 26  1  0  0  0  0
 25 24  2  0  0  0  0
 27 28  1  0  0  0  0
 28 25  1  0  0  0  0
M  END
>  <MODEL>
1

>  <REMARK>
 VINA RESULT:      -6.8      0.000      0.000
  Name = 
  6 active torsions:
  status: ('A' for Active; 'I' for Inactive)
    1  A    between atoms: C_5  and  C_12
    2  A    between atoms: C_5  and  C_26
    3  A    between atoms: C_12  and  N_22
    4  A    between atoms: S_13  and  C_26
    5  A    between atoms: C_17  and  C_26
    6  A    between atoms: C_21  and  O_28
                            x       y       z     vdW  Elec       q    Type
                         _______ _______ _______ _____ _____    ______ ____

>  <TORSDO>
F 6

$$$$
=
 OpenBabel11042418263D

 28 30  0  0  1  0  0  0  0  0999 V2000
  187.0550  177.8010  144.9840 C   0  0  0  0  0  0  0  0  0  0  0  0
  187.3180  176.5600  147.0350 C   0  0  0  0  0  3  0  0  0  0  0  0
  188.9210  177.8960  143.3400 N   0  0  0  0  0  0  0  0  0  0  0  0
  191.7260  175.7870  144.3050 C   0  0  0  0  0  0  0  0  0  0  0  0
  187.8030  176.8930  145.7620 C   0  0  0  0  0  0  0  0  0  0  0  0
  189.8900  175.4560  145.8300 C   0  0  0  0  0  0  0  0  0  0  0  0
  191.2030  175.1650  145.3180 N   0  0  0  0  0  0  0  0  0  0  0  0
  190.9820  176.7940  143.6190 N   0  0  0  0  0  2  0  0  0  0  0  0
  189.4400  174.6540  147.0050 C   0  0  0  0  0  1  0  0  0  0  0  0
  186.1260  177.1020  147.5090 C   0  0  0  0  0  3  0  0  0  0  0  0
  187.5030  178.1850  143.5890 C   0  0  1  0  0  3  0  0  0  0  0  0
  184.2060  178.5650  147.1740 N   0  0  0  0  0  1  0  0  0  0  0  0
  189.6520  177.0840  144.0440 C   0  0  0  0  0  0  0  0  0  0  0  0
  185.4230  177.9960  146.7070 C   0  0  0  0  0  0  0  0  0  0  0  0
  185.8980  178.3240  145.4780 N   0  0  0  0  0  0  0  0  0  0  0  0
  193.0370  175.4520  143.8650 N   0  0  0  0  0  1  0  0  0  0  0  0
  189.1190  176.4120  145.2490 C   0  0  0  0  0  0  0  0  0  0  0  0
  185.9160  176.3760  142.9570 C   0  0  0  0  0  1  0  0  0  0  0  0
  186.5910  177.6440  142.4550 C   0  0  2  0  0  0  0  0  0  0  0  0
  187.7500  175.4220  141.3030 C   0  0  0  0  0  1  0  0  0  0  0  0
  187.5630  177.1970  140.9490 S   0  0  0  0  0  0  0  0  0  0  0  0
  185.4890  178.6760  142.1430 C   0  0  0  0  0  2  0  0  0  0  0  0
  184.0810  178.2230  142.5230 C   0  0  0  0  0  2  0  0  0  0  0  0
  181.1870  178.1220  140.2250 N   0  0  0  0  0  2  0  0  0  0  0  0
  181.8610  178.4800  141.2660 C   0  0  0  0  0  0  0  0  0  0  0  0
  183.2480  178.1210  141.3360 N   0  0  0  0  0  2  0  0  0  0  0  0
  179.8460  179.0030  142.6390 C   0  0  0  0  0  1  0  0  0  0  0  0
  181.2020  179.1990  142.2720 O   0  0  0  0  0  0  0  0  0  0  0  0
  1 15  2  0  0  0  0
  1  5  1  0  0  0  0
  2 10  1  0  0  0  0
  3 11  1  0  0  0  0
  3 13  2  0  0  0  0
  4  7  2  0  0  0  0
  5  2  2  0  0  0  0
  6  9  1  0  0  0  0
  7  6  1  0  0  0  0
  8 13  1  0  0  0  0
  8  4  1  0  0  0  0
 11 19  1  6  0  0  0
 11  1  1  0  0  0  0
 13 17  1  0  0  0  0
 14 12  1  0  0  0  0
 14 10  2  0  0  0  0
 15 14  1  0  0  0  0
 16  4  1  0  0  0  0
 17  5  1  0  0  0  0
 17  6  2  0  0  0  0
 19 18  1  1  0  0  0
 21 20  1  0  0  0  0
 21 19  1  0  0  0  0
 22 19  1  0  0  0  0
 22 23  1  0  0  0  0
 24 25  2  0  0  0  0
 25 26  1  0  0  0  0
 25 28  1  0  0  0  0
 26 23  1  0  0  0  0
 28 27  1  0  0  0  0
M  END
>  <MODEL>
2

>  <REMARK>
 VINA RESULT:      -6.3      3.024      4.671
  Name = 
  6 active torsions:
  status: ('A' for Active; 'I' for Inactive)
    1  A    between atoms: C_5  and  C_12
    2  A    between atoms: C_5  and  C_26
    3  A    between atoms: C_12  and  N_22
    4  A    between atoms: S_13  and  C_26
    5  A    between atoms: C_17  and  C_26
    6  A    between atoms: C_21  and  O_28
                            x       y       z     vdW  Elec       q    Type
                         _______ _______ _______ _____ _____    ______ ____

>  <TORSDO>
F 6

$$$$
=
 OpenBabel11042418263D

 28 30  0  0  1  0  0  0  0  0999 V2000
  188.3550  176.7890  143.4370 C   0  0  0  0  0  0  0  0  0  0  0  0
  189.2560  174.8540  144.5580 C   0  0  0  0  0  3  0  0  0  0  0  0
  187.8830  176.7030  140.9950 N   0  0  0  0  0  0  0  0  0  0  0  0
  188.4220  173.3870  139.5940 C   0  0  0  0  0  0  0  0  0  0  0  0
  188.6850  175.4180  143.4080 C   0  0  0  0  0  0  0  0  0  0  0  0
  188.6830  173.3180  141.9890 C   0  0  0  0  0  0  0  0  0  0  0  0
  188.6220  172.7110  140.6850 N   0  0  0  0  0  0  0  0  0  0  0  0
  188.2170  174.7990  139.6520 N   0  0  0  0  0  2  0  0  0  0  0  0
  188.9280  172.4000  143.1400 C   0  0  0  0  0  1  0  0  0  0  0  0
  189.4760  175.6240  145.6980 C   0  0  0  0  0  3  0  0  0  0  0  0
  187.7100  177.4600  142.2420 C   0  0  1  0  0  3  0  0  0  0  0  0
  189.3570  177.7790  146.8290 N   0  0  0  0  0  1  0  0  0  0  0  0
  188.2070  175.4470  140.9230 C   0  0  0  0  0  0  0  0  0  0  0  0
  189.1360  176.9730  145.6780 C   0  0  0  0  0  0  0  0  0  0  0  0
  188.5920  177.5200  144.5610 N   0  0  0  0  0  0  0  0  0  0  0  0
  188.3880  172.7180  138.3400 N   0  0  0  0  0  1  0  0  0  0  0  0
  188.5170  174.6590  142.1350 C   0  0  0  0  0  0  0  0  0  0  0  0
  185.5590  176.8080  143.3090 C   0  0  0  0  0  1  0  0  0  0  0  0
  186.2330  177.8820  142.4670 C   0  0  2  0  0  0  0  0  0  0  0  0
  183.6320  178.1200  141.5800 C   0  0  0  0  0  1  0  0  0  0  0  0
  185.3050  178.0040  140.8740 S   0  0  0  0  0  0  0  0  0  0  0  0
  186.1890  179.2030  143.2610 C   0  0  0  0  0  2  0  0  0  0  0  0
  185.1640  179.2200  144.3920 C   0  0  0  0  0  2  0  0  0  0  0  0
  186.1350  179.5580  147.9430 N   0  0  0  0  0  2  0  0  0  0  0  0
  185.7420  178.9490  146.8760 C   0  0  0  0  0  0  0  0  0  0  0  0
  185.7890  179.6580  145.6300 N   0  0  0  0  0  2  0  0  0  0  0  0
  186.0780  176.5510  147.4730 C   0  0  0  0  0  1  0  0  0  0  0  0
  185.2890  177.6280  146.9910 O   0  0  0  0  0  0  0  0  0  0  0  0
  1 15  1  0  0  0  0
  2 10  2  0  0  0  0
  3 11  1  0  0  0  0
  4  8  1  0  0  0  0
  4  7  2  0  0  0  0
  5  1  2  0  0  0  0
  5  2  1  0  0  0  0
  6 17  2  0  0  0  0
  6  9  1  0  0  0  0
  7  6  1  0  0  0  0
  8 13  1  0  0  0  0
 11 19  1  1  0  0  0
 11  1  1  0  0  0  0
 13  3  2  0  0  0  0
 13 17  1  0  0  0  0
 14 10  1  0  0  0  0
 14 12  1  0  0  0  0
 15 14  2  0  0  0  0
 16  4  1  0  0  0  0
 17  5  1  0  0  0  0
 19 22  1  0  0  0  0
 19 18  1  1  0  0  0
 21 20  1  0  0  0  0
 21 19  1  0  0  0  0
 22 23  1  0  0  0  0
 23 26  1  0  0  0  0
 25 28  1  0  0  0  0
 25 24  2  0  0  0  0
 26 25  1  0  0  0  0
 28 27  1  0  0  0  0
M  END
>  <MODEL>
3

>  <REMARK>
 VINA RESULT:      -6.1      2.628      5.268
  Name = 
  6 active torsions:
  status: ('A' for Active; 'I' for Inactive)
    1  A    between atoms: C_5  and  C_12
    2  A    between atoms: C_5  and  C_26
    3  A    between atoms: C_12  and  N_22
    4  A    between atoms: S_13  and  C_26
    5  A    between atoms: C_17  and  C_26
    6  A    between atoms: C_21  and  O_28
                            x       y       z     vdW  Elec       q    Type
                         _______ _______ _______ _____ _____    ______ ____

>  <TORSDO>
F 6

$$$$
=
 OpenBabel11042418263D

 28 30  0  0  1  0  0  0  0  0999 V2000
  188.2660  176.8020  144.4350 C   0  0  0  0  0  0  0  0  0  0  0  0
  188.6090  176.3690  146.7830 C   0  0  0  0  0  3  0  0  0  0  0  0
  190.2230  177.0460  142.9180 N   0  0  0  0  0  0  0  0  0  0  0  0
  193.3780  176.3840  144.6070 C   0  0  0  0  0  0  0  0  0  0  0  0
  189.1410  176.4650  145.4890 C   0  0  0  0  0  0  0  0  0  0  0  0
  191.5390  175.9040  146.0880 C   0  0  0  0  0  0  0  0  0  0  0  0
  192.9360  175.9410  145.7450 N   0  0  0  0  0  0  0  0  0  0  0  0
  192.4630  176.8380  143.6090 N   0  0  0  0  0  2  0  0  0  0  0  0
  191.1990  175.3710  147.4400 C   0  0  0  0  0  1  0  0  0  0  0  0
  187.2530  176.5860  147.0150 C   0  0  0  0  0  3  0  0  0  0  0  0
  188.7650  176.8960  143.0080 C   0  0  1  0  0  3  0  0  0  0  0  0
  185.0410  177.1500  146.1600 N   0  0  0  0  0  1  0  0  0  0  0  0
  191.0630  176.7690  143.8690 C   0  0  0  0  0  0  0  0  0  0  0  0
  186.4280  176.9190  145.9440 C   0  0  0  0  0  0  0  0  0  0  0  0
  186.9460  177.0200  144.6940 N   0  0  0  0  0  0  0  0  0  0  0  0
  194.7760  176.4020  144.3460 N   0  0  0  0  0  1  0  0  0  0  0  0
  190.5990  176.3320  145.2050 C   0  0  0  0  0  0  0  0  0  0  0  0
  187.1850  174.9820  142.8350 C   0  0  0  0  0  1  0  0  0  0  0  0
  188.2350  175.7770  142.0720 C   0  0  2  0  0  0  0  0  0  0  0  0
  189.3840  173.4330  142.9630 C   0  0  0  0  0  1  0  0  0  0  0  0
  189.5750  174.6030  141.5830 S   0  0  0  0  0  0  0  0  0  0  0  0
  187.5500  176.4120  140.8460 C   0  0  0  0  0  2  0  0  0  0  0  0
  187.2490  177.9010  140.9970 C   0  0  0  0  0  2  0  0  0  0  0  0
  183.6290  178.1580  140.2920 N   0  0  0  0  0  2  0  0  0  0  0  0
  184.6900  178.0610  141.0200 C   0  0  0  0  0  0  0  0  0  0  0  0
  185.9680  178.2190  140.3880 N   0  0  0  0  0  2  0  0  0  0  0  0
  183.8360  178.6500  143.2880 C   0  0  0  0  0  1  0  0  0  0  0  0
  184.5370  177.8050  142.3900 O   0  0  0  0  0  0  0  0  0  0  0  0
  1 15  2  0  0  0  0
  1  5  1  0  0  0  0
  2 10  1  0  0  0  0
  3 11  1  0  0  0  0
  3 13  2  0  0  0  0
  4  7  2  0  0  0  0
  5  2  2  0  0  0  0
  6  9  1  0  0  0  0
  7  6  1  0  0  0  0
  8 13  1  0  0  0  0
  8  4  1  0  0  0  0
 11 19  1  6  0  0  0
 11  1  1  0  0  0  0
 13 17  1  0  0  0  0
 14 12  1  0  0  0  0
 14 10  2  0  0  0  0
 15 14  1  0  0  0  0
 16  4  1  0  0  0  0
 17  5  1  0  0  0  0
 17  6  2  0  0  0  0
 19 18  1  1  0  0  0
 21 19  1  0  0  0  0
 21 20  1  0  0  0  0
 22 23  1  0  0  0  0
 22 19  1  0  0  0  0
 24 25  2  0  0  0  0
 25 28  1  0  0  0  0
 26 23  1  0  0  0  0
 26 25  1  0  0  0  0
 28 27  1  0  0  0  0
M  END
>  <MODEL>
4

>  <REMARK>
 VINA RESULT:      -6.0      2.541      3.967
  Name = 
  6 active torsions:
  status: ('A' for Active; 'I' for Inactive)
    1  A    between atoms: C_5  and  C_12
    2  A    between atoms: C_5  and  C_26
    3  A    between atoms: C_12  and  N_22
    4  A    between atoms: S_13  and  C_26
    5  A    between atoms: C_17  and  C_26
    6  A    between atoms: C_21  and  O_28
                            x       y       z     vdW  Elec       q    Type
                         _______ _______ _______ _____ _____    ______ ____

>  <TORSDO>
F 6

$$$$
=
 OpenBabel11042418263D

 28 30  0  0  1  0  0  0  0  0999 V2000
  188.2010  176.4510  145.1010 C   0  0  0  0  0  0  0  0  0  0  0  0
  186.5020  177.8590  144.1270 C   0  0  0  0  0  3  0  0  0  0  0  0
  189.2980  174.6920  143.7240 N   0  0  0  0  0  0  0  0  0  0  0  0
  188.2450  174.8000  140.2420 C   0  0  0  0  0  0  0  0  0  0  0  0
  187.5120  176.9010  143.9560 C   0  0  0  0  0  0  0  0  0  0  0  0
  187.3090  176.6710  141.4390 C   0  0  0  0  0  0  0  0  0  0  0  0
  187.5590  175.9030  140.2480 N   0  0  0  0  0  0  0  0  0  0  0  0
  188.8220  174.3080  141.4510 N   0  0  0  0  0  2  0  0  0  0  0  0
  186.4970  177.9120  141.2750 C   0  0  0  0  0  1  0  0  0  0  0  0
  186.2010  178.3600  145.3910 C   0  0  0  0  0  3  0  0  0  0  0  0
  189.3220  175.4380  144.9890 C   0  0  1  0  0  3  0  0  0  0  0  0
  186.6110  178.3800  147.7930 N   0  0  0  0  0  1  0  0  0  0  0  0
  188.6600  175.0580  142.6530 C   0  0  0  0  0  0  0  0  0  0  0  0
  186.9070  177.8850  146.4930 C   0  0  0  0  0  0  0  0  0  0  0  0
  187.8770  176.9510  146.3260 N   0  0  0  0  0  0  0  0  0  0  0  0
  188.4370  174.0900  139.0250 N   0  0  0  0  0  1  0  0  0  0  0  0
  187.8070  176.2670  142.6380 C   0  0  0  0  0  0  0  0  0  0  0  0
  190.9060  176.0300  146.8140 C   0  0  0  0  0  1  0  0  0  0  0  0
  190.7310  176.0090  145.3020 C   0  0  2  0  0  0  0  0  0  0  0  0
  191.6650  177.3570  143.0830 C   0  0  0  0  0  1  0  0  0  0  0  0
  190.9170  177.7440  144.6970 S   0  0  0  0  0  0  0  0  0  0  0  0
  191.8080  175.0760  144.7140 C   0  0  0  0  0  2  0  0  0  0  0  0
  192.4220  174.1120  145.7250 C   0  0  0  0  0  2  0  0  0  0  0  0
  196.0290  174.7860  145.2690 N   0  0  0  0  0  2  0  0  0  0  0  0
  194.8440  174.9560  145.7510 C   0  0  0  0  0  0  0  0  0  0  0  0
  193.8460  173.9620  145.4760 N   0  0  0  0  0  2  0  0  0  0  0  0
  194.5480  177.4200  145.9930 C   0  0  0  0  0  1  0  0  0  0  0  0
  194.5940  176.1020  146.5170 O   0  0  0  0  0  0  0  0  0  0  0  0
  1 15  1  0  0  0  0
  2 10  2  0  0  0  0
  3 11  1  0  0  0  0
  4  7  2  0  0  0  0
  4  8  1  0  0  0  0
  5  2  1  0  0  0  0
  5  1  2  0  0  0  0
  6 17  2  0  0  0  0
  7  6  1  0  0  0  0
  8 13  1  0  0  0  0
  9  6  1  0  0  0  0
 10 14  1  0  0  0  0
 11  1  1  0  0  0  0
 11 19  1  6  0  0  0
 13  3  2  0  0  0  0
 14 12  1  0  0  0  0
 15 14  2  0  0  0  0
 16  4  1  0  0  0  0
 17 13  1  0  0  0  0
 17  5  1  0  0  0  0
 19 18  1  1  0  0  0
 20 21  1  0  0  0  0
 21 19  1  0  0  0  0
 22 19  1  0  0  0  0
 22 23  1  0  0  0  0
 24 25  2  0  0  0  0
 25 28  1  0  0  0  0
 26 23  1  0  0  0  0
 26 25  1  0  0  0  0
 27 28  1  0  0  0  0
M  END
>  <MODEL>
5

>  <REMARK>
 VINA RESULT:      -5.9      2.558      5.126
  Name = 
  6 active torsions:
  status: ('A' for Active; 'I' for Inactive)
    1  A    between atoms: C_5  and  C_12
    2  A    between atoms: C_5  and  C_26
    3  A    between atoms: C_12  and  N_22
    4  A    between atoms: S_13  and  C_26
    5  A    between atoms: C_17  and  C_26
    6  A    between atoms: C_21  and  O_28
                            x       y       z     vdW  Elec       q    Type
                         _______ _______ _______ _____ _____    ______ ____

>  <TORSDO>
F 6

$$$$
=
 OpenBabel11042418263D

 28 30  0  0  1  0  0  0  0  0999 V2000
  190.8410  176.0090  144.2310 C   0  0  0  0  0  0  0  0  0  0  0  0
  191.1680  174.2100  142.6580 C   0  0  0  0  0  3  0  0  0  0  0  0
  189.1440  177.7710  143.7700 N   0  0  0  0  0  0  0  0  0  0  0  0
  187.1990  177.0710  140.7740 C   0  0  0  0  0  0  0  0  0  0  0  0
  190.4110  175.3120  143.0830 C   0  0  0  0  0  0  0  0  0  0  0  0
  188.6500  175.2100  141.2620 C   0  0  0  0  0  0  0  0  0  0  0  0
  187.6140  175.8680  140.5110 N   0  0  0  0  0  0  0  0  0  0  0  0
  187.7510  177.7970  141.8720 N   0  0  0  0  0  2  0  0  0  0  0  0
  189.0150  173.8300  140.8260 C   0  0  0  0  0  1  0  0  0  0  0  0
  192.3020  173.8110  143.3600 C   0  0  0  0  0  3  0  0  0  0  0  0
  190.0580  177.1920  144.7640 C   0  0  1  0  0  3  0  0  0  0  0  0
  193.8480  174.1430  145.2150 N   0  0  0  0  0  1  0  0  0  0  0  0
  188.7400  177.1730  142.6900 C   0  0  0  0  0  0  0  0  0  0  0  0
  192.6900  174.5320  144.4870 C   0  0  0  0  0  0  0  0  0  0  0  0
  191.9610  175.6030  144.8910 N   0  0  0  0  0  0  0  0  0  0  0  0
  186.1780  177.6600  139.9780 N   0  0  0  0  0  1  0  0  0  0  0  0
  189.2440  175.8340  142.3130 C   0  0  0  0  0  0  0  0  0  0  0  0
  190.1690  177.6040  147.2140 C   0  0  0  0  0  1  0  0  0  0  0  0
  189.3520  176.9310  146.1210 C   0  0  2  0  0  0  0  0  0  0  0  0
  190.5360  175.1150  147.8280 C   0  0  0  0  0  1  0  0  0  0  0  0
  189.2750  175.1280  146.5160 S   0  0  0  0  0  0  0  0  0  0  0  0
  187.9530  177.5780  146.1090 C   0  0  0  0  0  2  0  0  0  0  0  0
  186.8080  176.6000  146.3590 C   0  0  0  0  0  2  0  0  0  0  0  0
  183.8320  178.7280  145.8340 N   0  0  0  0  0  2  0  0  0  0  0  0
  184.7850  177.9230  145.5050 C   0  0  0  0  0  0  0  0  0  0  0  0
  185.5620  177.3230  146.5510 N   0  0  0  0  0  2  0  0  0  0  0  0
  184.2600  178.2620  143.0910 C   0  0  0  0  0  1  0  0  0  0  0  0
  185.0090  177.6760  144.1440 O   0  0  0  0  0  0  0  0  0  0  0  0
  1 11  1  0  0  0  0
  1 15  1  0  0  0  0
  2  5  1  0  0  0  0
  2 10  2  0  0  0  0
  3 11  1  0  0  0  0
  4  8  1  0  0  0  0
  5  1  2  0  0  0  0
  6 17  2  0  0  0  0
  7  4  2  0  0  0  0
  7  6  1  0  0  0  0
  8 13  1  0  0  0  0
  9  6  1  0  0  0  0
 10 14  1  0  0  0  0
 11 19  1  1  0  0  0
 13  3  2  0  0  0  0
 14 15  2  0  0  0  0
 14 12  1  0  0  0  0
 16  4  1  0  0  0  0
 17 13  1  0  0  0  0
 17  5  1  0  0  0  0
 19 21  1  0  0  0  0
 19 18  1  1  0  0  0
 21 20  1  0  0  0  0
 22 19  1  0  0  0  0
 22 23  1  0  0  0  0
 23 26  1  0  0  0  0
 25 24  2  0  0  0  0
 25 26  1  0  0  0  0
 27 28  1  0  0  0  0
 28 25  1  0  0  0  0
M  END
>  <MODEL>
6

>  <REMARK>
 VINA RESULT:      -5.8      2.535      6.464
  Name = 
  6 active torsions:
  status: ('A' for Active; 'I' for Inactive)
    1  A    between atoms: C_5  and  C_12
    2  A    between atoms: C_5  and  C_26
    3  A    between atoms: C_12  and  N_22
    4  A    between atoms: S_13  and  C_26
    5  A    between atoms: C_17  and  C_26
    6  A    between atoms: C_21  and  O_28
                            x       y       z     vdW  Elec       q    Type
                         _______ _______ _______ _____ _____    ______ ____

>  <TORSDO>
F 6

$$$$
=
 OpenBabel11042418263D

 28 30  0  0  1  0  0  0  0  0999 V2000
  187.7720  176.1410  144.7340 C   0  0  0  0  0  0  0  0  0  0  0  0
  186.4870  176.8300  146.6540 C   0  0  0  0  0  3  0  0  0  0  0  0
  186.8630  176.4800  142.4420 N   0  0  0  0  0  0  0  0  0  0  0  0
  183.7150  178.3070  142.4570 C   0  0  0  0  0  0  0  0  0  0  0  0
  186.6630  176.8320  145.2630 C   0  0  0  0  0  0  0  0  0  0  0  0
  184.6260  178.2270  144.6860 C   0  0  0  0  0  0  0  0  0  0  0  0
  183.6590  178.6500  143.7080 N   0  0  0  0  0  0  0  0  0  0  0  0
  184.7900  177.4970  141.9820 N   0  0  0  0  0  2  0  0  0  0  0  0
  184.4130  178.7040  146.0840 C   0  0  0  0  0  1  0  0  0  0  0  0
  187.3910  176.1750  147.4870 C   0  0  0  0  0  3  0  0  0  0  0  0
  188.0410  176.1240  143.2430 C   0  0  1  0  0  3  0  0  0  0  0  0
  189.4020  174.8240  147.7510 N   0  0  0  0  0  1  0  0  0  0  0  0
  185.8120  177.0960  142.8930 C   0  0  0  0  0  0  0  0  0  0  0  0
  188.4700  175.5040  146.9190 C   0  0  0  0  0  0  0  0  0  0  0  0
  188.6340  175.5000  145.5710 N   0  0  0  0  0  0  0  0  0  0  0  0
  182.7130  178.7540  141.5520 N   0  0  0  0  0  1  0  0  0  0  0  0
  185.6730  177.4390  144.3260 C   0  0  0  0  0  0  0  0  0  0  0  0
  188.9050  177.8470  141.6710 C   0  0  0  0  0  1  0  0  0  0  0  0
  189.3010  176.9220  142.8130 C   0  0  2  0  0  0  0  0  0  0  0  0
  189.6250  174.3110  141.9850 C   0  0  0  0  0  1  0  0  0  0  0  0
  190.6370  175.8100  142.1890 S   0  0  0  0  0  0  0  0  0  0  0  0
  189.7820  177.7980  143.9860 C   0  0  0  0  0  2  0  0  0  0  0  0
  191.2840  177.7250  144.2470 C   0  0  0  0  0  2  0  0  0  0  0  0
  192.7740  175.4310  146.7350 N   0  0  0  0  0  2  0  0  0  0  0  0
  192.7610  176.2520  145.7400 C   0  0  0  0  0  0  0  0  0  0  0  0
  191.5470  176.9620  145.4570 N   0  0  0  0  0  2  0  0  0  0  0  0
  195.1470  175.7180  145.2480 C   0  0  0  0  0  1  0  0  0  0  0  0
  193.9330  176.4050  144.9870 O   0  0  0  0  0  0  0  0  0  0  0  0
  1  5  2  0  0  0  0
  1 15  1  0  0  0  0
  2 10  2  0  0  0  0
  3 13  2  0  0  0  0
  3 11  1  0  0  0  0
  4  7  2  0  0  0  0
  5  2  1  0  0  0  0
  6  9  1  0  0  0  0
  7  6  1  0  0  0  0
  8  4  1  0  0  0  0
  8 13  1  0  0  0  0
 11 19  1  1  0  0  0
 11  1  1  0  0  0  0
 13 17  1  0  0  0  0
 14 10  1  0  0  0  0
 14 12  1  0  0  0  0
 15 14  2  0  0  0  0
 16  4  1  0  0  0  0
 17  6  2  0  0  0  0
 17  5  1  0  0  0  0
 19 18  1  6  0  0  0
 19 22  1  0  0  0  0
 20 21  1  0  0  0  0
 21 19  1  0  0  0  0
 22 23  1  0  0  0  0
 23 26  1  0  0  0  0
 25 24  2  0  0  0  0
 26 25  1  0  0  0  0
 28 27  1  0  0  0  0
 28 25  1  0  0  0  0
M  END
>  <MODEL>
7

>  <REMARK>
 VINA RESULT:      -5.8      2.517      5.257
  Name = 
  6 active torsions:
  status: ('A' for Active; 'I' for Inactive)
    1  A    between atoms: C_5  and  C_12
    2  A    between atoms: C_5  and  C_26
    3  A    between atoms: C_12  and  N_22
    4  A    between atoms: S_13  and  C_26
    5  A    between atoms: C_17  and  C_26
    6  A    between atoms: C_21  and  O_28
                            x       y       z     vdW  Elec       q    Type
                         _______ _______ _______ _____ _____    ______ ____

>  <TORSDO>
F 6

$$$$
=
 OpenBabel11042418263D

 28 30  0  0  1  0  0  0  0  0999 V2000
  188.7580  176.8640  144.8210 C   0  0  0  0  0  0  0  0  0  0  0  0
  190.0850  175.0500  145.6960 C   0  0  0  0  0  3  0  0  0  0  0  0
  187.8910  176.7580  142.4900 N   0  0  0  0  0  0  0  0  0  0  0  0
  188.6160  173.5730  140.8850 C   0  0  0  0  0  0  0  0  0  0  0  0
  189.2560  175.5520  144.6810 C   0  0  0  0  0  0  0  0  0  0  0  0
  189.2900  173.4970  143.1980 C   0  0  0  0  0  0  0  0  0  0  0  0
  189.0870  172.9110  141.8990 N   0  0  0  0  0  0  0  0  0  0  0  0
  188.2400  174.9410  141.0340 N   0  0  0  0  0  2  0  0  0  0  0  0
  189.8460  172.6010  144.2540 C   0  0  0  0  0  1  0  0  0  0  0  0
  190.3930  175.8230  146.8130 C   0  0  0  0  0  3  0  0  0  0  0  0
  187.8350  177.4610  143.7780 C   0  0  1  0  0  3  0  0  0  0  0  0
  190.1850  177.9200  148.0360 N   0  0  0  0  0  1  0  0  0  0  0  0
  188.3610  175.5600  142.3130 C   0  0  0  0  0  0  0  0  0  0  0  0
  189.8790  177.1130  146.9060 C   0  0  0  0  0  0  0  0  0  0  0  0
  189.0850  177.6000  145.9190 N   0  0  0  0  0  0  0  0  0  0  0  0
  188.4580  172.9270  139.6280 N   0  0  0  0  0  1  0  0  0  0  0  0
  188.9750  174.7990  143.4250 C   0  0  0  0  0  0  0  0  0  0  0  0
  186.1830  179.1570  144.5440 C   0  0  0  0  0  1  0  0  0  0  0  0
  186.3760  177.6730  144.2630 C   0  0  2  0  0  0  0  0  0  0  0  0
  185.0510  178.0530  146.6530 C   0  0  0  0  0  1  0  0  0  0  0  0
  186.0380  176.7620  145.8340 S   0  0  0  0  0  0  0  0  0  0  0  0
  185.3970  177.2720  143.1430 C   0  0  0  0  0  2  0  0  0  0  0  0
  184.2720  178.2760  142.9060 C   0  0  0  0  0  2  0  0  0  0  0  0
  181.8510  177.8660  140.1410 N   0  0  0  0  0  2  0  0  0  0  0  0
  182.3030  178.3170  141.2630 C   0  0  0  0  0  0  0  0  0  0  0  0
  183.6740  178.0610  141.5980 N   0  0  0  0  0  2  0  0  0  0  0  0
  180.1200  179.4320  141.7230 C   0  0  0  0  0  1  0  0  0  0  0  0
  181.4300  179.0320  142.0940 O   0  0  0  0  0  0  0  0  0  0  0  0
  1 15  1  0  0  0  0
  2 10  2  0  0  0  0
  3 11  1  0  0  0  0
  4  8  1  0  0  0  0
  4  7  2  0  0  0  0
  5  1  2  0  0  0  0
  5  2  1  0  0  0  0
  6 17  2  0  0  0  0
  6  9  1  0  0  0  0
  7  6  1  0  0  0  0
  8 13  1  0  0  0  0
 10 14  1  0  0  0  0
 11 19  1  1  0  0  0
 11  1  1  0  0  0  0
 13  3  2  0  0  0  0
 13 17  1  0  0  0  0
 14 12  1  0  0  0  0
 15 14  2  0  0  0  0
 16  4  1  0  0  0  0
 17  5  1  0  0  0  0
 19 18  1  1  0  0  0
 19 21  1  0  0  0  0
 21 20  1  0  0  0  0
 22 19  1  0  0  0  0
 23 22  1  0  0  0  0
 24 25  2  0  0  0  0
 25 26  1  0  0  0  0
 25 28  1  0  0  0  0
 26 23  1  0  0  0  0
 27 28  1  0  0  0  0
M  END
>  <MODEL>
8

>  <REMARK>
 VINA RESULT:      -5.8      3.291      5.714
  Name = 
  6 active torsions:
  status: ('A' for Active; 'I' for Inactive)
    1  A    between atoms: C_5  and  C_12
    2  A    between atoms: C_5  and  C_26
    3  A    between atoms: C_12  and  N_22
    4  A    between atoms: S_13  and  C_26
    5  A    between atoms: C_17  and  C_26
    6  A    between atoms: C_21  and  O_28
                            x       y       z     vdW  Elec       q    Type
                         _______ _______ _______ _____ _____    ______ ____

>  <TORSDO>
F 6

$$$$
=
 OpenBabel11042418263D

 28 30  0  0  1  0  0  0  0  0999 V2000
  188.3360  176.0430  145.4150 C   0  0  0  0  0  0  0  0  0  0  0  0
  186.9650  177.5920  144.1760 C   0  0  0  0  0  3  0  0  0  0  0  0
  189.3670  174.0950  144.2580 N   0  0  0  0  0  0  0  0  0  0  0  0
  188.7830  174.1490  140.6660 C   0  0  0  0  0  0  0  0  0  0  0  0
  187.8590  176.5120  144.1740 C   0  0  0  0  0  0  0  0  0  0  0  0
  187.9480  176.1780  141.6620 C   0  0  0  0  0  0  0  0  0  0  0  0
  188.2460  175.3250  140.5420 N   0  0  0  0  0  0  0  0  0  0  0  0
  189.1370  173.6540  141.9570 N   0  0  0  0  0  2  0  0  0  0  0  0
  187.3250  177.4970  141.3480 C   0  0  0  0  0  1  0  0  0  0  0  0
  186.5730  178.1910  145.3710 C   0  0  0  0  0  3  0  0  0  0  0  0
  189.3260  174.8980  145.4880 C   0  0  1  0  0  3  0  0  0  0  0  0
  186.6760  178.2860  147.8040 N   0  0  0  0  0  1  0  0  0  0  0  0
  188.9200  174.4790  143.1000 C   0  0  0  0  0  0  0  0  0  0  0  0
  187.0680  177.6920  146.5720 C   0  0  0  0  0  0  0  0  0  0  0  0
  187.9270  176.6410  146.5680 N   0  0  0  0  0  0  0  0  0  0  0  0
  189.0360  173.3580  139.5110 N   0  0  0  0  0  1  0  0  0  0  0  0
  188.2360  175.7800  142.9290 C   0  0  0  0  0  0  0  0  0  0  0  0
  191.7380  174.2940  145.4160 C   0  0  0  0  0  1  0  0  0  0  0  0
  190.7450  175.3100  145.9620 C   0  0  2  0  0  0  0  0  0  0  0  0
  191.3000  177.0460  148.0330 C   0  0  0  0  0  1  0  0  0  0  0  0
  190.8840  175.2890  147.8040 S   0  0  0  0  0  0  0  0  0  0  0  0
  191.1060  176.6880  145.3730 C   0  0  0  0  0  2  0  0  0  0  0  0
  191.9770  176.6260  144.1220 C   0  0  0  0  0  2  0  0  0  0  0  0
  195.6620  176.4370  144.3690 N   0  0  0  0  0  2  0  0  0  0  0  0
  194.5030  176.2970  143.8190 C   0  0  0  0  0  0  0  0  0  0  0  0
  193.3660  176.8900  144.4630 N   0  0  0  0  0  2  0  0  0  0  0  0
  194.6700  176.1170  141.3370 C   0  0  0  0  0  1  0  0  0  0  0  0
  194.4160  175.5720  142.6230 O   0  0  0  0  0  0  0  0  0  0  0  0
  1 11  1  0  0  0  0
  1 15  1  0  0  0  0
  2 10  2  0  0  0  0
  3 11  1  0  0  0  0
  4  8  1  0  0  0  0
  5  2  1  0  0  0  0
  5  1  2  0  0  0  0
  6 17  2  0  0  0  0
  7  4  2  0  0  0  0
  7  6  1  0  0  0  0
  8 13  1  0  0  0  0
  9  6  1  0  0  0  0
 10 14  1  0  0  0  0
 11 19  1  6  0  0  0
 13  3  2  0  0  0  0
 14 12  1  0  0  0  0
 15 14  2  0  0  0  0
 16  4  1  0  0  0  0
 17 13  1  0  0  0  0
 17  5  1  0  0  0  0
 19 18  1  6  0  0  0
 19 21  1  0  0  0  0
 21 20  1  0  0  0  0
 22 19  1  0  0  0  0
 23 26  1  0  0  0  0
 23 22  1  0  0  0  0
 25 24  2  0  0  0  0
 25 26  1  0  0  0  0
 27 28  1  0  0  0  0
 28 25  1  0  0  0  0
M  END
>  <MODEL>
9

>  <REMARK>
 VINA RESULT:      -5.7      2.520      5.092
  Name = 
  6 active torsions:
  status: ('A' for Active; 'I' for Inactive)
    1  A    between atoms: C_5  and  C_12
    2  A    between atoms: C_5  and  C_26
    3  A    between atoms: C_12  and  N_22
    4  A    between atoms: S_13  and  C_26
    5  A    between atoms: C_17  and  C_26
    6  A    between atoms: C_21  and  O_28
                            x       y       z     vdW  Elec       q    Type
                         _______ _______ _______ _____ _____    ______ ____

>  <TORSDO>
F 6

$$$$
