=
 OpenBabel11042418573D

 68 71  0  0  1  0  0  0  0  0999 V2000
  194.0710  171.5070  140.0870 C   0  0  0  0  0  0  0  0  0  0  0  0
  193.5220  171.9090  138.9150 C   0  0  0  0  0  0  0  0  0  0  0  0
  194.0620  171.5430  137.5490 C   0  0  2  0  0  3  0  0  0  0  0  0
  192.5390  170.6370  135.8350 N   0  0  0  0  0  2  0  0  0  0  0  0
  195.1530  173.6420  136.9480 N   0  0  0  0  0  1  0  0  0  0  0  0
  194.0770  172.7300  136.5770 C   0  0  1  0  0  3  0  0  0  0  0  0
  193.4980  170.2720  136.8920 C   0  0  0  0  0  2  0  0  0  0  0  0
  193.1840  171.4200  134.7630 C   0  0  0  0  0  2  0  0  0  0  0  0
  194.3210  172.2370  135.2250 N   0  0  0  0  0  2  0  0  0  0  0  0
  193.3330  171.7490  141.3740 C   0  0  1  0  0  3  0  0  0  0  0  0
  192.9570  173.0900  141.4910 O   0  0  0  0  0  1  0  0  0  0  0  0
  192.4340  170.3170  143.8990 C   0  0  0  0  0  2  0  0  0  0  0  0
  192.1670  170.7790  141.6350 C   0  0  2  0  0  3  0  0  0  0  0  0
  193.2990  168.6350  142.3050 C   0  0  0  0  0  2  0  0  0  0  0  0
  191.5800  170.8760  142.9250 O   0  0  0  0  0  0  0  0  0  0  0  0
  192.4740  169.3340  141.2290 C   0  0  0  0  0  2  0  0  0  0  0  0
  192.6430  168.8250  143.6630 C   0  0  0  0  0  2  0  0  0  0  0  0
  192.2740  172.6070  138.9240 N   0  0  0  0  0  2  0  0  0  0  0  0
  191.0240  171.8810  138.7830 C   0  0  0  0  0  2  0  0  0  0  0  0
  189.9890  172.7360  138.0870 C   0  0  0  0  0  2  0  0  0  0  0  0
  189.8320  173.9450  138.7620 O   0  0  0  0  0  0  0  0  0  0  0  0
  188.5380  173.8980  139.2800 C   0  0  1  0  0  3  0  0  0  0  0  0
  188.0780  172.4530  139.3690 C   0  0  0  0  0  1  0  0  0  0  0  0
  188.5330  174.5110  140.6420 C   0  0  0  0  0  3  0  0  0  0  0  0
  187.7570  175.4910  140.9120 N   0  0  0  0  0  0  0  0  0  0  0  0
  187.7690  176.0690  142.2280 C   0  0  0  0  0  2  0  0  0  0  0  0
  184.8200  178.5110  142.2990 C   0  0  2  0  0  3  0  0  0  0  0  0
  186.1060  177.8570  141.7810 C   0  0  0  0  0  2  0  0  0  0  0  0
  184.2540  177.7970  143.3790 O   0  0  0  0  0  0  0  0  0  0  0  0
  186.3880  176.5850  142.5830 C   0  0  2  0  0  3  0  0  0  0  0  0
  186.2920  176.7650  143.9910 O   0  0  0  0  0  0  0  0  0  0  0  0
  185.2730  177.6960  144.3470 C   0  0  2  0  0  3  0  0  0  0  0  0
  184.2710  177.9130  140.0470 C   0  0  0  0  0  1  0  0  0  0  0  0
  183.8570  178.7110  141.2040 N   0  0  0  0  0  0  0  0  0  0  0  0
  181.5620  178.2410  140.4560 C   0  0  0  0  0  1  0  0  0  0  0  0
  182.5230  178.2640  141.6340 C   0  0  2  0  0  3  0  0  0  0  0  0
  182.0000  179.1230  142.6040 O   0  0  0  0  0  1  0  0  0  0  0  0
  184.7160  177.3780  145.6600 N   0  0  0  0  0  2  0  0  0  0  0  0
  184.6290  178.5900  146.4630 C   0  0  0  0  0  2  0  0  0  0  0  0
  186.0040  178.9450  146.9770 C   0  0  0  0  0  2  0  0  0  0  0  0
  186.5820  177.7740  147.7510 C   0  0  0  0  0  1  0  0  0  0  0  0
  195.3890  170.7810  140.1540 C   0  0  0  0  0  2  0  0  0  0  0  0
  197.7260  171.1250  140.8940 C   0  0  0  0  0  3  0  0  0  0  0  0
  196.5620  171.6700  140.5220 C   0  0  0  0  0  0  0  0  0  0  0  0
  197.6940  175.5430  142.7120 C   0  0  0  0  0  1  0  0  0  0  0  0
  196.4670  173.1330  140.3390 C   0  0  0  0  0  3  0  0  0  0  0  0
  196.4670  173.9850  141.3330 C   0  0  0  0  0  0  0  0  0  0  0  0
  196.4410  174.8120  142.3420 C   0  0  0  0  0  0  0  0  0  0  0  0
  194.2720  176.6110  141.5910 C   0  0  0  0  0  2  0  0  0  0  0  0
  194.1620  175.8560  142.6830 C   0  0  0  0  0  0  0  0  0  0  0  0
  192.1740  176.9540  143.3860 O   0  0  0  0  0  0  0  0  0  0  0  0
  195.2360  174.9840  143.1080 N   0  0  0  0  0  0  0  0  0  0  0  0
  195.2150  174.4710  144.4830 C   0  0  0  0  0  2  0  0  0  0  0  0
  193.8080  174.0310  144.8690 C   0  0  0  0  0  2  0  0  0  0  0  0
  192.8610  175.1280  144.7030 N   0  0  0  0  0  0  0  0  0  0  0  0
  192.9920  176.0120  143.5700 C   0  0  0  0  0  0  0  0  0  0  0  0
  191.8240  175.2730  145.7290 C   0  0  2  0  0  3  0  0  0  0  0  0
  190.4300  174.9020  145.2060 C   0  0  2  0  0  3  0  0  0  0  0  0
  189.4300  176.0310  145.3920 C   0  0  0  0  0  1  0  0  0  0  0  0
  189.0260  173.9980  146.9270 O   0  0  0  0  0  1  0  0  0  0  0  0
  189.9040  173.6560  145.8980 C   0  0  0  0  0  2  0  0  0  0  0  0
  191.8480  176.5470  146.3180 O   0  0  0  0  0  0  0  0  0  0  0  0
  192.0030  176.3230  147.6930 C   0  0  0  0  0  2  0  0  0  0  0  0
  191.3780  177.4550  148.4990 C   0  0  0  0  0  2  0  0  0  0  0  0
  190.2280  177.9140  147.8650 O   0  0  0  0  0  1  0  0  0  0  0  0
  197.9410  169.6550  141.0590 C   0  0  0  0  0  2  0  0  0  0  0  0
  196.7080  168.4730  142.8600 C   0  0  0  0  0  1  0  0  0  0  0  0
  197.9320  169.2920  142.5340 C   0  0  0  0  0  2  0  0  0  0  0  0
  1 42  1  0  0  0  0
  1 10  1  0  0  0  0
  2 18  1  0  0  0  0
  2  1  2  0  0  0  0
  3  2  1  1  0  0  0
  4  7  1  0  0  0  0
  6  5  1  1  0  0  0
  6  3  1  0  0  0  0
  7  3  1  0  0  0  0
  8  9  1  0  0  0  0
  8  4  1  0  0  0  0
  9  6  1  0  0  0  0
 10 11  1  6  0  0  0
 13 10  1  1  0  0  0
 13 15  1  0  0  0  0
 14 17  1  0  0  0  0
 15 12  1  0  0  0  0
 16 13  1  0  0  0  0
 16 14  1  0  0  0  0
 17 12  1  0  0  0  0
 19 18  1  0  0  0  0
 20 21  1  0  0  0  0
 20 19  1  0  0  0  0
 21 22  1  0  0  0  0
 22 23  1  1  0  0  0
 22 24  1  0  0  0  0
 24 25  2  0  0  0  0
 25 26  1  0  0  0  0
 27 34  1  6  0  0  0
 27 29  1  0  0  0  0
 28 27  1  0  0  0  0
 28 30  1  0  0  0  0
 29 32  1  0  0  0  0
 30 26  1  1  0  0  0
 30 31  1  0  0  0  0
 31 32  1  0  0  0  0
 32 38  1  1  0  0  0
 33 34  1  0  0  0  0
 34 36  1  0  0  0  0
 36 35  1  6  0  0  0
 36 37  1  0  0  0  0
 38 39  1  0  0  0  0
 39 40  1  0  0  0  0
 40 41  1  0  0  0  0
 42 44  1  0  0  0  0
 43 66  1  0  0  0  0
 44 43  2  0  0  0  0
 46 44  1  0  0  0  0
 46 47  2  0  0  0  0
 47 48  2  0  0  0  0
 48 45  1  0  0  0  0
 48 52  1  0  0  0  0
 49 50  2  0  0  0  0
 50 52  1  0  0  0  0
 50 56  1  0  0  0  0
 51 56  2  0  0  0  0
 52 53  1  0  0  0  0
 53 54  1  0  0  0  0
 55 54  1  0  0  0  0
 55 57  1  0  0  0  0
 56 55  1  0  0  0  0
 57 62  1  6  0  0  0
 58 59  1  1  0  0  0
 58 57  1  0  0  0  0
 58 61  1  0  0  0  0
 61 60  1  0  0  0  0
 62 63  1  0  0  0  0
 63 64  1  0  0  0  0
 65 64  1  0  0  0  0
 66 68  1  0  0  0  0
 68 67  1  0  0  0  0
M  END
>  <MODEL>
1

>  <REMARK>
 VINA RESULT:      -5.0      0.000      0.000
  Name = 
  28 active torsions:
  status: ('A' for Active; 'I' for Inactive)
    1  A    between atoms: C_1  and  N_53
    2  A    between atoms: C_3  and  C_26
    3  A    between atoms: C_5  and  C_15
    4  A    between atoms: C_5  and  C_18
    5  A    between atoms: O_9  and  C_13
    6  A    between atoms: O_9  and  C_16
    7  A    between atoms: C_11  and  C_66
    8  A    between atoms: C_13  and  C_64
    9  A    between atoms: O_14  and  C_65
   10  A    between atoms: O_14  and  C_66
   11  A    between atoms: C_15  and  C_17
   12  A    between atoms: C_16  and  C_41
   13  A    between atoms: C_17  and  C_33
   14  A    between atoms: C_22  and  C_38
   15  A    between atoms: C_23  and  C_28
   16  A    between atoms: C_23  and  N_39
   17  A    between atoms: C_24  and  C_38
   18  A    between atoms: C_26  and  N_43
   19  A    between atoms: C_29  and  N_53
   20  A    between atoms: C_32  and  C_36
   21  A    between atoms: C_33  and  C_45
   22  A    between atoms: C_34  and  N_42
   23  A    between atoms: C_34  and  C_61
   24  A    between atoms: C_36  and  C_65
   25  A    between atoms: N_37  and  C_59
   26  A    between atoms: N_39  and  C_67
   27  A    between atoms: N_43  and  C_64
   28  A    between atoms: N_58  and  C_65
                            x       y       z     vdW  Elec       q    Type
                         _______ _______ _______ _____ _____    ______ ____

>  <TORSDO>
F 28

$$$$
=
 OpenBabel11042418573D

 68 71  0  0  1  0  0  0  0  0999 V2000
  193.8670  173.6030  141.5870 C   0  0  0  0  0  0  0  0  0  0  0  0
  192.9160  173.5710  140.6220 C   0  0  0  0  0  0  0  0  0  0  0  0
  191.6720  172.7090  140.6770 C   0  0  2  0  0  3  0  0  0  0  0  0
  189.6370  173.4230  139.4840 N   0  0  0  0  0  2  0  0  0  0  0  0
  192.6020  170.5770  139.9380 N   0  0  0  0  0  1  0  0  0  0  0  0
  191.6500  171.6260  139.5900 C   0  0  1  0  0  3  0  0  0  0  0  0
  190.3210  173.4370  140.7880 C   0  0  0  0  0  2  0  0  0  0  0  0
  189.3440  172.0460  139.0380 C   0  0  0  0  0  2  0  0  0  0  0  0
  190.3130  171.0450  139.5210 N   0  0  0  0  0  2  0  0  0  0  0  0
  194.9460  174.6480  141.5310 C   0  0  1  0  0  3  0  0  0  0  0  0
  194.4840  175.8730  142.0200 O   0  0  0  0  0  1  0  0  0  0  0  0
  196.6310  175.9080  143.7230 C   0  0  0  0  0  2  0  0  0  0  0  0
  196.2840  174.2210  142.1600 C   0  0  2  0  0  3  0  0  0  0  0  0
  197.8550  176.0980  141.5820 C   0  0  0  0  0  2  0  0  0  0  0  0
  196.4240  174.5240  143.5410 O   0  0  0  0  0  0  0  0  0  0  0  0
  197.5060  174.6340  141.3340 C   0  0  0  0  0  2  0  0  0  0  0  0
  197.9350  176.3620  143.0770 C   0  0  0  0  0  2  0  0  0  0  0  0
  192.9830  174.4970  139.5360 N   0  0  0  0  0  2  0  0  0  0  0  0
  193.5850  174.1080  138.2730 C   0  0  0  0  0  2  0  0  0  0  0  0
  194.9190  174.7950  138.0850 C   0  0  0  0  0  2  0  0  0  0  0  0
  194.9430  175.4740  136.8680 O   0  0  0  0  0  0  0  0  0  0  0  0
  196.2640  175.3780  136.4320 C   0  0  1  0  0  3  0  0  0  0  0  0
  197.1950  175.3560  137.6330 C   0  0  0  0  0  1  0  0  0  0  0  0
  196.4310  174.1200  135.6460 C   0  0  0  0  0  3  0  0  0  0  0  0
  197.2410  173.2110  136.0350 N   0  0  0  0  0  0  0  0  0  0  0  0
  197.3910  172.0080  135.2610 C   0  0  0  0  0  2  0  0  0  0  0  0
  194.3550  170.0490  136.5280 C   0  0  2  0  0  3  0  0  0  0  0  0
  195.1360  171.0580  135.6790 C   0  0  0  0  0  2  0  0  0  0  0  0
  195.2040  169.2400  137.3160 O   0  0  0  0  0  0  0  0  0  0  0  0
  196.6350  170.8690  135.9180 C   0  0  2  0  0  3  0  0  0  0  0  0
  196.9880  170.7920  137.2950 O   0  0  0  0  0  0  0  0  0  0  0  0
  195.9910  170.1340  138.0710 C   0  0  2  0  0  3  0  0  0  0  0  0
  192.8560  168.1820  136.5010 C   0  0  0  0  0  1  0  0  0  0  0  0
  193.4510  169.2460  135.6880 N   0  0  0  0  0  0  0  0  0  0  0  0
  192.0850  171.2420  136.1310 C   0  0  0  0  0  1  0  0  0  0  0  0
  192.3720  170.1010  135.1680 C   0  0  2  0  0  3  0  0  0  0  0  0
  191.1950  169.3680  135.0010 O   0  0  0  0  0  1  0  0  0  0  0  0
  196.5900  169.4590  139.2200 N   0  0  0  0  0  2  0  0  0  0  0  0
  197.1630  170.4460  140.1240 C   0  0  0  0  0  2  0  0  0  0  0  0
  196.3790  170.4500  141.4160 C   0  0  0  0  0  2  0  0  0  0  0  0
  195.8190  169.0650  141.6820 C   0  0  0  0  0  1  0  0  0  0  0  0
  193.8680  172.6470  142.7510 C   0  0  0  0  0  2  0  0  0  0  0  0
  192.0150  172.0990  144.2990 C   0  0  0  0  0  3  0  0  0  0  0  0
  192.8830  173.0120  143.8460 C   0  0  0  0  0  0  0  0  0  0  0  0
  190.8440  175.3570  147.2260 C   0  0  0  0  0  1  0  0  0  0  0  0
  192.9700  174.3290  144.5110 C   0  0  0  0  0  3  0  0  0  0  0  0
  191.9650  174.8860  145.1390 C   0  0  0  0  0  0  0  0  0  0  0  0
  190.9400  175.4330  145.7340 C   0  0  0  0  0  0  0  0  0  0  0  0
  191.4390  177.2570  143.5130 C   0  0  0  0  0  2  0  0  0  0  0  0
  190.1890  176.9300  143.8390 C   0  0  0  0  0  0  0  0  0  0  0  0
  189.2580  178.5430  142.3600 O   0  0  0  0  0  0  0  0  0  0  0  0
  189.9030  176.0620  144.9610 N   0  0  0  0  0  0  0  0  0  0  0  0
  188.5360  176.0370  145.4930 C   0  0  0  0  0  2  0  0  0  0  0  0
  187.5200  176.0130  144.3580 C   0  0  0  0  0  2  0  0  0  0  0  0
  187.7160  177.1510  143.4660 N   0  0  0  0  0  0  0  0  0  0  0  0
  189.0570  177.5780  143.1480 C   0  0  0  0  0  0  0  0  0  0  0  0
  186.5110  177.8090  142.9540 C   0  0  2  0  0  3  0  0  0  0  0  0
  185.4660  178.0490  144.0520 C   0  0  2  0  0  3  0  0  0  0  0  0
  184.0970  178.3740  143.4780 C   0  0  0  0  0  1  0  0  0  0  0  0
  186.0340  178.7130  146.2850 O   0  0  0  0  0  1  0  0  0  0  0  0
  185.8970  179.1760  144.9760 C   0  0  0  0  0  2  0  0  0  0  0  0
  185.9740  177.1300  141.8500 O   0  0  0  0  0  0  0  0  0  0  0  0
  186.0530  178.0290  140.7780 C   0  0  0  0  0  2  0  0  0  0  0  0
  186.9940  177.5050  139.7010 C   0  0  0  0  0  2  0  0  0  0  0  0
  186.3040  176.6660  138.8310 O   0  0  0  0  0  1  0  0  0  0  0  0
  191.8840  170.7230  143.7300 C   0  0  0  0  0  2  0  0  0  0  0  0
  192.6250  168.4520  144.4060 C   0  0  0  0  0  1  0  0  0  0  0  0
  193.0690  169.8720  144.1540 C   0  0  0  0  0  2  0  0  0  0  0  0
  1 42  1  0  0  0  0
  2  1  2  0  0  0  0
  3  2  1  6  0  0  0
  3  7  1  0  0  0  0
  4  7  1  0  0  0  0
  6  5  1  1  0  0  0
  6  3  1  0  0  0  0
  8  4  1  0  0  0  0
  8  9  1  0  0  0  0
  9  6  1  0  0  0  0
 10  1  1  0  0  0  0
 10 11  1  1  0  0  0
 13 10  1  6  0  0  0
 13 15  1  0  0  0  0
 14 17  1  0  0  0  0
 15 12  1  0  0  0  0
 16 14  1  0  0  0  0
 16 13  1  0  0  0  0
 17 12  1  0  0  0  0
 18  2  1  0  0  0  0
 19 18  1  0  0  0  0
 20 19  1  0  0  0  0
 21 20  1  0  0  0  0
 22 21  1  0  0  0  0
 22 23  1  1  0  0  0
 24 25  2  0  0  0  0
 24 22  1  0  0  0  0
 26 25  1  0  0  0  0
 27 34  1  6  0  0  0
 27 29  1  0  0  0  0
 28 30  1  0  0  0  0
 28 27  1  0  0  0  0
 29 32  1  0  0  0  0
 30 26  1  1  0  0  0
 30 31  1  0  0  0  0
 31 32  1  0  0  0  0
 32 38  1  1  0  0  0
 34 33  1  0  0  0  0
 36 34  1  0  0  0  0
 36 35  1  1  0  0  0
 37 36  1  0  0  0  0
 38 39  1  0  0  0  0
 39 40  1  0  0  0  0
 40 41  1  0  0  0  0
 42 44  1  0  0  0  0
 44 43  2  0  0  0  0
 44 46  1  0  0  0  0
 46 47  2  0  0  0  0
 47 48  2  0  0  0  0
 48 45  1  0  0  0  0
 49 50  2  0  0  0  0
 50 52  1  0  0  0  0
 51 56  2  0  0  0  0
 52 53  1  0  0  0  0
 52 48  1  0  0  0  0
 54 53  1  0  0  0  0
 55 54  1  0  0  0  0
 56 55  1  0  0  0  0
 56 50  1  0  0  0  0
 57 62  1  6  0  0  0
 57 55  1  0  0  0  0
 57 58  1  0  0  0  0
 58 59  1  6  0  0  0
 58 61  1  0  0  0  0
 61 60  1  0  0  0  0
 63 62  1  0  0  0  0
 64 63  1  0  0  0  0
 65 64  1  0  0  0  0
 66 68  1  0  0  0  0
 66 43  1  0  0  0  0
 68 67  1  0  0  0  0
M  END
>  <MODEL>
2

>  <REMARK>
 VINA RESULT:      -4.8      2.614      8.889
  Name = 
  28 active torsions:
  status: ('A' for Active; 'I' for Inactive)
    1  A    between atoms: C_1  and  N_53
    2  A    between atoms: C_3  and  C_26
    3  A    between atoms: C_5  and  C_15
    4  A    between atoms: C_5  and  C_18
    5  A    between atoms: O_9  and  C_13
    6  A    between atoms: O_9  and  C_16
    7  A    between atoms: C_11  and  C_66
    8  A    between atoms: C_13  and  C_64
    9  A    between atoms: O_14  and  C_65
   10  A    between atoms: O_14  and  C_66
   11  A    between atoms: C_15  and  C_17
   12  A    between atoms: C_16  and  C_41
   13  A    between atoms: C_17  and  C_33
   14  A    between atoms: C_22  and  C_38
   15  A    between atoms: C_23  and  C_28
   16  A    between atoms: C_23  and  N_39
   17  A    between atoms: C_24  and  C_38
   18  A    between atoms: C_26  and  N_43
   19  A    between atoms: C_29  and  N_53
   20  A    between atoms: C_32  and  C_36
   21  A    between atoms: C_33  and  C_45
   22  A    between atoms: C_34  and  N_42
   23  A    between atoms: C_34  and  C_61
   24  A    between atoms: C_36  and  C_65
   25  A    between atoms: N_37  and  C_59
   26  A    between atoms: N_39  and  C_67
   27  A    between atoms: N_43  and  C_64
   28  A    between atoms: N_58  and  C_65
                            x       y       z     vdW  Elec       q    Type
                         _______ _______ _______ _____ _____    ______ ____

>  <TORSDO>
F 28

$$$$
=
 OpenBabel11042418573D

 68 71  0  0  1  0  0  0  0  0999 V2000
  195.1950  173.5650  138.6840 C   0  0  0  0  0  0  0  0  0  0  0  0
  195.6840  172.3210  138.9080 C   0  0  0  0  0  0  0  0  0  0  0  0
  195.7380  171.2240  137.8660 C   0  0  2  0  0  3  0  0  0  0  0  0
  197.9130  170.2660  137.2130 N   0  0  0  0  0  2  0  0  0  0  0  0
  194.1650  169.6350  138.8430 N   0  0  0  0  0  1  0  0  0  0  0  0
  195.5620  169.8240  138.4660 C   0  0  1  0  0  3  0  0  0  0  0  0
  196.9000  171.2740  136.8590 C   0  0  0  0  0  2  0  0  0  0  0  0
  197.3610  168.8970  137.1600 C   0  0  0  0  0  2  0  0  0  0  0  0
  195.9190  168.8250  137.4640 N   0  0  0  0  0  2  0  0  0  0  0  0
  195.3860  174.6360  139.7220 C   0  0  1  0  0  3  0  0  0  0  0  0
  194.4560  175.6650  139.5580 O   0  0  0  0  0  1  0  0  0  0  0  0
  194.2990  175.7770  142.3210 C   0  0  0  0  0  2  0  0  0  0  0  0
  195.4530  174.1170  141.1700 C   0  0  2  0  0  3  0  0  0  0  0  0
  196.7690  175.8810  142.3870 C   0  0  0  0  0  2  0  0  0  0  0  0
  194.3160  174.4100  141.9680 O   0  0  0  0  0  0  0  0  0  0  0  0
  196.7740  174.4450  141.8740 C   0  0  0  0  0  2  0  0  0  0  0  0
  195.5010  176.1400  143.1850 C   0  0  0  0  0  2  0  0  0  0  0  0
  196.3260  172.0300  140.1510 N   0  0  0  0  0  2  0  0  0  0  0  0
  197.4360  171.0940  140.2050 C   0  0  0  0  0  2  0  0  0  0  0  0
  197.5250  170.4530  141.5710 C   0  0  0  0  0  2  0  0  0  0  0  0
  196.2610  170.3890  142.1550 O   0  0  0  0  0  0  0  0  0  0  0  0
  196.5050  170.2250  143.5180 C   0  0  1  0  0  3  0  0  0  0  0  0
  197.9390  169.7690  143.7250 C   0  0  0  0  0  1  0  0  0  0  0  0
  196.2870  171.5260  144.2160 C   0  0  0  0  0  3  0  0  0  0  0  0
  195.1230  171.8570  144.6290 N   0  0  0  0  0  0  0  0  0  0  0  0
  194.9330  173.1160  145.2960 C   0  0  0  0  0  2  0  0  0  0  0  0
  191.5610  174.7190  146.1490 C   0  0  2  0  0  3  0  0  0  0  0  0
  193.0550  174.4020  146.2870 C   0  0  0  0  0  2  0  0  0  0  0  0
  191.0110  174.2000  144.9550 O   0  0  0  0  0  0  0  0  0  0  0  0
  193.5250  173.6250  145.0550 C   0  0  2  0  0  3  0  0  0  0  0  0
  192.6760  172.5380  144.7070 O   0  0  0  0  0  0  0  0  0  0  0  0
  191.3030  172.8210  144.9670 C   0  0  2  0  0  3  0  0  0  0  0  0
  191.0550  176.7360  144.9630 C   0  0  0  0  0  1  0  0  0  0  0  0
  191.3180  176.1640  146.2860 N   0  0  0  0  0  0  0  0  0  0  0  0
  189.0450  175.3840  146.8090 C   0  0  0  0  0  1  0  0  0  0  0  0
  190.1400  176.3860  147.1390 C   0  0  2  0  0  3  0  0  0  0  0  0
  189.6240  177.6710  146.9480 O   0  0  0  0  0  1  0  0  0  0  0  0
  190.4400  172.0960  144.0380 N   0  0  0  0  0  2  0  0  0  0  0  0
  191.2550  171.3060  143.1260 C   0  0  0  0  0  2  0  0  0  0  0  0
  190.3780  170.7570  142.0250 C   0  0  0  0  0  2  0  0  0  0  0  0
  190.7560  169.3160  141.7350 C   0  0  0  0  0  1  0  0  0  0  0  0
  194.4930  173.9380  137.4040 C   0  0  0  0  0  2  0  0  0  0  0  0
  192.2820  173.8300  136.2960 C   0  0  0  0  0  3  0  0  0  0  0  0
  193.0240  173.5600  137.3770 C   0  0  0  0  0  0  0  0  0  0  0  0
  189.1600  171.2990  138.3950 C   0  0  0  0  0  1  0  0  0  0  0  0
  192.4430  172.7690  138.4820 C   0  0  0  0  0  3  0  0  0  0  0  0
  191.1550  172.6340  138.6700 C   0  0  0  0  0  0  0  0  0  0  0  0
  189.8660  172.5370  138.8530 C   0  0  0  0  0  0  0  0  0  0  0  0
  188.1580  174.3690  137.3580 C   0  0  0  0  0  2  0  0  0  0  0  0
  188.2650  174.4880  138.6810 C   0  0  0  0  0  0  0  0  0  0  0  0
  187.0720  176.5450  138.7090 O   0  0  0  0  0  0  0  0  0  0  0  0
  189.1350  173.6230  139.4480 N   0  0  0  0  0  0  0  0  0  0  0  0
  189.4930  174.0280  140.8130 C   0  0  0  0  0  2  0  0  0  0  0  0
  188.2720  174.5680  141.5490 C   0  0  0  0  0  2  0  0  0  0  0  0
  187.6730  175.6750  140.8120 N   0  0  0  0  0  0  0  0  0  0  0  0
  187.6060  175.6140  139.3720 C   0  0  0  0  0  0  0  0  0  0  0  0
  187.1830  176.8100  141.5990 C   0  0  2  0  0  3  0  0  0  0  0  0
  187.7460  176.8150  143.0280 C   0  0  2  0  0  3  0  0  0  0  0  0
  186.6530  176.6660  144.0730 C   0  0  0  0  0  1  0  0  0  0  0  0
  189.2390  178.4830  142.1700 O   0  0  0  0  0  1  0  0  0  0  0  0
  188.5230  178.0910  143.3020 C   0  0  0  0  0  2  0  0  0  0  0  0
  185.7830  176.8920  141.5810 O   0  0  0  0  0  0  0  0  0  0  0  0
  185.4860  178.1760  141.1040 C   0  0  0  0  0  2  0  0  0  0  0  0
  184.1780  178.1750  140.3250 C   0  0  0  0  0  2  0  0  0  0  0  0
  183.1080  178.3900  141.1880 O   0  0  0  0  0  1  0  0  0  0  0  0
  192.7890  174.5780  135.1050 C   0  0  0  0  0  2  0  0  0  0  0  0
  190.7730  176.0140  135.2800 C   0  0  0  0  0  1  0  0  0  0  0  0
  192.2740  176.0070  135.1320 C   0  0  0  0  0  2  0  0  0  0  0  0
  1  2  2  0  0  0  0
  1 10  1  0  0  0  0
  2 18  1  0  0  0  0
  3  6  1  0  0  0  0
  3  2  1  1  0  0  0
  6  5  1  6  0  0  0
  7  4  1  0  0  0  0
  7  3  1  0  0  0  0
  8  4  1  0  0  0  0
  8  9  1  0  0  0  0
  9  6  1  0  0  0  0
 10 11  1  1  0  0  0
 12 17  1  0  0  0  0
 13 10  1  6  0  0  0
 13 16  1  0  0  0  0
 13 15  1  0  0  0  0
 14 17  1  0  0  0  0
 15 12  1  0  0  0  0
 16 14  1  0  0  0  0
 18 19  1  0  0  0  0
 19 20  1  0  0  0  0
 20 21  1  0  0  0  0
 21 22  1  0  0  0  0
 22 23  1  6  0  0  0
 22 24  1  0  0  0  0
 24 25  2  0  0  0  0
 25 26  1  0  0  0  0
 27 34  1  6  0  0  0
 27 28  1  0  0  0  0
 29 32  1  0  0  0  0
 29 27  1  0  0  0  0
 30 26  1  1  0  0  0
 30 28  1  0  0  0  0
 31 32  1  0  0  0  0
 31 30  1  0  0  0  0
 32 38  1  6  0  0  0
 33 34  1  0  0  0  0
 34 36  1  0  0  0  0
 36 35  1  6  0  0  0
 37 36  1  0  0  0  0
 39 38  1  0  0  0  0
 40 39  1  0  0  0  0
 41 40  1  0  0  0  0
 42  1  1  0  0  0  0
 43 44  2  0  0  0  0
 44 42  1  0  0  0  0
 44 46  1  0  0  0  0
 45 48  1  0  0  0  0
 46 47  2  0  0  0  0
 47 48  2  0  0  0  0
 48 52  1  0  0  0  0
 49 50  2  0  0  0  0
 50 56  1  0  0  0  0
 50 52  1  0  0  0  0
 51 56  2  0  0  0  0
 52 53  1  0  0  0  0
 53 54  1  0  0  0  0
 55 54  1  0  0  0  0
 55 57  1  0  0  0  0
 56 55  1  0  0  0  0
 57 62  1  1  0  0  0
 57 58  1  0  0  0  0
 58 61  1  0  0  0  0
 58 59  1  1  0  0  0
 60 61  1  0  0  0  0
 63 62  1  0  0  0  0
 64 63  1  0  0  0  0
 64 65  1  0  0  0  0
 66 68  1  0  0  0  0
 66 43  1  0  0  0  0
 68 67  1  0  0  0  0
M  END
>  <MODEL>
3

>  <REMARK>
 VINA RESULT:      -4.3      2.337      7.579
  Name = 
  28 active torsions:
  status: ('A' for Active; 'I' for Inactive)
    1  A    between atoms: C_1  and  N_53
    2  A    between atoms: C_3  and  C_26
    3  A    between atoms: C_5  and  C_15
    4  A    between atoms: C_5  and  C_18
    5  A    between atoms: O_9  and  C_13
    6  A    between atoms: O_9  and  C_16
    7  A    between atoms: C_11  and  C_66
    8  A    between atoms: C_13  and  C_64
    9  A    between atoms: O_14  and  C_65
   10  A    between atoms: O_14  and  C_66
   11  A    between atoms: C_15  and  C_17
   12  A    between atoms: C_16  and  C_41
   13  A    between atoms: C_17  and  C_33
   14  A    between atoms: C_22  and  C_38
   15  A    between atoms: C_23  and  C_28
   16  A    between atoms: C_23  and  N_39
   17  A    between atoms: C_24  and  C_38
   18  A    between atoms: C_26  and  N_43
   19  A    between atoms: C_29  and  N_53
   20  A    between atoms: C_32  and  C_36
   21  A    between atoms: C_33  and  C_45
   22  A    between atoms: C_34  and  N_42
   23  A    between atoms: C_34  and  C_61
   24  A    between atoms: C_36  and  C_65
   25  A    between atoms: N_37  and  C_59
   26  A    between atoms: N_39  and  C_67
   27  A    between atoms: N_43  and  C_64
   28  A    between atoms: N_58  and  C_65
                            x       y       z     vdW  Elec       q    Type
                         _______ _______ _______ _____ _____    ______ ____

>  <TORSDO>
F 28

$$$$
=
 OpenBabel11042418573D

 68 71  0  0  1  0  0  0  0  0999 V2000
  195.0710  173.2380  138.9450 C   0  0  0  0  0  0  0  0  0  0  0  0
  195.6890  172.0500  138.7420 C   0  0  0  0  0  0  0  0  0  0  0  0
  195.8740  171.4050  137.3840 C   0  0  2  0  0  3  0  0  0  0  0  0
  193.9570  171.2330  135.8430 N   0  0  0  0  0  2  0  0  0  0  0  0
  197.7530  172.7150  136.5450 N   0  0  0  0  0  1  0  0  0  0  0  0
  196.3490  172.3960  136.3140 C   0  0  1  0  0  3  0  0  0  0  0  0
  194.7280  170.5150  136.8720 C   0  0  0  0  0  2  0  0  0  0  0  0
  194.7930  171.5680  134.6720 C   0  0  0  0  0  2  0  0  0  0  0  0
  196.2160  171.7790  134.9980 N   0  0  0  0  0  2  0  0  0  0  0  0
  195.1320  173.8840  140.3010 C   0  0  1  0  0  3  0  0  0  0  0  0
  194.5440  173.0680  141.2710 O   0  0  0  0  0  1  0  0  0  0  0  0
  196.2110  174.8990  142.9550 C   0  0  0  0  0  2  0  0  0  0  0  0
  196.5300  174.3820  140.7100 C   0  0  2  0  0  3  0  0  0  0  0  0
  196.1550  176.7840  141.3540 C   0  0  0  0  0  2  0  0  0  0  0  0
  196.9110  174.0800  142.0440 O   0  0  0  0  0  0  0  0  0  0  0  0
  196.7890  175.8450  140.3340 C   0  0  0  0  0  2  0  0  0  0  0  0
  196.5610  176.3700  142.7590 C   0  0  0  0  0  2  0  0  0  0  0  0
  196.3440  171.3990  139.8330 N   0  0  0  0  0  2  0  0  0  0  0  0
  197.3890  170.4220  139.5870 C   0  0  0  0  0  2  0  0  0  0  0  0
  197.4450  169.4090  140.7080 C   0  0  0  0  0  2  0  0  0  0  0  0
  196.1760  169.2320  141.2580 O   0  0  0  0  0  0  0  0  0  0  0  0
  196.4100  168.8950  142.5920 C   0  0  1  0  0  3  0  0  0  0  0  0
  197.8120  168.3270  142.7340 C   0  0  0  0  0  1  0  0  0  0  0  0
  196.2750  170.1180  143.4370 C   0  0  0  0  0  3  0  0  0  0  0  0
  195.1650  170.3980  144.0050 N   0  0  0  0  0  0  0  0  0  0  0  0
  195.0540  171.5830  144.8130 C   0  0  0  0  0  2  0  0  0  0  0  0
  191.9910  173.8260  145.3100 C   0  0  2  0  0  3  0  0  0  0  0  0
  193.3640  173.2140  145.6140 C   0  0  0  0  0  2  0  0  0  0  0  0
  191.4970  173.4340  144.0460 O   0  0  0  0  0  0  0  0  0  0  0  0
  193.8150  172.3650  144.4240 C   0  0  2  0  0  3  0  0  0  0  0  0
  192.8150  171.4720  143.9470 O   0  0  0  0  0  0  0  0  0  0  0  0
  191.5050  172.0240  144.0530 C   0  0  2  0  0  3  0  0  0  0  0  0
  191.8890  175.6320  146.8780 C   0  0  0  0  0  1  0  0  0  0  0  0
  192.0250  175.2900  145.4600 N   0  0  0  0  0  0  0  0  0  0  0  0
  193.9820  176.6640  146.0320 C   0  0  0  0  0  1  0  0  0  0  0  0
  193.3150  175.8040  144.9720 C   0  0  2  0  0  3  0  0  0  0  0  0
  193.1340  176.5870  143.8280 O   0  0  0  0  0  1  0  0  0  0  0  0
  190.6330  171.4910  143.0080 N   0  0  0  0  0  2  0  0  0  0  0  0
  191.4380  170.8540  141.9760 C   0  0  0  0  0  2  0  0  0  0  0  0
  191.0070  169.4130  141.8300 C   0  0  0  0  0  2  0  0  0  0  0  0
  190.9840  169.0280  140.3620 C   0  0  0  0  0  1  0  0  0  0  0  0
  194.3490  173.9720  137.8450 C   0  0  0  0  0  2  0  0  0  0  0  0
  192.1200  174.1410  136.7820 C   0  0  0  0  0  3  0  0  0  0  0  0
  192.8520  173.7250  137.8220 C   0  0  0  0  0  0  0  0  0  0  0  0
  188.8760  171.5940  138.6780 C   0  0  0  0  0  1  0  0  0  0  0  0
  192.2210  172.9060  138.8780 C   0  0  0  0  0  3  0  0  0  0  0  0
  190.9260  172.8200  139.0450 C   0  0  0  0  0  0  0  0  0  0  0  0
  189.6310  172.7730  139.2090 C   0  0  0  0  0  0  0  0  0  0  0  0
  187.9620  174.7090  137.8040 C   0  0  0  0  0  2  0  0  0  0  0  0
  188.0900  174.7770  139.1290 C   0  0  0  0  0  0  0  0  0  0  0  0
  186.9620  176.8670  139.2470 O   0  0  0  0  0  0  0  0  0  0  0  0
  188.9430  173.8590  139.8530 N   0  0  0  0  0  0  0  0  0  0  0  0
  189.3310  174.2040  141.2250 C   0  0  0  0  0  2  0  0  0  0  0  0
  188.1380  174.7540  141.9980 C   0  0  0  0  0  2  0  0  0  0  0  0
  187.5650  175.9050  141.3090 N   0  0  0  0  0  0  0  0  0  0  0  0
  187.4760  175.8970  139.8690 C   0  0  0  0  0  0  0  0  0  0  0  0
  187.1210  177.0250  142.1430 C   0  0  2  0  0  3  0  0  0  0  0  0
  187.7100  176.9670  143.5600 C   0  0  2  0  0  3  0  0  0  0  0  0
  187.3540  178.1960  144.3780 C   0  0  0  0  0  1  0  0  0  0  0  0
  189.8280  177.7290  144.3850 O   0  0  0  0  0  1  0  0  0  0  0  0
  189.2220  176.8230  143.5140 C   0  0  0  0  0  2  0  0  0  0  0  0
  185.7230  177.1460  142.1550 O   0  0  0  0  0  0  0  0  0  0  0  0
  185.3800  177.4320  143.4830 C   0  0  0  0  0  2  0  0  0  0  0  0
  184.1080  178.2670  143.5450 C   0  0  0  0  0  2  0  0  0  0  0  0
  183.9970  178.8760  144.7920 O   0  0  0  0  0  1  0  0  0  0  0  0
  192.6720  174.9310  135.6390 C   0  0  0  0  0  2  0  0  0  0  0  0
  192.2320  177.2830  134.9810 C   0  0  0  0  0  1  0  0  0  0  0  0
  192.8230  176.3880  136.0410 C   0  0  0  0  0  2  0  0  0  0  0  0
  1 10  1  0  0  0  0
  2  1  2  0  0  0  0
  2 18  1  0  0  0  0
  3  2  1  1  0  0  0
  4  7  1  0  0  0  0
  6  5  1  1  0  0  0
  6  3  1  0  0  0  0
  7  3  1  0  0  0  0
  8  9  1  0  0  0  0
  8  4  1  0  0  0  0
  9  6  1  0  0  0  0
 10 11  1  1  0  0  0
 13 10  1  1  0  0  0
 13 15  1  0  0  0  0
 14 17  1  0  0  0  0
 15 12  1  0  0  0  0
 16 13  1  0  0  0  0
 16 14  1  0  0  0  0
 17 12  1  0  0  0  0
 19 18  1  0  0  0  0
 19 20  1  0  0  0  0
 20 21  1  0  0  0  0
 21 22  1  0  0  0  0
 22 23  1  6  0  0  0
 22 24  1  0  0  0  0
 24 25  2  0  0  0  0
 25 26  1  0  0  0  0
 27 34  1  6  0  0  0
 27 28  1  0  0  0  0
 29 32  1  0  0  0  0
 29 27  1  0  0  0  0
 30 26  1  1  0  0  0
 30 28  1  0  0  0  0
 31 32  1  0  0  0  0
 31 30  1  0  0  0  0
 32 38  1  6  0  0  0
 34 33  1  0  0  0  0
 36 34  1  0  0  0  0
 36 35  1  1  0  0  0
 37 36  1  0  0  0  0
 39 38  1  0  0  0  0
 40 39  1  0  0  0  0
 41 40  1  0  0  0  0
 42  1  1  0  0  0  0
 43 44  2  0  0  0  0
 44 42  1  0  0  0  0
 44 46  1  0  0  0  0
 45 48  1  0  0  0  0
 46 47  2  0  0  0  0
 47 48  2  0  0  0  0
 48 52  1  0  0  0  0
 49 50  2  0  0  0  0
 50 52  1  0  0  0  0
 50 56  1  0  0  0  0
 51 56  2  0  0  0  0
 52 53  1  0  0  0  0
 53 54  1  0  0  0  0
 55 54  1  0  0  0  0
 55 57  1  0  0  0  0
 56 55  1  0  0  0  0
 57 62  1  1  0  0  0
 57 58  1  0  0  0  0
 58 59  1  1  0  0  0
 61 58  1  0  0  0  0
 61 60  1  0  0  0  0
 62 63  1  0  0  0  0
 63 64  1  0  0  0  0
 64 65  1  0  0  0  0
 66 68  1  0  0  0  0
 66 43  1  0  0  0  0
 67 68  1  0  0  0  0
M  END
>  <MODEL>
4

>  <REMARK>
 VINA RESULT:      -4.2      2.236      7.743
  Name = 
  28 active torsions:
  status: ('A' for Active; 'I' for Inactive)
    1  A    between atoms: C_1  and  N_53
    2  A    between atoms: C_3  and  C_26
    3  A    between atoms: C_5  and  C_15
    4  A    between atoms: C_5  and  C_18
    5  A    between atoms: O_9  and  C_13
    6  A    between atoms: O_9  and  C_16
    7  A    between atoms: C_11  and  C_66
    8  A    between atoms: C_13  and  C_64
    9  A    between atoms: O_14  and  C_65
   10  A    between atoms: O_14  and  C_66
   11  A    between atoms: C_15  and  C_17
   12  A    between atoms: C_16  and  C_41
   13  A    between atoms: C_17  and  C_33
   14  A    between atoms: C_22  and  C_38
   15  A    between atoms: C_23  and  C_28
   16  A    between atoms: C_23  and  N_39
   17  A    between atoms: C_24  and  C_38
   18  A    between atoms: C_26  and  N_43
   19  A    between atoms: C_29  and  N_53
   20  A    between atoms: C_32  and  C_36
   21  A    between atoms: C_33  and  C_45
   22  A    between atoms: C_34  and  N_42
   23  A    between atoms: C_34  and  C_61
   24  A    between atoms: C_36  and  C_65
   25  A    between atoms: N_37  and  C_59
   26  A    between atoms: N_39  and  C_67
   27  A    between atoms: N_43  and  C_64
   28  A    between atoms: N_58  and  C_65
                            x       y       z     vdW  Elec       q    Type
                         _______ _______ _______ _____ _____    ______ ____

>  <TORSDO>
F 28

$$$$
=
 OpenBabel11042418573D

 68 71  0  0  1  0  0  0  0  0999 V2000
  194.8180  173.2930  139.0750 C   0  0  0  0  0  0  0  0  0  0  0  0
  195.2310  172.0190  138.8670 C   0  0  0  0  0  0  0  0  0  0  0  0
  195.2900  171.3530  137.5080 C   0  0  2  0  0  3  0  0  0  0  0  0
  193.2870  171.3280  136.0710 N   0  0  0  0  0  2  0  0  0  0  0  0
  197.2230  172.5010  136.5580 N   0  0  0  0  0  1  0  0  0  0  0  0
  195.7870  172.2960  136.4050 C   0  0  1  0  0  3  0  0  0  0  0  0
  194.0510  170.5560  137.0660 C   0  0  0  0  0  2  0  0  0  0  0  0
  194.0840  171.5870  134.8550 C   0  0  0  0  0  2  0  0  0  0  0  0
  195.5340  171.6840  135.1040 N   0  0  0  0  0  2  0  0  0  0  0  0
  195.0010  173.9190  140.4300 C   0  0  1  0  0  3  0  0  0  0  0  0
  194.5350  173.0740  141.4400 O   0  0  0  0  0  1  0  0  0  0  0  0
  196.6890  173.9410  142.9570 C   0  0  0  0  0  2  0  0  0  0  0  0
  196.4210  174.4490  140.7030 C   0  0  2  0  0  3  0  0  0  0  0  0
  196.0740  176.2710  142.4010 C   0  0  0  0  0  2  0  0  0  0  0  0
  197.1690  173.7020  141.6520 O   0  0  0  0  0  0  0  0  0  0  0  0
  196.4690  175.9580  140.9620 C   0  0  0  0  0  2  0  0  0  0  0  0
  196.8740  175.4000  143.3570 C   0  0  0  0  0  2  0  0  0  0  0  0
  195.7840  171.2710  139.9510 N   0  0  0  0  0  2  0  0  0  0  0  0
  197.1490  170.7790  139.8860 C   0  0  0  0  0  2  0  0  0  0  0  0
  197.4010  169.7620  140.9760 C   0  0  0  0  0  2  0  0  0  0  0  0
  196.1910  169.3100  141.4990 O   0  0  0  0  0  0  0  0  0  0  0  0
  196.5280  168.7250  142.7200 C   0  0  1  0  0  3  0  0  0  0  0  0
  197.9390  168.1670  142.6440 C   0  0  0  0  0  1  0  0  0  0  0  0
  196.4530  169.7570  143.7960 C   0  0  0  0  0  3  0  0  0  0  0  0
  195.3310  170.2680  144.1320 N   0  0  0  0  0  0  0  0  0  0  0  0
  195.2800  171.2640  145.1680 C   0  0  0  0  0  2  0  0  0  0  0  0
  191.8250  172.2370  143.8340 C   0  0  2  0  0  3  0  0  0  0  0  0
  193.0690  171.3650  144.0450 C   0  0  0  0  0  2  0  0  0  0  0  0
  191.8300  173.3860  144.6560 O   0  0  0  0  0  0  0  0  0  0  0  0
  193.9520  171.9950  145.1240 C   0  0  2  0  0  3  0  0  0  0  0  0
  194.1790  173.3870  144.9360 O   0  0  0  0  0  0  0  0  0  0  0  0
  193.0450  174.0480  144.3810 C   0  0  2  0  0  3  0  0  0  0  0  0
  189.5260  172.3140  144.4980 C   0  0  0  0  0  1  0  0  0  0  0  0
  190.5960  171.4440  144.0010 N   0  0  0  0  0  0  0  0  0  0  0  0
  191.3580  170.8870  141.7310 C   0  0  0  0  0  1  0  0  0  0  0  0
  190.1880  170.8900  142.7000 C   0  0  2  0  0  3  0  0  0  0  0  0
  189.1600  171.6500  142.1380 O   0  0  0  0  0  1  0  0  0  0  0  0
  192.9910  175.4410  144.8180 N   0  0  0  0  0  2  0  0  0  0  0  0
  192.2040  175.5410  146.0390 C   0  0  0  0  0  2  0  0  0  0  0  0
  192.7270  176.6880  146.8740 C   0  0  0  0  0  2  0  0  0  0  0  0
  194.2440  176.6580  146.8960 C   0  0  0  0  0  1  0  0  0  0  0  0
  194.2120  174.1350  137.9830 C   0  0  0  0  0  2  0  0  0  0  0  0
  192.0900  174.4560  136.7500 C   0  0  0  0  0  3  0  0  0  0  0  0
  192.7190  173.9320  137.8080 C   0  0  0  0  0  0  0  0  0  0  0  0
  188.5550  172.0480  138.2500 C   0  0  0  0  0  1  0  0  0  0  0  0
  191.9810  173.0410  138.7280 C   0  0  0  0  0  3  0  0  0  0  0  0
  190.6760  173.0430  138.8400 C   0  0  0  0  0  0  0  0  0  0  0  0
  189.3770  173.0830  138.9530 C   0  0  0  0  0  0  0  0  0  0  0  0
  187.7700  175.2110  137.7700 C   0  0  0  0  0  2  0  0  0  0  0  0
  187.9240  175.1490  139.0920 C   0  0  0  0  0  0  0  0  0  0  0  0
  186.8920  177.2650  139.4280 O   0  0  0  0  0  0  0  0  0  0  0  0
  188.7480  174.1330  139.7100 N   0  0  0  0  0  0  0  0  0  0  0  0
  189.1750  174.3310  141.0990 C   0  0  0  0  0  2  0  0  0  0  0  0
  188.0210  174.8560  141.9450 C   0  0  0  0  0  2  0  0  0  0  0  0
  187.4870  176.0900  141.3780 N   0  0  0  0  0  0  0  0  0  0  0  0
  187.3740  176.2200  139.9460 C   0  0  0  0  0  0  0  0  0  0  0  0
  187.1080  177.1450  142.3220 C   0  0  2  0  0  3  0  0  0  0  0  0
  188.1060  177.2780  143.4810 C   0  0  2  0  0  3  0  0  0  0  0  0
  187.4970  177.9820  144.6820 C   0  0  0  0  0  1  0  0  0  0  0  0
  190.3960  177.1440  142.7840 O   0  0  0  0  0  1  0  0  0  0  0  0
  189.3510  178.0310  143.0420 C   0  0  0  0  0  2  0  0  0  0  0  0
  185.7880  176.9920  142.7730 O   0  0  0  0  0  0  0  0  0  0  0  0
  185.1390  178.1940  142.4580 C   0  0  0  0  0  2  0  0  0  0  0  0
  184.1950  178.6090  143.5780 C   0  0  0  0  0  2  0  0  0  0  0  0
  184.5070  179.8930  144.0140 O   0  0  0  0  0  1  0  0  0  0  0  0
  192.7570  175.3270  135.7340 C   0  0  0  0  0  2  0  0  0  0  0  0
  193.3660  177.6800  135.2310 C   0  0  0  0  0  1  0  0  0  0  0  0
  193.0290  176.6990  136.3270 C   0  0  0  0  0  2  0  0  0  0  0  0
  1 10  1  0  0  0  0
  2  1  2  0  0  0  0
  2 18  1  0  0  0  0
  3  2  1  1  0  0  0
  4  7  1  0  0  0  0
  6  5  1  1  0  0  0
  6  3  1  0  0  0  0
  7  3  1  0  0  0  0
  8  9  1  0  0  0  0
  8  4  1  0  0  0  0
  9  6  1  0  0  0  0
 10 11  1  1  0  0  0
 12 17  1  0  0  0  0
 13 10  1  1  0  0  0
 13 16  1  0  0  0  0
 13 15  1  0  0  0  0
 14 17  1  0  0  0  0
 15 12  1  0  0  0  0
 16 14  1  0  0  0  0
 19 18  1  0  0  0  0
 19 20  1  0  0  0  0
 20 21  1  0  0  0  0
 21 22  1  0  0  0  0
 22 23  1  6  0  0  0
 22 24  1  0  0  0  0
 24 25  2  0  0  0  0
 25 26  1  0  0  0  0
 27 34  1  1  0  0  0
 27 28  1  0  0  0  0
 27 29  1  0  0  0  0
 28 30  1  0  0  0  0
 30 26  1  6  0  0  0
 31 30  1  0  0  0  0
 32 29  1  0  0  0  0
 32 38  1  1  0  0  0
 32 31  1  0  0  0  0
 34 33  1  0  0  0  0
 36 35  1  6  0  0  0
 36 34  1  0  0  0  0
 37 36  1  0  0  0  0
 38 39  1  0  0  0  0
 39 40  1  0  0  0  0
 40 41  1  0  0  0  0
 42  1  1  0  0  0  0
 43 44  2  0  0  0  0
 44 42  1  0  0  0  0
 44 46  1  0  0  0  0
 45 48  1  0  0  0  0
 46 47  2  0  0  0  0
 47 48  2  0  0  0  0
 48 52  1  0  0  0  0
 49 50  2  0  0  0  0
 50 52  1  0  0  0  0
 50 56  1  0  0  0  0
 51 56  2  0  0  0  0
 52 53  1  0  0  0  0
 53 54  1  0  0  0  0
 55 54  1  0  0  0  0
 55 57  1  0  0  0  0
 56 55  1  0  0  0  0
 57 62  1  1  0  0  0
 57 58  1  0  0  0  0
 58 59  1  1  0  0  0
 60 61  1  0  0  0  0
 61 58  1  0  0  0  0
 63 62  1  0  0  0  0
 63 64  1  0  0  0  0
 64 65  1  0  0  0  0
 66 68  1  0  0  0  0
 66 43  1  0  0  0  0
 67 68  1  0  0  0  0
M  END
>  <MODEL>
5

>  <REMARK>
 VINA RESULT:      -4.1      2.271      7.476
  Name = 
  28 active torsions:
  status: ('A' for Active; 'I' for Inactive)
    1  A    between atoms: C_1  and  N_53
    2  A    between atoms: C_3  and  C_26
    3  A    between atoms: C_5  and  C_15
    4  A    between atoms: C_5  and  C_18
    5  A    between atoms: O_9  and  C_13
    6  A    between atoms: O_9  and  C_16
    7  A    between atoms: C_11  and  C_66
    8  A    between atoms: C_13  and  C_64
    9  A    between atoms: O_14  and  C_65
   10  A    between atoms: O_14  and  C_66
   11  A    between atoms: C_15  and  C_17
   12  A    between atoms: C_16  and  C_41
   13  A    between atoms: C_17  and  C_33
   14  A    between atoms: C_22  and  C_38
   15  A    between atoms: C_23  and  C_28
   16  A    between atoms: C_23  and  N_39
   17  A    between atoms: C_24  and  C_38
   18  A    between atoms: C_26  and  N_43
   19  A    between atoms: C_29  and  N_53
   20  A    between atoms: C_32  and  C_36
   21  A    between atoms: C_33  and  C_45
   22  A    between atoms: C_34  and  N_42
   23  A    between atoms: C_34  and  C_61
   24  A    between atoms: C_36  and  C_65
   25  A    between atoms: N_37  and  C_59
   26  A    between atoms: N_39  and  C_67
   27  A    between atoms: N_43  and  C_64
   28  A    between atoms: N_58  and  C_65
                            x       y       z     vdW  Elec       q    Type
                         _______ _______ _______ _____ _____    ______ ____

>  <TORSDO>
F 28

$$$$
=
 OpenBabel11042418573D

 68 71  0  0  1  0  0  0  0  0999 V2000
  194.1570  173.1780  143.6210 C   0  0  0  0  0  0  0  0  0  0  0  0
  193.1670  172.4780  143.0140 C   0  0  0  0  0  0  0  0  0  0  0  0
  193.2420  171.0010  142.6900 C   0  0  2  0  0  3  0  0  0  0  0  0
  192.9620  169.3400  144.4900 N   0  0  0  0  0  2  0  0  0  0  0  0
  191.5810  170.8750  140.9070 N   0  0  0  0  0  1  0  0  0  0  0  0
  191.8900  170.4180  142.2570 C   0  0  1  0  0  3  0  0  0  0  0  0
  193.9550  170.0970  143.7100 C   0  0  0  0  0  2  0  0  0  0  0  0
  192.1530  168.4550  143.6280 C   0  0  0  0  0  2  0  0  0  0  0  0
  191.9770  168.9610  142.2540 N   0  0  0  0  0  2  0  0  0  0  0  0
  193.8940  174.5830  144.0860 C   0  0  1  0  0  3  0  0  0  0  0  0
  193.6800  175.4380  143.0020 O   0  0  0  0  0  1  0  0  0  0  0  0
  191.8610  176.7700  144.6550 C   0  0  0  0  0  2  0  0  0  0  0  0
  192.8040  174.7060  145.1660 C   0  0  2  0  0  3  0  0  0  0  0  0
  193.5000  176.7170  146.5070 C   0  0  0  0  0  2  0  0  0  0  0  0
  191.6240  175.3820  144.7570 O   0  0  0  0  0  0  0  0  0  0  0  0
  193.3360  175.2010  146.5150 C   0  0  0  0  0  2  0  0  0  0  0  0
  192.2220  177.3710  146.0080 C   0  0  0  0  0  2  0  0  0  0  0  0
  191.9060  173.1050  142.7750 N   0  0  0  0  0  2  0  0  0  0  0  0
  191.2950  173.0510  141.4570 C   0  0  0  0  0  2  0  0  0  0  0  0
  190.5880  174.3500  141.1450 C   0  0  0  0  0  2  0  0  0  0  0  0
  189.6390  174.6280  142.1280 O   0  0  0  0  0  0  0  0  0  0  0  0
  188.4130  174.5780  141.4640 C   0  0  1  0  0  3  0  0  0  0  0  0
  187.4200  173.7800  142.2910 C   0  0  0  0  0  1  0  0  0  0  0  0
  187.9040  175.9670  141.2700 C   0  0  0  0  0  3  0  0  0  0  0  0
  188.5520  176.9690  141.7280 N   0  0  0  0  0  0  0  0  0  0  0  0
  188.0440  178.3000  141.5330 C   0  0  0  0  0  2  0  0  0  0  0  0
  185.8470  177.8400  144.6360 C   0  0  2  0  0  3  0  0  0  0  0  0
  187.1120  177.7690  143.7720 C   0  0  0  0  0  2  0  0  0  0  0  0
  184.8160  178.5820  144.0180 O   0  0  0  0  0  0  0  0  0  0  0  0
  186.8890  178.5600  142.4810 C   0  0  2  0  0  3  0  0  0  0  0  0
  185.6590  178.2590  141.8320 O   0  0  0  0  0  0  0  0  0  0  0  0
  184.6140  177.9790  142.7590 C   0  0  2  0  0  3  0  0  0  0  0  0
  184.9150  178.7040  146.6650 C   0  0  0  0  0  1  0  0  0  0  0  0
  186.1610  178.3470  145.9820 N   0  0  0  0  0  0  0  0  0  0  0  0
  188.2180  177.0140  146.1790 C   0  0  0  0  0  1  0  0  0  0  0  0
  186.8410  177.2970  146.7570 C   0  0  2  0  0  3  0  0  0  0  0  0
  186.1060  176.1090  146.7320 O   0  0  0  0  0  1  0  0  0  0  0  0
  183.3150  178.3540  142.2040 N   0  0  0  0  0  2  0  0  0  0  0  0
  183.2260  177.9080  140.8210 C   0  0  0  0  0  2  0  0  0  0  0  0
  181.7760  177.8930  140.3960 C   0  0  0  0  0  2  0  0  0  0  0  0
  181.0820  179.1480  140.8930 C   0  0  0  0  0  1  0  0  0  0  0  0
  195.5160  172.5860  143.8910 C   0  0  0  0  0  2  0  0  0  0  0  0
  197.3520  173.7940  142.7500 C   0  0  0  0  0  3  0  0  0  0  0  0
  196.4990  172.7620  142.7490 C   0  0  0  0  0  0  0  0  0  0  0  0
  197.6620  172.3690  138.3250 C   0  0  0  0  0  1  0  0  0  0  0  0
  196.6150  171.7210  141.7060 C   0  0  0  0  0  3  0  0  0  0  0  0
  196.5330  171.9750  140.4240 C   0  0  0  0  0  0  0  0  0  0  0  0
  196.4200  172.2490  139.1530 C   0  0  0  0  0  0  0  0  0  0  0  0
  195.2500  174.8880  138.7350 C   0  0  0  0  0  2  0  0  0  0  0  0
  194.5920  173.7980  138.3430 C   0  0  0  0  0  0  0  0  0  0  0  0
  192.6190  175.0270  137.8420 O   0  0  0  0  0  0  0  0  0  0  0  0
  195.1230  172.4710  138.5720 N   0  0  0  0  0  0  0  0  0  0  0  0
  194.2120  171.3270  138.4630 C   0  0  0  0  0  2  0  0  0  0  0  0
  193.3040  171.4790  137.2480 C   0  0  0  0  0  2  0  0  0  0  0  0
  192.5650  172.7350  137.3110 N   0  0  0  0  0  0  0  0  0  0  0  0
  193.2250  173.9210  137.7990 C   0  0  0  0  0  0  0  0  0  0  0  0
  191.1650  172.7050  136.8800 C   0  0  2  0  0  3  0  0  0  0  0  0
  190.5090  171.3380  137.1240 C   0  0  2  0  0  3  0  0  0  0  0  0
  189.9020  170.7600  135.8570 C   0  0  0  0  0  1  0  0  0  0  0  0
  189.0660  172.7660  138.4000 O   0  0  0  0  0  1  0  0  0  0  0  0
  189.4300  171.4360  138.1900 C   0  0  0  0  0  2  0  0  0  0  0  0
  191.0180  173.1330  135.5520 O   0  0  0  0  0  0  0  0  0  0  0  0
  190.4080  174.3930  135.6280 C   0  0  0  0  0  2  0  0  0  0  0  0
  190.9460  175.3190  134.5450 C   0  0  0  0  0  2  0  0  0  0  0  0
  190.6550  176.6420  134.8610 O   0  0  0  0  0  1  0  0  0  0  0  0
  197.3510  174.8710  143.7870 C   0  0  0  0  0  2  0  0  0  0  0  0
  196.4680  177.1620  144.1460 C   0  0  0  0  0  1  0  0  0  0  0  0
  197.0710  176.2150  143.1380 C   0  0  0  0  0  2  0  0  0  0  0  0
  1 42  1  0  0  0  0
  1 10  1  0  0  0  0
  2  1  2  0  0  0  0
  3  2  1  1  0  0  0
  3  7  1  0  0  0  0
  6  5  1  6  0  0  0
  6  3  1  0  0  0  0
  7  4  1  0  0  0  0
  8  4  1  0  0  0  0
  9  6  1  0  0  0  0
  9  8  1  0  0  0  0
 10 11  1  6  0  0  0
 12 15  1  0  0  0  0
 12 17  1  0  0  0  0
 13 10  1  6  0  0  0
 13 16  1  0  0  0  0
 14 16  1  0  0  0  0
 15 13  1  0  0  0  0
 17 14  1  0  0  0  0
 18  2  1  0  0  0  0
 19 18  1  0  0  0  0
 20 19  1  0  0  0  0
 20 21  1  0  0  0  0
 22 21  1  0  0  0  0
 22 23  1  1  0  0  0
 24 22  1  0  0  0  0
 24 25  2  0  0  0  0
 26 25  1  0  0  0  0
 27 34  1  1  0  0  0
 28 27  1  0  0  0  0
 29 27  1  0  0  0  0
 30 26  1  6  0  0  0
 30 28  1  0  0  0  0
 31 30  1  0  0  0  0
 31 32  1  0  0  0  0
 32 38  1  6  0  0  0
 32 29  1  0  0  0  0
 34 33  1  0  0  0  0
 34 36  1  0  0  0  0
 36 35  1  6  0  0  0
 37 36  1  0  0  0  0
 39 38  1  0  0  0  0
 40 39  1  0  0  0  0
 40 41  1  0  0  0  0
 43 66  1  0  0  0  0
 44 43  2  0  0  0  0
 44 42  1  0  0  0  0
 45 48  1  0  0  0  0
 46 44  1  0  0  0  0
 47 46  2  0  0  0  0
 48 47  2  0  0  0  0
 50 52  1  0  0  0  0
 50 49  2  0  0  0  0
 52 48  1  0  0  0  0
 53 52  1  0  0  0  0
 54 55  1  0  0  0  0
 54 53  1  0  0  0  0
 55 56  1  0  0  0  0
 56 51  2  0  0  0  0
 56 50  1  0  0  0  0
 57 62  1  6  0  0  0
 57 58  1  0  0  0  0
 57 55  1  0  0  0  0
 58 59  1  6  0  0  0
 58 61  1  0  0  0  0
 61 60  1  0  0  0  0
 62 63  1  0  0  0  0
 64 65  1  0  0  0  0
 64 63  1  0  0  0  0
 68 66  1  0  0  0  0
 68 67  1  0  0  0  0
M  END
>  <MODEL>
6

>  <REMARK>
 VINA RESULT:      -3.4      2.179      6.556
  Name = 
  28 active torsions:
  status: ('A' for Active; 'I' for Inactive)
    1  A    between atoms: C_1  and  N_53
    2  A    between atoms: C_3  and  C_26
    3  A    between atoms: C_5  and  C_15
    4  A    between atoms: C_5  and  C_18
    5  A    between atoms: O_9  and  C_13
    6  A    between atoms: O_9  and  C_16
    7  A    between atoms: C_11  and  C_66
    8  A    between atoms: C_13  and  C_64
    9  A    between atoms: O_14  and  C_65
   10  A    between atoms: O_14  and  C_66
   11  A    between atoms: C_15  and  C_17
   12  A    between atoms: C_16  and  C_41
   13  A    between atoms: C_17  and  C_33
   14  A    between atoms: C_22  and  C_38
   15  A    between atoms: C_23  and  C_28
   16  A    between atoms: C_23  and  N_39
   17  A    between atoms: C_24  and  C_38
   18  A    between atoms: C_26  and  N_43
   19  A    between atoms: C_29  and  N_53
   20  A    between atoms: C_32  and  C_36
   21  A    between atoms: C_33  and  C_45
   22  A    between atoms: C_34  and  N_42
   23  A    between atoms: C_34  and  C_61
   24  A    between atoms: C_36  and  C_65
   25  A    between atoms: N_37  and  C_59
   26  A    between atoms: N_39  and  C_67
   27  A    between atoms: N_43  and  C_64
   28  A    between atoms: N_58  and  C_65
                            x       y       z     vdW  Elec       q    Type
                         _______ _______ _______ _____ _____    ______ ____

>  <TORSDO>
F 28

$$$$
=
 OpenBabel11042418573D

 68 71  0  0  1  0  0  0  0  0999 V2000
  187.7430  176.0000  144.0980 C   0  0  0  0  0  0  0  0  0  0  0  0
  187.3210  176.4730  145.2960 C   0  0  0  0  0  0  0  0  0  0  0  0
  185.8710  176.7340  145.6480 C   0  0  2  0  0  3  0  0  0  0  0  0
  185.3080  177.7820  147.8070 N   0  0  0  0  0  2  0  0  0  0  0  0
  185.1780  177.9980  143.6790 N   0  0  0  0  0  1  0  0  0  0  0  0
  185.3650  178.0840  145.1230 C   0  0  1  0  0  3  0  0  0  0  0  0
  185.4530  176.4940  147.1090 C   0  0  0  0  0  2  0  0  0  0  0  0
  184.2560  178.6180  147.1940 C   0  0  0  0  0  2  0  0  0  0  0  0
  184.0810  178.3880  145.7480 N   0  0  0  0  0  2  0  0  0  0  0  0
  189.1760  175.5780  143.9310 C   0  0  1  0  0  3  0  0  0  0  0  0
  189.2880  174.1860  143.8950 O   0  0  0  0  0  1  0  0  0  0  0  0
  192.1390  175.9160  143.3460 C   0  0  0  0  0  2  0  0  0  0  0  0
  189.9140  176.2660  142.7680 C   0  0  2  0  0  3  0  0  0  0  0  0
  191.1830  178.1350  143.8730 C   0  0  0  0  0  2  0  0  0  0  0  0
  191.1380  175.6560  142.3860 O   0  0  0  0  0  0  0  0  0  0  0  0
  190.0330  177.7850  142.9350 C   0  0  0  0  0  2  0  0  0  0  0  0
  192.4440  177.4060  143.4380 C   0  0  0  0  0  2  0  0  0  0  0  0
  188.2560  176.6160  146.3670 N   0  0  0  0  0  2  0  0  0  0  0  0
  188.7030  175.4520  147.1130 C   0  0  0  0  0  2  0  0  0  0  0  0
  190.0410  175.7200  147.7640 C   0  0  0  0  0  2  0  0  0  0  0  0
  191.0450  175.7630  146.7970 O   0  0  0  0  0  0  0  0  0  0  0  0
  191.7830  176.9070  147.1010 C   0  0  1  0  0  3  0  0  0  0  0  0
  191.6730  177.2030  148.5870 C   0  0  0  0  0  1  0  0  0  0  0  0
  193.2130  176.6780  146.7400 C   0  0  0  0  0  3  0  0  0  0  0  0
  193.6810  175.4920  146.6510 N   0  0  0  0  0  0  0  0  0  0  0  0
  195.0620  175.2910  146.3050 C   0  0  0  0  0  2  0  0  0  0  0  0
  196.2720  172.4310  144.0650 C   0  0  2  0  0  3  0  0  0  0  0  0
  195.9620  173.1760  145.3690 C   0  0  0  0  0  2  0  0  0  0  0  0
  195.7750  173.1090  142.9300 O   0  0  0  0  0  0  0  0  0  0  0  0
  195.1670  174.4440  145.0520 C   0  0  2  0  0  3  0  0  0  0  0  0
  195.7250  175.2190  143.9960 O   0  0  0  0  0  0  0  0  0  0  0  0
  196.3220  174.4070  142.9890 C   0  0  2  0  0  3  0  0  0  0  0  0
  196.9430  170.1440  144.2880 C   0  0  0  0  0  1  0  0  0  0  0  0
  195.7940  171.0400  144.1310 N   0  0  0  0  0  0  0  0  0  0  0  0
  195.4260  169.7860  146.2140 C   0  0  0  0  0  1  0  0  0  0  0  0
  194.9070  170.8790  145.2940 C   0  0  2  0  0  3  0  0  0  0  0  0
  193.6170  170.5290  144.8880 O   0  0  0  0  0  1  0  0  0  0  0  0
  196.2520  175.0630  141.6850 N   0  0  0  0  0  2  0  0  0  0  0  0
  195.0370  174.6540  140.9950 C   0  0  0  0  0  2  0  0  0  0  0  0
  195.2300  174.8260  139.5060 C   0  0  0  0  0  2  0  0  0  0  0  0
  196.6590  175.2480  139.2180 C   0  0  0  0  0  1  0  0  0  0  0  0
  186.8160  175.8390  142.9210 C   0  0  0  0  0  2  0  0  0  0  0  0
  187.8560  175.6890  140.6800 C   0  0  0  0  0  3  0  0  0  0  0  0
  187.4160  175.0520  141.7710 C   0  0  0  0  0  0  0  0  0  0  0  0
  190.7380  172.1410  143.0220 C   0  0  0  0  0  1  0  0  0  0  0  0
  187.6430  173.5980  141.9080 C   0  0  0  0  0  3  0  0  0  0  0  0
  188.8280  173.0460  141.8520 C   0  0  0  0  0  0  0  0  0  0  0  0
  190.0180  172.5160  141.7650 C   0  0  0  0  0  0  0  0  0  0  0  0
  190.2700  169.9420  140.4170 C   0  0  0  0  0  2  0  0  0  0  0  0
  190.7100  171.0500  139.8230 C   0  0  0  0  0  0  0  0  0  0  0  0
  191.7510  169.8340  138.0640 O   0  0  0  0  0  0  0  0  0  0  0  0
  190.6390  172.3380  140.4800 N   0  0  0  0  0  0  0  0  0  0  0  0
  191.4560  173.4360  139.9510 C   0  0  0  0  0  2  0  0  0  0  0  0
  191.3990  173.4610  138.4280 C   0  0  0  0  0  2  0  0  0  0  0  0
  191.8200  172.1790  137.8750 N   0  0  0  0  0  0  0  0  0  0  0  0
  191.4220  170.9580  138.5330 C   0  0  0  0  0  0  0  0  0  0  0  0
  192.6510  172.2160  136.6680 C   0  0  2  0  0  3  0  0  0  0  0  0
  193.8860  173.1130  136.8380 C   0  0  2  0  0  3  0  0  0  0  0  0
  193.9490  174.2050  135.7840 C   0  0  0  0  0  1  0  0  0  0  0  0
  196.0500  172.8320  135.8450 O   0  0  0  0  0  1  0  0  0  0  0  0
  195.1640  172.2940  136.7800 C   0  0  0  0  0  2  0  0  0  0  0  0
  191.9040  172.5540  135.5290 O   0  0  0  0  0  0  0  0  0  0  0  0
  190.6290  172.8940  136.0020 C   0  0  0  0  0  2  0  0  0  0  0  0
  189.5570  172.5090  134.9910 C   0  0  0  0  0  2  0  0  0  0  0  0
  188.8990  171.3560  135.4080 O   0  0  0  0  0  1  0  0  0  0  0  0
  187.7220  177.1630  140.4670 C   0  0  0  0  0  2  0  0  0  0  0  0
  185.4520  178.1570  140.3320 C   0  0  0  0  0  1  0  0  0  0  0  0
  186.5380  177.4490  139.5600 C   0  0  0  0  0  2  0  0  0  0  0  0
  1  2  2  0  0  0  0
  2 18  1  0  0  0  0
  3  2  1  1  0  0  0
  3  7  1  0  0  0  0
  6  5  1  6  0  0  0
  6  3  1  0  0  0  0
  6  9  1  0  0  0  0
  7  4  1  0  0  0  0
  8  4  1  0  0  0  0
  9  8  1  0  0  0  0
 10 11  1  6  0  0  0
 10  1  1  0  0  0  0
 12 17  1  0  0  0  0
 13 16  1  0  0  0  0
 13 10  1  1  0  0  0
 15 13  1  0  0  0  0
 15 12  1  0  0  0  0
 16 14  1  0  0  0  0
 17 14  1  0  0  0  0
 18 19  1  0  0  0  0
 19 20  1  0  0  0  0
 21 22  1  0  0  0  0
 21 20  1  0  0  0  0
 22 23  1  1  0  0  0
 24 22  1  0  0  0  0
 25 24  2  0  0  0  0
 26 25  1  0  0  0  0
 27 34  1  1  0  0  0
 27 28  1  0  0  0  0
 29 32  1  0  0  0  0
 29 27  1  0  0  0  0
 30 28  1  0  0  0  0
 30 26  1  1  0  0  0
 31 30  1  0  0  0  0
 32 38  1  6  0  0  0
 32 31  1  0  0  0  0
 34 33  1  0  0  0  0
 34 36  1  0  0  0  0
 36 35  1  1  0  0  0
 37 36  1  0  0  0  0
 39 38  1  0  0  0  0
 40 39  1  0  0  0  0
 41 40  1  0  0  0  0
 42  1  1  0  0  0  0
 43 44  2  0  0  0  0
 44 46  1  0  0  0  0
 44 42  1  0  0  0  0
 47 46  2  0  0  0  0
 48 47  2  0  0  0  0
 48 45  1  0  0  0  0
 50 49  2  0  0  0  0
 50 52  1  0  0  0  0
 51 56  2  0  0  0  0
 52 48  1  0  0  0  0
 53 52  1  0  0  0  0
 54 53  1  0  0  0  0
 55 54  1  0  0  0  0
 55 56  1  0  0  0  0
 56 50  1  0  0  0  0
 57 62  1  6  0  0  0
 57 58  1  0  0  0  0
 57 55  1  0  0  0  0
 58 59  1  6  0  0  0
 60 61  1  0  0  0  0
 61 58  1  0  0  0  0
 62 63  1  0  0  0  0
 64 65  1  0  0  0  0
 64 63  1  0  0  0  0
 66 43  1  0  0  0  0
 68 67  1  0  0  0  0
 68 66  1  0  0  0  0
M  END
>  <MODEL>
7

>  <REMARK>
 VINA RESULT:      -3.3      2.718     11.028
  Name = 
  28 active torsions:
  status: ('A' for Active; 'I' for Inactive)
    1  A    between atoms: C_1  and  N_53
    2  A    between atoms: C_3  and  C_26
    3  A    between atoms: C_5  and  C_15
    4  A    between atoms: C_5  and  C_18
    5  A    between atoms: O_9  and  C_13
    6  A    between atoms: O_9  and  C_16
    7  A    between atoms: C_11  and  C_66
    8  A    between atoms: C_13  and  C_64
    9  A    between atoms: O_14  and  C_65
   10  A    between atoms: O_14  and  C_66
   11  A    between atoms: C_15  and  C_17
   12  A    between atoms: C_16  and  C_41
   13  A    between atoms: C_17  and  C_33
   14  A    between atoms: C_22  and  C_38
   15  A    between atoms: C_23  and  C_28
   16  A    between atoms: C_23  and  N_39
   17  A    between atoms: C_24  and  C_38
   18  A    between atoms: C_26  and  N_43
   19  A    between atoms: C_29  and  N_53
   20  A    between atoms: C_32  and  C_36
   21  A    between atoms: C_33  and  C_45
   22  A    between atoms: C_34  and  N_42
   23  A    between atoms: C_34  and  C_61
   24  A    between atoms: C_36  and  C_65
   25  A    between atoms: N_37  and  C_59
   26  A    between atoms: N_39  and  C_67
   27  A    between atoms: N_43  and  C_64
   28  A    between atoms: N_58  and  C_65
                            x       y       z     vdW  Elec       q    Type
                         _______ _______ _______ _____ _____    ______ ____

>  <TORSDO>
F 28

$$$$
=
 OpenBabel11042418573D

 68 71  0  0  1  0  0  0  0  0999 V2000
  187.9920  175.6060  144.1550 C   0  0  0  0  0  0  0  0  0  0  0  0
  187.7500  176.3390  145.2680 C   0  0  0  0  0  0  0  0  0  0  0  0
  186.3800  176.8280  145.6880 C   0  0  2  0  0  3  0  0  0  0  0  0
  186.0080  177.5780  148.0060 N   0  0  0  0  0  2  0  0  0  0  0  0
  185.9970  178.5300  143.9820 N   0  0  0  0  0  1  0  0  0  0  0  0
  186.1720  178.3230  145.4150 C   0  0  1  0  0  3  0  0  0  0  0  0
  185.8960  176.4290  147.0930 C   0  0  0  0  0  2  0  0  0  0  0  0
  185.1620  178.7060  147.5680 C   0  0  0  0  0  2  0  0  0  0  0  0
  184.9680  178.7720  146.1080 N   0  0  0  0  0  2  0  0  0  0  0  0
  189.3500  174.9950  143.9490 C   0  0  1  0  0  3  0  0  0  0  0  0
  189.2880  173.6010  144.0040 O   0  0  0  0  0  1  0  0  0  0  0  0
  192.2940  175.5830  143.4760 C   0  0  0  0  0  2  0  0  0  0  0  0
  190.1010  175.5100  142.7070 C   0  0  2  0  0  3  0  0  0  0  0  0
  191.0490  177.7200  143.4400 C   0  0  0  0  0  2  0  0  0  0  0  0
  191.4140  174.9970  142.5420 O   0  0  0  0  0  0  0  0  0  0  0  0
  190.0310  177.0310  142.5390 C   0  0  0  0  0  2  0  0  0  0  0  0
  192.4180  177.0860  143.2520 C   0  0  0  0  0  2  0  0  0  0  0  0
  188.8060  176.5680  146.2040 N   0  0  0  0  0  2  0  0  0  0  0  0
  189.1710  175.5430  147.1670 C   0  0  0  0  0  2  0  0  0  0  0  0
  190.4920  175.8760  147.8220 C   0  0  0  0  0  2  0  0  0  0  0  0
  191.5290  175.7650  146.8970 O   0  0  0  0  0  0  0  0  0  0  0  0
  192.3050  176.9070  147.0930 C   0  0  1  0  0  3  0  0  0  0  0  0
  192.1210  177.4080  148.5160 C   0  0  0  0  0  1  0  0  0  0  0  0
  193.7400  176.5700  146.8610 C   0  0  0  0  0  3  0  0  0  0  0  0
  194.1040  175.3580  146.6800 N   0  0  0  0  0  0  0  0  0  0  0  0
  195.4920  175.0530  146.4610 C   0  0  0  0  0  2  0  0  0  0  0  0
  194.9950  173.3030  143.0920 C   0  0  2  0  0  3  0  0  0  0  0  0
  195.0760  174.4680  144.0850 C   0  0  0  0  0  2  0  0  0  0  0  0
  195.4170  172.0820  143.6620 O   0  0  0  0  0  0  0  0  0  0  0  0
  195.6270  173.9600  145.4190 C   0  0  2  0  0  3  0  0  0  0  0  0
  194.9930  172.7740  145.8840 O   0  0  0  0  0  0  0  0  0  0  0  0
  194.6250  171.9050  144.8160 C   0  0  2  0  0  3  0  0  0  0  0  0
  195.2530  172.7450  140.7780 C   0  0  0  0  0  1  0  0  0  0  0  0
  195.7290  173.6180  141.8550 N   0  0  0  0  0  0  0  0  0  0  0  0
  194.8660  175.0910  140.0850 C   0  0  0  0  0  1  0  0  0  0  0  0
  195.4760  175.0170  141.4750 C   0  0  2  0  0  3  0  0  0  0  0  0
  196.6660  175.7500  141.4670 O   0  0  0  0  0  1  0  0  0  0  0  0
  194.6440  170.5110  145.2530 N   0  0  0  0  0  2  0  0  0  0  0  0
  193.9640  169.6800  144.2690 C   0  0  0  0  0  2  0  0  0  0  0  0
  193.7870  168.2890  144.8320 C   0  0  0  0  0  2  0  0  0  0  0  0
  193.2500  168.3710  146.2490 C   0  0  0  0  0  1  0  0  0  0  0  0
  186.9320  175.3370  143.1180 C   0  0  0  0  0  2  0  0  0  0  0  0
  187.8860  175.6660  140.8580 C   0  0  0  0  0  3  0  0  0  0  0  0
  187.4770  174.8120  141.8040 C   0  0  0  0  0  0  0  0  0  0  0  0
  190.9130  171.7670  141.7270 C   0  0  0  0  0  1  0  0  0  0  0  0
  187.6890  173.3610  141.6170 C   0  0  0  0  0  3  0  0  0  0  0  0
  188.8170  172.8460  141.1980 C   0  0  0  0  0  0  0  0  0  0  0  0
  189.9430  172.3590  140.7520 C   0  0  0  0  0  0  0  0  0  0  0  0
  189.3400  170.2460  138.8340 C   0  0  0  0  0  2  0  0  0  0  0  0
  189.9070  171.3790  138.4200 C   0  0  0  0  0  0  0  0  0  0  0  0
  190.2980  170.5240  136.2360 O   0  0  0  0  0  0  0  0  0  0  0  0
  190.2580  172.4300  139.3510 N   0  0  0  0  0  0  0  0  0  0  0  0
  191.1960  173.4690  138.9070 C   0  0  0  0  0  2  0  0  0  0  0  0
  190.8670  173.9180  137.4890 C   0  0  0  0  0  2  0  0  0  0  0  0
  190.8710  172.7810  136.5740 N   0  0  0  0  0  0  0  0  0  0  0  0
  190.3300  171.5170  137.0130 C   0  0  0  0  0  0  0  0  0  0  0  0
  191.4520  172.9980  135.2460 C   0  0  2  0  0  3  0  0  0  0  0  0
  192.9630  172.7320  135.2210 C   0  0  2  0  0  3  0  0  0  0  0  0
  193.2870  171.3120  134.7840 C   0  0  0  0  0  1  0  0  0  0  0  0
  194.3790  171.9040  136.9700 O   0  0  0  0  0  1  0  0  0  0  0  0
  193.5830  172.9830  136.5850 C   0  0  0  0  0  2  0  0  0  0  0  0
  191.1280  174.2640  134.7360 O   0  0  0  0  0  0  0  0  0  0  0  0
  189.7280  174.3310  134.7530 C   0  0  0  0  0  2  0  0  0  0  0  0
  189.2580  175.6920  135.2500 C   0  0  0  0  0  2  0  0  0  0  0  0
  190.0720  176.6950  134.7350 O   0  0  0  0  0  1  0  0  0  0  0  0
  187.7650  177.1520  140.9710 C   0  0  0  0  0  2  0  0  0  0  0  0
  185.3620  177.7010  140.6760 C   0  0  0  0  0  1  0  0  0  0  0  0
  186.7110  177.6610  140.0020 C   0  0  0  0  0  2  0  0  0  0  0  0
  1  2  2  0  0  0  0
  2 18  1  0  0  0  0
  3  2  1  1  0  0  0
  3  7  1  0  0  0  0
  6  5  1  6  0  0  0
  6  3  1  0  0  0  0
  6  9  1  0  0  0  0
  7  4  1  0  0  0  0
  8  4  1  0  0  0  0
  9  8  1  0  0  0  0
 10 11  1  6  0  0  0
 10  1  1  0  0  0  0
 13 10  1  1  0  0  0
 15 13  1  0  0  0  0
 15 12  1  0  0  0  0
 16 13  1  0  0  0  0
 16 14  1  0  0  0  0
 17 14  1  0  0  0  0
 17 12  1  0  0  0  0
 18 19  1  0  0  0  0
 19 20  1  0  0  0  0
 21 22  1  0  0  0  0
 21 20  1  0  0  0  0
 22 23  1  1  0  0  0
 24 22  1  0  0  0  0
 25 24  2  0  0  0  0
 26 25  1  0  0  0  0
 27 34  1  6  0  0  0
 27 29  1  0  0  0  0
 27 28  1  0  0  0  0
 28 30  1  0  0  0  0
 29 32  1  0  0  0  0
 30 31  1  0  0  0  0
 30 26  1  1  0  0  0
 32 38  1  1  0  0  0
 32 31  1  0  0  0  0
 33 34  1  0  0  0  0
 36 35  1  6  0  0  0
 36 34  1  0  0  0  0
 37 36  1  0  0  0  0
 39 40  1  0  0  0  0
 39 38  1  0  0  0  0
 40 41  1  0  0  0  0
 42  1  1  0  0  0  0
 43 66  1  0  0  0  0
 43 44  2  0  0  0  0
 44 42  1  0  0  0  0
 46 44  1  0  0  0  0
 47 46  2  0  0  0  0
 48 47  2  0  0  0  0
 48 45  1  0  0  0  0
 50 49  2  0  0  0  0
 50 52  1  0  0  0  0
 51 56  2  0  0  0  0
 52 48  1  0  0  0  0
 53 52  1  0  0  0  0
 54 53  1  0  0  0  0
 55 56  1  0  0  0  0
 55 54  1  0  0  0  0
 56 50  1  0  0  0  0
 57 62  1  1  0  0  0
 57 55  1  0  0  0  0
 58 59  1  1  0  0  0
 58 57  1  0  0  0  0
 58 61  1  0  0  0  0
 61 60  1  0  0  0  0
 62 63  1  0  0  0  0
 63 64  1  0  0  0  0
 65 64  1  0  0  0  0
 68 67  1  0  0  0  0
 68 66  1  0  0  0  0
M  END
>  <MODEL>
8

>  <REMARK>
 VINA RESULT:      -3.2      2.721     10.803
  Name = 
  28 active torsions:
  status: ('A' for Active; 'I' for Inactive)
    1  A    between atoms: C_1  and  N_53
    2  A    between atoms: C_3  and  C_26
    3  A    between atoms: C_5  and  C_15
    4  A    between atoms: C_5  and  C_18
    5  A    between atoms: O_9  and  C_13
    6  A    between atoms: O_9  and  C_16
    7  A    between atoms: C_11  and  C_66
    8  A    between atoms: C_13  and  C_64
    9  A    between atoms: O_14  and  C_65
   10  A    between atoms: O_14  and  C_66
   11  A    between atoms: C_15  and  C_17
   12  A    between atoms: C_16  and  C_41
   13  A    between atoms: C_17  and  C_33
   14  A    between atoms: C_22  and  C_38
   15  A    between atoms: C_23  and  C_28
   16  A    between atoms: C_23  and  N_39
   17  A    between atoms: C_24  and  C_38
   18  A    between atoms: C_26  and  N_43
   19  A    between atoms: C_29  and  N_53
   20  A    between atoms: C_32  and  C_36
   21  A    between atoms: C_33  and  C_45
   22  A    between atoms: C_34  and  N_42
   23  A    between atoms: C_34  and  C_61
   24  A    between atoms: C_36  and  C_65
   25  A    between atoms: N_37  and  C_59
   26  A    between atoms: N_39  and  C_67
   27  A    between atoms: N_43  and  C_64
   28  A    between atoms: N_58  and  C_65
                            x       y       z     vdW  Elec       q    Type
                         _______ _______ _______ _____ _____    ______ ____

>  <TORSDO>
F 28

$$$$
=
 OpenBabel11042418573D

 68 71  0  0  1  0  0  0  0  0999 V2000
  193.3110  171.6550  140.1880 C   0  0  0  0  0  0  0  0  0  0  0  0
  193.1310  171.2490  141.4680 C   0  0  0  0  0  0  0  0  0  0  0  0
  194.0270  170.2600  142.1830 C   0  0  2  0  0  3  0  0  0  0  0  0
  194.2370  170.3560  144.6380 N   0  0  0  0  0  2  0  0  0  0  0  0
  193.1300  168.1660  141.3090 N   0  0  0  0  0  1  0  0  0  0  0  0
  193.3100  168.9480  142.5270 C   0  0  1  0  0  3  0  0  0  0  0  0
  194.8470  170.7920  143.3710 C   0  0  0  0  0  2  0  0  0  0  0  0
  194.2220  168.8840  144.7560 C   0  0  0  0  0  2  0  0  0  0  0  0
  194.1330  168.1840  143.4610 N   0  0  0  0  0  2  0  0  0  0  0  0
  192.4920  172.7950  139.6500 C   0  0  1  0  0  3  0  0  0  0  0  0
  193.1860  174.0040  139.7560 O   0  0  0  0  0  1  0  0  0  0  0  0
  189.9410  173.7870  138.3290 C   0  0  0  0  0  2  0  0  0  0  0  0
  191.9150  172.5600  138.2420 C   0  0  2  0  0  3  0  0  0  0  0  0
  189.7560  171.3430  138.6650 C   0  0  0  0  0  2  0  0  0  0  0  0
  191.1950  173.6560  137.6960 O   0  0  0  0  0  0  0  0  0  0  0  0
  191.1690  171.2290  138.1040 C   0  0  0  0  0  2  0  0  0  0  0  0
  189.0650  172.5640  138.0800 C   0  0  0  0  0  2  0  0  0  0  0  0
  192.1280  171.8740  142.2720 N   0  0  0  0  0  2  0  0  0  0  0  0
  190.8160  172.1600  141.7190 C   0  0  0  0  0  2  0  0  0  0  0  0
  190.4770  173.6250  141.8840 C   0  0  0  0  0  2  0  0  0  0  0  0
  189.4290  173.7760  142.7900 O   0  0  0  0  0  0  0  0  0  0  0  0
  188.3080  174.0290  142.0000 C   0  0  1  0  0  3  0  0  0  0  0  0
  187.3790  172.8280  142.0380 C   0  0  0  0  0  1  0  0  0  0  0  0
  187.5970  175.2300  142.5280 C   0  0  0  0  0  3  0  0  0  0  0  0
  188.2090  176.3450  142.6560 N   0  0  0  0  0  0  0  0  0  0  0  0
  187.5080  177.4910  143.1690 C   0  0  0  0  0  2  0  0  0  0  0  0
  184.0000  177.5410  141.6340 C   0  0  2  0  0  3  0  0  0  0  0  0
  185.0730  177.3330  142.7090 C   0  0  0  0  0  2  0  0  0  0  0  0
  184.5140  178.1650  140.4760 O   0  0  0  0  0  0  0  0  0  0  0  0
  186.4050  177.8990  142.2110 C   0  0  2  0  0  3  0  0  0  0  0  0
  186.7420  177.4890  140.8910 O   0  0  0  0  0  0  0  0  0  0  0  0
  185.5940  177.3620  140.0560 C   0  0  2  0  0  3  0  0  0  0  0  0
  183.2940  179.5400  142.7460 C   0  0  0  0  0  1  0  0  0  0  0  0
  182.8420  178.2650  142.1840 N   0  0  0  0  0  0  0  0  0  0  0  0
  180.4530  178.4410  141.6320 C   0  0  0  0  0  1  0  0  0  0  0  0
  181.8760  178.5380  141.1090 C   0  0  2  0  0  3  0  0  0  0  0  0
  182.0200  177.6170  140.0680 O   0  0  0  0  0  1  0  0  0  0  0  0
  185.9350  177.6330  138.6610 N   0  0  0  0  0  2  0  0  0  0  0  0
  185.7480  176.4270  137.8680 C   0  0  0  0  0  2  0  0  0  0  0  0
  187.0720  176.0240  137.2600 C   0  0  0  0  0  2  0  0  0  0  0  0
  187.0130  176.1780  135.7510 C   0  0  0  0  0  1  0  0  0  0  0  0
  194.3380  171.0310  139.2790 C   0  0  0  0  0  2  0  0  0  0  0  0
  196.6790  170.4170  139.7950 C   0  0  0  0  0  3  0  0  0  0  0  0
  195.7690  171.3850  139.6350 C   0  0  0  0  0  0  0  0  0  0  0  0
  197.9380  174.3120  142.4290 C   0  0  0  0  0  1  0  0  0  0  0  0
  196.1950  172.8000  139.6680 C   0  0  0  0  0  3  0  0  0  0  0  0
  196.3910  173.4660  140.7780 C   0  0  0  0  0  0  0  0  0  0  0  0
  196.5520  174.1180  141.8970 C   0  0  0  0  0  0  0  0  0  0  0  0
  194.9260  176.3890  141.0580 C   0  0  0  0  0  2  0  0  0  0  0  0
  194.6020  175.7080  142.1560 C   0  0  0  0  0  0  0  0  0  0  0  0
  192.9380  177.2850  142.7850 O   0  0  0  0  0  0  0  0  0  0  0  0
  195.4100  174.6020  142.6250 N   0  0  0  0  0  0  0  0  0  0  0  0
  195.2260  174.1400  144.0050 C   0  0  0  0  0  2  0  0  0  0  0  0
  193.7440  174.0770  144.3560 C   0  0  0  0  0  2  0  0  0  0  0  0
  193.1090  175.3730  144.1460 N   0  0  0  0  0  0  0  0  0  0  0  0
  193.4880  176.1710  143.0060 C   0  0  0  0  0  0  0  0  0  0  0  0
  192.1180  175.7960  145.1400 C   0  0  2  0  0  3  0  0  0  0  0  0
  191.8250  174.7000  146.1740 C   0  0  2  0  0  3  0  0  0  0  0  0
  190.4080  174.1640  146.0530 C   0  0  0  0  0  1  0  0  0  0  0  0
  190.8200  175.3730  148.2440 O   0  0  0  0  0  1  0  0  0  0  0  0
  192.0410  175.2140  147.5870 C   0  0  0  0  0  2  0  0  0  0  0  0
  190.9480  176.2820  144.5360 O   0  0  0  0  0  0  0  0  0  0  0  0
  190.8440  177.6200  144.9370 C   0  0  0  0  0  2  0  0  0  0  0  0
  189.4520  177.9160  145.4800 C   0  0  0  0  0  2  0  0  0  0  0  0
  189.0190  176.8630  146.2800 O   0  0  0  0  0  1  0  0  0  0  0  0
  196.3620  168.9580  139.7290 C   0  0  0  0  0  2  0  0  0  0  0  0
  197.8740  169.0460  137.7630 C   0  0  0  0  0  1  0  0  0  0  0  0
  196.6140  168.4360  138.3250 C   0  0  0  0  0  2  0  0  0  0  0  0
  1  2  2  0  0  0  0
  2 18  1  0  0  0  0
  3  2  1  1  0  0  0
  3  6  1  0  0  0  0
  3  7  1  0  0  0  0
  4  8  1  0  0  0  0
  6  5  1  6  0  0  0
  6  9  1  0  0  0  0
  7  4  1  0  0  0  0
  9  8  1  0  0  0  0
 10 11  1  6  0  0  0
 10  1  1  0  0  0  0
 13 10  1  1  0  0  0
 15 13  1  0  0  0  0
 15 12  1  0  0  0  0
 16 13  1  0  0  0  0
 16 14  1  0  0  0  0
 17 12  1  0  0  0  0
 17 14  1  0  0  0  0
 19 20  1  0  0  0  0
 19 18  1  0  0  0  0
 20 21  1  0  0  0  0
 22 23  1  1  0  0  0
 22 24  1  0  0  0  0
 22 21  1  0  0  0  0
 24 25  2  0  0  0  0
 25 26  1  0  0  0  0
 27 34  1  1  0  0  0
 27 28  1  0  0  0  0
 29 27  1  0  0  0  0
 30 28  1  0  0  0  0
 30 26  1  1  0  0  0
 31 30  1  0  0  0  0
 32 38  1  6  0  0  0
 32 29  1  0  0  0  0
 32 31  1  0  0  0  0
 34 33  1  0  0  0  0
 36 35  1  1  0  0  0
 36 34  1  0  0  0  0
 37 36  1  0  0  0  0
 39 38  1  0  0  0  0
 40 39  1  0  0  0  0
 41 40  1  0  0  0  0
 42 44  1  0  0  0  0
 42  1  1  0  0  0  0
 44 46  1  0  0  0  0
 44 43  2  0  0  0  0
 46 47  2  0  0  0  0
 47 48  2  0  0  0  0
 48 45  1  0  0  0  0
 48 52  1  0  0  0  0
 49 50  2  0  0  0  0
 50 52  1  0  0  0  0
 50 56  1  0  0  0  0
 51 56  2  0  0  0  0
 52 53  1  0  0  0  0
 53 54  1  0  0  0  0
 55 54  1  0  0  0  0
 55 57  1  0  0  0  0
 56 55  1  0  0  0  0
 57 62  1  6  0  0  0
 57 58  1  0  0  0  0
 58 59  1  1  0  0  0
 58 61  1  0  0  0  0
 61 60  1  0  0  0  0
 62 63  1  0  0  0  0
 63 64  1  0  0  0  0
 64 65  1  0  0  0  0
 66 43  1  0  0  0  0
 67 68  1  0  0  0  0
 68 66  1  0  0  0  0
M  END
>  <MODEL>
9

>  <REMARK>
 VINA RESULT:      -3.0      2.369      4.404
  Name = 
  28 active torsions:
  status: ('A' for Active; 'I' for Inactive)
    1  A    between atoms: C_1  and  N_53
    2  A    between atoms: C_3  and  C_26
    3  A    between atoms: C_5  and  C_15
    4  A    between atoms: C_5  and  C_18
    5  A    between atoms: O_9  and  C_13
    6  A    between atoms: O_9  and  C_16
    7  A    between atoms: C_11  and  C_66
    8  A    between atoms: C_13  and  C_64
    9  A    between atoms: O_14  and  C_65
   10  A    between atoms: O_14  and  C_66
   11  A    between atoms: C_15  and  C_17
   12  A    between atoms: C_16  and  C_41
   13  A    between atoms: C_17  and  C_33
   14  A    between atoms: C_22  and  C_38
   15  A    between atoms: C_23  and  C_28
   16  A    between atoms: C_23  and  N_39
   17  A    between atoms: C_24  and  C_38
   18  A    between atoms: C_26  and  N_43
   19  A    between atoms: C_29  and  N_53
   20  A    between atoms: C_32  and  C_36
   21  A    between atoms: C_33  and  C_45
   22  A    between atoms: C_34  and  N_42
   23  A    between atoms: C_34  and  C_61
   24  A    between atoms: C_36  and  C_65
   25  A    between atoms: N_37  and  C_59
   26  A    between atoms: N_39  and  C_67
   27  A    between atoms: N_43  and  C_64
   28  A    between atoms: N_58  and  C_65
                            x       y       z     vdW  Elec       q    Type
                         _______ _______ _______ _____ _____    ______ ____

>  <TORSDO>
F 28

$$$$
