=
 OpenBabel11042415463D

 54 59  0  0  1  0  0  0  0  0999 V2000
  190.3410  171.8440  141.4700 C   0  0  0  0  0  3  0  0  0  0  0  0
  191.4380  171.5090  140.7910 C   0  0  0  0  0  0  0  0  0  0  0  0
  191.7170  172.1110  139.5220 N   0  0  0  0  0  2  0  0  0  0  0  0
  190.4840  170.8280  137.8600 C   0  0  1  0  0  3  0  0  0  0  0  0
  191.8440  171.3610  138.2760 C   0  0  1  0  0  3  0  0  0  0  0  0
  191.0870  172.0090  137.1140 C   0  0  2  0  0  3  0  0  0  0  0  0
  190.6920  174.4010  136.4820 C   0  0  0  0  0  2  0  0  0  0  0  0
  188.4580  175.2630  135.7430 C   0  0  0  0  0  3  0  0  0  0  0  0
  190.3330  173.2860  137.4770 C   0  0  1  0  0  3  0  0  0  0  0  0
  188.8960  173.0120  137.5090 N   0  0  0  0  0  2  0  0  0  0  0  0
  188.2140  174.2010  138.0060 C   0  0  0  0  0  2  0  0  0  0  0  0
  187.7580  175.1060  136.8830 C   0  0  0  0  0  0  0  0  0  0  0  0
  189.6850  174.4930  135.3420 C   0  0  0  0  0  2  0  0  0  0  0  0
  185.6860  176.1330  136.0940 O   0  0  0  0  0  0  0  0  0  0  0  0
  186.6060  175.9320  137.1000 N   0  0  0  0  0  0  0  0  0  0  0  0
  186.4240  176.4780  138.2070 O   0  0  0  0  0  0  0  0  0  0  0  0
  191.0480  169.6380  135.8660 O   0  0  0  0  0  0  0  0  0  0  0  0
  190.6480  169.5780  137.0600 C   0  0  0  0  0  0  0  0  0  0  0  0
  190.4060  168.3090  137.6570 N   0  0  0  0  0  1  0  0  0  0  0  0
  192.3180  170.5590  141.3180 O   0  0  0  0  0  0  0  0  0  0  0  0
  193.7170  170.8000  141.4380 C   0  0  1  0  0  3  0  0  0  0  0  0
  193.5620  172.0430  143.6350 C   0  0  0  0  0  2  0  0  0  0  0  0
  194.2500  170.8800  144.3510 C   0  0  1  0  0  3  0  0  0  0  0  0
  193.9900  172.1190  142.1680 C   0  0  0  0  0  2  0  0  0  0  0  0
  193.9580  169.5620  143.6240 C   0  0  0  0  0  2  0  0  0  0  0  0
  194.3930  169.6340  142.1600 C   0  0  0  0  0  2  0  0  0  0  0  0
  195.6290  171.1040  144.4270 O   0  0  0  0  0  0  0  0  0  0  0  0
  195.8800  171.3650  145.7730 C   0  0  0  0  0  2  0  0  0  0  0  0
  197.0560  172.3090  145.8930 C   0  0  0  0  0  2  0  0  0  0  0  0
  196.5970  173.5980  146.1600 O   0  0  0  0  0  0  0  0  0  0  0  0
  196.9740  174.3470  145.0450 C   0  0  0  0  0  2  0  0  0  0  0  0
  194.4070  175.9770  142.7770 C   0  0  0  0  0  2  0  0  0  0  0  0
  193.2850  176.1110  143.8050 C   0  0  0  0  0  2  0  0  0  0  0  0
  193.8750  176.6780  145.0910 C   0  0  0  0  0  2  0  0  0  0  0  0
  195.8240  175.1700  144.5760 C   0  0  0  0  0  0  0  0  0  0  0  0
  195.5200  175.1860  143.3110 N   0  0  0  0  0  0  0  0  0  0  0  0
  194.9930  175.8480  145.5290 N   0  0  0  0  0  2  0  0  0  0  0  0
  190.0100  171.2440  142.7930 C   0  0  0  0  0  2  0  0  0  0  0  0
  189.9080  173.1620  144.6460 C   0  0  0  0  0  0  0  0  0  0  0  0
  189.9550  172.2990  143.8050 C   0  0  0  0  0  0  0  0  0  0  0  0
  189.8470  174.2000  145.6780 C   0  0  0  0  0  2  0  0  0  0  0  0
  189.5200  175.5540  145.0550 C   0  0  1  0  0  3  0  0  0  0  0  0
  188.0040  175.7430  144.8970 C   0  0  0  0  0  2  0  0  0  0  0  0
  189.7680  178.0940  143.7380 C   0  0  0  0  0  2  0  0  0  0  0  0
  188.2400  177.9970  143.6280 C   0  0  0  0  0  2  0  0  0  0  0  0
  187.5540  177.2070  144.7670 C   0  0  1  0  0  3  0  0  0  0  0  0
  190.2330  177.9560  145.0800 O   0  0  0  0  0  0  0  0  0  0  0  0
  190.1790  176.7280  145.7440 C   0  0  0  0  0  0  0  0  0  0  0  0
  190.6370  176.6500  146.9880 C   0  0  0  0  0  2  0  0  0  0  0  0
  185.6350  178.6720  144.6150 C   0  0  0  0  0  2  0  0  0  0  0  0
  184.3850  178.8080  145.4460 C   0  0  0  0  0  2  0  0  0  0  0  0
  186.0860  177.2890  144.7400 N   0  0  0  0  0  0  0  0  0  0  0  0
  184.5620  177.7940  146.5450 C   0  0  0  0  0  2  0  0  0  0  0  0
  185.5520  176.7810  146.0030 C   0  0  0  0  0  2  0  0  0  0  0  0
  1 38  1  0  0  0  0
  2 20  1  0  0  0  0
  2  1  2  0  0  0  0
  3  2  1  0  0  0  0
  4 18  1  6  0  0  0
  4  5  1  0  0  0  0
  5  3  1  1  0  0  0
  6  9  1  1  0  0  0
  6  4  1  0  0  0  0
  6  5  1  0  0  0  0
  8 12  2  0  0  0  0
  9  7  1  6  0  0  0
  9 10  1  0  0  0  0
 10 11  1  0  0  0  0
 12 15  1  0  0  0  0
 12 11  1  0  0  0  0
 13  8  1  0  0  0  0
 13  7  1  0  0  0  0
 14 15  2  0  0  0  0
 15 16  2  0  0  0  0
 17 18  2  0  0  0  0
 18 19  1  0  0  0  0
 21 20  1  1  0  0  0
 21 26  1  0  0  0  0
 21 24  1  0  0  0  0
 22 23  1  0  0  0  0
 23 27  1  6  0  0  0
 24 22  1  0  0  0  0
 25 23  1  0  0  0  0
 26 25  1  0  0  0  0
 27 28  1  0  0  0  0
 28 29  1  0  0  0  0
 29 30  1  0  0  0  0
 31 30  1  0  0  0  0
 32 36  1  0  0  0  0
 32 33  1  0  0  0  0
 33 34  1  0  0  0  0
 34 37  1  0  0  0  0
 35 31  1  0  0  0  0
 35 37  1  0  0  0  0
 36 35  2  0  0  0  0
 38 40  1  0  0  0  0
 39 41  1  0  0  0  0
 40 39  3  0  0  0  0
 42 41  1  1  0  0  0
 42 48  1  0  0  0  0
 43 42  1  0  0  0  0
 44 47  1  0  0  0  0
 45 44  1  0  0  0  0
 46 45  1  6  0  0  0
 46 43  1  0  0  0  0
 47 48  1  0  0  0  0
 48 49  2  0  0  0  0
 50 52  1  0  0  0  0
 50 51  1  0  0  0  0
 51 53  1  0  0  0  0
 52 46  1  0  0  0  0
 52 54  1  0  0  0  0
 54 53  1  0  0  0  0
M  END
>  <MODEL>
1

>  <REMARK>
 VINA RESULT:      -6.5      0.000      0.000
  Name = 
  18 active torsions:
  status: ('A' for Active; 'I' for Inactive)
    1  A    between atoms: O_1  and  C_34
    2  A    between atoms: O_1  and  C_35
    3  A    between atoms: C_6  and  C_7
    4  A    between atoms: C_7  and  C_28
    5  A    between atoms: C_10  and  C_17
    6  A    between atoms: C_10  and  O_37
    7  A    between atoms: C_13  and  C_16
    8  A    between atoms: C_14  and  C_34
    9  A    between atoms: C_14  and  O_37
   10  A    between atoms: C_18  and  C_25
   11  A    between atoms: C_19  and  O_27
   12  A    between atoms: N_20  and  C_31
   13  A    between atoms: C_23  and  O_27
   14  A    between atoms: C_23  and  N_38
   15  A    between atoms: C_24  and  N_38
   16  A    between atoms: C_25  and  C_30
   17  A    between atoms: C_32  and  C_39
   18  A    between atoms: C_46  and  N_53
                            x       y       z     vdW  Elec       q    Type
                         _______ _______ _______ _____ _____    ______ ____

>  <TORSDO>
F 18

$$$$
=
 OpenBabel11042415463D

 54 59  0  0  1  0  0  0  0  0999 V2000
  190.0470  172.0890  141.6660 C   0  0  0  0  0  3  0  0  0  0  0  0
  191.0190  171.3590  141.1200 C   0  0  0  0  0  0  0  0  0  0  0  0
  191.3250  171.4850  139.7260 N   0  0  0  0  0  2  0  0  0  0  0  0
  190.3450  173.4790  138.7310 C   0  0  1  0  0  3  0  0  0  0  0  0
  190.3750  171.9600  138.7250 C   0  0  1  0  0  3  0  0  0  0  0  0
  191.0470  172.7480  137.5970 C   0  0  2  0  0  3  0  0  0  0  0  0
  193.2610  172.3740  136.4820 C   0  0  0  0  0  2  0  0  0  0  0  0
  194.7910  174.2480  135.8320 C   0  0  0  0  0  3  0  0  0  0  0  0
  192.5600  172.9050  137.7420 C   0  0  1  0  0  3  0  0  0  0  0  0
  192.8800  174.3090  138.0050 N   0  0  0  0  0  2  0  0  0  0  0  0
  194.3060  174.4060  138.2920 C   0  0  0  0  0  2  0  0  0  0  0  0
  195.1160  174.7180  137.0520 C   0  0  0  0  0  0  0  0  0  0  0  0
  193.5470  173.4830  135.4780 C   0  0  0  0  0  2  0  0  0  0  0  0
  196.8820  176.1520  136.1610 O   0  0  0  0  0  0  0  0  0  0  0  0
  196.3510  175.4300  137.2070 N   0  0  0  0  0  0  0  0  0  0  0  0
  196.9590  175.4040  138.2970 O   0  0  0  0  0  0  0  0  0  0  0  0
  188.0760  174.1290  139.1090 O   0  0  0  0  0  0  0  0  0  0  0  0
  189.0070  173.9640  138.2760 C   0  0  0  0  0  0  0  0  0  0  0  0
  188.7940  174.2950  136.9080 N   0  0  0  0  0  1  0  0  0  0  0  0
  191.7400  170.4590  141.9110 O   0  0  0  0  0  0  0  0  0  0  0  0
  193.1640  170.4290  141.9270 C   0  0  1  0  0  3  0  0  0  0  0  0
  193.4160  171.9400  143.9380 C   0  0  0  0  0  2  0  0  0  0  0  0
  193.9210  170.7620  144.7710 C   0  0  1  0  0  3  0  0  0  0  0  0
  193.7390  171.7470  142.4550 C   0  0  0  0  0  2  0  0  0  0  0  0
  193.3290  169.4490  144.2460 C   0  0  0  0  0  2  0  0  0  0  0  0
  193.6570  169.2500  142.7660 C   0  0  0  0  0  2  0  0  0  0  0  0
  195.3190  170.7140  144.7470 O   0  0  0  0  0  0  0  0  0  0  0  0
  195.7240  171.3620  145.9130 C   0  0  0  0  0  2  0  0  0  0  0  0
  196.9430  172.2100  145.6220 C   0  0  0  0  0  2  0  0  0  0  0  0
  196.7250  172.9610  144.4680 O   0  0  0  0  0  0  0  0  0  0  0  0
  196.8770  174.2870  144.8750 C   0  0  0  0  0  2  0  0  0  0  0  0
  193.8110  175.9250  146.3940 C   0  0  0  0  0  2  0  0  0  0  0  0
  193.4020  176.7540  145.1780 C   0  0  0  0  0  2  0  0  0  0  0  0
  193.4560  175.8600  143.9440 C   0  0  0  0  0  2  0  0  0  0  0  0
  195.5400  174.9310  145.0090 C   0  0  0  0  0  0  0  0  0  0  0  0
  195.1170  175.2920  146.1850 N   0  0  0  0  0  0  0  0  0  0  0  0
  194.7780  175.2500  143.8370 N   0  0  0  0  0  2  0  0  0  0  0  0
  189.6940  171.9910  143.1100 C   0  0  0  0  0  2  0  0  0  0  0  0
  189.6080  174.4400  144.1640 C   0  0  0  0  0  0  0  0  0  0  0  0
  189.6490  173.3320  143.6920 C   0  0  0  0  0  0  0  0  0  0  0  0
  189.5540  175.7930  144.7250 C   0  0  0  0  0  2  0  0  0  0  0  0
  188.5550  176.6520  143.9530 C   0  0  1  0  0  3  0  0  0  0  0  0
  187.5470  177.3190  144.9000 C   0  0  0  0  0  2  0  0  0  0  0  0
  187.0410  177.8460  141.8260 C   0  0  0  0  0  2  0  0  0  0  0  0
  186.1310  178.3230  142.9670 C   0  0  0  0  0  2  0  0  0  0  0  0
  186.8500  178.5580  144.3160 C   0  0  1  0  0  3  0  0  0  0  0  0
  188.4030  178.2280  142.0120 O   0  0  0  0  0  0  0  0  0  0  0  0
  189.1930  177.6380  143.0020 C   0  0  0  0  0  0  0  0  0  0  0  0
  190.4600  178.0200  143.1250 C   0  0  0  0  0  2  0  0  0  0  0  0
  186.1700  178.5560  146.6380 C   0  0  0  0  0  2  0  0  0  0  0  0
  184.8200  178.5420  147.3070 C   0  0  0  0  0  2  0  0  0  0  0  0
  185.9970  179.1900  145.3340 N   0  0  0  0  0  0  0  0  0  0  0  0
  183.8430  178.4780  146.1640 C   0  0  0  0  0  2  0  0  0  0  0  0
  184.5940  179.0190  144.9620 C   0  0  0  0  0  2  0  0  0  0  0  0
  1 38  1  0  0  0  0
  2  1  2  0  0  0  0
  2 20  1  0  0  0  0
  3  2  1  0  0  0  0
  4 18  1  6  0  0  0
  5  4  1  0  0  0  0
  5  3  1  1  0  0  0
  6  9  1  1  0  0  0
  6  5  1  0  0  0  0
  6  4  1  0  0  0  0
  8 12  2  0  0  0  0
  9  7  1  6  0  0  0
  9 10  1  0  0  0  0
 10 11  1  0  0  0  0
 12 15  1  0  0  0  0
 12 11  1  0  0  0  0
 13  8  1  0  0  0  0
 13  7  1  0  0  0  0
 14 15  2  0  0  0  0
 15 16  2  0  0  0  0
 18 17  2  0  0  0  0
 19 18  1  0  0  0  0
 21 20  1  1  0  0  0
 21 24  1  0  0  0  0
 21 26  1  0  0  0  0
 22 23  1  0  0  0  0
 23 27  1  6  0  0  0
 24 22  1  0  0  0  0
 25 23  1  0  0  0  0
 26 25  1  0  0  0  0
 27 28  1  0  0  0  0
 29 28  1  0  0  0  0
 30 31  1  0  0  0  0
 30 29  1  0  0  0  0
 31 35  1  0  0  0  0
 33 32  1  0  0  0  0
 34 33  1  0  0  0  0
 35 36  2  0  0  0  0
 36 32  1  0  0  0  0
 37 34  1  0  0  0  0
 37 35  1  0  0  0  0
 38 40  1  0  0  0  0
 39 41  1  0  0  0  0
 40 39  3  0  0  0  0
 42 41  1  1  0  0  0
 42 43  1  0  0  0  0
 44 47  1  0  0  0  0
 44 45  1  0  0  0  0
 46 45  1  6  0  0  0
 46 43  1  0  0  0  0
 46 52  1  0  0  0  0
 47 48  1  0  0  0  0
 48 49  2  0  0  0  0
 48 42  1  0  0  0  0
 50 51  1  0  0  0  0
 52 50  1  0  0  0  0
 53 51  1  0  0  0  0
 54 52  1  0  0  0  0
 54 53  1  0  0  0  0
M  END
>  <MODEL>
2

>  <REMARK>
 VINA RESULT:      -6.5      2.423      3.748
  Name = 
  18 active torsions:
  status: ('A' for Active; 'I' for Inactive)
    1  A    between atoms: O_1  and  C_34
    2  A    between atoms: O_1  and  C_35
    3  A    between atoms: C_6  and  C_7
    4  A    between atoms: C_7  and  C_28
    5  A    between atoms: C_10  and  C_17
    6  A    between atoms: C_10  and  O_37
    7  A    between atoms: C_13  and  C_16
    8  A    between atoms: C_14  and  C_34
    9  A    between atoms: C_14  and  O_37
   10  A    between atoms: C_18  and  C_25
   11  A    between atoms: C_19  and  O_27
   12  A    between atoms: N_20  and  C_31
   13  A    between atoms: C_23  and  O_27
   14  A    between atoms: C_23  and  N_38
   15  A    between atoms: C_24  and  N_38
   16  A    between atoms: C_25  and  C_30
   17  A    between atoms: C_32  and  C_39
   18  A    between atoms: C_46  and  N_53
                            x       y       z     vdW  Elec       q    Type
                         _______ _______ _______ _____ _____    ______ ____

>  <TORSDO>
F 18

$$$$
=
 OpenBabel11042415463D

 54 59  0  0  1  0  0  0  0  0999 V2000
  189.3420  173.9780  142.7660 C   0  0  0  0  0  3  0  0  0  0  0  0
  190.3110  173.0720  142.6360 C   0  0  0  0  0  0  0  0  0  0  0  0
  191.4400  173.0870  143.5180 N   0  0  0  0  0  2  0  0  0  0  0  0
  193.1260  171.3310  143.4600 C   0  0  1  0  0  3  0  0  0  0  0  0
  191.9420  171.9080  144.2170 C   0  0  1  0  0  3  0  0  0  0  0  0
  193.3640  172.0970  144.7530 C   0  0  2  0  0  3  0  0  0  0  0  0
  194.8080  173.9410  145.6440 C   0  0  0  0  0  2  0  0  0  0  0  0
  197.0230  174.5430  144.6390 C   0  0  0  0  0  3  0  0  0  0  0  0
  193.9880  173.4550  144.4380 C   0  0  1  0  0  3  0  0  0  0  0  0
  194.7970  173.3500  143.2230 N   0  0  0  0  0  2  0  0  0  0  0  0
  195.2540  174.6860  142.8610 C   0  0  0  0  0  2  0  0  0  0  0  0
  196.6180  174.9970  143.4370 C   0  0  0  0  0  0  0  0  0  0  0  0
  196.2810  173.5750  145.5180 C   0  0  0  0  0  2  0  0  0  0  0  0
  197.7480  177.1570  143.2740 O   0  0  0  0  0  0  0  0  0  0  0  0
  197.4580  175.9220  142.7350 N   0  0  0  0  0  0  0  0  0  0  0  0
  197.9400  175.6170  141.6250 O   0  0  0  0  0  0  0  0  0  0  0  0
  192.7630  169.0440  142.8700 O   0  0  0  0  0  0  0  0  0  0  0  0
  193.2250  169.8620  143.7100 C   0  0  0  0  0  0  0  0  0  0  0  0
  193.8880  169.3770  144.8720 N   0  0  0  0  0  1  0  0  0  0  0  0
  190.2280  172.1040  141.6300 O   0  0  0  0  0  0  0  0  0  0  0  0
  191.2360  171.9480  140.6370 C   0  0  1  0  0  3  0  0  0  0  0  0
  189.6800  171.0750  138.8450 C   0  0  0  0  0  2  0  0  0  0  0  0
  189.8570  172.3690  138.0490 C   0  0  1  0  0  3  0  0  0  0  0  0
  190.9140  170.7790  139.7000 C   0  0  0  0  0  2  0  0  0  0  0  0
  190.1620  173.5350  138.9960 C   0  0  0  0  0  2  0  0  0  0  0  0
  191.4010  173.2450  139.8450 C   0  0  0  0  0  2  0  0  0  0  0  0
  190.8780  172.2220  137.1050 O   0  0  0  0  0  0  0  0  0  0  0  0
  190.5700  173.1320  136.0940 C   0  0  0  0  0  2  0  0  0  0  0  0
  191.7900  173.3540  135.2260 C   0  0  0  0  0  2  0  0  0  0  0  0
  192.2410  174.6640  135.3800 O   0  0  0  0  0  0  0  0  0  0  0  0
  193.6210  174.5880  135.1880 C   0  0  0  0  0  2  0  0  0  0  0  0
  196.1960  173.8350  137.8700 C   0  0  0  0  0  2  0  0  0  0  0  0
  195.9240  175.0490  138.7560 C   0  0  0  0  0  2  0  0  0  0  0  0
  194.4170  175.1870  138.9360 C   0  0  0  0  0  2  0  0  0  0  0  0
  194.3120  174.5350  136.5070 C   0  0  0  0  0  0  0  0  0  0  0  0
  195.4610  173.9320  136.6050 N   0  0  0  0  0  0  0  0  0  0  0  0
  193.7690  175.2430  137.6290 N   0  0  0  0  0  2  0  0  0  0  0  0
  188.1500  174.0010  141.8720 C   0  0  0  0  0  2  0  0  0  0  0  0
  186.5880  176.0640  142.5210 C   0  0  0  0  0  0  0  0  0  0  0  0
  187.2980  175.1350  142.2280 C   0  0  0  0  0  0  0  0  0  0  0  0
  185.7140  177.1850  142.8770 C   0  0  0  0  0  2  0  0  0  0  0  0
  185.7270  177.4150  144.3860 C   0  0  1  0  0  3  0  0  0  0  0  0
  187.0020  176.8460  145.0240 C   0  0  0  0  0  2  0  0  0  0  0  0
  184.9190  178.0660  147.0640 C   0  0  0  0  0  2  0  0  0  0  0  0
  186.2250  177.3570  147.4500 C   0  0  0  0  0  2  0  0  0  0  0  0
  187.3520  177.4480  146.3940 C   0  0  1  0  0  3  0  0  0  0  0  0
  185.1220  179.1180  146.1210 O   0  0  0  0  0  0  0  0  0  0  0  0
  185.4670  178.8480  144.7950 C   0  0  0  0  0  0  0  0  0  0  0  0
  185.6320  179.8630  143.9540 C   0  0  0  0  0  2  0  0  0  0  0  0
  189.6550  176.9880  145.8140 C   0  0  0  0  0  2  0  0  0  0  0  0
  190.5190  175.7620  145.9590 C   0  0  0  0  0  2  0  0  0  0  0  0
  188.6430  176.9270  146.8660 N   0  0  0  0  0  0  0  0  0  0  0  0
  189.5980  174.7300  146.5530 C   0  0  0  0  0  2  0  0  0  0  0  0
  188.4920  175.5190  147.2280 C   0  0  0  0  0  2  0  0  0  0  0  0
  2  1  2  0  0  0  0
  2  3  1  0  0  0  0
  4 18  1  1  0  0  0
  4  5  1  0  0  0  0
  4  6  1  0  0  0  0
  5  3  1  6  0  0  0
  5  6  1  0  0  0  0
  6  9  1  6  0  0  0
  8 13  1  0  0  0  0
  9  7  1  1  0  0  0
 10  9  1  0  0  0  0
 11 10  1  0  0  0  0
 11 12  1  0  0  0  0
 12  8  2  0  0  0  0
 13  7  1  0  0  0  0
 15 14  2  0  0  0  0
 15 12  1  0  0  0  0
 16 15  2  0  0  0  0
 17 18  2  0  0  0  0
 18 19  1  0  0  0  0
 20  2  1  0  0  0  0
 21 20  1  1  0  0  0
 22 24  1  0  0  0  0
 23 27  1  6  0  0  0
 23 22  1  0  0  0  0
 23 25  1  0  0  0  0
 24 21  1  0  0  0  0
 25 26  1  0  0  0  0
 26 21  1  0  0  0  0
 28 27  1  0  0  0  0
 29 30  1  0  0  0  0
 29 28  1  0  0  0  0
 31 30  1  0  0  0  0
 31 35  1  0  0  0  0
 32 33  1  0  0  0  0
 33 34  1  0  0  0  0
 35 36  2  0  0  0  0
 35 37  1  0  0  0  0
 36 32  1  0  0  0  0
 37 34  1  0  0  0  0
 38 40  1  0  0  0  0
 38  1  1  0  0  0  0
 39 41  1  0  0  0  0
 40 39  3  0  0  0  0
 42 41  1  6  0  0  0
 42 48  1  0  0  0  0
 42 43  1  0  0  0  0
 44 45  1  0  0  0  0
 46 43  1  6  0  0  0
 46 52  1  0  0  0  0
 46 45  1  0  0  0  0
 47 44  1  0  0  0  0
 48 47  1  0  0  0  0
 49 48  2  0  0  0  0
 50 51  1  0  0  0  0
 50 52  1  0  0  0  0
 51 53  1  0  0  0  0
 52 54  1  0  0  0  0
 53 54  1  0  0  0  0
M  END
>  <MODEL>
3

>  <REMARK>
 VINA RESULT:      -6.4      2.945      7.494
  Name = 
  18 active torsions:
  status: ('A' for Active; 'I' for Inactive)
    1  A    between atoms: O_1  and  C_34
    2  A    between atoms: O_1  and  C_35
    3  A    between atoms: C_6  and  C_7
    4  A    between atoms: C_7  and  C_28
    5  A    between atoms: C_10  and  C_17
    6  A    between atoms: C_10  and  O_37
    7  A    between atoms: C_13  and  C_16
    8  A    between atoms: C_14  and  C_34
    9  A    between atoms: C_14  and  O_37
   10  A    between atoms: C_18  and  C_25
   11  A    between atoms: C_19  and  O_27
   12  A    between atoms: N_20  and  C_31
   13  A    between atoms: C_23  and  O_27
   14  A    between atoms: C_23  and  N_38
   15  A    between atoms: C_24  and  N_38
   16  A    between atoms: C_25  and  C_30
   17  A    between atoms: C_32  and  C_39
   18  A    between atoms: C_46  and  N_53
                            x       y       z     vdW  Elec       q    Type
                         _______ _______ _______ _____ _____    ______ ____

>  <TORSDO>
F 18

$$$$
=
 OpenBabel11042415463D

 54 59  0  0  1  0  0  0  0  0999 V2000
  189.1220  172.5640  141.0040 C   0  0  0  0  0  2  0  0  0  0  0  0
  190.4190  172.3320  140.7980 C   0  0  0  0  0  0  0  0  0  0  0  0
  190.9080  172.0780  139.4760 N   0  0  0  0  0  0  0  0  0  0  0  0
  190.1920  173.8170  137.9300 C   0  0  1  0  0  3  0  0  0  0  0  0
  190.1410  172.3360  138.2620 C   0  0  1  0  0  3  0  0  0  0  0  0
  191.0110  172.8350  137.1060 C   0  0  2  0  0  3  0  0  0  0  0  0
  193.3460  172.3200  136.3550 C   0  0  0  0  0  2  0  0  0  0  0  0
  195.0000  174.0970  135.7340 C   0  0  0  0  0  3  0  0  0  0  0  0
  192.4930  172.9900  137.4430 C   0  0  1  0  0  3  0  0  0  0  0  0
  192.8110  174.4100  137.6010 N   0  0  0  0  0  2  0  0  0  0  0  0
  194.1860  174.5210  138.0720 C   0  0  0  0  0  2  0  0  0  0  0  0
  195.1660  174.6900  136.9320 C   0  0  0  0  0  0  0  0  0  0  0  0
  193.7970  173.3120  135.2910 C   0  0  0  0  0  2  0  0  0  0  0  0
  196.9730  176.1600  136.1940 O   0  0  0  0  0  0  0  0  0  0  0  0
  196.3860  175.4010  137.1830 N   0  0  0  0  0  0  0  0  0  0  0  0
  196.9290  175.3400  138.3040 O   0  0  0  0  0  0  0  0  0  0  0  0
  187.8420  174.2140  137.7550 O   0  0  0  0  0  0  0  0  0  0  0  0
  188.9630  174.2150  137.1800 C   0  0  0  0  0  0  0  0  0  0  0  0
  189.0600  174.6500  135.8280 N   0  0  0  0  0  1  0  0  0  0  0  0
  191.3050  172.3290  141.8800 O   0  0  0  0  0  0  0  0  0  0  0  0
  192.5360  173.0440  141.8580 C   0  0  1  0  0  3  0  0  0  0  0  0
  191.5070  175.3140  142.2850 C   0  0  0  0  0  2  0  0  0  0  0  0
  192.1360  175.3470  143.6780 C   0  0  1  0  0  3  0  0  0  0  0  0
  192.3410  174.4660  141.3220 C   0  0  0  0  0  2  0  0  0  0  0  0
  192.3130  173.9220  144.2130 C   0  0  0  0  0  2  0  0  0  0  0  0
  193.1530  173.0750  143.2570 C   0  0  0  0  0  2  0  0  0  0  0  0
  193.3650  176.0140  143.6400 O   0  0  0  0  0  0  0  0  0  0  0  0
  193.7010  176.2330  144.9760 C   0  0  0  0  0  2  0  0  0  0  0  0
  195.2000  176.3840  145.1010 C   0  0  0  0  0  2  0  0  0  0  0  0
  195.7870  175.1280  145.2440 O   0  0  0  0  0  0  0  0  0  0  0  0
  196.7260  175.0560  144.2140 C   0  0  0  0  0  2  0  0  0  0  0  0
  197.9300  171.4800  144.5940 C   0  0  0  0  0  2  0  0  0  0  0  0
  196.9580  170.8340  143.6080 C   0  0  0  0  0  2  0  0  0  0  0  0
  196.9370  171.6710  142.3350 C   0  0  0  0  0  2  0  0  0  0  0  0
  197.0360  173.6310  143.9110 C   0  0  0  0  0  0  0  0  0  0  0  0
  197.5900  172.8870  144.8240 N   0  0  0  0  0  0  0  0  0  0  0  0
  196.6240  173.0590  142.6630 N   0  0  0  0  0  2  0  0  0  0  0  0
  188.5680  172.8320  142.3610 C   0  0  0  0  0  2  0  0  0  0  0  0
  187.3440  175.2030  142.3640 C   0  0  0  0  0  0  0  0  0  0  0  0
  187.9010  174.1330  142.3660 C   0  0  0  0  0  0  0  0  0  0  0  0
  186.6580  176.4970  142.3520 C   0  0  0  0  0  2  0  0  0  0  0  0
  186.2130  176.8790  143.7610 C   0  0  1  0  0  3  0  0  0  0  0  0
  187.2790  176.5080  144.8020 C   0  0  0  0  0  2  0  0  0  0  0  0
  184.6130  177.7110  145.9960 C   0  0  0  0  0  2  0  0  0  0  0  0
  185.7920  177.1800  146.8230 C   0  0  0  0  0  2  0  0  0  0  0  0
  187.1700  177.2770  146.1280 C   0  0  1  0  0  3  0  0  0  0  0  0
  185.0120  178.6780  145.0260 O   0  0  0  0  0  0  0  0  0  0  0  0
  185.7490  178.3120  143.8970 C   0  0  0  0  0  0  0  0  0  0  0  0
  186.0850  179.2480  143.0170 C   0  0  0  0  0  2  0  0  0  0  0  0
  189.5680  177.3710  146.4320 C   0  0  0  0  0  2  0  0  0  0  0  0
  190.5940  176.3250  146.7860 C   0  0  0  0  0  2  0  0  0  0  0  0
  188.2980  176.9380  147.0080 N   0  0  0  0  0  0  0  0  0  0  0  0
  189.8010  175.0500  146.8900 C   0  0  0  0  0  2  0  0  0  0  0  0
  188.3730  175.4860  147.1590 C   0  0  0  0  0  2  0  0  0  0  0  0
  1 38  1  0  0  0  0
  2  1  1  0  0  0  0
  2 20  1  0  0  0  0
  3  2  2  0  0  0  0
  4 18  1  6  0  0  0
  4  5  1  0  0  0  0
  5  3  1  1  0  0  0
  6  9  1  1  0  0  0
  6  4  1  0  0  0  0
  6  5  1  0  0  0  0
  8 12  2  0  0  0  0
  9  7  1  6  0  0  0
  9 10  1  0  0  0  0
 10 11  1  0  0  0  0
 12 15  1  0  0  0  0
 12 11  1  0  0  0  0
 13  8  1  0  0  0  0
 13  7  1  0  0  0  0
 14 15  2  0  0  0  0
 15 16  2  0  0  0  0
 18 17  2  0  0  0  0
 19 18  1  0  0  0  0
 21 20  1  1  0  0  0
 21 26  1  0  0  0  0
 22 23  1  0  0  0  0
 23 27  1  6  0  0  0
 23 25  1  0  0  0  0
 24 21  1  0  0  0  0
 24 22  1  0  0  0  0
 26 25  1  0  0  0  0
 27 28  1  0  0  0  0
 28 29  1  0  0  0  0
 29 30  1  0  0  0  0
 31 30  1  0  0  0  0
 32 36  1  0  0  0  0
 33 32  1  0  0  0  0
 34 37  1  0  0  0  0
 34 33  1  0  0  0  0
 35 31  1  0  0  0  0
 35 36  2  0  0  0  0
 37 35  1  0  0  0  0
 38 40  1  0  0  0  0
 39 40  3  0  0  0  0
 41 39  1  0  0  0  0
 42 41  1  6  0  0  0
 42 48  1  0  0  0  0
 42 43  1  0  0  0  0
 44 45  1  0  0  0  0
 46 43  1  6  0  0  0
 46 45  1  0  0  0  0
 46 52  1  0  0  0  0
 47 44  1  0  0  0  0
 48 47  1  0  0  0  0
 49 48  2  0  0  0  0
 50 51  1  0  0  0  0
 50 52  1  0  0  0  0
 51 53  1  0  0  0  0
 52 54  1  0  0  0  0
 53 54  1  0  0  0  0
M  END
>  <MODEL>
4

>  <REMARK>
 VINA RESULT:      -6.4      2.889      4.952
  Name = 
  18 active torsions:
  status: ('A' for Active; 'I' for Inactive)
    1  A    between atoms: O_1  and  C_34
    2  A    between atoms: O_1  and  C_35
    3  A    between atoms: C_6  and  C_7
    4  A    between atoms: C_7  and  C_28
    5  A    between atoms: C_10  and  C_17
    6  A    between atoms: C_10  and  O_37
    7  A    between atoms: C_13  and  C_16
    8  A    between atoms: C_14  and  C_34
    9  A    between atoms: C_14  and  O_37
   10  A    between atoms: C_18  and  C_25
   11  A    between atoms: C_19  and  O_27
   12  A    between atoms: N_20  and  C_31
   13  A    between atoms: C_23  and  O_27
   14  A    between atoms: C_23  and  N_38
   15  A    between atoms: C_24  and  N_38
   16  A    between atoms: C_25  and  C_30
   17  A    between atoms: C_32  and  C_39
   18  A    between atoms: C_46  and  N_53
                            x       y       z     vdW  Elec       q    Type
                         _______ _______ _______ _____ _____    ______ ____

>  <TORSDO>
F 18

$$$$
=
 OpenBabel11042415463D

 54 59  0  0  1  0  0  0  0  0999 V2000
  190.1190  172.4890  143.2360 C   0  0  0  0  0  3  0  0  0  0  0  0
  189.3620  173.1590  142.3670 C   0  0  0  0  0  0  0  0  0  0  0  0
  188.7710  174.4100  142.7360 N   0  0  0  0  0  2  0  0  0  0  0  0
  189.4730  176.7350  142.9070 C   0  0  1  0  0  3  0  0  0  0  0  0
  189.4140  175.3880  143.6070 C   0  0  1  0  0  3  0  0  0  0  0  0
  188.4710  176.5170  144.0300 C   0  0  2  0  0  3  0  0  0  0  0  0
  186.0250  176.5570  144.5790 C   0  0  0  0  0  2  0  0  0  0  0  0
  184.4690  178.3270  143.7290 C   0  0  0  0  0  3  0  0  0  0  0  0
  187.0610  176.4200  143.4510 C   0  0  1  0  0  3  0  0  0  0  0  0
  186.8890  177.4380  142.4140 N   0  0  0  0  0  2  0  0  0  0  0  0
  185.5970  177.2260  141.7730 C   0  0  0  0  0  2  0  0  0  0  0  0
  184.5030  178.0550  142.4100 C   0  0  0  0  0  0  0  0  0  0  0  0
  185.5360  177.9910  144.7330 C   0  0  0  0  0  2  0  0  0  0  0  0
  182.1710  178.7440  142.1720 O   0  0  0  0  0  0  0  0  0  0  0  0
  183.3890  178.4500  141.5980 N   0  0  0  0  0  0  0  0  0  0  0  0
  183.5120  178.5340  140.3600 O   0  0  0  0  0  0  0  0  0  0  0  0
  191.7090  177.5620  142.7410 O   0  0  0  0  0  0  0  0  0  0  0  0
  190.6400  177.5210  143.4070 C   0  0  0  0  0  0  0  0  0  0  0  0
  190.5340  178.2710  144.6120 N   0  0  0  0  0  1  0  0  0  0  0  0
  189.1380  172.6330  141.0910 O   0  0  0  0  0  0  0  0  0  0  0  0
  189.5000  173.3330  139.9040 C   0  0  1  0  0  3  0  0  0  0  0  0
  191.7760  172.2570  139.6720 C   0  0  0  0  0  2  0  0  0  0  0  0
  191.3010  171.4990  138.4320 C   0  0  1  0  0  3  0  0  0  0  0  0
  191.0120  173.5720  139.8420 C   0  0  0  0  0  2  0  0  0  0  0  0
  189.7900  171.2500  138.5100 C   0  0  0  0  0  2  0  0  0  0  0  0
  189.0240  172.5640  138.6720 C   0  0  0  0  0  2  0  0  0  0  0  0
  191.6220  172.2140  137.2730 O   0  0  0  0  0  0  0  0  0  0  0  0
  191.9350  171.2420  136.3230 C   0  0  0  0  0  2  0  0  0  0  0  0
  193.3720  170.8050  136.5030 C   0  0  0  0  0  2  0  0  0  0  0  0
  194.2250  171.8630  136.1920 O   0  0  0  0  0  0  0  0  0  0  0  0
  195.2550  171.7750  137.1280 C   0  0  0  0  0  2  0  0  0  0  0  0
  195.2580  173.4630  140.5250 C   0  0  0  0  0  2  0  0  0  0  0  0
  195.3290  174.9070  140.0320 C   0  0  0  0  0  2  0  0  0  0  0  0
  194.3100  175.0860  138.9130 C   0  0  0  0  0  2  0  0  0  0  0  0
  195.0500  172.7870  138.2020 C   0  0  0  0  0  0  0  0  0  0  0  0
  195.4330  172.5190  139.4170 N   0  0  0  0  0  0  0  0  0  0  0  0
  194.5400  174.0870  137.8740 N   0  0  0  0  0  2  0  0  0  0  0  0
  190.7540  171.1840  142.8970 C   0  0  0  0  0  2  0  0  0  0  0  0
  193.2960  171.1940  143.7080 C   0  0  0  0  0  0  0  0  0  0  0  0
  192.1460  171.1890  143.3460 C   0  0  0  0  0  0  0  0  0  0  0  0
  194.6980  171.1970  144.1330 C   0  0  0  0  0  2  0  0  0  0  0  0
  195.2590  172.6160  144.1150 C   0  0  1  0  0  3  0  0  0  0  0  0
  194.1680  173.6500  144.4290 C   0  0  0  0  0  2  0  0  0  0  0  0
  196.9960  174.8690  143.7240 C   0  0  0  0  0  2  0  0  0  0  0  0
  195.7220  175.6840  143.9870 C   0  0  0  0  0  2  0  0  0  0  0  0
  194.6980  175.0050  144.9260 C   0  0  1  0  0  3  0  0  0  0  0  0
  197.2820  173.9410  144.7700 O   0  0  0  0  0  0  0  0  0  0  0  0
  196.4940  172.8050  144.9670 C   0  0  0  0  0  0  0  0  0  0  0  0
  196.8110  171.9650  145.9460 C   0  0  0  0  0  2  0  0  0  0  0  0
  193.8200  176.5090  146.6050 C   0  0  0  0  0  2  0  0  0  0  0  0
  192.4920  176.5860  147.3130 C   0  0  0  0  0  2  0  0  0  0  0  0
  193.5800  175.8800  145.3090 N   0  0  0  0  0  0  0  0  0  0  0  0
  191.7200  175.4100  146.7770 C   0  0  0  0  0  2  0  0  0  0  0  0
  192.3650  175.0780  145.4460 C   0  0  0  0  0  2  0  0  0  0  0  0
  2  3  1  0  0  0  0
  2  1  2  0  0  0  0
  4 18  1  1  0  0  0
  4  5  1  0  0  0  0
  4  6  1  0  0  0  0
  5  3  1  6  0  0  0
  5  6  1  0  0  0  0
  6  9  1  6  0  0  0
  7 13  1  0  0  0  0
  8 13  1  0  0  0  0
  9  7  1  1  0  0  0
 10  9  1  0  0  0  0
 11 12  1  0  0  0  0
 11 10  1  0  0  0  0
 12  8  2  0  0  0  0
 15 14  2  0  0  0  0
 15 12  1  0  0  0  0
 16 15  2  0  0  0  0
 17 18  2  0  0  0  0
 18 19  1  0  0  0  0
 20  2  1  0  0  0  0
 21 20  1  1  0  0  0
 22 24  1  0  0  0  0
 23 27  1  6  0  0  0
 23 25  1  0  0  0  0
 23 22  1  0  0  0  0
 24 21  1  0  0  0  0
 25 26  1  0  0  0  0
 26 21  1  0  0  0  0
 28 29  1  0  0  0  0
 28 27  1  0  0  0  0
 30 29  1  0  0  0  0
 30 31  1  0  0  0  0
 31 35  1  0  0  0  0
 33 32  1  0  0  0  0
 34 33  1  0  0  0  0
 35 36  2  0  0  0  0
 36 32  1  0  0  0  0
 37 35  1  0  0  0  0
 37 34  1  0  0  0  0
 38  1  1  0  0  0  0
 38 40  1  0  0  0  0
 39 41  1  0  0  0  0
 40 39  3  0  0  0  0
 42 41  1  1  0  0  0
 42 43  1  0  0  0  0
 42 48  1  0  0  0  0
 43 46  1  0  0  0  0
 44 45  1  0  0  0  0
 44 47  1  0  0  0  0
 46 45  1  6  0  0  0
 46 52  1  0  0  0  0
 47 48  1  0  0  0  0
 48 49  2  0  0  0  0
 50 51  1  0  0  0  0
 52 54  1  0  0  0  0
 52 50  1  0  0  0  0
 53 51  1  0  0  0  0
 54 53  1  0  0  0  0
M  END
>  <MODEL>
5

>  <REMARK>
 VINA RESULT:      -6.4      2.620      7.300
  Name = 
  18 active torsions:
  status: ('A' for Active; 'I' for Inactive)
    1  A    between atoms: O_1  and  C_34
    2  A    between atoms: O_1  and  C_35
    3  A    between atoms: C_6  and  C_7
    4  A    between atoms: C_7  and  C_28
    5  A    between atoms: C_10  and  C_17
    6  A    between atoms: C_10  and  O_37
    7  A    between atoms: C_13  and  C_16
    8  A    between atoms: C_14  and  C_34
    9  A    between atoms: C_14  and  O_37
   10  A    between atoms: C_18  and  C_25
   11  A    between atoms: C_19  and  O_27
   12  A    between atoms: N_20  and  C_31
   13  A    between atoms: C_23  and  O_27
   14  A    between atoms: C_23  and  N_38
   15  A    between atoms: C_24  and  N_38
   16  A    between atoms: C_25  and  C_30
   17  A    between atoms: C_32  and  C_39
   18  A    between atoms: C_46  and  N_53
                            x       y       z     vdW  Elec       q    Type
                         _______ _______ _______ _____ _____    ______ ____

>  <TORSDO>
F 18

$$$$
=
 OpenBabel11042415463D

 54 59  0  0  1  0  0  0  0  0999 V2000
  190.8910  172.9070  144.6410 C   0  0  0  0  0  3  0  0  0  0  0  0
  190.1640  173.9010  144.1310 C   0  0  0  0  0  0  0  0  0  0  0  0
  190.0830  175.1610  144.8070 N   0  0  0  0  0  2  0  0  0  0  0  0
  190.4310  176.8310  146.5450 C   0  0  1  0  0  3  0  0  0  0  0  0
  190.3970  175.3470  146.2200 C   0  0  1  0  0  3  0  0  0  0  0  0
  189.2490  175.9900  147.0030 C   0  0  2  0  0  3  0  0  0  0  0  0
  186.7520  176.2120  147.0280 C   0  0  0  0  0  2  0  0  0  0  0  0
  185.5760  178.3900  146.6410 C   0  0  0  0  0  3  0  0  0  0  0  0
  188.0190  176.3320  146.1640 C   0  0  1  0  0  3  0  0  0  0  0  0
  188.1750  177.6690  145.5920 N   0  0  0  0  0  2  0  0  0  0  0  0
  187.0650  177.9080  144.6770 C   0  0  0  0  0  2  0  0  0  0  0  0
  185.9110  178.6110  145.3550 C   0  0  0  0  0  0  0  0  0  0  0  0
  186.3410  177.5510  147.6260 C   0  0  0  0  0  2  0  0  0  0  0  0
  185.5660  180.5360  143.8900 O   0  0  0  0  0  0  0  0  0  0  0  0
  185.0580  179.4430  144.5580 N   0  0  0  0  0  0  0  0  0  0  0  0
  183.8410  179.1840  144.4580 O   0  0  0  0  0  0  0  0  0  0  0  0
  192.5370  176.6450  147.6590 O   0  0  0  0  0  0  0  0  0  0  0  0
  191.3550  177.0820  147.6910 C   0  0  0  0  0  0  0  0  0  0  0  0
  190.9230  177.8620  148.8000 N   0  0  0  0  0  1  0  0  0  0  0  0
  189.4690  173.7100  142.9320 O   0  0  0  0  0  0  0  0  0  0  0  0
  189.6570  174.5530  141.8000 C   0  0  1  0  0  3  0  0  0  0  0  0
  190.7700  172.7920  140.3670 C   0  0  0  0  0  2  0  0  0  0  0  0
  189.5450  172.7490  139.4530 C   0  0  1  0  0  3  0  0  0  0  0  0
  190.9210  174.1650  141.0250 C   0  0  0  0  0  2  0  0  0  0  0  0
  188.2830  173.1220  140.2400 C   0  0  0  0  0  2  0  0  0  0  0  0
  188.4280  174.4980  140.8920 C   0  0  0  0  0  2  0  0  0  0  0  0
  189.7190  173.6120  138.3670 O   0  0  0  0  0  0  0  0  0  0  0  0
  188.9420  173.0690  137.3440 C   0  0  0  0  0  2  0  0  0  0  0  0
  189.7750  172.9460  136.0880 C   0  0  0  0  0  2  0  0  0  0  0  0
  190.9630  172.2770  136.3780 O   0  0  0  0  0  0  0  0  0  0  0  0
  190.6610  170.9270  136.2030 C   0  0  0  0  0  2  0  0  0  0  0  0
  192.6410  169.6470  139.1750 C   0  0  0  0  0  2  0  0  0  0  0  0
  191.4540  169.2840  140.0660 C   0  0  0  0  0  2  0  0  0  0  0  0
  190.4420  168.5110  139.2280 C   0  0  0  0  0  2  0  0  0  0  0  0
  191.0390  170.1610  137.4230 C   0  0  0  0  0  0  0  0  0  0  0  0
  192.1990  170.3680  137.9770 N   0  0  0  0  0  0  0  0  0  0  0  0
  190.0860  169.2880  138.0450 N   0  0  0  0  0  2  0  0  0  0  0  0
  191.0030  171.5800  143.9730 C   0  0  0  0  0  2  0  0  0  0  0  0
  193.3700  171.3960  142.7550 C   0  0  0  0  0  0  0  0  0  0  0  0
  192.3020  171.4780  143.3100 C   0  0  0  0  0  0  0  0  0  0  0  0
  194.6600  171.2990  142.0670 C   0  0  0  0  0  2  0  0  0  0  0  0
  194.9400  172.5730  141.2740 C   0  0  1  0  0  3  0  0  0  0  0  0
  194.5540  173.8240  142.0760 C   0  0  0  0  0  2  0  0  0  0  0  0
  195.5730  174.3860  139.1390 C   0  0  0  0  0  2  0  0  0  0  0  0
  195.0450  175.4500  140.1100 C   0  0  0  0  0  2  0  0  0  0  0  0
  195.2400  175.1180  141.6080 C   0  0  1  0  0  3  0  0  0  0  0  0
  196.6110  173.5880  139.7070 O   0  0  0  0  0  0  0  0  0  0  0  0
  196.3420  172.6570  140.7130 C   0  0  0  0  0  0  0  0  0  0  0  0
  197.3410  171.9300  141.2000 C   0  0  0  0  0  2  0  0  0  0  0  0
  195.7790  176.2590  143.6720 C   0  0  0  0  0  2  0  0  0  0  0  0
  194.9430  176.6900  144.8490 C   0  0  0  0  0  2  0  0  0  0  0  0
  194.8990  176.2300  142.5070 N   0  0  0  0  0  0  0  0  0  0  0  0
  193.5590  176.1990  144.5170 C   0  0  0  0  0  2  0  0  0  0  0  0
  193.5380  176.0450  143.0090 C   0  0  0  0  0  2  0  0  0  0  0  0
  2  1  2  0  0  0  0
  2  3  1  0  0  0  0
  4  6  1  0  0  0  0
  4 18  1  1  0  0  0
  5  3  1  6  0  0  0
  5  4  1  0  0  0  0
  5  6  1  0  0  0  0
  6  9  1  6  0  0  0
  7 13  1  0  0  0  0
  8 13  1  0  0  0  0
  9  7  1  1  0  0  0
 10  9  1  0  0  0  0
 11 12  1  0  0  0  0
 11 10  1  0  0  0  0
 12  8  2  0  0  0  0
 14 15  2  0  0  0  0
 15 12  1  0  0  0  0
 16 15  2  0  0  0  0
 17 18  2  0  0  0  0
 18 19  1  0  0  0  0
 20  2  1  0  0  0  0
 21 20  1  1  0  0  0
 22 24  1  0  0  0  0
 23 27  1  6  0  0  0
 23 25  1  0  0  0  0
 23 22  1  0  0  0  0
 24 21  1  0  0  0  0
 25 26  1  0  0  0  0
 26 21  1  0  0  0  0
 28 27  1  0  0  0  0
 29 30  1  0  0  0  0
 29 28  1  0  0  0  0
 31 30  1  0  0  0  0
 31 35  1  0  0  0  0
 32 33  1  0  0  0  0
 34 33  1  0  0  0  0
 35 36  2  0  0  0  0
 35 37  1  0  0  0  0
 36 32  1  0  0  0  0
 37 34  1  0  0  0  0
 38  1  1  0  0  0  0
 39 40  3  0  0  0  0
 40 38  1  0  0  0  0
 41 39  1  0  0  0  0
 42 41  1  1  0  0  0
 42 43  1  0  0  0  0
 44 47  1  0  0  0  0
 44 45  1  0  0  0  0
 46 45  1  6  0  0  0
 46 43  1  0  0  0  0
 46 52  1  0  0  0  0
 47 48  1  0  0  0  0
 48 49  2  0  0  0  0
 48 42  1  0  0  0  0
 50 51  1  0  0  0  0
 52 54  1  0  0  0  0
 52 50  1  0  0  0  0
 53 51  1  0  0  0  0
 54 53  1  0  0  0  0
M  END
>  <MODEL>
6

>  <REMARK>
 VINA RESULT:      -6.3      2.636      9.054
  Name = 
  18 active torsions:
  status: ('A' for Active; 'I' for Inactive)
    1  A    between atoms: O_1  and  C_34
    2  A    between atoms: O_1  and  C_35
    3  A    between atoms: C_6  and  C_7
    4  A    between atoms: C_7  and  C_28
    5  A    between atoms: C_10  and  C_17
    6  A    between atoms: C_10  and  O_37
    7  A    between atoms: C_13  and  C_16
    8  A    between atoms: C_14  and  C_34
    9  A    between atoms: C_14  and  O_37
   10  A    between atoms: C_18  and  C_25
   11  A    between atoms: C_19  and  O_27
   12  A    between atoms: N_20  and  C_31
   13  A    between atoms: C_23  and  O_27
   14  A    between atoms: C_23  and  N_38
   15  A    between atoms: C_24  and  N_38
   16  A    between atoms: C_25  and  C_30
   17  A    between atoms: C_32  and  C_39
   18  A    between atoms: C_46  and  N_53
                            x       y       z     vdW  Elec       q    Type
                         _______ _______ _______ _____ _____    ______ ____

>  <TORSDO>
F 18

$$$$
=
 OpenBabel11042415463D

 54 59  0  0  1  0  0  0  0  0999 V2000
  193.5160  175.6560  145.6810 C   0  0  0  0  0  3  0  0  0  0  0  0
  193.0820  175.8500  144.4350 C   0  0  0  0  0  0  0  0  0  0  0  0
  191.6920  175.7070  144.1210 N   0  0  0  0  0  2  0  0  0  0  0  0
  189.8710  174.2990  143.3270 C   0  0  1  0  0  3  0  0  0  0  0  0
  191.1910  174.9620  142.9700 C   0  0  1  0  0  3  0  0  0  0  0  0
  189.8760  175.5250  142.4260 C   0  0  2  0  0  3  0  0  0  0  0  0
  189.0160  177.8700  142.2120 C   0  0  0  0  0  2  0  0  0  0  0  0
  186.6710  178.5190  142.8100 C   0  0  0  0  0  3  0  0  0  0  0  0
  189.3320  176.7290  143.1930 C   0  0  1  0  0  3  0  0  0  0  0  0
  188.1590  176.3230  143.9680 N   0  0  0  0  0  2  0  0  0  0  0  0
  187.7540  177.4460  144.8060 C   0  0  0  0  0  2  0  0  0  0  0  0
  186.7010  178.3020  144.1390 C   0  0  0  0  0  0  0  0  0  0  0  0
  187.5540  177.8660  141.7840 C   0  0  0  0  0  2  0  0  0  0  0  0
  185.7980  178.8580  146.3410 O   0  0  0  0  0  0  0  0  0  0  0  0
  185.7790  179.0190  144.9720 N   0  0  0  0  0  0  0  0  0  0  0  0
  184.9490  179.8000  144.4650 O   0  0  0  0  0  0  0  0  0  0  0  0
  188.5250  172.6120  142.3000 O   0  0  0  0  0  0  0  0  0  0  0  0
  189.6830  173.0630  142.5090 C   0  0  0  0  0  0  0  0  0  0  0  0
  190.8060  172.4200  141.9160 N   0  0  0  0  0  1  0  0  0  0  0  0
  193.9910  176.1890  143.4280 O   0  0  0  0  0  0  0  0  0  0  0  0
  194.1260  175.4250  142.2330 C   0  0  1  0  0  3  0  0  0  0  0  0
  196.0360  176.7860  141.2880 C   0  0  0  0  0  2  0  0  0  0  0  0
  196.9910  175.6110  141.5040 C   0  0  1  0  0  3  0  0  0  0  0  0
  194.6020  176.2990  141.0680 C   0  0  0  0  0  2  0  0  0  0  0  0
  196.5150  174.7520  142.6820 C   0  0  0  0  0  2  0  0  0  0  0  0
  195.0850  174.2570  142.4600 C   0  0  0  0  0  2  0  0  0  0  0  0
  197.0840  174.8410  140.3410 O   0  0  0  0  0  0  0  0  0  0  0  0
  197.7180  175.6650  139.4110 C   0  0  0  0  0  2  0  0  0  0  0  0
  197.4160  175.1730  138.0130 C   0  0  0  0  0  2  0  0  0  0  0  0
  196.3720  174.2510  138.0570 O   0  0  0  0  0  0  0  0  0  0  0  0
  195.2620  174.9490  137.5800 C   0  0  0  0  0  2  0  0  0  0  0  0
  191.8300  173.6270  138.5100 C   0  0  0  0  0  2  0  0  0  0  0  0
  191.5510  172.8630  137.2170 C   0  0  0  0  0  2  0  0  0  0  0  0
  192.7890  172.0490  136.8610 C   0  0  0  0  0  2  0  0  0  0  0  0
  194.0530  174.0810  137.6440 C   0  0  0  0  0  0  0  0  0  0  0  0
  193.0480  174.4340  138.3930 N   0  0  0  0  0  0  0  0  0  0  0  0
  193.9540  172.9260  136.8000 N   0  0  0  0  0  2  0  0  0  0  0  0
  194.9520  175.7940  146.0540 C   0  0  0  0  0  2  0  0  0  0  0  0
  196.1230  173.3970  145.9960 C   0  0  0  0  0  0  0  0  0  0  0  0
  195.5900  174.4780  146.0250 C   0  0  0  0  0  0  0  0  0  0  0  0
  196.7800  172.0880  145.9500 C   0  0  0  0  0  2  0  0  0  0  0  0
  195.8160  171.0250  145.4290 C   0  0  1  0  0  3  0  0  0  0  0  0
  195.7570  171.0320  143.8950 C   0  0  0  0  0  2  0  0  0  0  0  0
  193.7860  168.9980  145.2970 C   0  0  0  0  0  2  0  0  0  0  0  0
  193.8580  169.2620  143.7860 C   0  0  0  0  0  2  0  0  0  0  0  0
  195.2410  169.7240  143.2720 C   0  0  1  0  0  3  0  0  0  0  0  0
  195.0570  168.6760  145.8610 O   0  0  0  0  0  0  0  0  0  0  0  0
  196.0580  169.6420  145.9910 C   0  0  0  0  0  0  0  0  0  0  0  0
  197.2190  169.2940  146.5340 C   0  0  0  0  0  2  0  0  0  0  0  0
  196.0960  170.9540  141.3720 C   0  0  0  0  0  2  0  0  0  0  0  0
  195.4480  171.4640  140.1100 C   0  0  0  0  0  2  0  0  0  0  0  0
  195.3320  169.7870  141.8050 N   0  0  0  0  0  0  0  0  0  0  0  0
  194.0010  171.0780  140.2570 C   0  0  0  0  0  2  0  0  0  0  0  0
  193.9890  169.9270  141.2440 C   0  0  0  0  0  2  0  0  0  0  0  0
  1 38  1  0  0  0  0
  2  1  2  0  0  0  0
  3  2  1  0  0  0  0
  4 18  1  6  0  0  0
  5  4  1  0  0  0  0
  5  3  1  1  0  0  0
  6  5  1  0  0  0  0
  6  9  1  1  0  0  0
  6  4  1  0  0  0  0
  8 12  2  0  0  0  0
  9  7  1  6  0  0  0
  9 10  1  0  0  0  0
 10 11  1  0  0  0  0
 12 11  1  0  0  0  0
 12 15  1  0  0  0  0
 13  7  1  0  0  0  0
 13  8  1  0  0  0  0
 15 14  2  0  0  0  0
 16 15  2  0  0  0  0
 17 18  2  0  0  0  0
 19 18  1  0  0  0  0
 20  2  1  0  0  0  0
 21 26  1  0  0  0  0
 21 20  1  1  0  0  0
 22 23  1  0  0  0  0
 23 27  1  6  0  0  0
 23 25  1  0  0  0  0
 24 22  1  0  0  0  0
 24 21  1  0  0  0  0
 26 25  1  0  0  0  0
 28 27  1  0  0  0  0
 29 30  1  0  0  0  0
 29 28  1  0  0  0  0
 31 35  1  0  0  0  0
 31 30  1  0  0  0  0
 33 32  1  0  0  0  0
 34 33  1  0  0  0  0
 35 36  2  0  0  0  0
 36 32  1  0  0  0  0
 37 34  1  0  0  0  0
 37 35  1  0  0  0  0
 39 40  3  0  0  0  0
 40 38  1  0  0  0  0
 41 39  1  0  0  0  0
 42 41  1  6  0  0  0
 42 48  1  0  0  0  0
 43 42  1  0  0  0  0
 44 47  1  0  0  0  0
 45 44  1  0  0  0  0
 46 52  1  6  0  0  0
 46 45  1  0  0  0  0
 46 43  1  0  0  0  0
 47 48  1  0  0  0  0
 48 49  2  0  0  0  0
 50 52  1  0  0  0  0
 51 53  1  0  0  0  0
 51 50  1  0  0  0  0
 53 54  1  0  0  0  0
 54 52  1  0  0  0  0
M  END
>  <MODEL>
7

>  <REMARK>
 VINA RESULT:      -6.3      3.184      8.209
  Name = 
  18 active torsions:
  status: ('A' for Active; 'I' for Inactive)
    1  A    between atoms: O_1  and  C_34
    2  A    between atoms: O_1  and  C_35
    3  A    between atoms: C_6  and  C_7
    4  A    between atoms: C_7  and  C_28
    5  A    between atoms: C_10  and  C_17
    6  A    between atoms: C_10  and  O_37
    7  A    between atoms: C_13  and  C_16
    8  A    between atoms: C_14  and  C_34
    9  A    between atoms: C_14  and  O_37
   10  A    between atoms: C_18  and  C_25
   11  A    between atoms: C_19  and  O_27
   12  A    between atoms: N_20  and  C_31
   13  A    between atoms: C_23  and  O_27
   14  A    between atoms: C_23  and  N_38
   15  A    between atoms: C_24  and  N_38
   16  A    between atoms: C_25  and  C_30
   17  A    between atoms: C_32  and  C_39
   18  A    between atoms: C_46  and  N_53
                            x       y       z     vdW  Elec       q    Type
                         _______ _______ _______ _____ _____    ______ ____

>  <TORSDO>
F 18

$$$$
=
 OpenBabel11042415463D

 54 59  0  0  1  0  0  0  0  0999 V2000
  191.9580  172.0600  142.8750 C   0  0  0  0  0  3  0  0  0  0  0  0
  191.3830  173.2410  142.6490 C   0  0  0  0  0  0  0  0  0  0  0  0
  191.0900  173.6610  141.3110 N   0  0  0  0  0  2  0  0  0  0  0  0
  189.9150  173.7900  139.1830 C   0  0  1  0  0  3  0  0  0  0  0  0
  190.1950  172.9400  140.4110 C   0  0  1  0  0  3  0  0  0  0  0  0
  190.8520  172.5970  139.0720 C   0  0  2  0  0  3  0  0  0  0  0  0
  193.2140  171.8970  138.6070 C   0  0  0  0  0  2  0  0  0  0  0  0
  194.4920  172.6700  136.5960 C   0  0  0  0  0  3  0  0  0  0  0  0
  192.2920  173.0860  138.9230 C   0  0  1  0  0  3  0  0  0  0  0  0
  192.3500  174.1230  137.8930 N   0  0  0  0  0  2  0  0  0  0  0  0
  193.6980  174.6780  137.8790 C   0  0  0  0  0  2  0  0  0  0  0  0
  194.5890  173.9850  136.8720 C   0  0  0  0  0  0  0  0  0  0  0  0
  193.4370  171.7310  137.1100 C   0  0  0  0  0  2  0  0  0  0  0  0
  195.5200  176.0700  136.0020 O   0  0  0  0  0  0  0  0  0  0  0  0
  195.6670  174.7310  136.2910 N   0  0  0  0  0  0  0  0  0  0  0  0
  196.7550  174.1730  136.0410 O   0  0  0  0  0  0  0  0  0  0  0  0
  187.8740  172.5450  139.1540 O   0  0  0  0  0  0  0  0  0  0  0  0
  188.5760  173.4430  138.6170 C   0  0  0  0  0  0  0  0  0  0  0  0
  188.0630  174.1630  137.5020 N   0  0  0  0  0  1  0  0  0  0  0  0
  191.0700  174.0790  143.7240 O   0  0  0  0  0  0  0  0  0  0  0  0
  189.7510  174.1830  144.2500 C   0  0  1  0  0  3  0  0  0  0  0  0
  190.4710  174.8550  146.5790 C   0  0  0  0  0  2  0  0  0  0  0  0
  189.9100  176.2610  146.3560 C   0  0  1  0  0  3  0  0  0  0  0  0
  189.7190  173.8210  145.7390 C   0  0  0  0  0  2  0  0  0  0  0  0
  189.9610  176.6210  144.8670 C   0  0  0  0  0  2  0  0  0  0  0  0
  189.2030  175.5930  144.0260 C   0  0  0  0  0  2  0  0  0  0  0  0
  188.5990  176.3420  146.8370 O   0  0  0  0  0  0  0  0  0  0  0  0
  188.3720  177.7030  147.0410 C   0  0  0  0  0  2  0  0  0  0  0  0
  186.9130  177.9280  147.3690 C   0  0  0  0  0  2  0  0  0  0  0  0
  186.1790  176.7880  147.0440 O   0  0  0  0  0  0  0  0  0  0  0  0
  184.9950  177.2750  146.4900 C   0  0  0  0  0  2  0  0  0  0  0  0
  185.0310  179.0460  143.1360 C   0  0  0  0  0  2  0  0  0  0  0  0
  186.2050  178.2870  142.5190 C   0  0  0  0  0  2  0  0  0  0  0  0
  186.0040  176.7980  142.7760 C   0  0  0  0  0  2  0  0  0  0  0  0
  185.1890  177.5450  145.0380 C   0  0  0  0  0  0  0  0  0  0  0  0
  184.8740  178.7110  144.5540 N   0  0  0  0  0  0  0  0  0  0  0  0
  185.8230  176.5640  144.2050 N   0  0  0  0  0  2  0  0  0  0  0  0
  192.2810  171.5820  144.2490 C   0  0  0  0  0  2  0  0  0  0  0  0
  194.3680  172.9480  145.1950 C   0  0  0  0  0  0  0  0  0  0  0  0
  193.4220  172.3350  144.7690 C   0  0  0  0  0  0  0  0  0  0  0  0
  195.5270  173.6820  145.7110 C   0  0  0  0  0  2  0  0  0  0  0  0
  196.0030  174.7140  144.6930 C   0  0  1  0  0  3  0  0  0  0  0  0
  195.9850  174.1400  143.2690 C   0  0  0  0  0  2  0  0  0  0  0  0
  197.1320  177.0740  143.5090 C   0  0  0  0  0  2  0  0  0  0  0  0
  197.0890  176.2440  142.2190 C   0  0  0  0  0  2  0  0  0  0  0  0
  195.9510  175.1990  142.1550 C   0  0  1  0  0  3  0  0  0  0  0  0
  195.8620  177.1570  144.1540 O   0  0  0  0  0  0  0  0  0  0  0  0
  195.2960  176.0470  144.7860 C   0  0  0  0  0  0  0  0  0  0  0  0
  194.1170  176.1800  145.3830 C   0  0  0  0  0  2  0  0  0  0  0  0
  196.0050  173.1080  140.9390 C   0  0  0  0  0  2  0  0  0  0  0  0
  196.7310  172.6700  139.6930 C   0  0  0  0  0  2  0  0  0  0  0  0
  195.8170  174.5530  140.8410 N   0  0  0  0  0  0  0  0  0  0  0  0
  197.5500  173.8710  139.3030 C   0  0  0  0  0  2  0  0  0  0  0  0
  196.8590  175.0570  139.9480 C   0  0  0  0  0  2  0  0  0  0  0  0
  1 38  1  0  0  0  0
  2  1  2  0  0  0  0
  2 20  1  0  0  0  0
  3  2  1  0  0  0  0
  4 18  1  6  0  0  0
  4  5  1  0  0  0  0
  5  3  1  1  0  0  0
  6  9  1  1  0  0  0
  6  4  1  0  0  0  0
  6  5  1  0  0  0  0
  8 12  2  0  0  0  0
  8 13  1  0  0  0  0
  9  7  1  6  0  0  0
 10  9  1  0  0  0  0
 11 10  1  0  0  0  0
 12 11  1  0  0  0  0
 13  7  1  0  0  0  0
 14 15  2  0  0  0  0
 15 12  1  0  0  0  0
 16 15  2  0  0  0  0
 18 17  2  0  0  0  0
 19 18  1  0  0  0  0
 21 20  1  1  0  0  0
 21 24  1  0  0  0  0
 23 22  1  0  0  0  0
 23 27  1  6  0  0  0
 24 22  1  0  0  0  0
 25 23  1  0  0  0  0
 26 21  1  0  0  0  0
 26 25  1  0  0  0  0
 27 28  1  0  0  0  0
 28 29  1  0  0  0  0
 30 29  1  0  0  0  0
 31 30  1  0  0  0  0
 32 36  1  0  0  0  0
 33 34  1  0  0  0  0
 33 32  1  0  0  0  0
 34 37  1  0  0  0  0
 35 31  1  0  0  0  0
 36 35  2  0  0  0  0
 37 35  1  0  0  0  0
 38 40  1  0  0  0  0
 39 41  1  0  0  0  0
 40 39  3  0  0  0  0
 42 48  1  0  0  0  0
 42 41  1  1  0  0  0
 43 42  1  0  0  0  0
 44 47  1  0  0  0  0
 45 44  1  0  0  0  0
 46 52  1  6  0  0  0
 46 45  1  0  0  0  0
 46 43  1  0  0  0  0
 47 48  1  0  0  0  0
 48 49  2  0  0  0  0
 51 50  1  0  0  0  0
 52 50  1  0  0  0  0
 53 51  1  0  0  0  0
 53 54  1  0  0  0  0
 54 52  1  0  0  0  0
M  END
>  <MODEL>
8

>  <REMARK>
 VINA RESULT:      -6.3      2.876      7.977
  Name = 
  18 active torsions:
  status: ('A' for Active; 'I' for Inactive)
    1  A    between atoms: O_1  and  C_34
    2  A    between atoms: O_1  and  C_35
    3  A    between atoms: C_6  and  C_7
    4  A    between atoms: C_7  and  C_28
    5  A    between atoms: C_10  and  C_17
    6  A    between atoms: C_10  and  O_37
    7  A    between atoms: C_13  and  C_16
    8  A    between atoms: C_14  and  C_34
    9  A    between atoms: C_14  and  O_37
   10  A    between atoms: C_18  and  C_25
   11  A    between atoms: C_19  and  O_27
   12  A    between atoms: N_20  and  C_31
   13  A    between atoms: C_23  and  O_27
   14  A    between atoms: C_23  and  N_38
   15  A    between atoms: C_24  and  N_38
   16  A    between atoms: C_25  and  C_30
   17  A    between atoms: C_32  and  C_39
   18  A    between atoms: C_46  and  N_53
                            x       y       z     vdW  Elec       q    Type
                         _______ _______ _______ _____ _____    ______ ____

>  <TORSDO>
F 18

$$$$
=
 OpenBabel11042415463D

 54 59  0  0  1  0  0  0  0  0999 V2000
  189.7050  172.1210  143.0730 C   0  0  0  0  0  3  0  0  0  0  0  0
  190.0570  173.3970  142.9160 C   0  0  0  0  0  0  0  0  0  0  0  0
  189.2960  174.4400  143.5370 N   0  0  0  0  0  2  0  0  0  0  0  0
  189.9880  176.7740  143.5550 C   0  0  1  0  0  3  0  0  0  0  0  0
  189.8810  175.4920  144.3620 C   0  0  1  0  0  3  0  0  0  0  0  0
  188.9120  176.6490  144.6220 C   0  0  2  0  0  3  0  0  0  0  0  0
  186.4360  176.7830  144.9840 C   0  0  0  0  0  2  0  0  0  0  0  0
  184.9770  178.4510  143.8150 C   0  0  0  0  0  3  0  0  0  0  0  0
  187.5450  176.4970  143.9590 C   0  0  1  0  0  3  0  0  0  0  0  0
  187.4660  177.3810  142.7960 N   0  0  0  0  0  2  0  0  0  0  0  0
  186.2180  177.1050  142.0950 C   0  0  0  0  0  2  0  0  0  0  0  0
  185.0990  178.0180  142.5450 C   0  0  0  0  0  0  0  0  0  0  0  0
  185.9650  178.2300  144.9260 C   0  0  0  0  0  2  0  0  0  0  0  0
  182.7320  178.2910  142.0040 O   0  0  0  0  0  0  0  0  0  0  0  0
  184.0530  178.3230  141.6130 N   0  0  0  0  0  0  0  0  0  0  0  0
  184.3290  178.6220  140.4340 O   0  0  0  0  0  0  0  0  0  0  0  0
  191.2350  178.8080  143.7060 O   0  0  0  0  0  0  0  0  0  0  0  0
  191.1210  177.6050  144.0640 C   0  0  0  0  0  0  0  0  0  0  0  0
  192.0450  177.0580  144.9970 N   0  0  0  0  0  1  0  0  0  0  0  0
  191.1720  173.7210  142.1360 O   0  0  0  0  0  0  0  0  0  0  0  0
  192.4310  174.0590  142.7090 C   0  0  1  0  0  3  0  0  0  0  0  0
  193.7870  172.4970  141.2540 C   0  0  0  0  0  2  0  0  0  0  0  0
  194.4050  173.6940  140.5310 C   0  0  1  0  0  3  0  0  0  0  0  0
  193.3880  172.8620  142.6860 C   0  0  0  0  0  2  0  0  0  0  0  0
  193.4350  174.8800  140.5450 C   0  0  0  0  0  2  0  0  0  0  0  0
  193.0410  175.2520  141.9750 C   0  0  0  0  0  2  0  0  0  0  0  0
  195.6210  174.0460  141.1270 O   0  0  0  0  0  0  0  0  0  0  0  0
  196.2980  174.7870  140.1580 C   0  0  0  0  0  2  0  0  0  0  0  0
  197.0980  175.8810  140.8280 C   0  0  0  0  0  2  0  0  0  0  0  0
  196.2830  176.5790  141.7170 O   0  0  0  0  0  0  0  0  0  0  0  0
  197.0780  176.7760  142.8470 C   0  0  0  0  0  2  0  0  0  0  0  0
  195.0560  175.0230  145.5360 C   0  0  0  0  0  2  0  0  0  0  0  0
  195.6680  173.6330  145.3750 C   0  0  0  0  0  2  0  0  0  0  0  0
  197.1840  173.7790  145.3060 C   0  0  0  0  0  2  0  0  0  0  0  0
  196.6820  175.8170  143.9160 C   0  0  0  0  0  0  0  0  0  0  0  0
  195.5110  175.9250  144.4740 N   0  0  0  0  0  0  0  0  0  0  0  0
  197.5410  174.7170  144.2470 N   0  0  0  0  0  2  0  0  0  0  0  0
  190.4660  171.0040  142.4460 C   0  0  0  0  0  2  0  0  0  0  0  0
  190.1260  171.0830  139.8010 C   0  0  0  0  0  0  0  0  0  0  0  0
  190.2840  171.0450  140.9960 C   0  0  0  0  0  0  0  0  0  0  0  0
  189.9200  171.1340  138.3510 C   0  0  0  0  0  2  0  0  0  0  0  0
  190.8760  172.1370  137.7100 C   0  0  1  0  0  3  0  0  0  0  0  0
  192.3090  171.5880  137.6660 C   0  0  0  0  0  2  0  0  0  0  0  0
  191.9790  174.5460  136.6030 C   0  0  0  0  0  2  0  0  0  0  0  0
  193.3140  173.8010  136.7470 C   0  0  0  0  0  2  0  0  0  0  0  0
  193.2170  172.2620  136.6240 C   0  0  1  0  0  3  0  0  0  0  0  0
  191.0160  173.8090  135.8500 O   0  0  0  0  0  0  0  0  0  0  0  0
  190.4160  172.6590  136.3680 C   0  0  0  0  0  0  0  0  0  0  0  0
  189.5160  172.0170  135.6320 C   0  0  0  0  0  2  0  0  0  0  0  0
  194.4500  170.2450  137.1360 C   0  0  0  0  0  2  0  0  0  0  0  0
  195.7430  169.9970  137.8700 C   0  0  0  0  0  2  0  0  0  0  0  0
  194.5250  171.5920  136.5780 N   0  0  0  0  0  0  0  0  0  0  0  0
  196.1750  171.3640  138.3270 C   0  0  0  0  0  2  0  0  0  0  0  0
  195.4780  172.3390  137.3970 C   0  0  0  0  0  2  0  0  0  0  0  0
  2  1  2  0  0  0  0
  2  3  1  0  0  0  0
  4 18  1  1  0  0  0
  4  5  1  0  0  0  0
  4  6  1  0  0  0  0
  5  3  1  6  0  0  0
  5  6  1  0  0  0  0
  6  9  1  6  0  0  0
  8 13  1  0  0  0  0
  9  7  1  1  0  0  0
 10  9  1  0  0  0  0
 11 12  1  0  0  0  0
 11 10  1  0  0  0  0
 12  8  2  0  0  0  0
 13  7  1  0  0  0  0
 15 14  2  0  0  0  0
 15 12  1  0  0  0  0
 16 15  2  0  0  0  0
 17 18  2  0  0  0  0
 18 19  1  0  0  0  0
 20  2  1  0  0  0  0
 21 20  1  6  0  0  0
 22 24  1  0  0  0  0
 23 25  1  0  0  0  0
 23 27  1  1  0  0  0
 23 22  1  0  0  0  0
 24 21  1  0  0  0  0
 25 26  1  0  0  0  0
 26 21  1  0  0  0  0
 28 29  1  0  0  0  0
 28 27  1  0  0  0  0
 29 30  1  0  0  0  0
 30 31  1  0  0  0  0
 31 35  1  0  0  0  0
 33 32  1  0  0  0  0
 34 33  1  0  0  0  0
 35 37  1  0  0  0  0
 35 36  2  0  0  0  0
 36 32  1  0  0  0  0
 37 34  1  0  0  0  0
 38  1  1  0  0  0  0
 39 40  3  0  0  0  0
 40 38  1  0  0  0  0
 41 39  1  0  0  0  0
 42 41  1  6  0  0  0
 43 42  1  0  0  0  0
 44 45  1  0  0  0  0
 46 52  1  1  0  0  0
 46 45  1  0  0  0  0
 46 43  1  0  0  0  0
 47 48  1  0  0  0  0
 47 44  1  0  0  0  0
 48 42  1  0  0  0  0
 49 48  2  0  0  0  0
 50 51  1  0  0  0  0
 51 53  1  0  0  0  0
 52 50  1  0  0  0  0
 52 54  1  0  0  0  0
 54 53  1  0  0  0  0
M  END
>  <MODEL>
9

>  <REMARK>
 VINA RESULT:      -6.2      2.673      8.075
  Name = 
  18 active torsions:
  status: ('A' for Active; 'I' for Inactive)
    1  A    between atoms: O_1  and  C_34
    2  A    between atoms: O_1  and  C_35
    3  A    between atoms: C_6  and  C_7
    4  A    between atoms: C_7  and  C_28
    5  A    between atoms: C_10  and  C_17
    6  A    between atoms: C_10  and  O_37
    7  A    between atoms: C_13  and  C_16
    8  A    between atoms: C_14  and  C_34
    9  A    between atoms: C_14  and  O_37
   10  A    between atoms: C_18  and  C_25
   11  A    between atoms: C_19  and  O_27
   12  A    between atoms: N_20  and  C_31
   13  A    between atoms: C_23  and  O_27
   14  A    between atoms: C_23  and  N_38
   15  A    between atoms: C_24  and  N_38
   16  A    between atoms: C_25  and  C_30
   17  A    between atoms: C_32  and  C_39
   18  A    between atoms: C_46  and  N_53
                            x       y       z     vdW  Elec       q    Type
                         _______ _______ _______ _____ _____    ______ ____

>  <TORSDO>
F 18

$$$$
