=
 OpenBabel11042414113D

 49 54  0  0  1  0  0  0  0  0999 V2000
  191.6470  172.3320  141.4350 C   0  0  2  0  0  3  0  0  0  0  0  0
  190.3150  172.0160  142.1200 C   0  0  0  0  0  2  0  0  0  0  0  0
  189.6670  174.5850  145.5010 C   0  0  1  0  0  3  0  0  0  0  0  0
  190.8450  174.9710  144.6100 C   0  0  0  0  0  2  0  0  0  0  0  0
  190.7730  174.2650  143.2510 C   0  0  0  0  0  2  0  0  0  0  0  0
  190.0080  172.9330  143.3040 C   0  0  2  0  0  3  0  0  0  0  0  0
  189.6470  173.0780  145.8020 C   0  0  0  0  0  2  0  0  0  0  0  0
  190.1800  172.2170  144.6460 C   0  0  0  0  0  2  0  0  0  0  0  0
  189.6620  175.4070  146.7810 C   0  0  0  0  0  2  0  0  0  0  0  0
  189.2270  176.8290  146.5610 C   0  0  0  0  0  0  0  0  0  0  0  0
  189.6780  177.7520  147.2960 O   0  0  0  0  0  0  0  0  0  0  0  0
  187.7270  177.9830  143.3540 C   0  0  0  0  0  3  0  0  0  0  0  0
  188.6160  177.7060  144.3440 N   0  0  0  0  0  0  0  0  0  0  0  0
  185.9500  177.1170  144.7220 C   0  0  0  0  0  3  0  0  0  0  0  0
  188.2290  177.1440  145.5230 C   0  0  0  0  0  0  0  0  0  0  0  0
  186.8740  176.8480  145.7320 C   0  0  0  0  0  3  0  0  0  0  0  0
  186.3650  177.6940  143.5140 C   0  0  0  0  0  0  0  0  0  0  0  0
  185.4190  177.9670  142.4630 N   0  0  0  0  0  0  0  0  0  0  0  0
  183.6600  178.7750  140.5080 O   0  0  0  0  0  0  0  0  0  0  0  0
  184.0180  178.2650  142.8190 C   0  0  0  0  0  2  0  0  0  0  0  0
  183.1040  178.1050  141.6040 C   0  0  0  0  0  2  0  0  0  0  0  0
  184.7130  177.9530  140.0760 C   0  0  0  0  0  2  0  0  0  0  0  0
  185.8830  178.0370  141.0650 C   0  0  0  0  0  2  0  0  0  0  0  0
  191.6100  171.9680  140.0160 N   0  0  0  0  0  2  0  0  0  0  0  0
  190.2380  171.5970  139.6820 C   0  0  0  0  0  2  0  0  0  0  0  0
  188.5830  173.3840  139.0560 C   0  0  0  0  0  3  0  0  0  0  0  0
  189.7610  173.6290  136.5710 N   0  0  0  0  0  0  0  0  0  0  0  0
  190.2490  172.7100  137.4470 C   0  0  0  0  0  3  0  0  0  0  0  0
  189.6660  172.5680  138.7090 C   0  0  0  0  0  0  0  0  0  0  0  0
  188.0960  174.3190  138.1420 C   0  0  0  0  0  3  0  0  0  0  0  0
  188.7090  174.4300  136.8910 C   0  0  0  0  0  0  0  0  0  0  0  0
  188.2300  175.3850  135.9500 N   0  0  0  0  0  1  0  0  0  0  0  0
  192.7720  171.6650  142.1080 N   0  0  0  0  0  2  0  0  0  0  0  0
  193.9700  172.3540  141.8280 N   0  0  0  0  0  2  0  0  0  0  0  0
  196.0800  173.0240  142.5280 O   0  0  0  0  0  0  0  0  0  0  0  0
  194.9410  172.5830  142.8520 C   0  0  0  0  0  0  0  0  0  0  0  0
  195.6100  171.7340  145.1430 N   0  0  0  0  0  0  0  0  0  0  0  0
  196.3360  173.8890  146.0690 C   0  0  0  0  0  2  0  0  0  0  0  0
  194.5640  172.3660  144.3080 C   0  0  1  0  0  3  0  0  0  0  0  0
  194.1420  173.6730  144.9120 C   0  0  0  0  0  3  0  0  0  0  0  0
  194.9720  174.3980  145.6680 C   0  0  0  0  0  0  0  0  0  0  0  0
  196.7530  172.6370  145.2880 C   0  0  0  0  0  2  0  0  0  0  0  0
  194.5330  175.6700  146.1710 C   0  0  0  0  0  0  0  0  0  0  0  0
  194.1690  176.7350  146.6120 C   0  0  0  0  0  3  0  0  0  0  0  0
  196.0600  170.4790  144.5430 C   0  0  0  0  0  2  0  0  0  0  0  0
  196.1430  169.4030  145.6190 C   0  0  0  0  0  2  0  0  0  0  0  0
  194.2180  168.2040  146.5880 C   0  0  0  0  0  2  0  0  0  0  0  0
  194.9720  169.5200  146.5850 C   0  0  0  0  0  3  0  0  0  0  0  0
  195.1610  168.5350  147.7250 C   0  0  0  0  0  2  0  0  0  0  0  0
  1 33  1  0  0  0  0
  1  2  1  1  0  0  0
  3  7  1  0  0  0  0
  3  9  1  1  0  0  0
  4  3  1  0  0  0  0
  5  6  1  0  0  0  0
  5  4  1  0  0  0  0
  6  2  1  6  0  0  0
  6  8  1  0  0  0  0
  8  7  1  0  0  0  0
 10  9  1  0  0  0  0
 10 11  2  0  0  0  0
 12 17  2  0  0  0  0
 12 13  1  0  0  0  0
 13 15  2  0  0  0  0
 14 16  2  0  0  0  0
 15 16  1  0  0  0  0
 15 10  1  0  0  0  0
 17 14  1  0  0  0  0
 18 20  1  0  0  0  0
 18 17  1  0  0  0  0
 19 21  1  0  0  0  0
 21 20  1  0  0  0  0
 22 19  1  0  0  0  0
 22 23  1  0  0  0  0
 23 18  1  0  0  0  0
 24  1  1  0  0  0  0
 25 24  1  0  0  0  0
 27 31  2  0  0  0  0
 27 28  1  0  0  0  0
 28 29  2  0  0  0  0
 29 26  1  0  0  0  0
 29 25  1  0  0  0  0
 30 26  2  0  0  0  0
 31 30  1  0  0  0  0
 32 31  1  0  0  0  0
 34 33  1  0  0  0  0
 34 36  1  0  0  0  0
 35 36  2  0  0  0  0
 37 42  1  0  0  0  0
 39 36  1  6  0  0  0
 39 40  1  0  0  0  0
 39 37  1  0  0  0  0
 40 41  2  0  0  0  0
 41 38  1  0  0  0  0
 41 43  1  0  0  0  0
 42 38  1  0  0  0  0
 43 44  3  0  0  0  0
 45 37  1  0  0  0  0
 45 46  1  0  0  0  0
 46 48  1  0  0  0  0
 47 49  1  0  0  0  0
 48 47  1  0  0  0  0
 48 49  1  0  0  0  0
M  END
>  <MODEL>
1

>  <REMARK>
 VINA RESULT:      -7.2      0.000      0.000
  Name = 
  16 active torsions:
  status: ('A' for Active; 'I' for Inactive)
    1  A    between atoms: C_1  and  C_46
    2  A    between atoms: N_3  and  C_44
    3  A    between atoms: N_6  and  N_16
    4  A    between atoms: N_6  and  C_18
    5  A    between atoms: N_7  and  C_25
    6  A    between atoms: C_11  and  C_23
    7  A    between atoms: C_11  and  N_28
    8  A    between atoms: C_12  and  C_45
    9  A    between atoms: C_18  and  C_22
   10  A    between atoms: C_18  and  N_28
   11  A    between atoms: C_20  and  C_48
   12  A    between atoms: C_22  and  C_40
   13  A    between atoms: C_24  and  C_37
   14  A    between atoms: C_25  and  C_48
   15  A    between atoms: C_29  and  C_33
   16  A    between atoms: C_33  and  C_46
                            x       y       z     vdW  Elec       q    Type
                         _______ _______ _______ _____ _____    ______ ____

>  <TORSDO>
F 16

$$$$
=
 OpenBabel11042414113D

 49 54  0  0  1  0  0  0  0  0999 V2000
  196.0210  173.8440  141.0870 C   0  0  2  0  0  3  0  0  0  0  0  0
  195.2050  172.5510  141.1520 C   0  0  0  0  0  2  0  0  0  0  0  0
  190.9570  172.9960  141.6130 C   0  0  1  0  0  3  0  0  0  0  0  0
  191.6500  172.2050  142.7190 C   0  0  0  0  0  2  0  0  0  0  0  0
  193.1670  172.4210  142.6950 C   0  0  0  0  0  2  0  0  0  0  0  0
  193.7010  172.7870  141.3010 C   0  0  2  0  0  3  0  0  0  0  0  0
  191.4290  172.5590  140.2170 C   0  0  0  0  0  2  0  0  0  0  0  0
  192.9010  172.1200  140.1800 C   0  0  0  0  0  2  0  0  0  0  0  0
  189.4440  172.9010  141.7420 C   0  0  0  0  0  2  0  0  0  0  0  0
  188.7450  174.1820  141.3810 C   0  0  0  0  0  0  0  0  0  0  0  0
  188.7040  174.5640  140.1780 O   0  0  0  0  0  0  0  0  0  0  0  0
  186.3320  176.3300  143.2330 C   0  0  0  0  0  3  0  0  0  0  0  0
  186.9190  175.5710  142.2690 N   0  0  0  0  0  0  0  0  0  0  0  0
  188.2620  176.0240  144.6320 C   0  0  0  0  0  3  0  0  0  0  0  0
  188.1560  175.0250  142.4360 C   0  0  0  0  0  0  0  0  0  0  0  0
  188.8550  175.2550  143.6290 C   0  0  0  0  0  3  0  0  0  0  0  0
  186.9880  176.5770  144.4460 C   0  0  0  0  0  0  0  0  0  0  0  0
  186.3670  177.3640  145.4790 N   0  0  0  0  0  0  0  0  0  0  0  0
  185.3220  179.1020  147.3390 O   0  0  0  0  0  0  0  0  0  0  0  0
  187.1290  177.6650  146.7080 C   0  0  0  0  0  2  0  0  0  0  0  0
  186.1930  178.1220  147.8270 C   0  0  0  0  0  2  0  0  0  0  0  0
  184.3820  178.4010  146.5670 C   0  0  0  0  0  2  0  0  0  0  0  0
  185.0260  177.9340  145.2540 C   0  0  0  0  0  2  0  0  0  0  0  0
  196.8110  173.9080  139.8550 N   0  0  0  0  0  2  0  0  0  0  0  0
  196.3590  175.0660  139.0900 C   0  0  0  0  0  2  0  0  0  0  0  0
  193.9600  175.1080  138.3360 C   0  0  0  0  0  3  0  0  0  0  0  0
  194.6060  173.5670  136.1380 N   0  0  0  0  0  0  0  0  0  0  0  0
  195.5810  173.8920  137.0270 C   0  0  0  0  0  3  0  0  0  0  0  0
  195.2760  174.6690  138.1480 C   0  0  0  0  0  0  0  0  0  0  0  0
  192.9730  174.7610  137.4130 C   0  0  0  0  0  3  0  0  0  0  0  0
  193.3210  173.9830  136.3040 C   0  0  0  0  0  0  0  0  0  0  0  0
  192.3280  173.6260  135.3490 N   0  0  0  0  0  1  0  0  0  0  0  0
  196.8900  173.9940  142.2640 N   0  0  0  0  0  2  0  0  0  0  0  0
  196.9950  175.3580  142.6070 N   0  0  0  0  0  2  0  0  0  0  0  0
  196.3370  177.1120  143.9780 O   0  0  0  0  0  0  0  0  0  0  0  0
  196.0950  175.9500  143.5480 C   0  0  0  0  0  0  0  0  0  0  0  0
  194.7510  174.8310  145.3810 N   0  0  0  0  0  0  0  0  0  0  0  0
  193.3120  176.7470  145.9190 C   0  0  0  0  0  2  0  0  0  0  0  0
  194.8330  175.2050  143.9510 C   0  0  1  0  0  3  0  0  0  0  0  0
  193.6320  176.0150  143.5610 C   0  0  0  0  0  3  0  0  0  0  0  0
  192.9730  176.7670  144.4480 C   0  0  0  0  0  0  0  0  0  0  0  0
  194.6380  176.0330  146.2100 C   0  0  0  0  0  2  0  0  0  0  0  0
  191.8650  177.5670  144.0050 C   0  0  0  0  0  0  0  0  0  0  0  0
  190.9400  178.2550  143.6420 C   0  0  0  0  0  3  0  0  0  0  0  0
  195.9370  174.0760  145.7860 C   0  0  0  0  0  2  0  0  0  0  0  0
  195.7540  172.6090  145.4190 C   0  0  0  0  0  2  0  0  0  0  0  0
  196.8800  170.5140  146.0740 C   0  0  0  0  0  2  0  0  0  0  0  0
  197.0900  171.8790  145.4470 C   0  0  0  0  0  3  0  0  0  0  0  0
  197.0060  170.6420  144.5720 C   0  0  0  0  0  2  0  0  0  0  0  0
  1  2  1  1  0  0  0
  1 33  1  0  0  0  0
  3  9  1  6  0  0  0
  3  4  1  0  0  0  0
  5  4  1  0  0  0  0
  6  2  1  1  0  0  0
  6  5  1  0  0  0  0
  7  3  1  0  0  0  0
  8  7  1  0  0  0  0
  8  6  1  0  0  0  0
 10  9  1  0  0  0  0
 10 15  1  0  0  0  0
 11 10  2  0  0  0  0
 12 17  1  0  0  0  0
 13 15  1  0  0  0  0
 13 12  2  0  0  0  0
 15 16  2  0  0  0  0
 16 14  1  0  0  0  0
 17 14  2  0  0  0  0
 17 18  1  0  0  0  0
 18 20  1  0  0  0  0
 19 21  1  0  0  0  0
 20 21  1  0  0  0  0
 22 19  1  0  0  0  0
 23 18  1  0  0  0  0
 23 22  1  0  0  0  0
 24  1  1  0  0  0  0
 25 24  1  0  0  0  0
 27 31  2  0  0  0  0
 27 28  1  0  0  0  0
 28 29  2  0  0  0  0
 29 26  1  0  0  0  0
 29 25  1  0  0  0  0
 30 26  2  0  0  0  0
 31 30  1  0  0  0  0
 32 31  1  0  0  0  0
 33 34  1  0  0  0  0
 34 36  1  0  0  0  0
 36 35  2  0  0  0  0
 37 45  1  0  0  0  0
 37 42  1  0  0  0  0
 38 42  1  0  0  0  0
 39 36  1  1  0  0  0
 39 37  1  0  0  0  0
 40 39  1  0  0  0  0
 40 41  2  0  0  0  0
 41 38  1  0  0  0  0
 43 41  1  0  0  0  0
 44 43  3  0  0  0  0
 46 48  1  0  0  0  0
 46 45  1  0  0  0  0
 48 47  1  0  0  0  0
 49 48  1  0  0  0  0
 49 47  1  0  0  0  0
M  END
>  <MODEL>
2

>  <REMARK>
 VINA RESULT:      -7.1      2.943      4.645
  Name = 
  16 active torsions:
  status: ('A' for Active; 'I' for Inactive)
    1  A    between atoms: C_1  and  C_46
    2  A    between atoms: N_3  and  C_44
    3  A    between atoms: N_6  and  N_16
    4  A    between atoms: N_6  and  C_18
    5  A    between atoms: N_7  and  C_25
    6  A    between atoms: C_11  and  C_23
    7  A    between atoms: C_11  and  N_28
    8  A    between atoms: C_12  and  C_45
    9  A    between atoms: C_18  and  C_22
   10  A    between atoms: C_18  and  N_28
   11  A    between atoms: C_20  and  C_48
   12  A    between atoms: C_22  and  C_40
   13  A    between atoms: C_24  and  C_37
   14  A    between atoms: C_25  and  C_48
   15  A    between atoms: C_29  and  C_33
   16  A    between atoms: C_33  and  C_46
                            x       y       z     vdW  Elec       q    Type
                         _______ _______ _______ _____ _____    ______ ____

>  <TORSDO>
F 16

$$$$
=
 OpenBabel11042414113D

 49 54  0  0  1  0  0  0  0  0999 V2000
  193.2480  175.4390  146.0390 C   0  0  2  0  0  3  0  0  0  0  0  0
  193.2160  173.9110  146.1260 C   0  0  0  0  0  2  0  0  0  0  0  0
  193.7950  171.7790  142.4410 C   0  0  1  0  0  3  0  0  0  0  0  0
  192.8110  171.1360  143.4150 C   0  0  0  0  0  2  0  0  0  0  0  0
  192.3700  172.1250  144.5000 C   0  0  0  0  0  2  0  0  0  0  0  0
  193.4130  173.2200  144.7750 C   0  0  2  0  0  3  0  0  0  0  0  0
  195.0800  172.2400  143.1480 C   0  0  0  0  0  2  0  0  0  0  0  0
  194.8460  172.7170  144.5900 C   0  0  0  0  0  2  0  0  0  0  0  0
  194.1030  170.8430  141.2830 C   0  0  0  0  0  2  0  0  0  0  0  0
  194.5330  171.5720  140.0400 C   0  0  0  0  0  0  0  0  0  0  0  0
  195.7570  171.6450  139.7390 O   0  0  0  0  0  0  0  0  0  0  0  0
  192.8300  174.2020  138.0280 C   0  0  0  0  0  3  0  0  0  0  0  0
  193.7180  173.5500  138.8250 N   0  0  0  0  0  0  0  0  0  0  0  0
  191.4740  172.2200  137.9360 C   0  0  0  0  0  3  0  0  0  0  0  0
  193.5330  172.2540  139.2010 C   0  0  0  0  0  0  0  0  0  0  0  0
  192.3900  171.5680  138.7630 C   0  0  0  0  0  3  0  0  0  0  0  0
  191.6810  173.5530  137.5580 C   0  0  0  0  0  0  0  0  0  0  0  0
  190.7450  174.2290  136.6980 N   0  0  0  0  0  0  0  0  0  0  0  0
  188.9900  175.2960  134.8670 O   0  0  0  0  0  0  0  0  0  0  0  0
  191.2580  175.0740  135.6010 C   0  0  0  0  0  2  0  0  0  0  0  0
  190.1690  176.0170  135.0900 C   0  0  0  0  0  2  0  0  0  0  0  0
  188.4630  175.0590  136.1460 C   0  0  0  0  0  2  0  0  0  0  0  0
  189.2990  173.9930  136.8670 C   0  0  0  0  0  2  0  0  0  0  0  0
  194.6200  175.9440  146.1400 N   0  0  0  0  0  2  0  0  0  0  0  0
  194.7960  176.9750  145.1210 C   0  0  0  0  0  2  0  0  0  0  0  0
  194.3470  176.1360  142.7930 C   0  0  0  0  0  3  0  0  0  0  0  0
  197.0240  175.5380  142.4740 N   0  0  0  0  0  0  0  0  0  0  0  0
  196.5980  176.0540  143.6580 C   0  0  0  0  0  3  0  0  0  0  0  0
  195.2470  176.3610  143.8420 C   0  0  0  0  0  0  0  0  0  0  0  0
  194.8050  175.6030  141.5870 C   0  0  0  0  0  3  0  0  0  0  0  0
  196.1650  175.3110  141.4450 C   0  0  0  0  0  0  0  0  0  0  0  0
  196.6490  174.7750  140.2180 N   0  0  0  0  0  1  0  0  0  0  0  0
  192.3950  176.0550  147.0670 N   0  0  0  0  0  2  0  0  0  0  0  0
  191.2880  175.2220  147.3280 N   0  0  0  0  0  2  0  0  0  0  0  0
  189.1240  174.5770  146.7900 O   0  0  0  0  0  0  0  0  0  0  0  0
  190.0300  175.4510  146.6870 C   0  0  0  0  0  0  0  0  0  0  0  0
  189.5150  176.6440  144.5130 N   0  0  0  0  0  0  0  0  0  0  0  0
  187.0860  176.8230  144.8300 C   0  0  0  0  0  2  0  0  0  0  0  0
  189.7830  176.7630  145.9640 C   0  0  1  0  0  3  0  0  0  0  0  0
  188.6600  177.4980  146.6370 C   0  0  0  0  0  3  0  0  0  0  0  0
  187.4160  177.4750  146.1510 C   0  0  0  0  0  0  0  0  0  0  0  0
  188.2370  175.9640  144.2920 C   0  0  0  0  0  2  0  0  0  0  0  0
  186.3700  178.1480  146.8700 C   0  0  0  0  0  0  0  0  0  0  0  0
  185.4960  178.7080  147.4900 C   0  0  0  0  0  3  0  0  0  0  0  0
  190.5810  175.8940  143.8510 C   0  0  0  0  0  2  0  0  0  0  0  0
  189.9920  174.6620  143.1770 C   0  0  0  0  0  2  0  0  0  0  0  0
  190.3830  172.9090  141.4860 C   0  0  0  0  0  2  0  0  0  0  0  0
  190.7860  174.3020  141.9280 C   0  0  0  0  0  3  0  0  0  0  0  0
  189.8340  174.1180  140.7610 C   0  0  0  0  0  2  0  0  0  0  0  0
  1  2  1  1  0  0  0
  1 24  1  0  0  0  0
  1 33  1  0  0  0  0
  3  9  1  6  0  0  0
  3  7  1  0  0  0  0
  3  4  1  0  0  0  0
  4  5  1  0  0  0  0
  5  6  1  0  0  0  0
  6  2  1  1  0  0  0
  7  8  1  0  0  0  0
  8  6  1  0  0  0  0
 10  9  1  0  0  0  0
 11 10  2  0  0  0  0
 12 13  1  0  0  0  0
 13 15  2  0  0  0  0
 14 16  2  0  0  0  0
 15 10  1  0  0  0  0
 16 15  1  0  0  0  0
 17 14  1  0  0  0  0
 17 12  2  0  0  0  0
 18 23  1  0  0  0  0
 18 17  1  0  0  0  0
 19 21  1  0  0  0  0
 19 22  1  0  0  0  0
 20 18  1  0  0  0  0
 21 20  1  0  0  0  0
 22 23  1  0  0  0  0
 25 24  1  0  0  0  0
 26 29  1  0  0  0  0
 27 28  1  0  0  0  0
 28 29  2  0  0  0  0
 29 25  1  0  0  0  0
 30 26  2  0  0  0  0
 31 30  1  0  0  0  0
 31 27  2  0  0  0  0
 32 31  1  0  0  0  0
 33 34  1  0  0  0  0
 36 35  2  0  0  0  0
 36 34  1  0  0  0  0
 37 39  1  0  0  0  0
 38 41  1  0  0  0  0
 39 40  1  0  0  0  0
 39 36  1  1  0  0  0
 41 40  2  0  0  0  0
 41 43  1  0  0  0  0
 42 37  1  0  0  0  0
 42 38  1  0  0  0  0
 43 44  3  0  0  0  0
 45 37  1  0  0  0  0
 46 45  1  0  0  0  0
 47 48  1  0  0  0  0
 48 46  1  0  0  0  0
 49 47  1  0  0  0  0
 49 48  1  0  0  0  0
M  END
>  <MODEL>
3

>  <REMARK>
 VINA RESULT:      -7.0      2.945      8.160
  Name = 
  16 active torsions:
  status: ('A' for Active; 'I' for Inactive)
    1  A    between atoms: C_1  and  C_46
    2  A    between atoms: N_3  and  C_44
    3  A    between atoms: N_6  and  N_16
    4  A    between atoms: N_6  and  C_18
    5  A    between atoms: N_7  and  C_25
    6  A    between atoms: C_11  and  C_23
    7  A    between atoms: C_11  and  N_28
    8  A    between atoms: C_12  and  C_45
    9  A    between atoms: C_18  and  C_22
   10  A    between atoms: C_18  and  N_28
   11  A    between atoms: C_20  and  C_48
   12  A    between atoms: C_22  and  C_40
   13  A    between atoms: C_24  and  C_37
   14  A    between atoms: C_25  and  C_48
   15  A    between atoms: C_29  and  C_33
   16  A    between atoms: C_33  and  C_46
                            x       y       z     vdW  Elec       q    Type
                         _______ _______ _______ _____ _____    ______ ____

>  <TORSDO>
F 16

$$$$
=
 OpenBabel11042414113D

 49 54  0  0  1  0  0  0  0  0999 V2000
  191.7170  173.3680  141.3850 C   0  0  2  0  0  3  0  0  0  0  0  0
  190.5760  172.9300  142.3060 C   0  0  0  0  0  2  0  0  0  0  0  0
  187.9550  176.1950  143.2670 C   0  0  1  0  0  3  0  0  0  0  0  0
  187.4040  175.1990  142.2500 C   0  0  0  0  0  2  0  0  0  0  0  0
  188.2050  173.8920  142.2560 C   0  0  0  0  0  2  0  0  0  0  0  0
  189.6570  174.0790  142.7250 C   0  0  2  0  0  3  0  0  0  0  0  0
  189.4090  176.5840  142.9560 C   0  0  0  0  0  2  0  0  0  0  0  0
  190.2250  175.4430  142.3270 C   0  0  0  0  0  2  0  0  0  0  0  0
  187.0610  177.4230  143.3640 C   0  0  0  0  0  2  0  0  0  0  0  0
  186.5270  177.8640  142.0290 C   0  0  0  0  0  0  0  0  0  0  0  0
  187.3180  178.0720  141.0670 O   0  0  0  0  0  0  0  0  0  0  0  0
  183.1960  178.2880  140.4190 C   0  0  0  0  0  3  0  0  0  0  0  0
  184.5280  178.0930  140.6130 N   0  0  0  0  0  0  0  0  0  0  0  0
  182.8980  178.5390  142.7910 C   0  0  0  0  0  3  0  0  0  0  0  0
  185.0850  178.1110  141.8570 C   0  0  0  0  0  0  0  0  0  0  0  0
  184.2690  178.3460  142.9730 C   0  0  0  0  0  3  0  0  0  0  0  0
  182.3410  178.5150  141.5050 C   0  0  0  0  0  0  0  0  0  0  0  0
  180.9270  178.7050  141.3110 N   0  0  0  0  0  0  0  0  0  0  0  0
  178.2260  179.2170  141.1950 O   0  0  0  0  0  0  0  0  0  0  0  0
  179.9810  177.7930  141.9830 C   0  0  0  0  0  2  0  0  0  0  0  0
  178.5980  177.8750  141.3380 C   0  0  0  0  0  2  0  0  0  0  0  0
  178.9810  179.6890  140.1090 C   0  0  0  0  0  2  0  0  0  0  0  0
  180.4480  179.8580  140.5260 C   0  0  0  0  0  2  0  0  0  0  0  0
  191.7490  172.5590  140.1630 N   0  0  0  0  0  2  0  0  0  0  0  0
  190.3820  172.1500  139.8580 C   0  0  0  0  0  2  0  0  0  0  0  0
  188.5300  173.5050  138.8290 C   0  0  0  0  0  3  0  0  0  0  0  0
  190.1480  174.1120  136.6750 N   0  0  0  0  0  0  0  0  0  0  0  0
  190.6310  173.3080  137.6600 C   0  0  0  0  0  3  0  0  0  0  0  0
  189.8280  172.9860  138.7580 C   0  0  0  0  0  0  0  0  0  0  0  0
  188.0520  174.3260  137.8060 C   0  0  0  0  0  3  0  0  0  0  0  0
  188.8890  174.6240  136.7260 C   0  0  0  0  0  0  0  0  0  0  0  0
  188.4200  175.4660  135.6790 N   0  0  0  0  0  1  0  0  0  0  0  0
  193.0160  173.3140  142.0720 N   0  0  0  0  0  2  0  0  0  0  0  0
  193.5940  174.5990  142.0980 N   0  0  0  0  0  2  0  0  0  0  0  0
  194.8300  176.1930  143.2490 O   0  0  0  0  0  0  0  0  0  0  0  0
  194.1490  175.1300  143.3040 C   0  0  0  0  0  0  0  0  0  0  0  0
  194.8340  174.7080  145.7060 N   0  0  0  0  0  0  0  0  0  0  0  0
  193.4370  176.4470  146.7340 C   0  0  0  0  0  2  0  0  0  0  0  0
  193.8490  174.4540  144.6310 C   0  0  1  0  0  3  0  0  0  0  0  0
  192.4740  174.8450  145.0890 C   0  0  0  0  0  3  0  0  0  0  0  0
  192.2840  175.7980  146.0060 C   0  0  0  0  0  0  0  0  0  0  0  0
  194.7950  176.1180  146.1020 C   0  0  0  0  0  2  0  0  0  0  0  0
  190.9430  176.1720  146.3620 C   0  0  0  0  0  0  0  0  0  0  0  0
  189.8160  176.4740  146.6770 C   0  0  0  0  0  3  0  0  0  0  0  0
  196.1850  174.3710  145.2590 C   0  0  0  0  0  2  0  0  0  0  0  0
  196.7750  173.3120  146.1810 C   0  0  0  0  0  2  0  0  0  0  0  0
  196.4310  171.6700  144.3720 C   0  0  0  0  0  2  0  0  0  0  0  0
  196.2110  171.9370  145.8490 C   0  0  0  0  0  3  0  0  0  0  0  0
  197.3390  171.0260  145.3980 C   0  0  0  0  0  2  0  0  0  0  0  0
  1 33  1  0  0  0  0
  1  2  1  1  0  0  0
  3  9  1  6  0  0  0
  4  5  1  0  0  0  0
  4  3  1  0  0  0  0
  5  6  1  0  0  0  0
  6  2  1  6  0  0  0
  7  3  1  0  0  0  0
  8  6  1  0  0  0  0
  8  7  1  0  0  0  0
 10  9  1  0  0  0  0
 11 10  2  0  0  0  0
 12 13  2  0  0  0  0
 12 17  1  0  0  0  0
 13 15  1  0  0  0  0
 14 16  1  0  0  0  0
 15 10  1  0  0  0  0
 15 16  2  0  0  0  0
 17 14  2  0  0  0  0
 18 17  1  0  0  0  0
 18 20  1  0  0  0  0
 19 21  1  0  0  0  0
 21 20  1  0  0  0  0
 22 23  1  0  0  0  0
 22 19  1  0  0  0  0
 23 18  1  0  0  0  0
 24  1  1  0  0  0  0
 25 24  1  0  0  0  0
 27 31  2  0  0  0  0
 27 28  1  0  0  0  0
 28 29  2  0  0  0  0
 29 26  1  0  0  0  0
 29 25  1  0  0  0  0
 30 26  2  0  0  0  0
 31 30  1  0  0  0  0
 32 31  1  0  0  0  0
 33 34  1  0  0  0  0
 34 36  1  0  0  0  0
 35 36  2  0  0  0  0
 37 42  1  0  0  0  0
 39 36  1  6  0  0  0
 39 40  1  0  0  0  0
 39 37  1  0  0  0  0
 40 41  2  0  0  0  0
 41 43  1  0  0  0  0
 41 38  1  0  0  0  0
 42 38  1  0  0  0  0
 43 44  3  0  0  0  0
 45 37  1  0  0  0  0
 45 46  1  0  0  0  0
 47 49  1  0  0  0  0
 47 48  1  0  0  0  0
 48 46  1  0  0  0  0
 49 48  1  0  0  0  0
M  END
>  <MODEL>
4

>  <REMARK>
 VINA RESULT:      -6.9      2.192      3.691
  Name = 
  16 active torsions:
  status: ('A' for Active; 'I' for Inactive)
    1  A    between atoms: C_1  and  C_46
    2  A    between atoms: N_3  and  C_44
    3  A    between atoms: N_6  and  N_16
    4  A    between atoms: N_6  and  C_18
    5  A    between atoms: N_7  and  C_25
    6  A    between atoms: C_11  and  C_23
    7  A    between atoms: C_11  and  N_28
    8  A    between atoms: C_12  and  C_45
    9  A    between atoms: C_18  and  C_22
   10  A    between atoms: C_18  and  N_28
   11  A    between atoms: C_20  and  C_48
   12  A    between atoms: C_22  and  C_40
   13  A    between atoms: C_24  and  C_37
   14  A    between atoms: C_25  and  C_48
   15  A    between atoms: C_29  and  C_33
   16  A    between atoms: C_33  and  C_46
                            x       y       z     vdW  Elec       q    Type
                         _______ _______ _______ _____ _____    ______ ____

>  <TORSDO>
F 16

$$$$
=
 OpenBabel11042414113D

 49 54  0  0  1  0  0  0  0  0999 V2000
  191.1460  173.4410  144.0850 C   0  0  2  0  0  3  0  0  0  0  0  0
  191.2530  174.5120  142.9960 C   0  0  0  0  0  2  0  0  0  0  0  0
  187.8180  177.0400  142.4790 C   0  0  1  0  0  3  0  0  0  0  0  0
  188.0760  176.0560  141.3410 C   0  0  0  0  0  2  0  0  0  0  0  0
  189.0520  174.9530  141.7660 C   0  0  0  0  0  2  0  0  0  0  0  0
  190.0080  175.3940  142.8860 C   0  0  2  0  0  3  0  0  0  0  0  0
  189.1060  177.7550  142.9190 C   0  0  0  0  0  2  0  0  0  0  0  0
  190.3630  176.8800  142.7950 C   0  0  0  0  0  2  0  0  0  0  0  0
  186.7320  178.0360  142.1000 C   0  0  0  0  0  2  0  0  0  0  0  0
  185.6130  178.0890  143.1030 C   0  0  0  0  0  0  0  0  0  0  0  0
  185.8490  177.8910  144.3280 O   0  0  0  0  0  0  0  0  0  0  0  0
  182.0180  179.0590  143.1270 C   0  0  0  0  0  3  0  0  0  0  0  0
  183.2970  178.8110  143.5150 N   0  0  0  0  0  0  0  0  0  0  0  0
  182.5550  178.3000  140.9100 C   0  0  0  0  0  3  0  0  0  0  0  0
  184.2280  178.3150  142.6530 C   0  0  0  0  0  0  0  0  0  0  0  0
  183.8620  178.0420  141.3270 C   0  0  0  0  0  3  0  0  0  0  0  0
  181.6100  178.8120  141.8090 C   0  0  0  0  0  0  0  0  0  0  0  0
  180.2620  179.0880  141.3840 N   0  0  0  0  0  0  0  0  0  0  0  0
  177.7410  179.4390  140.3410 O   0  0  0  0  0  0  0  0  0  0  0  0
  180.0300  180.1360  140.3700 C   0  0  0  0  0  2  0  0  0  0  0  0
  178.5640  180.5700  140.3660 C   0  0  0  0  0  2  0  0  0  0  0  0
  177.7920  178.9240  141.6460 C   0  0  0  0  0  2  0  0  0  0  0  0
  179.1530  178.2610  141.8940 C   0  0  0  0  0  2  0  0  0  0  0  0
  190.0770  173.7600  145.0350 N   0  0  0  0  0  2  0  0  0  0  0  0
  190.6400  174.6130  146.0760 C   0  0  0  0  0  2  0  0  0  0  0  0
  188.2870  175.4440  146.3910 C   0  0  0  0  0  3  0  0  0  0  0  0
  189.2460  177.8590  147.3250 N   0  0  0  0  0  0  0  0  0  0  0  0
  190.1300  176.9030  146.9320 C   0  0  0  0  0  3  0  0  0  0  0  0
  189.6660  175.6750  146.4540 C   0  0  0  0  0  0  0  0  0  0  0  0
  187.3960  176.4380  146.7960 C   0  0  0  0  0  3  0  0  0  0  0  0
  187.9020  177.6530  147.2690 C   0  0  0  0  0  0  0  0  0  0  0  0
  187.0070  178.6750  147.6940 N   0  0  0  0  0  1  0  0  0  0  0  0
  192.4240  173.2600  144.7900 N   0  0  0  0  0  2  0  0  0  0  0  0
  193.0270  172.0540  144.3790 N   0  0  0  0  0  2  0  0  0  0  0  0
  194.8590  170.9700  143.4510 O   0  0  0  0  0  0  0  0  0  0  0  0
  194.2460  172.0600  143.6320 C   0  0  0  0  0  0  0  0  0  0  0  0
  195.9700  173.9160  143.6110 N   0  0  0  0  0  0  0  0  0  0  0  0
  197.3970  172.9900  141.8390 C   0  0  0  0  0  2  0  0  0  0  0  0
  194.7400  173.3550  143.0090 C   0  0  1  0  0  3  0  0  0  0  0  0
  194.9320  173.1560  141.5340 C   0  0  0  0  0  3  0  0  0  0  0  0
  196.1380  172.9300  141.0080 C   0  0  0  0  0  0  0  0  0  0  0  0
  197.1080  173.0340  143.3450 C   0  0  0  0  0  2  0  0  0  0  0  0
  196.2540  172.6880  139.5960 C   0  0  0  0  0  0  0  0  0  0  0  0
  196.3440  172.5020  138.4050 C   0  0  0  0  0  3  0  0  0  0  0  0
  195.8110  174.0760  145.0560 C   0  0  0  0  0  2  0  0  0  0  0  0
  195.6030  175.5490  145.3840 C   0  0  0  0  0  2  0  0  0  0  0  0
  194.2100  177.1920  146.5860 C   0  0  0  0  0  2  0  0  0  0  0  0
  194.2760  175.7570  146.1000 C   0  0  0  0  0  3  0  0  0  0  0  0
  193.4510  176.7810  145.3430 C   0  0  0  0  0  2  0  0  0  0  0  0
  1  2  1  6  0  0  0
  1 33  1  0  0  0  0
  1 24  1  0  0  0  0
  3  9  1  6  0  0  0
  3  7  1  0  0  0  0
  4  5  1  0  0  0  0
  4  3  1  0  0  0  0
  5  6  1  0  0  0  0
  6  2  1  6  0  0  0
  8  6  1  0  0  0  0
  8  7  1  0  0  0  0
  9 10  1  0  0  0  0
 10 11  2  0  0  0  0
 12 13  1  0  0  0  0
 14 16  2  0  0  0  0
 14 17  1  0  0  0  0
 15 10  1  0  0  0  0
 15 13  2  0  0  0  0
 16 15  1  0  0  0  0
 17 12  2  0  0  0  0
 18 17  1  0  0  0  0
 18 23  1  0  0  0  0
 19 21  1  0  0  0  0
 19 22  1  0  0  0  0
 20 18  1  0  0  0  0
 21 20  1  0  0  0  0
 22 23  1  0  0  0  0
 24 25  1  0  0  0  0
 25 29  1  0  0  0  0
 26 29  2  0  0  0  0
 26 30  1  0  0  0  0
 28 27  2  0  0  0  0
 29 28  1  0  0  0  0
 30 31  2  0  0  0  0
 31 27  1  0  0  0  0
 31 32  1  0  0  0  0
 34 33  1  0  0  0  0
 35 36  2  0  0  0  0
 36 34  1  0  0  0  0
 37 45  1  0  0  0  0
 38 42  1  0  0  0  0
 39 37  1  0  0  0  0
 39 36  1  1  0  0  0
 40 39  1  0  0  0  0
 41 40  2  0  0  0  0
 41 38  1  0  0  0  0
 42 37  1  0  0  0  0
 43 41  1  0  0  0  0
 44 43  3  0  0  0  0
 45 46  1  0  0  0  0
 46 48  1  0  0  0  0
 48 47  1  0  0  0  0
 49 48  1  0  0  0  0
 49 47  1  0  0  0  0
M  END
>  <MODEL>
5

>  <REMARK>
 VINA RESULT:      -6.5      3.240      6.207
  Name = 
  16 active torsions:
  status: ('A' for Active; 'I' for Inactive)
    1  A    between atoms: C_1  and  C_46
    2  A    between atoms: N_3  and  C_44
    3  A    between atoms: N_6  and  N_16
    4  A    between atoms: N_6  and  C_18
    5  A    between atoms: N_7  and  C_25
    6  A    between atoms: C_11  and  C_23
    7  A    between atoms: C_11  and  N_28
    8  A    between atoms: C_12  and  C_45
    9  A    between atoms: C_18  and  C_22
   10  A    between atoms: C_18  and  N_28
   11  A    between atoms: C_20  and  C_48
   12  A    between atoms: C_22  and  C_40
   13  A    between atoms: C_24  and  C_37
   14  A    between atoms: C_25  and  C_48
   15  A    between atoms: C_29  and  C_33
   16  A    between atoms: C_33  and  C_46
                            x       y       z     vdW  Elec       q    Type
                         _______ _______ _______ _____ _____    ______ ____

>  <TORSDO>
F 16

$$$$
=
 OpenBabel11042414113D

 49 54  0  0  1  0  0  0  0  0999 V2000
  195.9020  173.2470  142.6960 C   0  0  2  0  0  3  0  0  0  0  0  0
  196.1420  174.7020  143.1040 C   0  0  0  0  0  2  0  0  0  0  0  0
  193.3770  176.2660  145.9970 C   0  0  1  0  0  3  0  0  0  0  0  0
  194.5540  177.1800  145.6640 C   0  0  0  0  0  2  0  0  0  0  0  0
  195.2570  176.7400  144.3750 C   0  0  0  0  0  2  0  0  0  0  0  0
  195.0980  175.2390  144.0850 C   0  0  2  0  0  3  0  0  0  0  0  0
  193.8290  174.8150  146.2300 C   0  0  0  0  0  2  0  0  0  0  0  0
  195.0320  174.4040  145.3660 C   0  0  0  0  0  2  0  0  0  0  0  0
  192.5930  176.8010  147.1860 C   0  0  0  0  0  2  0  0  0  0  0  0
  191.2790  176.0980  147.3830 C   0  0  0  0  0  0  0  0  0  0  0  0
  191.1920  175.1320  148.1910 O   0  0  0  0  0  0  0  0  0  0  0  0
  189.1760  177.7440  144.7880 C   0  0  0  0  0  3  0  0  0  0  0  0
  190.2340  177.3760  145.5580 N   0  0  0  0  0  0  0  0  0  0  0  0
  187.7450  176.3180  146.0910 C   0  0  0  0  0  3  0  0  0  0  0  0
  190.1020  176.4960  146.5900 C   0  0  0  0  0  0  0  0  0  0  0  0
  188.8400  175.9580  146.8790 C   0  0  0  0  0  3  0  0  0  0  0  0
  187.8980  177.2220  145.0320 C   0  0  0  0  0  0  0  0  0  0  0  0
  186.7750  177.5920  144.2100 N   0  0  0  0  0  0  0  0  0  0  0  0
  184.5690  178.0090  142.6200 O   0  0  0  0  0  0  0  0  0  0  0  0
  186.9130  177.5410  142.7410 C   0  0  0  0  0  2  0  0  0  0  0  0
  185.8070  178.3520  142.0650 C   0  0  0  0  0  2  0  0  0  0  0  0
  184.5440  178.6440  143.8720 C   0  0  0  0  0  2  0  0  0  0  0  0
  185.4850  177.9200  144.8440 C   0  0  0  0  0  2  0  0  0  0  0  0
  196.8130  172.3440  143.4040 N   0  0  0  0  0  2  0  0  0  0  0  0
  196.4300  170.9730  143.0790 C   0  0  0  0  0  2  0  0  0  0  0  0
  195.4210  170.9740  145.3830 C   0  0  0  0  0  3  0  0  0  0  0  0
  195.5430  168.2170  145.4580 N   0  0  0  0  0  0  0  0  0  0  0  0
  196.0130  168.8710  144.3620 C   0  0  0  0  0  3  0  0  0  0  0  0
  195.9630  170.2660  144.3040 C   0  0  0  0  0  0  0  0  0  0  0  0
  194.9460  170.2840  146.5000 C   0  0  0  0  0  3  0  0  0  0  0  0
  195.0140  168.8880  146.5160 C   0  0  0  0  0  0  0  0  0  0  0  0
  194.5280  168.1680  147.6440 N   0  0  0  0  0  1  0  0  0  0  0  0
  196.0270  173.0670  141.2410 N   0  0  0  0  0  2  0  0  0  0  0  0
  195.1490  173.9470  140.5760 N   0  0  0  0  0  2  0  0  0  0  0  0
  192.9800  174.4720  139.9340 O   0  0  0  0  0  0  0  0  0  0  0  0
  193.7820  173.5900  140.3520 C   0  0  0  0  0  0  0  0  0  0  0  0
  192.2480  171.9490  141.5230 N   0  0  0  0  0  0  0  0  0  0  0  0
  190.5410  171.8150  139.7620 C   0  0  0  0  0  2  0  0  0  0  0  0
  193.3410  172.1490  140.5450 C   0  0  1  0  0  3  0  0  0  0  0  0
  192.9570  171.5640  139.2170 C   0  0  0  0  0  3  0  0  0  0  0  0
  191.6810  171.4670  138.8350 C   0  0  0  0  0  0  0  0  0  0  0  0
  191.0100  172.5510  141.0240 C   0  0  0  0  0  2  0  0  0  0  0  0
  191.3770  170.9530  137.5280 C   0  0  0  0  0  0  0  0  0  0  0  0
  191.1090  170.5340  136.4270 C   0  0  0  0  0  3  0  0  0  0  0  0
  192.5910  172.5510  142.8110 C   0  0  0  0  0  2  0  0  0  0  0  0
  191.7320  171.9320  143.9060 C   0  0  0  0  0  2  0  0  0  0  0  0
  190.2670  173.9080  144.0890 C   0  0  0  0  0  2  0  0  0  0  0  0
  191.2170  173.0060  144.8540 C   0  0  0  0  0  3  0  0  0  0  0  0
  189.7160  172.8510  145.0220 C   0  0  0  0  0  2  0  0  0  0  0  0
  1  2  1  6  0  0  0
  1 24  1  0  0  0  0
  3  7  1  0  0  0  0
  3  9  1  1  0  0  0
  4  3  1  0  0  0  0
  5  4  1  0  0  0  0
  6  2  1  6  0  0  0
  6  5  1  0  0  0  0
  6  8  1  0  0  0  0
  8  7  1  0  0  0  0
  9 10  1  0  0  0  0
 10 11  2  0  0  0  0
 12 17  2  0  0  0  0
 12 13  1  0  0  0  0
 13 15  2  0  0  0  0
 14 16  2  0  0  0  0
 15 16  1  0  0  0  0
 15 10  1  0  0  0  0
 17 14  1  0  0  0  0
 18 23  1  0  0  0  0
 18 17  1  0  0  0  0
 19 22  1  0  0  0  0
 20 18  1  0  0  0  0
 21 19  1  0  0  0  0
 21 20  1  0  0  0  0
 22 23  1  0  0  0  0
 25 24  1  0  0  0  0
 25 29  1  0  0  0  0
 26 30  1  0  0  0  0
 27 31  1  0  0  0  0
 28 27  2  0  0  0  0
 29 28  1  0  0  0  0
 29 26  2  0  0  0  0
 30 31  2  0  0  0  0
 31 32  1  0  0  0  0
 33  1  1  0  0  0  0
 34 33  1  0  0  0  0
 35 36  2  0  0  0  0
 36 34  1  0  0  0  0
 37 45  1  0  0  0  0
 38 42  1  0  0  0  0
 39 36  1  6  0  0  0
 39 37  1  0  0  0  0
 40 39  1  0  0  0  0
 41 40  2  0  0  0  0
 41 38  1  0  0  0  0
 42 37  1  0  0  0  0
 43 41  1  0  0  0  0
 44 43  3  0  0  0  0
 45 46  1  0  0  0  0
 46 48  1  0  0  0  0
 47 48  1  0  0  0  0
 47 49  1  0  0  0  0
 48 49  1  0  0  0  0
M  END
>  <MODEL>
6

>  <REMARK>
 VINA RESULT:      -6.5      2.251      6.556
  Name = 
  16 active torsions:
  status: ('A' for Active; 'I' for Inactive)
    1  A    between atoms: C_1  and  C_46
    2  A    between atoms: N_3  and  C_44
    3  A    between atoms: N_6  and  N_16
    4  A    between atoms: N_6  and  C_18
    5  A    between atoms: N_7  and  C_25
    6  A    between atoms: C_11  and  C_23
    7  A    between atoms: C_11  and  N_28
    8  A    between atoms: C_12  and  C_45
    9  A    between atoms: C_18  and  C_22
   10  A    between atoms: C_18  and  N_28
   11  A    between atoms: C_20  and  C_48
   12  A    between atoms: C_22  and  C_40
   13  A    between atoms: C_24  and  C_37
   14  A    between atoms: C_25  and  C_48
   15  A    between atoms: C_29  and  C_33
   16  A    between atoms: C_33  and  C_46
                            x       y       z     vdW  Elec       q    Type
                         _______ _______ _______ _____ _____    ______ ____

>  <TORSDO>
F 16

$$$$
=
 OpenBabel11042414113D

 49 54  0  0  1  0  0  0  0  0999 V2000
  187.9890  175.1180  142.6230 C   0  0  2  0  0  3  0  0  0  0  0  0
  188.5870  175.4090  141.2440 C   0  0  0  0  0  2  0  0  0  0  0  0
  190.2340  171.8440  139.5010 C   0  0  1  0  0  3  0  0  0  0  0  0
  189.3030  171.6150  140.6900 C   0  0  0  0  0  2  0  0  0  0  0  0
  188.4700  172.8640  140.9960 C   0  0  0  0  0  2  0  0  0  0  0  0
  189.1530  174.1670  140.5520 C   0  0  2  0  0  3  0  0  0  0  0  0
  191.2410  172.9730  139.7730 C   0  0  0  0  0  2  0  0  0  0  0  0
  190.6780  174.0910  140.6650 C   0  0  0  0  0  2  0  0  0  0  0  0
  190.9390  170.5550  139.1070 C   0  0  0  0  0  2  0  0  0  0  0  0
  191.2730  169.6870  140.2880 C   0  0  0  0  0  0  0  0  0  0  0  0
  190.6360  168.6140  140.4870 O   0  0  0  0  0  0  0  0  0  0  0  0
  194.5700  170.6800  141.7040 C   0  0  0  0  0  3  0  0  0  0  0  0
  193.5980  170.2610  140.8510 N   0  0  0  0  0  0  0  0  0  0  0  0
  192.9420  170.8330  143.4660 C   0  0  0  0  0  3  0  0  0  0  0  0
  192.3040  170.1130  141.2500 C   0  0  0  0  0  0  0  0  0  0  0  0
  191.9580  170.3920  142.5810 C   0  0  0  0  0  3  0  0  0  0  0  0
  194.2690  170.9810  143.0390 C   0  0  0  0  0  0  0  0  0  0  0  0
  195.2880  171.4440  143.9450 N   0  0  0  0  0  0  0  0  0  0  0  0
  197.3850  172.4190  145.4360 O   0  0  0  0  0  0  0  0  0  0  0  0
  196.4620  170.5860  144.2030 C   0  0  0  0  0  2  0  0  0  0  0  0
  197.1900  171.0330  145.4710 C   0  0  0  0  0  2  0  0  0  0  0  0
  196.1260  172.9690  145.7260 C   0  0  0  0  0  2  0  0  0  0  0  0
  195.1900  172.7970  144.5210 C   0  0  0  0  0  2  0  0  0  0  0  0
  186.6760  175.7500  142.7720 N   0  0  0  0  0  2  0  0  0  0  0  0
  186.7910  177.1360  142.3290 C   0  0  0  0  0  2  0  0  0  0  0  0
  185.1490  177.8430  140.5600 C   0  0  0  0  0  3  0  0  0  0  0  0
  183.2440  178.3320  142.4980 N   0  0  0  0  0  0  0  0  0  0  0  0
  184.4790  177.9060  142.8770 C   0  0  0  0  0  3  0  0  0  0  0  0
  185.4580  177.6540  141.9120 C   0  0  0  0  0  0  0  0  0  0  0  0
  183.8760  178.2840  140.1930 C   0  0  0  0  0  3  0  0  0  0  0  0
  182.9250  178.5220  141.1900 C   0  0  0  0  0  0  0  0  0  0  0  0
  181.6210  178.9650  140.8320 N   0  0  0  0  0  1  0  0  0  0  0  0
  188.8910  175.5450  143.7030 N   0  0  0  0  0  2  0  0  0  0  0  0
  189.7780  174.4970  144.0230 N   0  0  0  0  0  2  0  0  0  0  0  0
  191.6340  173.7650  145.2130 O   0  0  0  0  0  0  0  0  0  0  0  0
  190.9680  174.7470  144.7770 C   0  0  0  0  0  0  0  0  0  0  0  0
  191.5330  176.6240  146.3810 N   0  0  0  0  0  0  0  0  0  0  0  0
  193.9540  176.2230  146.4820 C   0  0  0  0  0  2  0  0  0  0  0  0
  191.4470  176.1750  144.9740 C   0  0  1  0  0  3  0  0  0  0  0  0
  192.7730  176.3520  144.2940 C   0  0  0  0  0  3  0  0  0  0  0  0
  193.9220  176.3140  144.9750 C   0  0  0  0  0  0  0  0  0  0  0  0
  192.5840  175.8830  147.0820 C   0  0  0  0  0  2  0  0  0  0  0  0
  195.1650  176.4310  144.2630 C   0  0  0  0  0  0  0  0  0  0  0  0
  196.2110  176.5470  143.6700 C   0  0  0  0  0  3  0  0  0  0  0  0
  190.2590  176.4180  147.0680 C   0  0  0  0  0  2  0  0  0  0  0  0
  189.2570  177.4690  146.6060 C   0  0  0  0  0  2  0  0  0  0  0  0
  186.9750  177.9580  147.4030 C   0  0  0  0  0  2  0  0  0  0  0  0
  187.8360  176.9300  146.6940 C   0  0  0  0  0  3  0  0  0  0  0  0
  186.9080  177.8280  145.8960 C   0  0  0  0  0  2  0  0  0  0  0  0
  1  2  1  6  0  0  0
  1 24  1  0  0  0  0
  1 33  1  0  0  0  0
  3  9  1  1  0  0  0
  3  7  1  0  0  0  0
  3  4  1  0  0  0  0
  4  5  1  0  0  0  0
  6  8  1  0  0  0  0
  6  5  1  0  0  0  0
  6  2  1  1  0  0  0
  7  8  1  0  0  0  0
  9 10  1  0  0  0  0
 10 11  2  0  0  0  0
 10 15  1  0  0  0  0
 12 17  1  0  0  0  0
 13 15  1  0  0  0  0
 13 12  2  0  0  0  0
 15 16  2  0  0  0  0
 16 14  1  0  0  0  0
 17 14  2  0  0  0  0
 17 18  1  0  0  0  0
 18 20  1  0  0  0  0
 18 23  1  0  0  0  0
 19 21  1  0  0  0  0
 19 22  1  0  0  0  0
 20 21  1  0  0  0  0
 23 22  1  0  0  0  0
 25 24  1  0  0  0  0
 26 29  1  0  0  0  0
 27 28  1  0  0  0  0
 29 25  1  0  0  0  0
 29 28  2  0  0  0  0
 30 26  2  0  0  0  0
 30 31  1  0  0  0  0
 31 27  2  0  0  0  0
 32 31  1  0  0  0  0
 33 34  1  0  0  0  0
 34 36  1  0  0  0  0
 36 35  2  0  0  0  0
 37 45  1  0  0  0  0
 37 42  1  0  0  0  0
 38 42  1  0  0  0  0
 39 36  1  1  0  0  0
 39 37  1  0  0  0  0
 40 39  1  0  0  0  0
 40 41  2  0  0  0  0
 41 38  1  0  0  0  0
 43 41  1  0  0  0  0
 44 43  3  0  0  0  0
 46 48  1  0  0  0  0
 46 45  1  0  0  0  0
 48 47  1  0  0  0  0
 49 48  1  0  0  0  0
 49 47  1  0  0  0  0
M  END
>  <MODEL>
7

>  <REMARK>
 VINA RESULT:      -6.5      2.851      8.638
  Name = 
  16 active torsions:
  status: ('A' for Active; 'I' for Inactive)
    1  A    between atoms: C_1  and  C_46
    2  A    between atoms: N_3  and  C_44
    3  A    between atoms: N_6  and  N_16
    4  A    between atoms: N_6  and  C_18
    5  A    between atoms: N_7  and  C_25
    6  A    between atoms: C_11  and  C_23
    7  A    between atoms: C_11  and  N_28
    8  A    between atoms: C_12  and  C_45
    9  A    between atoms: C_18  and  C_22
   10  A    between atoms: C_18  and  N_28
   11  A    between atoms: C_20  and  C_48
   12  A    between atoms: C_22  and  C_40
   13  A    between atoms: C_24  and  C_37
   14  A    between atoms: C_25  and  C_48
   15  A    between atoms: C_29  and  C_33
   16  A    between atoms: C_33  and  C_46
                            x       y       z     vdW  Elec       q    Type
                         _______ _______ _______ _____ _____    ______ ____

>  <TORSDO>
F 16

$$$$
=
 OpenBabel11042414113D

 49 54  0  0  1  0  0  0  0  0999 V2000
  188.3140  173.3910  141.1220 C   0  0  2  0  0  3  0  0  0  0  0  0
  188.4910  172.3550  142.2340 C   0  0  0  0  0  2  0  0  0  0  0  0
  192.3150  172.2900  144.1910 C   0  0  1  0  0  3  0  0  0  0  0  0
  191.8960  170.9740  143.5420 C   0  0  0  0  0  2  0  0  0  0  0  0
  190.7410  171.1790  142.5550 C   0  0  0  0  0  2  0  0  0  0  0  0
  189.8710  172.4000  142.8940 C   0  0  2  0  0  3  0  0  0  0  0  0
  191.1690  172.9180  145.0000 C   0  0  0  0  0  2  0  0  0  0  0  0
  189.7790  172.6480  144.4010 C   0  0  0  0  0  2  0  0  0  0  0  0
  193.5590  172.1030  145.0460 C   0  0  0  0  0  2  0  0  0  0  0  0
  194.7440  172.8720  144.5310 C   0  0  0  0  0  0  0  0  0  0  0  0
  195.5820  173.3620  145.3380 O   0  0  0  0  0  0  0  0  0  0  0  0
  194.8430  174.6070  141.2370 C   0  0  0  0  0  3  0  0  0  0  0  0
  194.6810  174.3470  142.5610 N   0  0  0  0  0  0  0  0  0  0  0  0
  195.4710  172.3150  140.8750 C   0  0  0  0  0  3  0  0  0  0  0  0
  194.8990  173.1070  143.0840 C   0  0  0  0  0  0  0  0  0  0  0  0
  195.2910  172.0620  142.2360 C   0  0  0  0  0  3  0  0  0  0  0  0
  195.2450  173.5960  140.3540 C   0  0  0  0  0  0  0  0  0  0  0  0
  195.4360  173.8660  138.9520 N   0  0  0  0  0  0  0  0  0  0  0  0
  195.6220  174.1510  136.2220 O   0  0  0  0  0  0  0  0  0  0  0  0
  196.4510  173.0970  138.2050 C   0  0  0  0  0  2  0  0  0  0  0  0
  196.7990  173.7950  136.8910 C   0  0  0  0  0  2  0  0  0  0  0  0
  195.1340  175.2690  136.9180 C   0  0  0  0  0  2  0  0  0  0  0  0
  194.5550  174.8320  138.2700 C   0  0  0  0  0  2  0  0  0  0  0  0
  188.2670  172.7500  139.8060 N   0  0  0  0  0  2  0  0  0  0  0  0
  189.5250  173.0330  139.1210 C   0  0  0  0  0  2  0  0  0  0  0  0
  190.8040  170.8680  139.1790 C   0  0  0  0  0  3  0  0  0  0  0  0
  190.1460  170.3890  136.5410 N   0  0  0  0  0  0  0  0  0  0  0  0
  189.7180  171.5370  137.1310 C   0  0  0  0  0  3  0  0  0  0  0  0
  190.0420  171.8000  138.4650 C   0  0  0  0  0  0  0  0  0  0  0  0
  191.2360  169.6980  138.5540 C   0  0  0  0  0  3  0  0  0  0  0  0
  190.8890  169.4720  137.2180 C   0  0  0  0  0  0  0  0  0  0  0  0
  191.3140  168.2800  136.5680 N   0  0  0  0  0  1  0  0  0  0  0  0
  189.3750  174.4100  141.1600 N   0  0  0  0  0  2  0  0  0  0  0  0
  188.8000  175.6970  141.1260 N   0  0  0  0  0  2  0  0  0  0  0  0
  188.3680  177.7030  142.2120 O   0  0  0  0  0  0  0  0  0  0  0  0
  188.7040  176.4890  142.3130 C   0  0  0  0  0  0  0  0  0  0  0  0
  190.0740  176.3830  144.4410 N   0  0  0  0  0  0  0  0  0  0  0  0
  188.6190  177.8090  145.8130 C   0  0  0  0  0  2  0  0  0  0  0  0
  188.9320  175.8430  143.6690 C   0  0  1  0  0  3  0  0  0  0  0  0
  187.6730  175.9320  144.4800 C   0  0  0  0  0  3  0  0  0  0  0  0
  187.5070  176.8680  145.4180 C   0  0  0  0  0  0  0  0  0  0  0  0
  189.8030  177.7660  144.8380 C   0  0  0  0  0  2  0  0  0  0  0  0
  186.2570  176.9410  146.1230 C   0  0  0  0  0  0  0  0  0  0  0  0
  185.1970  177.0090  146.7000 C   0  0  0  0  0  3  0  0  0  0  0  0
  191.3000  176.3410  143.6460 C   0  0  0  0  0  2  0  0  0  0  0  0
  192.4360  176.9840  144.4320 C   0  0  0  0  0  2  0  0  0  0  0  0
  194.2020  176.6570  146.1230 C   0  0  0  0  0  2  0  0  0  0  0  0
  193.0890  175.9670  145.3590 C   0  0  0  0  0  3  0  0  0  0  0  0
  192.8760  176.3910  146.8010 C   0  0  0  0  0  2  0  0  0  0  0  0
  1 33  1  0  0  0  0
  1  2  1  1  0  0  0
  3  7  1  0  0  0  0
  3  9  1  1  0  0  0
  4  3  1  0  0  0  0
  5  6  1  0  0  0  0
  5  4  1  0  0  0  0
  6  2  1  1  0  0  0
  6  8  1  0  0  0  0
  8  7  1  0  0  0  0
 10  9  1  0  0  0  0
 10 11  2  0  0  0  0
 12 13  1  0  0  0  0
 13 15  2  0  0  0  0
 14 16  2  0  0  0  0
 15 10  1  0  0  0  0
 16 15  1  0  0  0  0
 17 14  1  0  0  0  0
 17 12  2  0  0  0  0
 18 17  1  0  0  0  0
 19 21  1  0  0  0  0
 19 22  1  0  0  0  0
 20 18  1  0  0  0  0
 21 20  1  0  0  0  0
 22 23  1  0  0  0  0
 23 18  1  0  0  0  0
 24  1  1  0  0  0  0
 25 24  1  0  0  0  0
 27 28  2  0  0  0  0
 27 31  1  0  0  0  0
 28 29  1  0  0  0  0
 29 25  1  0  0  0  0
 29 26  2  0  0  0  0
 30 26  1  0  0  0  0
 31 30  2  0  0  0  0
 32 31  1  0  0  0  0
 34 33  1  0  0  0  0
 34 36  1  0  0  0  0
 35 36  2  0  0  0  0
 37 42  1  0  0  0  0
 39 36  1  6  0  0  0
 39 37  1  0  0  0  0
 39 40  1  0  0  0  0
 40 41  2  0  0  0  0
 41 38  1  0  0  0  0
 41 43  1  0  0  0  0
 42 38  1  0  0  0  0
 43 44  3  0  0  0  0
 45 46  1  0  0  0  0
 45 37  1  0  0  0  0
 46 48  1  0  0  0  0
 47 49  1  0  0  0  0
 48 47  1  0  0  0  0
 48 49  1  0  0  0  0
M  END
>  <MODEL>
8

>  <REMARK>
 VINA RESULT:      -6.5      2.832      7.645
  Name = 
  16 active torsions:
  status: ('A' for Active; 'I' for Inactive)
    1  A    between atoms: C_1  and  C_46
    2  A    between atoms: N_3  and  C_44
    3  A    between atoms: N_6  and  N_16
    4  A    between atoms: N_6  and  C_18
    5  A    between atoms: N_7  and  C_25
    6  A    between atoms: C_11  and  C_23
    7  A    between atoms: C_11  and  N_28
    8  A    between atoms: C_12  and  C_45
    9  A    between atoms: C_18  and  C_22
   10  A    between atoms: C_18  and  N_28
   11  A    between atoms: C_20  and  C_48
   12  A    between atoms: C_22  and  C_40
   13  A    between atoms: C_24  and  C_37
   14  A    between atoms: C_25  and  C_48
   15  A    between atoms: C_29  and  C_33
   16  A    between atoms: C_33  and  C_46
                            x       y       z     vdW  Elec       q    Type
                         _______ _______ _______ _____ _____    ______ ____

>  <TORSDO>
F 16

$$$$
=
 OpenBabel11042414113D

 49 54  0  0  1  0  0  0  0  0999 V2000
  188.9460  175.2390  142.3720 C   0  0  2  0  0  3  0  0  0  0  0  0
  188.8630  174.6800  143.7940 C   0  0  0  0  0  2  0  0  0  0  0  0
  191.9760  176.2900  146.2780 C   0  0  1  0  0  3  0  0  0  0  0  0
  191.8420  176.9400  144.9030 C   0  0  0  0  0  2  0  0  0  0  0  0
  190.5000  176.5940  144.2500 C   0  0  0  0  0  2  0  0  0  0  0  0
  189.9190  175.2570  144.7380 C   0  0  2  0  0  3  0  0  0  0  0  0
  191.9250  174.7560  146.1930 C   0  0  0  0  0  2  0  0  0  0  0  0
  191.0100  174.2370  145.0720 C   0  0  0  0  0  2  0  0  0  0  0  0
  193.2380  176.7650  146.9820 C   0  0  0  0  0  2  0  0  0  0  0  0
  194.4230  176.8550  146.0610 C   0  0  0  0  0  0  0  0  0  0  0  0
  194.8940  177.9820  145.7420 O   0  0  0  0  0  0  0  0  0  0  0  0
  196.0350  173.5080  145.7930 C   0  0  0  0  0  3  0  0  0  0  0  0
  195.5190  174.6630  146.2910 N   0  0  0  0  0  0  0  0  0  0  0  0
  195.5230  174.2540  143.5650 C   0  0  0  0  0  3  0  0  0  0  0  0
  195.0020  175.6300  145.4810 C   0  0  0  0  0  0  0  0  0  0  0  0
  195.0060  175.4380  144.0920 C   0  0  0  0  0  3  0  0  0  0  0  0
  196.0500  173.2690  144.4120 C   0  0  0  0  0  0  0  0  0  0  0  0
  196.5770  172.0410  143.8760 N   0  0  0  0  0  0  0  0  0  0  0  0
  197.7930  169.8600  142.7210 O   0  0  0  0  0  0  0  0  0  0  0  0
  196.2000  171.6340  142.5080 C   0  0  0  0  0  2  0  0  0  0  0  0
  196.4950  170.1510  142.2840 C   0  0  0  0  0  2  0  0  0  0  0  0
  197.7070  169.8350  144.1220 C   0  0  0  0  0  2  0  0  0  0  0  0
  197.5550  171.2640  144.6620 C   0  0  0  0  0  2  0  0  0  0  0  0
  187.6370  175.7090  141.9130 N   0  0  0  0  0  2  0  0  0  0  0  0
  187.6560  177.1690  141.9140 C   0  0  0  0  0  2  0  0  0  0  0  0
  186.3050  179.0430  142.9080 C   0  0  0  0  0  3  0  0  0  0  0  0
  185.1570  177.2860  144.7040 N   0  0  0  0  0  0  0  0  0  0  0  0
  186.0850  176.8220  143.8250 C   0  0  0  0  0  3  0  0  0  0  0  0
  186.6800  177.6940  142.9090 C   0  0  0  0  0  0  0  0  0  0  0  0
  185.3520  179.5000  143.8200 C   0  0  0  0  0  3  0  0  0  0  0  0
  184.7810  178.5930  144.7180 C   0  0  0  0  0  0  0  0  0  0  0  0
  183.8020  179.0420  145.6500 N   0  0  0  0  0  1  0  0  0  0  0  0
  189.4960  174.2490  141.4340 N   0  0  0  0  0  2  0  0  0  0  0  0
  190.9030  174.3430  141.4140 N   0  0  0  0  0  2  0  0  0  0  0  0
  192.9580  173.2730  141.2660 O   0  0  0  0  0  0  0  0  0  0  0  0
  191.7180  173.1700  141.4830 C   0  0  0  0  0  0  0  0  0  0  0  0
  191.0620  170.8120  140.8280 N   0  0  0  0  0  0  0  0  0  0  0  0
  193.0590  169.6840  141.7050 C   0  0  0  0  0  2  0  0  0  0  0  0
  191.0950  171.8440  141.8880 C   0  0  1  0  0  3  0  0  0  0  0  0
  191.8000  171.3140  143.1020 C   0  0  0  0  0  3  0  0  0  0  0  0
  192.7400  170.3700  143.0110 C   0  0  0  0  0  0  0  0  0  0  0  0
  192.4230  170.3860  140.4980 C   0  0  0  0  0  2  0  0  0  0  0  0
  193.4240  169.9420  144.2010 C   0  0  0  0  0  0  0  0  0  0  0  0
  193.9850  169.5700  145.2040 C   0  0  0  0  0  3  0  0  0  0  0  0
  190.4140  171.3300  139.6240 C   0  0  0  0  0  2  0  0  0  0  0  0
  190.1460  170.1820  138.6580 C   0  0  0  0  0  2  0  0  0  0  0  0
  191.6360  170.7540  136.7770 C   0  0  0  0  0  2  0  0  0  0  0  0
  190.1870  170.6730  137.2180 C   0  0  0  0  0  3  0  0  0  0  0  0
  190.7760  169.5900  136.3330 C   0  0  0  0  0  2  0  0  0  0  0  0
  1  2  1  1  0  0  0
  3  9  1  6  0  0  0
  4  3  1  0  0  0  0
  5  6  1  0  0  0  0
  5  4  1  0  0  0  0
  6  2  1  6  0  0  0
  6  8  1  0  0  0  0
  7  3  1  0  0  0  0
  8  7  1  0  0  0  0
 10  9  1  0  0  0  0
 11 10  2  0  0  0  0
 12 13  1  0  0  0  0
 14 16  2  0  0  0  0
 14 17  1  0  0  0  0
 15 10  1  0  0  0  0
 15 13  2  0  0  0  0
 16 15  1  0  0  0  0
 17 12  2  0  0  0  0
 18 17  1  0  0  0  0
 18 23  1  0  0  0  0
 19 22  1  0  0  0  0
 20 18  1  0  0  0  0
 21 20  1  0  0  0  0
 21 19  1  0  0  0  0
 22 23  1  0  0  0  0
 24 25  1  0  0  0  0
 24  1  1  0  0  0  0
 25 29  1  0  0  0  0
 26 29  2  0  0  0  0
 26 30  1  0  0  0  0
 27 31  1  0  0  0  0
 28 27  2  0  0  0  0
 29 28  1  0  0  0  0
 30 31  2  0  0  0  0
 31 32  1  0  0  0  0
 33  1  1  0  0  0  0
 34 33  1  0  0  0  0
 34 36  1  0  0  0  0
 35 36  2  0  0  0  0
 37 39  1  0  0  0  0
 38 41  1  0  0  0  0
 39 36  1  6  0  0  0
 39 40  1  0  0  0  0
 41 40  2  0  0  0  0
 41 43  1  0  0  0  0
 42 37  1  0  0  0  0
 42 38  1  0  0  0  0
 43 44  3  0  0  0  0
 45 37  1  0  0  0  0
 46 45  1  0  0  0  0
 47 48  1  0  0  0  0
 48 46  1  0  0  0  0
 49 47  1  0  0  0  0
 49 48  1  0  0  0  0
M  END
>  <MODEL>
9

>  <REMARK>
 VINA RESULT:      -6.4      2.910      8.401
  Name = 
  16 active torsions:
  status: ('A' for Active; 'I' for Inactive)
    1  A    between atoms: C_1  and  C_46
    2  A    between atoms: N_3  and  C_44
    3  A    between atoms: N_6  and  N_16
    4  A    between atoms: N_6  and  C_18
    5  A    between atoms: N_7  and  C_25
    6  A    between atoms: C_11  and  C_23
    7  A    between atoms: C_11  and  N_28
    8  A    between atoms: C_12  and  C_45
    9  A    between atoms: C_18  and  C_22
   10  A    between atoms: C_18  and  N_28
   11  A    between atoms: C_20  and  C_48
   12  A    between atoms: C_22  and  C_40
   13  A    between atoms: C_24  and  C_37
   14  A    between atoms: C_25  and  C_48
   15  A    between atoms: C_29  and  C_33
   16  A    between atoms: C_33  and  C_46
                            x       y       z     vdW  Elec       q    Type
                         _______ _______ _______ _____ _____    ______ ____

>  <TORSDO>
F 16

$$$$
