=
 OpenBabel11042415413D

 46 51  0  0  1  0  0  0  0  0999 V2000
  193.6870  174.3770  141.1800 O   0  0  0  0  0  1  0  0  0  0  0  0
  192.8700  173.4820  141.8610 C   0  0  0  0  0  0  0  0  0  0  0  0
  189.1610  174.6320  143.3940 C   0  0  0  0  0  2  0  0  0  0  0  0
  191.2270  171.6700  143.1450 N   0  0  0  0  0  0  0  0  0  0  0  0
  191.0080  173.0000  143.3180 C   0  0  0  0  0  0  0  0  0  0  0  0
  192.3790  175.8750  144.2470 C   0  0  1  0  0  3  0  0  0  0  0  0
  189.8360  173.4650  144.1170 C   0  0  1  0  0  3  0  0  0  0  0  0
  193.0740  172.1130  141.7020 C   0  0  0  0  0  3  0  0  0  0  0  0
  192.2300  171.1980  142.3520 C   0  0  0  0  0  0  0  0  0  0  0  0
  192.2130  177.3770  144.5370 C   0  0  0  0  0  2  0  0  0  0  0  0
  190.2430  173.8510  145.3960 O   0  0  0  0  0  1  0  0  0  0  0  0
  190.1200  175.7870  143.0290 C   0  0  1  0  0  3  0  0  0  0  0  0
  189.8120  177.0000  143.9150 C   0  0  1  0  0  3  0  0  0  0  0  0
  191.8430  173.9410  142.6970 C   0  0  0  0  0  0  0  0  0  0  0  0
  191.6370  175.4140  142.9690 C   0  0  2  0  0  3  0  0  0  0  0  0
  190.9680  177.9920  143.8990 C   0  0  0  0  0  2  0  0  0  0  0  0
  194.2770  174.3660  144.9600 C   0  0  0  0  0  3  0  0  0  0  0  0
  196.1100  175.9750  143.6480 C   0  0  0  0  0  0  0  0  0  0  0  0
  193.8310  175.5010  144.2700 C   0  0  0  0  0  0  0  0  0  0  0  0
  196.5200  174.8700  144.3260 N   0  0  0  0  0  0  0  0  0  0  0  0
  195.6430  174.0630  144.9830 C   0  0  0  0  0  0  0  0  0  0  0  0
  194.7560  176.3130  143.6120 C   0  0  0  0  0  3  0  0  0  0  0  0
  197.0620  176.7900  142.9750 N   0  0  0  0  0  1  0  0  0  0  0  0
  195.9090  170.4380  146.2700 C   0  0  0  0  0  1  0  0  0  0  0  0
  197.1430  172.9830  146.4660 O   0  0  0  0  0  0  0  0  0  0  0  0
  196.1330  172.8880  145.7160 C   0  0  0  0  0  0  0  0  0  0  0  0
  195.4660  171.6310  145.5700 N   0  0  0  0  0  2  0  0  0  0  0  0
  194.5440  168.6040  142.7190 N   0  0  0  0  0  0  0  0  0  0  0  0
  193.2310  169.3780  141.0060 C   0  0  0  0  0  3  0  0  0  0  0  0
  193.1410  169.1460  144.5320 O   0  0  0  0  0  0  0  0  0  0  0  0
  193.3800  169.1630  143.2950 C   0  0  0  0  0  0  0  0  0  0  0  0
  192.4510  169.7070  142.2540 C   0  0  1  0  0  3  0  0  0  0  0  0
  194.3810  168.7880  141.3180 C   0  0  0  0  0  0  0  0  0  0  0  0
  195.7700  168.2940  143.4380 C   0  0  0  0  0  1  0  0  0  0  0  0
  196.4820  169.1270  139.9250 C   0  0  0  0  0  1  0  0  0  0  0  0
  195.3130  168.3590  140.3190 N   0  0  0  0  0  2  0  0  0  0  0  0
  188.5930  177.6530  143.4550 N   0  0  0  0  0  2  0  0  0  0  0  0
  187.4070  177.2200  145.5440 C   0  0  0  0  0  3  0  0  0  0  0  0
  186.2640  176.7930  147.6220 O   0  0  0  0  0  1  0  0  0  0  0  0
  183.9410  179.0410  143.9610 C   0  0  0  0  0  1  0  0  0  0  0  0
  184.0660  177.9910  146.5130 O   0  0  0  0  0  0  0  0  0  0  0  0
  186.2370  178.3260  143.7550 C   0  0  0  0  0  3  0  0  0  0  0  0
  185.1210  178.4070  144.5290 N   0  0  0  0  0  0  0  0  0  0  0  0
  187.4050  177.7290  144.2460 C   0  0  0  0  0  0  0  0  0  0  0  0
  186.2580  177.3050  146.3300 C   0  0  0  0  0  0  0  0  0  0  0  0
  185.1080  177.9110  145.8040 C   0  0  0  0  0  0  0  0  0  0  0  0
  1  2  1  0  0  0  0
  2 14  1  0  0  0  0
  3  7  1  0  0  0  0
  4  5  1  0  0  0  0
  5  7  1  0  0  0  0
  6 19  1  6  0  0  0
  6 10  1  0  0  0  0
  7 11  1  1  0  0  0
  8  2  2  0  0  0  0
  8  9  1  0  0  0  0
  9  4  2  0  0  0  0
 12  3  1  1  0  0  0
 12 13  1  0  0  0  0
 13 37  1  6  0  0  0
 14  5  2  0  0  0  0
 15 14  1  1  0  0  0
 15 12  1  0  0  0  0
 15  6  1  0  0  0  0
 16 13  1  0  0  0  0
 16 10  1  0  0  0  0
 17 21  1  0  0  0  0
 18 20  1  0  0  0  0
 19 17  2  0  0  0  0
 20 21  2  0  0  0  0
 21 26  1  0  0  0  0
 22 18  2  0  0  0  0
 22 19  1  0  0  0  0
 23 18  1  0  0  0  0
 26 25  2  0  0  0  0
 27 26  1  0  0  0  0
 27 24  1  0  0  0  0
 28 31  1  0  0  0  0
 28 34  1  0  0  0  0
 29 33  2  0  0  0  0
 29 32  1  0  0  0  0
 31 30  2  0  0  0  0
 32  9  1  1  0  0  0
 32 31  1  0  0  0  0
 33 28  1  0  0  0  0
 35 36  1  0  0  0  0
 36 33  1  0  0  0  0
 37 44  1  0  0  0  0
 38 45  2  0  0  0  0
 40 43  1  0  0  0  0
 42 44  2  0  0  0  0
 42 43  1  0  0  0  0
 43 46  1  0  0  0  0
 44 38  1  0  0  0  0
 45 39  1  0  0  0  0
 46 45  1  0  0  0  0
 46 41  2  0  0  0  0
M  END
>  <MODEL>
1

>  <REMARK>
 VINA RESULT:      -8.0      0.000      0.000
  Name = 
  6 active torsions:
  status: ('A' for Active; 'I' for Inactive)
    1  A    between atoms: C_10  and  C_23
    2  A    between atoms: N_17  and  C_38
    3  A    between atoms: N_17  and  C_39
    4  A    between atoms: C_18  and  C_20
    5  A    between atoms: C_28  and  C_33
    6  A    between atoms: C_36  and  N_43
                            x       y       z     vdW  Elec       q    Type
                         _______ _______ _______ _____ _____    ______ ____

>  <TORSDO>
F 6

$$$$
=
 OpenBabel11042415413D

 46 51  0  0  1  0  0  0  0  0999 V2000
  193.4020  174.3520  141.0200 O   0  0  0  0  0  1  0  0  0  0  0  0
  192.6080  173.4980  141.7760 C   0  0  0  0  0  0  0  0  0  0  0  0
  188.9600  174.7410  143.3810 C   0  0  0  0  0  2  0  0  0  0  0  0
  191.0110  171.7610  143.2130 N   0  0  0  0  0  0  0  0  0  0  0  0
  190.8000  173.1000  143.3240 C   0  0  0  0  0  0  0  0  0  0  0  0
  192.2090  176.0140  144.0500 C   0  0  1  0  0  3  0  0  0  0  0  0
  189.6590  173.6100  144.1400 C   0  0  1  0  0  3  0  0  0  0  0  0
  192.8040  172.1210  141.6820 C   0  0  0  0  0  3  0  0  0  0  0  0
  191.9830  171.2450  142.4090 C   0  0  0  0  0  0  0  0  0  0  0  0
  192.0570  177.5300  144.2660 C   0  0  0  0  0  2  0  0  0  0  0  0
  190.1130  174.0610  145.3810 O   0  0  0  0  0  1  0  0  0  0  0  0
  189.9070  175.8710  142.9220 C   0  0  1  0  0  3  0  0  0  0  0  0
  189.6340  177.1300  143.7530 C   0  0  1  0  0  3  0  0  0  0  0  0
  191.6130  174.0030  142.6240 C   0  0  0  0  0  0  0  0  0  0  0  0
  191.4200  175.4900  142.8250 C   0  0  2  0  0  3  0  0  0  0  0  0
  190.7900  178.1160  143.6430 C   0  0  0  0  0  2  0  0  0  0  0  0
  194.1370  174.5660  144.8070 C   0  0  0  0  0  3  0  0  0  0  0  0
  195.9090  176.0420  143.2730 C   0  0  0  0  0  0  0  0  0  0  0  0
  193.6610  175.6370  144.0390 C   0  0  0  0  0  0  0  0  0  0  0  0
  196.3490  175.0000  144.0280 N   0  0  0  0  0  0  0  0  0  0  0  0
  195.5030  174.2590  144.7940 C   0  0  0  0  0  0  0  0  0  0  0  0
  194.5550  176.3820  143.2700 C   0  0  0  0  0  3  0  0  0  0  0  0
  196.8290  176.7880  142.4870 N   0  0  0  0  0  1  0  0  0  0  0  0
  196.0420  170.6880  146.1470 C   0  0  0  0  0  1  0  0  0  0  0  0
  196.8880  173.3720  146.4990 O   0  0  0  0  0  0  0  0  0  0  0  0
  196.0250  173.1510  145.6060 C   0  0  0  0  0  0  0  0  0  0  0  0
  195.5580  171.8200  145.3740 N   0  0  0  0  0  2  0  0  0  0  0  0
  194.3290  168.6710  142.7060 N   0  0  0  0  0  0  0  0  0  0  0  0
  192.8520  169.3430  141.0870 C   0  0  0  0  0  2  0  0  0  0  0  0
  193.1100  169.3270  144.6120 O   0  0  0  0  0  0  0  0  0  0  0  0
  193.2250  169.2670  143.3590 C   0  0  0  0  0  0  0  0  0  0  0  0
  192.1970  169.7500  142.3820 C   0  0  1  0  0  3  0  0  0  0  0  0
  194.0280  168.7690  141.3190 C   0  0  0  0  0  0  0  0  0  0  0  0
  195.6210  168.4010  143.3190 C   0  0  0  0  0  1  0  0  0  0  0  0
  194.5030  168.3530  138.8550 C   0  0  0  0  0  1  0  0  0  0  0  0
  194.8590  168.2770  140.2620 N   0  0  0  0  0  0  0  0  0  0  0  0
  188.4010  177.7630  143.3040 N   0  0  0  0  0  2  0  0  0  0  0  0
  186.0660  178.4070  143.6040 C   0  0  0  0  0  3  0  0  0  0  0  0
  183.7550  179.0370  143.8690 O   0  0  0  0  0  1  0  0  0  0  0  0
  186.2740  177.2960  147.6730 C   0  0  0  0  0  1  0  0  0  0  0  0
  183.9840  178.2900  146.4930 O   0  0  0  0  0  0  0  0  0  0  0  0
  187.2850  177.5560  145.4970 C   0  0  0  0  0  3  0  0  0  0  0  0
  186.1760  177.6870  146.2750 N   0  0  0  0  0  0  0  0  0  0  0  0
  187.2530  177.9130  144.1430 C   0  0  0  0  0  0  0  0  0  0  0  0
  184.9350  178.5410  144.4100 C   0  0  0  0  0  0  0  0  0  0  0  0
  185.0050  178.1710  145.7600 C   0  0  0  0  0  0  0  0  0  0  0  0
  1  2  1  0  0  0  0
  2 14  1  0  0  0  0
  3  7  1  0  0  0  0
  4  5  1  0  0  0  0
  5  7  1  0  0  0  0
  6 19  1  6  0  0  0
  6 10  1  0  0  0  0
  7 11  1  1  0  0  0
  8  2  2  0  0  0  0
  8  9  1  0  0  0  0
  9  4  2  0  0  0  0
 12  3  1  1  0  0  0
 12 13  1  0  0  0  0
 13 37  1  6  0  0  0
 14  5  2  0  0  0  0
 15 14  1  1  0  0  0
 15 12  1  0  0  0  0
 15  6  1  0  0  0  0
 16 13  1  0  0  0  0
 16 10  1  0  0  0  0
 18 20  1  0  0  0  0
 19 17  2  0  0  0  0
 20 21  2  0  0  0  0
 21 17  1  0  0  0  0
 21 26  1  0  0  0  0
 22 18  2  0  0  0  0
 22 19  1  0  0  0  0
 23 18  1  0  0  0  0
 26 25  2  0  0  0  0
 27 26  1  0  0  0  0
 27 24  1  0  0  0  0
 28 34  1  0  0  0  0
 28 31  1  0  0  0  0
 29 33  1  0  0  0  0
 29 32  1  0  0  0  0
 31 30  2  0  0  0  0
 32  9  1  6  0  0  0
 32 31  1  0  0  0  0
 33 28  1  0  0  0  0
 35 36  1  0  0  0  0
 36 33  2  0  0  0  0
 37 44  1  0  0  0  0
 38 44  1  0  0  0  0
 38 45  2  0  0  0  0
 39 45  1  0  0  0  0
 42 43  1  0  0  0  0
 43 40  1  0  0  0  0
 44 42  2  0  0  0  0
 45 46  1  0  0  0  0
 46 43  1  0  0  0  0
 46 41  2  0  0  0  0
M  END
>  <MODEL>
2

>  <REMARK>
 VINA RESULT:      -7.9      0.756      1.323
  Name = 
  6 active torsions:
  status: ('A' for Active; 'I' for Inactive)
    1  A    between atoms: C_10  and  C_23
    2  A    between atoms: N_17  and  C_38
    3  A    between atoms: N_17  and  C_39
    4  A    between atoms: C_18  and  C_20
    5  A    between atoms: C_28  and  C_33
    6  A    between atoms: C_36  and  N_43
                            x       y       z     vdW  Elec       q    Type
                         _______ _______ _______ _____ _____    ______ ____

>  <TORSDO>
F 6

$$$$
=
 OpenBabel11042415413D

 46 51  0  0  1  0  0  0  0  0999 V2000
  193.6250  174.4020  141.1050 O   0  0  0  0  0  1  0  0  0  0  0  0
  192.7520  173.4900  141.6850 C   0  0  0  0  0  0  0  0  0  0  0  0
  189.0590  174.6690  143.2340 C   0  0  0  0  0  2  0  0  0  0  0  0
  191.0000  171.6480  142.7670 N   0  0  0  0  0  0  0  0  0  0  0  0
  190.8340  172.9670  143.0540 C   0  0  0  0  0  0  0  0  0  0  0  0
  192.3050  175.6830  144.2640 C   0  0  1  0  0  3  0  0  0  0  0  0
  189.6640  173.4130  143.8660 C   0  0  1  0  0  3  0  0  0  0  0  0
  192.9000  172.1310  141.4090 C   0  0  0  0  0  3  0  0  0  0  0  0
  192.0010  171.2030  141.9570 C   0  0  0  0  0  0  0  0  0  0  0  0
  192.1970  177.1600  144.6830 C   0  0  0  0  0  2  0  0  0  0  0  0
  190.0540  173.6660  145.1820 O   0  0  0  0  0  1  0  0  0  0  0  0
  190.0760  175.8060  142.9950 C   0  0  1  0  0  3  0  0  0  0  0  0
  189.7990  176.9500  143.9780 C   0  0  1  0  0  3  0  0  0  0  0  0
  191.7240  173.9190  142.5360 C   0  0  0  0  0  0  0  0  0  0  0  0
  191.5770  175.3710  142.9340 C   0  0  2  0  0  3  0  0  0  0  0  0
  190.9970  177.8850  144.0750 C   0  0  0  0  0  2  0  0  0  0  0  0
  194.1200  174.0450  144.9020 C   0  0  0  0  0  3  0  0  0  0  0  0
  196.0480  175.6540  143.7330 C   0  0  0  0  0  0  0  0  0  0  0  0
  193.7390  175.2430  144.2850 C   0  0  0  0  0  0  0  0  0  0  0  0
  196.3960  174.4870  144.3410 N   0  0  0  0  0  0  0  0  0  0  0  0
  195.4710  173.6790  144.9260 C   0  0  0  0  0  0  0  0  0  0  0  0
  194.7120  176.0550  143.7000 C   0  0  0  0  0  3  0  0  0  0  0  0
  197.0480  176.4680  143.1340 N   0  0  0  0  0  1  0  0  0  0  0  0
  195.4030  170.0380  146.1960 C   0  0  0  0  0  1  0  0  0  0  0  0
  197.0140  172.3710  146.1610 O   0  0  0  0  0  0  0  0  0  0  0  0
  195.8940  172.4350  145.5850 C   0  0  0  0  0  0  0  0  0  0  0  0
  195.0340  171.2920  145.5630 N   0  0  0  0  0  2  0  0  0  0  0  0
  193.9690  168.7100  140.4980 N   0  0  0  0  0  0  0  0  0  0  0  0
  191.7790  169.3640  140.3160 C   0  0  0  0  0  3  0  0  0  0  0  0
  194.3370  169.2780  142.7540 O   0  0  0  0  0  0  0  0  0  0  0  0
  193.5820  169.2510  141.7460 C   0  0  0  0  0  0  0  0  0  0  0  0
  192.1580  169.7180  141.7320 C   0  0  1  0  0  3  0  0  0  0  0  0
  192.8130  168.8290  139.6760 C   0  0  0  0  0  0  0  0  0  0  0  0
  195.3400  168.4730  140.0740 C   0  0  0  0  0  1  0  0  0  0  0  0
  192.9820  169.2520  137.1740 C   0  0  0  0  0  1  0  0  0  0  0  0
  192.7250  168.3910  138.3160 N   0  0  0  0  0  2  0  0  0  0  0  0
  188.6220  177.6960  143.5520 N   0  0  0  0  0  2  0  0  0  0  0  0
  187.4050  177.2620  145.6220 C   0  0  0  0  0  3  0  0  0  0  0  0
  186.2300  176.8350  147.6830 O   0  0  0  0  0  1  0  0  0  0  0  0
  183.9170  178.9380  143.9310 C   0  0  0  0  0  1  0  0  0  0  0  0
  184.0200  177.9400  146.5030 O   0  0  0  0  0  0  0  0  0  0  0  0
  186.2390  178.2960  143.7870 C   0  0  0  0  0  3  0  0  0  0  0  0
  185.1040  178.3550  144.5360 N   0  0  0  0  0  0  0  0  0  0  0  0
  187.4150  177.7470  144.3150 C   0  0  0  0  0  0  0  0  0  0  0  0
  186.2360  177.3230  146.3810 C   0  0  0  0  0  0  0  0  0  0  0  0
  185.0790  177.8810  145.8200 C   0  0  0  0  0  0  0  0  0  0  0  0
  1  2  1  0  0  0  0
  2 14  1  0  0  0  0
  3  7  1  0  0  0  0
  4  5  1  0  0  0  0
  5  7  1  0  0  0  0
  6 19  1  6  0  0  0
  6 10  1  0  0  0  0
  7 11  1  1  0  0  0
  8  2  2  0  0  0  0
  8  9  1  0  0  0  0
  9  4  2  0  0  0  0
 12  3  1  1  0  0  0
 12 13  1  0  0  0  0
 13 37  1  6  0  0  0
 13 16  1  0  0  0  0
 14  5  2  0  0  0  0
 15 14  1  1  0  0  0
 15 12  1  0  0  0  0
 15  6  1  0  0  0  0
 16 10  1  0  0  0  0
 17 21  1  0  0  0  0
 18 20  1  0  0  0  0
 19 17  2  0  0  0  0
 20 21  2  0  0  0  0
 21 26  1  0  0  0  0
 22 18  2  0  0  0  0
 22 19  1  0  0  0  0
 23 18  1  0  0  0  0
 26 25  2  0  0  0  0
 27 26  1  0  0  0  0
 27 24  1  0  0  0  0
 28 31  1  0  0  0  0
 29 32  1  0  0  0  0
 31 30  2  0  0  0  0
 32 31  1  0  0  0  0
 32  9  1  6  0  0  0
 33 29  2  0  0  0  0
 33 28  1  0  0  0  0
 34 28  1  0  0  0  0
 35 36  1  0  0  0  0
 36 33  1  0  0  0  0
 37 44  1  0  0  0  0
 38 45  2  0  0  0  0
 40 43  1  0  0  0  0
 42 44  2  0  0  0  0
 42 43  1  0  0  0  0
 43 46  1  0  0  0  0
 44 38  1  0  0  0  0
 45 39  1  0  0  0  0
 46 45  1  0  0  0  0
 46 41  2  0  0  0  0
M  END
>  <MODEL>
3

>  <REMARK>
 VINA RESULT:      -7.8      0.969      1.198
  Name = 
  6 active torsions:
  status: ('A' for Active; 'I' for Inactive)
    1  A    between atoms: C_10  and  C_23
    2  A    between atoms: N_17  and  C_38
    3  A    between atoms: N_17  and  C_39
    4  A    between atoms: C_18  and  C_20
    5  A    between atoms: C_28  and  C_33
    6  A    between atoms: C_36  and  N_43
                            x       y       z     vdW  Elec       q    Type
                         _______ _______ _______ _____ _____    ______ ____

>  <TORSDO>
F 6

$$$$
=
 OpenBabel11042415413D

 46 51  0  0  1  0  0  0  0  0999 V2000
  190.1880  177.5610  142.8420 O   0  0  0  0  0  1  0  0  0  0  0  0
  191.2090  176.6260  142.9650 C   0  0  0  0  0  0  0  0  0  0  0  0
  191.3530  173.2080  140.5710 C   0  0  0  0  0  2  0  0  0  0  0  0
  193.2860  174.8180  143.1760 N   0  0  0  0  0  0  0  0  0  0  0  0
  192.1350  174.4340  142.5640 C   0  0  0  0  0  0  0  0  0  0  0  0
  188.8460  174.1620  142.9030 C   0  0  1  0  0  3  0  0  0  0  0  0
  192.0380  173.0840  141.9340 C   0  0  1  0  0  3  0  0  0  0  0  0
  192.4000  176.9930  143.5900 C   0  0  0  0  0  3  0  0  0  0  0  0
  193.4530  176.0700  143.6860 C   0  0  0  0  0  0  0  0  0  0  0  0
  187.4980  173.6950  142.3220 C   0  0  0  0  0  2  0  0  0  0  0  0
  191.3280  172.2120  142.7620 O   0  0  0  0  0  1  0  0  0  0  0  0
  189.9910  173.9360  140.6150 C   0  0  1  0  0  3  0  0  0  0  0  0
  188.8670  172.9230  140.3660 C   0  0  1  0  0  3  0  0  0  0  0  0
  191.0560  175.3260  142.4650 C   0  0  0  0  0  0  0  0  0  0  0  0
  189.7540  174.8550  141.8580 C   0  0  2  0  0  3  0  0  0  0  0  0
  187.5220  173.4840  140.8090 C   0  0  0  0  0  2  0  0  0  0  0  0
  187.6780  176.0120  144.1680 C   0  0  0  0  0  3  0  0  0  0  0  0
  189.1840  175.4780  146.4300 C   0  0  0  0  0  0  0  0  0  0  0  0
  188.6210  174.9760  144.1420 C   0  0  0  0  0  0  0  0  0  0  0  0
  188.2660  176.4810  146.4310 N   0  0  0  0  0  0  0  0  0  0  0  0
  187.5140  176.7690  145.3340 C   0  0  0  0  0  0  0  0  0  0  0  0
  189.3820  174.7100  145.2820 C   0  0  0  0  0  3  0  0  0  0  0  0
  189.9470  175.2120  147.6000 N   0  0  0  0  0  1  0  0  0  0  0  0
  185.3690  179.7620  144.1890 C   0  0  0  0  0  1  0  0  0  0  0  0
  185.9090  178.1190  146.4360 O   0  0  0  0  0  0  0  0  0  0  0  0
  186.5440  177.8720  145.3750 C   0  0  0  0  0  0  0  0  0  0  0  0
  186.3160  178.6610  144.2040 N   0  0  0  0  0  2  0  0  0  0  0  0
  196.8230  175.2340  144.0900 N   0  0  0  0  0  0  0  0  0  0  0  0
  195.0100  175.3890  145.4850 C   0  0  0  0  0  3  0  0  0  0  0  0
  196.2430  176.9140  142.5440 O   0  0  0  0  0  0  0  0  0  0  0  0
  195.9660  176.2290  143.5640 C   0  0  0  0  0  0  0  0  0  0  0  0
  194.7390  176.4060  144.4050 C   0  0  1  0  0  3  0  0  0  0  0  0
  196.1590  174.7620  145.2560 C   0  0  0  0  0  0  0  0  0  0  0  0
  197.9100  174.5950  143.3650 C   0  0  0  0  0  1  0  0  0  0  0  0
  196.3530  172.3390  146.0040 C   0  0  0  0  0  1  0  0  0  0  0  0
  196.6650  173.7520  146.1360 N   0  0  0  0  0  2  0  0  0  0  0  0
  188.8170  172.5760  138.9520 N   0  0  0  0  0  2  0  0  0  0  0  0
  189.8780  173.5740  136.9940 C   0  0  0  0  0  3  0  0  0  0  0  0
  190.9410  174.5310  135.0540 O   0  0  0  0  0  1  0  0  0  0  0  0
  186.6960  176.3310  136.6660 C   0  0  0  0  0  1  0  0  0  0  0  0
  188.8350  176.2760  134.9200 O   0  0  0  0  0  0  0  0  0  0  0  0
  187.7890  174.4830  137.7700 C   0  0  0  0  0  3  0  0  0  0  0  0
  187.8050  175.3930  136.7580 N   0  0  0  0  0  0  0  0  0  0  0  0
  188.8270  173.5530  137.9090 C   0  0  0  0  0  0  0  0  0  0  0  0
  189.8880  174.5120  135.9620 C   0  0  0  0  0  0  0  0  0  0  0  0
  188.8310  175.4260  135.8530 C   0  0  0  0  0  0  0  0  0  0  0  0
  1  2  1  0  0  0  0
  2  8  1  0  0  0  0
  3  7  1  0  0  0  0
  4  9  1  0  0  0  0
  5  4  2  0  0  0  0
  6 19  1  1  0  0  0
  7  5  1  0  0  0  0
  7 11  1  1  0  0  0
  8  9  2  0  0  0  0
 10  6  1  0  0  0  0
 12  3  1  1  0  0  0
 12 15  1  0  0  0  0
 13 37  1  6  0  0  0
 13 12  1  0  0  0  0
 13 16  1  0  0  0  0
 14  5  1  0  0  0  0
 14  2  2  0  0  0  0
 15 14  1  1  0  0  0
 15  6  1  0  0  0  0
 16 10  1  0  0  0  0
 17 21  1  0  0  0  0
 18 20  1  0  0  0  0
 18 23  1  0  0  0  0
 19 17  2  0  0  0  0
 19 22  1  0  0  0  0
 21 26  1  0  0  0  0
 21 20  2  0  0  0  0
 22 18  2  0  0  0  0
 24 27  1  0  0  0  0
 26 25  2  0  0  0  0
 27 26  1  0  0  0  0
 28 33  1  0  0  0  0
 30 31  2  0  0  0  0
 31 28  1  0  0  0  0
 31 32  1  0  0  0  0
 32  9  1  6  0  0  0
 32 29  1  0  0  0  0
 33 29  2  0  0  0  0
 33 36  1  0  0  0  0
 34 28  1  0  0  0  0
 35 36  1  0  0  0  0
 38 44  1  0  0  0  0
 39 45  1  0  0  0  0
 40 43  1  0  0  0  0
 41 46  2  0  0  0  0
 42 44  2  0  0  0  0
 43 42  1  0  0  0  0
 44 37  1  0  0  0  0
 45 38  2  0  0  0  0
 46 45  1  0  0  0  0
 46 43  1  0  0  0  0
M  END
>  <MODEL>
4

>  <REMARK>
 VINA RESULT:      -7.8      3.647      7.779
  Name = 
  6 active torsions:
  status: ('A' for Active; 'I' for Inactive)
    1  A    between atoms: C_10  and  C_23
    2  A    between atoms: N_17  and  C_38
    3  A    between atoms: N_17  and  C_39
    4  A    between atoms: C_18  and  C_20
    5  A    between atoms: C_28  and  C_33
    6  A    between atoms: C_36  and  N_43
                            x       y       z     vdW  Elec       q    Type
                         _______ _______ _______ _____ _____    ______ ____

>  <TORSDO>
F 6

$$$$
=
 OpenBabel11042415413D

 46 51  0  0  1  0  0  0  0  0999 V2000
  191.8390  171.3360  144.0640 O   0  0  0  0  0  1  0  0  0  0  0  0
  192.7790  172.2040  144.6040 C   0  0  0  0  0  0  0  0  0  0  0  0
  191.6550  175.7440  146.5110 C   0  0  0  0  0  2  0  0  0  0  0  0
  194.6610  173.8800  145.7370 N   0  0  0  0  0  0  0  0  0  0  0  0
  193.4170  174.3620  145.4770 C   0  0  0  0  0  0  0  0  0  0  0  0
  191.1130  174.7950  143.1300 C   0  0  1  0  0  3  0  0  0  0  0  0
  193.0530  175.7500  145.8880 C   0  0  1  0  0  3  0  0  0  0  0  0
  194.0630  171.7360  144.8790 C   0  0  0  0  0  3  0  0  0  0  0  0
  195.0110  172.5920  145.4610 C   0  0  0  0  0  0  0  0  0  0  0  0
  189.7440  175.3680  142.7210 C   0  0  0  0  0  2  0  0  0  0  0  0
  193.0970  176.6090  144.7890 O   0  0  0  0  0  1  0  0  0  0  0  0
  190.5730  175.0920  145.6230 C   0  0  1  0  0  3  0  0  0  0  0  0
  189.6300  176.1780  145.0920 C   0  0  1  0  0  3  0  0  0  0  0  0
  192.4510  173.5390  144.8810 C   0  0  0  0  0  0  0  0  0  0  0  0
  191.0990  174.1150  144.5210 C   0  0  2  0  0  3  0  0  0  0  0  0
  188.8250  175.6670  143.9050 C   0  0  0  0  0  2  0  0  0  0  0  0
  192.9430  174.1210  141.5230 C   0  0  0  0  0  3  0  0  0  0  0  0
  191.3510  172.1090  140.4790 C   0  0  0  0  0  0  0  0  0  0  0  0
  191.6550  173.9220  142.0370 C   0  0  0  0  0  0  0  0  0  0  0  0
  192.6030  172.3230  139.9930 N   0  0  0  0  0  0  0  0  0  0  0  0
  193.4070  173.3050  140.4840 C   0  0  0  0  0  0  0  0  0  0  0  0
  190.8520  172.9110  141.5080 C   0  0  0  0  0  3  0  0  0  0  0  0
  190.5450  171.0700  139.9370 N   0  0  0  0  0  1  0  0  0  0  0  0
  196.8620  174.8790  139.8100 C   0  0  0  0  0  1  0  0  0  0  0  0
  195.2100  172.6960  139.0720 O   0  0  0  0  0  0  0  0  0  0  0  0
  194.7470  173.5090  139.9180 C   0  0  0  0  0  0  0  0  0  0  0  0
  195.5310  174.6300  140.3360 N   0  0  0  0  0  2  0  0  0  0  0  0
  197.5240  170.3340  144.5640 N   0  0  0  0  0  0  0  0  0  0  0  0
  196.4320  170.8580  146.5100 C   0  0  0  0  0  3  0  0  0  0  0  0
  197.4710  172.4500  143.5300 O   0  0  0  0  0  0  0  0  0  0  0  0
  197.1610  171.6990  144.4930 C   0  0  0  0  0  0  0  0  0  0  0  0
  196.4300  172.1440  145.7230 C   0  0  1  0  0  3  0  0  0  0  0  0
  197.0300  169.8910  145.8220 C   0  0  0  0  0  0  0  0  0  0  0  0
  197.9410  169.5170  143.4350 C   0  0  0  0  0  1  0  0  0  0  0  0
  197.1960  168.2550  147.7620 C   0  0  0  0  0  1  0  0  0  0  0  0
  197.1810  168.5660  146.3430 N   0  0  0  0  0  2  0  0  0  0  0  0
  188.7280  176.6110  146.1510 N   0  0  0  0  0  2  0  0  0  0  0  0
  186.5670  177.4550  146.9120 C   0  0  0  0  0  3  0  0  0  0  0  0
  184.4450  178.2880  147.6920 O   0  0  0  0  0  1  0  0  0  0  0  0
  185.9210  179.2260  143.1320 C   0  0  0  0  0  1  0  0  0  0  0  0
  184.1150  179.4030  145.2130 O   0  0  0  0  0  0  0  0  0  0  0  0
  187.2680  177.9280  144.6580 C   0  0  0  0  0  3  0  0  0  0  0  0
  186.1190  178.6240  144.4420 N   0  0  0  0  0  0  0  0  0  0  0  0
  187.5170  177.3280  145.8990 C   0  0  0  0  0  0  0  0  0  0  0  0
  185.3910  178.1670  146.6810 C   0  0  0  0  0  0  0  0  0  0  0  0
  185.1780  178.7560  145.4260 C   0  0  0  0  0  0  0  0  0  0  0  0
  1  2  1  0  0  0  0
  2  8  2  0  0  0  0
  2 14  1  0  0  0  0
  5  4  1  0  0  0  0
  5  7  1  0  0  0  0
  6 19  1  6  0  0  0
  6 15  1  0  0  0  0
  7 11  1  6  0  0  0
  7  3  1  0  0  0  0
  8  9  1  0  0  0  0
  9  4  2  0  0  0  0
 10  6  1  0  0  0  0
 10 16  1  0  0  0  0
 12  3  1  6  0  0  0
 13 12  1  0  0  0  0
 13 37  1  1  0  0  0
 14  5  2  0  0  0  0
 15 14  1  1  0  0  0
 15 12  1  0  0  0  0
 16 13  1  0  0  0  0
 17 19  1  0  0  0  0
 18 22  1  0  0  0  0
 20 18  2  0  0  0  0
 20 21  1  0  0  0  0
 21 17  2  0  0  0  0
 22 19  2  0  0  0  0
 23 18  1  0  0  0  0
 24 27  1  0  0  0  0
 25 26  2  0  0  0  0
 26 27  1  0  0  0  0
 26 21  1  0  0  0  0
 28 33  1  0  0  0  0
 30 31  2  0  0  0  0
 31 28  1  0  0  0  0
 31 32  1  0  0  0  0
 32  9  1  6  0  0  0
 32 29  1  0  0  0  0
 33 36  1  0  0  0  0
 33 29  2  0  0  0  0
 34 28  1  0  0  0  0
 36 35  1  0  0  0  0
 40 43  1  0  0  0  0
 41 46  2  0  0  0  0
 42 44  2  0  0  0  0
 43 42  1  0  0  0  0
 43 46  1  0  0  0  0
 44 37  1  0  0  0  0
 44 38  1  0  0  0  0
 45 38  2  0  0  0  0
 45 39  1  0  0  0  0
 46 45  1  0  0  0  0
M  END
>  <MODEL>
5

>  <REMARK>
 VINA RESULT:      -7.5      2.409      4.566
  Name = 
  6 active torsions:
  status: ('A' for Active; 'I' for Inactive)
    1  A    between atoms: C_10  and  C_23
    2  A    between atoms: N_17  and  C_38
    3  A    between atoms: N_17  and  C_39
    4  A    between atoms: C_18  and  C_20
    5  A    between atoms: C_28  and  C_33
    6  A    between atoms: C_36  and  N_43
                            x       y       z     vdW  Elec       q    Type
                         _______ _______ _______ _____ _____    ______ ____

>  <TORSDO>
F 6

$$$$
=
 OpenBabel11042415413D

 46 51  0  0  1  0  0  0  0  0999 V2000
  195.1650  175.4340  142.8600 O   0  0  0  0  0  1  0  0  0  0  0  0
  194.1010  174.8910  142.1490 C   0  0  0  0  0  0  0  0  0  0  0  0
  190.1590  176.0660  142.8650 C   0  0  0  0  0  2  0  0  0  0  0  0
  192.0090  173.8560  140.6730 N   0  0  0  0  0  0  0  0  0  0  0  0
  191.7440  174.4670  141.8580 C   0  0  0  0  0  0  0  0  0  0  0  0
  192.4330  174.5010  145.1030 C   0  0  1  0  0  3  0  0  0  0  0  0
  190.3310  174.6530  142.3020 C   0  0  1  0  0  3  0  0  0  0  0  0
  194.3450  174.2590  140.9310 C   0  0  0  0  0  3  0  0  0  0  0  0
  193.2760  173.7420  140.1840 C   0  0  0  0  0  0  0  0  0  0  0  0
  192.1530  175.0830  146.5000 C   0  0  0  0  0  2  0  0  0  0  0  0
  189.9940  173.6990  143.2630 O   0  0  0  0  0  1  0  0  0  0  0  0
  191.1760  176.4320  143.9680 C   0  0  1  0  0  3  0  0  0  0  0  0
  190.4540  176.5020  145.3200 C   0  0  1  0  0  3  0  0  0  0  0  0
  192.7910  174.9790  142.6380 C   0  0  0  0  0  0  0  0  0  0  0  0
  192.4860  175.5790  143.9920 C   0  0  2  0  0  3  0  0  0  0  0  0
  191.4490  176.4390  146.4710 C   0  0  0  0  0  2  0  0  0  0  0  0
  193.5910  172.2940  144.6870 C   0  0  0  0  0  3  0  0  0  0  0  0
  195.9590  173.2880  145.7250 C   0  0  0  0  0  0  0  0  0  0  0  0
  193.6440  173.6170  145.1440 C   0  0  0  0  0  0  0  0  0  0  0  0
  195.8840  172.0050  145.2780 N   0  0  0  0  0  0  0  0  0  0  0  0
  194.7330  171.4890  144.7660 C   0  0  0  0  0  0  0  0  0  0  0  0
  194.8370  174.1160  145.6710 C   0  0  0  0  0  3  0  0  0  0  0  0
  197.1820  173.7860  146.2510 N   0  0  0  0  0  1  0  0  0  0  0  0
  193.3740  168.1680  143.3520 C   0  0  0  0  0  1  0  0  0  0  0  0
  195.7370  169.3840  144.3420 O   0  0  0  0  0  0  0  0  0  0  0  0
  194.6940  170.0920  144.3090 C   0  0  0  0  0  0  0  0  0  0  0  0
  193.4690  169.5420  143.8170 N   0  0  0  0  0  2  0  0  0  0  0  0
  191.8490  172.7690  137.1440 N   0  0  0  0  0  0  0  0  0  0  0  0
  192.7880  171.6690  138.9230 C   0  0  0  0  0  3  0  0  0  0  0  0
  193.1200  174.7510  137.2250 O   0  0  0  0  0  0  0  0  0  0  0  0
  192.8250  173.6250  137.7060 C   0  0  0  0  0  0  0  0  0  0  0  0
  193.4990  172.9980  138.8880 C   0  0  1  0  0  3  0  0  0  0  0  0
  191.8800  171.6000  137.9550 C   0  0  0  0  0  0  0  0  0  0  0  0
  190.8070  173.1810  136.2170 C   0  0  0  0  0  1  0  0  0  0  0  0
  189.7160  170.3020  138.2720 C   0  0  0  0  0  1  0  0  0  0  0  0
  191.0660  170.4400  137.7530 N   0  0  0  0  0  2  0  0  0  0  0  0
  189.6780  177.7320  145.4030 N   0  0  0  0  0  2  0  0  0  0  0  0
  187.7490  177.6100  146.8940 C   0  0  0  0  0  3  0  0  0  0  0  0
  185.8620  177.5000  148.3890 O   0  0  0  0  0  1  0  0  0  0  0  0
  185.1600  178.1330  143.5970 C   0  0  0  0  0  1  0  0  0  0  0  0
  184.2630  177.8460  146.1930 O   0  0  0  0  0  0  0  0  0  0  0  0
  187.3740  177.9180  144.5360 C   0  0  0  0  0  3  0  0  0  0  0  0
  186.0300  177.9500  144.7490 N   0  0  0  0  0  0  0  0  0  0  0  0
  188.2620  177.7470  145.6050 C   0  0  0  0  0  0  0  0  0  0  0  0
  186.3700  177.6410  147.1030 C   0  0  0  0  0  0  0  0  0  0  0  0
  185.5110  177.8160  146.0080 C   0  0  0  0  0  0  0  0  0  0  0  0
  2 14  1  0  0  0  0
  2  1  1  0  0  0  0
  4  5  1  0  0  0  0
  5  7  1  0  0  0  0
  5 14  2  0  0  0  0
  6 19  1  1  0  0  0
  6 10  1  0  0  0  0
  7  3  1  0  0  0  0
  7 11  1  1  0  0  0
  8  2  2  0  0  0  0
  9  4  2  0  0  0  0
  9  8  1  0  0  0  0
 12  3  1  6  0  0  0
 12 15  1  0  0  0  0
 12 13  1  0  0  0  0
 13 37  1  6  0  0  0
 13 16  1  0  0  0  0
 15 14  1  6  0  0  0
 15  6  1  0  0  0  0
 16 10  1  0  0  0  0
 17 21  2  0  0  0  0
 17 19  1  0  0  0  0
 18 23  1  0  0  0  0
 19 22  2  0  0  0  0
 20 18  2  0  0  0  0
 21 20  1  0  0  0  0
 22 18  1  0  0  0  0
 24 27  1  0  0  0  0
 26 25  2  0  0  0  0
 26 21  1  0  0  0  0
 27 26  1  0  0  0  0
 28 31  1  0  0  0  0
 28 33  1  0  0  0  0
 30 31  2  0  0  0  0
 31 32  1  0  0  0  0
 32 29  1  0  0  0  0
 32  9  1  1  0  0  0
 33 29  2  0  0  0  0
 34 28  1  0  0  0  0
 36 33  1  0  0  0  0
 36 35  1  0  0  0  0
 37 44  1  0  0  0  0
 38 45  2  0  0  0  0
 40 43  1  0  0  0  0
 42 43  1  0  0  0  0
 42 44  2  0  0  0  0
 43 46  1  0  0  0  0
 44 38  1  0  0  0  0
 45 39  1  0  0  0  0
 46 41  2  0  0  0  0
 46 45  1  0  0  0  0
M  END
>  <MODEL>
6

>  <REMARK>
 VINA RESULT:      -7.5      2.509      3.802
  Name = 
  6 active torsions:
  status: ('A' for Active; 'I' for Inactive)
    1  A    between atoms: C_10  and  C_23
    2  A    between atoms: N_17  and  C_38
    3  A    between atoms: N_17  and  C_39
    4  A    between atoms: C_18  and  C_20
    5  A    between atoms: C_28  and  C_33
    6  A    between atoms: C_36  and  N_43
                            x       y       z     vdW  Elec       q    Type
                         _______ _______ _______ _____ _____    ______ ____

>  <TORSDO>
F 6

$$$$
=
 OpenBabel11042415413D

 46 51  0  0  1  0  0  0  0  0999 V2000
  192.9760  173.5550  141.5250 O   0  0  0  0  0  1  0  0  0  0  0  0
  191.7890  173.5850  140.8020 C   0  0  0  0  0  0  0  0  0  0  0  0
  188.5490  175.9280  142.0060 C   0  0  0  0  0  2  0  0  0  0  0  0
  189.4650  173.6890  139.3120 N   0  0  0  0  0  0  0  0  0  0  0  0
  189.4400  174.1030  140.6060 C   0  0  0  0  0  0  0  0  0  0  0  0
  190.0870  173.2360  143.7420 C   0  0  1  0  0  3  0  0  0  0  0  0
  188.1930  174.6910  141.1770 C   0  0  1  0  0  3  0  0  0  0  0  0
  191.7860  173.1650  139.4730 C   0  0  0  0  0  3  0  0  0  0  0  0
  190.6030  173.2280  138.7210 C   0  0  0  0  0  0  0  0  0  0  0  0
  190.0360  173.5860  145.2400 C   0  0  0  0  0  2  0  0  0  0  0  0
  187.5270  173.7490  141.9640 O   0  0  0  0  0  1  0  0  0  0  0  0
  189.6260  175.6750  143.0830 C   0  0  1  0  0  3  0  0  0  0  0  0
  188.9780  175.7270  144.4710 C   0  0  1  0  0  3  0  0  0  0  0  0
  190.6000  174.0380  141.3920 C   0  0  0  0  0  0  0  0  0  0  0  0
  190.5340  174.4220  142.8530 C   0  0  2  0  0  3  0  0  0  0  0  0
  189.8780  175.0810  145.5170 C   0  0  0  0  0  2  0  0  0  0  0  0
  192.0590  171.7440  144.2630 C   0  0  0  0  0  3  0  0  0  0  0  0
  191.2320  169.9090  142.3610 C   0  0  0  0  0  0  0  0  0  0  0  0
  190.8900  171.9870  143.5310 C   0  0  0  0  0  0  0  0  0  0  0  0
  192.3660  169.6950  143.0810 N   0  0  0  0  0  0  0  0  0  0  0  0
  192.7990  170.5800  144.0200 C   0  0  0  0  0  0  0  0  0  0  0  0
  190.4760  171.0630  142.5700 C   0  0  0  0  0  3  0  0  0  0  0  0
  190.8160  168.9560  141.3910 N   0  0  0  0  0  1  0  0  0  0  0  0
  196.2110  171.1710  145.7170 C   0  0  0  0  0  1  0  0  0  0  0  0
  194.2760  169.1610  145.2100 O   0  0  0  0  0  0  0  0  0  0  0  0
  194.0380  170.3160  144.7630 C   0  0  0  0  0  0  0  0  0  0  0  0
  194.9710  171.3770  144.9870 N   0  0  0  0  0  2  0  0  0  0  0  0
  191.7350  170.8020  136.4730 N   0  0  0  0  0  0  0  0  0  0  0  0
  191.8090  173.0920  136.5640 C   0  0  0  0  0  3  0  0  0  0  0  0
  189.6910  170.4550  137.5910 O   0  0  0  0  0  0  0  0  0  0  0  0
  190.5870  171.2370  137.1740 C   0  0  0  0  0  0  0  0  0  0  0  0
  190.5420  172.7300  137.2960 C   0  0  1  0  0  3  0  0  0  0  0  0
  192.4360  171.9970  136.1460 C   0  0  0  0  0  0  0  0  0  0  0  0
  192.2470  169.4410  136.4620 C   0  0  0  0  0  1  0  0  0  0  0  0
  194.9740  171.8940  136.0180 C   0  0  0  0  0  1  0  0  0  0  0  0
  193.6630  172.0540  135.4110 N   0  0  0  0  0  2  0  0  0  0  0  0
  188.7050  177.1100  144.8390 N   0  0  0  0  0  2  0  0  0  0  0  0
  186.9870  177.8110  146.4250 C   0  0  0  0  0  3  0  0  0  0  0  0
  185.3140  178.5120  148.0110 O   0  0  0  0  0  1  0  0  0  0  0  0
  184.3700  178.6660  143.2220 C   0  0  0  0  0  1  0  0  0  0  0  0
  183.6880  179.0390  145.8710 O   0  0  0  0  0  0  0  0  0  0  0  0
  186.4940  177.8940  144.0700 C   0  0  0  0  0  3  0  0  0  0  0  0
  185.2520  178.3780  144.3430 N   0  0  0  0  0  0  0  0  0  0  0  0
  187.3890  177.5990  145.1060 C   0  0  0  0  0  0  0  0  0  0  0  0
  185.7110  178.3050  146.6950 C   0  0  0  0  0  0  0  0  0  0  0  0
  184.8430  178.5900  145.6310 C   0  0  0  0  0  0  0  0  0  0  0  0
  2 14  1  0  0  0  0
  2  1  1  0  0  0  0
  4  5  1  0  0  0  0
  5  7  1  0  0  0  0
  5 14  2  0  0  0  0
  6 19  1  1  0  0  0
  6 10  1  0  0  0  0
  7 11  1  1  0  0  0
  7  3  1  0  0  0  0
  8  2  2  0  0  0  0
  9  4  2  0  0  0  0
  9  8  1  0  0  0  0
 10 16  1  0  0  0  0
 12  3  1  6  0  0  0
 12 13  1  0  0  0  0
 13 37  1  1  0  0  0
 13 16  1  0  0  0  0
 15 14  1  6  0  0  0
 15 12  1  0  0  0  0
 15  6  1  0  0  0  0
 18 22  2  0  0  0  0
 18 20  1  0  0  0  0
 19 17  2  0  0  0  0
 20 21  2  0  0  0  0
 21 17  1  0  0  0  0
 21 26  1  0  0  0  0
 22 19  1  0  0  0  0
 23 18  1  0  0  0  0
 26 27  1  0  0  0  0
 26 25  2  0  0  0  0
 27 24  1  0  0  0  0
 28 31  1  0  0  0  0
 29 32  1  0  0  0  0
 31 32  1  0  0  0  0
 31 30  2  0  0  0  0
 32  9  1  1  0  0  0
 33 28  1  0  0  0  0
 33 29  2  0  0  0  0
 34 28  1  0  0  0  0
 36 35  1  0  0  0  0
 36 33  1  0  0  0  0
 37 44  1  0  0  0  0
 38 45  2  0  0  0  0
 40 43  1  0  0  0  0
 42 43  1  0  0  0  0
 42 44  2  0  0  0  0
 43 46  1  0  0  0  0
 44 38  1  0  0  0  0
 45 39  1  0  0  0  0
 46 41  2  0  0  0  0
 46 45  1  0  0  0  0
M  END
>  <MODEL>
7

>  <REMARK>
 VINA RESULT:      -7.4      3.029      4.476
  Name = 
  6 active torsions:
  status: ('A' for Active; 'I' for Inactive)
    1  A    between atoms: C_10  and  C_23
    2  A    between atoms: N_17  and  C_38
    3  A    between atoms: N_17  and  C_39
    4  A    between atoms: C_18  and  C_20
    5  A    between atoms: C_28  and  C_33
    6  A    between atoms: C_36  and  N_43
                            x       y       z     vdW  Elec       q    Type
                         _______ _______ _______ _____ _____    ______ ____

>  <TORSDO>
F 6

$$$$
=
 OpenBabel11042415413D

 46 51  0  0  1  0  0  0  0  0999 V2000
  194.1970  174.6760  141.9200 O   0  0  0  0  0  1  0  0  0  0  0  0
  193.0850  173.8790  141.6720 C   0  0  0  0  0  0  0  0  0  0  0  0
  189.2150  175.1840  142.5360 C   0  0  0  0  0  2  0  0  0  0  0  0
  190.8850  172.3100  141.1010 N   0  0  0  0  0  0  0  0  0  0  0  0
  190.7540  173.3390  141.9790 C   0  0  0  0  0  0  0  0  0  0  0  0
  191.9220  174.6760  144.7820 C   0  0  1  0  0  3  0  0  0  0  0  0
  189.4140  173.6660  142.5500 C   0  0  1  0  0  3  0  0  0  0  0  0
  193.1930  172.8160  140.7760 C   0  0  0  0  0  3  0  0  0  0  0  0
  192.0680  172.0280  140.4860 C   0  0  0  0  0  0  0  0  0  0  0  0
  191.8100  175.7630  145.8660 C   0  0  0  0  0  2  0  0  0  0  0  0
  189.3060  173.1700  143.8500 O   0  0  0  0  0  1  0  0  0  0  0  0
  190.3540  175.9740  143.2170 C   0  0  1  0  0  3  0  0  0  0  0  0
  189.8420  176.5670  144.5350 C   0  0  1  0  0  3  0  0  0  0  0  0
  191.8610  174.1360  142.3040 C   0  0  0  0  0  0  0  0  0  0  0  0
  191.7180  175.2220  143.3470 C   0  0  2  0  0  3  0  0  0  0  0  0
  191.0010  176.9840  145.4310 C   0  0  0  0  0  2  0  0  0  0  0  0
  193.1850  172.5000  145.0200 C   0  0  0  0  0  3  0  0  0  0  0  0
  195.5830  173.8650  145.2640 C   0  0  0  0  0  0  0  0  0  0  0  0
  193.1930  173.8990  144.9570 C   0  0  0  0  0  0  0  0  0  0  0  0
  195.5500  172.5060  145.3250 N   0  0  0  0  0  0  0  0  0  0  0  0
  194.3870  171.8090  145.2110 C   0  0  0  0  0  0  0  0  0  0  0  0
  194.4020  174.5860  145.0840 C   0  0  0  0  0  3  0  0  0  0  0  0
  196.8210  174.5520  145.3870 N   0  0  0  0  0  1  0  0  0  0  0  0
  195.1360  168.2540  146.5050 C   0  0  0  0  0  1  0  0  0  0  0  0
  193.7880  169.6510  144.4380 O   0  0  0  0  0  0  0  0  0  0  0  0
  194.3980  170.3420  145.2990 C   0  0  0  0  0  0  0  0  0  0  0  0
  195.0950  169.7010  146.3700 N   0  0  0  0  0  2  0  0  0  0  0  0
  192.3520  170.9680  137.1670 N   0  0  0  0  0  0  0  0  0  0  0  0
  190.8390  170.6300  138.8560 C   0  0  0  0  0  3  0  0  0  0  0  0
  194.3060  171.1920  138.4630 O   0  0  0  0  0  0  0  0  0  0  0  0
  193.0580  171.0360  138.3900 C   0  0  0  0  0  0  0  0  0  0  0  0
  192.1530  170.8330  139.5670 C   0  0  1  0  0  3  0  0  0  0  0  0
  191.0000  170.7300  137.5410 C   0  0  0  0  0  0  0  0  0  0  0  0
  192.8500  171.4360  135.8830 C   0  0  0  0  0  1  0  0  0  0  0  0
  189.3200  171.6640  135.8740 C   0  0  0  0  0  1  0  0  0  0  0  0
  189.9110  170.5690  136.6250 N   0  0  0  0  0  2  0  0  0  0  0  0
  188.9890  177.7170  144.2630 N   0  0  0  0  0  2  0  0  0  0  0  0
  187.4240  177.6360  146.1340 C   0  0  0  0  0  3  0  0  0  0  0  0
  185.9030  177.5630  148.0020 O   0  0  0  0  0  1  0  0  0  0  0  0
  184.2560  178.6690  143.5390 C   0  0  0  0  0  1  0  0  0  0  0  0
  183.9140  178.2370  146.2450 O   0  0  0  0  0  0  0  0  0  0  0  0
  186.5850  178.1800  143.9450 C   0  0  0  0  0  3  0  0  0  0  0  0
  185.3300  178.3110  144.4540 N   0  0  0  0  0  0  0  0  0  0  0  0
  187.6600  177.8390  144.7750 C   0  0  0  0  0  0  0  0  0  0  0  0
  186.1340  177.7700  146.6470 C   0  0  0  0  0  0  0  0  0  0  0  0
  185.0830  178.1140  145.7850 C   0  0  0  0  0  0  0  0  0  0  0  0
  2  1  1  0  0  0  0
  2 14  1  0  0  0  0
  3  7  1  0  0  0  0
  4  5  1  0  0  0  0
  5 14  2  0  0  0  0
  5  7  1  0  0  0  0
  6 19  1  6  0  0  0
  6 10  1  0  0  0  0
  7 11  1  1  0  0  0
  8  2  2  0  0  0  0
  9  8  1  0  0  0  0
  9  4  2  0  0  0  0
 12  3  1  1  0  0  0
 12 15  1  0  0  0  0
 12 13  1  0  0  0  0
 13 37  1  6  0  0  0
 13 16  1  0  0  0  0
 15 14  1  6  0  0  0
 15  6  1  0  0  0  0
 16 10  1  0  0  0  0
 17 21  1  0  0  0  0
 18 20  1  0  0  0  0
 18 23  1  0  0  0  0
 19 17  2  0  0  0  0
 19 22  1  0  0  0  0
 21 26  1  0  0  0  0
 21 20  2  0  0  0  0
 22 18  2  0  0  0  0
 25 26  2  0  0  0  0
 26 27  1  0  0  0  0
 27 24  1  0  0  0  0
 28 33  1  0  0  0  0
 28 31  1  0  0  0  0
 29 32  1  0  0  0  0
 31 30  2  0  0  0  0
 31 32  1  0  0  0  0
 32  9  1  1  0  0  0
 33 29  2  0  0  0  0
 34 28  1  0  0  0  0
 35 36  1  0  0  0  0
 36 33  1  0  0  0  0
 37 44  1  0  0  0  0
 38 45  2  0  0  0  0
 40 43  1  0  0  0  0
 42 43  1  0  0  0  0
 42 44  2  0  0  0  0
 43 46  1  0  0  0  0
 44 38  1  0  0  0  0
 45 39  1  0  0  0  0
 46 41  2  0  0  0  0
 46 45  1  0  0  0  0
M  END
>  <MODEL>
8

>  <REMARK>
 VINA RESULT:      -7.4      2.419      3.250
  Name = 
  6 active torsions:
  status: ('A' for Active; 'I' for Inactive)
    1  A    between atoms: C_10  and  C_23
    2  A    between atoms: N_17  and  C_38
    3  A    between atoms: N_17  and  C_39
    4  A    between atoms: C_18  and  C_20
    5  A    between atoms: C_28  and  C_33
    6  A    between atoms: C_36  and  N_43
                            x       y       z     vdW  Elec       q    Type
                         _______ _______ _______ _____ _____    ______ ____

>  <TORSDO>
F 6

$$$$
=
 OpenBabel11042415413D

 46 51  0  0  1  0  0  0  0  0999 V2000
  190.1130  172.3460  144.6630 O   0  0  0  0  0  1  0  0  0  0  0  0
  190.3740  172.7270  143.3530 C   0  0  0  0  0  0  0  0  0  0  0  0
  194.2400  173.6270  142.0590 C   0  0  0  0  0  2  0  0  0  0  0  0
  190.8810  173.4100  140.7250 N   0  0  0  0  0  0  0  0  0  0  0  0
  191.8050  173.7080  141.6760 C   0  0  0  0  0  0  0  0  0  0  0  0
  192.3190  175.2590  144.5640 C   0  0  1  0  0  3  0  0  0  0  0  0
  193.1130  174.3120  141.2830 C   0  0  1  0  0  3  0  0  0  0  0  0
  189.4430  172.4340  142.3580 C   0  0  0  0  0  3  0  0  0  0  0  0
  189.7110  172.7780  141.0240 C   0  0  0  0  0  0  0  0  0  0  0  0
  193.3040  175.7030  145.6600 C   0  0  0  0  0  2  0  0  0  0  0  0
  193.1090  175.6850  141.5350 O   0  0  0  0  0  1  0  0  0  0  0  0
  194.0340  173.6140  143.5890 C   0  0  1  0  0  3  0  0  0  0  0  0
  195.0380  174.5720  144.2440 C   0  0  1  0  0  3  0  0  0  0  0  0
  191.5610  173.3940  143.0210 C   0  0  0  0  0  0  0  0  0  0  0  0
  192.5610  173.8090  144.0770 C   0  0  2  0  0  3  0  0  0  0  0  0
  194.6140  174.9160  145.6660 C   0  0  0  0  0  2  0  0  0  0  0  0
  190.0710  176.3720  144.2660 C   0  0  0  0  0  3  0  0  0  0  0  0
  189.1230  175.1840  146.5820 C   0  0  0  0  0  0  0  0  0  0  0  0
  190.9080  175.5220  144.9990 C   0  0  0  0  0  0  0  0  0  0  0  0
  188.3290  176.0160  145.8560 N   0  0  0  0  0  0  0  0  0  0  0  0
  188.7680  176.6170  144.7160 C   0  0  0  0  0  0  0  0  0  0  0  0
  190.4310  174.9260  146.1680 C   0  0  0  0  0  3  0  0  0  0  0  0
  188.6230  174.5770  147.7660 N   0  0  0  0  0  1  0  0  0  0  0  0
  185.9380  179.1290  143.9780 C   0  0  0  0  0  1  0  0  0  0  0  0
  188.0350  177.6840  142.7320 O   0  0  0  0  0  0  0  0  0  0  0  0
  187.8790  177.5210  143.9730 C   0  0  0  0  0  0  0  0  0  0  0  0
  186.8430  178.2230  144.6630 N   0  0  0  0  0  2  0  0  0  0  0  0
  189.2130  172.6270  137.5670 N   0  0  0  0  0  0  0  0  0  0  0  0
  188.3030  173.8390  139.2870 C   0  0  0  0  0  3  0  0  0  0  0  0
  189.7060  170.6420  138.7360 O   0  0  0  0  0  0  0  0  0  0  0  0
  189.2750  171.8260  138.7310 C   0  0  0  0  0  0  0  0  0  0  0  0
  188.7060  172.5330  139.9230 C   0  0  1  0  0  3  0  0  0  0  0  0
  188.6180  173.8460  137.9960 C   0  0  0  0  0  0  0  0  0  0  0  0
  189.9570  172.3840  136.3410 C   0  0  0  0  0  1  0  0  0  0  0  0
  187.0630  175.6660  137.1380 C   0  0  0  0  0  1  0  0  0  0  0  0
  188.3350  174.9650  137.1480 N   0  0  0  0  0  2  0  0  0  0  0  0
  196.3640  173.9670  144.2560 N   0  0  0  0  0  2  0  0  0  0  0  0
  196.4140  171.9780  145.6700 C   0  0  0  0  0  3  0  0  0  0  0  0
  196.4420  170.0290  147.0850 O   0  0  0  0  0  1  0  0  0  0  0  0
  197.4730  169.6210  142.3290 C   0  0  0  0  0  1  0  0  0  0  0  0
  197.1250  168.5810  144.8630 O   0  0  0  0  0  0  0  0  0  0  0  0
  196.9300  171.7500  143.3300 C   0  0  0  0  0  3  0  0  0  0  0  0
  197.1100  170.4110  143.4960 N   0  0  0  0  0  0  0  0  0  0  0  0
  196.5780  172.5630  144.4140 C   0  0  0  0  0  0  0  0  0  0  0  0
  196.6030  170.6060  145.8310 C   0  0  0  0  0  0  0  0  0  0  0  0
  196.9530  169.8240  144.7220 C   0  0  0  0  0  0  0  0  0  0  0  0
  2  1  1  0  0  0  0
  4  9  2  0  0  0  0
  4  5  1  0  0  0  0
  5 14  2  0  0  0  0
  6 19  1  1  0  0  0
  6 10  1  0  0  0  0
  7 11  1  1  0  0  0
  7  5  1  0  0  0  0
  7  3  1  0  0  0  0
  8  2  2  0  0  0  0
  9  8  1  0  0  0  0
 10 16  1  0  0  0  0
 12  3  1  6  0  0  0
 12 15  1  0  0  0  0
 12 13  1  0  0  0  0
 13 37  1  1  0  0  0
 13 16  1  0  0  0  0
 14  2  1  0  0  0  0
 15 14  1  6  0  0  0
 15  6  1  0  0  0  0
 17 21  2  0  0  0  0
 17 19  1  0  0  0  0
 18 23  1  0  0  0  0
 19 22  2  0  0  0  0
 20 18  2  0  0  0  0
 21 20  1  0  0  0  0
 22 18  1  0  0  0  0
 24 27  1  0  0  0  0
 25 26  2  0  0  0  0
 26 27  1  0  0  0  0
 26 21  1  0  0  0  0
 28 33  1  0  0  0  0
 28 31  1  0  0  0  0
 29 32  1  0  0  0  0
 31 30  2  0  0  0  0
 31 32  1  0  0  0  0
 32  9  1  1  0  0  0
 33 29  2  0  0  0  0
 34 28  1  0  0  0  0
 35 36  1  0  0  0  0
 36 33  1  0  0  0  0
 37 44  1  0  0  0  0
 38 45  2  0  0  0  0
 40 43  1  0  0  0  0
 42 43  1  0  0  0  0
 42 44  2  0  0  0  0
 43 46  1  0  0  0  0
 44 38  1  0  0  0  0
 45 39  1  0  0  0  0
 46 41  2  0  0  0  0
 46 45  1  0  0  0  0
M  END
>  <MODEL>
9

>  <REMARK>
 VINA RESULT:      -7.3      3.203      8.656
  Name = 
  6 active torsions:
  status: ('A' for Active; 'I' for Inactive)
    1  A    between atoms: C_10  and  C_23
    2  A    between atoms: N_17  and  C_38
    3  A    between atoms: N_17  and  C_39
    4  A    between atoms: C_18  and  C_20
    5  A    between atoms: C_28  and  C_33
    6  A    between atoms: C_36  and  N_43
                            x       y       z     vdW  Elec       q    Type
                         _______ _______ _______ _____ _____    ______ ____

>  <TORSDO>
F 6

$$$$
