=
 OpenBabel11042418423D

 34 36  0  0  1  0  0  0  0  0999 V2000
  191.5570  176.2430  145.7180 C   0  0  2  0  0  3  0  0  0  0  0  0
  191.0130  176.0760  147.4430 S   0  0  0  0  0  0  0  0  0  0  0  0
  191.2450  174.9520  144.9850 C   0  0  1  0  0  3  0  0  0  0  0  0
  189.9360  174.4120  145.5320 C   0  0  1  0  0  3  0  0  0  0  0  0
  189.8820  172.9060  145.3670 C   0  0  0  0  0  1  0  0  0  0  0  0
  189.8120  174.7780  147.0060 C   0  0  2  0  0  3  0  0  0  0  0  0
  191.1840  175.1560  143.4980 C   0  0  0  0  0  0  0  0  0  0  0  0
  191.5020  174.1120  142.7220 C   0  0  0  0  0  3  0  0  0  0  0  0
  191.5070  174.0740  141.2490 C   0  0  0  0  0  0  0  0  0  0  0  0
  190.3750  173.5420  140.5720 N   0  0  0  0  0  1  0  0  0  0  0  0
  192.4850  174.4940  140.5780 O   0  0  0  0  0  0  0  0  0  0  0  0
  190.7400  176.4770  142.9270 C   0  0  0  0  0  2  0  0  0  0  0  0
  188.6470  177.8410  143.1840 C   0  0  0  0  0  3  0  0  0  0  0  0
  189.2530  176.6060  142.9250 C   0  0  0  0  0  0  0  0  0  0  0  0
  186.4650  176.8410  142.8600 C   0  0  0  0  0  0  0  0  0  0  0  0
  187.0690  175.6070  142.6040 C   0  0  0  0  0  3  0  0  0  0  0  0
  187.2540  177.9580  143.1520 C   0  0  0  0  0  3  0  0  0  0  0  0
  185.1150  176.9540  142.8270 F   0  0  0  0  0  0  0  0  0  0  0  0
  188.4610  175.4900  142.6360 C   0  0  0  0  0  3  0  0  0  0  0  0
  188.4060  175.2760  147.3150 C   0  0  0  0  0  2  0  0  0  0  0  0
  187.9090  176.2560  146.2600 C   0  0  0  0  0  2  0  0  0  0  0  0
  187.5180  177.5930  146.8760 C   0  0  0  0  0  2  0  0  0  0  0  0
  185.4880  178.9060  147.1720 N   0  0  0  0  0  2  0  0  0  0  0  0
  186.0650  177.5890  147.3330 C   0  0  1  0  0  3  0  0  0  0  0  0
  185.2360  177.0180  146.3120 C   0  0  0  0  0  2  0  0  0  0  0  0
  183.6980  178.8250  145.3910 O   0  0  0  0  0  0  0  0  0  0  0  0
  184.6030  178.3580  146.1290 C   0  0  0  0  0  0  0  0  0  0  0  0
  192.9740  176.5980  145.6300 N   0  0  0  0  0  2  0  0  0  0  0  0
  193.7340  175.6240  146.2990 N   0  0  0  0  0  2  0  0  0  0  0  0
  195.0490  175.6310  145.6890 C   0  0  0  0  0  2  0  0  0  0  0  0
  195.1810  176.7650  144.8850 O   0  0  0  0  0  0  0  0  0  0  0  0
  196.7630  175.2880  144.1720 O   0  0  0  0  0  1  0  0  0  0  0  0
  195.9310  176.3380  143.7880 C   0  0  1  0  0  3  0  0  0  0  0  0
  194.9990  175.8660  142.6900 C   0  0  0  0  0  1  0  0  0  0  0  0
  1 28  1  1  0  0  0
  1  2  1  0  0  0  0
  3  7  1  6  0  0  0
  3  4  1  0  0  0  0
  3  1  1  0  0  0  0
  4  5  1  1  0  0  0
  4  6  1  0  0  0  0
  6 20  1  6  0  0  0
  6  2  1  0  0  0  0
  8  7  2  0  0  0  0
  9  8  1  0  0  0  0
 10  9  1  0  0  0  0
 11  9  2  0  0  0  0
 12  7  1  0  0  0  0
 14 12  1  0  0  0  0
 14 13  2  0  0  0  0
 15 17  2  0  0  0  0
 16 19  2  0  0  0  0
 16 15  1  0  0  0  0
 17 13  1  0  0  0  0
 18 15  1  0  0  0  0
 19 14  1  0  0  0  0
 21 22  1  0  0  0  0
 21 20  1  0  0  0  0
 23 24  1  0  0  0  0
 24 22  1  6  0  0  0
 25 24  1  0  0  0  0
 26 27  2  0  0  0  0
 27 25  1  0  0  0  0
 27 23  1  0  0  0  0
 28 29  1  0  0  0  0
 30 29  1  0  0  0  0
 31 30  1  0  0  0  0
 33 34  1  6  0  0  0
 33 32  1  0  0  0  0
 33 31  1  0  0  0  0
M  END
>  <MODEL>
1

>  <REMARK>
 VINA RESULT:      -6.6      0.000      0.000
  Name = 
  13 active torsions:
  status: ('A' for Active; 'I' for Inactive)
    1  A    between atoms: C_2  and  C_21
    2  A    between atoms: C_2  and  C_34
    3  A    between atoms: C_3  and  C_19
    4  A    between atoms: C_3  and  C_30
    5  A    between atoms: C_4  and  C_30
    6  A    between atoms: C_5  and  C_28
    7  A    between atoms: C_6  and  N_9
    8  A    between atoms: N_9  and  N_29
    9  A    between atoms: C_12  and  C_18
   10  A    between atoms: C_15  and  O_25
   11  A    between atoms: C_18  and  C_21
   12  A    between atoms: O_25  and  C_26
   13  A    between atoms: C_26  and  N_29
                            x       y       z     vdW  Elec       q    Type
                         _______ _______ _______ _____ _____    ______ ____

>  <TORSDO>
F 13

$$$$
=
 OpenBabel11042418423D

 34 36  0  0  1  0  0  0  0  0999 V2000
  188.6850  174.6830  142.3050 C   0  0  2  0  0  3  0  0  0  0  0  0
  188.2920  173.0850  141.5370 S   0  0  0  0  0  0  0  0  0  0  0  0
  189.0630  174.4440  143.7550 C   0  0  1  0  0  3  0  0  0  0  0  0
  189.8200  173.1310  143.8270 C   0  0  1  0  0  3  0  0  0  0  0  0
  189.6630  172.5100  145.2020 C   0  0  0  0  0  1  0  0  0  0  0  0
  189.2870  172.1780  142.7640 C   0  0  2  0  0  3  0  0  0  0  0  0
  189.8680  175.5810  144.3170 C   0  0  0  0  0  0  0  0  0  0  0  0
  190.8200  176.1030  143.5340 C   0  0  0  0  0  3  0  0  0  0  0  0
  191.7230  177.2210  143.8640 C   0  0  0  0  0  0  0  0  0  0  0  0
  191.2570  178.5540  143.6930 N   0  0  0  0  0  1  0  0  0  0  0  0
  192.8910  177.0250  144.2880 O   0  0  0  0  0  0  0  0  0  0  0  0
  189.5690  176.1220  145.6900 C   0  0  0  0  0  2  0  0  0  0  0  0
  187.2920  176.3470  146.7250 C   0  0  0  0  0  3  0  0  0  0  0  0
  188.2160  176.7490  145.7540 C   0  0  0  0  0  0  0  0  0  0  0  0
  185.7060  177.9790  145.8950 C   0  0  0  0  0  0  0  0  0  0  0  0
  186.6280  178.3800  144.9240 C   0  0  0  0  0  3  0  0  0  0  0  0
  186.0380  176.9610  146.7950 C   0  0  0  0  0  3  0  0  0  0  0  0
  184.4920  178.5760  145.9640 F   0  0  0  0  0  0  0  0  0  0  0  0
  187.8820  177.7660  144.8530 C   0  0  0  0  0  3  0  0  0  0  0  0
  190.4360  171.4770  142.0520 C   0  0  0  0  0  2  0  0  0  0  0  0
  191.7570  172.2070  142.2560 C   0  0  0  0  0  2  0  0  0  0  0  0
  192.7680  171.3420  142.9980 C   0  0  0  0  0  2  0  0  0  0  0  0
  193.3870  173.5810  143.7320 N   0  0  0  0  0  2  0  0  0  0  0  0
  193.8050  172.1960  143.7170 C   0  0  1  0  0  3  0  0  0  0  0  0
  193.6500  172.0540  145.1350 C   0  0  0  0  0  2  0  0  0  0  0  0
  192.8880  174.2800  146.1080 O   0  0  0  0  0  0  0  0  0  0  0  0
  193.2320  173.4870  145.1940 C   0  0  0  0  0  0  0  0  0  0  0  0
  187.5800  175.6330  142.1730 N   0  0  0  0  0  2  0  0  0  0  0  0
  187.9930  176.7110  141.3730 N   0  0  0  0  0  2  0  0  0  0  0  0
  186.7880  177.3370  140.8630 C   0  0  0  0  0  2  0  0  0  0  0  0
  185.7620  177.1980  141.7990 O   0  0  0  0  0  0  0  0  0  0  0  0
  184.5180  178.3910  140.3080 O   0  0  0  0  0  1  0  0  0  0  0  0
  184.9670  178.3320  141.6270 C   0  0  1  0  0  3  0  0  0  0  0  0
  183.7760  178.2620  142.5610 C   0  0  0  0  0  1  0  0  0  0  0  0
  1 28  1  1  0  0  0
  1  3  1  0  0  0  0
  2  1  1  0  0  0  0
  2  6  1  0  0  0  0
  3  4  1  0  0  0  0
  3  7  1  6  0  0  0
  4  5  1  1  0  0  0
  6 20  1  6  0  0  0
  6  4  1  0  0  0  0
  7 12  1  0  0  0  0
  8  9  1  0  0  0  0
  8  7  2  0  0  0  0
  9 11  2  0  0  0  0
 10  9  1  0  0  0  0
 12 14  1  0  0  0  0
 13 17  1  0  0  0  0
 14 13  2  0  0  0  0
 15 18  1  0  0  0  0
 15 17  2  0  0  0  0
 16 15  1  0  0  0  0
 19 16  2  0  0  0  0
 19 14  1  0  0  0  0
 20 21  1  0  0  0  0
 21 22  1  0  0  0  0
 23 27  1  0  0  0  0
 24 22  1  6  0  0  0
 24 23  1  0  0  0  0
 24 25  1  0  0  0  0
 25 27  1  0  0  0  0
 27 26  2  0  0  0  0
 29 28  1  0  0  0  0
 30 29  1  0  0  0  0
 30 31  1  0  0  0  0
 32 33  1  0  0  0  0
 33 31  1  0  0  0  0
 33 34  1  1  0  0  0
M  END
>  <MODEL>
2

>  <REMARK>
 VINA RESULT:      -6.4      2.938      7.067
  Name = 
  13 active torsions:
  status: ('A' for Active; 'I' for Inactive)
    1  A    between atoms: C_2  and  C_21
    2  A    between atoms: C_2  and  C_34
    3  A    between atoms: C_3  and  C_19
    4  A    between atoms: C_3  and  C_30
    5  A    between atoms: C_4  and  C_30
    6  A    between atoms: C_5  and  C_28
    7  A    between atoms: C_6  and  N_9
    8  A    between atoms: N_9  and  N_29
    9  A    between atoms: C_12  and  C_18
   10  A    between atoms: C_15  and  O_25
   11  A    between atoms: C_18  and  C_21
   12  A    between atoms: O_25  and  C_26
   13  A    between atoms: C_26  and  N_29
                            x       y       z     vdW  Elec       q    Type
                         _______ _______ _______ _____ _____    ______ ____

>  <TORSDO>
F 13

$$$$
=
 OpenBabel11042418423D

 34 36  0  0  1  0  0  0  0  0999 V2000
  189.6470  175.5190  145.9810 C   0  0  2  0  0  3  0  0  0  0  0  0
  190.6450  176.3440  147.2550 S   0  0  0  0  0  0  0  0  0  0  0  0
  190.1360  175.9680  144.6170 C   0  0  1  0  0  3  0  0  0  0  0  0
  191.6420  176.1400  144.6970 C   0  0  1  0  0  3  0  0  0  0  0  0
  192.1090  177.1550  143.6720 C   0  0  0  0  0  1  0  0  0  0  0  0
  192.0270  176.6010  146.0970 C   0  0  2  0  0  3  0  0  0  0  0  0
  189.7440  175.0000  143.5370 C   0  0  0  0  0  0  0  0  0  0  0  0
  189.8290  173.6950  143.8240 C   0  0  0  0  0  3  0  0  0  0  0  0
  189.4920  172.5700  142.9330 C   0  0  0  0  0  0  0  0  0  0  0  0
  188.1350  172.3770  142.5520 N   0  0  0  0  0  1  0  0  0  0  0  0
  190.3710  171.7770  142.5060 O   0  0  0  0  0  0  0  0  0  0  0  0
  189.2380  175.5010  142.2110 C   0  0  0  0  0  2  0  0  0  0  0  0
  188.2040  177.7860  142.0650 C   0  0  0  0  0  3  0  0  0  0  0  0
  188.0790  176.4260  142.3760 C   0  0  0  0  0  0  0  0  0  0  0  0
  185.8760  178.1340  142.6350 C   0  0  0  0  0  0  0  0  0  0  0  0
  185.7500  176.7780  142.9470 C   0  0  0  0  0  3  0  0  0  0  0  0
  187.1050  178.6380  142.1950 C   0  0  0  0  0  3  0  0  0  0  0  0
  184.8100  178.9600  142.7590 F   0  0  0  0  0  0  0  0  0  0  0  0
  186.8500  175.9250  142.8170 C   0  0  0  0  0  3  0  0  0  0  0  0
  193.2440  175.8330  146.5960 C   0  0  0  0  0  2  0  0  0  0  0  0
  193.5740  174.6500  145.6950 C   0  0  0  0  0  2  0  0  0  0  0  0
  195.0720  174.3820  145.6470 C   0  0  0  0  0  2  0  0  0  0  0  0
  195.2520  175.7360  143.6300 N   0  0  0  0  0  2  0  0  0  0  0  0
  195.6030  174.4620  144.2210 C   0  0  1  0  0  3  0  0  0  0  0  0
  197.0030  174.7710  144.2420 C   0  0  0  0  0  2  0  0  0  0  0  0
  197.3520  177.0830  143.2340 O   0  0  0  0  0  0  0  0  0  0  0  0
  196.6830  176.0880  143.6140 C   0  0  0  0  0  0  0  0  0  0  0  0
  188.2170  175.7730  146.1660 N   0  0  0  0  0  2  0  0  0  0  0  0
  187.9590  177.1340  145.9310 N   0  0  0  0  0  2  0  0  0  0  0  0
  187.0010  177.5540  146.9360 C   0  0  0  0  0  2  0  0  0  0  0  0
  185.7150  177.1940  146.5290 O   0  0  0  0  0  0  0  0  0  0  0  0
  185.6730  179.2420  147.5270 O   0  0  0  0  0  1  0  0  0  0  0  0
  184.8890  178.2040  147.0250 C   0  0  1  0  0  3  0  0  0  0  0  0
  184.0100  178.7320  145.9090 C   0  0  0  0  0  1  0  0  0  0  0  0
  1 28  1  1  0  0  0
  1  2  1  0  0  0  0
  3  7  1  6  0  0  0
  3  4  1  0  0  0  0
  3  1  1  0  0  0  0
  4  5  1  6  0  0  0
  4  6  1  0  0  0  0
  6 20  1  1  0  0  0
  6  2  1  0  0  0  0
  7  8  2  0  0  0  0
  9  8  1  0  0  0  0
 10  9  1  0  0  0  0
 11  9  2  0  0  0  0
 12 14  1  0  0  0  0
 12  7  1  0  0  0  0
 13 17  2  0  0  0  0
 13 14  1  0  0  0  0
 14 19  2  0  0  0  0
 15 18  1  0  0  0  0
 15 16  2  0  0  0  0
 17 15  1  0  0  0  0
 19 16  1  0  0  0  0
 21 20  1  0  0  0  0
 22 21  1  0  0  0  0
 23 24  1  0  0  0  0
 24 25  1  0  0  0  0
 24 22  1  1  0  0  0
 26 27  2  0  0  0  0
 27 23  1  0  0  0  0
 27 25  1  0  0  0  0
 29 28  1  0  0  0  0
 29 30  1  0  0  0  0
 31 30  1  0  0  0  0
 31 33  1  0  0  0  0
 33 34  1  6  0  0  0
 33 32  1  0  0  0  0
M  END
>  <MODEL>
3

>  <REMARK>
 VINA RESULT:      -6.3      1.996      6.888
  Name = 
  13 active torsions:
  status: ('A' for Active; 'I' for Inactive)
    1  A    between atoms: C_2  and  C_21
    2  A    between atoms: C_2  and  C_34
    3  A    between atoms: C_3  and  C_19
    4  A    between atoms: C_3  and  C_30
    5  A    between atoms: C_4  and  C_30
    6  A    between atoms: C_5  and  C_28
    7  A    between atoms: C_6  and  N_9
    8  A    between atoms: N_9  and  N_29
    9  A    between atoms: C_12  and  C_18
   10  A    between atoms: C_15  and  O_25
   11  A    between atoms: C_18  and  C_21
   12  A    between atoms: O_25  and  C_26
   13  A    between atoms: C_26  and  N_29
                            x       y       z     vdW  Elec       q    Type
                         _______ _______ _______ _____ _____    ______ ____

>  <TORSDO>
F 13

$$$$
=
 OpenBabel11042418423D

 34 36  0  0  1  0  0  0  0  0999 V2000
  190.8440  175.3650  142.8100 C   0  0  2  0  0  3  0  0  0  0  0  0
  190.6800  174.5490  141.1970 S   0  0  0  0  0  0  0  0  0  0  0  0
  189.4630  175.7750  143.2870 C   0  0  1  0  0  3  0  0  0  0  0  0
  188.4820  174.7040  142.8470 C   0  0  1  0  0  3  0  0  0  0  0  0
  187.0950  175.2960  142.6890 C   0  0  0  0  0  1  0  0  0  0  0  0
  188.9440  174.1040  141.5240 C   0  0  2  0  0  3  0  0  0  0  0  0
  189.4260  175.9860  144.7740 C   0  0  0  0  0  0  0  0  0  0  0  0
  189.7020  174.9290  145.5500 C   0  0  0  0  0  3  0  0  0  0  0  0
  189.7350  174.8980  147.0230 C   0  0  0  0  0  0  0  0  0  0  0  0
  190.9210  175.3070  147.6930 N   0  0  0  0  0  1  0  0  0  0  0  0
  188.7450  174.5160  147.6990 O   0  0  0  0  0  0  0  0  0  0  0  0
  189.1300  177.3470  145.3450 C   0  0  0  0  0  2  0  0  0  0  0  0
  186.9260  177.0960  146.5250 C   0  0  0  0  0  3  0  0  0  0  0  0
  187.6610  177.5960  145.4430 C   0  0  0  0  0  0  0  0  0  0  0  0
  184.9190  178.1240  145.6410 C   0  0  0  0  0  0  0  0  0  0  0  0
  185.6520  178.6230  144.5590 C   0  0  0  0  0  3  0  0  0  0  0  0
  185.5570  177.3590  146.6220 C   0  0  0  0  0  3  0  0  0  0  0  0
  183.5930  178.3810  145.7360 F   0  0  0  0  0  0  0  0  0  0  0  0
  187.0210  178.3600  144.4610 C   0  0  0  0  0  3  0  0  0  0  0  0
  188.8150  172.5870  141.5530 C   0  0  0  0  0  2  0  0  0  0  0  0
  189.3000  172.0030  142.8730 C   0  0  0  0  0  2  0  0  0  0  0  0
  190.5530  171.1590  142.6870 C   0  0  0  0  0  2  0  0  0  0  0  0
  192.3600  170.7400  144.2670 N   0  0  0  0  0  2  0  0  0  0  0  0
  191.7370  171.7520  143.4410 C   0  0  1  0  0  3  0  0  0  0  0  0
  192.8710  171.8460  142.5680 C   0  0  0  0  0  2  0  0  0  0  0  0
  194.6770  170.2500  143.3870 O   0  0  0  0  0  0  0  0  0  0  0  0
  193.5540  170.8170  143.4070 C   0  0  0  0  0  0  0  0  0  0  0  0
  191.7660  176.5000  142.7510 N   0  0  0  0  0  2  0  0  0  0  0  0
  193.0740  176.0410  142.9780 N   0  0  0  0  0  2  0  0  0  0  0  0
  193.0710  175.4030  144.2800 C   0  0  0  0  0  2  0  0  0  0  0  0
  193.0830  176.3820  145.2750 O   0  0  0  0  0  0  0  0  0  0  0  0
  194.5630  177.5530  146.5540 O   0  0  0  0  0  1  0  0  0  0  0  0
  194.4340  176.5640  145.5790 C   0  0  1  0  0  3  0  0  0  0  0  0
  195.0150  175.2650  146.0990 C   0  0  0  0  0  1  0  0  0  0  0  0
  1 28  1  6  0  0  0
  1  3  1  0  0  0  0
  2  6  1  0  0  0  0
  2  1  1  0  0  0  0
  3  7  1  1  0  0  0
  4  5  1  6  0  0  0
  4  3  1  0  0  0  0
  6 20  1  1  0  0  0
  6  4  1  0  0  0  0
  7 12  1  0  0  0  0
  7  8  2  0  0  0  0
  8  9  1  0  0  0  0
  9 10  1  0  0  0  0
  9 11  2  0  0  0  0
 12 14  1  0  0  0  0
 13 17  1  0  0  0  0
 14 13  2  0  0  0  0
 15 18  1  0  0  0  0
 15 17  2  0  0  0  0
 16 15  1  0  0  0  0
 19 16  2  0  0  0  0
 19 14  1  0  0  0  0
 20 21  1  0  0  0  0
 22 21  1  0  0  0  0
 24 22  1  6  0  0  0
 24 23  1  0  0  0  0
 25 27  1  0  0  0  0
 25 24  1  0  0  0  0
 26 27  2  0  0  0  0
 27 23  1  0  0  0  0
 28 29  1  0  0  0  0
 29 30  1  0  0  0  0
 30 31  1  0  0  0  0
 31 33  1  0  0  0  0
 33 34  1  1  0  0  0
 33 32  1  0  0  0  0
M  END
>  <MODEL>
4

>  <REMARK>
 VINA RESULT:      -6.1      2.858      6.052
  Name = 
  13 active torsions:
  status: ('A' for Active; 'I' for Inactive)
    1  A    between atoms: C_2  and  C_21
    2  A    between atoms: C_2  and  C_34
    3  A    between atoms: C_3  and  C_19
    4  A    between atoms: C_3  and  C_30
    5  A    between atoms: C_4  and  C_30
    6  A    between atoms: C_5  and  C_28
    7  A    between atoms: C_6  and  N_9
    8  A    between atoms: N_9  and  N_29
    9  A    between atoms: C_12  and  C_18
   10  A    between atoms: C_15  and  O_25
   11  A    between atoms: C_18  and  C_21
   12  A    between atoms: O_25  and  C_26
   13  A    between atoms: C_26  and  N_29
                            x       y       z     vdW  Elec       q    Type
                         _______ _______ _______ _____ _____    ______ ____

>  <TORSDO>
F 13

$$$$
=
 OpenBabel11042418423D

 34 36  0  0  1  0  0  0  0  0999 V2000
  188.5660  176.9630  145.9130 C   0  0  2  0  0  3  0  0  0  0  0  0
  189.9410  177.1340  147.0870 S   0  0  0  0  0  0  0  0  0  0  0  0
  188.9970  177.5350  144.5760 C   0  0  1  0  0  3  0  0  0  0  0  0
  190.4680  177.2150  144.3860 C   0  0  1  0  0  3  0  0  0  0  0  0
  191.1150  178.2410  143.4760 C   0  0  0  0  0  1  0  0  0  0  0  0
  191.1660  177.2080  145.7400 C   0  0  2  0  0  3  0  0  0  0  0  0
  188.1620  177.0030  143.4460 C   0  0  0  0  0  0  0  0  0  0  0  0
  187.7420  177.8820  142.5270 C   0  0  0  0  0  3  0  0  0  0  0  0
  186.9250  177.5930  141.3350 C   0  0  0  0  0  0  0  0  0  0  0  0
  185.5200  177.8030  141.3980 N   0  0  0  0  0  1  0  0  0  0  0  0
  187.4370  177.1620  140.2690 O   0  0  0  0  0  0  0  0  0  0  0  0
  187.8560  175.5320  143.3510 C   0  0  0  0  0  2  0  0  0  0  0  0
  189.6840  174.8580  141.7650 C   0  0  0  0  0  3  0  0  0  0  0  0
  189.0750  174.7350  143.0200 C   0  0  0  0  0  0  0  0  0  0  0  0
  191.3930  173.2790  142.4390 C   0  0  0  0  0  0  0  0  0  0  0  0
  190.7840  173.1540  143.6910 C   0  0  0  0  0  3  0  0  0  0  0  0
  190.8420  174.1300  141.4750 C   0  0  0  0  0  3  0  0  0  0  0  0
  192.5150  172.5750  142.1580 F   0  0  0  0  0  0  0  0  0  0  0  0
  189.6270  173.8820  143.9810 C   0  0  0  0  0  3  0  0  0  0  0  0
  192.1020  176.0130  145.8530 C   0  0  0  0  0  2  0  0  0  0  0  0
  193.5090  176.3500  145.3760 C   0  0  0  0  0  2  0  0  0  0  0  0
  194.5660  175.5870  146.1640 C   0  0  0  0  0  2  0  0  0  0  0  0
  195.8070  173.5370  145.7270 N   0  0  0  0  0  2  0  0  0  0  0  0
  195.5400  174.8720  145.2350 C   0  0  1  0  0  3  0  0  0  0  0  0
  194.8430  174.3890  144.0800 C   0  0  0  0  0  2  0  0  0  0  0  0
  194.8580  171.8440  144.1100 O   0  0  0  0  0  0  0  0  0  0  0  0
  195.1150  172.9960  144.5440 C   0  0  0  0  0  0  0  0  0  0  0  0
  187.3450  177.5950  146.4150 N   0  0  0  0  0  2  0  0  0  0  0  0
  186.3710  176.6070  146.6290 N   0  0  0  0  0  2  0  0  0  0  0  0
  185.0990  177.1850  146.2380 C   0  0  0  0  0  2  0  0  0  0  0  0
  185.1250  177.4850  144.8750 O   0  0  0  0  0  0  0  0  0  0  0  0
  183.7240  178.9160  145.9620 O   0  0  0  0  0  1  0  0  0  0  0  0
  184.3580  178.6440  144.7500 C   0  0  1  0  0  3  0  0  0  0  0  0
  185.2550  179.8080  144.3800 C   0  0  0  0  0  1  0  0  0  0  0  0
  1 28  1  1  0  0  0
  1  2  1  0  0  0  0
  3  7  1  6  0  0  0
  3  1  1  0  0  0  0
  4  5  1  6  0  0  0
  4  3  1  0  0  0  0
  4  6  1  0  0  0  0
  6 20  1  6  0  0  0
  6  2  1  0  0  0  0
  8  7  2  0  0  0  0
  9 10  1  0  0  0  0
  9  8  1  0  0  0  0
 11  9  2  0  0  0  0
 12  7  1  0  0  0  0
 13 14  1  0  0  0  0
 14 12  1  0  0  0  0
 14 19  2  0  0  0  0
 15 16  2  0  0  0  0
 16 19  1  0  0  0  0
 17 13  2  0  0  0  0
 17 15  1  0  0  0  0
 18 15  1  0  0  0  0
 21 20  1  0  0  0  0
 21 22  1  0  0  0  0
 24 23  1  0  0  0  0
 24 22  1  1  0  0  0
 25 27  1  0  0  0  0
 25 24  1  0  0  0  0
 26 27  2  0  0  0  0
 27 23  1  0  0  0  0
 28 29  1  0  0  0  0
 30 29  1  0  0  0  0
 31 30  1  0  0  0  0
 33 34  1  1  0  0  0
 33 31  1  0  0  0  0
 33 32  1  0  0  0  0
M  END
>  <MODEL>
5

>  <REMARK>
 VINA RESULT:      -6.1      2.824      7.502
  Name = 
  13 active torsions:
  status: ('A' for Active; 'I' for Inactive)
    1  A    between atoms: C_2  and  C_21
    2  A    between atoms: C_2  and  C_34
    3  A    between atoms: C_3  and  C_19
    4  A    between atoms: C_3  and  C_30
    5  A    between atoms: C_4  and  C_30
    6  A    between atoms: C_5  and  C_28
    7  A    between atoms: C_6  and  N_9
    8  A    between atoms: N_9  and  N_29
    9  A    between atoms: C_12  and  C_18
   10  A    between atoms: C_15  and  O_25
   11  A    between atoms: C_18  and  C_21
   12  A    between atoms: O_25  and  C_26
   13  A    between atoms: C_26  and  N_29
                            x       y       z     vdW  Elec       q    Type
                         _______ _______ _______ _____ _____    ______ ____

>  <TORSDO>
F 13

$$$$
=
 OpenBabel11042418423D

 34 36  0  0  1  0  0  0  0  0999 V2000
  188.5230  174.9190  142.7510 C   0  0  2  0  0  3  0  0  0  0  0  0
  187.7940  175.8920  141.4030 S   0  0  0  0  0  0  0  0  0  0  0  0
  189.7510  175.6480  143.2650 C   0  0  1  0  0  3  0  0  0  0  0  0
  189.4680  177.1370  143.2000 C   0  0  1  0  0  3  0  0  0  0  0  0
  190.7640  177.9110  143.0590 C   0  0  0  0  0  1  0  0  0  0  0  0
  188.5570  177.4290  142.0130 C   0  0  2  0  0  3  0  0  0  0  0  0
  190.1160  175.2120  144.6560 C   0  0  0  0  0  0  0  0  0  0  0  0
  189.3420  175.6460  145.6580 C   0  0  0  0  0  3  0  0  0  0  0  0
  189.4990  175.3450  147.0920 C   0  0  0  0  0  0  0  0  0  0  0  0
  190.4490  176.0850  147.8500 N   0  0  0  0  0  1  0  0  0  0  0  0
  188.8190  174.4510  147.6590 O   0  0  0  0  0  0  0  0  0  0  0  0
  191.2850  174.2900  144.8840 C   0  0  0  0  0  2  0  0  0  0  0  0
  193.2560  174.7300  143.3900 C   0  0  0  0  0  3  0  0  0  0  0  0
  192.5850  174.9650  144.5960 C   0  0  0  0  0  0  0  0  0  0  0  0
  194.9910  176.2860  144.0480 C   0  0  0  0  0  0  0  0  0  0  0  0
  194.3230  176.5210  145.2540 C   0  0  0  0  0  3  0  0  0  0  0  0
  194.4580  175.3890  143.1170 C   0  0  0  0  0  3  0  0  0  0  0  0
  196.1540  176.9270  143.7840 F   0  0  0  0  0  0  0  0  0  0  0  0
  193.1210  175.8610  145.5270 C   0  0  0  0  0  3  0  0  0  0  0  0
  187.4590  178.4060  142.4120 C   0  0  0  0  0  2  0  0  0  0  0  0
  186.6280  177.8790  143.5740 C   0  0  0  0  0  2  0  0  0  0  0  0
  185.9690  179.0090  144.3520 C   0  0  0  0  0  2  0  0  0  0  0  0
  185.2960  177.0630  145.6530 N   0  0  0  0  0  2  0  0  0  0  0  0
  185.0420  178.4710  145.4350 C   0  0  1  0  0  3  0  0  0  0  0  0
  185.5400  178.8400  146.7270 C   0  0  0  0  0  2  0  0  0  0  0  0
  186.2580  176.7340  147.9660 O   0  0  0  0  0  0  0  0  0  0  0  0
  185.7990  177.3940  146.9980 C   0  0  0  0  0  0  0  0  0  0  0  0
  188.8320  173.5520  142.3260 N   0  0  0  0  0  2  0  0  0  0  0  0
  189.9390  173.5790  141.4620 N   0  0  0  0  0  2  0  0  0  0  0  0
  190.4570  172.2250  141.4070 C   0  0  0  0  0  2  0  0  0  0  0  0
  190.6260  171.7420  142.7060 O   0  0  0  0  0  0  0  0  0  0  0  0
  192.7030  171.5720  141.7840 O   0  0  0  0  0  1  0  0  0  0  0  0
  191.7900  170.9730  142.6510 C   0  0  1  0  0  3  0  0  0  0  0  0
  192.3980  170.8760  144.0350 C   0  0  0  0  0  1  0  0  0  0  0  0
  1 28  1  6  0  0  0
  1  3  1  0  0  0  0
  2  6  1  0  0  0  0
  2  1  1  0  0  0  0
  3  7  1  1  0  0  0
  4  5  1  6  0  0  0
  4  3  1  0  0  0  0
  6 20  1  1  0  0  0
  6  4  1  0  0  0  0
  7 12  1  0  0  0  0
  7  8  2  0  0  0  0
  8  9  1  0  0  0  0
  9 11  2  0  0  0  0
  9 10  1  0  0  0  0
 13 14  1  0  0  0  0
 14 12  1  0  0  0  0
 14 19  2  0  0  0  0
 15 16  2  0  0  0  0
 16 19  1  0  0  0  0
 17 13  2  0  0  0  0
 17 15  1  0  0  0  0
 18 15  1  0  0  0  0
 20 21  1  0  0  0  0
 21 22  1  0  0  0  0
 23 27  1  0  0  0  0
 24 22  1  6  0  0  0
 24 23  1  0  0  0  0
 24 25  1  0  0  0  0
 25 27  1  0  0  0  0
 27 26  2  0  0  0  0
 29 28  1  0  0  0  0
 30 29  1  0  0  0  0
 30 31  1  0  0  0  0
 32 33  1  0  0  0  0
 33 31  1  0  0  0  0
 33 34  1  1  0  0  0
M  END
>  <MODEL>
6

>  <REMARK>
 VINA RESULT:      -6.1      3.200      5.750
  Name = 
  13 active torsions:
  status: ('A' for Active; 'I' for Inactive)
    1  A    between atoms: C_2  and  C_21
    2  A    between atoms: C_2  and  C_34
    3  A    between atoms: C_3  and  C_19
    4  A    between atoms: C_3  and  C_30
    5  A    between atoms: C_4  and  C_30
    6  A    between atoms: C_5  and  C_28
    7  A    between atoms: C_6  and  N_9
    8  A    between atoms: N_9  and  N_29
    9  A    between atoms: C_12  and  C_18
   10  A    between atoms: C_15  and  O_25
   11  A    between atoms: C_18  and  C_21
   12  A    between atoms: O_25  and  C_26
   13  A    between atoms: C_26  and  N_29
                            x       y       z     vdW  Elec       q    Type
                         _______ _______ _______ _____ _____    ______ ____

>  <TORSDO>
F 13

$$$$
=
 OpenBabel11042418423D

 34 36  0  0  1  0  0  0  0  0999 V2000
  189.4970  175.7140  145.7140 C   0  0  2  0  0  3  0  0  0  0  0  0
  190.5690  176.4250  146.9960 S   0  0  0  0  0  0  0  0  0  0  0  0
  190.1170  175.9890  144.3570 C   0  0  1  0  0  3  0  0  0  0  0  0
  191.6240  175.8980  144.5080 C   0  0  1  0  0  3  0  0  0  0  0  0
  192.3090  176.7530  143.4600 C   0  0  0  0  0  1  0  0  0  0  0  0
  192.0240  176.3660  145.9020 C   0  0  2  0  0  3  0  0  0  0  0  0
  189.6050  175.0430  143.3080 C   0  0  0  0  0  0  0  0  0  0  0  0
  189.6310  173.7360  143.5960 C   0  0  0  0  0  3  0  0  0  0  0  0
  189.1770  172.6300  142.7340 C   0  0  0  0  0  0  0  0  0  0  0  0
  190.1290  171.6740  142.2840 N   0  0  0  0  0  1  0  0  0  0  0  0
  187.9740  172.5150  142.3840 O   0  0  0  0  0  0  0  0  0  0  0  0
  189.0510  175.5700  142.0110 C   0  0  0  0  0  2  0  0  0  0  0  0
  187.9640  177.8320  141.8990 C   0  0  0  0  0  3  0  0  0  0  0  0
  187.8850  176.4750  142.2360 C   0  0  0  0  0  0  0  0  0  0  0  0
  185.6700  178.1440  142.6100 C   0  0  0  0  0  0  0  0  0  0  0  0
  185.5910  176.7900  142.9480 C   0  0  0  0  0  3  0  0  0  0  0  0
  186.8580  178.6650  142.0870 C   0  0  0  0  0  3  0  0  0  0  0  0
  184.5970  178.9510  142.7900 F   0  0  0  0  0  0  0  0  0  0  0  0
  186.6970  175.9560  142.7610 C   0  0  0  0  0  3  0  0  0  0  0  0
  193.0610  175.4260  146.5030 C   0  0  0  0  0  2  0  0  0  0  0  0
  194.4740  175.9750  146.3550 C   0  0  0  0  0  2  0  0  0  0  0  0
  195.4340  174.9180  145.8250 C   0  0  0  0  0  2  0  0  0  0  0  0
  195.2090  173.7820  143.6820 N   0  0  0  0  0  2  0  0  0  0  0  0
  194.6960  173.8460  145.0330 C   0  0  1  0  0  3  0  0  0  0  0  0
  195.2100  172.5520  145.3710 C   0  0  0  0  0  2  0  0  0  0  0  0
  196.3750  171.5680  143.3330 O   0  0  0  0  0  0  0  0  0  0  0  0
  195.7390  172.4400  143.9790 C   0  0  0  0  0  0  0  0  0  0  0  0
  188.1290  176.2270  145.8090 N   0  0  0  0  0  2  0  0  0  0  0  0
  187.6570  176.0370  147.1180 N   0  0  0  0  0  2  0  0  0  0  0  0
  186.4710  176.8610  147.2560 C   0  0  0  0  0  2  0  0  0  0  0  0
  186.7680  178.1680  146.8670 O   0  0  0  0  0  0  0  0  0  0  0  0
  185.5730  179.7100  145.6880 O   0  0  0  0  0  1  0  0  0  0  0  0
  185.5260  178.7920  146.7370 C   0  0  1  0  0  3  0  0  0  0  0  0
  184.4640  177.7510  146.4480 C   0  0  0  0  0  1  0  0  0  0  0  0
  1 28  1  6  0  0  0
  1  2  1  0  0  0  0
  3  7  1  6  0  0  0
  3  4  1  0  0  0  0
  3  1  1  0  0  0  0
  4  5  1  6  0  0  0
  4  6  1  0  0  0  0
  6 20  1  1  0  0  0
  6  2  1  0  0  0  0
  7  8  2  0  0  0  0
  9  8  1  0  0  0  0
 10  9  1  0  0  0  0
 11  9  2  0  0  0  0
 12 14  1  0  0  0  0
 12  7  1  0  0  0  0
 13 17  2  0  0  0  0
 13 14  1  0  0  0  0
 14 19  2  0  0  0  0
 15 18  1  0  0  0  0
 15 16  2  0  0  0  0
 17 15  1  0  0  0  0
 19 16  1  0  0  0  0
 21 20  1  0  0  0  0
 22 21  1  0  0  0  0
 23 27  1  0  0  0  0
 23 24  1  0  0  0  0
 24 25  1  0  0  0  0
 24 22  1  1  0  0  0
 26 27  2  0  0  0  0
 27 25  1  0  0  0  0
 28 29  1  0  0  0  0
 29 30  1  0  0  0  0
 31 30  1  0  0  0  0
 32 33  1  0  0  0  0
 33 34  1  6  0  0  0
 33 31  1  0  0  0  0
M  END
>  <MODEL>
7

>  <REMARK>
 VINA RESULT:      -6.1      2.382      6.862
  Name = 
  13 active torsions:
  status: ('A' for Active; 'I' for Inactive)
    1  A    between atoms: C_2  and  C_21
    2  A    between atoms: C_2  and  C_34
    3  A    between atoms: C_3  and  C_19
    4  A    between atoms: C_3  and  C_30
    5  A    between atoms: C_4  and  C_30
    6  A    between atoms: C_5  and  C_28
    7  A    between atoms: C_6  and  N_9
    8  A    between atoms: N_9  and  N_29
    9  A    between atoms: C_12  and  C_18
   10  A    between atoms: C_15  and  O_25
   11  A    between atoms: C_18  and  C_21
   12  A    between atoms: O_25  and  C_26
   13  A    between atoms: C_26  and  N_29
                            x       y       z     vdW  Elec       q    Type
                         _______ _______ _______ _____ _____    ______ ____

>  <TORSDO>
F 13

$$$$
=
 OpenBabel11042418423D

 34 36  0  0  1  0  0  0  0  0999 V2000
  189.0730  174.6390  142.4600 C   0  0  2  0  0  3  0  0  0  0  0  0
  190.7830  174.3560  142.9990 S   0  0  0  0  0  0  0  0  0  0  0  0
  188.4880  175.7720  143.2820 C   0  0  1  0  0  3  0  0  0  0  0  0
  189.5930  176.7790  143.5380 C   0  0  1  0  0  3  0  0  0  0  0  0
  189.3170  177.5470  144.8160 C   0  0  0  0  0  1  0  0  0  0  0  0
  190.9280  176.0520  143.6490 C   0  0  2  0  0  3  0  0  0  0  0  0
  187.3070  176.4030  142.6000 C   0  0  0  0  0  0  0  0  0  0  0  0
  187.5210  176.9740  141.4080 C   0  0  0  0  0  3  0  0  0  0  0  0
  186.5220  177.6430  140.5550 C   0  0  0  0  0  0  0  0  0  0  0  0
  186.3200  177.1660  139.2310 N   0  0  0  0  0  1  0  0  0  0  0  0
  185.8490  178.6230  140.9670 O   0  0  0  0  0  0  0  0  0  0  0  0
  185.9410  176.3470  143.2320 C   0  0  0  0  0  2  0  0  0  0  0  0
  185.8690  176.6360  145.7260 C   0  0  0  0  0  3  0  0  0  0  0  0
  185.8600  177.2090  144.4480 C   0  0  0  0  0  0  0  0  0  0  0  0
  185.7680  178.8430  146.7190 C   0  0  0  0  0  0  0  0  0  0  0  0
  185.7570  179.4160  145.4430 C   0  0  0  0  0  3  0  0  0  0  0  0
  185.8220  177.4530  146.8590 C   0  0  0  0  0  3  0  0  0  0  0  0
  185.7240  179.6350  147.8170 F   0  0  0  0  0  0  0  0  0  0  0  0
  185.8040  178.6000  144.3100 C   0  0  0  0  0  3  0  0  0  0  0  0
  192.0060  176.7930  142.8700 C   0  0  0  0  0  2  0  0  0  0  0  0
  193.4040  176.4140  143.3390 C   0  0  0  0  0  2  0  0  0  0  0  0
  193.4950  176.3740  144.8580 C   0  0  0  0  0  2  0  0  0  0  0  0
  195.2770  175.2890  146.1150 N   0  0  0  0  0  2  0  0  0  0  0  0
  194.9410  176.4570  145.3300 C   0  0  1  0  0  3  0  0  0  0  0  0
  195.8220  176.0860  144.2610 C   0  0  0  0  0  2  0  0  0  0  0  0
  196.9960  173.9130  144.8770 O   0  0  0  0  0  0  0  0  0  0  0  0
  196.2090  174.8780  145.0500 C   0  0  0  0  0  0  0  0  0  0  0  0
  188.2680  173.4190  142.5520 N   0  0  0  0  0  2  0  0  0  0  0  0
  188.7140  172.5010  141.5870 N   0  0  0  0  0  2  0  0  0  0  0  0
  188.6370  173.1770  140.3050 C   0  0  0  0  0  2  0  0  0  0  0  0
  189.7280  172.8030  139.5180 O   0  0  0  0  0  0  0  0  0  0  0  0
  189.3520  172.3600  137.3150 O   0  0  0  0  0  1  0  0  0  0  0  0
  189.4760  173.3700  138.2680 C   0  0  1  0  0  3  0  0  0  0  0  0
  188.1910  174.1700  138.3240 C   0  0  0  0  0  1  0  0  0  0  0  0
  1 28  1  1  0  0  0
  1  2  1  0  0  0  0
  1  3  1  0  0  0  0
  2  6  1  0  0  0  0
  3  7  1  6  0  0  0
  3  4  1  0  0  0  0
  4  6  1  0  0  0  0
  4  5  1  1  0  0  0
  6 20  1  6  0  0  0
  7 12  1  0  0  0  0
  8  7  2  0  0  0  0
  9 11  2  0  0  0  0
  9  8  1  0  0  0  0
 10  9  1  0  0  0  0
 12 14  1  0  0  0  0
 13 17  1  0  0  0  0
 14 13  2  0  0  0  0
 15 17  2  0  0  0  0
 15 18  1  0  0  0  0
 16 15  1  0  0  0  0
 19 14  1  0  0  0  0
 19 16  2  0  0  0  0
 20 21  1  0  0  0  0
 21 22  1  0  0  0  0
 24 22  1  6  0  0  0
 24 23  1  0  0  0  0
 25 27  1  0  0  0  0
 25 24  1  0  0  0  0
 26 27  2  0  0  0  0
 27 23  1  0  0  0  0
 29 28  1  0  0  0  0
 30 29  1  0  0  0  0
 31 30  1  0  0  0  0
 32 33  1  0  0  0  0
 33 34  1  1  0  0  0
 33 31  1  0  0  0  0
M  END
>  <MODEL>
8

>  <REMARK>
 VINA RESULT:      -6.0      2.795      7.117
  Name = 
  13 active torsions:
  status: ('A' for Active; 'I' for Inactive)
    1  A    between atoms: C_2  and  C_21
    2  A    between atoms: C_2  and  C_34
    3  A    between atoms: C_3  and  C_19
    4  A    between atoms: C_3  and  C_30
    5  A    between atoms: C_4  and  C_30
    6  A    between atoms: C_5  and  C_28
    7  A    between atoms: C_6  and  N_9
    8  A    between atoms: N_9  and  N_29
    9  A    between atoms: C_12  and  C_18
   10  A    between atoms: C_15  and  O_25
   11  A    between atoms: C_18  and  C_21
   12  A    between atoms: O_25  and  C_26
   13  A    between atoms: C_26  and  N_29
                            x       y       z     vdW  Elec       q    Type
                         _______ _______ _______ _____ _____    ______ ____

>  <TORSDO>
F 13

$$$$
=
 OpenBabel11042418423D

 34 36  0  0  1  0  0  0  0  0999 V2000
  188.6370  174.8030  142.7490 C   0  0  2  0  0  3  0  0  0  0  0  0
  187.8240  175.8040  141.4700 S   0  0  0  0  0  0  0  0  0  0  0  0
  189.8230  175.5780  143.2890 C   0  0  1  0  0  3  0  0  0  0  0  0
  189.4450  177.0480  143.3160 C   0  0  1  0  0  3  0  0  0  0  0  0
  190.6870  177.9110  143.2040 C   0  0  0  0  0  1  0  0  0  0  0  0
  188.4980  177.3500  142.1610 C   0  0  2  0  0  3  0  0  0  0  0  0
  190.2390  175.0860  144.6470 C   0  0  0  0  0  0  0  0  0  0  0  0
  189.4560  175.4110  145.6830 C   0  0  0  0  0  3  0  0  0  0  0  0
  189.6560  175.0370  147.0940 C   0  0  0  0  0  0  0  0  0  0  0  0
  190.6890  175.6760  147.8350 N   0  0  0  0  0  1  0  0  0  0  0  0
  188.9410  174.1680  147.6570 O   0  0  0  0  0  0  0  0  0  0  0  0
  191.4680  174.2300  144.8040 C   0  0  0  0  0  2  0  0  0  0  0  0
  193.2600  175.8150  145.5710 C   0  0  0  0  0  3  0  0  0  0  0  0
  192.7180  175.0090  144.5620 C   0  0  0  0  0  0  0  0  0  0  0  0
  195.0950  176.4160  144.1090 C   0  0  0  0  0  0  0  0  0  0  0  0
  194.5540  175.6140  143.1000 C   0  0  0  0  0  3  0  0  0  0  0  0
  194.4460  176.5180  145.3430 C   0  0  0  0  0  3  0  0  0  0  0  0
  196.2460  177.0960  143.8890 F   0  0  0  0  0  0  0  0  0  0  0  0
  193.3670  174.9110  143.3270 C   0  0  0  0  0  3  0  0  0  0  0  0
  187.3460  178.2280  142.6320 C   0  0  0  0  0  2  0  0  0  0  0  0
  187.1100  178.0960  144.1310 C   0  0  0  0  0  2  0  0  0  0  0  0
  185.8410  177.3100  144.4320 C   0  0  0  0  0  2  0  0  0  0  0  0
  186.7680  177.6900  146.6520 N   0  0  0  0  0  2  0  0  0  0  0  0
  185.6590  177.1050  145.9300 C   0  0  1  0  0  3  0  0  0  0  0  0
  184.7220  178.0630  146.4400 C   0  0  0  0  0  2  0  0  0  0  0  0
  185.9410  179.6510  148.0130 O   0  0  0  0  0  0  0  0  0  0  0  0
  185.8380  178.6840  147.2160 C   0  0  0  0  0  0  0  0  0  0  0  0
  189.0240  173.4870  142.2390 N   0  0  0  0  0  2  0  0  0  0  0  0
  189.7670  173.6520  141.0580 N   0  0  0  0  0  2  0  0  0  0  0  0
  190.0270  172.3220  140.5410 C   0  0  0  0  0  2  0  0  0  0  0  0
  190.4300  172.4140  139.2080 O   0  0  0  0  0  0  0  0  0  0  0  0
  189.1730  172.6260  137.3180 O   0  0  0  0  0  1  0  0  0  0  0  0
  189.3700  171.8750  138.4770 C   0  0  1  0  0  3  0  0  0  0  0  0
  189.6910  170.4430  138.1000 C   0  0  0  0  0  1  0  0  0  0  0  0
  1 28  1  6  0  0  0
  1  3  1  0  0  0  0
  2  6  1  0  0  0  0
  2  1  1  0  0  0  0
  3  4  1  0  0  0  0
  3  7  1  1  0  0  0
  4  5  1  6  0  0  0
  6 20  1  1  0  0  0
  6  4  1  0  0  0  0
  7 12  1  0  0  0  0
  7  8  2  0  0  0  0
  8  9  1  0  0  0  0
  9 11  2  0  0  0  0
  9 10  1  0  0  0  0
 14 12  1  0  0  0  0
 14 13  2  0  0  0  0
 15 17  2  0  0  0  0
 16 19  2  0  0  0  0
 16 15  1  0  0  0  0
 17 13  1  0  0  0  0
 18 15  1  0  0  0  0
 19 14  1  0  0  0  0
 20 21  1  0  0  0  0
 21 22  1  0  0  0  0
 23 27  1  0  0  0  0
 24 22  1  6  0  0  0
 24 25  1  0  0  0  0
 24 23  1  0  0  0  0
 25 27  1  0  0  0  0
 27 26  2  0  0  0  0
 29 28  1  0  0  0  0
 30 29  1  0  0  0  0
 31 30  1  0  0  0  0
 32 33  1  0  0  0  0
 33 34  1  6  0  0  0
 33 31  1  0  0  0  0
M  END
>  <MODEL>
9

>  <REMARK>
 VINA RESULT:      -5.9      3.397      6.165
  Name = 
  13 active torsions:
  status: ('A' for Active; 'I' for Inactive)
    1  A    between atoms: C_2  and  C_21
    2  A    between atoms: C_2  and  C_34
    3  A    between atoms: C_3  and  C_19
    4  A    between atoms: C_3  and  C_30
    5  A    between atoms: C_4  and  C_30
    6  A    between atoms: C_5  and  C_28
    7  A    between atoms: C_6  and  N_9
    8  A    between atoms: N_9  and  N_29
    9  A    between atoms: C_12  and  C_18
   10  A    between atoms: C_15  and  O_25
   11  A    between atoms: C_18  and  C_21
   12  A    between atoms: O_25  and  C_26
   13  A    between atoms: C_26  and  N_29
                            x       y       z     vdW  Elec       q    Type
                         _______ _______ _______ _____ _____    ______ ____

>  <TORSDO>
F 13

$$$$
