=
 OpenBabel11042418553D

 31 34  0  0  1  0  0  0  0  0999 V2000
  190.8500  173.7420  142.8330 C   0  0  2  0  0  3  0  0  0  0  0  0
  190.0580  174.9610  143.0160 N   0  0  0  0  0  2  0  0  0  0  0  0
  193.3120  176.0430  144.4690 C   0  0  0  0  0  0  0  0  0  0  0  0
  192.2710  174.0370  143.2590 C   0  0  0  0  0  2  0  0  0  0  0  0
  193.0980  177.1450  145.0450 O   0  0  0  0  0  0  0  0  0  0  0  0
  192.1970  175.3250  143.9030 N   0  0  0  0  0  0  0  0  0  0  0  0
  190.8500  175.8600  143.8510 C   0  0  2  0  0  3  0  0  0  0  0  0
  196.7530  175.1800  143.2010 N   0  0  0  0  0  0  0  0  0  0  0  0
  194.7060  175.5320  144.3890 C   0  0  0  0  0  0  0  0  0  0  0  0
  195.0120  176.4110  142.0990 N   0  0  0  0  0  1  0  0  0  0  0  0
  195.4940  175.6930  143.2310 C   0  0  0  0  0  0  0  0  0  0  0  0
  196.5510  174.3260  145.3760 C   0  0  0  0  0  0  0  0  0  0  0  0
  195.2570  174.8290  145.4650 C   0  0  0  0  0  3  0  0  0  0  0  0
  197.2660  174.5160  144.2390 N   0  0  0  0  0  0  0  0  0  0  0  0
  197.1190  173.6120  146.4690 N   0  0  0  0  0  1  0  0  0  0  0  0
  190.2540  175.9120  145.2510 C   0  0  0  0  0  2  0  0  0  0  0  0
  189.3880  177.1510  145.4120 C   0  0  1  0  0  3  0  0  0  0  0  0
  187.9250  176.7490  145.4660 C   0  0  1  0  0  3  0  0  0  0  0  0
  189.3270  177.5580  146.8740 C   0  0  0  0  0  2  0  0  0  0  0  0
  187.8620  177.1670  146.9250 C   0  0  0  0  0  2  0  0  0  0  0  0
  184.5620  178.2790  141.2640 O   0  0  0  0  0  0  0  0  0  0  0  0
  187.3100  177.6500  143.2890 C   0  0  0  0  0  3  0  0  0  0  0  0
  186.1080  178.5100  145.1840 N   0  0  0  0  0  2  0  0  0  0  0  0
  184.3770  178.7840  143.5220 N   0  0  0  0  0  2  0  0  0  0  0  0
  184.6970  178.3350  144.8730 C   0  0  0  0  0  2  0  0  0  0  0  0
  187.0910  177.6480  144.6030 C   0  0  0  0  0  0  0  0  0  0  0  0
  185.1510  178.5010  142.3520 C   0  0  0  0  0  0  0  0  0  0  0  0
  186.6430  178.6090  142.3560 C   0  0  0  0  0  2  0  0  0  0  0  0
  190.8280  173.3160  141.3760 C   0  0  0  0  0  2  0  0  0  0  0  0
  188.6580  173.6430  139.7640 S   0  0  0  0  0  1  0  0  0  0  0  0
  189.4990  172.6680  141.0400 C   0  0  0  0  0  2  0  0  0  0  0  0
  1 29  1  6  0  0  0
  1  2  1  0  0  0  0
  1  4  1  0  0  0  0
  2  7  1  0  0  0  0
  3  5  2  0  0  0  0
  4  6  1  0  0  0  0
  6  3  1  0  0  0  0
  7  6  1  0  0  0  0
  7 16  1  1  0  0  0
  8 11  2  0  0  0  0
  8 14  1  0  0  0  0
  9  3  1  0  0  0  0
  9 13  2  0  0  0  0
 10 11  1  0  0  0  0
 11  9  1  0  0  0  0
 12 13  1  0  0  0  0
 12 15  1  0  0  0  0
 14 12  2  0  0  0  0
 17 16  1  1  0  0  0
 17 18  1  0  0  0  0
 17 19  1  0  0  0  0
 18 26  1  6  0  0  0
 18 20  1  0  0  0  0
 19 20  1  0  0  0  0
 21 27  2  0  0  0  0
 22 26  2  0  0  0  0
 24 25  1  0  0  0  0
 25 23  1  0  0  0  0
 26 23  1  0  0  0  0
 27 28  1  0  0  0  0
 27 24  1  0  0  0  0
 28 22  1  0  0  0  0
 30 31  1  0  0  0  0
 31 29  1  0  0  0  0
M  END
>  <MODEL>
1

>  <REMARK>
 VINA RESULT:      -7.2      0.000      0.000
  Name = 
  6 active torsions:
  status: ('A' for Active; 'I' for Inactive)
    1  A    between atoms: C_1  and  C_10
    2  A    between atoms: C_1  and  C_29
    3  A    between atoms: C_2  and  C_16
    4  A    between atoms: C_5  and  C_8
    5  A    between atoms: C_11  and  C_26
    6  A    between atoms: C_14  and  C_16
                            x       y       z     vdW  Elec       q    Type
                         _______ _______ _______ _____ _____    ______ ____

>  <TORSDO>
F 6

$$$$
=
 OpenBabel11042418553D

 31 34  0  0  1  0  0  0  0  0999 V2000
  190.2110  173.3050  143.2280 C   0  0  2  0  0  3  0  0  0  0  0  0
  189.2240  174.3810  143.3560 N   0  0  0  0  0  2  0  0  0  0  0  0
  192.3680  176.2690  143.9990 C   0  0  0  0  0  0  0  0  0  0  0  0
  191.5900  173.9190  143.3350 C   0  0  0  0  0  2  0  0  0  0  0  0
  192.0220  177.4080  144.4210 O   0  0  0  0  0  0  0  0  0  0  0  0
  191.3510  175.2740  143.7680 N   0  0  0  0  0  0  0  0  0  0  0  0
  189.9310  175.5460  143.8780 C   0  0  2  0  0  3  0  0  0  0  0  0
  195.9970  175.3890  144.4990 N   0  0  0  0  0  0  0  0  0  0  0  0
  193.8090  176.0030  143.7490 C   0  0  0  0  0  0  0  0  0  0  0  0
  194.2070  175.3420  146.0970 N   0  0  0  0  0  1  0  0  0  0  0  0
  194.6810  175.5880  144.7760 C   0  0  0  0  0  0  0  0  0  0  0  0
  195.7030  175.9870  142.2490 C   0  0  0  0  0  0  0  0  0  0  0  0
  194.3480  176.2080  142.4740 C   0  0  0  0  0  3  0  0  0  0  0  0
  196.4950  175.5830  143.2750 N   0  0  0  0  0  0  0  0  0  0  0  0
  196.2570  176.1900  140.9540 N   0  0  0  0  0  1  0  0  0  0  0  0
  189.5520  175.7620  145.3370 C   0  0  0  0  0  2  0  0  0  0  0  0
  188.6710  176.9920  145.4800 C   0  0  1  0  0  3  0  0  0  0  0  0
  187.2120  176.5750  145.5210 C   0  0  1  0  0  3  0  0  0  0  0  0
  188.5900  177.4100  146.9370 C   0  0  0  0  0  2  0  0  0  0  0  0
  187.1280  177.0040  146.9750 C   0  0  0  0  0  2  0  0  0  0  0  0
  183.2480  178.0090  141.8410 O   0  0  0  0  0  0  0  0  0  0  0  0
  186.2450  177.1340  143.3570 C   0  0  0  0  0  3  0  0  0  0  0  0
  185.7680  178.6420  145.1660 N   0  0  0  0  0  2  0  0  0  0  0  0
  183.7560  178.9980  143.8790 N   0  0  0  0  0  2  0  0  0  0  0  0
  184.3190  178.7710  145.2050 C   0  0  0  0  0  2  0  0  0  0  0  0
  186.3780  177.4590  144.6420 C   0  0  0  0  0  0  0  0  0  0  0  0
  184.1300  178.2930  142.6910 C   0  0  0  0  0  0  0  0  0  0  0  0
  185.5630  178.0180  142.3620 C   0  0  0  0  0  2  0  0  0  0  0  0
  190.0610  172.6110  141.8870 C   0  0  0  0  0  2  0  0  0  0  0  0
  188.8160  173.5420  139.6510 S   0  0  0  0  0  1  0  0  0  0  0  0
  188.6750  172.8570  141.3240 C   0  0  0  0  0  2  0  0  0  0  0  0
  1 29  1  6  0  0  0
  1  4  1  0  0  0  0
  1  2  1  0  0  0  0
  2  7  1  0  0  0  0
  3  5  2  0  0  0  0
  4  6  1  0  0  0  0
  6  7  1  0  0  0  0
  6  3  1  0  0  0  0
  7 16  1  1  0  0  0
  8 11  1  0  0  0  0
  9  3  1  0  0  0  0
  9 11  2  0  0  0  0
 11 10  1  0  0  0  0
 12 13  2  0  0  0  0
 12 14  1  0  0  0  0
 13  9  1  0  0  0  0
 14  8  2  0  0  0  0
 15 12  1  0  0  0  0
 17 16  1  1  0  0  0
 17 18  1  0  0  0  0
 17 19  1  0  0  0  0
 18 26  1  6  0  0  0
 18 20  1  0  0  0  0
 19 20  1  0  0  0  0
 21 27  2  0  0  0  0
 22 26  2  0  0  0  0
 23 25  1  0  0  0  0
 24 25  1  0  0  0  0
 26 23  1  0  0  0  0
 27 24  1  0  0  0  0
 28 27  1  0  0  0  0
 28 22  1  0  0  0  0
 30 31  1  0  0  0  0
 31 29  1  0  0  0  0
M  END
>  <MODEL>
2

>  <REMARK>
 VINA RESULT:      -7.1      1.143      1.881
  Name = 
  6 active torsions:
  status: ('A' for Active; 'I' for Inactive)
    1  A    between atoms: C_1  and  C_10
    2  A    between atoms: C_1  and  C_29
    3  A    between atoms: C_2  and  C_16
    4  A    between atoms: C_5  and  C_8
    5  A    between atoms: C_11  and  C_26
    6  A    between atoms: C_14  and  C_16
                            x       y       z     vdW  Elec       q    Type
                         _______ _______ _______ _____ _____    ______ ____

>  <TORSDO>
F 6

$$$$
=
 OpenBabel11042418553D

 31 34  0  0  1  0  0  0  0  0999 V2000
  191.9710  176.6470  145.0510 C   0  0  2  0  0  3  0  0  0  0  0  0
  191.6320  175.9370  146.2880 N   0  0  0  0  0  2  0  0  0  0  0  0
  190.1450  173.6410  143.7620 C   0  0  0  0  0  0  0  0  0  0  0  0
  191.5480  175.7830  143.8840 C   0  0  0  0  0  2  0  0  0  0  0  0
  189.4440  172.8100  144.4020 O   0  0  0  0  0  0  0  0  0  0  0  0
  190.7620  174.7290  144.4780 N   0  0  0  0  0  0  0  0  0  0  0  0
  190.7210  174.8570  145.9210 C   0  0  2  0  0  3  0  0  0  0  0  0
  191.5910  172.7580  140.3960 N   0  0  0  0  0  0  0  0  0  0  0  0
  190.3150  173.4590  142.2960 C   0  0  0  0  0  0  0  0  0  0  0  0
  192.5140  172.3660  142.5770 N   0  0  0  0  0  1  0  0  0  0  0  0
  191.4730  172.8720  141.7460 C   0  0  0  0  0  0  0  0  0  0  0  0
  189.5060  173.7730  140.0410 C   0  0  0  0  0  0  0  0  0  0  0  0
  189.3310  173.9170  141.4140 C   0  0  0  0  0  3  0  0  0  0  0  0
  190.6390  173.1950  139.5680 N   0  0  0  0  0  0  0  0  0  0  0  0
  188.5070  174.2330  139.1390 N   0  0  0  0  0  1  0  0  0  0  0  0
  189.3090  175.2050  146.3760 C   0  0  0  0  0  2  0  0  0  0  0  0
  188.9190  176.5870  145.8800 C   0  0  1  0  0  3  0  0  0  0  0  0
  187.4850  176.5660  145.3820 C   0  0  1  0  0  3  0  0  0  0  0  0
  188.4970  177.4610  147.0480 C   0  0  0  0  0  2  0  0  0  0  0  0
  187.0660  177.4490  146.5440 C   0  0  0  0  0  2  0  0  0  0  0  0
  186.8390  177.2850  139.8700 O   0  0  0  0  0  0  0  0  0  0  0  0
  188.1460  176.9150  143.0640 C   0  0  0  0  0  3  0  0  0  0  0  0
  186.4480  178.3810  143.9270 N   0  0  0  0  0  2  0  0  0  0  0  0
  185.7710  178.3940  141.6090 N   0  0  0  0  0  2  0  0  0  0  0  0
  185.3330  178.2890  142.9960 C   0  0  0  0  0  2  0  0  0  0  0  0
  187.3620  177.2900  144.0740 C   0  0  0  0  0  0  0  0  0  0  0  0
  186.9040  177.7220  141.0480 C   0  0  0  0  0  0  0  0  0  0  0  0
  188.2130  177.6590  141.7690 C   0  0  0  0  0  2  0  0  0  0  0  0
  193.4650  176.9040  144.9850 C   0  0  0  0  0  2  0  0  0  0  0  0
  195.2700  175.0120  145.7470 S   0  0  0  0  0  1  0  0  0  0  0  0
  194.1450  176.3520  146.2230 C   0  0  0  0  0  2  0  0  0  0  0  0
  1 29  1  6  0  0  0
  1  2  1  0  0  0  0
  3  5  2  0  0  0  0
  3  6  1  0  0  0  0
  4  6  1  0  0  0  0
  4  1  1  0  0  0  0
  6  7  1  0  0  0  0
  7  2  1  0  0  0  0
  7 16  1  6  0  0  0
  8 11  1  0  0  0  0
  9  3  1  0  0  0  0
 11  9  2  0  0  0  0
 11 10  1  0  0  0  0
 12 13  2  0  0  0  0
 13  9  1  0  0  0  0
 14 12  1  0  0  0  0
 14  8  2  0  0  0  0
 15 12  1  0  0  0  0
 17 16  1  1  0  0  0
 17 19  1  0  0  0  0
 18 26  1  6  0  0  0
 18 17  1  0  0  0  0
 18 20  1  0  0  0  0
 20 19  1  0  0  0  0
 21 27  2  0  0  0  0
 22 26  2  0  0  0  0
 23 26  1  0  0  0  0
 24 25  1  0  0  0  0
 25 23  1  0  0  0  0
 27 24  1  0  0  0  0
 27 28  1  0  0  0  0
 28 22  1  0  0  0  0
 29 31  1  0  0  0  0
 30 31  1  0  0  0  0
M  END
>  <MODEL>
3

>  <REMARK>
 VINA RESULT:      -7.1      3.091      4.904
  Name = 
  6 active torsions:
  status: ('A' for Active; 'I' for Inactive)
    1  A    between atoms: C_1  and  C_10
    2  A    between atoms: C_1  and  C_29
    3  A    between atoms: C_2  and  C_16
    4  A    between atoms: C_5  and  C_8
    5  A    between atoms: C_11  and  C_26
    6  A    between atoms: C_14  and  C_16
                            x       y       z     vdW  Elec       q    Type
                         _______ _______ _______ _____ _____    ______ ____

>  <TORSDO>
F 6

$$$$
=
 OpenBabel11042418553D

 31 34  0  0  1  0  0  0  0  0999 V2000
  190.3590  173.6730  144.0050 C   0  0  2  0  0  3  0  0  0  0  0  0
  191.3770  173.9150  145.0310 N   0  0  0  0  0  2  0  0  0  0  0  0
  189.2000  176.8960  145.5240 C   0  0  0  0  0  0  0  0  0  0  0  0
  189.2940  174.7400  144.1410 C   0  0  0  0  0  2  0  0  0  0  0  0
  189.8250  177.6710  146.3000 O   0  0  0  0  0  0  0  0  0  0  0  0
  189.8540  175.6960  145.0640 N   0  0  0  0  0  0  0  0  0  0  0  0
  191.1530  175.2640  145.5420 C   0  0  2  0  0  3  0  0  0  0  0  0
  185.4530  177.2800  145.5150 N   0  0  0  0  0  0  0  0  0  0  0  0
  187.8130  177.2470  145.1220 C   0  0  0  0  0  0  0  0  0  0  0  0
  186.8660  176.3860  147.2370 N   0  0  0  0  0  1  0  0  0  0  0  0
  186.7030  176.9660  145.9450 C   0  0  0  0  0  0  0  0  0  0  0  0
  186.2690  178.1320  143.4880 C   0  0  0  0  0  0  0  0  0  0  0  0
  187.5720  177.8320  143.8750 C   0  0  0  0  0  3  0  0  0  0  0  0
  185.2400  177.8440  144.3240 N   0  0  0  0  0  0  0  0  0  0  0  0
  186.0170  178.7310  142.2220 N   0  0  0  0  0  1  0  0  0  0  0  0
  192.2390  176.1950  145.0180 C   0  0  0  0  0  2  0  0  0  0  0  0
  193.5440  175.9570  145.7600 C   0  0  1  0  0  3  0  0  0  0  0  0
  194.7100  176.4110  144.9020 C   0  0  1  0  0  3  0  0  0  0  0  0
  193.8120  177.0980  146.7240 C   0  0  0  0  0  2  0  0  0  0  0  0
  194.9850  177.5460  145.8730 C   0  0  0  0  0  2  0  0  0  0  0  0
  197.1630  171.3890  145.1650 O   0  0  0  0  0  0  0  0  0  0  0  0
  195.8490  174.5120  145.9160 C   0  0  0  0  0  3  0  0  0  0  0  0
  196.8290  175.4040  143.9110 N   0  0  0  0  0  2  0  0  0  0  0  0
  197.5610  173.1150  143.6660 N   0  0  0  0  0  2  0  0  0  0  0  0
  196.9750  174.2760  143.0030 C   0  0  0  0  0  2  0  0  0  0  0  0
  195.8150  175.3970  144.9210 C   0  0  0  0  0  0  0  0  0  0  0  0
  197.1900  172.6290  144.9600 C   0  0  0  0  0  0  0  0  0  0  0  0
  196.9810  173.5560  146.1140 C   0  0  0  0  0  2  0  0  0  0  0  0
  189.7380  172.3010  144.1940 C   0  0  0  0  0  2  0  0  0  0  0  0
  190.1250  171.8980  141.5290 S   0  0  0  0  0  1  0  0  0  0  0  0
  188.9890  171.8900  142.9420 C   0  0  0  0  0  2  0  0  0  0  0  0
  1  4  1  0  0  0  0
  1 29  1  1  0  0  0
  1  2  1  0  0  0  0
  2  7  1  0  0  0  0
  3  5  2  0  0  0  0
  4  6  1  0  0  0  0
  6  3  1  0  0  0  0
  6  7  1  0  0  0  0
  7 16  1  6  0  0  0
  8 11  1  0  0  0  0
  9  3  1  0  0  0  0
  9 11  2  0  0  0  0
 11 10  1  0  0  0  0
 12 13  2  0  0  0  0
 12 14  1  0  0  0  0
 13  9  1  0  0  0  0
 14  8  2  0  0  0  0
 15 12  1  0  0  0  0
 17 16  1  6  0  0  0
 17 19  1  0  0  0  0
 18 26  1  1  0  0  0
 18 17  1  0  0  0  0
 18 20  1  0  0  0  0
 20 19  1  0  0  0  0
 22 28  1  0  0  0  0
 23 26  1  0  0  0  0
 24 27  1  0  0  0  0
 25 24  1  0  0  0  0
 25 23  1  0  0  0  0
 26 22  2  0  0  0  0
 27 21  2  0  0  0  0
 27 28  1  0  0  0  0
 30 31  1  0  0  0  0
 31 29  1  0  0  0  0
M  END
>  <MODEL>
4

>  <REMARK>
 VINA RESULT:      -7.0      2.194      8.684
  Name = 
  6 active torsions:
  status: ('A' for Active; 'I' for Inactive)
    1  A    between atoms: C_1  and  C_10
    2  A    between atoms: C_1  and  C_29
    3  A    between atoms: C_2  and  C_16
    4  A    between atoms: C_5  and  C_8
    5  A    between atoms: C_11  and  C_26
    6  A    between atoms: C_14  and  C_16
                            x       y       z     vdW  Elec       q    Type
                         _______ _______ _______ _____ _____    ______ ____

>  <TORSDO>
F 6

$$$$
=
 OpenBabel11042418553D

 31 34  0  0  1  0  0  0  0  0999 V2000
  187.7970  175.7250  141.5520 C   0  0  2  0  0  3  0  0  0  0  0  0
  188.5980  176.7490  142.2280 N   0  0  0  0  0  2  0  0  0  0  0  0
  191.0630  173.9630  142.0640 C   0  0  0  0  0  0  0  0  0  0  0  0
  188.6910  174.5350  141.2790 C   0  0  0  0  0  2  0  0  0  0  0  0
  192.0360  174.3020  142.7940 O   0  0  0  0  0  0  0  0  0  0  0  0
  189.8970  174.8090  142.0210 N   0  0  0  0  0  0  0  0  0  0  0  0
  189.8250  176.0990  142.6800 C   0  0  2  0  0  3  0  0  0  0  0  0
  191.5540  171.5420  139.2200 N   0  0  0  0  0  0  0  0  0  0  0  0
  191.1620  172.7090  141.2720 C   0  0  0  0  0  0  0  0  0  0  0  0
  191.8420  173.9250  139.2300 N   0  0  0  0  0  1  0  0  0  0  0  0
  191.5080  172.7150  139.9050 C   0  0  0  0  0  0  0  0  0  0  0  0
  190.9280  170.3100  141.1150 C   0  0  0  0  0  0  0  0  0  0  0  0
  190.8640  171.4790  141.8670 C   0  0  0  0  0  3  0  0  0  0  0  0
  191.2720  170.3750  139.8040 N   0  0  0  0  0  0  0  0  0  0  0  0
  190.6300  169.0540  141.7150 N   0  0  0  0  0  1  0  0  0  0  0  0
  189.7760  175.9130  144.1900 C   0  0  0  0  0  2  0  0  0  0  0  0
  189.2370  177.1660  144.8610 C   0  0  1  0  0  3  0  0  0  0  0  0
  188.0530  176.8070  145.7390 C   0  0  1  0  0  3  0  0  0  0  0  0
  190.0550  177.4880  146.0990 C   0  0  0  0  0  2  0  0  0  0  0  0
  188.8680  177.1400  146.9770 C   0  0  0  0  0  2  0  0  0  0  0  0
  183.3930  179.0170  143.5680 O   0  0  0  0  0  0  0  0  0  0  0  0
  186.6920  178.2440  144.3200 C   0  0  0  0  0  3  0  0  0  0  0  0
  186.1530  178.2300  146.6620 N   0  0  0  0  0  2  0  0  0  0  0  0
  183.9510  178.7270  145.8030 N   0  0  0  0  0  2  0  0  0  0  0  0
  184.7310  177.9280  146.7410 C   0  0  0  0  0  2  0  0  0  0  0  0
  186.9290  177.7810  145.5470 C   0  0  0  0  0  0  0  0  0  0  0  0
  184.3010  178.9720  144.4370 C   0  0  0  0  0  0  0  0  0  0  0  0
  185.6990  179.3250  144.0380 C   0  0  0  0  0  2  0  0  0  0  0  0
  187.2480  176.2650  140.2440 C   0  0  0  0  0  2  0  0  0  0  0  0
  185.1800  178.0200  140.4910 S   0  0  0  0  0  1  0  0  0  0  0  0
  186.9690  177.7500  140.3690 C   0  0  0  0  0  2  0  0  0  0  0  0
  1 29  1  6  0  0  0
  1  2  1  0  0  0  0
  2  7  1  0  0  0  0
  3  5  2  0  0  0  0
  4  1  1  0  0  0  0
  4  6  1  0  0  0  0
  6  3  1  0  0  0  0
  6  7  1  0  0  0  0
  7 16  1  1  0  0  0
  8 14  2  0  0  0  0
  8 11  1  0  0  0  0
  9 13  1  0  0  0  0
  9  3  1  0  0  0  0
 10 11  1  0  0  0  0
 11  9  2  0  0  0  0
 12 15  1  0  0  0  0
 12 13  2  0  0  0  0
 14 12  1  0  0  0  0
 17 16  1  1  0  0  0
 17 18  1  0  0  0  0
 17 19  1  0  0  0  0
 18 26  1  6  0  0  0
 18 20  1  0  0  0  0
 19 20  1  0  0  0  0
 21 27  2  0  0  0  0
 22 26  2  0  0  0  0
 23 25  1  0  0  0  0
 24 25  1  0  0  0  0
 26 23  1  0  0  0  0
 27 24  1  0  0  0  0
 28 22  1  0  0  0  0
 28 27  1  0  0  0  0
 29 31  1  0  0  0  0
 31 30  1  0  0  0  0
M  END
>  <MODEL>
5

>  <REMARK>
 VINA RESULT:      -7.0      3.665      4.454
  Name = 
  6 active torsions:
  status: ('A' for Active; 'I' for Inactive)
    1  A    between atoms: C_1  and  C_10
    2  A    between atoms: C_1  and  C_29
    3  A    between atoms: C_2  and  C_16
    4  A    between atoms: C_5  and  C_8
    5  A    between atoms: C_11  and  C_26
    6  A    between atoms: C_14  and  C_16
                            x       y       z     vdW  Elec       q    Type
                         _______ _______ _______ _____ _____    ______ ____

>  <TORSDO>
F 6

$$$$
=
 OpenBabel11042418553D

 31 34  0  0  1  0  0  0  0  0999 V2000
  189.6940  173.4340  143.8440 C   0  0  2  0  0  3  0  0  0  0  0  0
  189.3140  174.1560  142.6270 N   0  0  0  0  0  2  0  0  0  0  0  0
  192.6730  175.6290  143.2650 C   0  0  0  0  0  0  0  0  0  0  0  0
  191.1160  173.8160  144.1920 C   0  0  0  0  0  2  0  0  0  0  0  0
  192.7880  176.6130  142.4820 O   0  0  0  0  0  0  0  0  0  0  0  0
  191.4170  174.9240  143.3180 N   0  0  0  0  0  0  0  0  0  0  0  0
  190.3080  175.2070  142.4290 C   0  0  2  0  0  3  0  0  0  0  0  0
  195.0900  175.2870  146.1350 N   0  0  0  0  0  0  0  0  0  0  0  0
  193.8410  175.2320  144.0940 C   0  0  0  0  0  0  0  0  0  0  0  0
  192.9830  176.4350  146.0750 N   0  0  0  0  0  1  0  0  0  0  0  0
  193.9860  175.6540  145.4320 C   0  0  0  0  0  0  0  0  0  0  0  0
  195.9690  174.1070  144.3080 C   0  0  0  0  0  0  0  0  0  0  0  0
  194.8620  174.4530  143.5390 C   0  0  0  0  0  3  0  0  0  0  0  0
  196.0530  174.5380  145.5920 N   0  0  0  0  0  0  0  0  0  0  0  0
  197.0090  173.3130  143.7510 N   0  0  0  0  0  1  0  0  0  0  0  0
  189.6950  176.5580  142.7710 C   0  0  0  0  0  2  0  0  0  0  0  0
  188.1790  176.4880  142.6920 C   0  0  1  0  0  3  0  0  0  0  0  0
  187.5850  177.8440  143.0270 C   0  0  1  0  0  3  0  0  0  0  0  0
  187.7230  176.6470  141.2530 C   0  0  0  0  0  2  0  0  0  0  0  0
  187.1200  177.9970  141.5890 C   0  0  0  0  0  2  0  0  0  0  0  0
  184.6280  178.2950  147.7560 O   0  0  0  0  0  0  0  0  0  0  0  0
  186.6360  177.1600  145.1630 C   0  0  0  0  0  3  0  0  0  0  0  0
  185.1110  178.1110  143.5680 N   0  0  0  0  0  2  0  0  0  0  0  0
  183.9690  178.7880  145.5850 N   0  0  0  0  0  2  0  0  0  0  0  0
  184.4320  179.1950  144.2630 C   0  0  0  0  0  2  0  0  0  0  0  0
  186.4240  177.7030  143.9650 C   0  0  0  0  0  0  0  0  0  0  0  0
  184.7310  178.0310  146.5310 C   0  0  0  0  0  0  0  0  0  0  0  0
  185.5310  176.8370  146.1150 C   0  0  0  0  0  2  0  0  0  0  0  0
  189.6070  171.9350  143.6160 C   0  0  0  0  0  2  0  0  0  0  0  0
  190.8290  170.4660  141.6760 S   0  0  0  0  0  1  0  0  0  0  0  0
  190.9670  171.3860  143.2320 C   0  0  0  0  0  2  0  0  0  0  0  0
  1 29  1  6  0  0  0
  1  4  1  0  0  0  0
  2  1  1  0  0  0  0
  3  6  1  0  0  0  0
  3  9  1  0  0  0  0
  5  3  2  0  0  0  0
  6  4  1  0  0  0  0
  7  2  1  0  0  0  0
  7 16  1  1  0  0  0
  7  6  1  0  0  0  0
  9 11  1  0  0  0  0
 11 10  1  0  0  0  0
 11  8  2  0  0  0  0
 12 14  2  0  0  0  0
 13  9  2  0  0  0  0
 13 12  1  0  0  0  0
 14  8  1  0  0  0  0
 15 12  1  0  0  0  0
 17 16  1  6  0  0  0
 17 18  1  0  0  0  0
 18 26  1  1  0  0  0
 19 20  1  0  0  0  0
 19 17  1  0  0  0  0
 20 18  1  0  0  0  0
 22 28  1  0  0  0  0
 23 26  1  0  0  0  0
 23 25  1  0  0  0  0
 24 27  1  0  0  0  0
 25 24  1  0  0  0  0
 26 22  2  0  0  0  0
 27 21  2  0  0  0  0
 28 27  1  0  0  0  0
 30 31  1  0  0  0  0
 31 29  1  0  0  0  0
M  END
>  <MODEL>
6

>  <REMARK>
 VINA RESULT:      -6.9      2.306      3.065
  Name = 
  6 active torsions:
  status: ('A' for Active; 'I' for Inactive)
    1  A    between atoms: C_1  and  C_10
    2  A    between atoms: C_1  and  C_29
    3  A    between atoms: C_2  and  C_16
    4  A    between atoms: C_5  and  C_8
    5  A    between atoms: C_11  and  C_26
    6  A    between atoms: C_14  and  C_16
                            x       y       z     vdW  Elec       q    Type
                         _______ _______ _______ _____ _____    ______ ____

>  <TORSDO>
F 6

$$$$
=
 OpenBabel11042418553D

 31 34  0  0  1  0  0  0  0  0999 V2000
  186.5610  176.6010  146.6690 C   0  0  2  0  0  3  0  0  0  0  0  0
  187.2390  177.7910  147.1910 N   0  0  0  0  0  2  0  0  0  0  0  0
  189.0350  177.3550  143.9590 C   0  0  0  0  0  0  0  0  0  0  0  0
  187.0820  176.3400  145.2730 C   0  0  0  0  0  2  0  0  0  0  0  0
  190.0220  178.1410  143.9890 O   0  0  0  0  0  0  0  0  0  0  0  0
  188.2100  177.2280  145.1340 N   0  0  0  0  0  0  0  0  0  0  0  0
  188.3810  178.0470  146.3190 C   0  0  2  0  0  3  0  0  0  0  0  0
  187.5730  176.3010  140.6500 N   0  0  0  0  0  0  0  0  0  0  0  0
  188.7560  176.6000  142.7090 C   0  0  0  0  0  0  0  0  0  0  0  0
  187.1230  178.2830  141.9280 N   0  0  0  0  0  1  0  0  0  0  0  0
  187.8120  177.0470  141.7620 C   0  0  0  0  0  0  0  0  0  0  0  0
  189.1180  174.6640  141.3110 C   0  0  0  0  0  0  0  0  0  0  0  0
  189.4030  175.3840  142.4660 C   0  0  0  0  0  3  0  0  0  0  0  0
  188.2040  175.1450  140.4300 N   0  0  0  0  0  0  0  0  0  0  0  0
  189.7750  173.4280  141.0550 N   0  0  0  0  0  1  0  0  0  0  0  0
  189.6670  177.6640  147.0380 C   0  0  0  0  0  2  0  0  0  0  0  0
  190.1900  176.3350  146.5190 C   0  0  1  0  0  3  0  0  0  0  0  0
  191.6760  176.2220  146.8060 C   0  0  1  0  0  3  0  0  0  0  0  0
  189.9140  175.2350  147.5290 C   0  0  0  0  0  2  0  0  0  0  0  0
  191.4000  175.1140  147.8080 C   0  0  0  0  0  2  0  0  0  0  0  0
  195.6190  175.9300  142.8470 O   0  0  0  0  0  0  0  0  0  0  0  0
  192.7040  176.5530  144.6240 C   0  0  0  0  0  3  0  0  0  0  0  0
  192.7700  174.3210  145.5130 N   0  0  0  0  0  2  0  0  0  0  0  0
  194.7890  174.2270  144.1900 N   0  0  0  0  0  2  0  0  0  0  0  0
  194.1680  173.9190  145.4740 C   0  0  0  0  0  2  0  0  0  0  0  0
  192.4150  175.7040  145.6090 C   0  0  0  0  0  0  0  0  0  0  0  0
  194.6360  175.4570  143.4730 C   0  0  0  0  0  0  0  0  0  0  0  0
  193.3020  176.1170  143.3250 C   0  0  0  0  0  2  0  0  0  0  0  0
  185.0610  176.8290  146.6230 C   0  0  0  0  0  2  0  0  0  0  0  0
  184.2950  178.8840  145.0090 S   0  0  0  0  0  1  0  0  0  0  0  0
  184.7560  178.3130  146.6670 C   0  0  0  0  0  2  0  0  0  0  0  0
  1 29  1  6  0  0  0
  1  2  1  0  0  0  0
  3  5  2  0  0  0  0
  3  6  1  0  0  0  0
  4  1  1  0  0  0  0
  6  4  1  0  0  0  0
  6  7  1  0  0  0  0
  7 16  1  1  0  0  0
  7  2  1  0  0  0  0
  8 11  1  0  0  0  0
  9  3  1  0  0  0  0
 11 10  1  0  0  0  0
 11  9  2  0  0  0  0
 12 13  2  0  0  0  0
 13  9  1  0  0  0  0
 14  8  2  0  0  0  0
 14 12  1  0  0  0  0
 15 12  1  0  0  0  0
 17 18  1  0  0  0  0
 17 16  1  1  0  0  0
 17 19  1  0  0  0  0
 18 26  1  6  0  0  0
 18 20  1  0  0  0  0
 19 20  1  0  0  0  0
 21 27  2  0  0  0  0
 22 26  2  0  0  0  0
 23 26  1  0  0  0  0
 24 25  1  0  0  0  0
 25 23  1  0  0  0  0
 27 24  1  0  0  0  0
 28 27  1  0  0  0  0
 28 22  1  0  0  0  0
 29 31  1  0  0  0  0
 30 31  1  0  0  0  0
M  END
>  <MODEL>
7

>  <REMARK>
 VINA RESULT:      -6.9      2.804      7.334
  Name = 
  6 active torsions:
  status: ('A' for Active; 'I' for Inactive)
    1  A    between atoms: C_1  and  C_10
    2  A    between atoms: C_1  and  C_29
    3  A    between atoms: C_2  and  C_16
    4  A    between atoms: C_5  and  C_8
    5  A    between atoms: C_11  and  C_26
    6  A    between atoms: C_14  and  C_16
                            x       y       z     vdW  Elec       q    Type
                         _______ _______ _______ _____ _____    ______ ____

>  <TORSDO>
F 6

$$$$
=
 OpenBabel11042418553D

 31 34  0  0  1  0  0  0  0  0999 V2000
  193.6900  176.2100  144.0640 C   0  0  2  0  0  3  0  0  0  0  0  0
  192.7790  176.7820  145.0600 N   0  0  0  0  0  2  0  0  0  0  0  0
  190.7980  173.8320  143.9490 C   0  0  0  0  0  0  0  0  0  0  0  0
  193.0970  174.9040  143.5830 C   0  0  0  0  0  2  0  0  0  0  0  0
  189.6440  173.9690  144.4410 O   0  0  0  0  0  0  0  0  0  0  0  0
  191.7600  174.8900  144.1240 N   0  0  0  0  0  0  0  0  0  0  0  0
  191.5150  176.0620  144.9420 C   0  0  2  0  0  3  0  0  0  0  0  0
  191.0560  171.2120  141.2530 N   0  0  0  0  0  0  0  0  0  0  0  0
  191.1220  172.5790  143.2160 C   0  0  0  0  0  0  0  0  0  0  0  0
  190.1230  173.4200  141.1170 N   0  0  0  0  0  1  0  0  0  0  0  0
  190.7620  172.3900  141.8660 C   0  0  0  0  0  0  0  0  0  0  0  0
  192.0360  170.3430  143.1990 C   0  0  0  0  0  0  0  0  0  0  0  0
  191.7610  171.5260  143.8780 C   0  0  0  0  0  3  0  0  0  0  0  0
  191.6720  170.2190  141.8980 N   0  0  0  0  0  0  0  0  0  0  0  0
  192.6900  169.2690  143.8650 N   0  0  0  0  0  1  0  0  0  0  0  0
  190.4780  176.9570  144.2770 C   0  0  0  0  0  2  0  0  0  0  0  0
  189.5360  177.5410  145.3170 C   0  0  1  0  0  3  0  0  0  0  0  0
  188.2240  176.7780  145.3050 C   0  0  1  0  0  3  0  0  0  0  0  0
  189.8530  176.9690  146.6870 C   0  0  0  0  0  2  0  0  0  0  0  0
  188.5360  176.2150  146.6800 C   0  0  0  0  0  2  0  0  0  0  0  0
  183.3140  179.0560  143.8870 O   0  0  0  0  0  0  0  0  0  0  0  0
  186.6910  178.3340  144.2280 C   0  0  0  0  0  3  0  0  0  0  0  0
  186.3750  177.9740  146.5830 N   0  0  0  0  0  2  0  0  0  0  0  0
  184.0880  178.4870  146.0010 N   0  0  0  0  0  2  0  0  0  0  0  0
  184.9780  177.6020  146.7450 C   0  0  0  0  0  2  0  0  0  0  0  0
  187.0570  177.7180  145.3510 C   0  0  0  0  0  0  0  0  0  0  0  0
  184.3010  178.9330  144.6570 C   0  0  0  0  0  0  0  0  0  0  0  0
  185.6430  179.3990  144.1900 C   0  0  0  0  0  2  0  0  0  0  0  0
  195.0530  175.9590  144.6820 C   0  0  0  0  0  2  0  0  0  0  0  0
  196.9910  174.1650  145.3470 S   0  0  0  0  0  1  0  0  0  0  0  0
  195.5220  174.5540  144.3580 C   0  0  0  0  0  2  0  0  0  0  0  0
  1 29  1  1  0  0  0
  1  2  1  0  0  0  0
  3  6  1  0  0  0  0
  3  5  2  0  0  0  0
  4  1  1  0  0  0  0
  4  6  1  0  0  0  0
  6  7  1  0  0  0  0
  7 16  1  6  0  0  0
  7  2  1  0  0  0  0
  8 11  2  0  0  0  0
  8 14  1  0  0  0  0
  9 13  2  0  0  0  0
  9  3  1  0  0  0  0
 10 11  1  0  0  0  0
 11  9  1  0  0  0  0
 12 15  1  0  0  0  0
 12 13  1  0  0  0  0
 14 12  2  0  0  0  0
 17 16  1  6  0  0  0
 17 19  1  0  0  0  0
 18 17  1  0  0  0  0
 18 26  1  1  0  0  0
 18 20  1  0  0  0  0
 20 19  1  0  0  0  0
 21 27  2  0  0  0  0
 22 26  2  0  0  0  0
 23 25  1  0  0  0  0
 24 25  1  0  0  0  0
 26 23  1  0  0  0  0
 27 24  1  0  0  0  0
 28 22  1  0  0  0  0
 28 27  1  0  0  0  0
 31 29  1  0  0  0  0
 31 30  1  0  0  0  0
M  END
>  <MODEL>
8

>  <REMARK>
 VINA RESULT:      -6.8      2.965      4.423
  Name = 
  6 active torsions:
  status: ('A' for Active; 'I' for Inactive)
    1  A    between atoms: C_1  and  C_10
    2  A    between atoms: C_1  and  C_29
    3  A    between atoms: C_2  and  C_16
    4  A    between atoms: C_5  and  C_8
    5  A    between atoms: C_11  and  C_26
    6  A    between atoms: C_14  and  C_16
                            x       y       z     vdW  Elec       q    Type
                         _______ _______ _______ _____ _____    ______ ____

>  <TORSDO>
F 6

$$$$
=
 OpenBabel11042418553D

 31 34  0  0  1  0  0  0  0  0999 V2000
  190.2250  174.2940  143.9350 C   0  0  2  0  0  3  0  0  0  0  0  0
  191.0850  174.2530  145.1200 N   0  0  0  0  0  2  0  0  0  0  0  0
  188.7080  176.9450  146.1040 C   0  0  0  0  0  0  0  0  0  0  0  0
  189.0970  175.2650  144.2070 C   0  0  0  0  0  2  0  0  0  0  0  0
  189.1830  177.4800  147.1440 O   0  0  0  0  0  0  0  0  0  0  0  0
  189.4790  175.9320  145.4280 N   0  0  0  0  0  0  0  0  0  0  0  0
  190.7250  175.4020  145.9470 C   0  0  2  0  0  3  0  0  0  0  0  0
  184.9910  177.5080  145.8570 N   0  0  0  0  0  0  0  0  0  0  0  0
  187.3690  177.3750  145.6220 C   0  0  0  0  0  0  0  0  0  0  0  0
  186.2410  176.4900  147.6360 N   0  0  0  0  0  1  0  0  0  0  0  0
  186.1930  177.1200  146.3580 C   0  0  0  0  0  0  0  0  0  0  0  0
  185.9830  178.3880  143.9220 C   0  0  0  0  0  0  0  0  0  0  0  0
  187.2410  178.0130  144.3840 C   0  0  0  0  0  3  0  0  0  0  0  0
  184.8870  178.1210  144.6760 N   0  0  0  0  0  0  0  0  0  0  0  0
  185.8470  179.0400  142.6650 N   0  0  0  0  0  1  0  0  0  0  0  0
  191.8190  176.4570  145.8580 C   0  0  0  0  0  2  0  0  0  0  0  0
  193.1340  175.8220  145.4340 C   0  0  1  0  0  3  0  0  0  0  0  0
  193.8900  176.7720  144.5220 C   0  0  1  0  0  3  0  0  0  0  0  0
  194.1830  176.0260  146.5120 C   0  0  0  0  0  2  0  0  0  0  0  0
  194.9450  176.9660  145.5970 C   0  0  0  0  0  2  0  0  0  0  0  0
  194.3340  175.0270  139.2240 O   0  0  0  0  0  0  0  0  0  0  0  0
  193.6240  175.2850  142.6120 C   0  0  0  0  0  3  0  0  0  0  0  0
  195.8360  176.1360  143.0090 N   0  0  0  0  0  2  0  0  0  0  0  0
  195.9920  175.8700  140.6130 N   0  0  0  0  0  2  0  0  0  0  0  0
  196.2620  176.7380  141.7540 C   0  0  0  0  0  2  0  0  0  0  0  0
  194.4460  176.0440  143.3350 C   0  0  0  0  0  0  0  0  0  0  0  0
  194.7770  175.1470  140.3950 C   0  0  0  0  0  0  0  0  0  0  0  0
  194.0990  174.4030  141.5020 C   0  0  0  0  0  2  0  0  0  0  0  0
  189.6580  172.9160  143.6490 C   0  0  0  0  0  2  0  0  0  0  0  0
  189.7330  173.2330  140.9450 S   0  0  0  0  0  1  0  0  0  0  0  0
  188.7430  172.9680  142.4410 C   0  0  0  0  0  2  0  0  0  0  0  0
  1 29  1  1  0  0  0
  1  4  1  0  0  0  0
  1  2  1  0  0  0  0
  2  7  1  0  0  0  0
  3  5  2  0  0  0  0
  4  6  1  0  0  0  0
  6  7  1  0  0  0  0
  6  3  1  0  0  0  0
  7 16  1  6  0  0  0
  8 11  1  0  0  0  0
  9  3  1  0  0  0  0
  9 11  2  0  0  0  0
 11 10  1  0  0  0  0
 12 13  2  0  0  0  0
 12 14  1  0  0  0  0
 13  9  1  0  0  0  0
 14  8  2  0  0  0  0
 15 12  1  0  0  0  0
 17 16  1  1  0  0  0
 17 19  1  0  0  0  0
 18 26  1  6  0  0  0
 18 17  1  0  0  0  0
 18 20  1  0  0  0  0
 20 19  1  0  0  0  0
 21 27  2  0  0  0  0
 22 26  2  0  0  0  0
 23 26  1  0  0  0  0
 24 25  1  0  0  0  0
 25 23  1  0  0  0  0
 27 24  1  0  0  0  0
 27 28  1  0  0  0  0
 28 22  1  0  0  0  0
 30 31  1  0  0  0  0
 31 29  1  0  0  0  0
M  END
>  <MODEL>
9

>  <REMARK>
 VINA RESULT:      -6.7      2.354      7.998
  Name = 
  6 active torsions:
  status: ('A' for Active; 'I' for Inactive)
    1  A    between atoms: C_1  and  C_10
    2  A    between atoms: C_1  and  C_29
    3  A    between atoms: C_2  and  C_16
    4  A    between atoms: C_5  and  C_8
    5  A    between atoms: C_11  and  C_26
    6  A    between atoms: C_14  and  C_16
                            x       y       z     vdW  Elec       q    Type
                         _______ _______ _______ _____ _____    ______ ____

>  <TORSDO>
F 6

$$$$
