=
 OpenBabel11042417233D

 56 62  0  0  1  0  0  0  0  0999 V2000
  189.1130  175.1870  143.3040 C   0  0  1  0  0  0  0  0  0  0  0  0
  190.2900  174.7600  144.2420 C   0  0  0  0  0  2  0  0  0  0  0  0
  185.4750  179.1550  143.9970 N   0  0  0  0  0  2  0  0  0  0  0  0
  190.2930  175.5750  145.4460 C   0  0  0  0  0  0  0  0  0  0  0  0
  188.3110  176.1510  144.2460 C   0  0  0  0  0  0  0  0  0  0  0  0
  188.8290  177.1860  146.3960 C   0  0  0  0  0  3  0  0  0  0  0  0
  185.1660  178.0570  143.0670 N   0  0  0  0  0  0  0  0  0  0  0  0
  185.6770  179.5650  146.2950 O   0  0  0  0  0  0  0  0  0  0  0  0
  191.2980  175.7230  146.2960 C   0  0  0  0  0  3  0  0  0  0  0  0
  186.9010  177.7560  145.2510 C   0  0  0  0  0  0  0  0  0  0  0  0
  189.7820  176.0150  142.2130 C   0  0  0  0  0  1  0  0  0  0  0  0
  187.0670  176.8340  144.1810 C   0  0  0  0  0  0  0  0  0  0  0  0
  189.0960  176.2790  145.4170 C   0  0  0  0  0  0  0  0  0  0  0  0
  186.0680  176.8420  143.0680 C   0  0  0  0  0  2  0  0  0  0  0  0
  185.9590  178.9110  145.2720 C   0  0  0  0  0  0  0  0  0  0  0  0
  187.7540  177.9460  146.2460 C   0  0  0  0  0  3  0  0  0  0  0  0
  191.1510  172.1380  142.5980 C   0  0  1  0  0  3  0  0  0  0  0  0
  188.3230  173.4380  141.2630 C   0  0  0  0  0  2  0  0  0  0  0  0
  190.6580  172.6560  139.4000 C   0  0  0  0  0  2  0  0  0  0  0  0
  188.6310  174.1500  138.8210 C   0  0  0  0  0  3  0  0  0  0  0  0
  188.2890  174.6320  140.2260 C   0  0  0  0  0  2  0  0  0  0  0  0
  189.6790  172.5060  143.1010 C   0  0  0  0  0  0  0  0  0  0  0  0
  189.6690  173.3290  138.4740 C   0  0  0  0  0  3  0  0  0  0  0  0
  192.0030  173.0170  141.6080 C   0  0  0  0  0  2  0  0  0  0  0  0
  191.2370  173.7100  140.4380 C   0  0  0  0  0  2  0  0  0  0  0  0
  188.7280  173.7490  142.7620 C   0  0  1  0  0  3  0  0  0  0  0  0
  189.1370  171.6990  143.8810 O   0  0  0  0  0  0  0  0  0  0  0  0
  192.1340  171.7030  143.7370 C   0  0  0  0  0  2  0  0  0  0  0  0
  192.4980  170.2440  143.5200 C   0  0  0  0  0  2  0  0  0  0  0  0
  193.8740  169.9700  142.9750 C   0  0  0  0  0  1  0  0  0  0  0  0
  183.7930  177.8200  140.9950 C   0  0  0  0  0  3  0  0  0  0  0  0
  181.6810  178.9610  142.5190 C   0  0  0  0  0  3  0  0  0  0  0  0
  181.5040  178.7430  141.1720 C   0  0  0  0  0  0  0  0  0  0  0  0
  182.5490  178.1340  140.4290 C   0  0  0  0  0  3  0  0  0  0  0  0
  182.9070  178.6420  143.0900 C   0  0  0  0  0  3  0  0  0  0  0  0
  183.9710  178.1330  142.3690 C   0  0  0  0  0  0  0  0  0  0  0  0
  180.3240  179.3070  140.4450 C   0  0  0  0  0  2  0  0  0  0  0  0
  178.6430  178.1030  139.1920 O   0  0  0  0  0  1  0  0  0  0  0  0
  177.9150  178.3720  141.7070 C   0  0  0  0  0  1  0  0  0  0  0  0
  179.1010  178.2360  140.4830 C   0  0  2  0  0  3  0  0  0  0  0  0
  193.7240  175.6530  146.2740 C   0  0  1  0  0  3  0  0  0  0  0  0
  193.2390  175.6290  144.9530 O   0  0  0  0  0  0  0  0  0  0  0  0
  192.4890  174.9340  146.0460 C   0  0  2  0  0  3  0  0  0  0  0  0
  194.9020  174.7980  146.3950 C   0  0  0  0  0  2  0  0  0  0  0  0
  195.4590  174.0840  145.1400 C   0  0  2  0  0  3  0  0  0  0  0  0
  196.4680  171.9960  145.7700 O   0  0  0  0  0  1  0  0  0  0  0  0
  195.2710  172.5390  145.3790 C   0  0  0  0  0  2  0  0  0  0  0  0
  196.8850  174.5840  144.9860 C   0  0  0  0  0  2  0  0  0  0  0  0
  197.0500  174.0580  142.5100 C   0  0  2  0  0  3  0  0  0  0  0  0
  195.5150  176.2740  142.2710 C   0  0  0  0  0  2  0  0  0  0  0  0
  196.9330  174.5830  141.0660 C   0  0  0  0  0  2  0  0  0  0  0  0
  196.1690  176.2260  143.5110 O   0  0  0  0  0  0  0  0  0  0  0  0
  196.4520  176.0050  141.0920 C   0  0  0  0  0  2  0  0  0  0  0  0
  197.0600  175.1210  143.6190 C   0  0  1  0  0  3  0  0  0  0  0  0
  197.7670  172.8730  142.7440 O   0  0  0  0  0  0  0  0  0  0  0  0
  197.0240  171.8740  142.0920 C   0  0  0  0  0  1  0  0  0  0  0  0
  1 11  1  6  0  0  0
  1  2  1  0  0  0  0
  1  5  1  0  0  0  0
  2  4  1  0  0  0  0
  3 15  1  0  0  0  0
  4  9  2  0  0  0  0
  5 13  1  0  0  0  0
  7 14  1  0  0  0  0
  7  3  1  0  0  0  0
 10 15  1  0  0  0  0
 10 16  2  0  0  0  0
 12  5  2  0  0  0  0
 12 10  1  0  0  0  0
 13  4  1  0  0  0  0
 13  6  2  0  0  0  0
 14 12  1  0  0  0  0
 15  8  2  0  0  0  0
 16  6  1  0  0  0  0
 17 22  1  0  0  0  0
 17 28  1  1  0  0  0
 19 25  1  0  0  0  0
 20 21  1  0  0  0  0
 21 18  1  0  0  0  0
 22 27  2  0  0  0  0
 23 20  2  0  0  0  0
 23 19  1  0  0  0  0
 24 17  1  0  0  0  0
 25 24  1  0  0  0  0
 26 18  1  6  0  0  0
 26 22  1  0  0  0  0
 26  1  1  0  0  0  0
 29 28  1  0  0  0  0
 30 29  1  0  0  0  0
 31 36  1  0  0  0  0
 32 35  1  0  0  0  0
 33 32  2  0  0  0  0
 34 31  2  0  0  0  0
 34 33  1  0  0  0  0
 36  7  1  0  0  0  0
 36 35  2  0  0  0  0
 37 40  1  0  0  0  0
 37 33  1  0  0  0  0
 38 40  1  0  0  0  0
 40 39  1  1  0  0  0
 41 44  1  6  0  0  0
 42 43  1  0  0  0  0
 42 41  1  0  0  0  0
 43 41  1  0  0  0  0
 43  9  1  1  0  0  0
 45 48  1  1  0  0  0
 45 47  1  0  0  0  0
 45 44  1  0  0  0  0
 47 46  1  0  0  0  0
 49 55  1  6  0  0  0
 49 54  1  0  0  0  0
 50 52  1  0  0  0  0
 51 53  1  0  0  0  0
 51 49  1  0  0  0  0
 52 54  1  0  0  0  0
 53 50  1  0  0  0  0
 54 48  1  1  0  0  0
 56 55  1  0  0  0  0
M  END
>  <MODEL>
1

>  <REMARK>
 VINA RESULT:      -8.1      0.000      0.000
  Name = 
  13 active torsions:
  status: ('A' for Active; 'I' for Inactive)
    1  A    between atoms: C_1  and  O_45
    2  A    between atoms: C_2  and  C_47
    3  A    between atoms: C_3  and  C_31
    4  A    between atoms: C_5  and  C_31
    5  A    between atoms: C_7  and  C_30
    6  A    between atoms: C_18  and  C_37
    7  A    between atoms: C_19  and  C_36
    8  A    between atoms: C_19  and  C_39
    9  A    between atoms: C_23  and  C_32
   10  A    between atoms: C_23  and  C_56
   11  A    between atoms: N_28  and  C_44
   12  A    between atoms: C_30  and  C_32
   13  A    between atoms: C_32  and  C_46
                            x       y       z     vdW  Elec       q    Type
                         _______ _______ _______ _____ _____    ______ ____

>  <TORSDO>
F 13

$$$$
=
 OpenBabel11042417233D

 56 62  0  0  1  0  0  0  0  0999 V2000
  189.0260  174.9050  143.0500 C   0  0  1  0  0  0  0  0  0  0  0  0
  190.1780  174.2810  143.9040 C   0  0  0  0  0  2  0  0  0  0  0  0
  185.7710  179.0770  144.2570 N   0  0  0  0  0  2  0  0  0  0  0  0
  190.2780  174.9600  145.1850 C   0  0  0  0  0  0  0  0  0  0  0  0
  188.3320  175.8300  144.1100 C   0  0  0  0  0  0  0  0  0  0  0  0
  188.9830  176.5820  146.3400 C   0  0  0  0  0  3  0  0  0  0  0  0
  185.3470  178.1160  143.2270 N   0  0  0  0  0  0  0  0  0  0  0  0
  186.0540  179.2220  146.5790 O   0  0  0  0  0  0  0  0  0  0  0  0
  191.3090  174.9290  146.0170 C   0  0  0  0  0  3  0  0  0  0  0  0
  187.0910  177.4360  145.3170 C   0  0  0  0  0  0  0  0  0  0  0  0
  189.7450  175.7840  142.0320 C   0  0  0  0  0  1  0  0  0  0  0  0
  187.1530  176.6210  144.1530 C   0  0  0  0  0  0  0  0  0  0  0  0
  189.1480  175.7650  145.2650 C   0  0  0  0  0  0  0  0  0  0  0  0
  186.1370  176.8340  143.0750 C   0  0  0  0  0  2  0  0  0  0  0  0
  186.2570  178.6580  145.4850 C   0  0  0  0  0  0  0  0  0  0  0  0
  187.9760  177.4440  146.3010 C   0  0  0  0  0  3  0  0  0  0  0  0
  190.7750  171.7960  141.9440 C   0  0  1  0  0  3  0  0  0  0  0  0
  188.0300  173.4620  140.8650 C   0  0  0  0  0  2  0  0  0  0  0  0
  190.2330  172.7010  138.8410 C   0  0  0  0  0  2  0  0  0  0  0  0
  188.3260  174.4100  138.5030 C   0  0  0  0  0  3  0  0  0  0  0  0
  188.0680  174.7610  139.9630 C   0  0  0  0  0  2  0  0  0  0  0  0
  189.3540  172.2260  142.5400 C   0  0  0  0  0  0  0  0  0  0  0  0
  189.2790  173.5500  138.0310 C   0  0  0  0  0  3  0  0  0  0  0  0
  191.6690  172.7060  141.0220 C   0  0  0  0  0  2  0  0  0  0  0  0
  190.9310  173.5830  139.9620 C   0  0  0  0  0  2  0  0  0  0  0  0
  188.5040  173.5730  142.3720 C   0  0  1  0  0  3  0  0  0  0  0  0
  188.7690  171.3850  143.2490 O   0  0  0  0  0  0  0  0  0  0  0  0
  191.7500  171.1590  142.9910 C   0  0  0  0  0  2  0  0  0  0  0  0
  191.9910  169.7120  142.5980 C   0  0  0  0  0  2  0  0  0  0  0  0
  191.0470  169.1260  141.5840 C   0  0  0  0  0  1  0  0  0  0  0  0
  182.9450  178.7990  143.1950 C   0  0  0  0  0  3  0  0  0  0  0  0
  183.0050  178.1020  140.4390 C   0  0  0  0  0  3  0  0  0  0  0  0
  181.8070  178.4380  141.0280 C   0  0  0  0  0  0  0  0  0  0  0  0
  181.7950  178.8260  142.3930 C   0  0  0  0  0  3  0  0  0  0  0  0
  184.1510  178.0840  141.2240 C   0  0  0  0  0  3  0  0  0  0  0  0
  184.1500  178.3690  142.5760 C   0  0  0  0  0  0  0  0  0  0  0  0
  180.5070  178.2170  140.3210 C   0  0  0  0  0  2  0  0  0  0  0  0
  178.2000  178.8000  140.7490 O   0  0  0  0  0  1  0  0  0  0  0  0
  179.5830  180.9280  140.0540 C   0  0  0  0  0  1  0  0  0  0  0  0
  179.4500  179.3740  140.7560 C   0  0  2  0  0  3  0  0  0  0  0  0
  193.7160  174.6860  145.8320 C   0  0  1  0  0  3  0  0  0  0  0  0
  193.1500  174.7670  144.5460 O   0  0  0  0  0  0  0  0  0  0  0  0
  192.4190  174.0700  145.6510 C   0  0  2  0  0  3  0  0  0  0  0  0
  194.8330  173.7440  145.8340 C   0  0  0  0  0  2  0  0  0  0  0  0
  196.2820  174.2790  145.7410 C   0  0  2  0  0  3  0  0  0  0  0  0
  197.4980  175.2370  143.9030 O   0  0  0  0  0  1  0  0  0  0  0  0
  196.3020  175.3280  144.5670 C   0  0  0  0  0  2  0  0  0  0  0  0
  197.1590  173.0500  145.5750 C   0  0  0  0  0  2  0  0  0  0  0  0
  196.4470  171.3650  143.8180 C   0  0  2  0  0  3  0  0  0  0  0  0
  196.5520  169.6400  145.9010 C   0  0  0  0  0  2  0  0  0  0  0  0
  195.8060  169.9940  143.5260 C   0  0  0  0  0  2  0  0  0  0  0  0
  196.4610  170.9710  146.3320 O   0  0  0  0  0  0  0  0  0  0  0  0
  195.5250  169.2900  144.8220 C   0  0  0  0  0  2  0  0  0  0  0  0
  196.3010  171.8880  145.2540 C   0  0  1  0  0  3  0  0  0  0  0  0
  196.5090  172.3170  142.7870 O   0  0  0  0  0  0  0  0  0  0  0  0
  195.1810  172.4530  142.3500 C   0  0  0  0  0  1  0  0  0  0  0  0
  1 11  1  6  0  0  0
  1  2  1  0  0  0  0
  1  5  1  0  0  0  0
  2  4  1  0  0  0  0
  3 15  1  0  0  0  0
  4 13  1  0  0  0  0
  4  9  2  0  0  0  0
  5 12  2  0  0  0  0
  5 13  1  0  0  0  0
  7  3  1  0  0  0  0
 10 15  1  0  0  0  0
 10 16  2  0  0  0  0
 12 10  1  0  0  0  0
 13  6  2  0  0  0  0
 14  7  1  0  0  0  0
 14 12  1  0  0  0  0
 15  8  2  0  0  0  0
 16  6  1  0  0  0  0
 17 22  1  0  0  0  0
 17 28  1  1  0  0  0
 19 25  1  0  0  0  0
 20 21  1  0  0  0  0
 21 18  1  0  0  0  0
 22 27  2  0  0  0  0
 23 20  2  0  0  0  0
 23 19  1  0  0  0  0
 24 17  1  0  0  0  0
 25 24  1  0  0  0  0
 26 18  1  6  0  0  0
 26 22  1  0  0  0  0
 26  1  1  0  0  0  0
 29 28  1  0  0  0  0
 30 29  1  0  0  0  0
 32 33  2  0  0  0  0
 32 35  1  0  0  0  0
 33 34  1  0  0  0  0
 34 31  2  0  0  0  0
 35 36  2  0  0  0  0
 36 31  1  0  0  0  0
 36  7  1  0  0  0  0
 37 40  1  0  0  0  0
 37 33  1  0  0  0  0
 38 40  1  0  0  0  0
 40 39  1  6  0  0  0
 41 44  1  6  0  0  0
 42 43  1  0  0  0  0
 42 41  1  0  0  0  0
 43 41  1  0  0  0  0
 43  9  1  1  0  0  0
 45 47  1  6  0  0  0
 45 44  1  0  0  0  0
 46 47  1  0  0  0  0
 48 45  1  0  0  0  0
 49 55  1  6  0  0  0
 49 54  1  0  0  0  0
 50 52  1  0  0  0  0
 51 49  1  0  0  0  0
 51 53  1  0  0  0  0
 53 50  1  0  0  0  0
 54 48  1  1  0  0  0
 54 52  1  0  0  0  0
 56 55  1  0  0  0  0
M  END
>  <MODEL>
2

>  <REMARK>
 VINA RESULT:      -7.9      1.187      2.341
  Name = 
  13 active torsions:
  status: ('A' for Active; 'I' for Inactive)
    1  A    between atoms: C_1  and  O_45
    2  A    between atoms: C_2  and  C_47
    3  A    between atoms: C_3  and  C_31
    4  A    between atoms: C_5  and  C_31
    5  A    between atoms: C_7  and  C_30
    6  A    between atoms: C_18  and  C_37
    7  A    between atoms: C_19  and  C_36
    8  A    between atoms: C_19  and  C_39
    9  A    between atoms: C_23  and  C_32
   10  A    between atoms: C_23  and  C_56
   11  A    between atoms: N_28  and  C_44
   12  A    between atoms: C_30  and  C_32
   13  A    between atoms: C_32  and  C_46
                            x       y       z     vdW  Elec       q    Type
                         _______ _______ _______ _____ _____    ______ ____

>  <TORSDO>
F 13

$$$$
=
 OpenBabel11042417233D

 56 62  0  0  1  0  0  0  0  0999 V2000
  190.0120  173.9750  142.5320 C   0  0  1  0  0  0  0  0  0  0  0  0
  191.1250  173.1680  143.2790 C   0  0  0  0  0  2  0  0  0  0  0  0
  187.0630  178.1640  144.3240 N   0  0  0  0  0  2  0  0  0  0  0  0
  191.2810  173.6650  144.6360 C   0  0  0  0  0  0  0  0  0  0  0  0
  189.3920  174.7980  143.7150 C   0  0  0  0  0  0  0  0  0  0  0  0
  190.1100  175.2070  146.0120 C   0  0  0  0  0  3  0  0  0  0  0  0
  186.5650  177.3750  143.1850 N   0  0  0  0  0  0  0  0  0  0  0  0
  187.3730  177.9850  146.6400 O   0  0  0  0  0  0  0  0  0  0  0  0
  192.3130  173.4570  145.4390 C   0  0  0  0  0  3  0  0  0  0  0  0
  188.2730  176.3120  145.1400 C   0  0  0  0  0  0  0  0  0  0  0  0
  190.7820  174.9280  141.6250 C   0  0  0  0  0  1  0  0  0  0  0  0
  188.2700  175.6540  143.8790 C   0  0  0  0  0  0  0  0  0  0  0  0
  190.2100  174.5270  144.8380 C   0  0  0  0  0  0  0  0  0  0  0  0
  187.2630  176.0740  142.8550 C   0  0  0  0  0  2  0  0  0  0  0  0
  187.5270  177.5560  145.4790 C   0  0  0  0  0  0  0  0  0  0  0  0
  189.1650  176.1320  146.1020 C   0  0  0  0  0  3  0  0  0  0  0  0
  191.5510  171.4180  140.2860 C   0  0  1  0  0  3  0  0  0  0  0  0
  188.5370  172.9610  140.3760 C   0  0  0  0  0  2  0  0  0  0  0  0
  190.1490  172.9360  137.7430 C   0  0  0  0  0  2  0  0  0  0  0  0
  188.1390  174.4480  138.3280 C   0  0  0  0  0  3  0  0  0  0  0  0
  188.2660  174.4270  139.8470 C   0  0  0  0  0  2  0  0  0  0  0  0
  190.3250  171.5360  141.3060 C   0  0  0  0  0  0  0  0  0  0  0  0
  188.9710  173.8330  137.4340 C   0  0  0  0  0  3  0  0  0  0  0  0
  192.1170  172.6090  139.4270 C   0  0  0  0  0  2  0  0  0  0  0  0
  191.0780  173.6140  138.8380 C   0  0  0  0  0  2  0  0  0  0  0  0
  189.3940  172.7800  141.6960 C   0  0  1  0  0  3  0  0  0  0  0  0
  189.9940  170.4950  141.9050 O   0  0  0  0  0  0  0  0  0  0  0  0
  192.8030  170.6750  140.8650 C   0  0  0  0  0  2  0  0  0  0  0  0
  192.9960  169.3870  140.0830 C   0  0  0  0  0  2  0  0  0  0  0  0
  191.9300  169.0480  139.0760 C   0  0  0  0  0  1  0  0  0  0  0  0
  184.1900  178.1390  143.2790 C   0  0  0  0  0  3  0  0  0  0  0  0
  184.2490  177.9800  140.4410 C   0  0  0  0  0  3  0  0  0  0  0  0
  183.0580  178.2400  141.0810 C   0  0  0  0  0  0  0  0  0  0  0  0
  183.0480  178.3600  142.4960 C   0  0  0  0  0  3  0  0  0  0  0  0
  185.3860  177.7700  141.2110 C   0  0  0  0  0  3  0  0  0  0  0  0
  185.3830  177.7920  142.5920 C   0  0  0  0  0  0  0  0  0  0  0  0
  181.7580  178.2060  140.3430 C   0  0  0  0  0  2  0  0  0  0  0  0
  179.7440  178.1480  141.6810 O   0  0  0  0  0  1  0  0  0  0  0  0
  179.9880  180.4700  140.4660 C   0  0  0  0  0  1  0  0  0  0  0  0
  180.6430  179.0560  141.1680 C   0  0  2  0  0  3  0  0  0  0  0  0
  194.6520  172.8190  145.5520 C   0  0  1  0  0  3  0  0  0  0  0  0
  194.3980  173.4630  144.3270 O   0  0  0  0  0  0  0  0  0  0  0  0
  193.3590  172.5800  144.9470 C   0  0  2  0  0  3  0  0  0  0  0  0
  195.6120  171.7340  145.3620 C   0  0  0  0  0  2  0  0  0  0  0  0
  197.0750  171.9200  145.8300 C   0  0  2  0  0  3  0  0  0  0  0  0
  197.8330  174.1080  145.1860 O   0  0  0  0  0  1  0  0  0  0  0  0
  197.2340  173.4370  146.2210 C   0  0  0  0  0  2  0  0  0  0  0  0
  197.9360  171.4160  144.6840 C   0  0  0  0  0  2  0  0  0  0  0  0
  197.0350  171.3080  142.3160 C   0  0  2  0  0  3  0  0  0  0  0  0
  197.4860  168.6570  142.6150 C   0  0  0  0  0  2  0  0  0  0  0  0
  196.4010  170.4390  141.2120 C   0  0  0  0  0  2  0  0  0  0  0  0
  197.4160  169.3140  143.8510 O   0  0  0  0  0  0  0  0  0  0  0  0
  196.3280  169.0150  141.6810 C   0  0  0  0  0  2  0  0  0  0  0  0
  197.0780  170.6920  143.7220 C   0  0  1  0  0  3  0  0  0  0  0  0
  196.9220  172.7050  142.2270 O   0  0  0  0  0  0  0  0  0  0  0  0
  196.0290  172.9220  141.1640 C   0  0  0  0  0  1  0  0  0  0  0  0
  1 11  1  6  0  0  0
  1  2  1  0  0  0  0
  1  5  1  0  0  0  0
  2  4  1  0  0  0  0
  3 15  1  0  0  0  0
  4 13  1  0  0  0  0
  4  9  2  0  0  0  0
  5 12  2  0  0  0  0
  5 13  1  0  0  0  0
  6 16  1  0  0  0  0
  7  3  1  0  0  0  0
 10 15  1  0  0  0  0
 10 16  2  0  0  0  0
 12 10  1  0  0  0  0
 13  6  2  0  0  0  0
 14  7  1  0  0  0  0
 14 12  1  0  0  0  0
 15  8  2  0  0  0  0
 17 28  1  1  0  0  0
 17 22  1  0  0  0  0
 19 25  1  0  0  0  0
 20 21  1  0  0  0  0
 21 18  1  0  0  0  0
 22 26  1  0  0  0  0
 22 27  2  0  0  0  0
 23 19  1  0  0  0  0
 23 20  2  0  0  0  0
 24 17  1  0  0  0  0
 25 24  1  0  0  0  0
 26 18  1  6  0  0  0
 26  1  1  0  0  0  0
 29 28  1  0  0  0  0
 30 29  1  0  0  0  0
 32 33  2  0  0  0  0
 32 35  1  0  0  0  0
 33 34  1  0  0  0  0
 34 31  2  0  0  0  0
 35 36  2  0  0  0  0
 36  7  1  0  0  0  0
 36 31  1  0  0  0  0
 37 33  1  0  0  0  0
 37 40  1  0  0  0  0
 40 39  1  6  0  0  0
 40 38  1  0  0  0  0
 41 44  1  6  0  0  0
 42 43  1  0  0  0  0
 42 41  1  0  0  0  0
 43  9  1  1  0  0  0
 43 41  1  0  0  0  0
 44 45  1  0  0  0  0
 45 48  1  6  0  0  0
 45 47  1  0  0  0  0
 46 47  1  0  0  0  0
 49 55  1  1  0  0  0
 49 54  1  0  0  0  0
 50 52  1  0  0  0  0
 51 53  1  0  0  0  0
 51 49  1  0  0  0  0
 53 50  1  0  0  0  0
 54 52  1  0  0  0  0
 54 48  1  1  0  0  0
 56 55  1  0  0  0  0
M  END
>  <MODEL>
3

>  <REMARK>
 VINA RESULT:      -7.7      1.782      2.921
  Name = 
  13 active torsions:
  status: ('A' for Active; 'I' for Inactive)
    1  A    between atoms: C_1  and  O_45
    2  A    between atoms: C_2  and  C_47
    3  A    between atoms: C_3  and  C_31
    4  A    between atoms: C_5  and  C_31
    5  A    between atoms: C_7  and  C_30
    6  A    between atoms: C_18  and  C_37
    7  A    between atoms: C_19  and  C_36
    8  A    between atoms: C_19  and  C_39
    9  A    between atoms: C_23  and  C_32
   10  A    between atoms: C_23  and  C_56
   11  A    between atoms: N_28  and  C_44
   12  A    between atoms: C_30  and  C_32
   13  A    between atoms: C_32  and  C_46
                            x       y       z     vdW  Elec       q    Type
                         _______ _______ _______ _____ _____    ______ ____

>  <TORSDO>
F 13

$$$$
=
 OpenBabel11042417233D

 56 62  0  0  1  0  0  0  0  0999 V2000
  191.7350  172.6920  143.1010 C   0  0  1  0  0  0  0  0  0  0  0  0
  190.8390  173.7030  143.8900 C   0  0  0  0  0  2  0  0  0  0  0  0
  196.5230  173.5480  140.6930 N   0  0  0  0  0  2  0  0  0  0  0  0
  191.4460  175.0240  143.8820 C   0  0  0  0  0  0  0  0  0  0  0  0
  192.7720  173.6640  142.4350 C   0  0  0  0  0  0  0  0  0  0  0  0
  193.2990  176.0220  142.7810 C   0  0  0  0  0  3  0  0  0  0  0  0
  195.7120  172.3930  140.2770 N   0  0  0  0  0  0  0  0  0  0  0  0
  196.5440  175.8860  140.5330 O   0  0  0  0  0  0  0  0  0  0  0  0
  191.1560  176.0310  144.6920 C   0  0  0  0  0  3  0  0  0  0  0  0
  194.5950  174.7220  141.3710 C   0  0  0  0  0  0  0  0  0  0  0  0
  192.4450  171.8910  144.1860 C   0  0  0  0  0  1  0  0  0  0  0  0
  193.8150  173.5370  141.4800 C   0  0  0  0  0  0  0  0  0  0  0  0
  192.4910  174.9440  142.9690 C   0  0  0  0  0  0  0  0  0  0  0  0
  194.2850  172.3050  140.7730 C   0  0  0  0  0  2  0  0  0  0  0  0
  195.9740  174.8140  140.8170 C   0  0  0  0  0  0  0  0  0  0  0  0
  194.3720  175.8540  142.0220 C   0  0  0  0  0  3  0  0  0  0  0  0
  191.5740  170.6910  139.9520 C   0  0  1  0  0  3  0  0  0  0  0  0
  189.3000  172.4560  141.7360 C   0  0  0  0  0  2  0  0  0  0  0  0
  189.5830  172.9750  138.7060 C   0  0  0  0  0  2  0  0  0  0  0  0
  188.3950  174.4740  140.4410 C   0  0  0  0  0  3  0  0  0  0  0  0
  189.1520  174.0310  141.6880 C   0  0  0  0  0  2  0  0  0  0  0  0
  190.9590  170.6560  141.4270 C   0  0  0  0  0  0  0  0  0  0  0  0
  188.6100  174.0390  139.1630 C   0  0  0  0  0  3  0  0  0  0  0  0
  191.9600  172.0040  139.1750 C   0  0  0  0  0  2  0  0  0  0  0  0
  191.0130  173.2330  139.3460 C   0  0  0  0  0  2  0  0  0  0  0  0
  190.5780  171.8380  142.4390 C   0  0  1  0  0  3  0  0  0  0  0  0
  190.7010  169.5320  141.8990 O   0  0  0  0  0  0  0  0  0  0  0  0
  192.7610  169.6930  139.7230 C   0  0  0  0  0  2  0  0  0  0  0  0
  192.2400  168.5110  138.9230 C   0  0  0  0  0  2  0  0  0  0  0  0
  190.8940  168.6810  138.2730 C   0  0  0  0  0  1  0  0  0  0  0  0
  196.7710  171.9460  138.0610 C   0  0  0  0  0  3  0  0  0  0  0  0
  196.5080  169.1950  138.7290 C   0  0  0  0  0  3  0  0  0  0  0  0
  196.9380  169.5490  137.4700 C   0  0  0  0  0  0  0  0  0  0  0  0
  197.1070  170.9240  137.1610 C   0  0  0  0  0  3  0  0  0  0  0  0
  196.1840  170.2020  139.6290 C   0  0  0  0  0  3  0  0  0  0  0  0
  196.2530  171.5470  139.3220 C   0  0  0  0  0  0  0  0  0  0  0  0
  197.0420  168.5360  136.3740 C   0  0  0  0  0  2  0  0  0  0  0  0
  196.2810  169.8890  134.5200 O   0  0  0  0  0  1  0  0  0  0  0  0
  194.2420  168.7890  135.7680 C   0  0  0  0  0  1  0  0  0  0  0  0
  195.8780  168.8090  135.2720 C   0  0  2  0  0  3  0  0  0  0  0  0
  189.3790  177.0390  146.0010 C   0  0  1  0  0  3  0  0  0  0  0  0
  190.4110  176.6130  146.8580 O   0  0  0  0  0  0  0  0  0  0  0  0
  190.0700  175.8230  145.6320 C   0  0  2  0  0  3  0  0  0  0  0  0
  188.0780  176.8210  146.6310 C   0  0  0  0  0  2  0  0  0  0  0  0
  186.8810  177.7200  146.2390 C   0  0  2  0  0  3  0  0  0  0  0  0
  185.4620  179.2540  147.4260 O   0  0  0  0  0  1  0  0  0  0  0  0
  186.1140  178.0560  147.5720 C   0  0  0  0  0  2  0  0  0  0  0  0
  186.1130  176.9390  145.1870 C   0  0  0  0  0  2  0  0  0  0  0  0
  186.7810  177.2890  142.7650 C   0  0  2  0  0  3  0  0  0  0  0  0
  184.1640  177.9150  142.4760 C   0  0  0  0  0  2  0  0  0  0  0  0
  186.4420  177.9450  141.4120 C   0  0  0  0  0  2  0  0  0  0  0  0
  184.5740  178.0010  143.8140 O   0  0  0  0  0  0  0  0  0  0  0  0
  185.1120  178.6340  141.5130 C   0  0  0  0  0  2  0  0  0  0  0  0
  185.9710  177.7760  143.9760 C   0  0  1  0  0  3  0  0  0  0  0  0
  188.0980  176.8610  142.9990 O   0  0  0  0  0  0  0  0  0  0  0  0
  188.8980  177.7590  142.2720 C   0  0  0  0  0  1  0  0  0  0  0  0
  1  2  1  0  0  0  0
  1 11  1  1  0  0  0
  3 15  1  0  0  0  0
  4  2  1  0  0  0  0
  4  9  2  0  0  0  0
  5 13  1  0  0  0  0
  5  1  1  0  0  0  0
  6 13  2  0  0  0  0
  7  3  1  0  0  0  0
  7 14  1  0  0  0  0
  8 15  2  0  0  0  0
 10 12  1  0  0  0  0
 10 16  2  0  0  0  0
 12  5  2  0  0  0  0
 13  4  1  0  0  0  0
 14 12  1  0  0  0  0
 15 10  1  0  0  0  0
 16  6  1  0  0  0  0
 17 28  1  1  0  0  0
 17 22  1  0  0  0  0
 19 23  1  0  0  0  0
 19 25  1  0  0  0  0
 20 21  1  0  0  0  0
 21 18  1  0  0  0  0
 22 27  2  0  0  0  0
 22 26  1  0  0  0  0
 23 20  2  0  0  0  0
 24 25  1  0  0  0  0
 24 17  1  0  0  0  0
 26 18  1  6  0  0  0
 26  1  1  0  0  0  0
 29 28  1  0  0  0  0
 30 29  1  0  0  0  0
 31 36  1  0  0  0  0
 32 35  1  0  0  0  0
 33 32  2  0  0  0  0
 34 33  1  0  0  0  0
 34 31  2  0  0  0  0
 36 35  2  0  0  0  0
 36  7  1  0  0  0  0
 37 33  1  0  0  0  0
 38 40  1  0  0  0  0
 40 39  1  1  0  0  0
 40 37  1  0  0  0  0
 41 44  1  1  0  0  0
 41 42  1  0  0  0  0
 43  9  1  6  0  0  0
 43 41  1  0  0  0  0
 43 42  1  0  0  0  0
 45 48  1  6  0  0  0
 45 44  1  0  0  0  0
 45 47  1  0  0  0  0
 46 47  1  0  0  0  0
 49 55  1  1  0  0  0
 49 54  1  0  0  0  0
 50 52  1  0  0  0  0
 51 53  1  0  0  0  0
 51 49  1  0  0  0  0
 52 54  1  0  0  0  0
 53 50  1  0  0  0  0
 54 48  1  1  0  0  0
 56 55  1  0  0  0  0
M  END
>  <MODEL>
4

>  <REMARK>
 VINA RESULT:      -6.6      3.826     10.340
  Name = 
  13 active torsions:
  status: ('A' for Active; 'I' for Inactive)
    1  A    between atoms: C_1  and  O_45
    2  A    between atoms: C_2  and  C_47
    3  A    between atoms: C_3  and  C_31
    4  A    between atoms: C_5  and  C_31
    5  A    between atoms: C_7  and  C_30
    6  A    between atoms: C_18  and  C_37
    7  A    between atoms: C_19  and  C_36
    8  A    between atoms: C_19  and  C_39
    9  A    between atoms: C_23  and  C_32
   10  A    between atoms: C_23  and  C_56
   11  A    between atoms: N_28  and  C_44
   12  A    between atoms: C_30  and  C_32
   13  A    between atoms: C_32  and  C_46
                            x       y       z     vdW  Elec       q    Type
                         _______ _______ _______ _____ _____    ______ ____

>  <TORSDO>
F 13

$$$$
=
 OpenBabel11042417233D

 56 62  0  0  1  0  0  0  0  0999 V2000
  188.4270  176.2570  144.7220 C   0  0  1  0  0  0  0  0  0  0  0  0
  186.9750  176.7210  144.3710 C   0  0  0  0  0  2  0  0  0  0  0  0
  192.1410  173.9620  141.4980 N   0  0  0  0  0  2  0  0  0  0  0  0
  186.6730  176.4160  142.9820 C   0  0  0  0  0  0  0  0  0  0  0  0
  188.7950  175.4250  143.4440 C   0  0  0  0  0  0  0  0  0  0  0  0
  187.7490  175.1970  141.2500 C   0  0  0  0  0  3  0  0  0  0  0  0
  192.2670  173.8060  142.9560 N   0  0  0  0  0  0  0  0  0  0  0  0
  190.8080  173.2250  139.7160 O   0  0  0  0  0  0  0  0  0  0  0  0
  185.6940  176.9330  142.2550 C   0  0  0  0  0  3  0  0  0  0  0  0
  189.8050  174.2250  141.6790 C   0  0  0  0  0  0  0  0  0  0  0  0
  189.2460  177.5440  144.7180 C   0  0  0  0  0  1  0  0  0  0  0  0
  189.8730  174.5860  143.0530 C   0  0  0  0  0  0  0  0  0  0  0  0
  187.7150  175.6060  142.5480 C   0  0  0  0  0  0  0  0  0  0  0  0
  191.1050  174.2340  143.8250 C   0  0  0  0  0  2  0  0  0  0  0  0
  190.9390  173.7380  140.8450 C   0  0  0  0  0  0  0  0  0  0  0  0
  188.8360  174.5610  140.8400 C   0  0  0  0  0  3  0  0  0  0  0  0
  187.4490  178.0860  147.8280 C   0  0  1  0  0  3  0  0  0  0  0  0
  189.2790  175.3020  147.2150 C   0  0  0  0  0  2  0  0  0  0  0  0
  190.4580  177.5290  148.9990 C   0  0  0  0  0  2  0  0  0  0  0  0
  191.7370  175.5800  147.8840 C   0  0  0  0  0  3  0  0  0  0  0  0
  190.7830  175.3100  146.7260 C   0  0  0  0  0  2  0  0  0  0  0  0
  187.2160  176.6540  147.1560 C   0  0  0  0  0  0  0  0  0  0  0  0
  191.6050  176.5550  148.8340 C   0  0  0  0  0  3  0  0  0  0  0  0
  188.7460  178.9580  147.6440 C   0  0  0  0  0  2  0  0  0  0  0  0
  190.1100  178.2010  147.6030 C   0  0  0  0  0  2  0  0  0  0  0  0
  188.1530  175.7700  146.2040 C   0  0  1  0  0  3  0  0  0  0  0  0
  186.1350  176.0880  147.4080 O   0  0  0  0  0  0  0  0  0  0  0  0
  186.2430  179.0740  147.6800 C   0  0  0  0  0  2  0  0  0  0  0  0
  185.7250  178.9820  146.2540 C   0  0  0  0  0  2  0  0  0  0  0  0
  184.2380  178.8240  146.0900 C   0  0  0  0  0  1  0  0  0  0  0  0
  194.3410  172.4550  142.6260 C   0  0  0  0  0  3  0  0  0  0  0  0
  194.3990  172.2430  145.4600 C   0  0  0  0  0  3  0  0  0  0  0  0
  195.2970  171.5220  144.7080 C   0  0  0  0  0  0  0  0  0  0  0  0
  195.2880  171.6680  143.2960 C   0  0  0  0  0  3  0  0  0  0  0  0
  193.4640  173.0340  144.8040 C   0  0  0  0  0  3  0  0  0  0  0  0
  193.3760  173.1220  143.4280 C   0  0  0  0  0  0  0  0  0  0  0  0
  196.1420  170.4530  145.3260 C   0  0  0  0  0  2  0  0  0  0  0  0
  194.3560  168.9840  144.6190 O   0  0  0  0  0  1  0  0  0  0  0  0
  194.5370  169.0330  147.2440 C   0  0  0  0  0  1  0  0  0  0  0  0
  195.2140  169.1650  145.6800 C   0  0  2  0  0  3  0  0  0  0  0  0
  183.5660  178.0990  142.1940 C   0  0  1  0  0  3  0  0  0  0  0  0
  184.6150  179.0240  142.0340 O   0  0  0  0  0  0  0  0  0  0  0  0
  184.7830  177.8370  142.9320 C   0  0  2  0  0  3  0  0  0  0  0  0
  182.4940  178.6860  142.9940 C   0  0  0  0  0  2  0  0  0  0  0  0
  181.2080  179.1870  142.2960 C   0  0  2  0  0  3  0  0  0  0  0  0
  179.1740  178.4350  143.3320 O   0  0  0  0  0  1  0  0  0  0  0  0
  180.1360  179.4070  143.4280 C   0  0  0  0  0  2  0  0  0  0  0  0
  180.8840  178.1410  141.2430 C   0  0  0  0  0  2  0  0  0  0  0  0
  178.6280  178.3160  140.0950 C   0  0  2  0  0  3  0  0  0  0  0  0
  179.2200  180.9560  140.0560 C   0  0  0  0  0  2  0  0  0  0  0  0
  177.6970  179.1510  139.1940 C   0  0  0  0  0  2  0  0  0  0  0  0
  180.3660  180.1700  140.2430 O   0  0  0  0  0  0  0  0  0  0  0  0
  178.3460  180.4720  138.8970 C   0  0  0  0  0  2  0  0  0  0  0  0
  180.0930  178.7750  140.1650 C   0  0  1  0  0  3  0  0  0  0  0  0
  178.3740  176.9430  140.2450 O   0  0  0  0  0  0  0  0  0  0  0  0
  177.8880  176.5340  138.9920 C   0  0  0  0  0  1  0  0  0  0  0  0
  1 11  1  1  0  0  0
  1 26  1  0  0  0  0
  2  1  1  0  0  0  0
  3  7  1  0  0  0  0
  4  2  1  0  0  0  0
  5  1  1  0  0  0  0
  6 13  1  0  0  0  0
  7 36  1  0  0  0  0
  7 14  1  0  0  0  0
  8 15  2  0  0  0  0
  9  4  2  0  0  0  0
 10 12  2  0  0  0  0
 12  5  1  0  0  0  0
 12 14  1  0  0  0  0
 13  4  1  0  0  0  0
 13  5  2  0  0  0  0
 15  3  1  0  0  0  0
 15 10  1  0  0  0  0
 16  6  2  0  0  0  0
 16 10  1  0  0  0  0
 17 28  1  6  0  0  0
 20 23  2  0  0  0  0
 21 18  1  0  0  0  0
 21 20  1  0  0  0  0
 22 27  2  0  0  0  0
 22 17  1  0  0  0  0
 23 19  1  0  0  0  0
 24 17  1  0  0  0  0
 25 24  1  0  0  0  0
 25 19  1  0  0  0  0
 26 22  1  0  0  0  0
 26 18  1  1  0  0  0
 29 28  1  0  0  0  0
 30 29  1  0  0  0  0
 31 34  2  0  0  0  0
 31 36  1  0  0  0  0
 33 37  1  0  0  0  0
 33 32  2  0  0  0  0
 34 33  1  0  0  0  0
 35 32  1  0  0  0  0
 36 35  2  0  0  0  0
 37 40  1  0  0  0  0
 38 40  1  0  0  0  0
 40 39  1  1  0  0  0
 41 43  1  0  0  0  0
 41 44  1  1  0  0  0
 42 41  1  0  0  0  0
 42 43  1  0  0  0  0
 43  9  1  6  0  0  0
 45 48  1  6  0  0  0
 45 44  1  0  0  0  0
 45 47  1  0  0  0  0
 46 47  1  0  0  0  0
 49 54  1  0  0  0  0
 49 55  1  6  0  0  0
 50 52  1  0  0  0  0
 51 49  1  0  0  0  0
 53 51  1  0  0  0  0
 53 50  1  0  0  0  0
 54 52  1  0  0  0  0
 54 48  1  1  0  0  0
 56 55  1  0  0  0  0
M  END
>  <MODEL>
5

>  <REMARK>
 VINA RESULT:      -6.5      3.013     12.484
  Name = 
  13 active torsions:
  status: ('A' for Active; 'I' for Inactive)
    1  A    between atoms: C_1  and  O_45
    2  A    between atoms: C_2  and  C_47
    3  A    between atoms: C_3  and  C_31
    4  A    between atoms: C_5  and  C_31
    5  A    between atoms: C_7  and  C_30
    6  A    between atoms: C_18  and  C_37
    7  A    between atoms: C_19  and  C_36
    8  A    between atoms: C_19  and  C_39
    9  A    between atoms: C_23  and  C_32
   10  A    between atoms: C_23  and  C_56
   11  A    between atoms: N_28  and  C_44
   12  A    between atoms: C_30  and  C_32
   13  A    between atoms: C_32  and  C_46
                            x       y       z     vdW  Elec       q    Type
                         _______ _______ _______ _____ _____    ______ ____

>  <TORSDO>
F 13

$$$$
=
 OpenBabel11042417233D

 56 62  0  0  1  0  0  0  0  0999 V2000
  191.2850  174.3770  142.4490 C   0  0  1  0  0  0  0  0  0  0  0  0
  190.1220  175.1100  143.1950 C   0  0  0  0  0  2  0  0  0  0  0  0
  191.5010  172.6960  137.2940 N   0  0  0  0  0  2  0  0  0  0  0  0
  188.9840  175.2790  142.3050 C   0  0  0  0  0  0  0  0  0  0  0  0
  190.5630  173.9270  141.1310 C   0  0  0  0  0  0  0  0  0  0  0  0
  188.4130  174.5090  140.1320 C   0  0  0  0  0  3  0  0  0  0  0  0
  192.4120  172.0930  138.2800 N   0  0  0  0  0  0  0  0  0  0  0  0
  189.2310  172.7090  136.7120 O   0  0  0  0  0  0  0  0  0  0  0  0
  187.9690  176.1140  142.4710 C   0  0  0  0  0  3  0  0  0  0  0  0
  189.9280  173.1940  138.9780 C   0  0  0  0  0  0  0  0  0  0  0  0
  192.2740  175.4870  142.1100 C   0  0  0  0  0  1  0  0  0  0  0  0
  190.8970  173.1120  140.0170 C   0  0  0  0  0  0  0  0  0  0  0  0
  189.2740  174.5090  141.1850 C   0  0  0  0  0  0  0  0  0  0  0  0
  192.1780  172.3870  139.7450 C   0  0  0  0  0  2  0  0  0  0  0  0
  190.1460  172.8370  137.5490 C   0  0  0  0  0  0  0  0  0  0  0  0
  188.8020  173.8900  139.0270 C   0  0  0  0  0  3  0  0  0  0  0  0
  194.7240  173.4330  143.5580 C   0  0  1  0  0  3  0  0  0  0  0  0
  191.6960  171.9300  143.7510 C   0  0  0  0  0  2  0  0  0  0  0  0
  194.0950  170.3630  142.6020 C   0  0  0  0  0  2  0  0  0  0  0  0
  191.5920  169.7610  142.3900 C   0  0  0  0  0  3  0  0  0  0  0  0
  191.0030  171.1560  142.5570 C   0  0  0  0  0  2  0  0  0  0  0  0
  193.2980  173.7480  144.2100 C   0  0  0  0  0  0  0  0  0  0  0  0
  192.9210  169.4360  142.3780 C   0  0  0  0  0  3  0  0  0  0  0  0
  194.9350  172.7910  142.1370 C   0  0  0  0  0  2  0  0  0  0  0  0
  193.9370  171.6690  141.7120 C   0  0  0  0  0  2  0  0  0  0  0  0
  191.8130  173.5070  143.6630 C   0  0  1  0  0  3  0  0  0  0  0  0
  193.3040  174.2530  145.3490 O   0  0  0  0  0  0  0  0  0  0  0  0
  195.7520  174.6120  143.6520 C   0  0  0  0  0  2  0  0  0  0  0  0
  195.9790  175.1580  142.2520 C   0  0  0  0  0  2  0  0  0  0  0  0
  197.3800  175.5930  141.9200 C   0  0  0  0  0  1  0  0  0  0  0  0
  194.0400  170.2290  138.6150 C   0  0  0  0  0  3  0  0  0  0  0  0
  194.6060  170.5090  135.8430 C   0  0  0  0  0  3  0  0  0  0  0  0
  195.3690  169.6570  136.6080 C   0  0  0  0  0  0  0  0  0  0  0  0
  195.0510  169.4930  137.9820 C   0  0  0  0  0  3  0  0  0  0  0  0
  193.5950  171.2350  136.4610 C   0  0  0  0  0  3  0  0  0  0  0  0
  193.3250  171.1600  137.8140 C   0  0  0  0  0  0  0  0  0  0  0  0
  196.6320  169.0580  136.0750 C   0  0  0  0  0  2  0  0  0  0  0  0
  197.8450  170.7660  137.2830 O   0  0  0  0  0  1  0  0  0  0  0  0
  197.8650  171.2620  134.6980 C   0  0  0  0  0  1  0  0  0  0  0  0
  197.7950  170.1940  136.0320 C   0  0  2  0  0  3  0  0  0  0  0  0
  186.8450  177.8150  143.7880 C   0  0  1  0  0  3  0  0  0  0  0  0
  188.0660  178.3220  143.3050 O   0  0  0  0  0  0  0  0  0  0  0  0
  187.9480  176.8830  143.7010 C   0  0  2  0  0  3  0  0  0  0  0  0
  186.5870  178.3160  145.1350 C   0  0  0  0  0  2  0  0  0  0  0  0
  186.5770  177.3290  146.3270 C   0  0  2  0  0  3  0  0  0  0  0  0
  184.4050  178.3580  146.3100 O   0  0  0  0  0  1  0  0  0  0  0  0
  185.1270  177.3790  146.9410 C   0  0  0  0  0  2  0  0  0  0  0  0
  187.7160  177.7690  147.2300 C   0  0  0  0  0  2  0  0  0  0  0  0
  190.0850  177.1480  147.8900 C   0  0  2  0  0  3  0  0  0  0  0  0
  189.2870  174.6660  147.1680 C   0  0  0  0  0  2  0  0  0  0  0  0
  191.2390  176.1340  147.7650 C   0  0  0  0  0  2  0  0  0  0  0  0
  188.4590  175.6570  146.6220 O   0  0  0  0  0  0  0  0  0  0  0  0
  190.7760  174.9510  146.9640 C   0  0  0  0  0  2  0  0  0  0  0  0
  188.9200  176.9740  146.9040 C   0  0  1  0  0  3  0  0  0  0  0  0
  190.3740  178.4530  148.3240 O   0  0  0  0  0  0  0  0  0  0  0  0
  191.1090  178.2770  149.5090 C   0  0  0  0  0  1  0  0  0  0  0  0
  1 11  1  6  0  0  0
  1  2  1  0  0  0  0
  1 26  1  0  0  0  0
  3 15  1  0  0  0  0
  3  7  1  0  0  0  0
  4  9  2  0  0  0  0
  4  2  1  0  0  0  0
  5 13  1  0  0  0  0
  5  1  1  0  0  0  0
  6 13  2  0  0  0  0
  7 14  1  0  0  0  0
  8 15  2  0  0  0  0
 10 16  2  0  0  0  0
 10 12  1  0  0  0  0
 12  5  2  0  0  0  0
 13  4  1  0  0  0  0
 14 12  1  0  0  0  0
 15 10  1  0  0  0  0
 16  6  1  0  0  0  0
 17 28  1  6  0  0  0
 17 22  1  0  0  0  0
 20 21  1  0  0  0  0
 21 18  1  0  0  0  0
 22 27  2  0  0  0  0
 23 20  2  0  0  0  0
 23 19  1  0  0  0  0
 24 17  1  0  0  0  0
 25 24  1  0  0  0  0
 25 19  1  0  0  0  0
 26 18  1  6  0  0  0
 26 22  1  0  0  0  0
 29 28  1  0  0  0  0
 30 29  1  0  0  0  0
 32 35  2  0  0  0  0
 32 33  1  0  0  0  0
 33 34  2  0  0  0  0
 34 31  1  0  0  0  0
 35 36  1  0  0  0  0
 36  7  1  0  0  0  0
 36 31  2  0  0  0  0
 37 33  1  0  0  0  0
 40 39  1  6  0  0  0
 40 37  1  0  0  0  0
 40 38  1  0  0  0  0
 41 44  1  1  0  0  0
 42 43  1  0  0  0  0
 42 41  1  0  0  0  0
 43  9  1  6  0  0  0
 43 41  1  0  0  0  0
 45 44  1  6  0  0  0
 45 47  1  0  0  0  0
 45 48  1  0  0  0  0
 46 47  1  0  0  0  0
 49 55  1  6  0  0  0
 51 49  1  0  0  0  0
 52 54  1  0  0  0  0
 52 50  1  0  0  0  0
 53 50  1  0  0  0  0
 53 51  1  0  0  0  0
 54 48  1  1  0  0  0
 54 49  1  0  0  0  0
 55 56  1  0  0  0  0
M  END
>  <MODEL>
6

>  <REMARK>
 VINA RESULT:      -6.5      3.835     10.135
  Name = 
  13 active torsions:
  status: ('A' for Active; 'I' for Inactive)
    1  A    between atoms: C_1  and  O_45
    2  A    between atoms: C_2  and  C_47
    3  A    between atoms: C_3  and  C_31
    4  A    between atoms: C_5  and  C_31
    5  A    between atoms: C_7  and  C_30
    6  A    between atoms: C_18  and  C_37
    7  A    between atoms: C_19  and  C_36
    8  A    between atoms: C_19  and  C_39
    9  A    between atoms: C_23  and  C_32
   10  A    between atoms: C_23  and  C_56
   11  A    between atoms: N_28  and  C_44
   12  A    between atoms: C_30  and  C_32
   13  A    between atoms: C_32  and  C_46
                            x       y       z     vdW  Elec       q    Type
                         _______ _______ _______ _____ _____    ______ ____

>  <TORSDO>
F 13

$$$$
=
 OpenBabel11042417233D

 56 62  0  0  1  0  0  0  0  0999 V2000
  192.8490  172.0290  140.8980 C   0  0  1  0  0  0  0  0  0  0  0  0
  193.3770  171.5120  139.5190 C   0  0  0  0  0  2  0  0  0  0  0  0
  188.1510  174.4970  142.0360 N   0  0  0  0  0  2  0  0  0  0  0  0
  192.4200  171.8190  138.4680 C   0  0  0  0  0  0  0  0  0  0  0  0
  191.6160  172.8870  140.4460 C   0  0  0  0  0  0  0  0  0  0  0  0
  190.4210  173.0940  138.3270 C   0  0  0  0  0  3  0  0  0  0  0  0
  189.2790  174.6440  142.9690 N   0  0  0  0  0  0  0  0  0  0  0  0
  187.4740  175.1980  139.9050 O   0  0  0  0  0  0  0  0  0  0  0  0
  192.3680  171.2700  137.2630 C   0  0  0  0  0  3  0  0  0  0  0  0
  189.6260  174.1410  140.2310 C   0  0  0  0  0  0  0  0  0  0  0  0
  192.3400  170.7760  141.6000 C   0  0  0  0  0  1  0  0  0  0  0  0
  190.7040  173.7710  141.0830 C   0  0  0  0  0  0  0  0  0  0  0  0
  191.4920  172.6720  139.0520 C   0  0  0  0  0  0  0  0  0  0  0  0
  190.6430  174.1630  142.5250 C   0  0  0  0  0  2  0  0  0  0  0  0
  188.3100  174.6800  140.6710 C   0  0  0  0  0  0  0  0  0  0  0  0
  189.4820  173.7760  138.9670 C   0  0  0  0  0  3  0  0  0  0  0  0
  194.3850  171.5820  144.2720 C   0  0  1  0  0  3  0  0  0  0  0  0
  194.5890  173.9860  141.8950 C   0  0  0  0  0  2  0  0  0  0  0  0
  193.9340  174.7830  144.8050 C   0  0  0  0  0  2  0  0  0  0  0  0
  193.6260  176.2260  142.6840 C   0  0  0  0  0  3  0  0  0  0  0  0
  193.4970  175.1060  141.6590 C   0  0  0  0  0  2  0  0  0  0  0  0
  194.8520  171.6850  142.7460 C   0  0  0  0  0  0  0  0  0  0  0  0
  193.7810  176.0770  144.0350 C   0  0  0  0  0  3  0  0  0  0  0  0
  193.1210  172.3040  144.8710 C   0  0  0  0  0  2  0  0  0  0  0  0
  192.8190  173.7460  144.3560 C   0  0  0  0  0  2  0  0  0  0  0  0
  194.2360  172.4910  141.5070 C   0  0  1  0  0  3  0  0  0  0  0  0
  195.8810  171.0570  142.4330 O   0  0  0  0  0  0  0  0  0  0  0  0
  194.3540  170.1230  144.8410 C   0  0  0  0  0  2  0  0  0  0  0  0
  194.8590  170.1600  146.2740 C   0  0  0  0  0  2  0  0  0  0  0  0
  196.3310  169.9160  146.4730 C   0  0  0  0  0  1  0  0  0  0  0  0
  189.2550  174.8920  145.4540 C   0  0  0  0  0  3  0  0  0  0  0  0
  188.0440  177.4200  144.9770 C   0  0  0  0  0  3  0  0  0  0  0  0
  188.1530  176.9530  146.2670 C   0  0  0  0  0  0  0  0  0  0  0  0
  188.7970  175.7090  146.4970 C   0  0  0  0  0  3  0  0  0  0  0  0
  188.5050  176.6200  143.9380 C   0  0  0  0  0  3  0  0  0  0  0  0
  189.0530  175.3670  144.1300 C   0  0  0  0  0  0  0  0  0  0  0  0
  187.4420  177.6270  147.3970 C   0  0  0  0  0  2  0  0  0  0  0  0
  185.9440  179.5160  147.5840 O   0  0  0  0  0  1  0  0  0  0  0  0
  184.7090  177.4520  146.5170 C   0  0  0  0  0  1  0  0  0  0  0  0
  186.1130  178.3750  146.8330 C   0  0  2  0  0  3  0  0  0  0  0  0
  194.1800  170.6930  135.7560 C   0  0  1  0  0  3  0  0  0  0  0  0
  193.1030  169.8100  135.5570 O   0  0  0  0  0  0  0  0  0  0  0  0
  193.4160  170.3250  136.9280 C   0  0  2  0  0  3  0  0  0  0  0  0
  195.4490  169.9820  135.6190 C   0  0  0  0  0  2  0  0  0  0  0  0
  196.7500  170.7830  135.3790 C   0  0  2  0  0  3  0  0  0  0  0  0
  197.7610  168.8600  136.4090 O   0  0  0  0  0  1  0  0  0  0  0  0
  197.9280  169.7370  135.3670 C   0  0  0  0  0  2  0  0  0  0  0  0
  196.7850  171.8390  136.4700 C   0  0  0  0  0  2  0  0  0  0  0  0
  196.1400  174.2550  136.8920 C   0  0  2  0  0  3  0  0  0  0  0  0
  197.9410  174.7360  134.9300 C   0  0  0  0  0  2  0  0  0  0  0  0
  196.1010  175.6970  136.3490 C   0  0  0  0  0  2  0  0  0  0  0  0
  197.4990  173.4050  134.9150 O   0  0  0  0  0  0  0  0  0  0  0  0
  196.7950  175.7460  135.0180 C   0  0  0  0  0  2  0  0  0  0  0  0
  196.4760  173.1560  135.8730 C   0  0  1  0  0  3  0  0  0  0  0  0
  195.2950  173.9100  137.9600 O   0  0  0  0  0  0  0  0  0  0  0  0
  194.4340  175.0120  138.1000 C   0  0  0  0  0  1  0  0  0  0  0  0
  1 26  1  0  0  0  0
  1 11  1  1  0  0  0
  2  1  1  0  0  0  0
  3  7  1  0  0  0  0
  4 13  1  0  0  0  0
  4  2  1  0  0  0  0
  5  1  1  0  0  0  0
  5 12  1  0  0  0  0
  6 16  2  0  0  0  0
  6 13  1  0  0  0  0
  7 36  1  0  0  0  0
  8 15  2  0  0  0  0
  9  4  2  0  0  0  0
 10 15  1  0  0  0  0
 10 12  2  0  0  0  0
 12 14  1  0  0  0  0
 13  5  2  0  0  0  0
 14  7  1  0  0  0  0
 15  3  1  0  0  0  0
 16 10  1  0  0  0  0
 17 28  1  6  0  0  0
 17 24  1  0  0  0  0
 20 23  2  0  0  0  0
 21 18  1  0  0  0  0
 21 20  1  0  0  0  0
 22 17  1  0  0  0  0
 23 19  1  0  0  0  0
 25 19  1  0  0  0  0
 25 24  1  0  0  0  0
 26 18  1  1  0  0  0
 26 22  1  0  0  0  0
 27 22  2  0  0  0  0
 28 29  1  0  0  0  0
 29 30  1  0  0  0  0
 31 34  1  0  0  0  0
 32 33  1  0  0  0  0
 33 34  2  0  0  0  0
 33 37  1  0  0  0  0
 35 36  1  0  0  0  0
 35 32  2  0  0  0  0
 36 31  2  0  0  0  0
 40 39  1  1  0  0  0
 40 37  1  0  0  0  0
 40 38  1  0  0  0  0
 41 44  1  1  0  0  0
 41 43  1  0  0  0  0
 42 41  1  0  0  0  0
 42 43  1  0  0  0  0
 43  9  1  6  0  0  0
 45 47  1  1  0  0  0
 45 44  1  0  0  0  0
 45 48  1  0  0  0  0
 47 46  1  0  0  0  0
 49 55  1  6  0  0  0
 50 53  1  0  0  0  0
 51 49  1  0  0  0  0
 52 50  1  0  0  0  0
 52 54  1  0  0  0  0
 53 51  1  0  0  0  0
 54 48  1  1  0  0  0
 54 49  1  0  0  0  0
 55 56  1  0  0  0  0
M  END
>  <MODEL>
7

>  <REMARK>
 VINA RESULT:      -6.4      3.818      7.564
  Name = 
  13 active torsions:
  status: ('A' for Active; 'I' for Inactive)
    1  A    between atoms: C_1  and  O_45
    2  A    between atoms: C_2  and  C_47
    3  A    between atoms: C_3  and  C_31
    4  A    between atoms: C_5  and  C_31
    5  A    between atoms: C_7  and  C_30
    6  A    between atoms: C_18  and  C_37
    7  A    between atoms: C_19  and  C_36
    8  A    between atoms: C_19  and  C_39
    9  A    between atoms: C_23  and  C_32
   10  A    between atoms: C_23  and  C_56
   11  A    between atoms: N_28  and  C_44
   12  A    between atoms: C_30  and  C_32
   13  A    between atoms: C_32  and  C_46
                            x       y       z     vdW  Elec       q    Type
                         _______ _______ _______ _____ _____    ______ ____

>  <TORSDO>
F 13

$$$$
=
 OpenBabel11042417233D

 56 62  0  0  1  0  0  0  0  0999 V2000
  192.1430  171.8250  141.4650 C   0  0  1  0  0  0  0  0  0  0  0  0
  192.6650  171.2390  140.1120 C   0  0  0  0  0  2  0  0  0  0  0  0
  187.8380  175.0060  142.3630 N   0  0  0  0  0  2  0  0  0  0  0  0
  191.8350  171.7020  139.0120 C   0  0  0  0  0  0  0  0  0  0  0  0
  191.0920  172.8730  140.9550 C   0  0  0  0  0  0  0  0  0  0  0  0
  190.0780  173.2820  138.7730 C   0  0  0  0  0  3  0  0  0  0  0  0
  188.9160  174.9650  143.3640 N   0  0  0  0  0  0  0  0  0  0  0  0
  187.4130  175.8210  140.2070 O   0  0  0  0  0  0  0  0  0  0  0  0
  191.7700  171.1770  137.7970 C   0  0  0  0  0  3  0  0  0  0  0  0
  189.3450  174.4300  140.6440 C   0  0  0  0  0  0  0  0  0  0  0  0
  191.3990  170.6650  142.1160 C   0  0  0  0  0  1  0  0  0  0  0  0
  190.2960  173.8870  141.5510 C   0  0  0  0  0  0  0  0  0  0  0  0
  191.0210  172.6890  139.5540 C   0  0  0  0  0  0  0  0  0  0  0  0
  190.2110  174.2740  142.9940 C   0  0  0  0  0  2  0  0  0  0  0  0
  188.1070  175.1710  141.0140 C   0  0  0  0  0  0  0  0  0  0  0  0
  189.2220  174.1020  139.3670 C   0  0  0  0  0  3  0  0  0  0  0  0
  193.3270  174.3400  143.9590 C   0  0  1  0  0  3  0  0  0  0  0  0
  194.8220  172.6480  141.4350 C   0  0  0  0  0  2  0  0  0  0  0  0
  195.1220  175.7170  141.5890 C   0  0  0  0  0  2  0  0  0  0  0  0
  195.6290  174.1980  139.5610 C   0  0  0  0  0  3  0  0  0  0  0  0
  194.7060  173.0360  139.9050 C   0  0  0  0  0  2  0  0  0  0  0  0
  193.6020  172.8130  143.5730 C   0  0  0  0  0  0  0  0  0  0  0  0
  195.7760  175.3570  140.2730 C   0  0  0  0  0  3  0  0  0  0  0  0
  192.9010  175.4580  142.9360 C   0  0  0  0  0  2  0  0  0  0  0  0
  193.5640  175.4150  141.5240 C   0  0  0  0  0  2  0  0  0  0  0  0
  193.5460  172.0560  142.1630 C   0  0  1  0  0  3  0  0  0  0  0  0
  193.9390  172.0540  144.5020 O   0  0  0  0  0  0  0  0  0  0  0  0
  192.4080  174.5350  145.2130 C   0  0  0  0  0  2  0  0  0  0  0  0
  192.3480  176.0190  145.5340 C   0  0  0  0  0  2  0  0  0  0  0  0
  192.9340  176.4430  146.8530 C   0  0  0  0  0  1  0  0  0  0  0  0
  188.8350  175.2080  145.8480 C   0  0  0  0  0  3  0  0  0  0  0  0
  187.9540  177.8640  145.3450 C   0  0  0  0  0  3  0  0  0  0  0  0
  187.9600  177.3850  146.6350 C   0  0  0  0  0  0  0  0  0  0  0  0
  188.4420  176.0720  146.8800 C   0  0  0  0  0  3  0  0  0  0  0  0
  188.3510  177.0170  144.3180 C   0  0  0  0  0  3  0  0  0  0  0  0
  188.7380  175.7070  144.5210 C   0  0  0  0  0  0  0  0  0  0  0  0
  187.2960  178.1360  147.7450 C   0  0  0  0  0  2  0  0  0  0  0  0
  185.9360  180.1320  147.8560 O   0  0  0  0  0  1  0  0  0  0  0  0
  184.5460  178.1110  146.9020 C   0  0  0  0  0  1  0  0  0  0  0  0
  186.0150  178.9480  147.1590 C   0  0  2  0  0  3  0  0  0  0  0  0
  193.2810  170.1520  136.1990 C   0  0  1  0  0  3  0  0  0  0  0  0
  192.1150  169.3720  136.3120 O   0  0  0  0  0  0  0  0  0  0  0  0
  192.6720  170.0780  137.5090 C   0  0  2  0  0  3  0  0  0  0  0  0
  194.4500  169.2920  136.0310 C   0  0  0  0  0  2  0  0  0  0  0  0
  195.8550  169.9280  135.9160 C   0  0  2  0  0  3  0  0  0  0  0  0
  197.9250  169.3530  136.9940 O   0  0  0  0  0  1  0  0  0  0  0  0
  196.8920  168.8010  136.2810 C   0  0  0  0  0  2  0  0  0  0  0  0
  195.8250  171.1480  136.8210 C   0  0  0  0  0  2  0  0  0  0  0  0
  195.3580  173.5050  136.0080 C   0  0  2  0  0  3  0  0  0  0  0  0
  197.9410  173.9060  136.7090 C   0  0  0  0  0  2  0  0  0  0  0  0
  195.9430  174.8360  135.4980 C   0  0  0  0  0  2  0  0  0  0  0  0
  197.6550  172.5450  136.5360 O   0  0  0  0  0  0  0  0  0  0  0  0
  197.4420  174.7730  135.5500 C   0  0  0  0  0  2  0  0  0  0  0  0
  196.3300  172.3170  136.0680 C   0  0  1  0  0  3  0  0  0  0  0  0
  194.0050  173.2200  135.7610 O   0  0  0  0  0  0  0  0  0  0  0  0
  193.2990  174.1890  136.4950 C   0  0  0  0  0  1  0  0  0  0  0  0
  1 11  1  1  0  0  0
  1 26  1  0  0  0  0
  2  1  1  0  0  0  0
  3  7  1  0  0  0  0
  4 13  1  0  0  0  0
  4  2  1  0  0  0  0
  5  1  1  0  0  0  0
  5 12  1  0  0  0  0
  6 16  2  0  0  0  0
  6 13  1  0  0  0  0
  7 36  1  0  0  0  0
  8 15  2  0  0  0  0
  9  4  2  0  0  0  0
 10 15  1  0  0  0  0
 10 12  2  0  0  0  0
 12 14  1  0  0  0  0
 13  5  2  0  0  0  0
 14  7  1  0  0  0  0
 15  3  1  0  0  0  0
 16 10  1  0  0  0  0
 17 28  1  1  0  0  0
 20 21  1  0  0  0  0
 20 23  2  0  0  0  0
 21 18  1  0  0  0  0
 22 17  1  0  0  0  0
 22 27  2  0  0  0  0
 23 19  1  0  0  0  0
 24 17  1  0  0  0  0
 25 19  1  0  0  0  0
 25 24  1  0  0  0  0
 26 18  1  6  0  0  0
 26 22  1  0  0  0  0
 28 29  1  0  0  0  0
 29 30  1  0  0  0  0
 31 34  1  0  0  0  0
 32 33  1  0  0  0  0
 33 34  2  0  0  0  0
 33 37  1  0  0  0  0
 35 36  1  0  0  0  0
 35 32  2  0  0  0  0
 36 31  2  0  0  0  0
 40 39  1  1  0  0  0
 40 37  1  0  0  0  0
 40 38  1  0  0  0  0
 41 44  1  1  0  0  0
 41 42  1  0  0  0  0
 41 43  1  0  0  0  0
 42 43  1  0  0  0  0
 43  9  1  6  0  0  0
 45 44  1  1  0  0  0
 45 47  1  0  0  0  0
 45 48  1  0  0  0  0
 47 46  1  0  0  0  0
 49 55  1  6  0  0  0
 49 54  1  0  0  0  0
 51 53  1  0  0  0  0
 51 49  1  0  0  0  0
 52 50  1  0  0  0  0
 53 50  1  0  0  0  0
 54 52  1  0  0  0  0
 54 48  1  1  0  0  0
 55 56  1  0  0  0  0
M  END
>  <MODEL>
8

>  <REMARK>
 VINA RESULT:      -6.3      3.658      7.411
  Name = 
  13 active torsions:
  status: ('A' for Active; 'I' for Inactive)
    1  A    between atoms: C_1  and  O_45
    2  A    between atoms: C_2  and  C_47
    3  A    between atoms: C_3  and  C_31
    4  A    between atoms: C_5  and  C_31
    5  A    between atoms: C_7  and  C_30
    6  A    between atoms: C_18  and  C_37
    7  A    between atoms: C_19  and  C_36
    8  A    between atoms: C_19  and  C_39
    9  A    between atoms: C_23  and  C_32
   10  A    between atoms: C_23  and  C_56
   11  A    between atoms: N_28  and  C_44
   12  A    between atoms: C_30  and  C_32
   13  A    between atoms: C_32  and  C_46
                            x       y       z     vdW  Elec       q    Type
                         _______ _______ _______ _____ _____    ______ ____

>  <TORSDO>
F 13

$$$$
=
 OpenBabel11042417233D

 56 62  0  0  1  0  0  0  0  0999 V2000
  193.4170  173.4720  140.5500 C   0  0  1  0  0  0  0  0  0  0  0  0
  193.7860  172.7840  139.1950 C   0  0  0  0  0  2  0  0  0  0  0  0
  188.7140  173.3580  143.2570 N   0  0  0  0  0  2  0  0  0  0  0  0
  192.6320  172.0800  138.6590 C   0  0  0  0  0  0  0  0  0  0  0  0
  191.8590  173.2860  140.5690 C   0  0  0  0  0  0  0  0  0  0  0  0
  190.3290  171.9400  139.2250 C   0  0  0  0  0  3  0  0  0  0  0  0
  189.6710  174.4410  143.5340 N   0  0  0  0  0  0  0  0  0  0  0  0
  187.2380  172.6430  141.5820 O   0  0  0  0  0  0  0  0  0  0  0  0
  192.6440  171.1410  137.7250 C   0  0  0  0  0  3  0  0  0  0  0  0
  189.5590  173.1040  141.0700 C   0  0  0  0  0  0  0  0  0  0  0  0
  194.0290  172.5650  141.6120 C   0  0  0  0  0  1  0  0  0  0  0  0
  190.7910  173.7400  141.3880 C   0  0  0  0  0  0  0  0  0  0  0  0
  191.5580  172.4810  139.4450 C   0  0  0  0  0  0  0  0  0  0  0  0
  190.8570  174.6030  142.6080 C   0  0  0  0  0  2  0  0  0  0  0  0
  188.3690  173.0090  141.9610 C   0  0  0  0  0  0  0  0  0  0  0  0
  189.3710  172.2290  140.0940 C   0  0  0  0  0  3  0  0  0  0  0  0
  197.0660  174.0330  139.9890 C   0  0  1  0  0  3  0  0  0  0  0  0
  194.6280  175.7940  141.5460 C   0  0  0  0  0  2  0  0  0  0  0  0
  197.2650  175.2100  143.0400 C   0  0  0  0  0  2  0  0  0  0  0  0
  195.0330  176.0070  144.0670 C   0  0  0  0  0  3  0  0  0  0  0  0
  194.0840  175.4790  142.9980 C   0  0  0  0  0  2  0  0  0  0  0  0
  195.6730  174.7110  139.5910 C   0  0  0  0  0  0  0  0  0  0  0  0
  196.3920  175.8580  144.0920 C   0  0  0  0  0  3  0  0  0  0  0  0
  197.3260  173.2430  141.3250 C   0  0  0  0  0  2  0  0  0  0  0  0
  196.6600  173.8030  142.6200 C   0  0  0  0  0  2  0  0  0  0  0  0
  194.2780  174.7890  140.3730 C   0  0  1  0  0  3  0  0  0  0  0  0
  195.6340  175.3070  138.4980 O   0  0  0  0  0  0  0  0  0  0  0  0
  197.7150  173.1740  138.8500 C   0  0  0  0  0  2  0  0  0  0  0  0
  197.4610  171.7080  139.1570 C   0  0  0  0  0  2  0  0  0  0  0  0
  197.3990  170.7770  137.9760 C   0  0  0  0  0  1  0  0  0  0  0  0
  189.3350  175.0860  145.9230 C   0  0  0  0  0  3  0  0  0  0  0  0
  188.3350  177.5420  144.8980 C   0  0  0  0  0  3  0  0  0  0  0  0
  188.2490  177.2850  146.2470 C   0  0  0  0  0  0  0  0  0  0  0  0
  188.7900  176.0750  146.7540 C   0  0  0  0  0  3  0  0  0  0  0  0
  188.8840  176.5720  144.0690 C   0  0  0  0  0  3  0  0  0  0  0  0
  189.3340  175.3480  144.5260 C   0  0  0  0  0  0  0  0  0  0  0  0
  187.4330  178.1550  147.1510 C   0  0  0  0  0  2  0  0  0  0  0  0
  185.4440  179.5190  146.9860 O   0  0  0  0  0  1  0  0  0  0  0  0
  184.8630  176.9790  146.6180 C   0  0  0  0  0  1  0  0  0  0  0  0
  185.9330  178.3110  146.5440 C   0  0  2  0  0  3  0  0  0  0  0  0
  193.9710  171.0880  135.6930 C   0  0  1  0  0  3  0  0  0  0  0  0
  193.6730  169.7730  136.0960 O   0  0  0  0  0  0  0  0  0  0  0  0
  193.9260  170.8380  137.1180 C   0  0  2  0  0  3  0  0  0  0  0  0
  195.3210  171.1520  135.1380 C   0  0  0  0  0  2  0  0  0  0  0  0
  195.8330  172.4800  134.5310 C   0  0  2  0  0  3  0  0  0  0  0  0
  197.8170  171.1240  134.5830 O   0  0  0  0  0  1  0  0  0  0  0  0
  197.4060  172.4320  134.6040 C   0  0  0  0  0  2  0  0  0  0  0  0
  195.1460  173.5800  135.3210 C   0  0  0  0  0  2  0  0  0  0  0  0
  194.5540  176.0360  135.0950 C   0  0  2  0  0  3  0  0  0  0  0  0
  197.2250  176.3690  135.3820 C   0  0  0  0  0  2  0  0  0  0  0  0
  195.0450  177.4590  134.7640 C   0  0  0  0  0  2  0  0  0  0  0  0
  196.9030  175.0600  134.9950 O   0  0  0  0  0  0  0  0  0  0  0  0
  196.5280  177.4320  134.5300 C   0  0  0  0  0  2  0  0  0  0  0  0
  195.5120  174.8900  134.7390 C   0  0  1  0  0  3  0  0  0  0  0  0
  193.1770  175.7660  135.0450 O   0  0  0  0  0  0  0  0  0  0  0  0
  192.6060  176.6630  135.9650 C   0  0  0  0  0  1  0  0  0  0  0  0
  1  5  1  0  0  0  0
  1 11  1  1  0  0  0
  2  1  1  0  0  0  0
  3  7  1  0  0  0  0
  4  2  1  0  0  0  0
  4 13  1  0  0  0  0
  5 12  1  0  0  0  0
  6 13  1  0  0  0  0
  6 16  2  0  0  0  0
  7 36  1  0  0  0  0
  8 15  2  0  0  0  0
  9  4  2  0  0  0  0
 10 12  2  0  0  0  0
 10 15  1  0  0  0  0
 12 14  1  0  0  0  0
 13  5  2  0  0  0  0
 14  7  1  0  0  0  0
 15  3  1  0  0  0  0
 16 10  1  0  0  0  0
 17 28  1  6  0  0  0
 17 24  1  0  0  0  0
 18 21  1  0  0  0  0
 19 23  1  0  0  0  0
 20 23  2  0  0  0  0
 21 20  1  0  0  0  0
 22 17  1  0  0  0  0
 22 26  1  0  0  0  0
 24 25  1  0  0  0  0
 25 19  1  0  0  0  0
 26  1  1  0  0  0  0
 26 18  1  1  0  0  0
 27 22  2  0  0  0  0
 28 29  1  0  0  0  0
 30 29  1  0  0  0  0
 31 34  1  0  0  0  0
 32 33  1  0  0  0  0
 33 34  2  0  0  0  0
 33 37  1  0  0  0  0
 35 36  1  0  0  0  0
 35 32  2  0  0  0  0
 36 31  2  0  0  0  0
 40 39  1  1  0  0  0
 40 38  1  0  0  0  0
 40 37  1  0  0  0  0
 41 44  1  6  0  0  0
 41 42  1  0  0  0  0
 41 43  1  0  0  0  0
 42 43  1  0  0  0  0
 43  9  1  1  0  0  0
 45 47  1  1  0  0  0
 45 44  1  0  0  0  0
 45 48  1  0  0  0  0
 46 47  1  0  0  0  0
 49 55  1  6  0  0  0
 51 49  1  0  0  0  0
 52 50  1  0  0  0  0
 53 51  1  0  0  0  0
 53 50  1  0  0  0  0
 54 52  1  0  0  0  0
 54 49  1  0  0  0  0
 54 48  1  1  0  0  0
 55 56  1  0  0  0  0
M  END
>  <MODEL>
9

>  <REMARK>
 VINA RESULT:      -6.3      4.139      8.175
  Name = 
  13 active torsions:
  status: ('A' for Active; 'I' for Inactive)
    1  A    between atoms: C_1  and  O_45
    2  A    between atoms: C_2  and  C_47
    3  A    between atoms: C_3  and  C_31
    4  A    between atoms: C_5  and  C_31
    5  A    between atoms: C_7  and  C_30
    6  A    between atoms: C_18  and  C_37
    7  A    between atoms: C_19  and  C_36
    8  A    between atoms: C_19  and  C_39
    9  A    between atoms: C_23  and  C_32
   10  A    between atoms: C_23  and  C_56
   11  A    between atoms: N_28  and  C_44
   12  A    between atoms: C_30  and  C_32
   13  A    between atoms: C_32  and  C_46
                            x       y       z     vdW  Elec       q    Type
                         _______ _______ _______ _____ _____    ______ ____

>  <TORSDO>
F 13

$$$$
