=
 OpenBabel11042418513D

 26 28  0  0  1  0  0  0  0  0999 V2000
  187.9220  176.2490  144.4020 C   0  0  0  0  0  0  0  0  0  0  0  0
  188.3130  175.9570  147.1490 C   0  0  0  0  0  3  0  0  0  0  0  0
  189.0780  175.6310  144.8810 C   0  0  0  0  0  3  0  0  0  0  0  0
  187.1530  176.5840  146.6810 C   0  0  0  0  0  0  0  0  0  0  0  0
  186.9610  176.7220  145.2980 C   0  0  0  0  0  3  0  0  0  0  0  0
  189.2810  175.4740  146.2610 C   0  0  0  0  0  0  0  0  0  0  0  0
  187.7240  176.3960  143.0000 N   0  0  0  0  0  0  0  0  0  0  0  0
  187.3240  177.1800  141.8010 C   0  0  1  0  0  0  0  0  0  0  0  0
  188.3050  178.3000  141.5170 C   0  0  0  0  0  1  0  0  0  0  0  0
  187.7530  175.8870  141.5930 C   0  0  0  0  0  2  0  0  0  0  0  0
  185.8260  177.4510  141.7830 C   0  0  0  0  0  2  0  0  0  0  0  0
  184.3620  178.4510  143.4570 N   0  0  0  0  0  1  0  0  0  0  0  0
  185.4780  178.7090  142.5630 C   0  0  0  0  0  2  0  0  0  0  0  0
  186.2110  177.0320  147.6170 O   0  0  0  0  0  0  0  0  0  0  0  0
  184.2160  178.2210  146.9680 O   0  0  0  0  0  0  0  0  0  0  0  0
  186.0460  179.2900  147.7540 O   0  0  0  0  0  0  0  0  0  0  0  0
  185.4860  178.2060  147.4970 N   0  0  0  0  0  0  0  0  0  0  0  0
  190.4310  174.8690  146.7950 O   0  0  0  0  0  0  0  0  0  0  0  0
  191.7560  175.0320  146.3610 C   0  0  0  0  0  0  0  0  0  0  0  0
  192.5740  176.0930  146.7780 C   0  0  0  0  0  3  0  0  0  0  0  0
  193.5530  174.2350  144.9930 N   0  0  0  0  0  0  0  0  0  0  0  0
  192.2790  174.1080  145.4510 C   0  0  0  0  0  3  0  0  0  0  0  0
  194.3610  175.2530  145.3930 C   0  0  0  0  0  0  0  0  0  0  0  0
  193.8790  176.2050  146.2980 C   0  0  0  0  0  3  0  0  0  0  0  0
  195.7260  175.3380  144.8670 C   0  0  0  0  0  3  0  0  0  0  0  0
  196.0890  176.3020  144.1420 O   0  0  0  0  0  0  0  0  0  0  0  0
  1  3  2  0  0  0  0
  1  5  1  0  0  0  0
  3  6  1  0  0  0  0
  4  2  1  0  0  0  0
  4 14  1  0  0  0  0
  5  4  2  0  0  0  0
  6 18  1  0  0  0  0
  6  2  2  0  0  0  0
  7  1  1  0  0  0  0
  8  9  1  6  0  0  0
  8  7  1  0  0  0  0
 10  8  1  0  0  0  0
 10  7  1  0  0  0  0
 11  8  1  0  0  0  0
 11 13  1  0  0  0  0
 13 12  1  0  0  0  0
 15 17  2  0  0  0  0
 17 14  1  0  0  0  0
 17 16  2  0  0  0  0
 19 20  1  0  0  0  0
 19 18  1  0  0  0  0
 21 23  2  0  0  0  0
 21 22  1  0  0  0  0
 22 19  2  0  0  0  0
 23 24  1  0  0  0  0
 24 20  2  0  0  0  0
 25 23  1  0  0  0  0
 26 25  2  0  0  0  0
M  END
>  <MODEL>
1

>  <REMARK>
 VINA RESULT:      -6.3      0.000      0.000
  Name = 
  8 active torsions:
  status: ('A' for Active; 'I' for Inactive)
    1  A    between atoms: C_1  and  N_11
    2  A    between atoms: C_2  and  CA_16
    3  A    between atoms: C_4  and  C_17
    4  A    between atoms: C_4  and  C_18
    5  A    between atoms: O_5  and  C_19
    6  A    between atoms: O_5  and  N_21
    7  A    between atoms: C_6  and  O_22
    8  A    between atoms: O_22  and  C_26
                            x       y       z     vdW  Elec       q    Type
                         _______ _______ _______ _____ _____    ______ ____

>  <TORSDO>
F 8

$$$$
=
 OpenBabel11042418513D

 26 28  0  0  1  0  0  0  0  0999 V2000
  185.3790  178.0080  144.0040 C   0  0  0  0  0  0  0  0  0  0  0  0
  185.9730  178.1000  141.2800 C   0  0  0  0  0  3  0  0  0  0  0  0
  186.6750  177.7390  143.5620 C   0  0  0  0  0  3  0  0  0  0  0  0
  184.6680  178.3650  141.7100 C   0  0  0  0  0  0  0  0  0  0  0  0
  184.3780  178.3220  143.0820 C   0  0  0  0  0  3  0  0  0  0  0  0
  186.9860  177.7890  142.1940 C   0  0  0  0  0  0  0  0  0  0  0  0
  185.0790  177.9610  145.3950 N   0  0  0  0  0  0  0  0  0  0  0  0
  185.4690  178.0100  146.8300 C   0  0  1  0  0  0  0  0  0  0  0  0
  185.9170  179.4000  147.2370 C   0  0  0  0  0  1  0  0  0  0  0  0
  184.1340  177.8250  146.5470 C   0  0  0  0  0  2  0  0  0  0  0  0
  186.2940  176.7940  147.2270 C   0  0  0  0  0  2  0  0  0  0  0  0
  188.3280  175.9420  146.1860 N   0  0  0  0  0  1  0  0  0  0  0  0
  187.7780  177.0230  146.9850 C   0  0  0  0  0  2  0  0  0  0  0  0
  183.7000  178.6880  140.7490 O   0  0  0  0  0  0  0  0  0  0  0  0
  182.5060  177.1160  139.3640 O   0  0  0  0  0  0  0  0  0  0  0  0
  181.5670  178.0560  141.1920 O   0  0  0  0  0  0  0  0  0  0  0  0
  182.5810  177.9190  140.4780 N   0  0  0  0  0  0  0  0  0  0  0  0
  188.2700  177.5160  141.6960 O   0  0  0  0  0  0  0  0  0  0  0  0
  189.4060  177.1420  142.4340 C   0  0  0  0  0  0  0  0  0  0  0  0
  190.2640  178.0700  143.0410 C   0  0  0  0  0  3  0  0  0  0  0  0
  190.8070  175.3760  143.2420 N   0  0  0  0  0  0  0  0  0  0  0  0
  189.7090  175.7820  142.5480 C   0  0  0  0  0  3  0  0  0  0  0  0
  191.6450  176.2630  143.8420 C   0  0  0  0  0  0  0  0  0  0  0  0
  191.3840  177.6340  143.7490 C   0  0  0  0  0  3  0  0  0  0  0  0
  192.8110  175.7660  144.5770 C   0  0  0  0  0  3  0  0  0  0  0  0
  192.7580  175.5440  145.8150 O   0  0  0  0  0  0  0  0  0  0  0  0
  1  7  1  0  0  0  0
  2  4  2  0  0  0  0
  2  6  1  0  0  0  0
  3  1  1  0  0  0  0
  4  5  1  0  0  0  0
  5  1  2  0  0  0  0
  6  3  2  0  0  0  0
  7 10  1  0  0  0  0
  7  8  1  0  0  0  0
  8 11  1  0  0  0  0
  8  9  1  1  0  0  0
 10  8  1  0  0  0  0
 12 13  1  0  0  0  0
 13 11  1  0  0  0  0
 14  4  1  0  0  0  0
 15 17  2  0  0  0  0
 17 14  1  0  0  0  0
 17 16  2  0  0  0  0
 18  6  1  0  0  0  0
 18 19  1  0  0  0  0
 19 22  2  0  0  0  0
 19 20  1  0  0  0  0
 20 24  2  0  0  0  0
 21 23  2  0  0  0  0
 22 21  1  0  0  0  0
 23 25  1  0  0  0  0
 24 23  1  0  0  0  0
 25 26  2  0  0  0  0
M  END
>  <MODEL>
2

>  <REMARK>
 VINA RESULT:      -6.3      3.384      5.407
  Name = 
  8 active torsions:
  status: ('A' for Active; 'I' for Inactive)
    1  A    between atoms: C_1  and  N_11
    2  A    between atoms: C_2  and  CA_16
    3  A    between atoms: C_4  and  C_17
    4  A    between atoms: C_4  and  C_18
    5  A    between atoms: O_5  and  C_19
    6  A    between atoms: O_5  and  N_21
    7  A    between atoms: C_6  and  O_22
    8  A    between atoms: O_22  and  C_26
                            x       y       z     vdW  Elec       q    Type
                         _______ _______ _______ _____ _____    ______ ____

>  <TORSDO>
F 8

$$$$
=
 OpenBabel11042418513D

 26 28  0  0  1  0  0  0  0  0999 V2000
  188.2280  177.5600  146.0010 C   0  0  0  0  0  0  0  0  0  0  0  0
  190.5870  176.7340  144.7600 C   0  0  0  0  0  3  0  0  0  0  0  0
  189.3250  177.1720  146.7720 C   0  0  0  0  0  3  0  0  0  0  0  0
  189.4920  177.1150  143.9750 C   0  0  0  0  0  0  0  0  0  0  0  0
  188.3110  177.5340  144.6070 C   0  0  0  0  0  3  0  0  0  0  0  0
  190.5180  176.7610  146.1580 C   0  0  0  0  0  0  0  0  0  0  0  0
  187.0260  177.9820  146.6360 N   0  0  0  0  0  0  0  0  0  0  0  0
  185.5560  178.2060  146.6580 C   0  0  1  0  0  0  0  0  0  0  0  0
  184.7940  176.8960  146.6650 C   0  0  0  0  0  1  0  0  0  0  0  0
  186.2600  178.5420  147.7930 C   0  0  0  0  0  2  0  0  0  0  0  0
  185.1460  179.3240  145.7090 C   0  0  0  0  0  2  0  0  0  0  0  0
  185.4390  179.2330  143.2900 N   0  0  0  0  0  1  0  0  0  0  0  0
  184.6150  178.7740  144.3950 C   0  0  0  0  0  2  0  0  0  0  0  0
  189.6260  177.0840  142.5810 O   0  0  0  0  0  0  0  0  0  0  0  0
  187.8510  177.8440  141.1360 O   0  0  0  0  0  0  0  0  0  0  0  0
  188.2310  175.6490  141.5160 O   0  0  0  0  0  0  0  0  0  0  0  0
  188.5880  176.8290  141.7010 N   0  0  0  0  0  0  0  0  0  0  0  0
  191.6460  176.3510  146.8870 O   0  0  0  0  0  0  0  0  0  0  0  0
  192.8420  175.8210  146.3750 C   0  0  0  0  0  0  0  0  0  0  0  0
  193.0240  174.4560  146.1090 C   0  0  0  0  0  3  0  0  0  0  0  0
  195.0930  176.2200  145.6600 N   0  0  0  0  0  0  0  0  0  0  0  0
  193.9110  176.6920  146.1430 C   0  0  0  0  0  3  0  0  0  0  0  0
  195.2820  174.9020  145.3900 C   0  0  0  0  0  0  0  0  0  0  0  0
  194.2420  173.9920  145.6130 C   0  0  0  0  0  3  0  0  0  0  0  0
  196.5760  174.4520  144.8710 C   0  0  0  0  0  3  0  0  0  0  0  0
  197.2640  175.1810  144.1070 O   0  0  0  0  0  0  0  0  0  0  0  0
  1  7  1  0  0  0  0
  1  3  1  0  0  0  0
  2  6  1  0  0  0  0
  4  5  1  0  0  0  0
  4  2  2  0  0  0  0
  5  1  2  0  0  0  0
  6  3  2  0  0  0  0
  6 18  1  0  0  0  0
  7  8  1  0  0  0  0
  7 10  1  0  0  0  0
  8  9  1  1  0  0  0
  8 10  1  0  0  0  0
 11  8  1  0  0  0  0
 12 13  1  0  0  0  0
 13 11  1  0  0  0  0
 14  4  1  0  0  0  0
 15 17  2  0  0  0  0
 16 17  2  0  0  0  0
 17 14  1  0  0  0  0
 19 18  1  0  0  0  0
 20 19  2  0  0  0  0
 21 22  2  0  0  0  0
 22 19  1  0  0  0  0
 23 24  2  0  0  0  0
 23 21  1  0  0  0  0
 24 20  1  0  0  0  0
 25 23  1  0  0  0  0
 26 25  2  0  0  0  0
M  END
>  <MODEL>
3

>  <REMARK>
 VINA RESULT:      -6.2      2.793      4.026
  Name = 
  8 active torsions:
  status: ('A' for Active; 'I' for Inactive)
    1  A    between atoms: C_1  and  N_11
    2  A    between atoms: C_2  and  CA_16
    3  A    between atoms: C_4  and  C_17
    4  A    between atoms: C_4  and  C_18
    5  A    between atoms: O_5  and  C_19
    6  A    between atoms: O_5  and  N_21
    7  A    between atoms: C_6  and  O_22
    8  A    between atoms: O_22  and  C_26
                            x       y       z     vdW  Elec       q    Type
                         _______ _______ _______ _____ _____    ______ ____

>  <TORSDO>
F 8

$$$$
=
 OpenBabel11042418513D

 26 28  0  0  1  0  0  0  0  0999 V2000
  188.9250  176.3780  143.9080 C   0  0  0  0  0  0  0  0  0  0  0  0
  187.9290  176.1520  141.3110 C   0  0  0  0  0  3  0  0  0  0  0  0
  188.0940  177.3720  143.3890 C   0  0  0  0  0  3  0  0  0  0  0  0
  188.7650  175.1510  141.8180 C   0  0  0  0  0  0  0  0  0  0  0  0
  189.2580  175.2690  143.1260 C   0  0  0  0  0  3  0  0  0  0  0  0
  187.5830  177.2650  142.0860 C   0  0  0  0  0  0  0  0  0  0  0  0
  189.4310  176.4940  145.2330 N   0  0  0  0  0  0  0  0  0  0  0  0
  189.2930  176.3870  146.7100 C   0  0  1  0  0  0  0  0  0  0  0  0
  189.1870  174.9420  147.1550 C   0  0  0  0  0  1  0  0  0  0  0  0
  190.5060  176.8180  146.2220 C   0  0  0  0  0  2  0  0  0  0  0  0
  188.3280  177.4290  147.2600 C   0  0  0  0  0  2  0  0  0  0  0  0
  186.1770  178.0630  146.3040 N   0  0  0  0  0  1  0  0  0  0  0  0
  186.8800  177.0230  147.0340 C   0  0  0  0  0  2  0  0  0  0  0  0
  189.0620  174.0520  141.0010 O   0  0  0  0  0  0  0  0  0  0  0  0
  187.9860  172.5410  139.4600 O   0  0  0  0  0  0  0  0  0  0  0  0
  187.4610  172.5870  141.6570 O   0  0  0  0  0  0  0  0  0  0  0  0
  188.1840  173.0150  140.7360 N   0  0  0  0  0  0  0  0  0  0  0  0
  186.7530  178.2430  141.5130 O   0  0  0  0  0  0  0  0  0  0  0  0
  185.3490  178.2460  141.4710 C   0  0  0  0  0  0  0  0  0  0  0  0
  184.6180  178.1310  140.2790 C   0  0  0  0  0  3  0  0  0  0  0  0
  183.2850  178.4180  142.6730 N   0  0  0  0  0  0  0  0  0  0  0  0
  184.6450  178.3960  142.6700 C   0  0  0  0  0  3  0  0  0  0  0  0
  182.5630  178.3010  141.5280 C   0  0  0  0  0  0  0  0  0  0  0  0
  183.2240  178.1550  140.3030 C   0  0  0  0  0  3  0  0  0  0  0  0
  181.1000  178.3310  141.5940 C   0  0  0  0  0  3  0  0  0  0  0  0
  180.4930  179.1980  142.2770 O   0  0  0  0  0  0  0  0  0  0  0  0
  1  7  1  0  0  0  0
  2  4  2  0  0  0  0
  2  6  1  0  0  0  0
  3  1  1  0  0  0  0
  4  5  1  0  0  0  0
  5  1  2  0  0  0  0
  6  3  2  0  0  0  0
  7 10  1  0  0  0  0
  7  8  1  0  0  0  0
  8  9  1  1  0  0  0
  8 11  1  0  0  0  0
 10  8  1  0  0  0  0
 12 13  1  0  0  0  0
 13 11  1  0  0  0  0
 14  4  1  0  0  0  0
 15 17  2  0  0  0  0
 17 14  1  0  0  0  0
 17 16  2  0  0  0  0
 18  6  1  0  0  0  0
 19 18  1  0  0  0  0
 19 22  1  0  0  0  0
 20 24  1  0  0  0  0
 20 19  2  0  0  0  0
 22 21  2  0  0  0  0
 23 25  1  0  0  0  0
 23 21  1  0  0  0  0
 24 23  2  0  0  0  0
 25 26  2  0  0  0  0
M  END
>  <MODEL>
4

>  <REMARK>
 VINA RESULT:      -6.2      3.641      8.486
  Name = 
  8 active torsions:
  status: ('A' for Active; 'I' for Inactive)
    1  A    between atoms: C_1  and  N_11
    2  A    between atoms: C_2  and  CA_16
    3  A    between atoms: C_4  and  C_17
    4  A    between atoms: C_4  and  C_18
    5  A    between atoms: O_5  and  C_19
    6  A    between atoms: O_5  and  N_21
    7  A    between atoms: C_6  and  O_22
    8  A    between atoms: O_22  and  C_26
                            x       y       z     vdW  Elec       q    Type
                         _______ _______ _______ _____ _____    ______ ____

>  <TORSDO>
F 8

$$$$
=
 OpenBabel11042418513D

 26 28  0  0  1  0  0  0  0  0999 V2000
  187.0420  177.0030  143.7990 C   0  0  0  0  0  0  0  0  0  0  0  0
  189.4840  175.6580  143.7270 C   0  0  0  0  0  3  0  0  0  0  0  0
  188.0770  177.3880  144.6520 C   0  0  0  0  0  3  0  0  0  0  0  0
  188.4520  175.2580  142.8710 C   0  0  0  0  0  0  0  0  0  0  0  0
  187.2280  175.9430  142.9090 C   0  0  0  0  0  3  0  0  0  0  0  0
  189.3120  176.7220  144.6200 C   0  0  0  0  0  0  0  0  0  0  0  0
  185.7960  177.6920  143.8370 N   0  0  0  0  0  0  0  0  0  0  0  0
  184.8560  178.6830  144.4250 C   0  0  1  0  0  0  0  0  0  0  0  0
  185.3400  180.1040  144.2110 C   0  0  0  0  0  1  0  0  0  0  0  0
  184.4220  177.9830  143.3220 C   0  0  0  0  0  2  0  0  0  0  0  0
  184.3630  178.2420  145.7960 C   0  0  0  0  0  2  0  0  0  0  0  0
  185.8820  177.6150  147.5970 N   0  0  0  0  0  1  0  0  0  0  0  0
  185.2770  178.7390  146.9050 C   0  0  0  0  0  2  0  0  0  0  0  0
  188.6900  174.1970  141.9870 O   0  0  0  0  0  0  0  0  0  0  0  0
  189.2420  171.9360  142.6170 O   0  0  0  0  0  0  0  0  0  0  0  0
  187.1620  172.5220  141.9580 O   0  0  0  0  0  0  0  0  0  0  0  0
  188.3250  172.8830  142.2270 N   0  0  0  0  0  0  0  0  0  0  0  0
  190.3810  177.0630  145.4640 O   0  0  0  0  0  0  0  0  0  0  0  0
  191.6310  176.4280  145.5490 C   0  0  0  0  0  0  0  0  0  0  0  0
  191.8800  175.3370  146.3940 C   0  0  0  0  0  3  0  0  0  0  0  0
  193.9160  176.3460  144.8350 N   0  0  0  0  0  0  0  0  0  0  0  0
  192.6850  176.9220  144.7740 C   0  0  0  0  0  3  0  0  0  0  0  0
  194.1710  175.2840  145.6440 C   0  0  0  0  0  0  0  0  0  0  0  0
  193.1490  174.7590  146.4430 C   0  0  0  0  0  3  0  0  0  0  0  0
  195.5170  174.7050  145.6670 C   0  0  0  0  0  3  0  0  0  0  0  0
  195.6920  173.4580  145.7020 O   0  0  0  0  0  0  0  0  0  0  0  0
  1  7  1  0  0  0  0
  1  3  1  0  0  0  0
  2  6  1  0  0  0  0
  4  5  1  0  0  0  0
  4  2  2  0  0  0  0
  5  1  2  0  0  0  0
  6  3  2  0  0  0  0
  6 18  1  0  0  0  0
  7  8  1  0  0  0  0
  8  9  1  6  0  0  0
  8 11  1  0  0  0  0
 10  7  1  0  0  0  0
 10  8  1  0  0  0  0
 11 13  1  0  0  0  0
 13 12  1  0  0  0  0
 14 17  1  0  0  0  0
 14  4  1  0  0  0  0
 16 17  2  0  0  0  0
 17 15  2  0  0  0  0
 18 19  1  0  0  0  0
 19 20  1  0  0  0  0
 20 24  2  0  0  0  0
 21 23  2  0  0  0  0
 22 21  1  0  0  0  0
 22 19  2  0  0  0  0
 23 25  1  0  0  0  0
 23 24  1  0  0  0  0
 25 26  2  0  0  0  0
M  END
>  <MODEL>
5

>  <REMARK>
 VINA RESULT:      -6.1      2.638      4.284
  Name = 
  8 active torsions:
  status: ('A' for Active; 'I' for Inactive)
    1  A    between atoms: C_1  and  N_11
    2  A    between atoms: C_2  and  CA_16
    3  A    between atoms: C_4  and  C_17
    4  A    between atoms: C_4  and  C_18
    5  A    between atoms: O_5  and  C_19
    6  A    between atoms: O_5  and  N_21
    7  A    between atoms: C_6  and  O_22
    8  A    between atoms: O_22  and  C_26
                            x       y       z     vdW  Elec       q    Type
                         _______ _______ _______ _____ _____    ______ ____

>  <TORSDO>
F 8

$$$$
=
 OpenBabel11042418513D

 26 28  0  0  1  0  0  0  0  0999 V2000
  186.5280  176.9300  143.3040 C   0  0  0  0  0  0  0  0  0  0  0  0
  188.6960  175.2490  142.7960 C   0  0  0  0  0  3  0  0  0  0  0  0
  187.3590  176.5260  144.3500 C   0  0  0  0  0  3  0  0  0  0  0  0
  187.8670  175.6420  141.7400 C   0  0  0  0  0  0  0  0  0  0  0  0
  186.7820  176.4910  142.0020 C   0  0  0  0  0  3  0  0  0  0  0  0
  188.4560  175.6860  144.1040 C   0  0  0  0  0  0  0  0  0  0  0  0
  185.4230  177.7880  143.5650 N   0  0  0  0  0  0  0  0  0  0  0  0
  184.7300  178.8400  144.3560 C   0  0  1  0  0  0  0  0  0  0  0  0
  185.4080  180.1880  144.2030 C   0  0  0  0  0  1  0  0  0  0  0  0
  184.0620  178.3330  143.2620 C   0  0  0  0  0  2  0  0  0  0  0  0
  184.3350  178.3340  145.7360 C   0  0  0  0  0  2  0  0  0  0  0  0
  185.8410  177.6500  147.5280 N   0  0  0  0  0  1  0  0  0  0  0  0
  185.3190  178.7940  146.8010 C   0  0  0  0  0  2  0  0  0  0  0  0
  188.1680  175.1860  140.4490 O   0  0  0  0  0  0  0  0  0  0  0  0
  187.9680  172.7830  140.4390 O   0  0  0  0  0  0  0  0  0  0  0  0
  189.8510  173.8320  139.7610 O   0  0  0  0  0  0  0  0  0  0  0  0
  188.6740  173.9300  140.1620 N   0  0  0  0  0  0  0  0  0  0  0  0
  189.3160  175.2420  145.1220 O   0  0  0  0  0  0  0  0  0  0  0  0
  190.6740  175.5610  145.2860 C   0  0  0  0  0  0  0  0  0  0  0  0
  191.5790  174.7340  145.9670 C   0  0  0  0  0  3  0  0  0  0  0  0
  192.4470  177.1280  144.9160 N   0  0  0  0  0  0  0  0  0  0  0  0
  191.1420  176.7730  144.7680 C   0  0  0  0  0  3  0  0  0  0  0  0
  193.3370  176.3340  145.5670 C   0  0  0  0  0  0  0  0  0  0  0  0
  192.9130  175.1150  146.1080 C   0  0  0  0  0  3  0  0  0  0  0  0
  194.7300  176.7700  145.6940 C   0  0  0  0  0  3  0  0  0  0  0  0
  195.0290  177.9900  145.7840 O   0  0  0  0  0  0  0  0  0  0  0  0
  1  7  1  0  0  0  0
  1  3  1  0  0  0  0
  2  6  1  0  0  0  0
  4  5  1  0  0  0  0
  4  2  2  0  0  0  0
  5  1  2  0  0  0  0
  6  3  2  0  0  0  0
  6 18  1  0  0  0  0
  7  8  1  0  0  0  0
  8  9  1  6  0  0  0
  8 11  1  0  0  0  0
 10  7  1  0  0  0  0
 10  8  1  0  0  0  0
 11 13  1  0  0  0  0
 13 12  1  0  0  0  0
 14  4  1  0  0  0  0
 16 17  2  0  0  0  0
 17 15  2  0  0  0  0
 17 14  1  0  0  0  0
 18 19  1  0  0  0  0
 19 20  1  0  0  0  0
 20 24  2  0  0  0  0
 21 23  2  0  0  0  0
 22 21  1  0  0  0  0
 22 19  2  0  0  0  0
 23 25  1  0  0  0  0
 23 24  1  0  0  0  0
 25 26  2  0  0  0  0
M  END
>  <MODEL>
6

>  <REMARK>
 VINA RESULT:      -6.1      2.999      4.680
  Name = 
  8 active torsions:
  status: ('A' for Active; 'I' for Inactive)
    1  A    between atoms: C_1  and  N_11
    2  A    between atoms: C_2  and  CA_16
    3  A    between atoms: C_4  and  C_17
    4  A    between atoms: C_4  and  C_18
    5  A    between atoms: O_5  and  C_19
    6  A    between atoms: O_5  and  N_21
    7  A    between atoms: C_6  and  O_22
    8  A    between atoms: O_22  and  C_26
                            x       y       z     vdW  Elec       q    Type
                         _______ _______ _______ _____ _____    ______ ____

>  <TORSDO>
F 8

$$$$
=
 OpenBabel11042418513D

 26 28  0  0  1  0  0  0  0  0999 V2000
  189.4870  176.1630  145.1070 C   0  0  0  0  0  0  0  0  0  0  0  0
  187.1060  177.6160  145.1050 C   0  0  0  0  0  3  0  0  0  0  0  0
  189.0790  176.8340  143.9540 C   0  0  0  0  0  3  0  0  0  0  0  0
  187.5010  176.9420  146.2670 C   0  0  0  0  0  0  0  0  0  0  0  0
  188.7030  176.2180  146.2610 C   0  0  0  0  0  3  0  0  0  0  0  0
  187.8860  177.5730  143.9440 C   0  0  0  0  0  0  0  0  0  0  0  0
  190.7040  175.4240  145.1070 N   0  0  0  0  0  0  0  0  0  0  0  0
  192.1690  175.2960  145.3310 C   0  0  1  0  0  0  0  0  0  0  0  0
  192.5130  175.3640  146.8060 C   0  0  0  0  0  1  0  0  0  0  0  0
  191.5030  174.1780  144.8800 C   0  0  0  0  0  2  0  0  0  0  0  0
  192.9630  176.1150  144.3220 C   0  0  0  0  0  2  0  0  0  0  0  0
  195.3800  176.0210  144.6260 N   0  0  0  0  0  1  0  0  0  0  0  0
  194.2560  175.4170  143.9320 C   0  0  0  0  0  2  0  0  0  0  0  0
  186.6870  177.0360  147.4040 O   0  0  0  0  0  0  0  0  0  0  0  0
  184.8010  178.5210  147.6350 O   0  0  0  0  0  0  0  0  0  0  0  0
  186.8590  179.0710  148.3900 O   0  0  0  0  0  0  0  0  0  0  0  0
  186.1220  178.2130  147.8650 N   0  0  0  0  0  0  0  0  0  0  0  0
  187.4250  178.2560  142.8070 O   0  0  0  0  0  0  0  0  0  0  0  0
  186.1270  178.2340  142.2710 C   0  0  0  0  0  0  0  0  0  0  0  0
  184.9700  178.3370  143.0580 C   0  0  0  0  0  3  0  0  0  0  0  0
  184.7400  178.0360  140.3280 N   0  0  0  0  0  0  0  0  0  0  0  0
  185.9790  178.0760  140.8890 C   0  0  0  0  0  3  0  0  0  0  0  0
  183.6100  178.1410  141.0760 C   0  0  0  0  0  0  0  0  0  0  0  0
  183.7090  178.2940  142.4640 C   0  0  0  0  0  3  0  0  0  0  0  0
  182.3030  178.0920  140.4160 C   0  0  0  0  0  3  0  0  0  0  0  0
  181.2330  178.0900  141.0820 O   0  0  0  0  0  0  0  0  0  0  0  0
  1  5  1  0  0  0  0
  2  4  1  0  0  0  0
  3  1  2  0  0  0  0
  4 14  1  0  0  0  0
  5  4  2  0  0  0  0
  6  3  1  0  0  0  0
  6  2  2  0  0  0  0
  7  1  1  0  0  0  0
  7  8  1  0  0  0  0
  8  9  1  1  0  0  0
 10  7  1  0  0  0  0
 10  8  1  0  0  0  0
 11  8  1  0  0  0  0
 13 11  1  0  0  0  0
 13 12  1  0  0  0  0
 14 17  1  0  0  0  0
 15 17  2  0  0  0  0
 17 16  2  0  0  0  0
 18  6  1  0  0  0  0
 19 18  1  0  0  0  0
 19 20  1  0  0  0  0
 21 22  1  0  0  0  0
 21 23  2  0  0  0  0
 22 19  2  0  0  0  0
 23 24  1  0  0  0  0
 24 20  2  0  0  0  0
 25 23  1  0  0  0  0
 25 26  2  0  0  0  0
M  END
>  <MODEL>
7

>  <REMARK>
 VINA RESULT:      -6.0      2.538      7.631
  Name = 
  8 active torsions:
  status: ('A' for Active; 'I' for Inactive)
    1  A    between atoms: C_1  and  N_11
    2  A    between atoms: C_2  and  CA_16
    3  A    between atoms: C_4  and  C_17
    4  A    between atoms: C_4  and  C_18
    5  A    between atoms: O_5  and  C_19
    6  A    between atoms: O_5  and  N_21
    7  A    between atoms: C_6  and  O_22
    8  A    between atoms: O_22  and  C_26
                            x       y       z     vdW  Elec       q    Type
                         _______ _______ _______ _____ _____    ______ ____

>  <TORSDO>
F 8

$$$$
=
 OpenBabel11042418513D

 26 28  0  0  1  0  0  0  0  0999 V2000
  188.1060  176.9280  144.3050 C   0  0  0  0  0  0  0  0  0  0  0  0
  188.1810  176.0550  146.9540 C   0  0  0  0  0  3  0  0  0  0  0  0
  189.1700  176.1420  144.7520 C   0  0  0  0  0  3  0  0  0  0  0  0
  187.1130  176.8480  146.5190 C   0  0  0  0  0  0  0  0  0  0  0  0
  187.0800  177.2790  145.1850 C   0  0  0  0  0  3  0  0  0  0  0  0
  189.2140  175.6920  146.0810 C   0  0  0  0  0  0  0  0  0  0  0  0
  188.0700  177.3710  142.9530 N   0  0  0  0  0  0  0  0  0  0  0  0
  187.4340  177.4570  141.6110 C   0  0  1  0  0  0  0  0  0  0  0  0
  186.1690  178.2920  141.6470 C   0  0  0  0  0  1  0  0  0  0  0  0
  188.6350  178.1080  141.7800 C   0  0  0  0  0  2  0  0  0  0  0  0
  187.4400  176.1090  140.9020 C   0  0  0  0  0  2  0  0  0  0  0  0
  188.7980  174.1560  140.3670 N   0  0  0  0  0  1  0  0  0  0  0  0
  188.6780  175.2990  141.2550 C   0  0  0  0  0  2  0  0  0  0  0  0
  186.1000  177.1640  147.4350 O   0  0  0  0  0  0  0  0  0  0  0  0
  184.0550  178.3170  146.8850 O   0  0  0  0  0  0  0  0  0  0  0  0
  185.8650  179.4050  147.6890 O   0  0  0  0  0  0  0  0  0  0  0  0
  185.3350  178.3170  147.3880 N   0  0  0  0  0  0  0  0  0  0  0  0
  190.2650  174.9090  146.5830 O   0  0  0  0  0  0  0  0  0  0  0  0
  191.6320  175.0290  146.2840 C   0  0  0  0  0  0  0  0  0  0  0  0
  192.4630  175.9970  146.8670 C   0  0  0  0  0  3  0  0  0  0  0  0
  193.5040  174.2470  145.0100 N   0  0  0  0  0  0  0  0  0  0  0  0
  192.1870  174.1580  145.3410 C   0  0  0  0  0  3  0  0  0  0  0  0
  194.3230  175.1750  145.5720 C   0  0  0  0  0  0  0  0  0  0  0  0
  193.8110  176.0720  146.5160 C   0  0  0  0  0  3  0  0  0  0  0  0
  195.7340  175.2230  145.1780 C   0  0  0  0  0  3  0  0  0  0  0  0
  196.2470  174.3130  144.4730 O   0  0  0  0  0  0  0  0  0  0  0  0
  1  3  2  0  0  0  0
  1  5  1  0  0  0  0
  3  6  1  0  0  0  0
  4  2  1  0  0  0  0
  4 14  1  0  0  0  0
  5  4  2  0  0  0  0
  6 18  1  0  0  0  0
  6  2  2  0  0  0  0
  7  1  1  0  0  0  0
  8  9  1  6  0  0  0
  8 10  1  0  0  0  0
  8  7  1  0  0  0  0
 10  7  1  0  0  0  0
 11 13  1  0  0  0  0
 11  8  1  0  0  0  0
 12 13  1  0  0  0  0
 15 17  2  0  0  0  0
 17 14  1  0  0  0  0
 17 16  2  0  0  0  0
 19 18  1  0  0  0  0
 19 20  1  0  0  0  0
 21 22  1  0  0  0  0
 21 23  2  0  0  0  0
 22 19  2  0  0  0  0
 23 24  1  0  0  0  0
 24 20  2  0  0  0  0
 25 23  1  0  0  0  0
 26 25  2  0  0  0  0
M  END
>  <MODEL>
8

>  <REMARK>
 VINA RESULT:      -6.0      0.992      1.901
  Name = 
  8 active torsions:
  status: ('A' for Active; 'I' for Inactive)
    1  A    between atoms: C_1  and  N_11
    2  A    between atoms: C_2  and  CA_16
    3  A    between atoms: C_4  and  C_17
    4  A    between atoms: C_4  and  C_18
    5  A    between atoms: O_5  and  C_19
    6  A    between atoms: O_5  and  N_21
    7  A    between atoms: C_6  and  O_22
    8  A    between atoms: O_22  and  C_26
                            x       y       z     vdW  Elec       q    Type
                         _______ _______ _______ _____ _____    ______ ____

>  <TORSDO>
F 8

$$$$
=
 OpenBabel11042418513D

 26 28  0  0  1  0  0  0  0  0999 V2000
  187.4790  177.7560  144.3280 C   0  0  0  0  0  0  0  0  0  0  0  0
  189.8020  176.2430  144.6440 C   0  0  0  0  0  3  0  0  0  0  0  0
  188.0370  177.0950  143.2330 C   0  0  0  0  0  3  0  0  0  0  0  0
  189.2560  176.9060  145.7490 C   0  0  0  0  0  0  0  0  0  0  0  0
  188.0850  177.6600  145.5830 C   0  0  0  0  0  3  0  0  0  0  0  0
  189.2020  176.3270  143.3820 C   0  0  0  0  0  0  0  0  0  0  0  0
  186.2930  178.5250  144.1650 N   0  0  0  0  0  0  0  0  0  0  0  0
  184.8130  178.6760  144.1370 C   0  0  1  0  0  0  0  0  0  0  0  0
  184.2120  178.5200  145.5200 C   0  0  0  0  0  1  0  0  0  0  0  0
  185.5650  179.8040  143.8900 C   0  0  0  0  0  2  0  0  0  0  0  0
  184.1990  177.9480  142.9490 C   0  0  0  0  0  2  0  0  0  0  0  0
  183.9770  178.3310  140.5520 N   0  0  0  0  0  1  0  0  0  0  0  0
  184.9210  178.2850  141.6540 C   0  0  0  0  0  2  0  0  0  0  0  0
  189.8920  176.7710  146.9900 O   0  0  0  0  0  0  0  0  0  0  0  0
  189.2710  174.5310  147.6300 O   0  0  0  0  0  0  0  0  0  0  0  0
  191.2520  175.4420  148.2250 O   0  0  0  0  0  0  0  0  0  0  0  0
  190.1840  175.5590  147.5920 N   0  0  0  0  0  0  0  0  0  0  0  0
  189.8100  175.6520  142.3110 O   0  0  0  0  0  0  0  0  0  0  0  0
  189.9950  174.2660  142.1750 C   0  0  0  0  0  0  0  0  0  0  0  0
  189.0600  173.3210  142.6200 C   0  0  0  0  0  3  0  0  0  0  0  0
  191.4070  172.4720  141.4530 N   0  0  0  0  0  0  0  0  0  0  0  0
  191.1800  173.8060  141.5930 C   0  0  0  0  0  3  0  0  0  0  0  0
  190.5070  171.5430  141.8730 C   0  0  0  0  0  0  0  0  0  0  0  0
  189.3110  171.9570  142.4680 C   0  0  0  0  0  3  0  0  0  0  0  0
  190.8070  170.1200  141.6960 C   0  0  0  0  0  3  0  0  0  0  0  0
  190.8730  169.6030  140.5490 O   0  0  0  0  0  0  0  0  0  0  0  0
  1  5  1  0  0  0  0
  2  4  1  0  0  0  0
  3  6  1  0  0  0  0
  3  1  2  0  0  0  0
  4 14  1  0  0  0  0
  5  4  2  0  0  0  0
  6  2  2  0  0  0  0
  7  1  1  0  0  0  0
  8  7  1  0  0  0  0
  8  9  1  1  0  0  0
 10  8  1  0  0  0  0
 10  7  1  0  0  0  0
 11  8  1  0  0  0  0
 12 13  1  0  0  0  0
 13 11  1  0  0  0  0
 14 17  1  0  0  0  0
 17 15  2  0  0  0  0
 17 16  2  0  0  0  0
 18  6  1  0  0  0  0
 19 18  1  0  0  0  0
 19 20  1  0  0  0  0
 21 22  1  0  0  0  0
 21 23  2  0  0  0  0
 22 19  2  0  0  0  0
 23 24  1  0  0  0  0
 24 20  2  0  0  0  0
 25 23  1  0  0  0  0
 26 25  2  0  0  0  0
M  END
>  <MODEL>
9

>  <REMARK>
 VINA RESULT:      -6.0      3.356      4.844
  Name = 
  8 active torsions:
  status: ('A' for Active; 'I' for Inactive)
    1  A    between atoms: C_1  and  N_11
    2  A    between atoms: C_2  and  CA_16
    3  A    between atoms: C_4  and  C_17
    4  A    between atoms: C_4  and  C_18
    5  A    between atoms: O_5  and  C_19
    6  A    between atoms: O_5  and  N_21
    7  A    between atoms: C_6  and  O_22
    8  A    between atoms: O_22  and  C_26
                            x       y       z     vdW  Elec       q    Type
                         _______ _______ _______ _____ _____    ______ ____

>  <TORSDO>
F 8

$$$$
