=
 OpenBabel11042416363D

 32 35  0  0  1  0  0  0  0  0999 V2000
  186.5170  177.3310  144.4610 C   0  0  0  0  0  0  0  0  0  0  0  0
  185.1080  178.0380  142.0720 C   0  0  0  0  0  0  0  0  0  0  0  0
  185.0220  177.8830  139.6900 N   0  0  0  0  0  0  0  0  0  0  0  0
  187.0130  177.0630  143.2880 N   0  0  0  0  0  0  0  0  0  0  0  0
  186.3320  177.3510  142.0630 C   0  0  0  0  0  0  0  0  0  0  0  0
  186.7530  176.7930  138.4170 N   0  0  0  0  0  1  0  0  0  0  0  0
  186.8820  176.9350  140.8500 C   0  0  0  0  0  3  0  0  0  0  0  0
  186.2040  177.2120  139.6610 C   0  0  0  0  0  0  0  0  0  0  0  0
  184.5100  178.1120  145.7270 C   0  0  0  0  0  3  0  0  0  0  0  0
  184.5180  178.5480  143.3520 C   0  0  0  0  0  2  0  0  0  0  0  0
  187.2770  177.0130  145.6340 N   0  0  0  0  0  2  0  0  0  0  0  0
  184.4670  178.3010  140.8600 C   0  0  0  0  0  3  0  0  0  0  0  0
  185.1750  177.9740  144.5750 C   0  0  0  0  0  0  0  0  0  0  0  0
  189.6790  177.3980  145.6060 C   0  0  0  0  0  2  0  0  0  0  0  0
  191.0380  176.7040  145.6850 C   0  0  0  0  0  2  0  0  0  0  0  0
  191.1120  175.8950  146.9020 N   0  0  0  0  0  0  0  0  0  0  0  0
  188.7180  175.4090  146.7880 C   0  0  0  0  0  2  0  0  0  0  0  0
  190.1270  174.8200  146.8040 C   0  0  0  0  0  2  0  0  0  0  0  0
  188.5710  176.3490  145.5920 C   0  0  1  0  0  3  0  0  0  0  0  0
  192.4230  175.2640  146.9200 C   0  0  0  0  0  2  0  0  0  0  0  0
  192.7340  174.7300  145.6020 N   0  0  0  0  0  2  0  0  0  0  0  0
  193.9600  174.0590  145.7090 N   0  0  0  0  0  2  0  0  0  0  0  0
  196.3070  174.4560  145.5440 C   0  0  0  0  0  0  0  0  0  0  0  0
  196.2090  175.9280  143.7990 O   0  0  0  0  0  0  0  0  0  0  0  0
  196.9240  174.9310  144.3800 N   0  0  0  0  0  2  0  0  0  0  0  0
  194.9320  175.8850  144.4260 C   0  0  0  0  0  2  0  0  0  0  0  0
  195.0020  175.0730  145.7210 C   0  0  1  0  0  3  0  0  0  0  0  0
  196.8290  173.6090  146.3140 O   0  0  0  0  0  0  0  0  0  0  0  0
  184.9950  177.6230  146.9760 N   0  0  0  0  0  2  0  0  0  0  0  0
  185.1050  178.4760  148.0840 N   0  0  0  0  0  2  0  0  0  0  0  0
  186.0070  179.4890  147.7350 N   0  0  0  0  0  2  0  0  0  0  0  0
  187.1480  179.3010  148.5250 N   0  0  0  0  0  1  0  0  0  0  0  0
  1 13  1  0  0  0  0
  1 11  1  0  0  0  0
  2 10  1  0  0  0  0
  3 12  1  0  0  0  0
  4  1  2  0  0  0  0
  5  2  1  0  0  0  0
  5  4  1  0  0  0  0
  6  8  1  0  0  0  0
  7  5  2  0  0  0  0
  8  3  2  0  0  0  0
  8  7  1  0  0  0  0
  9 29  1  0  0  0  0
 10 13  1  0  0  0  0
 12  2  2  0  0  0  0
 13  9  2  0  0  0  0
 14 15  1  0  0  0  0
 15 16  1  0  0  0  0
 16 20  1  0  0  0  0
 17 18  1  0  0  0  0
 18 16  1  0  0  0  0
 19 14  1  0  0  0  0
 19 11  1  1  0  0  0
 19 17  1  0  0  0  0
 21 22  1  0  0  0  0
 21 20  1  0  0  0  0
 23 27  1  0  0  0  0
 23 28  2  0  0  0  0
 24 25  1  0  0  0  0
 24 26  1  0  0  0  0
 25 23  1  0  0  0  0
 26 27  1  0  0  0  0
 27 22  1  6  0  0  0
 29 30  1  0  0  0  0
 31 30  1  0  0  0  0
 31 32  1  0  0  0  0
M  END
>  <MODEL>
1

>  <REMARK>
 VINA RESULT:      -7.1      0.000      0.000
  Name = 
  8 active torsions:
  status: ('A' for Active; 'I' for Inactive)
    1  A    between atoms: N_2  and  N_12
    2  A    between atoms: N_2  and  C_17
    3  A    between atoms: N_4  and  N_29
    4  A    between atoms: N_4  and  N_31
    5  A    between atoms: N_8  and  C_17
    6  A    between atoms: N_12  and  C_28
    7  A    between atoms: C_21  and  N_31
    8  A    between atoms: N_24  and  C_27
                            x       y       z     vdW  Elec       q    Type
                         _______ _______ _______ _____ _____    ______ ____

>  <TORSDO>
F 8

$$$$
=
 OpenBabel11042416363D

 32 35  0  0  1  0  0  0  0  0999 V2000
  193.0530  176.1610  144.2930 C   0  0  0  0  0  0  0  0  0  0  0  0
  195.8410  175.5990  143.9760 C   0  0  0  0  0  0  0  0  0  0  0  0
  197.6750  175.4060  142.4570 N   0  0  0  0  0  0  0  0  0  0  0  0
  193.5860  176.0670  143.1090 N   0  0  0  0  0  0  0  0  0  0  0  0
  194.9810  175.8350  142.8920 C   0  0  0  0  0  0  0  0  0  0  0  0
  197.3940  175.6560  140.0770 N   0  0  0  0  0  1  0  0  0  0  0  0
  195.4930  175.8550  141.5940 C   0  0  0  0  0  3  0  0  0  0  0  0
  196.8580  175.6380  141.3940 C   0  0  0  0  0  0  0  0  0  0  0  0
  193.4850  176.2880  146.7500 C   0  0  0  0  0  3  0  0  0  0  0  0
  195.3150  175.5140  145.3760 C   0  0  0  0  0  2  0  0  0  0  0  0
  191.6430  176.3880  144.4120 N   0  0  0  0  0  2  0  0  0  0  0  0
  197.1980  175.3780  143.7310 C   0  0  0  0  0  3  0  0  0  0  0  0
  193.9060  176.0210  145.5090 C   0  0  0  0  0  0  0  0  0  0  0  0
  189.8620  175.3520  143.1160 C   0  0  0  0  0  2  0  0  0  0  0  0
  188.8570  175.5950  141.9920 C   0  0  0  0  0  2  0  0  0  0  0  0
  188.0420  176.7710  142.3010 N   0  0  0  0  0  0  0  0  0  0  0  0
  189.9190  177.8340  143.4530 C   0  0  0  0  0  2  0  0  0  0  0  0
  188.9110  177.9460  142.3110 C   0  0  0  0  0  2  0  0  0  0  0  0
  190.7640  176.5740  143.2670 C   0  0  1  0  0  3  0  0  0  0  0  0
  187.1090  176.9490  141.1980 C   0  0  0  0  0  2  0  0  0  0  0  0
  185.8600  177.5120  141.6910 N   0  0  0  0  0  2  0  0  0  0  0  0
  185.5630  176.8620  142.8970 N   0  0  0  0  0  2  0  0  0  0  0  0
  185.3540  177.7270  145.1100 C   0  0  0  0  0  0  0  0  0  0  0  0
  185.7770  179.9110  144.5860 O   0  0  0  0  0  0  0  0  0  0  0  0
  185.9330  178.9370  145.5180 N   0  0  0  0  0  2  0  0  0  0  0  0
  185.3660  179.2350  143.4040 C   0  0  0  0  0  2  0  0  0  0  0  0
  184.8740  177.8250  143.7410 C   0  0  1  0  0  3  0  0  0  0  0  0
  185.2760  176.7090  145.8450 O   0  0  0  0  0  0  0  0  0  0  0  0
  192.1780  176.7760  147.0470 N   0  0  0  0  0  2  0  0  0  0  0  0
  191.3870  176.1540  148.0230 N   0  0  0  0  0  2  0  0  0  0  0  0
  190.9500  174.9360  147.4860 N   0  0  0  0  0  2  0  0  0  0  0  0
  189.5750  175.0680  147.2600 N   0  0  0  0  0  1  0  0  0  0  0  0
  1 11  1  0  0  0  0
  1 13  1  0  0  0  0
  2 10  1  0  0  0  0
  3 12  2  0  0  0  0
  4  1  2  0  0  0  0
  5  4  1  0  0  0  0
  5  2  2  0  0  0  0
  6  8  1  0  0  0  0
  7  5  1  0  0  0  0
  8  7  2  0  0  0  0
  8  3  1  0  0  0  0
  9 29  1  0  0  0  0
 10 13  1  0  0  0  0
 12  2  1  0  0  0  0
 13  9  2  0  0  0  0
 14 19  1  0  0  0  0
 15 16  1  0  0  0  0
 15 14  1  0  0  0  0
 16 18  1  0  0  0  0
 18 17  1  0  0  0  0
 19 17  1  0  0  0  0
 19 11  1  1  0  0  0
 20 21  1  0  0  0  0
 20 16  1  0  0  0  0
 21 22  1  0  0  0  0
 23 25  1  0  0  0  0
 23 28  2  0  0  0  0
 24 25  1  0  0  0  0
 26 27  1  0  0  0  0
 26 24  1  0  0  0  0
 27 22  1  6  0  0  0
 27 23  1  0  0  0  0
 29 30  1  0  0  0  0
 31 30  1  0  0  0  0
 32 31  1  0  0  0  0
M  END
>  <MODEL>
2

>  <REMARK>
 VINA RESULT:      -7.1      3.606      8.905
  Name = 
  8 active torsions:
  status: ('A' for Active; 'I' for Inactive)
    1  A    between atoms: N_2  and  N_12
    2  A    between atoms: N_2  and  C_17
    3  A    between atoms: N_4  and  N_29
    4  A    between atoms: N_4  and  N_31
    5  A    between atoms: N_8  and  C_17
    6  A    between atoms: N_12  and  C_28
    7  A    between atoms: C_21  and  N_31
    8  A    between atoms: N_24  and  C_27
                            x       y       z     vdW  Elec       q    Type
                         _______ _______ _______ _____ _____    ______ ____

>  <TORSDO>
F 8

$$$$
=
 OpenBabel11042416363D

 32 35  0  0  1  0  0  0  0  0999 V2000
  195.0060  174.3790  144.8210 C   0  0  0  0  0  0  0  0  0  0  0  0
  196.5910  172.0480  145.3170 C   0  0  0  0  0  0  0  0  0  0  0  0
  196.6020  169.7380  145.9270 N   0  0  0  0  0  0  0  0  0  0  0  0
  194.4670  173.2900  145.2880 N   0  0  0  0  0  0  0  0  0  0  0  0
  195.2020  172.0830  145.5110 C   0  0  0  0  0  0  0  0  0  0  0  0
  194.5840  168.5650  146.5230 N   0  0  0  0  0  1  0  0  0  0  0  0
  194.5300  170.9270  145.9120 C   0  0  0  0  0  3  0  0  0  0  0  0
  195.2550  169.7510  146.1160 C   0  0  0  0  0  0  0  0  0  0  0  0
  197.0570  175.4120  143.8370 C   0  0  0  0  0  3  0  0  0  0  0  0
  197.3500  173.2850  144.9430 C   0  0  0  0  0  2  0  0  0  0  0  0
  194.1910  175.5440  144.6380 N   0  0  0  0  0  2  0  0  0  0  0  0
  197.2790  170.8540  145.5400 C   0  0  0  0  0  3  0  0  0  0  0  0
  196.4610  174.4100  144.4920 C   0  0  0  0  0  0  0  0  0  0  0  0
  192.5030  176.2210  146.2550 C   0  0  0  0  0  2  0  0  0  0  0  0
  190.9980  176.3570  146.4790 C   0  0  0  0  0  2  0  0  0  0  0  0
  190.4100  177.1770  145.4190 N   0  0  0  0  0  0  0  0  0  0  0  0
  192.0360  176.3360  143.7960 C   0  0  0  0  0  2  0  0  0  0  0  0
  190.5560  176.4660  144.1500 C   0  0  0  0  0  2  0  0  0  0  0  0
  192.7590  175.5660  144.9010 C   0  0  1  0  0  3  0  0  0  0  0  0
  188.9830  177.2690  145.6870 C   0  0  0  0  0  2  0  0  0  0  0  0
  188.2960  177.8310  144.5340 N   0  0  0  0  0  2  0  0  0  0  0  0
  186.9590  177.4160  144.6090 N   0  0  0  0  0  2  0  0  0  0  0  0
  185.3600  179.1160  145.0980 C   0  0  0  0  0  0  0  0  0  0  0  0
  184.0920  177.8840  146.5470 O   0  0  0  0  0  0  0  0  0  0  0  0
  184.0750  178.8430  145.5850 N   0  0  0  0  0  2  0  0  0  0  0  0
  185.3820  177.2910  146.4590 C   0  0  0  0  0  2  0  0  0  0  0  0
  186.3300  178.1930  145.6640 C   0  0  1  0  0  3  0  0  0  0  0  0
  185.6140  180.0390  144.2810 O   0  0  0  0  0  0  0  0  0  0  0  0
  196.3550  176.5520  143.3440 N   0  0  0  0  0  2  0  0  0  0  0  0
  196.4170  176.8960  141.9860 N   0  0  0  0  0  2  0  0  0  0  0  0
  195.8970  175.8150  141.2630 N   0  0  0  0  0  2  0  0  0  0  0  0
  194.5200  176.0350  141.1450 N   0  0  0  0  0  1  0  0  0  0  0  0
  1  4  2  0  0  0  0
  2  5  2  0  0  0  0
  2 12  1  0  0  0  0
  3  8  1  0  0  0  0
  4  5  1  0  0  0  0
  5  7  1  0  0  0  0
  7  8  2  0  0  0  0
  8  6  1  0  0  0  0
  9 13  2  0  0  0  0
 10  2  1  0  0  0  0
 11  1  1  0  0  0  0
 12  3  2  0  0  0  0
 13  1  1  0  0  0  0
 13 10  1  0  0  0  0
 14 15  1  0  0  0  0
 16 20  1  0  0  0  0
 16 15  1  0  0  0  0
 17 18  1  0  0  0  0
 17 19  1  0  0  0  0
 18 16  1  0  0  0  0
 19 11  1  6  0  0  0
 19 14  1  0  0  0  0
 21 22  1  0  0  0  0
 21 20  1  0  0  0  0
 23 25  1  0  0  0  0
 23 27  1  0  0  0  0
 25 24  1  0  0  0  0
 26 24  1  0  0  0  0
 27 22  1  6  0  0  0
 27 26  1  0  0  0  0
 28 23  2  0  0  0  0
 29  9  1  0  0  0  0
 30 29  1  0  0  0  0
 31 30  1  0  0  0  0
 32 31  1  0  0  0  0
M  END
>  <MODEL>
3

>  <REMARK>
 VINA RESULT:      -6.8      4.148     10.567
  Name = 
  8 active torsions:
  status: ('A' for Active; 'I' for Inactive)
    1  A    between atoms: N_2  and  N_12
    2  A    between atoms: N_2  and  C_17
    3  A    between atoms: N_4  and  N_29
    4  A    between atoms: N_4  and  N_31
    5  A    between atoms: N_8  and  C_17
    6  A    between atoms: N_12  and  C_28
    7  A    between atoms: C_21  and  N_31
    8  A    between atoms: N_24  and  C_27
                            x       y       z     vdW  Elec       q    Type
                         _______ _______ _______ _____ _____    ______ ____

>  <TORSDO>
F 8

$$$$
=
 OpenBabel11042416363D

 32 35  0  0  1  0  0  0  0  0999 V2000
  188.7200  176.5630  144.4220 C   0  0  0  0  0  0  0  0  0  0  0  0
  186.0300  177.5350  144.3130 C   0  0  0  0  0  0  0  0  0  0  0  0
  184.2280  178.2600  142.9220 N   0  0  0  0  0  0  0  0  0  0  0  0
  188.1950  176.9550  143.2980 N   0  0  0  0  0  0  0  0  0  0  0  0
  186.8420  177.4060  143.1760 C   0  0  0  0  0  0  0  0  0  0  0  0
  184.4550  178.4460  140.5310 N   0  0  0  0  0  1  0  0  0  0  0  0
  186.3230  177.7080  141.9170 C   0  0  0  0  0  3  0  0  0  0  0  0
  184.9990  178.1360  141.8080 C   0  0  0  0  0  0  0  0  0  0  0  0
  188.2920  176.0150  146.8220 C   0  0  0  0  0  3  0  0  0  0  0  0
  186.5740  177.2750  145.6850 C   0  0  0  0  0  2  0  0  0  0  0  0
  190.0870  176.1340  144.4480 N   0  0  0  0  0  2  0  0  0  0  0  0
  184.7140  177.9760  144.1610 C   0  0  0  0  0  3  0  0  0  0  0  0
  187.9020  176.5720  145.6710 C   0  0  0  0  0  0  0  0  0  0  0  0
  192.3130  176.6060  143.5840 C   0  0  0  0  0  2  0  0  0  0  0  0
  193.2290  176.4190  142.3770 C   0  0  0  0  0  2  0  0  0  0  0  0
  193.3240  174.9980  142.0400 N   0  0  0  0  0  0  0  0  0  0  0  0
  191.0220  174.6170  142.7740 C   0  0  0  0  0  2  0  0  0  0  0  0
  192.0070  174.5360  141.6090 C   0  0  0  0  0  2  0  0  0  0  0  0
  190.9240  176.0630  143.2590 C   0  0  1  0  0  3  0  0  0  0  0  0
  194.2060  174.8870  140.8880 C   0  0  0  0  0  2  0  0  0  0  0  0
  195.4120  174.1600  141.2540 N   0  0  0  0  0  2  0  0  0  0  0  0
  196.4550  175.0940  141.3110 N   0  0  0  0  0  2  0  0  0  0  0  0
  196.6780  175.9210  143.5370 C   0  0  0  0  0  0  0  0  0  0  0  0
  196.1520  173.9690  144.6030 O   0  0  0  0  0  0  0  0  0  0  0  0
  196.0580  175.3230  144.6430 N   0  0  0  0  0  2  0  0  0  0  0  0
  196.5640  173.6630  143.2770 C   0  0  0  0  0  2  0  0  0  0  0  0
  197.1220  174.9120  142.5900 C   0  0  1  0  0  3  0  0  0  0  0  0
  196.8160  177.1650  143.4040 O   0  0  0  0  0  0  0  0  0  0  0  0
  189.5240  175.3120  146.9750 N   0  0  0  0  0  2  0  0  0  0  0  0
  190.5410  175.8220  147.7930 N   0  0  0  0  0  2  0  0  0  0  0  0
  191.7510  175.2930  147.3250 N   0  0  0  0  0  2  0  0  0  0  0  0
  192.6020  176.3810  147.0950 N   0  0  0  0  0  1  0  0  0  0  0  0
  1 11  1  0  0  0  0
  1 13  1  0  0  0  0
  2 10  1  0  0  0  0
  3 12  2  0  0  0  0
  4  1  2  0  0  0  0
  5  4  1  0  0  0  0
  5  2  2  0  0  0  0
  6  8  1  0  0  0  0
  7  5  1  0  0  0  0
  8  7  2  0  0  0  0
  8  3  1  0  0  0  0
  9 29  1  0  0  0  0
 12  2  1  0  0  0  0
 13 10  1  0  0  0  0
 13  9  2  0  0  0  0
 15 14  1  0  0  0  0
 16 15  1  0  0  0  0
 17 19  1  0  0  0  0
 18 16  1  0  0  0  0
 18 17  1  0  0  0  0
 19 14  1  0  0  0  0
 19 11  1  1  0  0  0
 20 21  1  0  0  0  0
 20 16  1  0  0  0  0
 21 22  1  0  0  0  0
 23 25  1  0  0  0  0
 24 25  1  0  0  0  0
 26 24  1  0  0  0  0
 27 22  1  6  0  0  0
 27 26  1  0  0  0  0
 27 23  1  0  0  0  0
 28 23  2  0  0  0  0
 29 30  1  0  0  0  0
 31 30  1  0  0  0  0
 32 31  1  0  0  0  0
M  END
>  <MODEL>
4

>  <REMARK>
 VINA RESULT:      -6.6      2.475      4.082
  Name = 
  8 active torsions:
  status: ('A' for Active; 'I' for Inactive)
    1  A    between atoms: N_2  and  N_12
    2  A    between atoms: N_2  and  C_17
    3  A    between atoms: N_4  and  N_29
    4  A    between atoms: N_4  and  N_31
    5  A    between atoms: N_8  and  C_17
    6  A    between atoms: N_12  and  C_28
    7  A    between atoms: C_21  and  N_31
    8  A    between atoms: N_24  and  C_27
                            x       y       z     vdW  Elec       q    Type
                         _______ _______ _______ _____ _____    ______ ____

>  <TORSDO>
F 8

$$$$
=
 OpenBabel11042416363D

 32 35  0  0  1  0  0  0  0  0999 V2000
  189.8020  175.2120  142.5730 C   0  0  0  0  0  0  0  0  0  0  0  0
  191.8010  174.9260  144.6010 C   0  0  0  0  0  0  0  0  0  0  0  0
  192.4850  175.4930  146.8180 N   0  0  0  0  0  0  0  0  0  0  0  0
  189.7370  175.8970  143.6770 N   0  0  0  0  0  0  0  0  0  0  0  0
  190.6820  175.7600  144.7430 C   0  0  0  0  0  0  0  0  0  0  0  0
  191.2120  176.9990  148.2020 N   0  0  0  0  0  1  0  0  0  0  0  0
  190.4820  176.4510  145.9390 C   0  0  0  0  0  3  0  0  0  0  0  0
  191.4040  176.3020  146.9770 C   0  0  0  0  0  0  0  0  0  0  0  0
  190.9450  173.3510  141.3590 C   0  0  0  0  0  3  0  0  0  0  0  0
  192.0760  174.2150  143.3100 C   0  0  0  0  0  2  0  0  0  0  0  0
  188.8130  175.4230  141.5560 N   0  0  0  0  0  2  0  0  0  0  0  0
  192.7030  174.8120  145.6600 C   0  0  0  0  0  3  0  0  0  0  0  0
  190.9040  174.2270  142.3690 C   0  0  0  0  0  0  0  0  0  0  0  0
  186.7900  175.8470  142.8400 C   0  0  0  0  0  2  0  0  0  0  0  0
  185.6800  176.8660  143.0860 C   0  0  0  0  0  2  0  0  0  0  0  0
  186.2640  178.1580  143.4500 N   0  0  0  0  0  0  0  0  0  0  0  0
  188.2010  177.7450  142.0140 C   0  0  0  0  0  2  0  0  0  0  0  0
  187.0160  178.6650  142.3040 C   0  0  0  0  0  2  0  0  0  0  0  0
  187.6910  176.3370  141.7100 C   0  0  1  0  0  3  0  0  0  0  0  0
  185.1620  179.0820  143.6710 C   0  0  0  0  0  2  0  0  0  0  0  0
  185.2060  179.5910  145.0330 N   0  0  0  0  0  2  0  0  0  0  0  0
  184.1690  178.9660  145.7400 N   0  0  0  0  0  2  0  0  0  0  0  0
  185.3740  177.2460  146.8700 C   0  0  0  0  0  0  0  0  0  0  0  0
  187.0580  178.5720  147.6620 O   0  0  0  0  0  0  0  0  0  0  0  0
  186.7360  177.3430  147.1840 N   0  0  0  0  0  2  0  0  0  0  0  0
  185.9420  179.3970  147.3520 C   0  0  0  0  0  2  0  0  0  0  0  0
  184.7210  178.5370  147.0150 C   0  0  1  0  0  3  0  0  0  0  0  0
  184.8160  176.1760  146.5120 O   0  0  0  0  0  0  0  0  0  0  0  0
  189.9140  173.2350  140.3800 N   0  0  0  0  0  2  0  0  0  0  0  0
  190.2030  173.3770  139.0160 N   0  0  0  0  0  2  0  0  0  0  0  0
  189.0400  173.8490  138.3940 N   0  0  0  0  0  2  0  0  0  0  0  0
  189.2370  173.7110  137.0150 N   0  0  0  0  0  1  0  0  0  0  0  0
  1  4  2  0  0  0  0
  2  5  2  0  0  0  0
  2 12  1  0  0  0  0
  3  8  1  0  0  0  0
  4  5  1  0  0  0  0
  5  7  1  0  0  0  0
  7  8  2  0  0  0  0
  8  6  1  0  0  0  0
  9 13  2  0  0  0  0
 10  2  1  0  0  0  0
 11  1  1  0  0  0  0
 12  3  2  0  0  0  0
 13  1  1  0  0  0  0
 13 10  1  0  0  0  0
 14 15  1  0  0  0  0
 15 16  1  0  0  0  0
 16 20  1  0  0  0  0
 17 18  1  0  0  0  0
 18 16  1  0  0  0  0
 19 11  1  1  0  0  0
 19 17  1  0  0  0  0
 19 14  1  0  0  0  0
 20 21  1  0  0  0  0
 21 22  1  0  0  0  0
 23 27  1  0  0  0  0
 23 25  1  0  0  0  0
 25 24  1  0  0  0  0
 26 24  1  0  0  0  0
 27 22  1  6  0  0  0
 27 26  1  0  0  0  0
 28 23  2  0  0  0  0
 29  9  1  0  0  0  0
 30 29  1  0  0  0  0
 31 30  1  0  0  0  0
 32 31  1  0  0  0  0
M  END
>  <MODEL>
5

>  <REMARK>
 VINA RESULT:      -6.5      3.833      8.847
  Name = 
  8 active torsions:
  status: ('A' for Active; 'I' for Inactive)
    1  A    between atoms: N_2  and  N_12
    2  A    between atoms: N_2  and  C_17
    3  A    between atoms: N_4  and  N_29
    4  A    between atoms: N_4  and  N_31
    5  A    between atoms: N_8  and  C_17
    6  A    between atoms: N_12  and  C_28
    7  A    between atoms: C_21  and  N_31
    8  A    between atoms: N_24  and  C_27
                            x       y       z     vdW  Elec       q    Type
                         _______ _______ _______ _____ _____    ______ ____

>  <TORSDO>
F 8

$$$$
=
 OpenBabel11042416363D

 32 35  0  0  1  0  0  0  0  0999 V2000
  188.1720  175.9540  144.4400 C   0  0  0  0  0  0  0  0  0  0  0  0
  185.9190  177.7130  144.5970 C   0  0  0  0  0  0  0  0  0  0  0  0
  184.0640  178.6820  143.4450 N   0  0  0  0  0  0  0  0  0  0  0  0
  187.4810  176.2510  143.3780 N   0  0  0  0  0  0  0  0  0  0  0  0
  186.3190  177.0870  143.4050 C   0  0  0  0  0  0  0  0  0  0  0  0
  183.6590  178.2760  141.1050 N   0  0  0  0  0  1  0  0  0  0  0  0
  185.5710  177.2710  142.2420 C   0  0  0  0  0  3  0  0  0  0  0  0
  184.4330  178.0800  142.2820 C   0  0  0  0  0  0  0  0  0  0  0  0
  188.2970  176.0940  146.9310 C   0  0  0  0  0  3  0  0  0  0  0  0
  186.7320  177.5820  145.8490 C   0  0  0  0  0  2  0  0  0  0  0  0
  189.3270  175.1140  144.3130 N   0  0  0  0  0  2  0  0  0  0  0  0
  184.7800  178.5200  144.5910 C   0  0  0  0  0  3  0  0  0  0  0  0
  187.7660  176.4940  145.7710 C   0  0  0  0  0  0  0  0  0  0  0  0
  191.1440  175.0330  142.6960 C   0  0  0  0  0  2  0  0  0  0  0  0
  191.6420  174.3220  141.4400 C   0  0  0  0  0  2  0  0  0  0  0  0
  191.6920  172.8780  141.6730 N   0  0  0  0  0  0  0  0  0  0  0  0
  189.7580  172.9990  143.1650 C   0  0  0  0  0  2  0  0  0  0  0  0
  190.3290  172.3960  141.8830 C   0  0  0  0  0  2  0  0  0  0  0  0
  189.7500  174.5230  143.0530 C   0  0  1  0  0  3  0  0  0  0  0  0
  192.1710  172.2610  140.4450 C   0  0  0  0  0  2  0  0  0  0  0  0
  191.7840  173.0690  139.2990 N   0  0  0  0  0  2  0  0  0  0  0  0
  191.6240  172.1960  138.2140 N   0  0  0  0  0  2  0  0  0  0  0  0
  189.3270  171.5590  138.3170 C   0  0  0  0  0  0  0  0  0  0  0  0
  188.4890  173.6420  138.7440 O   0  0  0  0  0  0  0  0  0  0  0  0
  188.3520  172.3130  138.9830 N   0  0  0  0  0  2  0  0  0  0  0  0
  189.7800  173.7850  138.1640 C   0  0  0  0  0  2  0  0  0  0  0  0
  190.2960  172.4300  137.6710 C   0  0  1  0  0  3  0  0  0  0  0  0
  189.3430  170.3010  138.2970 O   0  0  0  0  0  0  0  0  0  0  0  0
  189.2880  175.0730  147.0290 N   0  0  0  0  0  2  0  0  0  0  0  0
  190.4730  175.2930  147.7460 N   0  0  0  0  0  2  0  0  0  0  0  0
  190.9930  176.5200  147.3150 N   0  0  0  0  0  2  0  0  0  0  0  0
  191.9500  176.2290  146.3350 N   0  0  0  0  0  1  0  0  0  0  0  0
  1 13  1  0  0  0  0
  2 10  1  0  0  0  0
  3 12  2  0  0  0  0
  4  5  1  0  0  0  0
  4  1  2  0  0  0  0
  5  2  2  0  0  0  0
  6  8  1  0  0  0  0
  7  8  2  0  0  0  0
  7  5  1  0  0  0  0
  8  3  1  0  0  0  0
  9 29  1  0  0  0  0
 11  1  1  0  0  0  0
 12  2  1  0  0  0  0
 13 10  1  0  0  0  0
 13  9  2  0  0  0  0
 14 19  1  0  0  0  0
 15 16  1  0  0  0  0
 15 14  1  0  0  0  0
 16 18  1  0  0  0  0
 18 17  1  0  0  0  0
 19 17  1  0  0  0  0
 19 11  1  1  0  0  0
 20 16  1  0  0  0  0
 21 20  1  0  0  0  0
 22 21  1  0  0  0  0
 23 25  1  0  0  0  0
 24 25  1  0  0  0  0
 26 24  1  0  0  0  0
 27 26  1  0  0  0  0
 27 22  1  1  0  0  0
 27 23  1  0  0  0  0
 28 23  2  0  0  0  0
 29 30  1  0  0  0  0
 31 30  1  0  0  0  0
 32 31  1  0  0  0  0
M  END
>  <MODEL>
6

>  <REMARK>
 VINA RESULT:      -6.5      4.352      6.039
  Name = 
  8 active torsions:
  status: ('A' for Active; 'I' for Inactive)
    1  A    between atoms: N_2  and  N_12
    2  A    between atoms: N_2  and  C_17
    3  A    between atoms: N_4  and  N_29
    4  A    between atoms: N_4  and  N_31
    5  A    between atoms: N_8  and  C_17
    6  A    between atoms: N_12  and  C_28
    7  A    between atoms: C_21  and  N_31
    8  A    between atoms: N_24  and  C_27
                            x       y       z     vdW  Elec       q    Type
                         _______ _______ _______ _____ _____    ______ ____

>  <TORSDO>
F 8

$$$$
=
 OpenBabel11042416363D

 32 35  0  0  1  0  0  0  0  0999 V2000
  193.5030  175.9610  143.0130 C   0  0  0  0  0  0  0  0  0  0  0  0
  195.9670  175.3980  141.6700 C   0  0  0  0  0  0  0  0  0  0  0  0
  197.0520  175.0080  139.5770 N   0  0  0  0  0  0  0  0  0  0  0  0
  193.5260  175.7000  141.7390 N   0  0  0  0  0  0  0  0  0  0  0  0
  194.7320  175.4580  141.0070 C   0  0  0  0  0  0  0  0  0  0  0  0
  195.8280  174.8970  137.5050 N   0  0  0  0  0  1  0  0  0  0  0  0
  194.6800  175.2920  139.6230 C   0  0  0  0  0  3  0  0  0  0  0  0
  195.8640  175.0670  138.9160 C   0  0  0  0  0  0  0  0  0  0  0  0
  194.8700  176.4580  145.0460 C   0  0  0  0  0  3  0  0  0  0  0  0
  196.0510  175.5150  143.1610 C   0  0  0  0  0  2  0  0  0  0  0  0
  192.2450  176.1820  143.6630 N   0  0  0  0  0  2  0  0  0  0  0  0
  197.1260  175.1630  140.9270 C   0  0  0  0  0  3  0  0  0  0  0  0
  194.7790  176.0160  143.7870 C   0  0  0  0  0  0  0  0  0  0  0  0
  190.0380  175.1580  143.5970 C   0  0  0  0  0  2  0  0  0  0  0  0
  188.6620  175.2420  142.9410 C   0  0  0  0  0  2  0  0  0  0  0  0
  188.1090  176.5860  143.1170 N   0  0  0  0  0  0  0  0  0  0  0  0
  190.3440  177.5750  143.0130 C   0  0  0  0  0  2  0  0  0  0  0  0
  188.9510  177.5320  142.3870 C   0  0  0  0  0  2  0  0  0  0  0  0
  190.9720  176.1830  142.9590 C   0  0  1  0  0  3  0  0  0  0  0  0
  186.8050  176.6020  142.4730 C   0  0  0  0  0  2  0  0  0  0  0  0
  185.7550  176.5220  143.4770 N   0  0  0  0  0  2  0  0  0  0  0  0
  185.9430  177.5980  144.3560 N   0  0  0  0  0  2  0  0  0  0  0  0
  186.6500  177.3690  146.6230 C   0  0  0  0  0  0  0  0  0  0  0  0
  184.9150  178.5220  147.5630 O   0  0  0  0  0  0  0  0  0  0  0  0
  186.2400  178.2350  147.6450 N   0  0  0  0  0  2  0  0  0  0  0  0
  184.5180  178.0850  146.2690 C   0  0  0  0  0  2  0  0  0  0  0  0
  185.5660  177.1360  145.6820 C   0  0  1  0  0  3  0  0  0  0  0  0
  187.8050  176.8760  146.5490 O   0  0  0  0  0  0  0  0  0  0  0  0
  193.7570  176.9650  145.7800 N   0  0  0  0  0  2  0  0  0  0  0  0
  193.4080  176.4130  147.0210 N   0  0  0  0  0  2  0  0  0  0  0  0
  192.0230  176.5640  147.1640 N   0  0  0  0  0  2  0  0  0  0  0  0
  191.4610  175.2930  146.9920 N   0  0  0  0  0  1  0  0  0  0  0  0
  1 11  1  0  0  0  0
  1 13  1  0  0  0  0
  2 10  1  0  0  0  0
  3 12  1  0  0  0  0
  4  1  2  0  0  0  0
  5  2  1  0  0  0  0
  5  4  1  0  0  0  0
  6  8  1  0  0  0  0
  7  5  2  0  0  0  0
  8  3  2  0  0  0  0
  8  7  1  0  0  0  0
  9 29  1  0  0  0  0
 10 13  1  0  0  0  0
 12  2  2  0  0  0  0
 13  9  2  0  0  0  0
 15 16  1  0  0  0  0
 15 14  1  0  0  0  0
 18 17  1  0  0  0  0
 18 16  1  0  0  0  0
 19 17  1  0  0  0  0
 19 14  1  0  0  0  0
 19 11  1  1  0  0  0
 20 16  1  0  0  0  0
 20 21  1  0  0  0  0
 21 22  1  0  0  0  0
 23 25  1  0  0  0  0
 24 25  1  0  0  0  0
 26 24  1  0  0  0  0
 27 22  1  6  0  0  0
 27 26  1  0  0  0  0
 27 23  1  0  0  0  0
 28 23  2  0  0  0  0
 29 30  1  0  0  0  0
 30 31  1  0  0  0  0
 32 31  1  0  0  0  0
M  END
>  <MODEL>
7

>  <REMARK>
 VINA RESULT:      -6.4      3.913      8.795
  Name = 
  8 active torsions:
  status: ('A' for Active; 'I' for Inactive)
    1  A    between atoms: N_2  and  N_12
    2  A    between atoms: N_2  and  C_17
    3  A    between atoms: N_4  and  N_29
    4  A    between atoms: N_4  and  N_31
    5  A    between atoms: N_8  and  C_17
    6  A    between atoms: N_12  and  C_28
    7  A    between atoms: C_21  and  N_31
    8  A    between atoms: N_24  and  C_27
                            x       y       z     vdW  Elec       q    Type
                         _______ _______ _______ _____ _____    ______ ____

>  <TORSDO>
F 8

$$$$
=
 OpenBabel11042416363D

 32 35  0  0  1  0  0  0  0  0999 V2000
  186.7790  176.5740  142.3500 C   0  0  0  0  0  0  0  0  0  0  0  0
  185.0860  178.1450  144.0410 C   0  0  0  0  0  0  0  0  0  0  0  0
  184.6270  178.8870  146.2650 N   0  0  0  0  0  0  0  0  0  0  0  0
  186.9100  176.5400  143.6450 N   0  0  0  0  0  0  0  0  0  0  0  0
  186.1230  177.3380  144.5350 C   0  0  0  0  0  0  0  0  0  0  0  0
  185.8990  178.1120  148.1580 N   0  0  0  0  0  1  0  0  0  0  0  0
  186.3970  177.3240  145.9030 C   0  0  0  0  0  3  0  0  0  0  0  0
  185.6310  178.1150  146.7620 C   0  0  0  0  0  0  0  0  0  0  0  0
  185.6920  177.7150  140.4120 C   0  0  0  0  0  3  0  0  0  0  0  0
  184.7280  178.1390  142.5860 C   0  0  0  0  0  2  0  0  0  0  0  0
  187.6070  175.7310  141.5390 N   0  0  0  0  0  2  0  0  0  0  0  0
  184.3390  178.9130  144.9350 C   0  0  0  0  0  3  0  0  0  0  0  0
  185.7670  177.4750  141.7250 C   0  0  0  0  0  0  0  0  0  0  0  0
  189.0230  173.8160  141.0410 C   0  0  0  0  0  2  0  0  0  0  0  0
  190.1900  172.9800  141.5620 C   0  0  0  0  0  2  0  0  0  0  0  0
  191.3380  173.8450  141.8350 N   0  0  0  0  0  0  0  0  0  0  0  0
  189.8640  175.6870  142.4800 C   0  0  0  0  0  2  0  0  0  0  0  0
  190.9860  174.7520  142.9260 C   0  0  0  0  0  2  0  0  0  0  0  0
  188.6400  174.8620  142.0840 C   0  0  1  0  0  3  0  0  0  0  0  0
  192.4120  172.9940  142.3260 C   0  0  0  0  0  2  0  0  0  0  0  0
  192.8060  173.4140  143.6620 N   0  0  0  0  0  2  0  0  0  0  0  0
  194.1810  173.6860  143.6190 N   0  0  0  0  0  2  0  0  0  0  0  0
  194.4430  175.9620  144.2840 C   0  0  0  0  0  0  0  0  0  0  0  0
  192.8780  175.9380  145.9490 O   0  0  0  0  0  0  0  0  0  0  0  0
  193.4530  176.6800  144.9680 N   0  0  0  0  0  2  0  0  0  0  0  0
  193.2800  174.5990  145.6890 C   0  0  0  0  0  2  0  0  0  0  0  0
  194.4730  174.5780  144.7300 C   0  0  1  0  0  3  0  0  0  0  0  0
  195.1900  176.4680  143.4070 O   0  0  0  0  0  0  0  0  0  0  0  0
  186.6010  177.1630  139.4610 N   0  0  0  0  0  2  0  0  0  0  0  0
  186.1370  176.6570  138.2390 N   0  0  0  0  0  2  0  0  0  0  0  0
  187.0730  175.7110  137.8020 N   0  0  0  0  0  2  0  0  0  0  0  0
  187.2220  175.9000  136.4230 N   0  0  0  0  0  1  0  0  0  0  0  0
  1  4  2  0  0  0  0
  2  5  2  0  0  0  0
  2 12  1  0  0  0  0
  3  8  1  0  0  0  0
  4  5  1  0  0  0  0
  5  7  1  0  0  0  0
  7  8  2  0  0  0  0
  8  6  1  0  0  0  0
  9 13  2  0  0  0  0
 10  2  1  0  0  0  0
 11  1  1  0  0  0  0
 12  3  2  0  0  0  0
 13  1  1  0  0  0  0
 13 10  1  0  0  0  0
 14 15  1  0  0  0  0
 14 19  1  0  0  0  0
 15 16  1  0  0  0  0
 16 20  1  0  0  0  0
 16 18  1  0  0  0  0
 17 18  1  0  0  0  0
 19 11  1  6  0  0  0
 19 17  1  0  0  0  0
 20 21  1  0  0  0  0
 22 21  1  0  0  0  0
 23 27  1  0  0  0  0
 23 25  1  0  0  0  0
 25 24  1  0  0  0  0
 26 24  1  0  0  0  0
 27 22  1  6  0  0  0
 27 26  1  0  0  0  0
 28 23  2  0  0  0  0
 29  9  1  0  0  0  0
 30 29  1  0  0  0  0
 31 30  1  0  0  0  0
 32 31  1  0  0  0  0
M  END
>  <MODEL>
8

>  <REMARK>
 VINA RESULT:      -6.4      2.319      5.562
  Name = 
  8 active torsions:
  status: ('A' for Active; 'I' for Inactive)
    1  A    between atoms: N_2  and  N_12
    2  A    between atoms: N_2  and  C_17
    3  A    between atoms: N_4  and  N_29
    4  A    between atoms: N_4  and  N_31
    5  A    between atoms: N_8  and  C_17
    6  A    between atoms: N_12  and  C_28
    7  A    between atoms: C_21  and  N_31
    8  A    between atoms: N_24  and  C_27
                            x       y       z     vdW  Elec       q    Type
                         _______ _______ _______ _____ _____    ______ ____

>  <TORSDO>
F 8

$$$$
=
 OpenBabel11042416363D

 32 35  0  0  1  0  0  0  0  0999 V2000
  192.5370  173.7900  145.1500 C   0  0  0  0  0  0  0  0  0  0  0  0
  193.4210  171.3230  143.9970 C   0  0  0  0  0  0  0  0  0  0  0  0
  192.8680  169.4660  142.5990 N   0  0  0  0  0  0  0  0  0  0  0  0
  191.7160  173.0300  144.4860 N   0  0  0  0  0  0  0  0  0  0  0  0
  192.1130  171.8110  143.8490 C   0  0  0  0  0  0  0  0  0  0  0  0
  190.6760  169.1990  141.6370 N   0  0  0  0  0  1  0  0  0  0  0  0
  191.1970  171.1080  143.0660 C   0  0  0  0  0  3  0  0  0  0  0  0
  191.5980  169.9260  142.4400 C   0  0  0  0  0  0  0  0  0  0  0  0
  194.9200  174.2060  145.7760 C   0  0  0  0  0  3  0  0  0  0  0  0
  194.4110  172.0230  144.8780 C   0  0  0  0  0  2  0  0  0  0  0  0
  192.0460  174.9900  145.7600 N   0  0  0  0  0  2  0  0  0  0  0  0
  193.7780  170.1330  143.3620 C   0  0  0  0  0  3  0  0  0  0  0  0
  193.9730  173.4030  145.2800 C   0  0  0  0  0  0  0  0  0  0  0  0
  189.9140  175.1330  146.9260 C   0  0  0  0  0  2  0  0  0  0  0  0
  188.5050  175.7160  146.8460 C   0  0  0  0  0  2  0  0  0  0  0  0
  188.5770  177.1650  146.6560 N   0  0  0  0  0  0  0  0  0  0  0  0
  190.6350  176.9440  145.3520 C   0  0  0  0  0  2  0  0  0  0  0  0
  189.1870  177.4310  145.3550 C   0  0  0  0  0  2  0  0  0  0  0  0
  190.6680  175.4430  145.6360 C   0  0  1  0  0  3  0  0  0  0  0  0
  187.2100  177.6580  146.5890 C   0  0  0  0  0  2  0  0  0  0  0  0
  186.2830  176.6080  146.9830 N   0  0  0  0  0  2  0  0  0  0  0  0
  185.1340  176.7550  146.1940 N   0  0  0  0  0  2  0  0  0  0  0  0
  185.2700  177.4130  143.9050 C   0  0  0  0  0  0  0  0  0  0  0  0
  183.7160  179.0850  144.0120 O   0  0  0  0  0  0  0  0  0  0  0  0
  184.2450  178.0990  143.2420 N   0  0  0  0  0  2  0  0  0  0  0  0
  184.1930  178.8260  145.3270 C   0  0  0  0  0  2  0  0  0  0  0  0
  185.3810  177.8620  145.2830 C   0  0  1  0  0  3  0  0  0  0  0  0
  185.9830  176.5300  143.3610 O   0  0  0  0  0  0  0  0  0  0  0  0
  194.6680  175.5440  146.2030 N   0  0  0  0  0  2  0  0  0  0  0  0
  195.2500  176.6290  145.5330 N   0  0  0  0  0  2  0  0  0  0  0  0
  195.1220  176.3830  144.1600 N   0  0  0  0  0  2  0  0  0  0  0  0
  196.3390  176.7480  143.5720 N   0  0  0  0  0  1  0  0  0  0  0  0
  1 13  1  0  0  0  0
  1 11  1  0  0  0  0
  2 10  1  0  0  0  0
  3 12  1  0  0  0  0
  4  1  2  0  0  0  0
  5  2  1  0  0  0  0
  5  4  1  0  0  0  0
  6  8  1  0  0  0  0
  7  5  2  0  0  0  0
  8  3  2  0  0  0  0
  8  7  1  0  0  0  0
  9 29  1  0  0  0  0
 10 13  1  0  0  0  0
 12  2  2  0  0  0  0
 13  9  2  0  0  0  0
 15 14  1  0  0  0  0
 16 15  1  0  0  0  0
 17 18  1  0  0  0  0
 17 19  1  0  0  0  0
 18 16  1  0  0  0  0
 19 11  1  1  0  0  0
 19 14  1  0  0  0  0
 20 16  1  0  0  0  0
 20 21  1  0  0  0  0
 22 21  1  0  0  0  0
 23 27  1  0  0  0  0
 24 26  1  0  0  0  0
 25 23  1  0  0  0  0
 25 24  1  0  0  0  0
 27 26  1  0  0  0  0
 27 22  1  1  0  0  0
 28 23  2  0  0  0  0
 30 29  1  0  0  0  0
 31 30  1  0  0  0  0
 32 31  1  0  0  0  0
M  END
>  <MODEL>
9

>  <REMARK>
 VINA RESULT:      -6.4      4.217      9.141
  Name = 
  8 active torsions:
  status: ('A' for Active; 'I' for Inactive)
    1  A    between atoms: N_2  and  N_12
    2  A    between atoms: N_2  and  C_17
    3  A    between atoms: N_4  and  N_29
    4  A    between atoms: N_4  and  N_31
    5  A    between atoms: N_8  and  C_17
    6  A    between atoms: N_12  and  C_28
    7  A    between atoms: C_21  and  N_31
    8  A    between atoms: N_24  and  C_27
                            x       y       z     vdW  Elec       q    Type
                         _______ _______ _______ _____ _____    ______ ____

>  <TORSDO>
F 8

$$$$
