=
 OpenBabel11042419133D

 66 71  0  0  1  0  0  0  0  0999 V2000
  192.6340  172.8030  139.9810 C   0  0  0  0  0  0  0  0  0  0  0  0
  190.8080  170.8970  139.1390 C   0  0  2  0  0  3  0  0  0  0  0  0
  193.5260  173.7370  140.1990 C   0  0  0  0  0  0  0  0  0  0  0  0
  191.1860  170.0400  141.4640 C   0  0  0  0  0  1  0  0  0  0  0  0
  190.5870  171.0960  140.5550 C   0  0  1  0  0  0  0  0  0  0  0  0
  191.7040  171.8970  139.8860 C   0  0  0  0  0  0  0  0  0  0  0  0
  194.8960  172.9240  137.7980 S   0  0  0  0  0  0  0  0  0  0  0  0
  196.4010  173.7920  137.3980 N   0  0  0  0  0  0  0  0  0  0  0  0
  195.6170  174.8070  139.4220 C   0  0  0  0  0  3  0  0  0  0  0  0
  196.5950  174.7590  138.4030 N   0  0  0  0  0  0  0  0  0  0  0  0
  194.6510  173.9310  139.2500 C   0  0  2  0  0  3  0  0  0  0  0  0
  197.5140  172.8560  137.5050 C   0  0  0  0  0  2  0  0  0  0  0  0
  197.1360  171.4860  136.9540 C   0  0  1  0  0  3  0  0  0  0  0  0
  197.6510  171.3320  135.5300 C   0  0  0  0  0  1  0  0  0  0  0  0
  197.7630  170.4170  137.8290 C   0  0  0  0  0  2  0  0  0  0  0  0
  197.9050  170.9170  139.1910 N   0  0  0  0  0  2  0  0  0  0  0  0
  197.8680  169.4110  141.0210 C   0  0  0  0  0  2  0  0  0  0  0  0
  197.2340  170.3230  140.3010 C   0  0  0  0  0  0  0  0  0  0  0  0
  195.8810  170.8100  140.7350 C   0  0  0  0  0  2  0  0  0  0  0  0
  194.5770  169.7640  142.7280 C   0  0  0  0  0  1  0  0  0  0  0  0
  195.0480  169.7050  141.3150 C   0  0  0  0  0  0  0  0  0  0  0  0
  194.5830  168.7470  140.5210 C   0  0  0  0  0  2  0  0  0  0  0  0
  192.3470  175.1740  141.8200 C   0  0  0  0  0  3  0  0  0  0  0  0
  193.7880  175.1540  143.5340 C   0  0  0  0  0  3  0  0  0  0  0  0
  192.5520  175.6160  143.1000 C   0  0  0  0  0  0  0  0  0  0  0  0
  193.4390  174.4970  141.4190 N   0  0  0  0  0  0  0  0  0  0  0  0
  194.3170  174.4680  142.4520 C   0  0  0  0  0  3  0  0  0  0  0  0
  191.4940  176.1690  143.8990 N   0  0  0  0  0  0  0  0  0  0  0  0
  190.8580  175.6880  144.9390 C   0  0  0  0  0  0  0  0  0  0  0  0
  187.3510  177.1770  145.0390 N   0  0  0  0  0  0  0  0  0  0  0  0
  184.6480  178.5320  145.2990 C   0  0  0  0  0  0  0  0  0  0  0  0
  184.8710  178.6720  143.8890 N   0  0  0  0  0  0  0  0  0  0  0  0
  188.5320  175.8030  143.5150 F   0  0  0  0  0  0  0  0  0  0  0  0
  188.5600  176.4920  144.6880 C   0  0  0  0  0  0  0  0  0  0  0  0
  183.7520  178.4800  142.9780 C   0  0  0  0  0  1  0  0  0  0  0  0
  189.6890  176.4650  145.4240 C   0  0  0  0  0  0  0  0  0  0  0  0
  186.9640  179.0680  148.2040 C   0  0  0  0  0  3  0  0  0  0  0  0
  185.7270  178.6280  146.2430 N   0  0  0  0  0  0  0  0  0  0  0  0
  187.7300  178.2530  147.2120 C   0  0  0  0  0  0  0  0  0  0  0  0
  187.0060  178.0180  146.1380 C   0  0  1  0  0  3  0  0  0  0  0  0
  189.0610  177.7600  147.5330 C   0  0  0  0  0  3  0  0  0  0  0  0
  185.5840  179.2110  147.5650 C   0  0  0  0  0  3  0  0  0  0  0  0
  183.4700  178.3800  145.7310 O   0  0  0  0  0  0  0  0  0  0  0  0
  189.8680  177.0210  146.7810 C   0  0  0  0  0  3  0  0  0  0  0  0
  186.0630  179.3490  143.3890 C   0  0  0  0  0  2  0  0  0  0  0  0
  186.6770  178.5700  142.2410 C   0  0  0  0  0  1  0  0  0  0  0  0
  191.1200  173.3230  145.0190 O   0  0  0  0  0  0  0  0  0  0  0  0
  191.2400  174.4210  145.6200 C   0  0  0  0  0  0  0  0  0  0  0  0
  191.6530  174.4160  146.9480 O   0  0  0  0  0  1  0  0  0  0  0  0
  189.8850  171.6470  138.1810 C   0  0  0  0  0  2  0  0  0  0  0  0
  191.4260  173.5760  134.5990 O   0  0  0  0  0  0  0  0  0  0  0  0
  190.6440  173.6310  136.8090 N   0  0  0  0  0  2  0  0  0  0  0  0
  190.6280  172.2140  137.0100 C   0  0  0  0  0  0  0  0  0  0  0  0
  191.0820  174.2640  135.6010 C   0  0  0  0  0  0  0  0  0  0  0  0
  191.1530  171.4410  136.1590 O   0  0  0  0  0  0  0  0  0  0  0  0
  191.1120  175.7560  135.4770 C   0  0  0  0  0  2  0  0  0  0  0  0
  189.8290  176.3800  134.9110 C   0  0  0  0  0  2  0  0  0  0  0  0
  188.6760  175.6390  135.2100 O   0  0  0  0  0  0  0  0  0  0  0  0
  185.1560  175.9480  134.8220 S   0  0  0  0  0  0  0  0  0  0  0  0
  186.9510  175.9340  136.8240 C   0  0  0  0  0  2  0  0  0  0  0  0
  186.7020  176.8520  134.5180 C   0  0  0  0  0  2  0  0  0  0  0  0
  187.6940  176.5440  135.6430 C   0  0  2  0  0  3  0  0  0  0  0  0
  185.4610  176.1080  136.6050 C   0  0  0  0  0  2  0  0  0  0  0  0
  189.5530  172.0220  141.2380 C   0  0  0  0  0  2  0  0  0  0  0  0
  189.1000  173.6350  142.6140 O   0  0  0  0  0  1  0  0  0  0  0  0
  190.0340  172.7420  142.3390 O   0  0  0  0  0  0  0  0  0  0  0  0
  1  3  2  0  0  0  0
  2 50  1  6  0  0  0
  2  6  1  0  0  0  0
  2  5  1  0  0  0  0
  3 26  1  0  0  0  0
  5 64  1  0  0  0  0
  5  4  1  1  0  0  0
  6  1  2  0  0  0  0
  6  5  1  0  0  0  0
  7 11  1  0  0  0  0
  8 12  1  0  0  0  0
  8  7  1  0  0  0  0
  8 10  1  0  0  0  0
 10  9  2  0  0  0  0
 11  9  1  0  0  0  0
 11  3  1  1  0  0  0
 13 14  1  6  0  0  0
 13 12  1  0  0  0  0
 13 15  1  0  0  0  0
 15 16  1  0  0  0  0
 16 18  1  0  0  0  0
 18 19  1  0  0  0  0
 18 17  2  0  0  0  0
 19 21  1  0  0  0  0
 21 20  1  0  0  0  0
 22 21  2  0  0  0  0
 23 25  2  0  0  0  0
 25 24  1  0  0  0  0
 25 28  1  0  0  0  0
 26 23  1  0  0  0  0
 26 27  1  0  0  0  0
 27 24  2  0  0  0  0
 28 29  2  0  0  0  0
 29 36  1  0  0  0  0
 29 48  1  0  0  0  0
 31 43  2  0  0  0  0
 31 38  1  0  0  0  0
 32 31  1  0  0  0  0
 33 34  1  0  0  0  0
 34 30  2  0  0  0  0
 34 36  1  0  0  0  0
 35 32  1  0  0  0  0
 36 44  2  0  0  0  0
 38 42  1  0  0  0  0
 39 41  2  0  0  0  0
 39 37  1  0  0  0  0
 40 30  1  1  0  0  0
 40 38  1  0  0  0  0
 40 39  1  0  0  0  0
 42 37  2  0  0  0  0
 44 41  1  0  0  0  0
 45 32  1  0  0  0  0
 46 45  1  0  0  0  0
 47 48  2  0  0  0  0
 48 49  1  0  0  0  0
 51 54  2  0  0  0  0
 52 53  1  0  0  0  0
 53 50  1  0  0  0  0
 54 52  1  0  0  0  0
 55 53  2  0  0  0  0
 56 54  1  0  0  0  0
 57 58  1  0  0  0  0
 57 56  1  0  0  0  0
 59 63  1  0  0  0  0
 61 59  1  0  0  0  0
 61 62  1  0  0  0  0
 62 58  1  6  0  0  0
 62 60  1  0  0  0  0
 63 60  1  0  0  0  0
 64 66  1  0  0  0  0
 66 65  1  0  0  0  0
M  END
>  <MODEL>
1

>  <REMARK>
 VINA RESULT:      -5.4      0.000      0.000
  Name = 
  21 active torsions:
  status: ('A' for Active; 'I' for Inactive)
    1  A    between atoms: C_5  and  C_11
    2  A    between atoms: C_5  and  C_32
    3  A    between atoms: N_8  and  C_26
    4  A    between atoms: O_10  and  C_43
    5  A    between atoms: C_11  and  N_47
    6  A    between atoms: N_12  and  C_41
    7  A    between atoms: C_14  and  C_44
    8  A    between atoms: C_14  and  C_51
    9  A    between atoms: O_18  and  C_38
   10  A    between atoms: O_18  and  C_44
   11  A    between atoms: C_19  and  CA_54
   12  A    between atoms: C_20  and  C_62
   13  A    between atoms: C_20  and  C_65
   14  A    between atoms: C_31  and  C_36
   15  A    between atoms: C_31  and  C_37
   16  A    between atoms: N_34  and  C_62
   17  A    between atoms: N_40  and  C_49
   18  A    between atoms: C_43  and  C_57
   19  A    between atoms: C_45  and  CA_54
   20  A    between atoms: N_47  and  C_65
   21  A    between atoms: C_49  and  C_58
                            x       y       z     vdW  Elec       q    Type
                         _______ _______ _______ _____ _____    ______ ____

>  <TORSDO>
F 21

$$$$
=
 OpenBabel11042419133D

 66 71  0  0  1  0  0  0  0  0999 V2000
  195.0340  173.6860  139.5940 C   0  0  0  0  0  0  0  0  0  0  0  0
  197.3310  174.4850  140.9210 C   0  0  2  0  0  3  0  0  0  0  0  0
  194.0550  173.1820  138.8830 C   0  0  0  0  0  0  0  0  0  0  0  0
  195.9690  176.5610  141.2640 C   0  0  0  0  0  1  0  0  0  0  0  0
  196.2140  175.1030  141.6010 C   0  0  1  0  0  0  0  0  0  0  0  0
  195.9140  174.2310  140.3820 C   0  0  0  0  0  0  0  0  0  0  0  0
  193.3120  173.0250  136.1030 S   0  0  0  0  0  0  0  0  0  0  0  0
  194.2860  171.9450  135.0710 N   0  0  0  0  0  0  0  0  0  0  0  0
  195.2680  171.7750  137.2500 C   0  0  0  0  0  3  0  0  0  0  0  0
  195.2790  171.3800  135.8930 N   0  0  0  0  0  0  0  0  0  0  0  0
  194.3190  172.6430  137.5260 C   0  0  2  0  0  3  0  0  0  0  0  0
  193.4390  170.8430  134.6300 C   0  0  0  0  0  2  0  0  0  0  0  0
  192.4960  170.3940  135.7400 C   0  0  1  0  0  3  0  0  0  0  0  0
  191.1090  170.9840  135.5220 C   0  0  0  0  0  1  0  0  0  0  0  0
  192.4030  168.8800  135.7200 C   0  0  0  0  0  2  0  0  0  0  0  0
  192.1780  168.3830  137.0720 N   0  0  0  0  0  2  0  0  0  0  0  0
  194.2410  168.1690  138.2200 C   0  0  0  0  0  2  0  0  0  0  0  0
  193.0340  168.7130  138.1640 C   0  0  0  0  0  0  0  0  0  0  0  0
  192.6390  169.7580  139.1670 C   0  0  0  0  0  2  0  0  0  0  0  0
  190.0500  169.7200  138.9150 C   0  0  0  0  0  1  0  0  0  0  0  0
  191.2740  169.5000  139.7360 C   0  0  0  0  0  0  0  0  0  0  0  0
  191.1580  168.9140  140.9220 C   0  0  0  0  0  2  0  0  0  0  0  0
  192.4040  173.7230  140.6320 C   0  0  0  0  0  3  0  0  0  0  0  0
  190.4860  173.4560  139.5050 C   0  0  0  0  0  3  0  0  0  0  0  0
  191.0400  173.8220  140.7260 C   0  0  0  0  0  0  0  0  0  0  0  0
  192.7170  173.2540  139.4100 N   0  0  0  0  0  0  0  0  0  0  0  0
  191.5650  173.0980  138.7130 C   0  0  0  0  0  3  0  0  0  0  0  0
  190.3930  174.5050  141.8120 N   0  0  0  0  0  0  0  0  0  0  0  0
  189.9260  174.0620  142.9520 C   0  0  0  0  0  0  0  0  0  0  0  0
  187.0680  176.3150  144.0830 N   0  0  0  0  0  0  0  0  0  0  0  0
  184.9640  178.2300  145.1420 C   0  0  0  0  0  0  0  0  0  0  0  0
  184.8610  178.4870  143.7340 N   0  0  0  0  0  0  0  0  0  0  0  0
  187.4350  174.9010  142.2200 F   0  0  0  0  0  0  0  0  0  0  0  0
  187.9300  175.4130  143.3790 C   0  0  0  0  0  0  0  0  0  0  0  0
  183.5410  178.6800  143.1510 C   0  0  0  0  0  1  0  0  0  0  0  0
  189.1590  175.0270  143.7790 C   0  0  0  0  0  0  0  0  0  0  0  0
  187.9840  177.8360  147.3370 C   0  0  0  0  0  3  0  0  0  0  0  0
  186.2290  177.9490  145.7620 N   0  0  0  0  0  0  0  0  0  0  0  0
  188.2400  176.9920  146.1310 C   0  0  0  0  0  0  0  0  0  0  0  0
  187.2380  177.0710  145.2810 C   0  0  1  0  0  3  0  0  0  0  0  0
  189.4320  176.1620  146.0510 C   0  0  0  0  0  3  0  0  0  0  0  0
  186.5750  178.3800  147.1050 C   0  0  0  0  0  3  0  0  0  0  0  0
  183.9330  178.3080  145.8670 O   0  0  0  0  0  0  0  0  0  0  0  0
  189.8060  175.3520  145.0670 C   0  0  0  0  0  3  0  0  0  0  0  0
  186.0270  178.9180  142.9700 C   0  0  0  0  0  2  0  0  0  0  0  0
  185.8280  178.6420  141.4910 C   0  0  0  0  0  1  0  0  0  0  0  0
  189.3060  171.7670  143.0780 O   0  0  0  0  0  0  0  0  0  0  0  0
  190.1150  172.6640  143.4280 C   0  0  0  0  0  0  0  0  0  0  0  0
  191.1270  172.3410  144.3260 O   0  0  0  0  0  1  0  0  0  0  0  0
  197.8900  173.2000  141.5280 C   0  0  0  0  0  2  0  0  0  0  0  0
  196.9820  169.3070  139.8130 O   0  0  0  0  0  0  0  0  0  0  0  0
  196.6320  171.0110  141.3850 N   0  0  0  0  0  2  0  0  0  0  0  0
  197.4740  171.9850  140.7580 C   0  0  0  0  0  0  0  0  0  0  0  0
  196.3920  169.7010  140.8570 C   0  0  0  0  0  0  0  0  0  0  0  0
  197.9400  171.7780  139.6010 O   0  0  0  0  0  0  0  0  0  0  0  0
  195.4640  168.7490  141.5460 C   0  0  0  0  0  2  0  0  0  0  0  0
  195.5040  168.8060  143.0790 C   0  0  0  0  0  2  0  0  0  0  0  0
  194.5180  169.6420  143.6250 O   0  0  0  0  0  0  0  0  0  0  0  0
  197.3250  171.3180  145.0210 S   0  0  0  0  0  0  0  0  0  0  0  0
  194.6430  171.4740  145.1400 C   0  0  0  0  0  2  0  0  0  0  0  0
  196.4330  169.7370  145.0990 C   0  0  0  0  0  2  0  0  0  0  0  0
  194.9360  169.9960  144.9180 C   0  0  2  0  0  3  0  0  0  0  0  0
  195.8700  172.1270  145.7460 C   0  0  0  0  0  2  0  0  0  0  0  0
  195.4670  174.5990  142.8580 C   0  0  0  0  0  2  0  0  0  0  0  0
  194.9830  175.8650  144.5510 O   0  0  0  0  0  1  0  0  0  0  0  0
  195.9480  175.0970  144.0760 O   0  0  0  0  0  0  0  0  0  0  0  0
  1  6  2  0  0  0  0
  2 50  1  1  0  0  0
  2  5  1  0  0  0  0
  3 26  1  0  0  0  0
  3  1  2  0  0  0  0
  5  4  1  6  0  0  0
  5 64  1  0  0  0  0
  6  2  1  0  0  0  0
  6  5  1  0  0  0  0
  7 11  1  0  0  0  0
  8 10  1  0  0  0  0
  8  7  1  0  0  0  0
  9 11  1  0  0  0  0
 10  9  2  0  0  0  0
 11  3  1  1  0  0  0
 12  8  1  0  0  0  0
 12 13  1  0  0  0  0
 13 14  1  6  0  0  0
 15 13  1  0  0  0  0
 15 16  1  0  0  0  0
 16 18  1  0  0  0  0
 18 17  2  0  0  0  0
 18 19  1  0  0  0  0
 19 21  1  0  0  0  0
 20 21  1  0  0  0  0
 21 22  2  0  0  0  0
 23 25  2  0  0  0  0
 24 25  1  0  0  0  0
 25 28  1  0  0  0  0
 26 23  1  0  0  0  0
 27 26  1  0  0  0  0
 27 24  2  0  0  0  0
 28 29  2  0  0  0  0
 29 48  1  0  0  0  0
 29 36  1  0  0  0  0
 31 38  1  0  0  0  0
 31 43  2  0  0  0  0
 32 31  1  0  0  0  0
 33 34  1  0  0  0  0
 34 36  1  0  0  0  0
 34 30  2  0  0  0  0
 35 32  1  0  0  0  0
 36 44  2  0  0  0  0
 38 42  1  0  0  0  0
 39 37  1  0  0  0  0
 40 30  1  1  0  0  0
 40 38  1  0  0  0  0
 40 39  1  0  0  0  0
 41 39  2  0  0  0  0
 42 37  2  0  0  0  0
 44 41  1  0  0  0  0
 45 32  1  0  0  0  0
 46 45  1  0  0  0  0
 47 48  2  0  0  0  0
 48 49  1  0  0  0  0
 51 54  2  0  0  0  0
 53 52  1  0  0  0  0
 53 50  1  0  0  0  0
 54 52  1  0  0  0  0
 54 56  1  0  0  0  0
 55 53  2  0  0  0  0
 56 57  1  0  0  0  0
 57 58  1  0  0  0  0
 59 61  1  0  0  0  0
 59 63  1  0  0  0  0
 60 63  1  0  0  0  0
 62 58  1  6  0  0  0
 62 61  1  0  0  0  0
 62 60  1  0  0  0  0
 64 66  1  0  0  0  0
 66 65  1  0  0  0  0
M  END
>  <MODEL>
2

>  <REMARK>
 VINA RESULT:      -5.3      3.170      6.437
  Name = 
  21 active torsions:
  status: ('A' for Active; 'I' for Inactive)
    1  A    between atoms: C_5  and  C_11
    2  A    between atoms: C_5  and  C_32
    3  A    between atoms: N_8  and  C_26
    4  A    between atoms: O_10  and  C_43
    5  A    between atoms: C_11  and  N_47
    6  A    between atoms: N_12  and  C_41
    7  A    between atoms: C_14  and  C_44
    8  A    between atoms: C_14  and  C_51
    9  A    between atoms: O_18  and  C_38
   10  A    between atoms: O_18  and  C_44
   11  A    between atoms: C_19  and  CA_54
   12  A    between atoms: C_20  and  C_62
   13  A    between atoms: C_20  and  C_65
   14  A    between atoms: C_31  and  C_36
   15  A    between atoms: C_31  and  C_37
   16  A    between atoms: N_34  and  C_62
   17  A    between atoms: N_40  and  C_49
   18  A    between atoms: C_43  and  C_57
   19  A    between atoms: C_45  and  CA_54
   20  A    between atoms: N_47  and  C_65
   21  A    between atoms: C_49  and  C_58
                            x       y       z     vdW  Elec       q    Type
                         _______ _______ _______ _____ _____    ______ ____

>  <TORSDO>
F 21

$$$$
=
 OpenBabel11042419133D

 66 71  0  0  1  0  0  0  0  0999 V2000
  194.5430  173.1520  140.1330 C   0  0  0  0  0  0  0  0  0  0  0  0
  196.8290  174.4180  141.0530 C   0  0  2  0  0  3  0  0  0  0  0  0
  193.5760  172.4270  139.6260 C   0  0  0  0  0  0  0  0  0  0  0  0
  195.2520  176.3600  141.1990 C   0  0  0  0  0  1  0  0  0  0  0  0
  195.7080  175.0190  141.7410 C   0  0  1  0  0  0  0  0  0  0  0  0
  195.4140  173.9200  140.7210 C   0  0  0  0  0  0  0  0  0  0  0  0
  195.1750  171.9700  137.2730 S   0  0  0  0  0  0  0  0  0  0  0  0
  194.5500  170.7880  136.0940 N   0  0  0  0  0  0  0  0  0  0  0  0
  192.9330  170.8180  137.8610 C   0  0  0  0  0  3  0  0  0  0  0  0
  193.3390  170.2940  136.6140 N   0  0  0  0  0  0  0  0  0  0  0  0
  193.7840  171.6900  138.3550 C   0  0  2  0  0  3  0  0  0  0  0  0
  194.2150  171.4980  134.8650 C   0  0  0  0  0  2  0  0  0  0  0  0
  193.7780  172.9280  135.1570 C   0  0  1  0  0  3  0  0  0  0  0  0
  194.7860  173.9140  134.5820 C   0  0  0  0  0  1  0  0  0  0  0  0
  192.4250  173.1670  134.5140 C   0  0  0  0  0  2  0  0  0  0  0  0
  191.8350  174.3880  135.0480 N   0  0  0  0  0  2  0  0  0  0  0  0
  189.9250  175.7670  135.3140 C   0  0  0  0  0  2  0  0  0  0  0  0
  190.4300  174.5450  135.2340 C   0  0  0  0  0  0  0  0  0  0  0  0
  189.5110  173.3580  135.2080 C   0  0  0  0  0  2  0  0  0  0  0  0
  188.6840  173.4910  137.6710 C   0  0  0  0  0  1  0  0  0  0  0  0
  189.3510  172.7430  136.5680 C   0  0  0  0  0  0  0  0  0  0  0  0
  189.6530  171.4630  136.7490 C   0  0  0  0  0  2  0  0  0  0  0  0
  191.8470  173.4440  141.0610 C   0  0  0  0  0  3  0  0  0  0  0  0
  190.1200  172.0670  140.6880 C   0  0  0  0  0  3  0  0  0  0  0  0
  190.5280  173.2160  141.3540 C   0  0  0  0  0  0  0  0  0  0  0  0
  192.2920  172.4440  140.2780 N   0  0  0  0  0  0  0  0  0  0  0  0
  191.2530  171.6070  140.0350 C   0  0  0  0  0  3  0  0  0  0  0  0
  189.6970  174.2110  141.9740 N   0  0  0  0  0  0  0  0  0  0  0  0
  189.3570  174.3900  143.2260 C   0  0  0  0  0  0  0  0  0  0  0  0
  186.1920  176.4760  142.8330 N   0  0  0  0  0  0  0  0  0  0  0  0
  183.7830  178.3160  142.6770 C   0  0  0  0  0  0  0  0  0  0  0  0
  184.0930  178.1800  141.2830 N   0  0  0  0  0  0  0  0  0  0  0  0
  187.1620  174.6820  141.6310 F   0  0  0  0  0  0  0  0  0  0  0  0
  187.2650  175.5390  142.6830 C   0  0  0  0  0  0  0  0  0  0  0  0
  183.0000  178.0420  140.3310 C   0  0  0  0  0  1  0  0  0  0  0  0
  188.3350  175.4320  143.4970 C   0  0  0  0  0  0  0  0  0  0  0  0
  186.0250  178.9020  145.6310 C   0  0  0  0  0  3  0  0  0  0  0  0
  184.8170  178.3730  143.6730 N   0  0  0  0  0  0  0  0  0  0  0  0
  186.6680  177.8110  144.8370 C   0  0  0  0  0  0  0  0  0  0  0  0
  185.9620  177.5350  143.7610 C   0  0  1  0  0  3  0  0  0  0  0  0
  187.8660  177.1490  145.3290 C   0  0  0  0  0  3  0  0  0  0  0  0
  184.7270  179.1810  144.8760 C   0  0  0  0  0  3  0  0  0  0  0  0
  182.5800  178.4500  143.0380 O   0  0  0  0  0  0  0  0  0  0  0  0
  188.5530  176.1630  144.7630 C   0  0  0  0  0  3  0  0  0  0  0  0
  185.4130  178.5410  140.7760 C   0  0  0  0  0  2  0  0  0  0  0  0
  185.8720  177.5460  139.7270 C   0  0  0  0  0  1  0  0  0  0  0  0
  190.8330  174.0940  145.0710 O   0  0  0  0  0  1  0  0  0  0  0  0
  189.9260  173.6010  144.3520 C   0  0  0  0  0  0  0  0  0  0  0  0
  189.5320  172.2860  144.5790 O   0  0  0  0  0  0  0  0  0  0  0  0
  197.5980  173.3280  141.7970 C   0  0  0  0  0  2  0  0  0  0  0  0
  197.0870  173.9080  146.0770 O   0  0  0  0  0  0  0  0  0  0  0  0
  197.2840  172.5450  144.1800 N   0  0  0  0  0  2  0  0  0  0  0  0
  197.6570  173.5860  143.2710 C   0  0  0  0  0  0  0  0  0  0  0  0
  197.0440  172.7500  145.5770 C   0  0  0  0  0  0  0  0  0  0  0  0
  197.9410  174.7400  143.7010 O   0  0  0  0  0  0  0  0  0  0  0  0
  196.6980  171.6040  146.4780 C   0  0  0  0  0  2  0  0  0  0  0  0
  196.1440  170.3660  145.7620 C   0  0  0  0  0  2  0  0  0  0  0  0
  194.7500  170.4000  145.6000 O   0  0  0  0  0  0  0  0  0  0  0  0
  193.1520  169.3710  142.5960 S   0  0  0  0  0  0  0  0  0  0  0  0
  195.3800  168.7740  143.9790 C   0  0  0  0  0  2  0  0  0  0  0  0
  192.9740  169.2790  144.4020 C   0  0  0  0  0  2  0  0  0  0  0  0
  194.3620  169.1720  145.0390 C   0  0  2  0  0  3  0  0  0  0  0  0
  194.6380  168.3350  142.7320 C   0  0  0  0  0  2  0  0  0  0  0  0
  195.1470  174.6650  143.1380 C   0  0  0  0  0  2  0  0  0  0  0  0
  193.8710  173.3420  144.2890 O   0  0  0  0  0  1  0  0  0  0  0  0
  193.9250  173.9800  143.1330 O   0  0  0  0  0  0  0  0  0  0  0  0
  1  6  2  0  0  0  0
  2  5  1  0  0  0  0
  2 50  1  1  0  0  0
  3  1  2  0  0  0  0
  3 26  1  0  0  0  0
  5  4  1  6  0  0  0
  5 64  1  0  0  0  0
  6  2  1  0  0  0  0
  6  5  1  0  0  0  0
  7 11  1  0  0  0  0
  8 10  1  0  0  0  0
  8  7  1  0  0  0  0
  9 11  1  0  0  0  0
 10  9  2  0  0  0  0
 11  3  1  6  0  0  0
 12 13  1  0  0  0  0
 12  8  1  0  0  0  0
 13 14  1  6  0  0  0
 15 16  1  0  0  0  0
 15 13  1  0  0  0  0
 16 18  1  0  0  0  0
 18 17  2  0  0  0  0
 19 18  1  0  0  0  0
 19 21  1  0  0  0  0
 21 22  2  0  0  0  0
 21 20  1  0  0  0  0
 23 25  2  0  0  0  0
 24 25  1  0  0  0  0
 25 28  1  0  0  0  0
 26 23  1  0  0  0  0
 27 26  1  0  0  0  0
 27 24  2  0  0  0  0
 28 29  2  0  0  0  0
 29 36  1  0  0  0  0
 29 48  1  0  0  0  0
 31 43  2  0  0  0  0
 31 38  1  0  0  0  0
 32 31  1  0  0  0  0
 33 34  1  0  0  0  0
 34 30  2  0  0  0  0
 34 36  1  0  0  0  0
 35 32  1  0  0  0  0
 36 44  2  0  0  0  0
 38 40  1  0  0  0  0
 38 42  1  0  0  0  0
 39 41  2  0  0  0  0
 39 37  1  0  0  0  0
 40 30  1  1  0  0  0
 40 39  1  0  0  0  0
 42 37  2  0  0  0  0
 44 41  1  0  0  0  0
 45 32  1  0  0  0  0
 46 45  1  0  0  0  0
 48 49  2  0  0  0  0
 48 47  1  0  0  0  0
 50 53  1  0  0  0  0
 52 54  1  0  0  0  0
 53 55  2  0  0  0  0
 53 52  1  0  0  0  0
 54 51  2  0  0  0  0
 54 56  1  0  0  0  0
 57 56  1  0  0  0  0
 58 57  1  0  0  0  0
 59 63  1  0  0  0  0
 59 61  1  0  0  0  0
 60 62  1  0  0  0  0
 61 62  1  0  0  0  0
 62 58  1  6  0  0  0
 63 60  1  0  0  0  0
 66 64  1  0  0  0  0
 66 65  1  0  0  0  0
M  END
>  <MODEL>
3

>  <REMARK>
 VINA RESULT:      -4.9      3.293      7.130
  Name = 
  21 active torsions:
  status: ('A' for Active; 'I' for Inactive)
    1  A    between atoms: C_5  and  C_11
    2  A    between atoms: C_5  and  C_32
    3  A    between atoms: N_8  and  C_26
    4  A    between atoms: O_10  and  C_43
    5  A    between atoms: C_11  and  N_47
    6  A    between atoms: N_12  and  C_41
    7  A    between atoms: C_14  and  C_44
    8  A    between atoms: C_14  and  C_51
    9  A    between atoms: O_18  and  C_38
   10  A    between atoms: O_18  and  C_44
   11  A    between atoms: C_19  and  CA_54
   12  A    between atoms: C_20  and  C_62
   13  A    between atoms: C_20  and  C_65
   14  A    between atoms: C_31  and  C_36
   15  A    between atoms: C_31  and  C_37
   16  A    between atoms: N_34  and  C_62
   17  A    between atoms: N_40  and  C_49
   18  A    between atoms: C_43  and  C_57
   19  A    between atoms: C_45  and  CA_54
   20  A    between atoms: N_47  and  C_65
   21  A    between atoms: C_49  and  C_58
                            x       y       z     vdW  Elec       q    Type
                         _______ _______ _______ _____ _____    ______ ____

>  <TORSDO>
F 21

$$$$
=
 OpenBabel11042419133D

 66 71  0  0  1  0  0  0  0  0999 V2000
  190.3690  175.2410  144.2830 C   0  0  0  0  0  0  0  0  0  0  0  0
  192.4630  176.0640  145.9000 C   0  0  2  0  0  3  0  0  0  0  0  0
  189.3370  175.0320  143.5040 C   0  0  0  0  0  0  0  0  0  0  0  0
  192.3520  173.6710  146.6340 C   0  0  0  0  0  1  0  0  0  0  0  0
  192.7110  174.6800  145.5610 C   0  0  1  0  0  0  0  0  0  0  0  0
  191.4400  175.3320  145.0180 C   0  0  0  0  0  0  0  0  0  0  0  0
  186.8980  176.0010  142.3120 S   0  0  0  0  0  0  0  0  0  0  0  0
  186.0320  177.2890  143.1890 N   0  0  0  0  0  0  0  0  0  0  0  0
  187.9470  176.7950  144.5420 C   0  0  0  0  0  3  0  0  0  0  0  0
  186.7720  177.5570  144.3560 N   0  0  0  0  0  2  0  0  0  0  0  0
  188.1520  175.9230  143.5790 C   0  0  0  0  0  0  0  0  0  0  0  0
  186.0760  178.5030  142.3830 C   0  0  0  0  0  2  0  0  0  0  0  0
  184.8140  178.6500  141.5400 C   0  0  1  0  0  3  0  0  0  0  0  0
  185.0160  178.0050  140.1760 C   0  0  0  0  0  1  0  0  0  0  0  0
  183.6670  177.9600  142.2520 C   0  0  0  0  0  2  0  0  0  0  0  0
  182.5490  178.8840  142.3950 N   0  0  0  0  0  2  0  0  0  0  0  0
  181.3770  178.1290  140.4770 C   0  0  0  0  0  2  0  0  0  0  0  0
  181.3420  178.7500  141.6470 C   0  0  0  0  0  0  0  0  0  0  0  0
  180.0250  179.1830  142.2230 C   0  0  0  0  0  2  0  0  0  0  0  0
  178.3880  179.5170  140.2290 C   0  0  0  0  0  1  0  0  0  0  0  0
  178.8680  178.7150  141.3900 C   0  0  0  0  0  0  0  0  0  0  0  0
  178.3700  177.4990  141.5820 C   0  0  0  0  0  2  0  0  0  0  0  0
  189.9710  173.8030  141.4630 C   0  0  0  0  0  3  0  0  0  0  0  0
  189.3100  171.7290  141.9920 C   0  0  0  0  0  3  0  0  0  0  0  0
  189.9310  172.5060  141.0220 C   0  0  0  0  0  0  0  0  0  0  0  0
  189.3450  173.8710  142.6520 N   0  0  0  0  0  0  0  0  0  0  0  0
  188.9490  172.6200  142.9900 C   0  0  0  0  0  3  0  0  0  0  0  0
  190.7070  172.0530  139.9010 N   0  0  0  0  0  0  0  0  0  0  0  0
  190.5320  172.2080  138.6120 C   0  0  0  0  0  0  0  0  0  0  0  0
  193.7360  171.1970  136.8130 N   0  0  0  0  0  0  0  0  0  0  0  0
  196.1360  170.2540  135.2130 C   0  0  0  0  0  0  0  0  0  0  0  0
  196.3210  171.6750  135.1400 N   0  0  0  0  0  0  0  0  0  0  0  0
  193.1540  172.9130  138.3360 F   0  0  0  0  0  0  0  0  0  0  0  0
  192.7360  171.8390  137.6140 C   0  0  2  0  0  3  0  0  0  0  0  0
  197.6670  172.2160  135.2610 C   0  0  0  0  0  1  0  0  0  0  0  0
  191.4480  171.4550  137.7180 C   0  0  0  0  0  0  0  0  0  0  0  0
  193.0450  168.1670  134.7910 C   0  0  0  0  0  3  0  0  0  0  0  0
  194.8270  169.6650  135.1830 N   0  0  0  0  0  0  0  0  0  0  0  0
  192.6630  169.2880  135.7040 C   0  0  0  0  0  0  0  0  0  0  0  0
  193.6830  170.0950  135.9080 C   0  0  0  0  0  0  0  0  0  0  0  0
  191.3380  169.3320  136.3030 C   0  0  0  0  0  3  0  0  0  0  0  0
  194.5360  168.3930  134.5470 C   0  0  0  0  0  3  0  0  0  0  0  0
  197.1470  169.4960  135.2450 O   0  0  0  0  0  0  0  0  0  0  0  0
  190.8420  170.2400  137.1360 C   0  0  0  0  0  3  0  0  0  0  0  0
  195.2760  172.5330  134.5900 C   0  0  0  0  0  2  0  0  0  0  0  0
  195.2200  173.8520  135.3370 C   0  0  0  0  0  1  0  0  0  0  0  0
  189.7530  173.8750  137.1020 O   0  0  0  0  0  0  0  0  0  0  0  0
  189.4700  173.0720  138.0270 C   0  0  0  0  0  0  0  0  0  0  0  0
  188.1780  173.0690  138.5410 O   0  0  0  0  0  1  0  0  0  0  0  0
  193.1920  177.1230  145.0750 C   0  0  0  0  0  2  0  0  0  0  0  0
  197.1610  175.6380  144.0900 O   0  0  0  0  0  0  0  0  0  0  0  0
  195.1870  176.7860  143.5570 N   0  0  0  0  0  2  0  0  0  0  0  0
  194.6390  176.7880  144.8800 C   0  0  0  0  0  0  0  0  0  0  0  0
  196.4630  176.2300  143.2200 C   0  0  0  0  0  0  0  0  0  0  0  0
  195.3420  176.4200  145.8640 O   0  0  0  0  0  0  0  0  0  0  0  0
  196.9910  176.3000  141.8200 C   0  0  0  0  0  2  0  0  0  0  0  0
  197.7160  175.0360  141.3410 C   0  0  0  0  0  2  0  0  0  0  0  0
  197.4360  174.7120  140.0050 O   0  0  0  0  0  0  0  0  0  0  0  0
  197.0090  171.2880  139.1510 S   0  0  0  0  0  0  0  0  0  0  0  0
  196.4870  172.9070  141.2330 C   0  0  0  0  0  2  0  0  0  0  0  0
  196.3790  172.9420  138.7410 C   0  0  0  0  0  2  0  0  0  0  0  0
  196.3660  173.8020  140.0070 C   0  0  2  0  0  3  0  0  0  0  0  0
  196.2840  171.4660  140.8060 C   0  0  0  0  0  2  0  0  0  0  0  0
  193.5950  174.1210  144.4220 C   0  0  0  0  0  2  0  0  0  0  0  0
  192.6030  172.4410  143.4760 O   0  0  0  0  0  1  0  0  0  0  0  0
  192.9020  173.7120  143.2750 O   0  0  0  0  0  0  0  0  0  0  0  0
  1  6  2  0  0  0  0
  2 50  1  6  0  0  0
  3 11  1  0  0  0  0
  3  1  2  0  0  0  0
  5  2  1  0  0  0  0
  5  4  1  1  0  0  0
  6  5  1  0  0  0  0
  6  2  1  0  0  0  0
  7  8  1  0  0  0  0
  7 11  1  0  0  0  0
  8 10  1  0  0  0  0
 10  9  1  0  0  0  0
 11  9  2  0  0  0  0
 12  8  1  0  0  0  0
 13 14  1  6  0  0  0
 13 15  1  0  0  0  0
 13 12  1  0  0  0  0
 15 16  1  0  0  0  0
 17 18  2  0  0  0  0
 18 19  1  0  0  0  0
 18 16  1  0  0  0  0
 20 21  1  0  0  0  0
 21 22  2  0  0  0  0
 21 19  1  0  0  0  0
 23 26  1  0  0  0  0
 24 27  2  0  0  0  0
 25 23  2  0  0  0  0
 25 24  1  0  0  0  0
 26 27  1  0  0  0  0
 26  3  1  0  0  0  0
 28 25  1  0  0  0  0
 29 28  2  0  0  0  0
 30 34  1  0  0  0  0
 31 43  2  0  0  0  0
 32 31  1  0  0  0  0
 32 35  1  0  0  0  0
 34 36  1  0  0  0  0
 34 33  1  1  0  0  0
 36 29  1  0  0  0  0
 37 39  1  0  0  0  0
 38 31  1  0  0  0  0
 38 40  1  0  0  0  0
 39 40  1  0  0  0  0
 39 41  2  0  0  0  0
 40 30  2  0  0  0  0
 41 44  1  0  0  0  0
 42 37  2  0  0  0  0
 42 38  1  0  0  0  0
 44 36  2  0  0  0  0
 45 32  1  0  0  0  0
 45 46  1  0  0  0  0
 47 48  2  0  0  0  0
 48 49  1  0  0  0  0
 48 29  1  0  0  0  0
 52 53  1  0  0  0  0
 53 50  1  0  0  0  0
 53 55  2  0  0  0  0
 54 52  1  0  0  0  0
 54 51  2  0  0  0  0
 56 54  1  0  0  0  0
 57 56  1  0  0  0  0
 58 57  1  0  0  0  0
 59 63  1  0  0  0  0
 61 59  1  0  0  0  0
 61 62  1  0  0  0  0
 62 58  1  6  0  0  0
 62 60  1  0  0  0  0
 63 60  1  0  0  0  0
 64  5  1  0  0  0  0
 66 65  1  0  0  0  0
 66 64  1  0  0  0  0
M  END
>  <MODEL>
4

>  <REMARK>
 VINA RESULT:      -4.8      3.396     12.217
  Name = 
  21 active torsions:
  status: ('A' for Active; 'I' for Inactive)
    1  A    between atoms: C_5  and  C_11
    2  A    between atoms: C_5  and  C_32
    3  A    between atoms: N_8  and  C_26
    4  A    between atoms: O_10  and  C_43
    5  A    between atoms: C_11  and  N_47
    6  A    between atoms: N_12  and  C_41
    7  A    between atoms: C_14  and  C_44
    8  A    between atoms: C_14  and  C_51
    9  A    between atoms: O_18  and  C_38
   10  A    between atoms: O_18  and  C_44
   11  A    between atoms: C_19  and  CA_54
   12  A    between atoms: C_20  and  C_62
   13  A    between atoms: C_20  and  C_65
   14  A    between atoms: C_31  and  C_36
   15  A    between atoms: C_31  and  C_37
   16  A    between atoms: N_34  and  C_62
   17  A    between atoms: N_40  and  C_49
   18  A    between atoms: C_43  and  C_57
   19  A    between atoms: C_45  and  CA_54
   20  A    between atoms: N_47  and  C_65
   21  A    between atoms: C_49  and  C_58
                            x       y       z     vdW  Elec       q    Type
                         _______ _______ _______ _____ _____    ______ ____

>  <TORSDO>
F 21

$$$$
=
 OpenBabel11042419133D

 66 71  0  0  1  0  0  0  0  0999 V2000
  191.1010  173.2040  138.2590 C   0  0  0  0  0  0  0  0  0  0  0  0
  188.6920  173.7500  137.0040 C   0  0  2  0  0  3  0  0  0  0  0  0
  192.3160  172.9590  138.6830 C   0  0  0  0  0  0  0  0  0  0  0  0
  187.7870  172.7330  139.1080 C   0  0  0  0  0  1  0  0  0  0  0  0
  188.4710  173.9020  138.4250 C   0  0  1  0  0  0  0  0  0  0  0  0
  189.8660  173.4850  137.9600 C   0  0  0  0  0  0  0  0  0  0  0  0
  193.9030  170.6020  138.2010 S   0  0  0  0  0  0  0  0  0  0  0  0
  194.9440  170.6170  136.7540 N   0  0  0  0  0  0  0  0  0  0  0  0
  193.8160  172.7310  136.7300 C   0  0  0  0  0  3  0  0  0  0  0  0
  194.7370  171.8530  136.1140 N   0  0  0  0  0  0  0  0  0  0  0  0
  193.2760  172.2280  137.8180 C   0  0  2  0  0  3  0  0  0  0  0  0
  196.3360  170.6030  137.1890 C   0  0  0  0  0  2  0  0  0  0  0  0
  196.5660  169.5480  138.2640 C   0  0  1  0  0  3  0  0  0  0  0  0
  197.4600  168.4380  137.7280 C   0  0  0  0  0  1  0  0  0  0  0  0
  197.2440  170.2020  139.4530 C   0  0  0  0  0  2  0  0  0  0  0  0
  197.6180  169.1850  140.4280 N   0  0  0  0  0  0  0  0  0  0  0  0
  197.5550  168.2590  142.6090 C   0  0  0  0  0  1  0  0  0  0  0  0
  197.1070  169.1710  141.7590 C   0  0  0  0  0  0  0  0  0  0  0  0
  196.1760  170.2460  142.2390 C   0  0  0  0  0  2  0  0  0  0  0  0
  195.2300  169.8690  144.6330 C   0  0  0  0  0  1  0  0  0  0  0  0
  195.1190  169.7040  143.1560 C   0  0  0  0  0  0  0  0  0  0  0  0
  193.9930  169.2190  142.6450 C   0  0  0  0  0  2  0  0  0  0  0  0
  191.9660  174.2050  140.7820 C   0  0  0  0  0  3  0  0  0  0  0  0
  193.4520  173.2040  142.1260 C   0  0  0  0  0  3  0  0  0  0  0  0
  192.4570  174.1720  142.0600 C   0  0  0  0  0  0  0  0  0  0  0  0
  192.6590  173.3290  140.0320 N   0  0  0  0  0  0  0  0  0  0  0  0
  193.5560  172.7070  140.8370 C   0  0  0  0  0  3  0  0  0  0  0  0
  191.7870  174.8160  143.1570 N   0  0  0  0  0  0  0  0  0  0  0  0
  190.8110  174.4080  143.9290 C   0  0  0  0  0  0  0  0  0  0  0  0
  188.2150  176.4870  145.7890 N   0  0  0  0  0  0  0  0  0  0  0  0
  186.3430  178.3060  147.3380 C   0  0  0  0  0  0  0  0  0  0  0  0
  185.7030  178.3110  146.0540 N   0  0  0  0  0  0  0  0  0  0  0  0
  188.1200  174.8300  144.1010 F   0  0  0  0  0  0  0  0  0  0  0  0
  188.9050  175.5810  144.9200 C   0  0  0  0  0  0  0  0  0  0  0  0
  184.2490  178.2560  145.9940 C   0  0  0  0  0  1  0  0  0  0  0  0
  190.2410  175.4070  144.8680 C   0  0  0  0  0  0  0  0  0  0  0  0
  189.9680  178.6240  148.2600 C   0  0  0  0  0  3  0  0  0  0  0  0
  187.7740  178.2760  147.4620 N   0  0  0  0  0  0  0  0  0  0  0  0
  189.9120  177.6230  147.1510 C   0  0  0  0  0  0  0  0  0  0  0  0
  188.6740  177.4470  146.7400 C   0  0  1  0  0  3  0  0  0  0  0  0
  191.1170  176.9300  146.7220 C   0  0  0  0  0  3  0  0  0  0  0  0
  188.5000  178.9610  148.5160 C   0  0  0  0  0  3  0  0  0  0  0  0
  185.6410  178.3910  148.3850 O   0  0  0  0  0  0  0  0  0  0  0  0
  191.2430  176.0120  145.7700 C   0  0  0  0  0  3  0  0  0  0  0  0
  186.4300  178.7350  144.8620 C   0  0  0  0  0  2  0  0  0  0  0  0
  185.5210  179.5160  143.9320 C   0  0  0  0  0  1  0  0  0  0  0  0
  190.2370  172.3270  144.9320 O   0  0  0  0  0  1  0  0  0  0  0  0
  190.2550  173.0280  143.8880 C   0  0  0  0  0  0  0  0  0  0  0  0
  189.8270  172.4610  142.6920 O   0  0  0  0  0  0  0  0  0  0  0  0
  188.9570  175.0230  136.2020 C   0  0  0  0  0  2  0  0  0  0  0  0
  184.9780  176.3680  135.0710 O   0  0  0  0  0  0  0  0  0  0  0  0
  186.5460  175.6400  136.6540 N   0  0  0  0  0  2  0  0  0  0  0  0
  187.6880  175.7050  135.7920 C   0  0  0  0  0  0  0  0  0  0  0  0
  185.2220  176.0140  136.2580 C   0  0  0  0  0  0  0  0  0  0  0  0
  187.6010  176.2500  134.6550 O   0  0  0  0  0  0  0  0  0  0  0  0
  184.0810  175.9600  137.2270 C   0  0  0  0  0  2  0  0  0  0  0  0
  182.8160  175.2730  136.6950 C   0  0  0  0  0  2  0  0  0  0  0  0
  182.0330  174.6990  137.7080 O   0  0  0  0  0  0  0  0  0  0  0  0
  180.8510  172.1920  135.4810 S   0  0  0  0  0  0  0  0  0  0  0  0
  180.2120  173.1780  137.9010 C   0  0  0  0  0  2  0  0  0  0  0  0
  180.9490  173.9970  135.6630 C   0  0  0  0  0  2  0  0  0  0  0  0
  180.7930  174.3630  137.1410 C   0  0  2  0  0  3  0  0  0  0  0  0
  179.7160  172.1530  136.8990 C   0  0  0  0  0  2  0  0  0  0  0  0
  188.5160  175.2000  139.2630 C   0  0  0  0  0  2  0  0  0  0  0  0
  189.0720  176.0470  141.1810 O   0  0  0  0  0  1  0  0  0  0  0  0
  188.4360  175.0180  140.6500 O   0  0  0  0  0  0  0  0  0  0  0  0
  1  3  2  0  0  0  0
  2 50  1  6  0  0  0
  2  6  1  0  0  0  0
  2  5  1  0  0  0  0
  3 26  1  0  0  0  0
  5  4  1  1  0  0  0
  5 64  1  0  0  0  0
  6  1  2  0  0  0  0
  6  5  1  0  0  0  0
  8 12  1  0  0  0  0
  8  7  1  0  0  0  0
  9 11  1  0  0  0  0
 10  9  2  0  0  0  0
 10  8  1  0  0  0  0
 11  7  1  0  0  0  0
 11  3  1  1  0  0  0
 12 13  1  0  0  0  0
 13 14  1  6  0  0  0
 13 15  1  0  0  0  0
 15 16  1  0  0  0  0
 16 18  2  0  0  0  0
 18 19  1  0  0  0  0
 18 17  1  0  0  0  0
 19 21  1  0  0  0  0
 21 20  1  0  0  0  0
 22 21  2  0  0  0  0
 23 25  2  0  0  0  0
 25 24  1  0  0  0  0
 25 28  1  0  0  0  0
 26 23  1  0  0  0  0
 26 27  1  0  0  0  0
 27 24  2  0  0  0  0
 28 29  2  0  0  0  0
 29 36  1  0  0  0  0
 31 38  1  0  0  0  0
 31 43  2  0  0  0  0
 32 31  1  0  0  0  0
 33 34  1  0  0  0  0
 34 30  2  0  0  0  0
 35 32  1  0  0  0  0
 36 34  1  0  0  0  0
 36 44  2  0  0  0  0
 37 42  2  0  0  0  0
 38 42  1  0  0  0  0
 39 37  1  0  0  0  0
 40 30  1  1  0  0  0
 40 39  1  0  0  0  0
 40 38  1  0  0  0  0
 41 39  2  0  0  0  0
 44 41  1  0  0  0  0
 45 32  1  0  0  0  0
 46 45  1  0  0  0  0
 48 29  1  0  0  0  0
 48 47  1  0  0  0  0
 49 48  2  0  0  0  0
 51 54  2  0  0  0  0
 53 50  1  0  0  0  0
 53 52  1  0  0  0  0
 54 52  1  0  0  0  0
 54 56  1  0  0  0  0
 55 53  2  0  0  0  0
 57 56  1  0  0  0  0
 57 58  1  0  0  0  0
 59 61  1  0  0  0  0
 59 63  1  0  0  0  0
 61 62  1  0  0  0  0
 62 58  1  1  0  0  0
 62 60  1  0  0  0  0
 63 60  1  0  0  0  0
 64 66  1  0  0  0  0
 66 65  1  0  0  0  0
M  END
>  <MODEL>
5

>  <REMARK>
 VINA RESULT:      -3.6      2.616      3.794
  Name = 
  21 active torsions:
  status: ('A' for Active; 'I' for Inactive)
    1  A    between atoms: C_5  and  C_11
    2  A    between atoms: C_5  and  C_32
    3  A    between atoms: N_8  and  C_26
    4  A    between atoms: O_10  and  C_43
    5  A    between atoms: C_11  and  N_47
    6  A    between atoms: N_12  and  C_41
    7  A    between atoms: C_14  and  C_44
    8  A    between atoms: C_14  and  C_51
    9  A    between atoms: O_18  and  C_38
   10  A    between atoms: O_18  and  C_44
   11  A    between atoms: C_19  and  CA_54
   12  A    between atoms: C_20  and  C_62
   13  A    between atoms: C_20  and  C_65
   14  A    between atoms: C_31  and  C_36
   15  A    between atoms: C_31  and  C_37
   16  A    between atoms: N_34  and  C_62
   17  A    between atoms: N_40  and  C_49
   18  A    between atoms: C_43  and  C_57
   19  A    between atoms: C_45  and  CA_54
   20  A    between atoms: N_47  and  C_65
   21  A    between atoms: C_49  and  C_58
                            x       y       z     vdW  Elec       q    Type
                         _______ _______ _______ _____ _____    ______ ____

>  <TORSDO>
F 21

$$$$
=
 OpenBabel11042419133D

 66 71  0  0  1  0  0  0  0  0999 V2000
  194.9180  172.7030  141.2100 C   0  0  0  0  0  0  0  0  0  0  0  0
  196.6010  174.8820  141.5230 C   0  0  2  0  0  3  0  0  0  0  0  0
  194.2660  171.5700  141.1180 C   0  0  0  0  0  0  0  0  0  0  0  0
  194.9030  175.9440  140.0160 C   0  0  0  0  0  1  0  0  0  0  0  0
  195.2580  175.4020  141.3870 C   0  0  1  0  0  0  0  0  0  0  0  0
  195.4480  173.8880  141.3130 C   0  0  0  0  0  0  0  0  0  0  0  0
  196.7390  170.2570  140.4370 S   0  0  0  0  0  0  0  0  0  0  0  0
  196.6370  168.5340  139.9890 N   0  0  0  0  0  0  0  0  0  0  0  0
  194.3850  169.1810  140.4890 C   0  0  0  0  0  3  0  0  0  0  0  0
  195.2820  168.1660  140.0870 N   0  0  0  0  0  0  0  0  0  0  0  0
  194.9810  170.3280  140.7290 C   0  0  2  0  0  3  0  0  0  0  0  0
  197.0020  168.4020  138.5830 C   0  0  0  0  0  2  0  0  0  0  0  0
  196.6620  169.6680  137.8050 C   0  0  1  0  0  3  0  0  0  0  0  0
  197.8350  170.0720  136.9220 C   0  0  0  0  0  1  0  0  0  0  0  0
  195.4510  169.3970  136.9330 C   0  0  0  0  0  2  0  0  0  0  0  0
  195.0290  170.6290  136.2800 N   0  0  0  0  0  2  0  0  0  0  0  0
  192.6980  171.0360  136.4220 C   0  0  0  0  0  2  0  0  0  0  0  0
  193.9280  171.4070  136.7460 C   0  0  0  0  0  0  0  0  0  0  0  0
  194.1380  172.5500  137.6950 C   0  0  0  0  0  2  0  0  0  0  0  0
  195.8920  174.1710  136.6640 C   0  0  0  0  0  1  0  0  0  0  0  0
  194.4770  173.8220  136.9750 C   0  0  0  0  0  0  0  0  0  0  0  0
  193.5030  174.5650  136.4610 C   0  0  0  0  0  2  0  0  0  0  0  0
  192.1070  172.6930  141.5130 C   0  0  0  0  0  3  0  0  0  0  0  0
  190.6780  171.0050  141.1550 C   0  0  0  0  0  3  0  0  0  0  0  0
  190.7800  172.3580  141.4600 C   0  0  0  0  0  0  0  0  0  0  0  0
  192.8390  171.5830  141.3070 N   0  0  0  0  0  0  0  0  0  0  0  0
  191.9860  170.5540  141.0780 C   0  0  0  0  0  3  0  0  0  0  0  0
  189.7400  173.3480  141.4090 N   0  0  0  0  0  0  0  0  0  0  0  0
  189.1770  173.9550  140.3940 C   0  0  0  0  0  0  0  0  0  0  0  0
  187.5030  176.7670  142.3470 N   0  0  0  0  0  0  0  0  0  0  0  0
  185.9670  178.9850  143.7360 C   0  0  0  0  0  0  0  0  0  0  0  0
  186.1870  178.0950  144.8390 N   0  0  0  0  0  0  0  0  0  0  0  0
  189.2730  175.2590  142.7900 F   0  0  0  0  0  0  0  0  0  0  0  0
  188.3230  175.6760  141.9100 C   0  0  2  0  0  3  0  0  0  0  0  0
  186.5280  178.6580  146.1380 C   0  0  0  0  0  1  0  0  0  0  0  0
  188.2380  175.0590  140.7140 C   0  0  0  0  0  0  0  0  0  0  0  0
  184.8800  178.2850  140.2120 C   0  0  0  0  0  3  0  0  0  0  0  0
  185.7090  178.4900  142.4130 N   0  0  0  0  0  0  0  0  0  0  0  0
  185.9560  177.2920  140.5150 C   0  0  0  0  0  0  0  0  0  0  0  0
  186.4010  177.4440  141.7450 C   0  0  0  0  0  0  0  0  0  0  0  0
  186.4340  176.3840  139.4840 C   0  0  0  0  0  3  0  0  0  0  0  0
  184.8150  179.1440  141.4730 C   0  0  0  0  0  3  0  0  0  0  0  0
  185.9390  180.2330  143.9380 O   0  0  0  0  0  0  0  0  0  0  0  0
  187.3810  175.4580  139.5780 C   0  0  0  0  0  3  0  0  0  0  0  0
  185.7240  176.7130  144.7820 C   0  0  0  0  0  2  0  0  0  0  0  0
  184.8060  176.4080  145.9510 C   0  0  0  0  0  1  0  0  0  0  0  0
  190.4490  174.0910  138.3860 O   0  0  0  0  0  1  0  0  0  0  0  0
  189.4500  173.6030  138.9740 C   0  0  0  0  0  0  0  0  0  0  0  0
  188.5710  172.8040  138.2500 O   0  0  0  0  0  0  0  0  0  0  0  0
  197.1510  174.7420  142.9400 C   0  0  0  0  0  2  0  0  0  0  0  0
  195.3180  177.8980  145.3070 O   0  0  0  0  0  0  0  0  0  0  0  0
  195.8500  175.6490  144.9100 N   0  0  0  0  0  2  0  0  0  0  0  0
  196.7470  175.8860  143.8180 C   0  0  0  0  0  0  0  0  0  0  0  0
  195.1890  176.6870  145.6420 C   0  0  0  0  0  0  0  0  0  0  0  0
  197.1180  177.0610  143.5390 O   0  0  0  0  0  0  0  0  0  0  0  0
  194.2960  176.3670  146.8010 C   0  0  0  0  0  2  0  0  0  0  0  0
  192.9290  175.7860  146.4190 C   0  0  0  0  0  2  0  0  0  0  0  0
  192.0590  176.7390  145.8690 O   0  0  0  0  0  0  0  0  0  0  0  0
  188.9560  175.0050  145.9390 S   0  0  0  0  0  0  0  0  0  0  0  0
  190.9510  175.5990  147.6410 C   0  0  0  0  0  2  0  0  0  0  0  0
  189.6420  176.6830  145.8160 C   0  0  0  0  0  2  0  0  0  0  0  0
  190.9070  176.7720  146.6720 C   0  0  2  0  0  3  0  0  0  0  0  0
  189.6000  174.9110  147.6350 C   0  0  0  0  0  2  0  0  0  0  0  0
  194.2710  175.7970  142.5100 C   0  0  0  0  0  2  0  0  0  0  0  0
  192.1170  176.0460  142.4740 O   0  0  0  0  0  1  0  0  0  0  0  0
  193.0500  175.1100  142.4990 O   0  0  0  0  0  0  0  0  0  0  0  0
  1  6  2  0  0  0  0
  2 50  1  1  0  0  0
  3  1  2  0  0  0  0
  3 26  1  0  0  0  0
  5  4  1  6  0  0  0
  5  2  1  0  0  0  0
  5 64  1  0  0  0  0
  6  5  1  0  0  0  0
  6  2  1  0  0  0  0
  7 11  1  0  0  0  0
  8 10  1  0  0  0  0
  8  7  1  0  0  0  0
  9 11  1  0  0  0  0
 10  9  2  0  0  0  0
 11  3  1  6  0  0  0
 12  8  1  0  0  0  0
 13 14  1  6  0  0  0
 13 12  1  0  0  0  0
 15 13  1  0  0  0  0
 16 18  1  0  0  0  0
 16 15  1  0  0  0  0
 17 18  2  0  0  0  0
 18 19  1  0  0  0  0
 20 21  1  0  0  0  0
 21 19  1  0  0  0  0
 22 21  2  0  0  0  0
 24 25  1  0  0  0  0
 25 23  2  0  0  0  0
 26 23  1  0  0  0  0
 27 24  2  0  0  0  0
 27 26  1  0  0  0  0
 28 25  1  0  0  0  0
 29 36  1  0  0  0  0
 29 28  2  0  0  0  0
 31 43  2  0  0  0  0
 31 32  1  0  0  0  0
 32 35  1  0  0  0  0
 34 30  1  0  0  0  0
 34 33  1  6  0  0  0
 36 34  1  0  0  0  0
 37 39  1  0  0  0  0
 37 42  2  0  0  0  0
 38 31  1  0  0  0  0
 39 40  1  0  0  0  0
 40 30  2  0  0  0  0
 40 38  1  0  0  0  0
 41 44  1  0  0  0  0
 41 39  2  0  0  0  0
 42 38  1  0  0  0  0
 44 36  2  0  0  0  0
 45 32  1  0  0  0  0
 45 46  1  0  0  0  0
 47 48  1  0  0  0  0
 48 29  1  0  0  0  0
 49 48  2  0  0  0  0
 50 53  1  0  0  0  0
 51 54  2  0  0  0  0
 52 54  1  0  0  0  0
 53 52  1  0  0  0  0
 54 56  1  0  0  0  0
 55 53  2  0  0  0  0
 57 56  1  0  0  0  0
 58 57  1  0  0  0  0
 59 63  1  0  0  0  0
 61 59  1  0  0  0  0
 61 62  1  0  0  0  0
 62 58  1  6  0  0  0
 62 60  1  0  0  0  0
 63 60  1  0  0  0  0
 65 66  1  0  0  0  0
 66 64  1  0  0  0  0
M  END
>  <MODEL>
6

>  <REMARK>
 VINA RESULT:      -3.6      2.956      6.958
  Name = 
  21 active torsions:
  status: ('A' for Active; 'I' for Inactive)
    1  A    between atoms: C_5  and  C_11
    2  A    between atoms: C_5  and  C_32
    3  A    between atoms: N_8  and  C_26
    4  A    between atoms: O_10  and  C_43
    5  A    between atoms: C_11  and  N_47
    6  A    between atoms: N_12  and  C_41
    7  A    between atoms: C_14  and  C_44
    8  A    between atoms: C_14  and  C_51
    9  A    between atoms: O_18  and  C_38
   10  A    between atoms: O_18  and  C_44
   11  A    between atoms: C_19  and  CA_54
   12  A    between atoms: C_20  and  C_62
   13  A    between atoms: C_20  and  C_65
   14  A    between atoms: C_31  and  C_36
   15  A    between atoms: C_31  and  C_37
   16  A    between atoms: N_34  and  C_62
   17  A    between atoms: N_40  and  C_49
   18  A    between atoms: C_43  and  C_57
   19  A    between atoms: C_45  and  CA_54
   20  A    between atoms: N_47  and  C_65
   21  A    between atoms: C_49  and  C_58
                            x       y       z     vdW  Elec       q    Type
                         _______ _______ _______ _____ _____    ______ ____

>  <TORSDO>
F 21

$$$$
=
 OpenBabel11042419133D

 66 71  0  0  1  0  0  0  0  0999 V2000
  185.7300  177.1150  142.2860 C   0  0  0  0  0  0  0  0  0  0  0  0
  183.5920  178.5840  141.3150 C   0  0  2  0  0  3  0  0  0  0  0  0
  186.6630  176.4410  142.9120 C   0  0  0  0  0  0  0  0  0  0  0  0
  185.1650  178.9130  139.3920 C   0  0  0  0  0  1  0  0  0  0  0  0
  184.2490  177.9900  140.1720 C   0  0  1  0  0  0  0  0  0  0  0  0
  184.8400  177.7210  141.5550 C   0  0  0  0  0  0  0  0  0  0  0  0
  188.5090  177.7440  144.7010 S   0  0  0  0  0  0  0  0  0  0  0  0
  188.1690  177.6080  146.4460 N   0  0  0  0  0  0  0  0  0  0  0  0
  186.3900  176.4160  145.3700 C   0  0  0  0  0  3  0  0  0  0  0  0
  186.9860  176.8560  146.5740 N   0  0  0  0  0  2  0  0  0  0  0  0
  187.0450  176.8070  144.2990 C   0  0  0  0  0  0  0  0  0  0  0  0
  189.2300  176.8190  147.0610 C   0  0  0  0  0  2  0  0  0  0  0  0
  190.3710  176.5720  146.0820 C   0  0  1  0  0  3  0  0  0  0  0  0
  191.5290  177.5160  146.3750 C   0  0  0  0  0  1  0  0  0  0  0  0
  190.8450  175.1390  146.2340 C   0  0  0  0  0  2  0  0  0  0  0  0
  192.1510  175.1190  146.8820 N   0  0  0  0  0  2  0  0  0  0  0  0
  193.1720  173.4150  145.5890 C   0  0  0  0  0  2  0  0  0  0  0  0
  193.3030  174.5440  146.2700 C   0  0  0  0  0  0  0  0  0  0  0  0
  194.6210  175.2620  146.2780 C   0  0  0  0  0  2  0  0  0  0  0  0
  196.1300  174.5850  144.2700 C   0  0  0  0  0  1  0  0  0  0  0  0
  195.1350  175.5060  144.8890 C   0  0  0  0  0  0  0  0  0  0  0  0
  194.5800  176.4510  144.1410 C   0  0  0  0  0  2  0  0  0  0  0  0
  188.5560  175.5790  141.5870 C   0  0  0  0  0  3  0  0  0  0  0  0
  188.1040  173.3860  141.5740 C   0  0  0  0  0  3  0  0  0  0  0  0
  189.0110  174.3570  141.1680 C   0  0  0  0  0  0  0  0  0  0  0  0
  187.3660  175.4110  142.1920 N   0  0  0  0  0  0  0  0  0  0  0  0
  187.0840  174.0850  142.2000 C   0  0  0  0  0  3  0  0  0  0  0  0
  190.3540  174.1590  140.6960 N   0  0  0  0  0  0  0  0  0  0  0  0
  191.3410  173.4470  141.1800 C   0  0  0  0  0  0  0  0  0  0  0  0
  194.1470  172.9640  138.6470 N   0  0  0  0  0  0  0  0  0  0  0  0
  196.5450  172.6850  136.8080 C   0  0  0  0  0  0  0  0  0  0  0  0
  196.0920  171.3240  136.8480 N   0  0  0  0  0  0  0  0  0  0  0  0
  191.9740  172.0640  138.9140 F   0  0  0  0  0  0  0  0  0  0  0  0
  192.9300  172.9000  139.4010 C   0  0  2  0  0  3  0  0  0  0  0  0
  196.1140  170.5400  135.6220 C   0  0  0  0  0  1  0  0  0  0  0  0
  192.6620  173.6030  140.5200 C   0  0  0  0  0  0  0  0  0  0  0  0
  196.9560  175.2050  139.5590 C   0  0  0  0  0  3  0  0  0  0  0  0
  196.4710  173.5340  137.9630 N   0  0  0  0  0  0  0  0  0  0  0  0
  195.6090  174.5900  139.7630 C   0  0  0  0  0  0  0  0  0  0  0  0
  195.3690  173.6730  138.8490 C   0  0  0  0  0  0  0  0  0  0  0  0
  194.7250  175.0800  140.8090 C   0  0  0  0  0  3  0  0  0  0  0  0
  197.4630  174.5470  138.2770 C   0  0  0  0  0  3  0  0  0  0  0  0
  197.0760  173.1330  135.7530 O   0  0  0  0  0  0  0  0  0  0  0  0
  193.5030  174.6610  141.1170 C   0  0  0  0  0  3  0  0  0  0  0  0
  195.9690  170.6190  138.1200 C   0  0  0  0  0  2  0  0  0  0  0  0
  196.9260  169.4430  138.1730 C   0  0  0  0  0  1  0  0  0  0  0  0
  190.9810  172.9990  143.4900 O   0  0  0  0  0  1  0  0  0  0  0  0
  191.1980  172.5300  142.3440 C   0  0  0  0  0  0  0  0  0  0  0  0
  191.3820  171.1590  142.2040 O   0  0  0  0  0  0  0  0  0  0  0  0
  182.3560  177.8680  141.8560 C   0  0  0  0  0  2  0  0  0  0  0  0
  179.0480  180.4880  140.8020 O   0  0  0  0  0  0  0  0  0  0  0  0
  180.3280  178.5460  140.5070 N   0  0  0  0  0  2  0  0  0  0  0  0
  181.1130  178.6880  141.6960 C   0  0  0  0  0  0  0  0  0  0  0  0
  179.2870  179.4520  140.1220 C   0  0  0  0  0  0  0  0  0  0  0  0
  180.8150  179.5620  142.5590 O   0  0  0  0  0  0  0  0  0  0  0  0
  178.4780  179.2170  138.8840 C   0  0  0  0  0  2  0  0  0  0  0  0
  177.9820  180.4920  138.1880 C   0  0  0  0  0  2  0  0  0  0  0  0
  178.9330  181.0540  137.3230 O   0  0  0  0  0  0  0  0  0  0  0  0
  178.6680  183.8960  139.4430 S   0  0  0  0  0  0  0  0  0  0  0  0
  179.8800  183.2300  137.1370 C   0  0  0  0  0  2  0  0  0  0  0  0
  177.6920  182.8930  138.2850 C   0  0  0  0  0  2  0  0  0  0  0  0
  178.5990  182.4070  137.1520 C   0  0  2  0  0  3  0  0  0  0  0  0
  179.7000  184.4290  138.0470 C   0  0  0  0  0  2  0  0  0  0  0  0
  183.8870  176.6760  139.4420 C   0  0  0  0  0  2  0  0  0  0  0  0
  182.0590  176.2680  138.3490 O   0  0  0  0  0  1  0  0  0  0  0  0
  183.2440  176.8370  138.2080 O   0  0  0  0  0  0  0  0  0  0  0  0
  1  3  2  0  0  0  0
  2  6  1  0  0  0  0
  2 50  1  1  0  0  0
  3 11  1  0  0  0  0
  5  4  1  6  0  0  0
  5  2  1  0  0  0  0
  5  6  1  0  0  0  0
  6  1  2  0  0  0  0
  7  8  1  0  0  0  0
  8 10  1  0  0  0  0
  8 12  1  0  0  0  0
  9 10  1  0  0  0  0
 11  7  1  0  0  0  0
 11  9  2  0  0  0  0
 13 15  1  0  0  0  0
 13 14  1  1  0  0  0
 13 12  1  0  0  0  0
 15 16  1  0  0  0  0
 17 18  2  0  0  0  0
 18 19  1  0  0  0  0
 18 16  1  0  0  0  0
 20 21  1  0  0  0  0
 21 19  1  0  0  0  0
 22 21  2  0  0  0  0
 23 26  1  0  0  0  0
 24 27  2  0  0  0  0
 25 24  1  0  0  0  0
 25 23  2  0  0  0  0
 26 27  1  0  0  0  0
 26  3  1  0  0  0  0
 28 25  1  0  0  0  0
 28 29  2  0  0  0  0
 29 48  1  0  0  0  0
 30 40  2  0  0  0  0
 30 34  1  0  0  0  0
 31 32  1  0  0  0  0
 31 38  1  0  0  0  0
 32 45  1  0  0  0  0
 34 33  1  6  0  0  0
 34 36  1  0  0  0  0
 35 32  1  0  0  0  0
 36 44  2  0  0  0  0
 36 29  1  0  0  0  0
 37 39  1  0  0  0  0
 38 42  1  0  0  0  0
 38 40  1  0  0  0  0
 39 41  2  0  0  0  0
 40 39  1  0  0  0  0
 41 44  1  0  0  0  0
 42 37  2  0  0  0  0
 43 31  2  0  0  0  0
 45 46  1  0  0  0  0
 48 47  1  0  0  0  0
 49 48  2  0  0  0  0
 52 53  1  0  0  0  0
 53 50  1  0  0  0  0
 53 55  2  0  0  0  0
 54 52  1  0  0  0  0
 54 51  2  0  0  0  0
 56 54  1  0  0  0  0
 57 56  1  0  0  0  0
 58 57  1  0  0  0  0
 60 62  1  0  0  0  0
 60 63  1  0  0  0  0
 61 59  1  0  0  0  0
 62 58  1  1  0  0  0
 62 61  1  0  0  0  0
 63 59  1  0  0  0  0
 64  5  1  0  0  0  0
 66 65  1  0  0  0  0
 66 64  1  0  0  0  0
M  END
>  <MODEL>
7

>  <REMARK>
 VINA RESULT:      -3.5      4.377     10.762
  Name = 
  21 active torsions:
  status: ('A' for Active; 'I' for Inactive)
    1  A    between atoms: C_5  and  C_11
    2  A    between atoms: C_5  and  C_32
    3  A    between atoms: N_8  and  C_26
    4  A    between atoms: O_10  and  C_43
    5  A    between atoms: C_11  and  N_47
    6  A    between atoms: N_12  and  C_41
    7  A    between atoms: C_14  and  C_44
    8  A    between atoms: C_14  and  C_51
    9  A    between atoms: O_18  and  C_38
   10  A    between atoms: O_18  and  C_44
   11  A    between atoms: C_19  and  CA_54
   12  A    between atoms: C_20  and  C_62
   13  A    between atoms: C_20  and  C_65
   14  A    between atoms: C_31  and  C_36
   15  A    between atoms: C_31  and  C_37
   16  A    between atoms: N_34  and  C_62
   17  A    between atoms: N_40  and  C_49
   18  A    between atoms: C_43  and  C_57
   19  A    between atoms: C_45  and  CA_54
   20  A    between atoms: N_47  and  C_65
   21  A    between atoms: C_49  and  C_58
                            x       y       z     vdW  Elec       q    Type
                         _______ _______ _______ _____ _____    ______ ____

>  <TORSDO>
F 21

$$$$
=
 OpenBabel11042419133D

 66 71  0  0  1  0  0  0  0  0999 V2000
  189.3130  175.0270  141.3890 C   0  0  0  0  0  0  0  0  0  0  0  0
  190.2530  172.8250  139.9950 C   0  0  2  0  0  3  0  0  0  0  0  0
  189.0340  176.0700  142.1320 C   0  0  0  0  0  0  0  0  0  0  0  0
  187.7990  172.4640  139.6380 C   0  0  0  0  0  1  0  0  0  0  0  0
  189.0480  173.2650  139.3260 C   0  0  1  0  0  0  0  0  0  0  0  0
  189.4960  174.0320  140.5700 C   0  0  0  0  0  0  0  0  0  0  0  0
  190.9950  177.2480  143.8850 S   0  0  0  0  0  0  0  0  0  0  0  0
  190.9940  176.6930  145.5790 N   0  0  0  0  0  0  0  0  0  0  0  0
  189.2130  175.4830  144.5280 C   0  0  0  0  0  3  0  0  0  0  0  0
  189.9570  175.7500  145.7000 N   0  0  0  0  0  2  0  0  0  0  0  0
  189.6100  176.1920  143.4940 C   0  0  0  0  0  0  0  0  0  0  0  0
  192.2380  175.9750  145.8280 C   0  0  0  0  0  2  0  0  0  0  0  0
  193.4450  176.7920  145.3820 C   0  0  1  0  0  3  0  0  0  0  0  0
  194.5460  176.7180  146.4300 C   0  0  0  0  0  1  0  0  0  0  0  0
  193.9630  176.2250  144.0740 C   0  0  0  0  0  2  0  0  0  0  0  0
  195.4120  176.0790  144.1400 N   0  0  0  0  0  2  0  0  0  0  0  0
  197.5780  176.3960  143.2310 C   0  0  0  0  0  2  0  0  0  0  0  0
  196.2670  176.3940  143.0430 C   0  0  0  0  0  0  0  0  0  0  0  0
  195.7100  176.5900  141.6630 C   0  0  0  0  0  2  0  0  0  0  0  0
  194.4380  175.2140  139.8590 C   0  0  0  0  0  1  0  0  0  0  0  0
  195.4080  175.2840  140.9890 C   0  0  0  0  0  0  0  0  0  0  0  0
  196.1290  174.2100  141.2860 C   0  0  0  0  0  2  0  0  0  0  0  0
  186.9470  176.7210  140.9900 C   0  0  0  0  0  3  0  0  0  0  0  0
  186.8810  178.9140  141.4420 C   0  0  0  0  0  3  0  0  0  0  0  0
  186.2080  177.8620  140.8300 C   0  0  0  0  0  0  0  0  0  0  0  0
  188.0870  177.0340  141.6330 N   0  0  0  0  0  0  0  0  0  0  0  0
  188.0550  178.3580  141.9220 C   0  0  0  0  0  3  0  0  0  0  0  0
  184.8400  177.8360  140.3910 N   0  0  0  0  0  0  0  0  0  0  0  0
  183.7190  177.9510  141.0580 C   0  0  0  0  0  0  0  0  0  0  0  0
  181.3180  176.4330  138.5180 N   0  0  0  0  0  0  0  0  0  0  0  0
  179.2500  175.4310  136.5340 C   0  0  0  0  0  0  0  0  0  0  0  0
  180.4150  175.4620  135.6980 N   0  0  0  0  0  0  0  0  0  0  0  0
  183.6060  176.1190  139.0380 F   0  0  0  0  0  0  0  0  0  0  0  0
  182.4550  176.7900  139.3130 C   0  0  2  0  0  3  0  0  0  0  0  0
  180.6270  174.3770  134.7490 C   0  0  0  0  0  1  0  0  0  0  0  0
  182.4640  177.7050  140.3030 C   0  0  0  0  0  0  0  0  0  0  0  0
  177.9650  177.9300  139.0230 C   0  0  0  0  0  3  0  0  0  0  0  0
  179.0270  176.4270  137.5460 N   0  0  0  0  0  0  0  0  0  0  0  0
  179.4240  177.7770  139.3100 C   0  0  0  0  0  0  0  0  0  0  0  0
  179.9800  176.9240  138.4750 C   0  0  0  0  0  0  0  0  0  0  0  0
  180.0280  178.4590  140.4440 C   0  0  0  0  0  3  0  0  0  0  0  0
  177.7110  176.9260  137.9000 C   0  0  0  0  0  3  0  0  0  0  0  0
  178.3680  174.5470  136.3430 O   0  0  0  0  0  0  0  0  0  0  0  0
  181.2940  178.4250  140.8460 C   0  0  0  0  0  3  0  0  0  0  0  0
  181.1680  176.6980  135.5160 C   0  0  0  0  0  2  0  0  0  0  0  0
  182.3820  176.4600  134.6380 C   0  0  0  0  0  1  0  0  0  0  0  0
  184.4780  177.7750  143.3080 O   0  0  0  0  0  1  0  0  0  0  0  0
  183.6570  178.2900  142.5060 C   0  0  0  0  0  0  0  0  0  0  0  0
  182.6500  179.1070  143.0110 O   0  0  0  0  0  0  0  0  0  0  0  0
  191.5840  173.2860  139.4030 C   0  0  0  0  0  2  0  0  0  0  0  0
  194.5860  170.3040  138.3970 O   0  0  0  0  0  0  0  0  0  0  0  0
  193.2150  171.4270  139.9310 N   0  0  0  0  0  2  0  0  0  0  0  0
  192.4330  172.1340  138.9620 C   0  0  0  0  0  0  0  0  0  0  0  0
  194.2550  170.5000  139.5990 C   0  0  0  0  0  0  0  0  0  0  0  0
  192.5300  171.8520  137.7330 O   0  0  0  0  0  0  0  0  0  0  0  0
  195.0040  169.7640  140.6670 C   0  0  0  0  0  2  0  0  0  0  0  0
  194.5930  170.1180  142.1020 C   0  0  0  0  0  2  0  0  0  0  0  0
  195.4380  171.0640  142.7010 O   0  0  0  0  0  0  0  0  0  0  0  0
  197.2170  170.2500  145.6690 S   0  0  0  0  0  0  0  0  0  0  0  0
  195.7860  172.3100  144.6990 C   0  0  0  0  0  2  0  0  0  0  0  0
  195.7070  169.8170  144.7550 C   0  0  0  0  0  2  0  0  0  0  0  0
  195.1540  171.0730  144.0760 C   0  0  2  0  0  3  0  0  0  0  0  0
  196.5160  171.8990  145.9630 C   0  0  0  0  0  2  0  0  0  0  0  0
  188.9260  174.1950  138.0970 C   0  0  0  0  0  2  0  0  0  0  0  0
  189.8880  173.4800  136.2900 O   0  0  0  0  0  1  0  0  0  0  0  0
  188.7060  173.5440  136.8770 O   0  0  0  0  0  0  0  0  0  0  0  0
  1  3  2  0  0  0  0
  2 50  1  6  0  0  0
  2  6  1  0  0  0  0
  3 11  1  0  0  0  0
  5  4  1  1  0  0  0
  5  2  1  0  0  0  0
  5  6  1  0  0  0  0
  6  1  2  0  0  0  0
  7  8  1  0  0  0  0
  8 10  1  0  0  0  0
  8 12  1  0  0  0  0
  9 10  1  0  0  0  0
 11  7  1  0  0  0  0
 11  9  2  0  0  0  0
 13 12  1  0  0  0  0
 13 14  1  1  0  0  0
 15 16  1  0  0  0  0
 15 13  1  0  0  0  0
 18 17  2  0  0  0  0
 18 16  1  0  0  0  0
 19 18  1  0  0  0  0
 20 21  1  0  0  0  0
 21 22  2  0  0  0  0
 21 19  1  0  0  0  0
 23 26  1  0  0  0  0
 24 27  2  0  0  0  0
 25 23  2  0  0  0  0
 25 24  1  0  0  0  0
 26 27  1  0  0  0  0
 26  3  1  0  0  0  0
 28 25  1  0  0  0  0
 28 29  2  0  0  0  0
 29 48  1  0  0  0  0
 30 34  1  0  0  0  0
 31 38  1  0  0  0  0
 32 31  1  0  0  0  0
 34 33  1  1  0  0  0
 34 36  1  0  0  0  0
 35 32  1  0  0  0  0
 36 44  2  0  0  0  0
 36 29  1  0  0  0  0
 37 39  1  0  0  0  0
 38 42  1  0  0  0  0
 38 40  1  0  0  0  0
 39 41  2  0  0  0  0
 40 30  2  0  0  0  0
 40 39  1  0  0  0  0
 41 44  1  0  0  0  0
 42 37  2  0  0  0  0
 43 31  2  0  0  0  0
 45 32  1  0  0  0  0
 46 45  1  0  0  0  0
 48 49  2  0  0  0  0
 48 47  1  0  0  0  0
 51 54  2  0  0  0  0
 53 50  1  0  0  0  0
 53 52  1  0  0  0  0
 54 52  1  0  0  0  0
 54 56  1  0  0  0  0
 55 53  2  0  0  0  0
 56 57  1  0  0  0  0
 57 58  1  0  0  0  0
 59 63  1  0  0  0  0
 60 63  1  0  0  0  0
 61 59  1  0  0  0  0
 62 58  1  6  0  0  0
 62 60  1  0  0  0  0
 62 61  1  0  0  0  0
 64  5  1  0  0  0  0
 65 66  1  0  0  0  0
 66 64  1  0  0  0  0
M  END
>  <MODEL>
8

>  <REMARK>
 VINA RESULT:      -3.4      4.207      8.942
  Name = 
  21 active torsions:
  status: ('A' for Active; 'I' for Inactive)
    1  A    between atoms: C_5  and  C_11
    2  A    between atoms: C_5  and  C_32
    3  A    between atoms: N_8  and  C_26
    4  A    between atoms: O_10  and  C_43
    5  A    between atoms: C_11  and  N_47
    6  A    between atoms: N_12  and  C_41
    7  A    between atoms: C_14  and  C_44
    8  A    between atoms: C_14  and  C_51
    9  A    between atoms: O_18  and  C_38
   10  A    between atoms: O_18  and  C_44
   11  A    between atoms: C_19  and  CA_54
   12  A    between atoms: C_20  and  C_62
   13  A    between atoms: C_20  and  C_65
   14  A    between atoms: C_31  and  C_36
   15  A    between atoms: C_31  and  C_37
   16  A    between atoms: N_34  and  C_62
   17  A    between atoms: N_40  and  C_49
   18  A    between atoms: C_43  and  C_57
   19  A    between atoms: C_45  and  CA_54
   20  A    between atoms: N_47  and  C_65
   21  A    between atoms: C_49  and  C_58
                            x       y       z     vdW  Elec       q    Type
                         _______ _______ _______ _____ _____    ______ ____

>  <TORSDO>
F 21

$$$$
=
 OpenBabel11042419133D

 66 71  0  0  1  0  0  0  0  0999 V2000
  192.2670  171.4470  137.4240 C   0  0  0  0  0  0  0  0  0  0  0  0
  193.1880  168.9910  136.5320 C   0  0  2  0  0  3  0  0  0  0  0  0
  192.0100  172.6550  137.8630 C   0  0  0  0  0  0  0  0  0  0  0  0
  190.8600  168.3050  137.1560 C   0  0  0  0  0  1  0  0  0  0  0  0
  191.7790  169.0550  136.2120 C   0  0  1  0  0  0  0  0  0  0  0  0
  192.4020  170.2490  136.9340 C   0  0  0  0  0  0  0  0  0  0  0  0
  193.6370  172.4420  140.2320 S   0  0  0  0  0  0  0  0  0  0  0  0
  194.4240  173.9360  140.8030 N   0  0  0  0  0  0  0  0  0  0  0  0
  193.2220  174.5800  138.8330 C   0  0  0  0  0  3  0  0  0  0  0  0
  194.0650  174.9570  139.9030 N   0  0  0  0  0  2  0  0  0  0  0  0
  192.9180  173.3010  138.8430 C   0  0  0  0  0  0  0  0  0  0  0  0
  193.8440  174.2970  142.0920 C   0  0  0  0  0  2  0  0  0  0  0  0
  193.5860  173.0610  142.9450 C   0  0  1  0  0  3  0  0  0  0  0  0
  194.5260  173.0450  144.1430 C   0  0  0  0  0  1  0  0  0  0  0  0
  192.1510  173.0980  143.4380 C   0  0  0  0  0  2  0  0  0  0  0  0
  191.7490  174.4780  143.6790 N   0  0  0  0  0  2  0  0  0  0  0  0
  189.8000  175.7730  144.0580 C   0  0  0  0  0  2  0  0  0  0  0  0
  190.4970  175.0010  143.2380 C   0  0  0  0  0  0  0  0  0  0  0  0
  190.0290  174.7950  141.8270 C   0  0  0  0  0  2  0  0  0  0  0  0
  189.1290  172.3760  141.5010 C   0  0  0  0  0  1  0  0  0  0  0  0
  188.8860  173.8250  141.7520 C   0  0  0  0  0  0  0  0  0  0  0  0
  187.6620  174.2260  142.0750 C   0  0  0  0  0  2  0  0  0  0  0  0
  189.7650  173.5910  138.2700 C   0  0  0  0  0  3  0  0  0  0  0  0
  189.3530  174.5790  136.3020 C   0  0  0  0  0  3  0  0  0  0  0  0
  188.8570  174.3510  137.5800 C   0  0  0  0  0  0  0  0  0  0  0  0
  190.7870  173.2900  137.4470 N   0  0  0  0  0  0  0  0  0  0  0  0
  190.5550  173.8920  136.2540 C   0  0  0  0  0  3  0  0  0  0  0  0
  187.7710  175.0280  138.2320 N   0  0  0  0  0  0  0  0  0  0  0  0
  186.9710  175.9760  137.8120 C   0  0  0  0  0  0  0  0  0  0  0  0
  185.8090  177.7330  140.9880 N   0  0  0  0  0  0  0  0  0  0  0  0
  184.6430  179.0370  143.4690 C   0  0  0  0  0  0  0  0  0  0  0  0
  185.7020  178.2680  144.0560 N   0  0  0  0  0  0  0  0  0  0  0  0
  187.9140  177.0820  140.1220 F   0  0  0  0  0  0  0  0  0  0  0  0
  186.5650  177.1070  139.9450 C   0  0  0  0  0  0  0  0  0  0  0  0
  186.4850  178.8570  145.1330 C   0  0  0  0  0  1  0  0  0  0  0  0
  186.0540  176.5710  138.8180 C   0  0  0  0  0  0  0  0  0  0  0  0
  182.1250  178.1200  140.8400 C   0  0  0  0  0  3  0  0  0  0  0  0
  183.8900  178.5450  142.3490 N   0  0  0  0  0  0  0  0  0  0  0  0
  183.4480  177.6540  140.3230 C   0  0  0  0  0  0  0  0  0  0  0  0
  184.4080  177.9170  141.1840 C   0  0  1  0  0  3  0  0  0  0  0  0
  183.5580  177.0790  138.9910 C   0  0  0  0  0  3  0  0  0  0  0  0
  182.4760  178.8110  142.1570 C   0  0  0  0  0  3  0  0  0  0  0  0
  184.3230  180.1480  143.9800 O   0  0  0  0  0  0  0  0  0  0  0  0
  184.6460  176.6290  138.3760 C   0  0  0  0  0  3  0  0  0  0  0  0
  185.7660  176.8230  143.8640 C   0  0  0  0  0  2  0  0  0  0  0  0
  186.1700  176.1300  145.1510 C   0  0  0  0  0  1  0  0  0  0  0  0
  187.6930  177.4440  136.0830 O   0  0  0  0  0  1  0  0  0  0  0  0
  186.9580  176.4780  136.4110 C   0  0  0  0  0  0  0  0  0  0  0  0
  186.0830  175.9500  135.4670 O   0  0  0  0  0  0  0  0  0  0  0  0
  194.1710  169.3330  135.4140 C   0  0  0  0  0  2  0  0  0  0  0  0
  197.8980  170.2020  137.4820 O   0  0  0  0  0  0  0  0  0  0  0  0
  195.9480  168.9380  137.1690 N   0  0  0  0  0  2  0  0  0  0  0  0
  195.5620  169.5410  135.9290 C   0  0  0  0  0  0  0  0  0  0  0  0
  197.1390  169.2780  137.8880 C   0  0  0  0  0  0  0  0  0  0  0  0
  196.3520  170.3180  135.3220 O   0  0  0  0  0  0  0  0  0  0  0  0
  197.5010  168.5750  139.1600 C   0  0  0  0  0  2  0  0  0  0  0  0
  196.9490  169.2260  140.4350 C   0  0  0  0  0  2  0  0  0  0  0  0
  197.2440  170.5950  140.5280 O   0  0  0  0  0  0  0  0  0  0  0  0
  197.0680  169.2720  143.8230 S   0  0  0  0  0  0  0  0  0  0  0  0
  197.9400  171.5090  142.6120 C   0  0  0  0  0  2  0  0  0  0  0  0
  196.0120  169.9310  142.5000 C   0  0  0  0  0  2  0  0  0  0  0  0
  196.7610  171.0460  141.7670 C   0  0  2  0  0  3  0  0  0  0  0  0
  197.8010  170.9240  144.0040 C   0  0  0  0  0  2  0  0  0  0  0  0
  191.1240  169.4770  134.8760 C   0  0  0  0  0  2  0  0  0  0  0  0
  189.5910  170.9890  134.6180 O   0  0  0  0  0  1  0  0  0  0  0  0
  190.9010  170.8520  134.7300 O   0  0  0  0  0  0  0  0  0  0  0  0
  1  3  2  0  0  0  0
  2 50  1  6  0  0  0
  2  6  1  0  0  0  0
  3 11  1  0  0  0  0
  5  2  1  0  0  0  0
  5  6  1  0  0  0  0
  5  4  1  1  0  0  0
  6  1  2  0  0  0  0
  7  8  1  0  0  0  0
  8 12  1  0  0  0  0
  9 11  2  0  0  0  0
  9 10  1  0  0  0  0
 10  8  1  0  0  0  0
 11  7  1  0  0  0  0
 12 13  1  0  0  0  0
 13 15  1  0  0  0  0
 13 14  1  1  0  0  0
 15 16  1  0  0  0  0
 18 16  1  0  0  0  0
 18 17  2  0  0  0  0
 19 18  1  0  0  0  0
 20 21  1  0  0  0  0
 21 19  1  0  0  0  0
 21 22  2  0  0  0  0
 24 25  1  0  0  0  0
 25 28  1  0  0  0  0
 25 23  2  0  0  0  0
 26  3  1  0  0  0  0
 26 23  1  0  0  0  0
 27 24  2  0  0  0  0
 27 26  1  0  0  0  0
 29 28  2  0  0  0  0
 29 36  1  0  0  0  0
 30 40  1  0  0  0  0
 31 43  2  0  0  0  0
 31 32  1  0  0  0  0
 32 35  1  0  0  0  0
 34 33  1  0  0  0  0
 34 30  2  0  0  0  0
 36 34  1  0  0  0  0
 37 42  2  0  0  0  0
 38 31  1  0  0  0  0
 39 37  1  0  0  0  0
 40 39  1  6  0  0  0
 40 38  1  0  0  0  0
 41 39  2  0  0  0  0
 42 38  1  0  0  0  0
 44 36  2  0  0  0  0
 44 41  1  0  0  0  0
 45 32  1  0  0  0  0
 45 46  1  0  0  0  0
 47 48  1  0  0  0  0
 48 29  1  0  0  0  0
 49 48  2  0  0  0  0
 50 53  1  0  0  0  0
 51 54  2  0  0  0  0
 52 54  1  0  0  0  0
 53 52  1  0  0  0  0
 54 56  1  0  0  0  0
 55 53  2  0  0  0  0
 56 57  1  0  0  0  0
 57 58  1  0  0  0  0
 59 63  1  0  0  0  0
 60 63  1  0  0  0  0
 61 59  1  0  0  0  0
 62 58  1  6  0  0  0
 62 61  1  0  0  0  0
 62 60  1  0  0  0  0
 64  5  1  0  0  0  0
 65 66  1  0  0  0  0
 66 64  1  0  0  0  0
M  END
>  <MODEL>
9

>  <REMARK>
 VINA RESULT:      -3.3      3.179      7.800
  Name = 
  21 active torsions:
  status: ('A' for Active; 'I' for Inactive)
    1  A    between atoms: C_5  and  C_11
    2  A    between atoms: C_5  and  C_32
    3  A    between atoms: N_8  and  C_26
    4  A    between atoms: O_10  and  C_43
    5  A    between atoms: C_11  and  N_47
    6  A    between atoms: N_12  and  C_41
    7  A    between atoms: C_14  and  C_44
    8  A    between atoms: C_14  and  C_51
    9  A    between atoms: O_18  and  C_38
   10  A    between atoms: O_18  and  C_44
   11  A    between atoms: C_19  and  CA_54
   12  A    between atoms: C_20  and  C_62
   13  A    between atoms: C_20  and  C_65
   14  A    between atoms: C_31  and  C_36
   15  A    between atoms: C_31  and  C_37
   16  A    between atoms: N_34  and  C_62
   17  A    between atoms: N_40  and  C_49
   18  A    between atoms: C_43  and  C_57
   19  A    between atoms: C_45  and  CA_54
   20  A    between atoms: N_47  and  C_65
   21  A    between atoms: C_49  and  C_58
                            x       y       z     vdW  Elec       q    Type
                         _______ _______ _______ _____ _____    ______ ____

>  <TORSDO>
F 21

$$$$
