=
 OpenBabel11042414253D

 41 47  0  0  1  0  0  0  0  0999 V2000
  188.3690  177.0120  146.0800 C   0  0  0  0  0  0  0  0  0  0  0  0
  189.0270  175.4620  142.1110 C   0  0  0  0  0  0  0  0  0  0  0  0
  186.8200  177.0920  144.1190 C   0  0  1  0  0  3  0  0  0  0  0  0
  186.6120  179.1730  148.3700 C   0  0  0  0  0  1  0  0  0  0  0  0
  192.1270  174.0300  143.2350 C   0  0  0  0  0  3  0  0  0  0  0  0
  190.0540  174.4760  141.7000 C   0  0  0  0  0  0  0  0  0  0  0  0
  192.6970  175.1470  144.0420 C   0  0  0  0  0  2  0  0  0  0  0  0
  187.1650  176.7250  141.9860 C   0  0  1  0  0  3  0  0  0  0  0  0
  188.9430  176.0990  143.2890 C   0  0  1  0  0  3  0  0  0  0  0  0
  189.6130  176.3320  145.6380 C   0  0  0  0  0  0  0  0  0  0  0  0
  190.6700  176.0500  146.6680 C   0  0  0  0  0  2  0  0  0  0  0  0
  185.7630  176.8020  142.1770 N   0  0  0  0  0  0  0  0  0  0  0  0
  186.9790  176.7180  145.5630 C   0  0  2  0  0  3  0  0  0  0  0  0
  187.7850  176.9490  143.2330 C   0  0  2  0  0  3  0  0  0  0  0  0
  185.5640  177.0270  143.4200 N   0  0  0  0  0  0  0  0  0  0  0  0
  188.3640  177.8520  147.0630 N   0  0  0  0  0  0  0  0  0  0  0  0
  186.1910  177.6300  146.4450 C   0  0  0  0  0  0  0  0  0  0  0  0
  189.7900  175.8920  144.4250 N   0  0  0  0  0  0  0  0  0  0  0  0
  187.8180  175.7840  141.3090 C   0  0  0  0  0  3  0  0  0  0  0  0
  187.0180  178.2400  147.2810 C   0  0  0  0  0  0  0  0  0  0  0  0
  192.4670  174.8990  145.4620 N   0  0  0  0  0  0  0  0  0  0  0  0
  192.0860  176.1540  146.1030 C   0  0  0  0  0  2  0  0  0  0  0  0
  191.1010  174.2460  142.4580 C   0  0  0  0  0  0  0  0  0  0  0  0
  189.8920  173.8110  140.4360 N   0  0  0  0  0  2  0  0  0  0  0  0
  189.7290  171.5830  141.1590 O   0  0  0  0  0  0  0  0  0  0  0  0
  189.7440  172.4040  140.2010 C   0  0  0  0  0  0  0  0  0  0  0  0
  189.8910  170.6820  138.4720 C   0  0  0  0  0  3  0  0  0  0  0  0
  189.6040  171.9330  138.8200 C   0  0  0  0  0  3  0  0  0  0  0  0
  189.7380  170.2290  137.0580 C   0  0  2  0  0  3  0  0  0  0  0  0
  190.9500  169.4310  136.6250 C   0  0  0  0  0  2  0  0  0  0  0  0
  191.3340  170.6000  134.5130 N   0  0  0  0  0  2  0  0  0  0  0  0
  191.1130  171.5960  135.5730 C   0  0  1  0  0  3  0  0  0  0  0  0
  189.7140  171.4340  136.1440 C   0  0  0  0  0  2  0  0  0  0  0  0
  191.8660  170.3750  135.8650 C   0  0  1  0  0  3  0  0  0  0  0  0
  184.6970  177.7180  146.4700 C   0  0  0  0  0  2  0  0  0  0  0  0
  184.2310  178.9990  145.8030 C   0  0  0  0  0  1  0  0  0  0  0  0
  193.6800  174.3600  146.0920 C   0  0  0  0  0  2  0  0  0  0  0  0
  194.8760  175.3210  146.0730 C   0  0  0  0  0  2  0  0  0  0  0  0
  196.1340  174.6260  145.5780 C   0  0  0  0  0  2  0  0  0  0  0  0
  196.4290  175.8390  143.7610 C   0  0  0  0  0  1  0  0  0  0  0  0
  196.1210  174.5480  144.1860 O   0  0  0  0  0  0  0  0  0  0  0  0
  1 16  2  0  0  0  0
  3 15  1  6  0  0  0
  3 13  1  0  0  0  0
  5  7  1  0  0  0  0
  6  2  1  0  0  0  0
  6 23  2  0  0  0  0
  7 21  1  0  0  0  0
  8 19  1  1  0  0  0
  8 12  1  0  0  0  0
  8 14  1  0  0  0  0
  9  2  1  1  0  0  0
  9 18  1  0  0  0  0
 10  1  1  0  0  0  0
 10 11  1  0  0  0  0
 12 15  2  0  0  0  0
 13  1  1  1  0  0  0
 13 17  1  0  0  0  0
 14  9  1  0  0  0  0
 14  3  1  0  0  0  0
 16 20  1  0  0  0  0
 17 35  1  0  0  0  0
 17 20  2  0  0  0  0
 18 10  2  0  0  0  0
 19  2  2  0  0  0  0
 20  4  1  0  0  0  0
 21 37  1  0  0  0  0
 21 22  1  0  0  0  0
 22 11  1  0  0  0  0
 23  5  2  0  0  0  0
 24  6  1  0  0  0  0
 26 24  1  0  0  0  0
 26 25  2  0  0  0  0
 27 28  2  0  0  0  0
 28 26  1  0  0  0  0
 29 27  1  0  0  0  0
 30 29  1  0  0  0  0
 31 32  1  0  0  0  0
 31 34  1  0  0  0  0
 32 34  1  0  0  0  0
 32 33  1  0  0  0  0
 33 29  1  0  0  0  0
 34 30  1  0  0  0  0
 36 35  1  0  0  0  0
 38 37  1  0  0  0  0
 39 38  1  0  0  0  0
 40 41  1  0  0  0  0
 41 39  1  0  0  0  0
M  END
>  <MODEL>
1

>  <REMARK>
 VINA RESULT:      -8.0      0.000      0.000
  Name = 
  8 active torsions:
  status: ('A' for Active; 'I' for Inactive)
    1  A    between atoms: C_2  and  C_33
    2  A    between atoms: C_8  and  C_16
    3  A    between atoms: C_8  and  C_20
    4  A    between atoms: C_9  and  C_26
    5  A    between atoms: N_10  and  C_11
    6  A    between atoms: C_16  and  O_24
    7  A    between atoms: C_20  and  N_39
    8  A    between atoms: C_34  and  C_38
                            x       y       z     vdW  Elec       q    Type
                         _______ _______ _______ _____ _____    ______ ____

>  <TORSDO>
F 8

$$$$
=
 OpenBabel11042414253D

 41 47  0  0  1  0  0  0  0  0999 V2000
  192.8630  171.1300  140.9250 C   0  0  0  0  0  0  0  0  0  0  0  0
  190.3980  173.5030  143.5480 C   0  0  0  0  0  0  0  0  0  0  0  0
  190.4910  171.8420  140.5830 C   0  0  1  0  0  3  0  0  0  0  0  0
  193.2340  168.8110  138.1880 C   0  0  0  0  0  1  0  0  0  0  0  0
  193.2420  174.0040  145.6900 C   0  0  0  0  0  3  0  0  0  0  0  0
  190.8570  174.3560  144.6700 C   0  0  0  0  0  0  0  0  0  0  0  0
  193.8230  172.6320  145.7400 C   0  0  0  0  0  2  0  0  0  0  0  0
  189.0150  172.6780  141.9720 C   0  0  1  0  0  3  0  0  0  0  0  0
  191.1260  172.6100  142.8610 C   0  0  1  0  0  3  0  0  0  0  0  0
  193.3020  171.6600  142.2400 C   0  0  0  0  0  0  0  0  0  0  0  0
  194.7390  171.4690  142.6370 C   0  0  0  0  0  2  0  0  0  0  0  0
  188.4840  172.8120  140.6640 N   0  0  0  0  0  0  0  0  0  0  0  0
  191.8720  171.7960  139.9980 C   0  0  2  0  0  3  0  0  0  0  0  0
  190.2650  172.0310  141.8670 C   0  0  2  0  0  3  0  0  0  0  0  0
  189.3410  172.3150  139.8570 N   0  0  0  0  0  0  0  0  0  0  0  0
  193.4050  170.0800  140.3990 N   0  0  0  0  0  0  0  0  0  0  0  0
  191.9360  170.8480  138.8460 C   0  0  0  0  0  0  0  0  0  0  0  0
  192.5270  172.3580  143.0200 N   0  0  0  0  0  0  0  0  0  0  0  0
  189.0640  173.6260  142.9040 C   0  0  0  0  0  3  0  0  0  0  0  0
  192.8240  169.9020  139.1170 C   0  0  0  0  0  0  0  0  0  0  0  0
  194.9600  172.5430  144.8290 N   0  0  0  0  0  0  0  0  0  0  0  0
  194.9110  171.2570  144.1400 C   0  0  0  0  0  2  0  0  0  0  0  0
  192.0480  174.1870  145.1940 C   0  0  0  0  0  0  0  0  0  0  0  0
  189.9500  175.3420  145.1900 N   0  0  0  0  0  2  0  0  0  0  0  0
  189.1850  174.2290  147.1110 O   0  0  0  0  0  0  0  0  0  0  0  0
  189.1450  175.2520  146.3740 C   0  0  0  0  0  0  0  0  0  0  0  0
  187.6900  177.1270  145.7860 C   0  0  0  0  0  3  0  0  0  0  0  0
  188.2720  176.3780  146.7180 C   0  0  0  0  0  3  0  0  0  0  0  0
  186.8040  178.2660  146.1660 C   0  0  2  0  0  3  0  0  0  0  0  0
  185.7430  177.8070  147.1450 C   0  0  0  0  0  2  0  0  0  0  0  0
  183.8320  178.8070  145.9960 N   0  0  0  0  0  2  0  0  0  0  0  0
  184.6610  178.1000  145.0080 C   0  0  1  0  0  3  0  0  0  0  0  0
  186.0400  178.7360  144.9490 C   0  0  0  0  0  2  0  0  0  0  0  0
  184.4800  177.5340  146.3460 C   0  0  1  0  0  3  0  0  0  0  0  0
  191.2220  171.0310  137.5440 C   0  0  0  0  0  2  0  0  0  0  0  0
  191.6220  172.3460  136.9020 C   0  0  0  0  0  1  0  0  0  0  0  0
  196.2230  172.6690  145.5700 C   0  0  0  0  0  2  0  0  0  0  0  0
  196.9480  174.0040  145.3510 C   0  0  0  0  0  2  0  0  0  0  0  0
  196.5570  174.6340  144.0240 C   0  0  0  0  0  2  0  0  0  0  0  0
  195.2810  176.1330  143.0300 C   0  0  0  0  0  1  0  0  0  0  0  0
  195.9030  175.8460  144.2440 O   0  0  0  0  0  0  0  0  0  0  0  0
  1 10  1  0  0  0  0
  2  6  1  0  0  0  0
  3 15  1  6  0  0  0
  3 14  1  0  0  0  0
  4 20  1  0  0  0  0
  5  7  1  0  0  0  0
  6 24  1  0  0  0  0
  6 23  2  0  0  0  0
  8 19  1  6  0  0  0
  9 18  1  6  0  0  0
  9  2  1  0  0  0  0
 10 11  1  0  0  0  0
 10 18  2  0  0  0  0
 11 22  1  0  0  0  0
 12  8  1  0  0  0  0
 13 17  1  6  0  0  0
 13  3  1  0  0  0  0
 13  1  1  0  0  0  0
 14  8  1  0  0  0  0
 14  9  1  0  0  0  0
 15 12  2  0  0  0  0
 16  1  2  0  0  0  0
 17 20  2  0  0  0  0
 19  2  2  0  0  0  0
 20 16  1  0  0  0  0
 21 37  1  0  0  0  0
 21  7  1  0  0  0  0
 22 21  1  0  0  0  0
 23  5  2  0  0  0  0
 24 26  1  0  0  0  0
 26 28  1  0  0  0  0
 26 25  2  0  0  0  0
 27 29  1  0  0  0  0
 27 28  2  0  0  0  0
 29 30  1  0  0  0  0
 31 34  1  0  0  0  0
 32 31  1  0  0  0  0
 32 34  1  0  0  0  0
 33 32  1  0  0  0  0
 33 29  1  0  0  0  0
 34 30  1  0  0  0  0
 35 17  1  0  0  0  0
 36 35  1  0  0  0  0
 38 37  1  0  0  0  0
 39 41  1  0  0  0  0
 39 38  1  0  0  0  0
 40 41  1  0  0  0  0
M  END
>  <MODEL>
2

>  <REMARK>
 VINA RESULT:      -7.6      2.437      8.682
  Name = 
  8 active torsions:
  status: ('A' for Active; 'I' for Inactive)
    1  A    between atoms: C_2  and  C_33
    2  A    between atoms: C_8  and  C_16
    3  A    between atoms: C_8  and  C_20
    4  A    between atoms: C_9  and  C_26
    5  A    between atoms: N_10  and  C_11
    6  A    between atoms: C_16  and  O_24
    7  A    between atoms: C_20  and  N_39
    8  A    between atoms: C_34  and  C_38
                            x       y       z     vdW  Elec       q    Type
                         _______ _______ _______ _____ _____    ______ ____

>  <TORSDO>
F 8

$$$$
=
 OpenBabel11042414253D

 41 47  0  0  1  0  0  0  0  0999 V2000
  192.3930  173.5220  138.6050 C   0  0  0  0  0  0  0  0  0  0  0  0
  190.2380  174.2150  142.2740 C   0  0  0  0  0  0  0  0  0  0  0  0
  190.0350  172.8930  139.1490 C   0  0  1  0  0  3  0  0  0  0  0  0
  192.8120  171.7810  135.4750 C   0  0  0  0  0  1  0  0  0  0  0  0
  193.0400  176.0980  143.5090 C   0  0  0  0  0  3  0  0  0  0  0  0
  190.5990  175.1650  143.3530 C   0  0  0  0  0  0  0  0  0  0  0  0
  194.1840  175.2330  143.1020 C   0  0  0  0  0  2  0  0  0  0  0  0
  188.9620  172.8120  141.0580 C   0  0  1  0  0  3  0  0  0  0  0  0
  190.9990  173.8460  141.2330 C   0  0  1  0  0  3  0  0  0  0  0  0
  192.9650  174.1850  139.8040 C   0  0  0  0  0  0  0  0  0  0  0  0
  194.3460  174.7680  139.7000 C   0  0  0  0  0  2  0  0  0  0  0  0
  187.9980  172.6680  140.0280 N   0  0  0  0  0  0  0  0  0  0  0  0
  190.9440  173.5860  138.1760 C   0  0  2  0  0  3  0  0  0  0  0  0
  190.2310  172.9160  140.4510 C   0  0  2  0  0  3  0  0  0  0  0  0
  188.6270  172.7050  138.9160 N   0  0  0  0  0  0  0  0  0  0  0  0
  193.1400  172.9190  137.7380 N   0  0  0  0  0  0  0  0  0  0  0  0
  191.0340  172.8280  136.8920 C   0  0  0  0  0  0  0  0  0  0  0  0
  192.2940  174.3620  140.9060 N   0  0  0  0  0  0  0  0  0  0  0  0
  188.8820  173.6310  142.1030 C   0  0  0  0  0  3  0  0  0  0  0  0
  192.2970  172.4830  136.6850 C   0  0  0  0  0  0  0  0  0  0  0  0
  194.8010  175.7660  141.8920 N   0  0  0  0  0  0  0  0  0  0  0  0
  195.1330  174.6550  141.0040 C   0  0  0  0  0  2  0  0  0  0  0  0
  191.8210  175.6370  143.4460 C   0  0  0  0  0  0  0  0  0  0  0  0
  189.5900  175.5230  144.3110 N   0  0  0  0  0  2  0  0  0  0  0  0
  190.5060  174.5700  146.2520 O   0  0  0  0  0  0  0  0  0  0  0  0
  189.5660  175.2150  145.7120 C   0  0  0  0  0  0  0  0  0  0  0  0
  187.6500  176.6760  146.1230 C   0  0  0  0  0  3  0  0  0  0  0  0
  188.4250  175.6690  146.5120 C   0  0  0  0  0  3  0  0  0  0  0  0
  186.4930  177.1160  146.9580 C   0  0  2  0  0  3  0  0  0  0  0  0
  185.1880  176.7060  146.3090 C   0  0  0  0  0  2  0  0  0  0  0  0
  184.0730  178.8730  146.4950 N   0  0  0  0  0  2  0  0  0  0  0  0
  185.4320  179.0830  145.9720 C   0  0  1  0  0  3  0  0  0  0  0  0
  186.4520  178.6270  147.0030 C   0  0  0  0  0  2  0  0  0  0  0  0
  184.6610  177.9120  145.5500 C   0  0  1  0  0  3  0  0  0  0  0  0
  189.9040  172.6300  135.9320 C   0  0  0  0  0  2  0  0  0  0  0  0
  189.4890  171.1710  135.8970 C   0  0  0  0  0  1  0  0  0  0  0  0
  196.0150  176.5240  142.2250 C   0  0  0  0  0  2  0  0  0  0  0  0
  196.6450  176.1390  143.5700 C   0  0  0  0  0  2  0  0  0  0  0  0
  197.8760  175.2690  143.3750 C   0  0  0  0  0  2  0  0  0  0  0  0
  197.5600  173.8150  145.0020 C   0  0  0  0  0  1  0  0  0  0  0  0
  197.5580  173.9310  143.6130 O   0  0  0  0  0  0  0  0  0  0  0  0
  1 10  1  0  0  0  0
  2  6  1  0  0  0  0
  3 15  1  1  0  0  0
  3 14  1  0  0  0  0
  4 20  1  0  0  0  0
  6 23  2  0  0  0  0
  6 24  1  0  0  0  0
  7  5  1  0  0  0  0
  8 19  1  6  0  0  0
  9 18  1  6  0  0  0
  9  2  1  0  0  0  0
 10 18  2  0  0  0  0
 11 10  1  0  0  0  0
 11 22  1  0  0  0  0
 12  8  1  0  0  0  0
 13 17  1  6  0  0  0
 13  1  1  0  0  0  0
 13  3  1  0  0  0  0
 14  8  1  0  0  0  0
 14  9  1  0  0  0  0
 15 12  2  0  0  0  0
 16  1  2  0  0  0  0
 19  2  2  0  0  0  0
 20 17  2  0  0  0  0
 20 16  1  0  0  0  0
 21 37  1  0  0  0  0
 21  7  1  0  0  0  0
 22 21  1  0  0  0  0
 23  5  2  0  0  0  0
 24 26  1  0  0  0  0
 26 25  2  0  0  0  0
 26 28  1  0  0  0  0
 27 28  2  0  0  0  0
 27 29  1  0  0  0  0
 29 33  1  0  0  0  0
 30 29  1  0  0  0  0
 32 31  1  0  0  0  0
 32 33  1  0  0  0  0
 34 32  1  0  0  0  0
 34 30  1  0  0  0  0
 34 31  1  0  0  0  0
 35 17  1  0  0  0  0
 36 35  1  0  0  0  0
 37 38  1  0  0  0  0
 39 38  1  0  0  0  0
 39 41  1  0  0  0  0
 41 40  1  0  0  0  0
M  END
>  <MODEL>
3

>  <REMARK>
 VINA RESULT:      -7.4      2.364      8.731
  Name = 
  8 active torsions:
  status: ('A' for Active; 'I' for Inactive)
    1  A    between atoms: C_2  and  C_33
    2  A    between atoms: C_8  and  C_16
    3  A    between atoms: C_8  and  C_20
    4  A    between atoms: C_9  and  C_26
    5  A    between atoms: N_10  and  C_11
    6  A    between atoms: C_16  and  O_24
    7  A    between atoms: C_20  and  N_39
    8  A    between atoms: C_34  and  C_38
                            x       y       z     vdW  Elec       q    Type
                         _______ _______ _______ _____ _____    ______ ____

>  <TORSDO>
F 8

$$$$
=
 OpenBabel11042414253D

 41 47  0  0  1  0  0  0  0  0999 V2000
  187.1930  176.4660  142.7540 C   0  0  0  0  0  0  0  0  0  0  0  0
  190.4730  174.2250  144.4280 C   0  0  0  0  0  0  0  0  0  0  0  0
  187.9680  176.4130  145.1310 C   0  0  1  0  0  3  0  0  0  0  0  0
  184.1110  178.3020  143.1290 C   0  0  0  0  0  1  0  0  0  0  0  0
  191.3680  173.1510  141.1160 C   0  0  0  0  0  3  0  0  0  0  0  0
  191.5910  173.5950  143.6860 C   0  0  0  0  0  0  0  0  0  0  0  0
  190.0350  172.8060  140.5430 C   0  0  0  0  0  2  0  0  0  0  0  0
  189.3220  175.0460  146.1820 C   0  0  1  0  0  3  0  0  0  0  0  0
  189.3500  174.7450  143.9100 C   0  0  1  0  0  3  0  0  0  0  0  0
  188.0680  175.5500  141.9790 C   0  0  0  0  0  0  0  0  0  0  0  0
  187.8850  175.4880  140.4890 C   0  0  0  0  0  2  0  0  0  0  0  0
  189.0860  176.1480  147.0420 N   0  0  0  0  0  0  0  0  0  0  0  0
  187.6210  177.2790  143.9550 C   0  0  2  0  0  3  0  0  0  0  0  0
  188.5670  175.2460  145.0060 C   0  0  2  0  0  3  0  0  0  0  0  0
  188.2880  176.9390  146.4310 N   0  0  0  0  0  0  0  0  0  0  0  0
  185.9880  176.7420  142.3730 N   0  0  0  0  0  0  0  0  0  0  0  0
  186.3570  178.0370  144.2020 C   0  0  0  0  0  0  0  0  0  0  0  0
  189.0400  174.8710  142.5180 N   0  0  0  0  0  0  0  0  0  0  0  0
  190.5050  174.5170  145.8850 C   0  0  0  0  0  3  0  0  0  0  0  0
  185.4700  177.7060  143.2750 C   0  0  0  0  0  0  0  0  0  0  0  0
  189.5660  173.8940  139.6910 N   0  0  0  0  0  0  0  0  0  0  0  0
  188.1390  174.0920  139.9230 C   0  0  0  0  0  2  0  0  0  0  0  0
  191.4900  173.3620  142.3980 C   0  0  0  0  0  0  0  0  0  0  0  0
  192.7660  173.2130  144.4200 N   0  0  0  0  0  2  0  0  0  0  0  0
  194.0530  175.1630  144.1860 O   0  0  0  0  0  0  0  0  0  0  0  0
  193.9510  173.9910  144.6410 C   0  0  0  0  0  0  0  0  0  0  0  0
  195.6280  172.2600  145.0520 C   0  0  0  0  0  3  0  0  0  0  0  0
  195.0460  173.3990  145.4150 C   0  0  0  0  0  3  0  0  0  0  0  0
  196.7430  171.6820  145.8580 C   0  0  2  0  0  3  0  0  0  0  0  0
  197.7670  171.0310  144.9520 C   0  0  0  0  0  2  0  0  0  0  0  0
  197.9400  168.9200  146.1720 N   0  0  0  0  0  2  0  0  0  0  0  0
  196.5170  169.2540  146.0030 C   0  0  1  0  0  3  0  0  0  0  0  0
  196.2100  170.5590  146.7190 C   0  0  0  0  0  2  0  0  0  0  0  0
  197.4660  169.5420  144.9260 C   0  0  1  0  0  3  0  0  0  0  0  0
  186.1860  179.1040  145.2360 C   0  0  0  0  0  2  0  0  0  0  0  0
  185.2590  178.6290  146.3390 C   0  0  0  0  0  1  0  0  0  0  0  0
  189.8070  173.5770  138.2760 C   0  0  0  0  0  2  0  0  0  0  0  0
  188.5600  173.6850  137.3880 C   0  0  0  0  0  2  0  0  0  0  0  0
  188.6160  174.9220  136.5060 C   0  0  0  0  0  2  0  0  0  0  0  0
  187.0210  176.0600  135.4940 C   0  0  0  0  0  1  0  0  0  0  0  0
  187.5140  175.7390  136.7580 O   0  0  0  0  0  0  0  0  0  0  0  0
  2 19  2  0  0  0  0
  3 15  1  1  0  0  0
  4 20  1  0  0  0  0
  5 23  2  0  0  0  0
  6 24  1  0  0  0  0
  6  2  1  0  0  0  0
  7  5  1  0  0  0  0
  8 19  1  6  0  0  0
  8 12  1  0  0  0  0
  9 18  1  6  0  0  0
  9  2  1  0  0  0  0
  9 14  1  0  0  0  0
 10 18  2  0  0  0  0
 10  1  1  0  0  0  0
 11 10  1  0  0  0  0
 13  1  1  6  0  0  0
 13 17  1  0  0  0  0
 13  3  1  0  0  0  0
 14  3  1  0  0  0  0
 14  8  1  0  0  0  0
 15 12  2  0  0  0  0
 16  1  2  0  0  0  0
 16 20  1  0  0  0  0
 17 35  1  0  0  0  0
 20 17  2  0  0  0  0
 21 22  1  0  0  0  0
 21  7  1  0  0  0  0
 22 11  1  0  0  0  0
 23  6  2  0  0  0  0
 24 26  1  0  0  0  0
 25 26  2  0  0  0  0
 26 28  1  0  0  0  0
 27 28  2  0  0  0  0
 27 29  1  0  0  0  0
 29 33  1  0  0  0  0
 30 29  1  0  0  0  0
 32 31  1  0  0  0  0
 32 33  1  0  0  0  0
 34 30  1  0  0  0  0
 34 32  1  0  0  0  0
 34 31  1  0  0  0  0
 35 36  1  0  0  0  0
 37 21  1  0  0  0  0
 38 37  1  0  0  0  0
 39 41  1  0  0  0  0
 39 38  1  0  0  0  0
 40 41  1  0  0  0  0
M  END
>  <MODEL>
4

>  <REMARK>
 VINA RESULT:      -7.4      2.858      7.270
  Name = 
  8 active torsions:
  status: ('A' for Active; 'I' for Inactive)
    1  A    between atoms: C_2  and  C_33
    2  A    between atoms: C_8  and  C_16
    3  A    between atoms: C_8  and  C_20
    4  A    between atoms: C_9  and  C_26
    5  A    between atoms: N_10  and  C_11
    6  A    between atoms: C_16  and  O_24
    7  A    between atoms: C_20  and  N_39
    8  A    between atoms: C_34  and  C_38
                            x       y       z     vdW  Elec       q    Type
                         _______ _______ _______ _____ _____    ______ ____

>  <TORSDO>
F 8

$$$$
=
 OpenBabel11042414253D

 41 47  0  0  1  0  0  0  0  0999 V2000
  192.5630  172.7440  138.7250 C   0  0  0  0  0  0  0  0  0  0  0  0
  189.9570  174.4740  141.6920 C   0  0  0  0  0  0  0  0  0  0  0  0
  190.1040  172.3920  139.0080 C   0  0  1  0  0  3  0  0  0  0  0  0
  193.2880  170.2280  136.2460 C   0  0  0  0  0  1  0  0  0  0  0  0
  192.7000  176.4800  142.8650 C   0  0  0  0  0  3  0  0  0  0  0  0
  190.2360  175.6550  142.5430 C   0  0  0  0  0  0  0  0  0  0  0  0
  193.8100  175.4850  142.8840 C   0  0  0  0  0  2  0  0  0  0  0  0
  188.7560  172.8630  140.6710 C   0  0  1  0  0  3  0  0  0  0  0  0
  190.8290  173.8090  140.9180 C   0  0  1  0  0  3  0  0  0  0  0  0
  193.0070  173.6700  139.7980 C   0  0  0  0  0  0  0  0  0  0  0  0
  194.4350  174.1390  139.7830 C   0  0  0  0  0  2  0  0  0  0  0  0
  187.9470  172.5010  139.5640 N   0  0  0  0  0  0  0  0  0  0  0  0
  191.2060  172.7620  138.0590 C   0  0  2  0  0  3  0  0  0  0  0  0
  190.1060  172.7450  140.2780 C   0  0  2  0  0  3  0  0  0  0  0  0
  188.7360  172.2160  138.6000 N   0  0  0  0  0  0  0  0  0  0  0  0
  193.3750  171.9010  138.1740 N   0  0  0  0  0  0  0  0  0  0  0  0
  191.4190  171.6920  137.0390 C   0  0  0  0  0  0  0  0  0  0  0  0
  192.1980  174.1610  140.6930 N   0  0  0  0  0  0  0  0  0  0  0  0
  188.5950  173.9300  141.4490 C   0  0  0  0  0  3  0  0  0  0  0  0
  192.6630  171.2450  137.1380 C   0  0  0  0  0  0  0  0  0  0  0  0
  194.6450  175.6530  141.6990 N   0  0  0  0  0  0  0  0  0  0  0  0
  195.0050  174.3350  141.1860 C   0  0  0  0  0  2  0  0  0  0  0  0
  191.4670  176.0760  142.7170 C   0  0  0  0  0  0  0  0  0  0  0  0
  189.1310  176.2980  143.1990 N   0  0  0  0  0  2  0  0  0  0  0  0
  188.6270  177.9650  141.6230 O   0  0  0  0  0  0  0  0  0  0  0  0
  188.3720  177.4230  142.7340 C   0  0  0  0  0  0  0  0  0  0  0  0
  186.3970  177.1240  144.1430 C   0  0  0  0  0  3  0  0  0  0  0  0
  187.2850  177.9330  143.5730 C   0  0  0  0  0  3  0  0  0  0  0  0
  185.3010  177.6720  144.9940 C   0  0  2  0  0  3  0  0  0  0  0  0
  185.6940  179.0220  145.5580 C   0  0  0  0  0  2  0  0  0  0  0  0
  185.0810  178.5620  147.8790 N   0  0  0  0  0  2  0  0  0  0  0  0
  185.8570  177.4250  147.3590 C   0  0  1  0  0  3  0  0  0  0  0  0
  185.1110  176.7820  146.2020 C   0  0  0  0  0  2  0  0  0  0  0  0
  186.2120  178.7900  146.9670 C   0  0  1  0  0  3  0  0  0  0  0  0
  190.4300  171.3030  135.9850 C   0  0  0  0  0  2  0  0  0  0  0  0
  190.4040  172.3390  134.8770 C   0  0  0  0  0  1  0  0  0  0  0  0
  195.8590  176.4130  142.0290 C   0  0  0  0  0  2  0  0  0  0  0  0
  196.4190  176.1240  143.4280 C   0  0  0  0  0  2  0  0  0  0  0  0
  197.7310  175.3600  143.3500 C   0  0  0  0  0  2  0  0  0  0  0  0
  196.7810  173.6760  144.4100 C   0  0  0  0  0  1  0  0  0  0  0  0
  197.8730  174.5400  144.4700 O   0  0  0  0  0  0  0  0  0  0  0  0
  1 10  1  0  0  0  0
  2  6  1  0  0  0  0
  3 15  1  6  0  0  0
  3 14  1  0  0  0  0
  4 20  1  0  0  0  0
  5  7  1  0  0  0  0
  6 23  2  0  0  0  0
  6 24  1  0  0  0  0
  8 19  1  6  0  0  0
  9 18  1  6  0  0  0
  9  2  1  0  0  0  0
 10 18  2  0  0  0  0
 11 10  1  0  0  0  0
 11 22  1  0  0  0  0
 12  8  1  0  0  0  0
 13 17  1  6  0  0  0
 13  1  1  0  0  0  0
 13  3  1  0  0  0  0
 14  8  1  0  0  0  0
 14  9  1  0  0  0  0
 15 12  2  0  0  0  0
 16  1  2  0  0  0  0
 17 20  2  0  0  0  0
 19  2  2  0  0  0  0
 20 16  1  0  0  0  0
 21 37  1  0  0  0  0
 21  7  1  0  0  0  0
 22 21  1  0  0  0  0
 23  5  2  0  0  0  0
 25 26  2  0  0  0  0
 26 24  1  0  0  0  0
 26 28  1  0  0  0  0
 27 29  1  0  0  0  0
 28 27  2  0  0  0  0
 29 30  1  0  0  0  0
 29 33  1  0  0  0  0
 30 34  1  0  0  0  0
 32 31  1  0  0  0  0
 33 32  1  0  0  0  0
 34 32  1  0  0  0  0
 34 31  1  0  0  0  0
 35 17  1  0  0  0  0
 36 35  1  0  0  0  0
 37 38  1  0  0  0  0
 39 38  1  0  0  0  0
 39 41  1  0  0  0  0
 40 41  1  0  0  0  0
M  END
>  <MODEL>
5

>  <REMARK>
 VINA RESULT:      -7.4      2.434      8.872
  Name = 
  8 active torsions:
  status: ('A' for Active; 'I' for Inactive)
    1  A    between atoms: C_2  and  C_33
    2  A    between atoms: C_8  and  C_16
    3  A    between atoms: C_8  and  C_20
    4  A    between atoms: C_9  and  C_26
    5  A    between atoms: N_10  and  C_11
    6  A    between atoms: C_16  and  O_24
    7  A    between atoms: C_20  and  N_39
    8  A    between atoms: C_34  and  C_38
                            x       y       z     vdW  Elec       q    Type
                         _______ _______ _______ _____ _____    ______ ____

>  <TORSDO>
F 8

$$$$
=
 OpenBabel11042414253D

 41 47  0  0  1  0  0  0  0  0999 V2000
  190.1990  176.6440  145.7640 C   0  0  0  0  0  0  0  0  0  0  0  0
  189.5540  173.7780  142.6090 C   0  0  0  0  0  0  0  0  0  0  0  0
  191.4640  174.5340  145.3180 C   0  0  1  0  0  3  0  0  0  0  0  0
  191.5710  177.5430  148.9760 C   0  0  0  0  0  1  0  0  0  0  0  0
  187.0580  175.9530  141.2080 C   0  0  0  0  0  3  0  0  0  0  0  0
  188.7770  173.9840  141.3640 C   0  0  0  0  0  0  0  0  0  0  0  0
  186.3080  176.3710  142.4260 C   0  0  0  0  0  2  0  0  0  0  0  0
  191.0060  172.8140  144.0380 C   0  0  1  0  0  3  0  0  0  0  0  0
  189.5930  174.5830  143.6820 C   0  0  1  0  0  3  0  0  0  0  0  0
  189.1320  176.7500  144.7370 C   0  0  0  0  0  0  0  0  0  0  0  0
  188.2950  177.9970  144.7110 C   0  0  0  0  0  2  0  0  0  0  0  0
  192.3540  172.6800  144.4560 N   0  0  0  0  0  0  0  0  0  0  0  0
  191.5570  176.0130  145.5550 C   0  0  2  0  0  3  0  0  0  0  0  0
  190.4820  173.9800  144.6360 C   0  0  2  0  0  3  0  0  0  0  0  0
  192.6150  173.6770  145.2110 N   0  0  0  0  0  0  0  0  0  0  0  0
  190.0900  177.2120  146.9210 N   0  0  0  0  0  0  0  0  0  0  0  0
  192.1720  176.3060  146.8850 C   0  0  0  0  0  0  0  0  0  0  0  0
  188.9500  175.8560  143.8070 N   0  0  0  0  0  0  0  0  0  0  0  0
  190.5500  172.6900  142.7940 C   0  0  0  0  0  3  0  0  0  0  0  0
  191.3070  176.9940  147.6150 C   0  0  0  0  0  0  0  0  0  0  0  0
  186.7390  177.7010  142.8410 N   0  0  0  0  0  0  0  0  0  0  0  0
  186.8500  177.7280  144.2960 C   0  0  0  0  0  2  0  0  0  0  0  0
  187.9080  174.9640  141.2740 C   0  0  0  0  0  0  0  0  0  0  0  0
  188.9720  173.0630  140.2790 N   0  0  0  0  0  2  0  0  0  0  0  0
  191.0620  173.7900  139.4900 O   0  0  0  0  0  0  0  0  0  0  0  0
  190.0880  172.9950  139.3790 C   0  0  0  0  0  0  0  0  0  0  0  0
  189.8460  170.6950  138.5880 C   0  0  0  0  0  3  0  0  0  0  0  0
  190.0800  171.9770  138.3250 C   0  0  0  0  0  3  0  0  0  0  0  0
  189.8420  169.6800  137.4930 C   0  0  2  0  0  3  0  0  0  0  0  0
  190.6580  168.4680  137.8950 C   0  0  0  0  0  2  0  0  0  0  0  0
  191.9800  168.3110  135.8450 N   0  0  0  0  0  2  0  0  0  0  0  0
  191.9710  169.7110  136.2970 C   0  0  1  0  0  3  0  0  0  0  0  0
  190.5490  170.2440  136.2820 C   0  0  0  0  0  2  0  0  0  0  0  0
  192.0380  168.6280  137.2800 C   0  0  1  0  0  3  0  0  0  0  0  0
  193.5870  175.9990  147.2610 C   0  0  0  0  0  2  0  0  0  0  0  0
  194.5460  176.6070  146.2550 C   0  0  0  0  0  1  0  0  0  0  0  0
  185.7770  178.7170  142.3910 C   0  0  0  0  0  2  0  0  0  0  0  0
  184.4120  178.1490  141.9790 C   0  0  0  0  0  2  0  0  0  0  0  0
  184.1170  178.4280  140.5140 C   0  0  0  0  0  2  0  0  0  0  0  0
  182.0370  178.2850  141.2310 C   0  0  0  0  0  1  0  0  0  0  0  0
  182.8650  177.9160  140.1730 O   0  0  0  0  0  0  0  0  0  0  0  0
  1 16  2  0  0  0  0
  2 19  2  0  0  0  0
  3 15  1  6  0  0  0
  3 13  1  0  0  0  0
  5 23  2  0  0  0  0
  5  7  1  0  0  0  0
  6  2  1  0  0  0  0
  7 21  1  0  0  0  0
  8 19  1  6  0  0  0
  8 12  1  0  0  0  0
  8 14  1  0  0  0  0
  9  2  1  6  0  0  0
  9 18  1  0  0  0  0
  9 14  1  0  0  0  0
 10  1  1  0  0  0  0
 11 10  1  0  0  0  0
 12 15  2  0  0  0  0
 13  1  1  1  0  0  0
 13 17  1  0  0  0  0
 14  3  1  0  0  0  0
 16 20  1  0  0  0  0
 17 35  1  0  0  0  0
 17 20  2  0  0  0  0
 18 10  2  0  0  0  0
 20  4  1  0  0  0  0
 21 22  1  0  0  0  0
 22 11  1  0  0  0  0
 23  6  2  0  0  0  0
 24  6  1  0  0  0  0
 26 25  2  0  0  0  0
 26 24  1  0  0  0  0
 28 27  2  0  0  0  0
 28 26  1  0  0  0  0
 29 30  1  0  0  0  0
 29 27  1  0  0  0  0
 31 32  1  0  0  0  0
 31 34  1  0  0  0  0
 32 34  1  0  0  0  0
 33 32  1  0  0  0  0
 33 29  1  0  0  0  0
 34 30  1  0  0  0  0
 36 35  1  0  0  0  0
 37 21  1  0  0  0  0
 38 37  1  0  0  0  0
 39 38  1  0  0  0  0
 41 39  1  0  0  0  0
 41 40  1  0  0  0  0
M  END
>  <MODEL>
6

>  <REMARK>
 VINA RESULT:      -7.3      2.373      6.259
  Name = 
  8 active torsions:
  status: ('A' for Active; 'I' for Inactive)
    1  A    between atoms: C_2  and  C_33
    2  A    between atoms: C_8  and  C_16
    3  A    between atoms: C_8  and  C_20
    4  A    between atoms: C_9  and  C_26
    5  A    between atoms: N_10  and  C_11
    6  A    between atoms: C_16  and  O_24
    7  A    between atoms: C_20  and  N_39
    8  A    between atoms: C_34  and  C_38
                            x       y       z     vdW  Elec       q    Type
                         _______ _______ _______ _____ _____    ______ ____

>  <TORSDO>
F 8

$$$$
=
 OpenBabel11042414253D

 41 47  0  0  1  0  0  0  0  0999 V2000
  194.3310  173.4560  141.6770 C   0  0  0  0  0  0  0  0  0  0  0  0
  190.5330  175.3540  142.4230 C   0  0  0  0  0  0  0  0  0  0  0  0
  193.8380  175.3610  143.2200 C   0  0  1  0  0  3  0  0  0  0  0  0
  197.9360  173.4640  141.7850 C   0  0  0  0  0  1  0  0  0  0  0  0
  188.9450  172.8850  140.3480 C   0  0  0  0  0  3  0  0  0  0  0  0
  189.1900  174.8170  142.0970 C   0  0  0  0  0  0  0  0  0  0  0  0
  189.8840  172.8170  139.1930 C   0  0  0  0  0  2  0  0  0  0  0  0
  192.0860  176.6670  143.3930 C   0  0  1  0  0  3  0  0  0  0  0  0
  191.7170  174.8720  142.0180 C   0  0  1  0  0  3  0  0  0  0  0  0
  193.0570  173.0760  141.0160 C   0  0  0  0  0  0  0  0  0  0  0  0
  193.0560  171.8710  140.1190 C   0  0  0  0  0  2  0  0  0  0  0  0
  192.9030  176.9070  144.5270 N   0  0  0  0  0  0  0  0  0  0  0  0
  194.4610  174.0030  143.0810 C   0  0  2  0  0  3  0  0  0  0  0  0
  192.7370  175.7100  142.5860 C   0  0  2  0  0  3  0  0  0  0  0  0
  193.9290  176.1530  144.4180 N   0  0  0  0  0  0  0  0  0  0  0  0
  195.4790  173.2250  141.1280 N   0  0  0  0  0  0  0  0  0  0  0  0
  195.9490  174.0820  143.1770 C   0  0  0  0  0  0  0  0  0  0  0  0
  191.9280  173.6830  141.2480 N   0  0  0  0  0  0  0  0  0  0  0  0
  190.7740  176.4480  143.4000 C   0  0  0  0  0  3  0  0  0  0  0  0
  196.4780  173.6210  142.0530 C   0  0  0  0  0  0  0  0  0  0  0  0
  190.7480  171.6490  139.3250 N   0  0  0  0  0  0  0  0  0  0  0  0
  192.1040  172.0200  138.9330 C   0  0  0  0  0  2  0  0  0  0  0  0
  189.0520  173.8520  141.2190 C   0  0  0  0  0  0  0  0  0  0  0  0
  188.0470  175.4070  142.7380 N   0  0  0  0  0  2  0  0  0  0  0  0
  187.1850  176.6760  140.9600 O   0  0  0  0  0  0  0  0  0  0  0  0
  187.0930  176.3120  142.1650 C   0  0  0  0  0  0  0  0  0  0  0  0
  186.2200  177.3270  144.2110 C   0  0  0  0  0  3  0  0  0  0  0  0
  186.0010  176.8080  143.0060 C   0  0  0  0  0  3  0  0  0  0  0  0
  185.0880  177.8250  145.0450 C   0  0  2  0  0  3  0  0  0  0  0  0
  185.4280  179.1750  145.6440 C   0  0  0  0  0  2  0  0  0  0  0  0
  184.7710  178.6500  147.9400 N   0  0  0  0  0  2  0  0  0  0  0  0
  185.5930  177.5470  147.4180 C   0  0  1  0  0  3  0  0  0  0  0  0
  184.8940  176.9070  146.2310 C   0  0  0  0  0  2  0  0  0  0  0  0
  185.9180  178.9290  147.0610 C   0  0  1  0  0  3  0  0  0  0  0  0
  196.7090  174.4770  144.4050 C   0  0  0  0  0  2  0  0  0  0  0  0
  196.6030  173.3950  145.4630 C   0  0  0  0  0  1  0  0  0  0  0  0
  190.2620  170.5520  138.4770 C   0  0  0  0  0  2  0  0  0  0  0  0
  190.8480  170.5480  137.0590 C   0  0  0  0  0  2  0  0  0  0  0  0
  189.7840  170.8670  136.0210 C   0  0  0  0  0  2  0  0  0  0  0  0
  191.0710  172.5390  135.3800 C   0  0  0  0  0  1  0  0  0  0  0  0
  189.7640  172.2370  135.7620 O   0  0  0  0  0  0  0  0  0  0  0  0
  2 19  2  0  0  0  0
  3 15  1  1  0  0  0
  4 20  1  0  0  0  0
  5 23  2  0  0  0  0
  6  2  1  0  0  0  0
  6 24  1  0  0  0  0
  7 21  1  0  0  0  0
  7  5  1  0  0  0  0
  8 19  1  1  0  0  0
  8 12  1  0  0  0  0
  9 18  1  1  0  0  0
  9  2  1  0  0  0  0
  9 14  1  0  0  0  0
 10 18  2  0  0  0  0
 10  1  1  0  0  0  0
 11 10  1  0  0  0  0
 13  1  1  6  0  0  0
 13 17  1  0  0  0  0
 13  3  1  0  0  0  0
 14  3  1  0  0  0  0
 14  8  1  0  0  0  0
 15 12  2  0  0  0  0
 16  1  2  0  0  0  0
 16 20  1  0  0  0  0
 17 35  1  0  0  0  0
 20 17  2  0  0  0  0
 22 21  1  0  0  0  0
 22 11  1  0  0  0  0
 23  6  2  0  0  0  0
 25 26  2  0  0  0  0
 26 24  1  0  0  0  0
 26 28  1  0  0  0  0
 27 29  1  0  0  0  0
 28 27  2  0  0  0  0
 29 30  1  0  0  0  0
 29 33  1  0  0  0  0
 30 34  1  0  0  0  0
 32 31  1  0  0  0  0
 33 32  1  0  0  0  0
 34 32  1  0  0  0  0
 34 31  1  0  0  0  0
 35 36  1  0  0  0  0
 37 21  1  0  0  0  0
 38 37  1  0  0  0  0
 39 38  1  0  0  0  0
 40 41  1  0  0  0  0
 41 39  1  0  0  0  0
M  END
>  <MODEL>
7

>  <REMARK>
 VINA RESULT:      -7.2      2.623      9.431
  Name = 
  8 active torsions:
  status: ('A' for Active; 'I' for Inactive)
    1  A    between atoms: C_2  and  C_33
    2  A    between atoms: C_8  and  C_16
    3  A    between atoms: C_8  and  C_20
    4  A    between atoms: C_9  and  C_26
    5  A    between atoms: N_10  and  C_11
    6  A    between atoms: C_16  and  O_24
    7  A    between atoms: C_20  and  N_39
    8  A    between atoms: C_34  and  C_38
                            x       y       z     vdW  Elec       q    Type
                         _______ _______ _______ _____ _____    ______ ____

>  <TORSDO>
F 8

$$$$
=
 OpenBabel11042414253D

 41 47  0  0  1  0  0  0  0  0999 V2000
  192.3610  170.8530  140.0770 C   0  0  0  0  0  0  0  0  0  0  0  0
  190.1970  173.2360  142.9450 C   0  0  0  0  0  0  0  0  0  0  0  0
  190.0600  171.8060  139.8640 C   0  0  1  0  0  3  0  0  0  0  0  0
  192.4440  168.7250  137.1670 C   0  0  0  0  0  1  0  0  0  0  0  0
  193.1270  173.3080  145.0270 C   0  0  0  0  0  3  0  0  0  0  0  0
  190.7620  173.9560  144.1120 C   0  0  0  0  0  0  0  0  0  0  0  0
  193.5780  171.8880  144.9570 C   0  0  0  0  0  2  0  0  0  0  0  0
  188.7040  172.6650  141.3570 C   0  0  1  0  0  3  0  0  0  0  0  0
  190.8210  172.3350  142.1710 C   0  0  1  0  0  3  0  0  0  0  0  0
  192.8810  171.2390  141.4140 C   0  0  0  0  0  0  0  0  0  0  0  0
  194.3030  170.8860  141.7500 C   0  0  0  0  0  2  0  0  0  0  0  0
  188.1560  172.9480  140.0800 N   0  0  0  0  0  0  0  0  0  0  0  0
  191.4150  171.6770  139.2340 C   0  0  2  0  0  3  0  0  0  0  0  0
  189.8840  171.9160  141.1650 C   0  0  2  0  0  3  0  0  0  0  0  0
  188.9420  172.4360  139.2120 N   0  0  0  0  0  0  0  0  0  0  0  0
  192.7880  169.8010  139.4580 N   0  0  0  0  0  0  0  0  0  0  0  0
  191.3610  170.8180  138.0140 C   0  0  0  0  0  0  0  0  0  0  0  0
  192.1950  171.9440  142.2670 N   0  0  0  0  0  0  0  0  0  0  0  0
  188.8660  173.5310  142.3550 C   0  0  0  0  0  3  0  0  0  0  0  0
  192.1620  169.7760  138.1860 C   0  0  0  0  0  0  0  0  0  0  0  0
  194.6780  171.7650  144.0060 N   0  0  0  0  0  0  0  0  0  0  0  0
  194.4920  170.5450  143.2260 C   0  0  0  0  0  2  0  0  0  0  0  0
  191.9450  173.6380  144.5840 C   0  0  0  0  0  0  0  0  0  0  0  0
  189.9660  174.9790  144.7320 N   0  0  0  0  0  2  0  0  0  0  0  0
  189.3170  173.8650  146.6950 O   0  0  0  0  0  0  0  0  0  0  0  0
  189.2690  174.9060  145.9830 C   0  0  0  0  0  0  0  0  0  0  0  0
  187.8510  176.8540  145.5700 C   0  0  0  0  0  3  0  0  0  0  0  0
  188.4980  176.0710  146.4270 C   0  0  0  0  0  3  0  0  0  0  0  0
  187.0720  178.0330  146.0510 C   0  0  2  0  0  3  0  0  0  0  0  0
  186.1150  177.6210  147.1500 C   0  0  0  0  0  2  0  0  0  0  0  0
  184.1290  178.7150  146.2360 N   0  0  0  0  0  2  0  0  0  0  0  0
  184.8000  177.9730  145.1580 C   0  0  1  0  0  3  0  0  0  0  0  0
  186.1910  178.5430  144.9330 C   0  0  0  0  0  2  0  0  0  0  0  0
  184.7540  177.4120  146.5090 C   0  0  1  0  0  3  0  0  0  0  0  0
  190.6360  171.1650  136.7520 C   0  0  0  0  0  2  0  0  0  0  0  0
  191.1430  172.4820  136.1960 C   0  0  0  0  0  1  0  0  0  0  0  0
  195.9650  171.7170  144.7140 C   0  0  0  0  0  2  0  0  0  0  0  0
  196.4580  170.2970  145.0260 C   0  0  0  0  0  2  0  0  0  0  0  0
  196.4850  170.0390  146.5230 C   0  0  0  0  0  2  0  0  0  0  0  0
  195.3560  168.2150  146.0120 C   0  0  0  0  0  1  0  0  0  0  0  0
  195.3700  169.2900  146.9000 O   0  0  0  0  0  0  0  0  0  0  0  0
  1 10  1  0  0  0  0
  2  6  1  0  0  0  0
  3 15  1  6  0  0  0
  3 14  1  0  0  0  0
  4 20  1  0  0  0  0
  6 23  2  0  0  0  0
  6 24  1  0  0  0  0
  7  5  1  0  0  0  0
  8 19  1  6  0  0  0
  9 18  1  6  0  0  0
  9  2  1  0  0  0  0
 10 11  1  0  0  0  0
 10 18  2  0  0  0  0
 11 22  1  0  0  0  0
 12  8  1  0  0  0  0
 13 17  1  6  0  0  0
 13  3  1  0  0  0  0
 13  1  1  0  0  0  0
 14  8  1  0  0  0  0
 14  9  1  0  0  0  0
 15 12  2  0  0  0  0
 16  1  2  0  0  0  0
 17 20  2  0  0  0  0
 19  2  2  0  0  0  0
 20 16  1  0  0  0  0
 21 37  1  0  0  0  0
 21  7  1  0  0  0  0
 22 21  1  0  0  0  0
 23  5  2  0  0  0  0
 24 26  1  0  0  0  0
 26 28  1  0  0  0  0
 26 25  2  0  0  0  0
 27 29  1  0  0  0  0
 27 28  2  0  0  0  0
 29 30  1  0  0  0  0
 31 34  1  0  0  0  0
 32 31  1  0  0  0  0
 32 34  1  0  0  0  0
 33 32  1  0  0  0  0
 33 29  1  0  0  0  0
 34 30  1  0  0  0  0
 35 17  1  0  0  0  0
 36 35  1  0  0  0  0
 37 38  1  0  0  0  0
 38 39  1  0  0  0  0
 39 41  1  0  0  0  0
 40 41  1  0  0  0  0
M  END
>  <MODEL>
8

>  <REMARK>
 VINA RESULT:      -7.1      2.910      8.946
  Name = 
  8 active torsions:
  status: ('A' for Active; 'I' for Inactive)
    1  A    between atoms: C_2  and  C_33
    2  A    between atoms: C_8  and  C_16
    3  A    between atoms: C_8  and  C_20
    4  A    between atoms: C_9  and  C_26
    5  A    between atoms: N_10  and  C_11
    6  A    between atoms: C_16  and  O_24
    7  A    between atoms: C_20  and  N_39
    8  A    between atoms: C_34  and  C_38
                            x       y       z     vdW  Elec       q    Type
                         _______ _______ _______ _____ _____    ______ ____

>  <TORSDO>
F 8

$$$$
=
 OpenBabel11042414253D

 41 47  0  0  1  0  0  0  0  0999 V2000
  192.1860  171.0820  139.6320 C   0  0  0  0  0  0  0  0  0  0  0  0
  190.1560  173.4820  142.5820 C   0  0  0  0  0  0  0  0  0  0  0  0
  189.8020  171.8380  139.6280 C   0  0  1  0  0  3  0  0  0  0  0  0
  192.1280  168.7730  136.8630 C   0  0  0  0  0  1  0  0  0  0  0  0
  193.2790  173.9210  144.3070 C   0  0  0  0  0  3  0  0  0  0  0  0
  190.7820  174.3210  143.6320 C   0  0  0  0  0  0  0  0  0  0  0  0
  193.8380  172.5390  144.2700 C   0  0  0  0  0  2  0  0  0  0  0  0
  188.5510  172.6900  141.2130 C   0  0  1  0  0  3  0  0  0  0  0  0
  190.7640  172.5810  141.7970 C   0  0  1  0  0  3  0  0  0  0  0  0
  192.8140  171.5970  140.8750 C   0  0  0  0  0  0  0  0  0  0  0  0
  194.2890  171.3780  141.0660 C   0  0  0  0  0  2  0  0  0  0  0  0
  187.8450  172.8420  139.9930 N   0  0  0  0  0  0  0  0  0  0  0  0
  191.0870  171.7710  138.8550 C   0  0  2  0  0  3  0  0  0  0  0  0
  189.7610  172.0220  140.9320 C   0  0  2  0  0  3  0  0  0  0  0  0
  188.5710  172.3340  139.0720 N   0  0  0  0  0  0  0  0  0  0  0  0
  192.6300  170.0260  139.0310 N   0  0  0  0  0  0  0  0  0  0  0  0
  190.9720  170.8290  137.7020 C   0  0  0  0  0  0  0  0  0  0  0  0
  192.1680  172.3040  141.7580 N   0  0  0  0  0  0  0  0  0  0  0  0
  188.7470  173.6320  142.1320 C   0  0  0  0  0  3  0  0  0  0  0  0
  191.8720  169.8660  137.8430 C   0  0  0  0  0  0  0  0  0  0  0  0
  194.8340  172.4360  143.2090 N   0  0  0  0  0  0  0  0  0  0  0  0
  194.6660  171.1550  142.5290 C   0  0  0  0  0  2  0  0  0  0  0  0
  192.0320  174.1270  143.9830 C   0  0  0  0  0  0  0  0  0  0  0  0
  189.9750  175.3190  144.2770 N   0  0  0  0  0  2  0  0  0  0  0  0
  190.2320  177.0990  142.7670 O   0  0  0  0  0  0  0  0  0  0  0  0
  189.7300  176.6630  143.8390 C   0  0  0  0  0  0  0  0  0  0  0  0
  187.9230  177.0330  145.4430 C   0  0  0  0  0  3  0  0  0  0  0  0
  188.8780  177.5270  144.6620 C   0  0  0  0  0  3  0  0  0  0  0  0
  187.0710  177.9370  146.2720 C   0  0  2  0  0  3  0  0  0  0  0  0
  186.1760  177.1260  147.1860 C   0  0  0  0  0  2  0  0  0  0  0  0
  184.0920  178.2930  146.6660 N   0  0  0  0  0  2  0  0  0  0  0  0
  184.7880  177.9820  145.4070 C   0  0  1  0  0  3  0  0  0  0  0  0
  186.1260  178.7010  145.3720 C   0  0  0  0  0  2  0  0  0  0  0  0
  184.8180  177.0230  146.5130 C   0  0  1  0  0  3  0  0  0  0  0  0
  190.0870  171.0320  136.5130 C   0  0  0  0  0  2  0  0  0  0  0  0
  190.3930  172.3600  135.8460 C   0  0  0  0  0  1  0  0  0  0  0  0
  196.1900  172.5360  143.7660 C   0  0  0  0  0  2  0  0  0  0  0  0
  197.1690  173.3330  142.8930 C   0  0  0  0  0  2  0  0  0  0  0  0
  197.3910  174.7310  143.4480 C   0  0  0  0  0  2  0  0  0  0  0  0
  196.0360  176.4150  143.8870 C   0  0  0  0  0  1  0  0  0  0  0  0
  196.5160  175.6310  142.8390 O   0  0  0  0  0  0  0  0  0  0  0  0
  1 10  1  0  0  0  0
  2  6  1  0  0  0  0
  3 15  1  6  0  0  0
  3 14  1  0  0  0  0
  4 20  1  0  0  0  0
  6 23  2  0  0  0  0
  6 24  1  0  0  0  0
  7  5  1  0  0  0  0
  8 19  1  6  0  0  0
  9 18  1  6  0  0  0
  9  2  1  0  0  0  0
 10 11  1  0  0  0  0
 10 18  2  0  0  0  0
 11 22  1  0  0  0  0
 12  8  1  0  0  0  0
 13 17  1  6  0  0  0
 13  3  1  0  0  0  0
 13  1  1  0  0  0  0
 14  8  1  0  0  0  0
 14  9  1  0  0  0  0
 15 12  2  0  0  0  0
 16  1  2  0  0  0  0
 17 20  2  0  0  0  0
 19  2  2  0  0  0  0
 20 16  1  0  0  0  0
 21 37  1  0  0  0  0
 21  7  1  0  0  0  0
 22 21  1  0  0  0  0
 23  5  2  0  0  0  0
 25 26  2  0  0  0  0
 26 24  1  0  0  0  0
 26 28  1  0  0  0  0
 27 29  1  0  0  0  0
 28 27  2  0  0  0  0
 29 30  1  0  0  0  0
 32 34  1  0  0  0  0
 32 31  1  0  0  0  0
 33 32  1  0  0  0  0
 33 29  1  0  0  0  0
 34 31  1  0  0  0  0
 34 30  1  0  0  0  0
 35 17  1  0  0  0  0
 36 35  1  0  0  0  0
 38 39  1  0  0  0  0
 38 37  1  0  0  0  0
 41 39  1  0  0  0  0
 41 40  1  0  0  0  0
M  END
>  <MODEL>
9

>  <REMARK>
 VINA RESULT:      -7.0      2.324      8.750
  Name = 
  8 active torsions:
  status: ('A' for Active; 'I' for Inactive)
    1  A    between atoms: C_2  and  C_33
    2  A    between atoms: C_8  and  C_16
    3  A    between atoms: C_8  and  C_20
    4  A    between atoms: C_9  and  C_26
    5  A    between atoms: N_10  and  C_11
    6  A    between atoms: C_16  and  O_24
    7  A    between atoms: C_20  and  N_39
    8  A    between atoms: C_34  and  C_38
                            x       y       z     vdW  Elec       q    Type
                         _______ _______ _______ _____ _____    ______ ____

>  <TORSDO>
F 8

$$$$
