=
 OpenBabel11042419183D

 43 46  0  0  1  0  0  0  0  0999 V2000
  188.0880  174.8380  142.0150 F   0  0  0  0  0  0  0  0  0  0  0  0
  189.0790  174.2180  142.7580 C   0  0  0  0  0  0  0  0  0  0  0  0
  191.2880  172.5520  141.0020 C   0  0  0  0  0  2  0  0  0  0  0  0
  195.5040  176.2820  143.5790 N   0  0  0  0  0  0  0  0  0  0  0  0
  191.0150  176.2510  144.2810 C   0  0  2  0  0  3  0  0  0  0  0  0
  192.4600  176.3110  144.0920 N   0  0  0  0  0  0  0  0  0  0  0  0
  189.7630  172.3350  141.0640 C   0  0  1  0  0  3  0  0  0  0  0  0
  193.1880  175.2640  143.8560 C   0  0  0  0  0  0  0  0  0  0  0  0
  190.3350  174.8090  142.4890 O   0  0  0  0  0  0  0  0  0  0  0  0
  196.7970  175.9850  143.2510 C   0  0  0  0  0  3  0  0  0  0  0  0
  192.3970  171.1230  142.7930 C   0  0  2  0  0  3  0  0  0  0  0  0
  189.1100  172.7200  142.4060 C   0  0  1  0  0  3  0  0  0  0  0  0
  197.1640  174.6930  142.9700 N   0  0  0  0  0  0  0  0  0  0  0  0
  189.6490  171.9670  143.4530 O   0  0  0  0  0  1  0  0  0  0  0  0
  192.1140  171.2910  141.2850 C   0  0  1  0  0  3  0  0  0  0  0  0
  196.2600  173.6690  143.0120 C   0  0  0  0  0  3  0  0  0  0  0  0
  194.9590  173.9750  143.3800 C   0  0  0  0  0  0  0  0  0  0  0  0
  190.3030  176.1400  142.9340 C   0  0  0  0  0  2  0  0  0  0  0  0
  192.6870  173.9280  143.6950 N   0  0  0  0  0  0  0  0  0  0  0  0
  193.7260  173.1930  143.4140 C   0  0  0  0  0  0  0  0  0  0  0  0
  193.6480  171.7980  143.1110 N   0  0  0  0  0  2  0  0  0  0  0  0
  188.7530  174.3360  144.1050 F   0  0  0  0  0  0  0  0  0  0  0  0
  194.6200  175.2610  143.6610 C   0  0  0  0  0  0  0  0  0  0  0  0
  189.0490  172.9540  139.8920 C   0  0  0  0  0  0  0  0  0  0  0  0
  189.8080  173.7810  138.9150 C   0  0  0  0  0  1  0  0  0  0  0  0
  187.8540  172.7720  139.7150 O   0  0  0  0  0  0  0  0  0  0  0  0
  192.4860  169.6710  143.2530 C   0  0  0  0  0  2  0  0  0  0  0  0
  193.0720  169.6070  144.5180 O   0  0  0  0  0  1  0  0  0  0  0  0
  191.8640  169.9320  139.2320 C   0  0  0  0  0  3  0  0  0  0  0  0
  191.6050  170.0870  140.5300 C   0  0  0  0  0  3  0  0  0  0  0  0
  191.3570  168.7400  138.4940 C   0  0  0  0  0  2  0  0  0  0  0  0
  190.0530  169.0950  137.8080 C   0  0  0  0  0  1  0  0  0  0  0  0
  190.7240  177.2790  146.4110 F   0  0  0  0  0  0  0  0  0  0  0  0
  190.5280  177.4760  145.0530 C   0  0  2  0  0  3  0  0  0  0  0  0
  189.1020  177.6680  144.8130 N   0  0  0  0  0  2  0  0  0  0  0  0
  188.0900  177.1640  145.6900 C   0  0  0  0  0  0  0  0  0  0  0  0
  188.3780  176.2930  146.5560 O   0  0  0  0  0  0  0  0  0  0  0  0
  186.3800  178.6160  144.6030 C   0  0  0  0  0  3  0  0  0  0  0  0
  185.7270  177.2580  146.4980 C   0  0  0  0  0  3  0  0  0  0  0  0
  184.1070  178.7040  145.4260 C   0  0  0  0  0  3  0  0  0  0  0  0
  185.0820  179.1250  144.5180 C   0  0  0  0  0  3  0  0  0  0  0  0
  184.4280  177.7730  146.4170 C   0  0  0  0  0  3  0  0  0  0  0  0
  186.7120  177.6760  145.5890 C   0  0  0  0  0  0  0  0  0  0  0  0
  1  2  1  0  0  0  0
  2 22  1  0  0  0  0
  3  7  1  0  0  0  0
  3 15  1  0  0  0  0
  4 23  1  0  0  0  0
  5 34  1  6  0  0  0
  6  5  1  0  0  0  0
  7 24  1  6  0  0  0
  7 12  1  0  0  0  0
  8  6  2  0  0  0  0
  9  2  1  0  0  0  0
  9 18  1  0  0  0  0
 10  4  2  0  0  0  0
 11 21  1  0  0  0  0
 11 27  1  6  0  0  0
 12  2  1  0  0  0  0
 12 14  1  1  0  0  0
 13 16  2  0  0  0  0
 13 10  1  0  0  0  0
 15 30  1  1  0  0  0
 15 11  1  0  0  0  0
 16 17  1  0  0  0  0
 17 20  1  0  0  0  0
 17 23  2  0  0  0  0
 18  5  1  0  0  0  0
 19  8  1  0  0  0  0
 20 19  2  0  0  0  0
 21 20  1  0  0  0  0
 23  8  1  0  0  0  0
 25 24  1  0  0  0  0
 26 24  2  0  0  0  0
 27 28  1  0  0  0  0
 29 30  2  0  0  0  0
 31 29  1  0  0  0  0
 32 31  1  0  0  0  0
 34 33  1  1  0  0  0
 35 34  1  0  0  0  0
 35 36  1  0  0  0  0
 36 37  2  0  0  0  0
 38 43  1  0  0  0  0
 40 42  2  0  0  0  0
 41 38  2  0  0  0  0
 41 40  1  0  0  0  0
 42 39  1  0  0  0  0
 43 36  1  0  0  0  0
 43 39  2  0  0  0  0
M  END
>  <MODEL>
1

>  <REMARK>
 VINA RESULT:      -8.2      0.000      0.000
  Name = 
  7 active torsions:
  status: ('A' for Active; 'I' for Inactive)
    1  A    between atoms: C_5  and  CA_17
    2  A    between atoms: C_6  and  C_37
    3  A    between atoms: C_8  and  C_13
    4  A    between atoms: C_10  and  C_30
    5  A    between atoms: N_16  and  C_37
    6  A    between atoms: C_21  and  C_25
    7  A    between atoms: C_34  and  C_42
                            x       y       z     vdW  Elec       q    Type
                         _______ _______ _______ _____ _____    ______ ____

>  <TORSDO>
F 7

$$$$
=
 OpenBabel11042419183D

 43 46  0  0  1  0  0  0  0  0999 V2000
  194.8030  175.5350  146.8820 F   0  0  0  0  0  0  0  0  0  0  0  0
  194.3320  175.8610  145.6210 C   0  0  0  0  0  0  0  0  0  0  0  0
  194.6570  173.5000  143.3710 C   0  0  0  0  0  2  0  0  0  0  0  0
  188.5060  173.8370  142.7600 N   0  0  0  0  0  0  0  0  0  0  0  0
  191.1700  176.2990  145.4960 C   0  0  2  0  0  3  0  0  0  0  0  0
  190.2660  175.5360  144.6430 N   0  0  0  0  0  0  0  0  0  0  0  0
  195.7650  174.1920  144.1910 C   0  0  1  0  0  3  0  0  0  0  0  0
  190.5950  175.1100  143.4630 C   0  0  0  0  0  0  0  0  0  0  0  0
  193.2140  175.0590  145.2940 O   0  0  0  0  0  0  0  0  0  0  0  0
  187.9910  173.0380  141.7780 C   0  0  0  0  0  3  0  0  0  0  0  0
  194.3000  174.7960  141.2100 C   0  0  2  0  0  3  0  0  0  0  0  0
  195.4570  175.6480  144.5930 C   0  0  1  0  0  3  0  0  0  0  0  0
  188.7350  172.7380  140.6650 N   0  0  0  0  0  0  0  0  0  0  0  0
  195.2620  176.4430  143.4600 O   0  0  0  0  0  1  0  0  0  0  0  0
  194.8890  173.5230  141.8560 C   0  0  1  0  0  3  0  0  0  0  0  0
  190.0010  173.2240  140.4990 C   0  0  0  0  0  3  0  0  0  0  0  0
  190.5010  174.0620  141.4840 C   0  0  0  0  0  0  0  0  0  0  0  0
  192.1710  175.3700  146.1820 C   0  0  0  0  0  2  0  0  0  0  0  0
  191.8850  175.2740  142.8560 N   0  0  0  0  0  0  0  0  0  0  0  0
  191.8170  174.6570  141.7100 C   0  0  0  0  0  0  0  0  0  0  0  0
  192.9240  174.5230  140.8160 N   0  0  0  0  0  2  0  0  0  0  0  0
  193.9940  177.2100  145.6150 F   0  0  0  0  0  0  0  0  0  0  0  0
  189.7430  174.3520  142.5750 C   0  0  0  0  0  0  0  0  0  0  0  0
  196.2080  173.3640  145.3690 C   0  0  0  0  0  0  0  0  0  0  0  0
  195.5760  172.0410  145.6230 C   0  0  0  0  0  1  0  0  0  0  0  0
  197.0960  173.7520  146.1130 O   0  0  0  0  0  0  0  0  0  0  0  0
  195.0750  175.2950  139.9950 C   0  0  0  0  0  2  0  0  0  0  0  0
  194.2500  175.2910  138.8690 O   0  0  0  0  0  1  0  0  0  0  0  0
  196.5440  172.0500  140.7530 C   0  0  0  0  0  3  0  0  0  0  0  0
  196.3010  173.1400  141.4820 C   0  0  0  0  0  3  0  0  0  0  0  0
  197.9410  171.6770  140.3890 C   0  0  0  0  0  2  0  0  0  0  0  0
  197.9120  170.6890  139.2410 C   0  0  0  0  0  1  0  0  0  0  0  0
  190.1650  176.3240  147.6550 F   0  0  0  0  0  0  0  0  0  0  0  0
  190.3800  177.1010  146.5280 C   0  0  2  0  0  3  0  0  0  0  0  0
  189.0870  177.4760  145.9680 N   0  0  0  0  0  2  0  0  0  0  0  0
  187.8460  176.9570  146.4570 C   0  0  0  0  0  0  0  0  0  0  0  0
  187.8360  175.9410  147.2060 O   0  0  0  0  0  0  0  0  0  0  0  0
  186.5360  178.5110  145.0150 C   0  0  0  0  0  3  0  0  0  0  0  0
  185.4170  177.3970  146.8510 C   0  0  0  0  0  3  0  0  0  0  0  0
  184.1930  178.9370  145.4390 C   0  0  0  0  0  3  0  0  0  0  0  0
  185.3460  179.1640  144.6840 C   0  0  0  0  0  3  0  0  0  0  0  0
  184.2280  178.0550  146.5230 C   0  0  0  0  0  3  0  0  0  0  0  0
  186.5810  177.6200  146.0960 C   0  0  0  0  0  0  0  0  0  0  0  0
  2  1  1  0  0  0  0
  3  7  1  0  0  0  0
  5 18  1  0  0  0  0
  5 34  1  1  0  0  0
  6  5  1  0  0  0  0
  7 12  1  0  0  0  0
  7 24  1  1  0  0  0
  8  6  2  0  0  0  0
  9  2  1  0  0  0  0
  9 18  1  0  0  0  0
 10  4  2  0  0  0  0
 11 27  1  6  0  0  0
 11 15  1  0  0  0  0
 12 14  1  6  0  0  0
 12  2  1  0  0  0  0
 13 10  1  0  0  0  0
 15 30  1  1  0  0  0
 15  3  1  0  0  0  0
 16 13  2  0  0  0  0
 16 17  1  0  0  0  0
 17 20  1  0  0  0  0
 17 23  2  0  0  0  0
 19  8  1  0  0  0  0
 20 19  2  0  0  0  0
 21 11  1  0  0  0  0
 21 20  1  0  0  0  0
 22  2  1  0  0  0  0
 23  4  1  0  0  0  0
 23  8  1  0  0  0  0
 24 25  1  0  0  0  0
 24 26  2  0  0  0  0
 28 27  1  0  0  0  0
 29 30  2  0  0  0  0
 31 29  1  0  0  0  0
 32 31  1  0  0  0  0
 34 33  1  1  0  0  0
 35 36  1  0  0  0  0
 35 34  1  0  0  0  0
 36 37  2  0  0  0  0
 38 43  1  0  0  0  0
 40 42  2  0  0  0  0
 41 38  2  0  0  0  0
 41 40  1  0  0  0  0
 42 39  1  0  0  0  0
 43 36  1  0  0  0  0
 43 39  2  0  0  0  0
M  END
>  <MODEL>
2

>  <REMARK>
 VINA RESULT:      -8.2      2.998      5.575
  Name = 
  7 active torsions:
  status: ('A' for Active; 'I' for Inactive)
    1  A    between atoms: C_5  and  CA_17
    2  A    between atoms: C_6  and  C_37
    3  A    between atoms: C_8  and  C_13
    4  A    between atoms: C_10  and  C_30
    5  A    between atoms: N_16  and  C_37
    6  A    between atoms: C_21  and  C_25
    7  A    between atoms: C_34  and  C_42
                            x       y       z     vdW  Elec       q    Type
                         _______ _______ _______ _____ _____    ______ ____

>  <TORSDO>
F 7

$$$$
=
 OpenBabel11042419183D

 43 46  0  0  1  0  0  0  0  0999 V2000
  190.4260  176.5170  144.8920 F   0  0  0  0  0  0  0  0  0  0  0  0
  190.9610  176.3390  143.6280 C   0  0  0  0  0  0  0  0  0  0  0  0
  193.0650  173.8410  143.3550 C   0  0  0  0  0  2  0  0  0  0  0  0
  189.2070  171.6290  139.0480 N   0  0  0  0  0  0  0  0  0  0  0  0
  188.8120  175.4820  141.4240 C   0  0  2  0  0  3  0  0  0  0  0  0
  188.8830  174.2570  140.6370 N   0  0  0  0  0  0  0  0  0  0  0  0
  193.1660  175.0740  144.2750 C   0  0  1  0  0  3  0  0  0  0  0  0
  190.0020  173.7340  140.2400 C   0  0  0  0  0  0  0  0  0  0  0  0
  190.5140  175.1160  143.0750 O   0  0  0  0  0  0  0  0  0  0  0  0
  189.6440  170.4930  138.4280 C   0  0  0  0  0  3  0  0  0  0  0  0
  194.2070  174.3690  141.1430 C   0  0  2  0  0  3  0  0  0  0  0  0
  192.4970  176.3490  143.7240 C   0  0  1  0  0  3  0  0  0  0  0  0
  190.9870  170.2580  138.2740 N   0  0  0  0  0  0  0  0  0  0  0  0
  193.0760  176.7250  142.5090 O   0  0  0  0  0  1  0  0  0  0  0  0
  194.3030  173.6060  142.4810 C   0  0  1  0  0  3  0  0  0  0  0  0
  191.9230  171.1430  138.7260 C   0  0  0  0  0  3  0  0  0  0  0  0
  191.4700  172.3100  139.3230 C   0  0  0  0  0  0  0  0  0  0  0  0
  189.1240  175.1940  142.8920 C   0  0  0  0  0  2  0  0  0  0  0  0
  191.3080  174.2400  140.5530 N   0  0  0  0  0  0  0  0  0  0  0  0
  192.1490  173.4000  140.0180 C   0  0  0  0  0  0  0  0  0  0  0  0
  193.5680  173.5050  140.1590 N   0  0  0  0  0  2  0  0  0  0  0  0
  190.5740  177.4140  142.8330 F   0  0  0  0  0  0  0  0  0  0  0  0
  190.1340  172.5250  139.4580 C   0  0  0  0  0  0  0  0  0  0  0  0
  192.7300  174.7740  145.6850 C   0  0  0  0  0  0  0  0  0  0  0  0
  193.0880  175.7090  146.7860 C   0  0  0  0  0  1  0  0  0  0  0  0
  192.0660  173.7800  145.9410 O   0  0  0  0  0  0  0  0  0  0  0  0
  195.5510  174.8380  140.5930 C   0  0  0  0  0  2  0  0  0  0  0  0
  195.6700  176.2210  140.7420 O   0  0  0  0  0  1  0  0  0  0  0  0
  196.0070  172.7300  144.0470 C   0  0  0  0  0  3  0  0  0  0  0  0
  195.5900  173.7230  143.2610 C   0  0  0  0  0  3  0  0  0  0  0  0
  197.2800  172.8540  144.8150 C   0  0  0  0  0  2  0  0  0  0  0  0
  197.0090  173.5810  146.1170 C   0  0  0  0  0  1  0  0  0  0  0  0
  187.4890  177.1230  140.3160 F   0  0  0  0  0  0  0  0  0  0  0  0
  187.4360  176.1290  141.2800 C   0  0  2  0  0  3  0  0  0  0  0  0
  187.0450  176.7330  142.5490 N   0  0  0  0  0  2  0  0  0  0  0  0
  185.7420  177.2770  142.7840 C   0  0  0  0  0  0  0  0  0  0  0  0
  184.9690  177.5100  141.8140 O   0  0  0  0  0  0  0  0  0  0  0  0
  184.3700  178.5660  144.4160 C   0  0  0  0  0  3  0  0  0  0  0  0
  185.8310  176.8200  145.2390 C   0  0  0  0  0  3  0  0  0  0  0  0
  184.4980  178.1180  146.7900 C   0  0  0  0  0  3  0  0  0  0  0  0
  183.9660  178.8480  145.7230 C   0  0  0  0  0  3  0  0  0  0  0  0
  185.4310  177.1060  146.5490 C   0  0  0  0  0  3  0  0  0  0  0  0
  185.3000  177.5490  144.1620 C   0  0  0  0  0  0  0  0  0  0  0  0
  2 12  1  0  0  0  0
  2  1  1  0  0  0  0
  3  7  1  0  0  0  0
  4 23  1  0  0  0  0
  5 34  1  1  0  0  0
  5 18  1  0  0  0  0
  6  5  1  0  0  0  0
  7 24  1  1  0  0  0
  8 19  1  0  0  0  0
  8  6  2  0  0  0  0
  9  2  1  0  0  0  0
 10  4  2  0  0  0  0
 11 27  1  6  0  0  0
 11 15  1  0  0  0  0
 12 14  1  6  0  0  0
 12  7  1  0  0  0  0
 13 10  1  0  0  0  0
 13 16  2  0  0  0  0
 15 30  1  1  0  0  0
 15  3  1  0  0  0  0
 16 17  1  0  0  0  0
 17 23  2  0  0  0  0
 17 20  1  0  0  0  0
 18  9  1  0  0  0  0
 20 21  1  0  0  0  0
 20 19  2  0  0  0  0
 21 11  1  0  0  0  0
 22  2  1  0  0  0  0
 23  8  1  0  0  0  0
 24 26  2  0  0  0  0
 24 25  1  0  0  0  0
 27 28  1  0  0  0  0
 29 31  1  0  0  0  0
 30 29  2  0  0  0  0
 31 32  1  0  0  0  0
 34 33  1  6  0  0  0
 34 35  1  0  0  0  0
 35 36  1  0  0  0  0
 36 43  1  0  0  0  0
 37 36  2  0  0  0  0
 38 41  1  0  0  0  0
 39 42  2  0  0  0  0
 41 40  2  0  0  0  0
 42 40  1  0  0  0  0
 43 38  2  0  0  0  0
 43 39  1  0  0  0  0
M  END
>  <MODEL>
3

>  <REMARK>
 VINA RESULT:      -8.1      2.777      5.747
  Name = 
  7 active torsions:
  status: ('A' for Active; 'I' for Inactive)
    1  A    between atoms: C_5  and  CA_17
    2  A    between atoms: C_6  and  C_37
    3  A    between atoms: C_8  and  C_13
    4  A    between atoms: C_10  and  C_30
    5  A    between atoms: N_16  and  C_37
    6  A    between atoms: C_21  and  C_25
    7  A    between atoms: C_34  and  C_42
                            x       y       z     vdW  Elec       q    Type
                         _______ _______ _______ _____ _____    ______ ____

>  <TORSDO>
F 7

$$$$
=
 OpenBabel11042419183D

 43 46  0  0  1  0  0  0  0  0999 V2000
  188.5090  174.2730  143.1450 F   0  0  0  0  0  0  0  0  0  0  0  0
  189.7240  173.6770  143.4410 C   0  0  0  0  0  0  0  0  0  0  0  0
  191.6670  173.1370  140.8580 C   0  0  0  0  0  2  0  0  0  0  0  0
  195.8080  176.6930  143.7810 N   0  0  0  0  0  0  0  0  0  0  0  0
  191.6620  175.5020  145.2080 C   0  0  2  0  0  3  0  0  0  0  0  0
  192.9980  175.9200  144.8000 N   0  0  0  0  0  0  0  0  0  0  0  0
  190.2450  172.5960  141.1090 C   0  0  1  0  0  3  0  0  0  0  0  0
  193.7880  175.1750  144.0920 C   0  0  0  0  0  0  0  0  0  0  0  0
  190.7860  174.5720  143.1770 O   0  0  0  0  0  0  0  0  0  0  0  0
  197.0160  176.7900  143.1490 C   0  0  0  0  0  3  0  0  0  0  0  0
  193.3560  171.4930  141.8190 C   0  0  2  0  0  3  0  0  0  0  0  0
  189.8800  172.4020  142.5940 C   0  0  1  0  0  3  0  0  0  0  0  0
  197.4830  175.7540  142.3790 N   0  0  0  0  0  0  0  0  0  0  0  0
  190.7510  171.4950  143.2030 O   0  0  0  0  0  1  0  0  0  0  0  0
  192.7050  172.0540  140.5370 C   0  0  1  0  0  3  0  0  0  0  0  0
  196.7670  174.6020  142.2220 C   0  0  0  0  0  3  0  0  0  0  0  0
  195.5590  174.4980  142.8960 C   0  0  0  0  0  0  0  0  0  0  0  0
  190.6740  175.6640  144.0530 C   0  0  0  0  0  2  0  0  0  0  0  0
  193.4550  173.8790  143.5700 N   0  0  0  0  0  0  0  0  0  0  0  0
  194.4910  173.5020  142.8740 C   0  0  0  0  0  0  0  0  0  0  0  0
  194.5400  172.2850  142.1260 N   0  0  0  0  0  2  0  0  0  0  0  0
  189.7120  173.3030  144.7820 F   0  0  0  0  0  0  0  0  0  0  0  0
  195.1200  175.5340  143.6590 C   0  0  0  0  0  0  0  0  0  0  0  0
  189.1950  173.3810  140.3680 C   0  0  0  0  0  0  0  0  0  0  0  0
  188.1840  172.6670  139.5410 C   0  0  0  0  0  1  0  0  0  0  0  0
  189.1440  174.5980  140.4490 O   0  0  0  0  0  0  0  0  0  0  0  0
  193.7530  170.0230  141.7260 C   0  0  0  0  0  2  0  0  0  0  0  0
  195.1100  169.9150  141.4190 O   0  0  0  0  0  1  0  0  0  0  0  0
  192.3050  171.3140  138.2100 C   0  0  0  0  0  3  0  0  0  0  0  0
  192.2060  171.0620  139.5150 C   0  0  0  0  0  3  0  0  0  0  0  0
  191.8090  170.3290  137.2070 C   0  0  0  0  0  2  0  0  0  0  0  0
  190.3470  170.0350  137.4760 C   0  0  0  0  0  1  0  0  0  0  0  0
  191.6950  175.7060  147.5810 F   0  0  0  0  0  0  0  0  0  0  0  0
  191.2040  176.2980  146.4280 C   0  0  2  0  0  3  0  0  0  0  0  0
  189.7470  176.2990  146.4910 N   0  0  0  0  0  2  0  0  0  0  0  0
  188.9930  177.3650  147.0790 C   0  0  0  0  0  0  0  0  0  0  0  0
  189.5660  178.2120  147.8180 O   0  0  0  0  0  0  0  0  0  0  0  0
  186.7490  178.3210  147.5910 C   0  0  0  0  0  3  0  0  0  0  0  0
  186.9530  176.7160  145.7900 C   0  0  0  0  0  3  0  0  0  0  0  0
  184.7890  177.6530  146.3410 C   0  0  0  0  0  3  0  0  0  0  0  0
  185.3750  178.4130  147.3570 C   0  0  0  0  0  3  0  0  0  0  0  0
  185.5760  176.8040  145.5590 C   0  0  0  0  0  3  0  0  0  0  0  0
  187.5500  177.4770  146.8080 C   0  0  0  0  0  0  0  0  0  0  0  0
  1  2  1  0  0  0  0
  2 22  1  0  0  0  0
  3  7  1  0  0  0  0
  5 34  1  1  0  0  0
  6  5  1  0  0  0  0
  7 24  1  1  0  0  0
  7 12  1  0  0  0  0
  8  6  2  0  0  0  0
  9  2  1  0  0  0  0
  9 18  1  0  0  0  0
 10  4  2  0  0  0  0
 11 27  1  6  0  0  0
 11 21  1  0  0  0  0
 12 14  1  1  0  0  0
 12  2  1  0  0  0  0
 13 10  1  0  0  0  0
 15 30  1  1  0  0  0
 15  3  1  0  0  0  0
 15 11  1  0  0  0  0
 16 13  2  0  0  0  0
 16 17  1  0  0  0  0
 17 23  2  0  0  0  0
 18  5  1  0  0  0  0
 19  8  1  0  0  0  0
 20 17  1  0  0  0  0
 20 19  2  0  0  0  0
 21 20  1  0  0  0  0
 23  4  1  0  0  0  0
 23  8  1  0  0  0  0
 24 26  2  0  0  0  0
 25 24  1  0  0  0  0
 28 27  1  0  0  0  0
 29 30  2  0  0  0  0
 31 32  1  0  0  0  0
 31 29  1  0  0  0  0
 34 35  1  0  0  0  0
 34 33  1  1  0  0  0
 35 36  1  0  0  0  0
 36 37  2  0  0  0  0
 39 43  1  0  0  0  0
 40 41  2  0  0  0  0
 41 38  1  0  0  0  0
 42 39  2  0  0  0  0
 42 40  1  0  0  0  0
 43 36  1  0  0  0  0
 43 38  2  0  0  0  0
M  END
>  <MODEL>
4

>  <REMARK>
 VINA RESULT:      -7.7      1.462      1.646
  Name = 
  7 active torsions:
  status: ('A' for Active; 'I' for Inactive)
    1  A    between atoms: C_5  and  CA_17
    2  A    between atoms: C_6  and  C_37
    3  A    between atoms: C_8  and  C_13
    4  A    between atoms: C_10  and  C_30
    5  A    between atoms: N_16  and  C_37
    6  A    between atoms: C_21  and  C_25
    7  A    between atoms: C_34  and  C_42
                            x       y       z     vdW  Elec       q    Type
                         _______ _______ _______ _____ _____    ______ ____

>  <TORSDO>
F 7

$$$$
=
 OpenBabel11042419183D

 43 46  0  0  1  0  0  0  0  0999 V2000
  193.1440  176.3600  146.1870 F   0  0  0  0  0  0  0  0  0  0  0  0
  192.9480  175.3250  145.2870 C   0  0  0  0  0  0  0  0  0  0  0  0
  190.6790  175.8950  142.9930 C   0  0  0  0  0  2  0  0  0  0  0  0
  195.2170  174.9550  138.8890 N   0  0  0  0  0  0  0  0  0  0  0  0
  195.4740  174.7410  143.4200 C   0  0  2  0  0  3  0  0  0  0  0  0
  195.4530  174.8010  141.9630 N   0  0  0  0  0  0  0  0  0  0  0  0
  190.5020  175.8830  144.5250 C   0  0  1  0  0  3  0  0  0  0  0  0
  194.4220  174.4570  141.2550 C   0  0  0  0  0  0  0  0  0  0  0  0
  193.3590  175.7180  143.9920 O   0  0  0  0  0  0  0  0  0  0  0  0
  194.8140  174.9850  137.5830 C   0  0  0  0  0  3  0  0  0  0  0  0
  190.2530  173.5520  142.0960 C   0  0  2  0  0  3  0  0  0  0  0  0
  191.4590  174.9400  145.2790 C   0  0  1  0  0  3  0  0  0  0  0  0
  193.5420  174.6000  137.2400 N   0  0  0  0  0  0  0  0  0  0  0  0
  191.2820  173.6180  144.8600 O   0  0  0  0  0  1  0  0  0  0  0  0
  189.7010  174.9860  142.2400 C   0  0  1  0  0  3  0  0  0  0  0  0
  192.6460  174.1750  138.1790 C   0  0  0  0  0  3  0  0  0  0  0  0
  193.0760  174.1140  139.4960 C   0  0  0  0  0  0  0  0  0  0  0  0
  194.7450  175.9450  144.0160 C   0  0  0  0  0  2  0  0  0  0  0  0
  193.1600  174.0270  141.7870 N   0  0  0  0  0  0  0  0  0  0  0  0
  192.3880  173.8370  140.7540 C   0  0  0  0  0  0  0  0  0  0  0  0
  191.0110  173.4670  140.8550 N   0  0  0  0  0  2  0  0  0  0  0  0
  193.6750  174.2230  145.7250 F   0  0  0  0  0  0  0  0  0  0  0  0
  194.3430  174.4930  139.8120 C   0  0  0  0  0  0  0  0  0  0  0  0
  190.4990  177.2700  145.1120 C   0  0  0  0  0  0  0  0  0  0  0  0
  189.8760  177.5100  146.4410 C   0  0  0  0  0  1  0  0  0  0  0  0
  191.0210  178.2050  144.5230 O   0  0  0  0  0  0  0  0  0  0  0  0
  189.1820  172.4660  142.1000 C   0  0  0  0  0  2  0  0  0  0  0  0
  189.6960  171.2910  142.6500 O   0  0  0  0  0  1  0  0  0  0  0  0
  187.5830  176.2480  142.4610 C   0  0  0  0  0  3  0  0  0  0  0  0
  188.2790  175.1420  142.7240 C   0  0  0  0  0  3  0  0  0  0  0  0
  186.1800  176.3940  142.9440 C   0  0  0  0  0  2  0  0  0  0  0  0
  186.1930  176.9010  144.3720 C   0  0  0  0  0  1  0  0  0  0  0  0
  197.7700  175.1890  142.9710 F   0  0  0  0  0  0  0  0  0  0  0  0
  196.9130  174.6730  143.9300 C   0  0  2  0  0  3  0  0  0  0  0  0
  197.2760  173.2830  144.1790 N   0  0  0  0  0  2  0  0  0  0  0  0
  197.1030  172.6490  145.4500 C   0  0  0  0  0  0  0  0  0  0  0  0
  196.8910  173.3440  146.4810 O   0  0  0  0  0  0  0  0  0  0  0  0
  197.9060  170.4390  144.6240 C   0  0  0  0  0  3  0  0  0  0  0  0
  196.4340  170.5040  146.5450 C   0  0  0  0  0  3  0  0  0  0  0  0
  197.2190  168.3790  145.6900 C   0  0  0  0  0  3  0  0  0  0  0  0
  197.9410  169.0440  144.6960 C   0  0  0  0  0  3  0  0  0  0  0  0
  196.4640  169.1070  146.6140 C   0  0  0  0  0  3  0  0  0  0  0  0
  197.1580  171.1800  145.5490 C   0  0  0  0  0  0  0  0  0  0  0  0
  2 22  1  0  0  0  0
  2  1  1  0  0  0  0
  3  7  1  0  0  0  0
  4 23  1  0  0  0  0
  5 34  1  1  0  0  0
  5 18  1  0  0  0  0
  6  5  1  0  0  0  0
  7 24  1  1  0  0  0
  7 12  1  0  0  0  0
  8 19  1  0  0  0  0
  8  6  2  0  0  0  0
  9 18  1  0  0  0  0
  9  2  1  0  0  0  0
 10  4  2  0  0  0  0
 11 27  1  6  0  0  0
 11 15  1  0  0  0  0
 12 14  1  6  0  0  0
 12  2  1  0  0  0  0
 13 10  1  0  0  0  0
 13 16  2  0  0  0  0
 15 30  1  1  0  0  0
 15  3  1  0  0  0  0
 16 17  1  0  0  0  0
 17 23  2  0  0  0  0
 17 20  1  0  0  0  0
 20 21  1  0  0  0  0
 20 19  2  0  0  0  0
 21 11  1  0  0  0  0
 23  8  1  0  0  0  0
 24 25  1  0  0  0  0
 26 24  2  0  0  0  0
 27 28  1  0  0  0  0
 29 30  2  0  0  0  0
 29 31  1  0  0  0  0
 31 32  1  0  0  0  0
 34 33  1  6  0  0  0
 34 35  1  0  0  0  0
 35 36  1  0  0  0  0
 36 43  1  0  0  0  0
 36 37  2  0  0  0  0
 38 41  2  0  0  0  0
 38 43  1  0  0  0  0
 39 42  1  0  0  0  0
 40 42  2  0  0  0  0
 41 40  1  0  0  0  0
 43 39  2  0  0  0  0
M  END
>  <MODEL>
5

>  <REMARK>
 VINA RESULT:      -7.5      3.368      7.916
  Name = 
  7 active torsions:
  status: ('A' for Active; 'I' for Inactive)
    1  A    between atoms: C_5  and  CA_17
    2  A    between atoms: C_6  and  C_37
    3  A    between atoms: C_8  and  C_13
    4  A    between atoms: C_10  and  C_30
    5  A    between atoms: N_16  and  C_37
    6  A    between atoms: C_21  and  C_25
    7  A    between atoms: C_34  and  C_42
                            x       y       z     vdW  Elec       q    Type
                         _______ _______ _______ _____ _____    ______ ____

>  <TORSDO>
F 7

$$$$
=
 OpenBabel11042419183D

 43 46  0  0  1  0  0  0  0  0999 V2000
  187.9130  175.7370  143.3990 F   0  0  0  0  0  0  0  0  0  0  0  0
  189.2870  175.5910  143.3110 C   0  0  0  0  0  0  0  0  0  0  0  0
  190.8360  175.3270  146.1880 C   0  0  0  0  0  2  0  0  0  0  0  0
  192.8710  169.8670  144.0970 N   0  0  0  0  0  0  0  0  0  0  0  0
  190.2120  172.8560  141.9430 C   0  0  2  0  0  3  0  0  0  0  0  0
  191.0580  171.8580  142.5870 N   0  0  0  0  0  0  0  0  0  0  0  0
  189.9590  176.4910  145.6820 C   0  0  1  0  0  3  0  0  0  0  0  0
  192.0120  172.1630  143.4120 C   0  0  0  0  0  0  0  0  0  0  0  0
  189.6740  174.3120  143.7730 O   0  0  0  0  0  0  0  0  0  0  0  0
  193.7450  169.2320  144.9340 C   0  0  0  0  0  3  0  0  0  0  0  0
  193.2510  175.7620  145.5130 C   0  0  2  0  0  3  0  0  0  0  0  0
  189.9650  176.6870  144.1530 C   0  0  1  0  0  3  0  0  0  0  0  0
  194.5700  169.9560  145.7580 N   0  0  0  0  0  0  0  0  0  0  0  0
  191.2580  176.9490  143.6920 O   0  0  0  0  0  1  0  0  0  0  0  0
  192.2280  175.7520  146.6690 C   0  0  1  0  0  3  0  0  0  0  0  0
  194.5490  171.3220  145.7670 C   0  0  0  0  0  3  0  0  0  0  0  0
  193.6840  171.9580  144.8900 C   0  0  0  0  0  0  0  0  0  0  0  0
  189.1330  173.3460  142.9080 C   0  0  0  0  0  2  0  0  0  0  0  0
  192.3350  173.4920  143.8450 N   0  0  0  0  0  0  0  0  0  0  0  0
  193.3040  173.3560  144.7070 C   0  0  0  0  0  0  0  0  0  0  0  0
  193.8750  174.4470  145.4330 N   0  0  0  0  0  2  0  0  0  0  0  0
  189.6630  175.7740  141.9840 F   0  0  0  0  0  0  0  0  0  0  0  0
  192.8810  171.2200  144.0770 C   0  0  0  0  0  0  0  0  0  0  0  0
  188.5610  176.4390  146.2380 C   0  0  0  0  0  0  0  0  0  0  0  0
  187.6270  177.5730  146.0020 C   0  0  0  0  0  1  0  0  0  0  0  0
  188.1690  175.4680  146.8680 O   0  0  0  0  0  0  0  0  0  0  0  0
  194.3400  176.8210  145.6520 C   0  0  0  0  0  2  0  0  0  0  0  0
  195.3680  176.5700  144.7410 O   0  0  0  0  0  1  0  0  0  0  0  0
  191.3190  177.0280  148.5840 C   0  0  0  0  0  3  0  0  0  0  0  0
  192.1830  176.9620  147.5710 C   0  0  0  0  0  3  0  0  0  0  0  0
  191.2790  178.2270  149.4700 C   0  0  0  0  0  2  0  0  0  0  0  0
  191.7120  177.8310  150.8680 C   0  0  0  0  0  1  0  0  0  0  0  0
  190.4220  171.3220  140.1340 F   0  0  0  0  0  0  0  0  0  0  0  0
  189.5840  172.2840  140.6740 C   0  0  2  0  0  3  0  0  0  0  0  0
  189.4070  173.3500  139.6940 N   0  0  0  0  0  2  0  0  0  0  0  0
  189.1430  173.0990  138.3100 C   0  0  0  0  0  0  0  0  0  0  0  0
  189.3310  171.9480  137.8280 O   0  0  0  0  0  0  0  0  0  0  0  0
  187.5290  174.9440  137.8580 C   0  0  0  0  0  3  0  0  0  0  0  0
  189.2300  174.4470  136.2080 C   0  0  0  0  0  3  0  0  0  0  0  0
  187.6240  176.2130  135.8010 C   0  0  0  0  0  3  0  0  0  0  0  0
  187.0270  175.9570  137.0380 C   0  0  0  0  0  3  0  0  0  0  0  0
  188.7230  175.4580  135.3840 C   0  0  0  0  0  3  0  0  0  0  0  0
  188.6360  174.1840  137.4530 C   0  0  0  0  0  0  0  0  0  0  0  0
  2  1  1  0  0  0  0
  2  9  1  0  0  0  0
  2 12  1  0  0  0  0
  3 15  1  0  0  0  0
  4 10  1  0  0  0  0
  5 34  1  6  0  0  0
  5  6  1  0  0  0  0
  5 18  1  0  0  0  0
  6  8  2  0  0  0  0
  7  3  1  0  0  0  0
  7 24  1  6  0  0  0
  8 19  1  0  0  0  0
  8 23  1  0  0  0  0
 10 13  2  0  0  0  0
 11 27  1  1  0  0  0
 11 15  1  0  0  0  0
 12 14  1  6  0  0  0
 12  7  1  0  0  0  0
 13 16  1  0  0  0  0
 15 30  1  6  0  0  0
 17 16  2  0  0  0  0
 18  9  1  0  0  0  0
 19 20  2  0  0  0  0
 20 17  1  0  0  0  0
 20 21  1  0  0  0  0
 21 11  1  0  0  0  0
 22  2  1  0  0  0  0
 23  4  2  0  0  0  0
 23 17  1  0  0  0  0
 24 26  2  0  0  0  0
 25 24  1  0  0  0  0
 28 27  1  0  0  0  0
 29 31  1  0  0  0  0
 30 29  2  0  0  0  0
 31 32  1  0  0  0  0
 34 33  1  6  0  0  0
 35 34  1  0  0  0  0
 36 35  1  0  0  0  0
 37 36  2  0  0  0  0
 39 43  2  0  0  0  0
 40 41  1  0  0  0  0
 41 38  2  0  0  0  0
 42 40  2  0  0  0  0
 42 39  1  0  0  0  0
 43 38  1  0  0  0  0
 43 36  1  0  0  0  0
M  END
>  <MODEL>
6

>  <REMARK>
 VINA RESULT:      -7.2      2.804      7.466
  Name = 
  7 active torsions:
  status: ('A' for Active; 'I' for Inactive)
    1  A    between atoms: C_5  and  CA_17
    2  A    between atoms: C_6  and  C_37
    3  A    between atoms: C_8  and  C_13
    4  A    between atoms: C_10  and  C_30
    5  A    between atoms: N_16  and  C_37
    6  A    between atoms: C_21  and  C_25
    7  A    between atoms: C_34  and  C_42
                            x       y       z     vdW  Elec       q    Type
                         _______ _______ _______ _____ _____    ______ ____

>  <TORSDO>
F 7

$$$$
=
 OpenBabel11042419183D

 43 46  0  0  1  0  0  0  0  0999 V2000
  192.9260  173.6150  143.2910 F   0  0  0  0  0  0  0  0  0  0  0  0
  191.5890  173.7330  143.6320 C   0  0  0  0  0  0  0  0  0  0  0  0
  190.7220  176.6540  144.8400 C   0  0  0  0  0  2  0  0  0  0  0  0
  186.7170  176.9290  140.1270 N   0  0  0  0  0  0  0  0  0  0  0  0
  189.5990  173.5640  141.1390 C   0  0  2  0  0  3  0  0  0  0  0  0
  188.6580  174.6130  140.7630 N   0  0  0  0  0  0  0  0  0  0  0  0
  191.7710  175.6680  145.3930 C   0  0  1  0  0  3  0  0  0  0  0  0
  188.0520  175.3650  141.6280 C   0  0  0  0  0  0  0  0  0  0  0  0
  190.9480  174.6680  142.7860 O   0  0  0  0  0  0  0  0  0  0  0  0
  185.9050  178.0270  140.1390 C   0  0  0  0  0  3  0  0  0  0  0  0
  188.4640  176.1270  145.8890 C   0  0  2  0  0  3  0  0  0  0  0  0
  191.4810  174.1830  145.1000 C   0  0  1  0  0  3  0  0  0  0  0  0
  185.5440  178.6120  141.3280 N   0  0  0  0  0  0  0  0  0  0  0  0
  190.2590  173.7990  145.6570 O   0  0  0  0  0  1  0  0  0  0  0  0
  189.6690  177.0920  145.8650 C   0  0  1  0  0  3  0  0  0  0  0  0
  185.9780  178.1200  142.5260 C   0  0  0  0  0  3  0  0  0  0  0  0
  186.7740  176.9850  142.5040 C   0  0  0  0  0  0  0  0  0  0  0  0
  190.9630  174.1640  141.4760 C   0  0  0  0  0  2  0  0  0  0  0  0
  188.2520  175.3160  143.0490 N   0  0  0  0  0  0  0  0  0  0  0  0
  187.5070  176.2650  143.5430 C   0  0  0  0  0  0  0  0  0  0  0  0
  187.4710  176.5990  144.9330 N   0  0  0  0  0  2  0  0  0  0  0  0
  190.9970  172.4790  143.5230 F   0  0  0  0  0  0  0  0  0  0  0  0
  187.1120  176.4180  141.3160 C   0  0  0  0  0  0  0  0  0  0  0  0
  193.1760  176.0540  145.0120 C   0  0  0  0  0  0  0  0  0  0  0  0
  194.3200  175.6110  145.8550 C   0  0  0  0  0  1  0  0  0  0  0  0
  193.3980  176.7120  144.0070 O   0  0  0  0  0  0  0  0  0  0  0  0
  187.8050  175.9840  147.2580 C   0  0  0  0  0  2  0  0  0  0  0  0
  186.6200  176.7200  147.2960 O   0  0  0  0  0  1  0  0  0  0  0  0
  191.0670  176.6350  147.8550 C   0  0  0  0  0  3  0  0  0  0  0  0
  190.2790  177.4800  147.1900 C   0  0  0  0  0  3  0  0  0  0  0  0
  191.6650  177.0260  149.1640 C   0  0  0  0  0  2  0  0  0  0  0  0
  191.1880  178.4150  149.5360 C   0  0  0  0  0  1  0  0  0  0  0  0
  190.4380  171.4360  140.4730 F   0  0  0  0  0  0  0  0  0  0  0  0
  189.7220  172.5320  140.0190 C   0  0  2  0  0  3  0  0  0  0  0  0
  190.4360  173.1200  138.8910 N   0  0  0  0  0  2  0  0  0  0  0  0
  189.8060  173.4160  137.6400 C   0  0  0  0  0  0  0  0  0  0  0  0
  188.6780  172.9230  137.3670 O   0  0  0  0  0  0  0  0  0  0  0  0
  191.8460  174.5700  136.7930 C   0  0  0  0  0  3  0  0  0  0  0  0
  189.7380  174.9420  135.6620 C   0  0  0  0  0  3  0  0  0  0  0  0
  191.7420  176.0620  134.8910 C   0  0  0  0  0  3  0  0  0  0  0  0
  192.4800  175.4380  135.9000 C   0  0  0  0  0  3  0  0  0  0  0  0
  190.3710  175.8160  134.7730 C   0  0  0  0  0  3  0  0  0  0  0  0
  190.4730  174.3110  136.6790 C   0  0  0  0  0  0  0  0  0  0  0  0
  1  2  1  0  0  0  0
  2 12  1  0  0  0  0
  3  7  1  0  0  0  0
  3 15  1  0  0  0  0
  4 10  2  0  0  0  0
  4 23  1  0  0  0  0
  5 34  1  6  0  0  0
  5 18  1  0  0  0  0
  6  5  1  0  0  0  0
  6  8  2  0  0  0  0
  7 24  1  6  0  0  0
  8 19  1  0  0  0  0
  9  2  1  0  0  0  0
 10 13  1  0  0  0  0
 11 27  1  1  0  0  0
 12  7  1  0  0  0  0
 12 14  1  6  0  0  0
 13 16  2  0  0  0  0
 15 11  1  0  0  0  0
 15 30  1  1  0  0  0
 17 16  1  0  0  0  0
 17 20  1  0  0  0  0
 18  9  1  0  0  0  0
 19 20  2  0  0  0  0
 20 21  1  0  0  0  0
 21 11  1  0  0  0  0
 22  2  1  0  0  0  0
 23  8  1  0  0  0  0
 23 17  2  0  0  0  0
 24 25  1  0  0  0  0
 26 24  2  0  0  0  0
 27 28  1  0  0  0  0
 29 31  1  0  0  0  0
 30 29  2  0  0  0  0
 31 32  1  0  0  0  0
 34 33  1  1  0  0  0
 35 34  1  0  0  0  0
 36 35  1  0  0  0  0
 37 36  2  0  0  0  0
 39 43  2  0  0  0  0
 40 41  1  0  0  0  0
 41 38  2  0  0  0  0
 42 40  2  0  0  0  0
 42 39  1  0  0  0  0
 43 38  1  0  0  0  0
 43 36  1  0  0  0  0
M  END
>  <MODEL>
7

>  <REMARK>
 VINA RESULT:      -7.2      3.422      8.760
  Name = 
  7 active torsions:
  status: ('A' for Active; 'I' for Inactive)
    1  A    between atoms: C_5  and  CA_17
    2  A    between atoms: C_6  and  C_37
    3  A    between atoms: C_8  and  C_13
    4  A    between atoms: C_10  and  C_30
    5  A    between atoms: N_16  and  C_37
    6  A    between atoms: C_21  and  C_25
    7  A    between atoms: C_34  and  C_42
                            x       y       z     vdW  Elec       q    Type
                         _______ _______ _______ _____ _____    ______ ____

>  <TORSDO>
F 7

$$$$
=
 OpenBabel11042419183D

 43 46  0  0  1  0  0  0  0  0999 V2000
  189.8020  172.3750  139.1320 F   0  0  0  0  0  0  0  0  0  0  0  0
  189.9980  172.1060  140.4760 C   0  0  0  0  0  0  0  0  0  0  0  0
  193.1300  171.7640  141.3770 C   0  0  0  0  0  2  0  0  0  0  0  0
  192.0650  176.4510  145.2800 N   0  0  0  0  0  0  0  0  0  0  0  0
  189.1330  174.4960  142.4110 C   0  0  2  0  0  3  0  0  0  0  0  0
  190.0310  175.1650  143.3470 N   0  0  0  0  0  0  0  0  0  0  0  0
  192.3440  170.9410  140.3370 C   0  0  1  0  0  3  0  0  0  0  0  0
  190.9860  174.5510  143.9730 C   0  0  0  0  0  0  0  0  0  0  0  0
  190.6590  173.1890  141.1010 O   0  0  0  0  0  0  0  0  0  0  0  0
  193.1180  176.7570  146.0960 C   0  0  0  0  0  3  0  0  0  0  0  0
  192.8930  170.6560  143.6560 C   0  0  2  0  0  3  0  0  0  0  0  0
  190.8330  170.8210  140.6170 C   0  0  1  0  0  3  0  0  0  0  0  0
  194.0030  175.7820  146.4830 N   0  0  0  0  0  0  0  0  0  0  0  0
  190.6050  170.2040  141.8500 O   0  0  0  0  0  1  0  0  0  0  0  0
  193.8240  170.9210  142.4540 C   0  0  1  0  0  3  0  0  0  0  0  0
  193.8630  174.4870  146.0740 C   0  0  0  0  0  3  0  0  0  0  0  0
  192.7730  174.1800  145.2740 C   0  0  0  0  0  0  0  0  0  0  0  0
  189.8140  174.3090  141.0560 C   0  0  0  0  0  2  0  0  0  0  0  0
  191.3310  173.1680  143.8040 N   0  0  0  0  0  0  0  0  0  0  0  0
  192.3720  172.9690  144.5620 C   0  0  0  0  0  0  0  0  0  0  0  0
  193.0750  171.7250  144.6300 N   0  0  0  0  0  2  0  0  0  0  0  0
  188.7570  171.8780  141.0620 F   0  0  0  0  0  0  0  0  0  0  0  0
  191.9040  175.1590  144.9100 C   0  0  0  0  0  0  0  0  0  0  0  0
  192.6230  171.3850  138.9260 C   0  0  0  0  0  0  0  0  0  0  0  0
  193.4270  172.6130  138.6810 C   0  0  0  0  0  1  0  0  0  0  0  0
  192.2160  170.7410  137.9710 O   0  0  0  0  0  0  0  0  0  0  0  0
  193.1250  169.3140  144.3430 C   0  0  0  0  0  2  0  0  0  0  0  0
  194.0240  169.4700  145.4000 O   0  0  0  0  0  1  0  0  0  0  0  0
  195.7480  169.9020  141.2780 C   0  0  0  0  0  3  0  0  0  0  0  0
  194.5660  169.7410  141.8730 C   0  0  0  0  0  3  0  0  0  0  0  0
  196.4750  168.7320  140.7060 C   0  0  0  0  0  2  0  0  0  0  0  0
  195.6780  168.1660  139.5470 C   0  0  0  0  0  1  0  0  0  0  0  0
  187.8940  176.0650  141.1170 F   0  0  0  0  0  0  0  0  0  0  0  0
  187.8350  175.2860  142.2610 C   0  0  2  0  0  3  0  0  0  0  0  0
  187.6630  176.1640  143.4130 N   0  0  0  0  0  2  0  0  0  0  0  0
  186.4250  176.8160  143.7180 C   0  0  0  0  0  0  0  0  0  0  0  0
  185.5130  176.8810  142.8490 O   0  0  0  0  0  0  0  0  0  0  0  0
  186.4880  176.6410  146.2030 C   0  0  0  0  0  3  0  0  0  0  0  0
  185.7010  178.6970  145.1950 C   0  0  0  0  0  3  0  0  0  0  0  0
  185.7550  178.4710  147.6060 C   0  0  0  0  0  3  0  0  0  0  0  0
  186.2640  177.1760  147.4740 C   0  0  0  0  0  3  0  0  0  0  0  0
  185.4710  179.2310  146.4670 C   0  0  0  0  0  3  0  0  0  0  0  0
  186.2130  177.3970  145.0540 C   0  0  0  0  0  0  0  0  0  0  0  0
  1  2  1  0  0  0  0
  2 12  1  0  0  0  0
  2 22  1  0  0  0  0
  2  9  1  0  0  0  0
  3 15  1  0  0  0  0
  4 10  1  0  0  0  0
  5 34  1  6  0  0  0
  5  6  1  0  0  0  0
  6  8  2  0  0  0  0
  7 24  1  6  0  0  0
  7 12  1  0  0  0  0
  7  3  1  0  0  0  0
  8 23  1  0  0  0  0
 10 13  2  0  0  0  0
 11 27  1  1  0  0  0
 11 21  1  0  0  0  0
 12 14  1  1  0  0  0
 15 30  1  6  0  0  0
 15 11  1  0  0  0  0
 16 13  1  0  0  0  0
 17 16  2  0  0  0  0
 18  9  1  0  0  0  0
 18  5  1  0  0  0  0
 19  8  1  0  0  0  0
 19 20  2  0  0  0  0
 20 21  1  0  0  0  0
 20 17  1  0  0  0  0
 23 17  1  0  0  0  0
 23  4  2  0  0  0  0
 25 24  1  0  0  0  0
 26 24  2  0  0  0  0
 27 28  1  0  0  0  0
 29 30  2  0  0  0  0
 31 29  1  0  0  0  0
 32 31  1  0  0  0  0
 34 33  1  6  0  0  0
 34 35  1  0  0  0  0
 35 36  1  0  0  0  0
 36 43  1  0  0  0  0
 37 36  2  0  0  0  0
 38 41  1  0  0  0  0
 39 42  2  0  0  0  0
 41 40  2  0  0  0  0
 42 40  1  0  0  0  0
 43 39  1  0  0  0  0
 43 38  2  0  0  0  0
M  END
>  <MODEL>
8

>  <REMARK>
 VINA RESULT:      -7.2      2.485      3.412
  Name = 
  7 active torsions:
  status: ('A' for Active; 'I' for Inactive)
    1  A    between atoms: C_5  and  CA_17
    2  A    between atoms: C_6  and  C_37
    3  A    between atoms: C_8  and  C_13
    4  A    between atoms: C_10  and  C_30
    5  A    between atoms: N_16  and  C_37
    6  A    between atoms: C_21  and  C_25
    7  A    between atoms: C_34  and  C_42
                            x       y       z     vdW  Elec       q    Type
                         _______ _______ _______ _____ _____    ______ ____

>  <TORSDO>
F 7

$$$$
=
 OpenBabel11042419183D

 43 46  0  0  1  0  0  0  0  0999 V2000
  188.2300  175.7560  143.3060 F   0  0  0  0  0  0  0  0  0  0  0  0
  189.6030  175.5780  143.2790 C   0  0  0  0  0  0  0  0  0  0  0  0
  191.0300  175.3590  146.2210 C   0  0  0  0  0  2  0  0  0  0  0  0
  193.0200  169.8000  144.3600 N   0  0  0  0  0  0  0  0  0  0  0  0
  190.5180  172.7870  142.0220 C   0  0  2  0  0  3  0  0  0  0  0  0
  191.3150  171.7880  142.7260 N   0  0  0  0  0  0  0  0  0  0  0  0
  190.2010  176.5270  145.6490 C   0  0  1  0  0  3  0  0  0  0  0  0
  192.2420  172.0950  143.5800 C   0  0  0  0  0  0  0  0  0  0  0  0
  189.9420  174.3030  143.7890 O   0  0  0  0  0  0  0  0  0  0  0  0
  193.8450  169.1690  145.2480 C   0  0  0  0  0  3  0  0  0  0  0  0
  193.4800  175.7210  145.6340 C   0  0  2  0  0  3  0  0  0  0  0  0
  190.2720  176.6810  144.1170 C   0  0  1  0  0  3  0  0  0  0  0  0
  194.6530  169.8970  146.0850 N   0  0  0  0  0  0  0  0  0  0  0  0
  191.5880  176.9020  143.7030 O   0  0  0  0  0  1  0  0  0  0  0  0
  192.4110  175.7660  146.7470 C   0  0  1  0  0  3  0  0  0  0  0  0
  194.6630  171.2630  146.0570 C   0  0  0  0  0  3  0  0  0  0  0  0
  193.8490  171.8930  145.1290 C   0  0  0  0  0  0  0  0  0  0  0  0
  189.4130  173.3260  142.9290 C   0  0  0  0  0  2  0  0  0  0  0  0
  192.5780  173.4280  143.9910 N   0  0  0  0  0  0  0  0  0  0  0  0
  193.5090  173.2940  144.8940 C   0  0  0  0  0  0  0  0  0  0  0  0
  194.0760  174.3920  145.6130 N   0  0  0  0  0  2  0  0  0  0  0  0
  190.0360  175.7160  141.9630 F   0  0  0  0  0  0  0  0  0  0  0  0
  193.0630  171.1510  144.3050 C   0  0  0  0  0  0  0  0  0  0  0  0
  188.7810  176.5210  146.1500 C   0  0  0  0  0  0  0  0  0  0  0  0
  188.3310  175.4550  147.0860 C   0  0  0  0  0  1  0  0  0  0  0  0
  187.9920  177.3920  145.8170 O   0  0  0  0  0  0  0  0  0  0  0  0
  194.5860  176.7600  145.7880 C   0  0  0  0  0  2  0  0  0  0  0  0
  195.3150  176.8590  144.6010 O   0  0  0  0  0  1  0  0  0  0  0  0
  191.5530  177.0580  148.6760 C   0  0  0  0  0  3  0  0  0  0  0  0
  192.3580  177.0000  147.6140 C   0  0  0  0  0  3  0  0  0  0  0  0
  191.5050  178.2810  149.5270 C   0  0  0  0  0  2  0  0  0  0  0  0
  191.5850  177.8790  150.9860 C   0  0  0  0  0  1  0  0  0  0  0  0
  190.0750  170.8160  140.7600 F   0  0  0  0  0  0  0  0  0  0  0  0
  189.9280  172.1930  140.7440 C   0  0  2  0  0  3  0  0  0  0  0  0
  190.6400  172.7230  139.5870 N   0  0  0  0  0  2  0  0  0  0  0  0
  190.0050  172.9720  138.3280 C   0  0  0  0  0  0  0  0  0  0  0  0
  188.8690  172.4800  138.0850 O   0  0  0  0  0  0  0  0  0  0  0  0
  192.0340  174.1310  137.4610 C   0  0  0  0  0  3  0  0  0  0  0  0
  189.9540  174.3450  136.2410 C   0  0  0  0  0  3  0  0  0  0  0  0
  191.9460  175.4740  135.4520 C   0  0  0  0  0  3  0  0  0  0  0  0
  192.6690  174.9530  136.5270 C   0  0  0  0  0  3  0  0  0  0  0  0
  190.5890  175.1730  135.3090 C   0  0  0  0  0  3  0  0  0  0  0  0
  190.6750  173.8160  137.3250 C   0  0  0  0  0  0  0  0  0  0  0  0
  2  1  1  0  0  0  0
  2  9  1  0  0  0  0
  2 12  1  0  0  0  0
  3 15  1  0  0  0  0
  4 10  1  0  0  0  0
  5 34  1  6  0  0  0
  5  6  1  0  0  0  0
  5 18  1  0  0  0  0
  6  8  2  0  0  0  0
  7 24  1  6  0  0  0
  7  3  1  0  0  0  0
  8 19  1  0  0  0  0
  8 23  1  0  0  0  0
 10 13  2  0  0  0  0
 11 27  1  1  0  0  0
 11 15  1  0  0  0  0
 12 14  1  6  0  0  0
 12  7  1  0  0  0  0
 15 30  1  6  0  0  0
 16 13  1  0  0  0  0
 17 16  2  0  0  0  0
 18  9  1  0  0  0  0
 19 20  2  0  0  0  0
 20 17  1  0  0  0  0
 20 21  1  0  0  0  0
 21 11  1  0  0  0  0
 22  2  1  0  0  0  0
 23  4  2  0  0  0  0
 23 17  1  0  0  0  0
 24 25  1  0  0  0  0
 26 24  2  0  0  0  0
 28 27  1  0  0  0  0
 29 31  1  0  0  0  0
 30 29  2  0  0  0  0
 31 32  1  0  0  0  0
 34 33  1  1  0  0  0
 35 34  1  0  0  0  0
 36 35  1  0  0  0  0
 37 36  2  0  0  0  0
 39 43  2  0  0  0  0
 40 41  1  0  0  0  0
 41 38  2  0  0  0  0
 42 40  2  0  0  0  0
 42 39  1  0  0  0  0
 43 38  1  0  0  0  0
 43 36  1  0  0  0  0
M  END
>  <MODEL>
9

>  <REMARK>
 VINA RESULT:      -7.0      2.863      7.838
  Name = 
  7 active torsions:
  status: ('A' for Active; 'I' for Inactive)
    1  A    between atoms: C_5  and  CA_17
    2  A    between atoms: C_6  and  C_37
    3  A    between atoms: C_8  and  C_13
    4  A    between atoms: C_10  and  C_30
    5  A    between atoms: N_16  and  C_37
    6  A    between atoms: C_21  and  C_25
    7  A    between atoms: C_34  and  C_42
                            x       y       z     vdW  Elec       q    Type
                         _______ _______ _______ _____ _____    ______ ____

>  <TORSDO>
F 7

$$$$
