=
 OpenBabel11042418523D

 26 29  0  0  0  0  0  0  0  0999 V2000
  184.0930  178.6020  145.9240 C   0  0  0  0  0  3  0  0  0  0  0  0
  182.9920  178.4570  143.1720 O   0  0  0  0  0  0  0  0  0  0  0  0
  182.9200  178.3510  141.8590 C   0  0  0  0  0  0  0  0  0  0  0  0
  184.2580  178.3820  143.4910 C   0  0  0  0  0  0  0  0  0  0  0  0
  185.0180  178.2260  142.3670 C   0  0  0  0  0  0  0  0  0  0  0  0
  186.4070  178.1210  142.4500 C   0  0  0  0  0  0  0  0  0  0  0  0
  186.8700  178.3920  146.0760 C   0  0  0  0  0  3  0  0  0  0  0  0
  186.0860  178.5520  147.2240 C   0  0  0  0  0  0  0  0  0  0  0  0
  184.7320  178.6530  147.1250 N   0  0  0  0  0  0  0  0  0  0  0  0
  184.8370  178.4430  144.7540 C   0  0  0  0  0  0  0  0  0  0  0  0
  186.2460  178.3370  144.8300 C   0  0  0  0  0  0  0  0  0  0  0  0
  186.6800  178.6080  148.4410 F   0  0  0  0  0  0  0  0  0  0  0  0
  186.9880  178.1800  143.6880 N   0  0  0  0  0  0  0  0  0  0  0  0
  184.1770  178.2000  141.2730 C   0  0  0  0  0  3  0  0  0  0  0  0
  181.6830  178.3870  141.1310 C   0  0  0  0  0  0  0  0  0  0  0  0
  179.3840  178.4570  139.7780 C   0  0  0  0  0  1  0  0  0  0  0  0
  180.6450  178.4190  140.5190 C   0  0  0  0  0  0  0  0  0  0  0  0
  187.1750  177.9600  141.2940 O   0  0  0  0  0  0  0  0  0  0  0  0
  187.3640  176.6940  140.6750 C   0  0  0  0  0  2  0  0  0  0  0  0
  187.7120  175.6470  141.7200 C   0  0  0  0  0  2  0  0  0  0  0  0
  189.4270  173.9900  141.5490 C   0  0  0  0  0  2  0  0  0  0  0  0
  189.8700  173.6800  143.8910 O   0  0  0  0  0  0  0  0  0  0  0  0
  189.3650  174.9600  144.1700 C   0  0  0  0  0  2  0  0  0  0  0  0
  189.1530  175.4230  141.7360 N   0  0  0  0  0  0  0  0  0  0  0  0
  189.1140  173.1840  142.8180 C   0  0  0  0  0  2  0  0  0  0  0  0
  189.6970  175.9110  143.0120 C   0  0  0  0  0  2  0  0  0  0  0  0
  1  9  1  0  0  0  0
  2  4  1  0  0  0  0
  3  2  1  0  0  0  0
  4 10  1  0  0  0  0
  5  6  1  0  0  0  0
  5  4  2  0  0  0  0
  6 13  2  0  0  0  0
  7  8  1  0  0  0  0
  8 12  1  0  0  0  0
  9  8  2  0  0  0  0
 10 11  1  0  0  0  0
 10  1  2  0  0  0  0
 11  7  2  0  0  0  0
 13 11  1  0  0  0  0
 14  3  2  0  0  0  0
 14  5  1  0  0  0  0
 15  3  1  0  0  0  0
 16 17  1  0  0  0  0
 17 15  3  0  0  0  0
 18  6  1  0  0  0  0
 19 18  1  0  0  0  0
 19 20  1  0  0  0  0
 20 24  1  0  0  0  0
 21 24  1  0  0  0  0
 21 25  1  0  0  0  0
 22 23  1  0  0  0  0
 24 26  1  0  0  0  0
 25 22  1  0  0  0  0
 26 23  1  0  0  0  0
M  END
>  <MODEL>
1

>  <REMARK>
 VINA RESULT:      -6.9      0.000      0.000
  Name = 
  5 active torsions:
  status: ('A' for Active; 'I' for Inactive)
    1  A    between atoms: C_2  and  C_6
    2  A    between atoms: C_2  and  N_8
    3  A    between atoms: C_6  and  O_17
    4  A    between atoms: C_9  and  C_13
    5  A    between atoms: C_14  and  O_17
                            x       y       z     vdW  Elec       q    Type
                         _______ _______ _______ _____ _____    ______ ____

>  <TORSDO>
F 5

$$$$
=
 OpenBabel11042418523D

 26 29  0  0  0  0  0  0  0  0999 V2000
  185.8420  177.2010  143.8090 C   0  0  0  0  0  3  0  0  0  0  0  0
  188.1340  175.5680  142.8690 O   0  0  0  0  0  0  0  0  0  0  0  0
  189.2340  174.8400  142.8720 C   0  0  0  0  0  0  0  0  0  0  0  0
  187.8860  175.8880  144.1110 C   0  0  0  0  0  0  0  0  0  0  0  0
  188.8410  175.3610  144.9330 C   0  0  0  0  0  0  0  0  0  0  0  0
  188.7940  175.5660  146.3120 C   0  0  0  0  0  0  0  0  0  0  0  0
  185.7590  177.6050  146.5670 C   0  0  0  0  0  3  0  0  0  0  0  0
  184.7820  178.1430  145.7200 C   0  0  0  0  0  0  0  0  0  0  0  0
  184.8440  177.9330  144.3760 N   0  0  0  0  0  0  0  0  0  0  0  0
  186.8360  176.6470  144.6160 C   0  0  0  0  0  0  0  0  0  0  0  0
  186.7940  176.8510  146.0160 C   0  0  0  0  0  0  0  0  0  0  0  0
  183.7710  178.8780  146.2420 F   0  0  0  0  0  0  0  0  0  0  0  0
  187.7640  176.3120  146.8200 N   0  0  0  0  0  0  0  0  0  0  0  0
  189.7460  174.6640  144.1580 C   0  0  0  0  0  3  0  0  0  0  0  0
  189.8250  174.2970  141.6810 C   0  0  0  0  0  0  0  0  0  0  0  0
  190.9220  173.2890  139.4670 C   0  0  0  0  0  1  0  0  0  0  0  0
  190.3200  173.8420  140.6810 C   0  0  0  0  0  0  0  0  0  0  0  0
  189.7750  175.0210  147.1440 O   0  0  0  0  0  0  0  0  0  0  0  0
  190.8710  175.7850  147.6330 C   0  0  0  0  0  2  0  0  0  0  0  0
  192.1380  175.4270  146.8730 C   0  0  0  0  0  2  0  0  0  0  0  0
  192.5160  176.7570  144.9240 C   0  0  0  0  0  2  0  0  0  0  0  0
  194.7290  175.9920  144.3820 O   0  0  0  0  0  0  0  0  0  0  0  0
  194.9370  175.6060  145.7160 C   0  0  0  0  0  2  0  0  0  0  0  0
  192.7710  176.6390  146.3680 N   0  0  0  0  0  0  0  0  0  0  0  0
  193.3690  175.7690  144.1160 C   0  0  0  0  0  2  0  0  0  0  0  0
  194.2110  176.5810  146.6550 C   0  0  0  0  0  2  0  0  0  0  0  0
  1  9  2  0  0  0  0
  1 10  1  0  0  0  0
  2  3  1  0  0  0  0
  2  4  1  0  0  0  0
  3 14  2  0  0  0  0
  4 10  1  0  0  0  0
  4  5  2  0  0  0  0
  5  6  1  0  0  0  0
  6 13  2  0  0  0  0
  6 18  1  0  0  0  0
  8 12  1  0  0  0  0
  8  7  2  0  0  0  0
  9  8  1  0  0  0  0
 10 11  2  0  0  0  0
 11  7  1  0  0  0  0
 11 13  1  0  0  0  0
 14  5  1  0  0  0  0
 15  3  1  0  0  0  0
 16 17  1  0  0  0  0
 17 15  3  0  0  0  0
 18 19  1  0  0  0  0
 20 19  1  0  0  0  0
 21 24  1  0  0  0  0
 22 23  1  0  0  0  0
 23 26  1  0  0  0  0
 24 26  1  0  0  0  0
 24 20  1  0  0  0  0
 25 22  1  0  0  0  0
 25 21  1  0  0  0  0
M  END
>  <MODEL>
2

>  <REMARK>
 VINA RESULT:      -6.8      3.366      6.145
  Name = 
  5 active torsions:
  status: ('A' for Active; 'I' for Inactive)
    1  A    between atoms: C_2  and  C_6
    2  A    between atoms: C_2  and  N_8
    3  A    between atoms: C_6  and  O_17
    4  A    between atoms: C_9  and  C_13
    5  A    between atoms: C_14  and  O_17
                            x       y       z     vdW  Elec       q    Type
                         _______ _______ _______ _____ _____    ______ ____

>  <TORSDO>
F 5

$$$$
=
 OpenBabel11042418523D

 26 29  0  0  0  0  0  0  0  0999 V2000
  186.8420  177.9180  146.8270 C   0  0  0  0  0  3  0  0  0  0  0  0
  189.5580  177.1290  145.9300 O   0  0  0  0  0  0  0  0  0  0  0  0
  190.5640  176.7760  145.1520 C   0  0  0  0  0  0  0  0  0  0  0  0
  188.5150  177.2780  145.1570 C   0  0  0  0  0  0  0  0  0  0  0  0
  188.8480  177.0160  143.8590 C   0  0  0  0  0  0  0  0  0  0  0  0
  187.8980  177.1080  142.8420 C   0  0  0  0  0  0  0  0  0  0  0  0
  184.9510  178.0970  144.7850 C   0  0  0  0  0  3  0  0  0  0  0  0
  184.6150  178.3640  146.1170 C   0  0  0  0  0  0  0  0  0  0  0  0
  185.5550  178.2700  147.0970 N   0  0  0  0  0  0  0  0  0  0  0  0
  187.2200  177.6430  145.5120 C   0  0  0  0  0  0  0  0  0  0  0  0
  186.2610  177.7340  144.4750 C   0  0  0  0  0  0  0  0  0  0  0  0
  183.3450  178.7180  146.4320 F   0  0  0  0  0  0  0  0  0  0  0  0
  186.6200  177.4670  143.1800 N   0  0  0  0  0  0  0  0  0  0  0  0
  190.1860  176.6830  143.8120 C   0  0  0  0  0  3  0  0  0  0  0  0
  191.8890  176.5210  145.6420 C   0  0  0  0  0  0  0  0  0  0  0  0
  194.3520  176.0490  146.5550 C   0  0  0  0  0  1  0  0  0  0  0  0
  193.0010  176.3080  146.0550 C   0  0  0  0  0  0  0  0  0  0  0  0
  188.2500  176.8400  141.5160 O   0  0  0  0  0  0  0  0  0  0  0  0
  187.8430  175.6560  140.8440 C   0  0  0  0  0  2  0  0  0  0  0  0
  188.9610  174.6270  140.8720 C   0  0  0  0  0  2  0  0  0  0  0  0
  187.8460  172.7760  141.8950 C   0  0  0  0  0  2  0  0  0  0  0  0
  189.7550  171.3650  142.2770 O   0  0  0  0  0  0  0  0  0  0  0  0
  190.4560  172.0140  141.2490 C   0  0  0  0  0  2  0  0  0  0  0  0
  188.4140  173.2950  140.6410 N   0  0  0  0  0  0  0  0  0  0  0  0
  188.9440  172.3430  142.8760 C   0  0  0  0  0  2  0  0  0  0  0  0
  189.4830  172.4210  140.1350 C   0  0  0  0  0  2  0  0  0  0  0  0
  1  9  1  0  0  0  0
  3 15  1  0  0  0  0
  3  2  1  0  0  0  0
  4 10  1  0  0  0  0
  4  2  1  0  0  0  0
  5  4  2  0  0  0  0
  6 13  2  0  0  0  0
  6  5  1  0  0  0  0
  7  8  1  0  0  0  0
  8 12  1  0  0  0  0
  8  9  2  0  0  0  0
 10  1  2  0  0  0  0
 11  7  2  0  0  0  0
 11 10  1  0  0  0  0
 13 11  1  0  0  0  0
 14  5  1  0  0  0  0
 14  3  2  0  0  0  0
 15 17  3  0  0  0  0
 17 16  1  0  0  0  0
 18  6  1  0  0  0  0
 19 20  1  0  0  0  0
 19 18  1  0  0  0  0
 21 25  1  0  0  0  0
 22 25  1  0  0  0  0
 23 22  1  0  0  0  0
 24 20  1  0  0  0  0
 24 21  1  0  0  0  0
 26 24  1  0  0  0  0
 26 23  1  0  0  0  0
M  END
>  <MODEL>
3

>  <REMARK>
 VINA RESULT:      -6.8      2.994      5.921
  Name = 
  5 active torsions:
  status: ('A' for Active; 'I' for Inactive)
    1  A    between atoms: C_2  and  C_6
    2  A    between atoms: C_2  and  N_8
    3  A    between atoms: C_6  and  O_17
    4  A    between atoms: C_9  and  C_13
    5  A    between atoms: C_14  and  O_17
                            x       y       z     vdW  Elec       q    Type
                         _______ _______ _______ _____ _____    ______ ____

>  <TORSDO>
F 5

$$$$
=
 OpenBabel11042418523D

 26 29  0  0  0  0  0  0  0  0999 V2000
  189.7670  173.3760  142.2730 C   0  0  0  0  0  3  0  0  0  0  0  0
  190.0280  175.4000  144.4270 O   0  0  0  0  0  0  0  0  0  0  0  0
  189.9020  176.5220  145.1100 C   0  0  0  0  0  0  0  0  0  0  0  0
  189.3690  175.5580  143.3100 C   0  0  0  0  0  0  0  0  0  0  0  0
  188.8080  176.8030  143.2660 C   0  0  0  0  0  0  0  0  0  0  0  0
  188.0510  177.2100  142.1680 C   0  0  0  0  0  0  0  0  0  0  0  0
  188.2530  174.2020  140.0820 C   0  0  0  0  0  3  0  0  0  0  0  0
  188.8300  172.9280  140.1310 C   0  0  0  0  0  0  0  0  0  0  0  0
  189.5660  172.5470  141.2120 N   0  0  0  0  0  0  0  0  0  0  0  0
  189.2090  174.6550  142.2640 C   0  0  0  0  0  0  0  0  0  0  0  0
  188.4400  175.0760  141.1530 C   0  0  0  0  0  0  0  0  0  0  0  0
  188.6560  172.0700  139.0970 F   0  0  0  0  0  0  0  0  0  0  0  0
  187.8870  176.3290  141.1320 N   0  0  0  0  0  0  0  0  0  0  0  0
  189.1340  177.4680  144.4310 C   0  0  0  0  0  3  0  0  0  0  0  0
  190.4930  176.7300  146.4020 C   0  0  0  0  0  0  0  0  0  0  0  0
  191.5900  177.1200  148.8030 C   0  0  0  0  0  1  0  0  0  0  0  0
  190.9880  176.9070  147.4870 C   0  0  0  0  0  0  0  0  0  0  0  0
  187.4790  178.4850  142.1340 O   0  0  0  0  0  0  0  0  0  0  0  0
  186.0980  178.7080  142.3870 C   0  0  0  0  0  2  0  0  0  0  0  0
  185.8760  178.9920  143.8640 C   0  0  0  0  0  2  0  0  0  0  0  0
  184.1320  178.8010  145.4880 C   0  0  0  0  0  2  0  0  0  0  0  0
  185.3080  177.5070  147.1370 O   0  0  0  0  0  0  0  0  0  0  0  0
  186.1850  177.0240  146.1530 C   0  0  0  0  0  2  0  0  0  0  0  0
  184.8270  178.1220  144.3820 N   0  0  0  0  0  0  0  0  0  0  0  0
  184.9850  178.8210  146.7640 C   0  0  0  0  0  2  0  0  0  0  0  0
  185.4310  176.8570  144.8260 C   0  0  0  0  0  2  0  0  0  0  0  0
  2  3  1  0  0  0  0
  3 15  1  0  0  0  0
  4  2  1  0  0  0  0
  5  4  2  0  0  0  0
  5 14  1  0  0  0  0
  6  5  1  0  0  0  0
  7  8  2  0  0  0  0
  7 11  1  0  0  0  0
  8  9  1  0  0  0  0
  9  1  2  0  0  0  0
 10  1  1  0  0  0  0
 10  4  1  0  0  0  0
 11 10  2  0  0  0  0
 12  8  1  0  0  0  0
 13 11  1  0  0  0  0
 13  6  2  0  0  0  0
 14  3  2  0  0  0  0
 15 17  3  0  0  0  0
 17 16  1  0  0  0  0
 18  6  1  0  0  0  0
 18 19  1  0  0  0  0
 19 20  1  0  0  0  0
 20 24  1  0  0  0  0
 21 25  1  0  0  0  0
 23 22  1  0  0  0  0
 24 26  1  0  0  0  0
 24 21  1  0  0  0  0
 25 22  1  0  0  0  0
 26 23  1  0  0  0  0
M  END
>  <MODEL>
4

>  <REMARK>
 VINA RESULT:      -6.7      3.489      7.640
  Name = 
  5 active torsions:
  status: ('A' for Active; 'I' for Inactive)
    1  A    between atoms: C_2  and  C_6
    2  A    between atoms: C_2  and  N_8
    3  A    between atoms: C_6  and  O_17
    4  A    between atoms: C_9  and  C_13
    5  A    between atoms: C_14  and  O_17
                            x       y       z     vdW  Elec       q    Type
                         _______ _______ _______ _____ _____    ______ ____

>  <TORSDO>
F 5

$$$$
=
 OpenBabel11042418523D

 26 29  0  0  0  0  0  0  0  0999 V2000
  185.2440  177.3820  143.2070 C   0  0  0  0  0  3  0  0  0  0  0  0
  187.2700  175.7110  141.8250 O   0  0  0  0  0  0  0  0  0  0  0  0
  188.3530  174.9920  141.5990 C   0  0  0  0  0  0  0  0  0  0  0  0
  187.3280  176.1040  143.0710 C   0  0  0  0  0  0  0  0  0  0  0  0
  188.4670  175.6340  143.6600 C   0  0  0  0  0  0  0  0  0  0  0  0
  188.7550  175.9220  144.9950 C   0  0  0  0  0  0  0  0  0  0  0  0
  185.8320  177.9520  145.8720 C   0  0  0  0  0  3  0  0  0  0  0  0
  184.6670  178.4310  145.2640 C   0  0  0  0  0  0  0  0  0  0  0  0
  184.4010  178.1400  143.9600 N   0  0  0  0  0  0  0  0  0  0  0  0
  186.4180  176.8850  143.7750 C   0  0  0  0  0  0  0  0  0  0  0  0
  186.7170  177.1730  145.1280 C   0  0  0  0  0  0  0  0  0  0  0  0
  183.7990  179.1890  145.9760 F   0  0  0  0  0  0  0  0  0  0  0  0
  187.8660  176.6900  145.6970 N   0  0  0  0  0  0  0  0  0  0  0  0
  189.1680  174.8980  142.7270 C   0  0  0  0  0  3  0  0  0  0  0  0
  188.6450  174.3820  140.3320 C   0  0  0  0  0  0  0  0  0  0  0  0
  189.1850  173.2500  137.9770 C   0  0  0  0  0  1  0  0  0  0  0  0
  188.8890  173.8710  139.2680 C   0  0  0  0  0  0  0  0  0  0  0  0
  189.9220  175.4350  145.5890 O   0  0  0  0  0  0  0  0  0  0  0  0
  190.9420  176.2940  146.0820 C   0  0  0  0  0  2  0  0  0  0  0  0
  192.0090  176.5040  145.0200 C   0  0  0  0  0  2  0  0  0  0  0  0
  193.3870  174.7990  145.9730 C   0  0  0  0  0  2  0  0  0  0  0  0
  195.5170  175.5440  145.1450 O   0  0  0  0  0  0  0  0  0  0  0  0
  194.8840  176.2250  144.0920 C   0  0  0  0  0  2  0  0  0  0  0  0
  192.6960  175.2460  144.7540 N   0  0  0  0  0  0  0  0  0  0  0  0
  194.6490  175.6300  146.2450 C   0  0  0  0  0  2  0  0  0  0  0  0
  193.6410  175.4430  143.6450 C   0  0  0  0  0  2  0  0  0  0  0  0
  1 10  2  0  0  0  0
  1  9  1  0  0  0  0
  2  4  1  0  0  0  0
  3  2  1  0  0  0  0
  3 14  2  0  0  0  0
  4  5  2  0  0  0  0
  4 10  1  0  0  0  0
  5  6  1  0  0  0  0
  6 18  1  0  0  0  0
  6 13  2  0  0  0  0
  8  7  1  0  0  0  0
  8 12  1  0  0  0  0
  9  8  2  0  0  0  0
 10 11  1  0  0  0  0
 11 13  1  0  0  0  0
 11  7  2  0  0  0  0
 14  5  1  0  0  0  0
 15  3  1  0  0  0  0
 16 17  1  0  0  0  0
 17 15  3  0  0  0  0
 18 19  1  0  0  0  0
 20 19  1  0  0  0  0
 21 25  1  0  0  0  0
 22 25  1  0  0  0  0
 23 22  1  0  0  0  0
 24 20  1  0  0  0  0
 24 21  1  0  0  0  0
 26 23  1  0  0  0  0
 26 24  1  0  0  0  0
M  END
>  <MODEL>
5

>  <REMARK>
 VINA RESULT:      -6.6      3.098      5.523
  Name = 
  5 active torsions:
  status: ('A' for Active; 'I' for Inactive)
    1  A    between atoms: C_2  and  C_6
    2  A    between atoms: C_2  and  N_8
    3  A    between atoms: C_6  and  O_17
    4  A    between atoms: C_9  and  C_13
    5  A    between atoms: C_14  and  O_17
                            x       y       z     vdW  Elec       q    Type
                         _______ _______ _______ _____ _____    ______ ____

>  <TORSDO>
F 5

$$$$
=
 OpenBabel11042418523D

 26 29  0  0  0  0  0  0  0  0999 V2000
  185.4370  177.0470  144.9450 C   0  0  0  0  0  3  0  0  0  0  0  0
  187.3400  175.8800  142.9910 O   0  0  0  0  0  0  0  0  0  0  0  0
  188.4650  175.4810  142.4270 C   0  0  0  0  0  0  0  0  0  0  0  0
  187.6610  176.4140  144.1400 C   0  0  0  0  0  0  0  0  0  0  0  0
  189.0130  176.3630  144.3230 C   0  0  0  0  0  0  0  0  0  0  0  0
  189.6000  176.8740  145.4810 C   0  0  0  0  0  0  0  0  0  0  0  0
  186.6220  178.0660  147.2540 C   0  0  0  0  0  3  0  0  0  0  0  0
  185.2370  178.1160  147.0620 C   0  0  0  0  0  0  0  0  0  0  0  0
  184.6800  177.6120  145.9260 N   0  0  0  0  0  0  0  0  0  0  0  0
  186.8220  176.9770  145.0970 C   0  0  0  0  0  0  0  0  0  0  0  0
  187.4250  177.4930  146.2680 C   0  0  0  0  0  0  0  0  0  0  0  0
  184.4460  178.6700  148.0120 F   0  0  0  0  0  0  0  0  0  0  0  0
  188.7840  177.4300  146.4290 N   0  0  0  0  0  0  0  0  0  0  0  0
  189.5780  175.7570  143.2190 C   0  0  0  0  0  3  0  0  0  0  0  0
  188.5190  174.8400  141.1440 C   0  0  0  0  0  0  0  0  0  0  0  0
  188.6210  173.6470  138.7580 C   0  0  0  0  0  1  0  0  0  0  0  0
  188.5660  174.3010  140.0660 C   0  0  0  0  0  0  0  0  0  0  0  0
  190.9850  176.8140  145.6590 O   0  0  0  0  0  0  0  0  0  0  0  0
  191.6130  175.7880  146.4170 C   0  0  0  0  0  2  0  0  0  0  0  0
  192.5230  174.9610  145.5250 C   0  0  0  0  0  2  0  0  0  0  0  0
  194.4140  176.1860  146.3240 C   0  0  0  0  0  2  0  0  0  0  0  0
  195.8460  175.9410  144.4100 O   0  0  0  0  0  0  0  0  0  0  0  0
  195.1550  174.7810  144.0250 C   0  0  0  0  0  2  0  0  0  0  0  0
  193.8420  174.8440  146.1360 N   0  0  0  0  0  0  0  0  0  0  0  0
  194.8930  176.7880  144.9960 C   0  0  0  0  0  2  0  0  0  0  0  0
  194.6960  174.0140  145.2740 C   0  0  0  0  0  2  0  0  0  0  0  0
  1 10  2  0  0  0  0
  1  9  1  0  0  0  0
  2  4  1  0  0  0  0
  3  2  1  0  0  0  0
  3 14  2  0  0  0  0
  4  5  2  0  0  0  0
  4 10  1  0  0  0  0
  5  6  1  0  0  0  0
  6 18  1  0  0  0  0
  6 13  2  0  0  0  0
  8  7  1  0  0  0  0
  8 12  1  0  0  0  0
  9  8  2  0  0  0  0
 10 11  1  0  0  0  0
 11 13  1  0  0  0  0
 11  7  2  0  0  0  0
 14  5  1  0  0  0  0
 15  3  1  0  0  0  0
 16 17  1  0  0  0  0
 17 15  3  0  0  0  0
 18 19  1  0  0  0  0
 20 24  1  0  0  0  0
 20 19  1  0  0  0  0
 22 25  1  0  0  0  0
 23 22  1  0  0  0  0
 23 26  1  0  0  0  0
 24 21  1  0  0  0  0
 25 21  1  0  0  0  0
 26 24  1  0  0  0  0
M  END
>  <MODEL>
6

>  <REMARK>
 VINA RESULT:      -6.5      3.446      5.644
  Name = 
  5 active torsions:
  status: ('A' for Active; 'I' for Inactive)
    1  A    between atoms: C_2  and  C_6
    2  A    between atoms: C_2  and  N_8
    3  A    between atoms: C_6  and  O_17
    4  A    between atoms: C_9  and  C_13
    5  A    between atoms: C_14  and  O_17
                            x       y       z     vdW  Elec       q    Type
                         _______ _______ _______ _____ _____    ______ ____

>  <TORSDO>
F 5

$$$$
=
 OpenBabel11042418523D

 26 29  0  0  0  0  0  0  0  0999 V2000
  187.2850  177.7690  147.2310 C   0  0  0  0  0  3  0  0  0  0  0  0
  189.8740  176.7980  146.1520 O   0  0  0  0  0  0  0  0  0  0  0  0
  190.7750  176.2950  145.3310 C   0  0  0  0  0  0  0  0  0  0  0  0
  188.7370  176.8080  145.5080 C   0  0  0  0  0  0  0  0  0  0  0  0
  188.9020  176.3030  144.2510 C   0  0  0  0  0  0  0  0  0  0  0  0
  187.8270  176.2100  143.3670 C   0  0  0  0  0  0  0  0  0  0  0  0
  185.1430  177.5780  145.4550 C   0  0  0  0  0  3  0  0  0  0  0  0
  184.9780  178.0950  146.7450 C   0  0  0  0  0  0  0  0  0  0  0  0
  186.0390  178.1780  147.5950 N   0  0  0  0  0  0  0  0  0  0  0  0
  187.4940  177.2470  145.9540 C   0  0  0  0  0  0  0  0  0  0  0  0
  186.4070  177.1490  145.0520 C   0  0  0  0  0  0  0  0  0  0  0  0
  183.7550  178.5140  147.1500 F   0  0  0  0  0  0  0  0  0  0  0  0
  186.5990  176.6390  143.7950 N   0  0  0  0  0  0  0  0  0  0  0  0
  190.2290  175.9540  144.0940 C   0  0  0  0  0  3  0  0  0  0  0  0
  192.1560  176.1240  145.6840 C   0  0  0  0  0  0  0  0  0  0  0  0
  194.7240  175.8050  146.3390 C   0  0  0  0  0  1  0  0  0  0  0  0
  193.3160  175.9800  145.9800 C   0  0  0  0  0  0  0  0  0  0  0  0
  188.0090  175.6930  142.0810 O   0  0  0  0  0  0  0  0  0  0  0  0
  188.0740  174.2960  141.8240 C   0  0  0  0  0  2  0  0  0  0  0  0
  189.3380  173.9650  141.0480 C   0  0  0  0  0  2  0  0  0  0  0  0
  190.4750  172.2900  139.7770 C   0  0  0  0  0  2  0  0  0  0  0  0
  189.6560  172.8700  137.5920 O   0  0  0  0  0  0  0  0  0  0  0  0
  188.5300  173.4840  138.1630 C   0  0  0  0  0  2  0  0  0  0  0  0
  189.2010  172.6600  140.4120 N   0  0  0  0  0  0  0  0  0  0  0  0
  190.7160  173.0860  138.4860 C   0  0  0  0  0  2  0  0  0  0  0  0
  188.1100  172.7220  139.4280 C   0  0  0  0  0  2  0  0  0  0  0  0
  1  9  1  0  0  0  0
  3 15  1  0  0  0  0
  3  2  1  0  0  0  0
  4 10  1  0  0  0  0
  4  2  1  0  0  0  0
  5  4  2  0  0  0  0
  6 13  2  0  0  0  0
  6  5  1  0  0  0  0
  7  8  1  0  0  0  0
  8 12  1  0  0  0  0
  8  9  2  0  0  0  0
 10  1  2  0  0  0  0
 11  7  2  0  0  0  0
 11 10  1  0  0  0  0
 13 11  1  0  0  0  0
 14  5  1  0  0  0  0
 14  3  2  0  0  0  0
 15 17  3  0  0  0  0
 17 16  1  0  0  0  0
 18  6  1  0  0  0  0
 19 18  1  0  0  0  0
 20 19  1  0  0  0  0
 21 24  1  0  0  0  0
 22 23  1  0  0  0  0
 22 25  1  0  0  0  0
 23 26  1  0  0  0  0
 24 20  1  0  0  0  0
 25 21  1  0  0  0  0
 26 24  1  0  0  0  0
M  END
>  <MODEL>
7

>  <REMARK>
 VINA RESULT:      -6.4      3.406      6.405
  Name = 
  5 active torsions:
  status: ('A' for Active; 'I' for Inactive)
    1  A    between atoms: C_2  and  C_6
    2  A    between atoms: C_2  and  N_8
    3  A    between atoms: C_6  and  O_17
    4  A    between atoms: C_9  and  C_13
    5  A    between atoms: C_14  and  O_17
                            x       y       z     vdW  Elec       q    Type
                         _______ _______ _______ _____ _____    ______ ____

>  <TORSDO>
F 5

$$$$
=
 OpenBabel11042418523D

 26 29  0  0  0  0  0  0  0  0999 V2000
  184.7800  178.0150  144.3690 C   0  0  0  0  0  3  0  0  0  0  0  0
  186.1720  177.2260  141.8700 O   0  0  0  0  0  0  0  0  0  0  0  0
  187.1190  176.8410  141.0350 C   0  0  0  0  0  0  0  0  0  0  0  0
  186.7190  177.2980  143.0550 C   0  0  0  0  0  0  0  0  0  0  0  0
  188.0390  176.9560  142.9880 C   0  0  0  0  0  0  0  0  0  0  0  0
  188.8400  176.9570  144.1300 C   0  0  0  0  0  0  0  0  0  0  0  0
  186.3920  178.0140  146.6450 C   0  0  0  0  0  3  0  0  0  0  0  0
  185.0380  178.3640  146.7090 C   0  0  0  0  0  0  0  0  0  0  0  0
  184.2710  178.3570  145.5840 N   0  0  0  0  0  0  0  0  0  0  0  0
  186.1250  177.6600  144.2610 C   0  0  0  0  0  0  0  0  0  0  0  0
  186.9440  177.6590  145.4150 C   0  0  0  0  0  0  0  0  0  0  0  0
  184.4890  178.7110  147.8980 F   0  0  0  0  0  0  0  0  0  0  0  0
  188.2660  177.3120  145.3220 N   0  0  0  0  0  0  0  0  0  0  0  0
  188.3420  176.6490  141.6770 C   0  0  0  0  0  3  0  0  0  0  0  0
  186.8990  176.6470  139.6300 C   0  0  0  0  0  0  0  0  0  0  0  0
  186.4910  176.2840  137.0170 C   0  0  0  0  0  1  0  0  0  0  0  0
  186.7150  176.4820  138.4500 C   0  0  0  0  0  0  0  0  0  0  0  0
  190.1900  176.6040  144.0500 O   0  0  0  0  0  0  0  0  0  0  0  0
  191.2120  177.5560  143.7890 C   0  0  0  0  0  2  0  0  0  0  0  0
  192.4350  177.2580  144.6410 C   0  0  0  0  0  2  0  0  0  0  0  0
  193.1100  175.3390  145.8970 C   0  0  0  0  0  2  0  0  0  0  0  0
  195.4610  175.3850  145.3990 O   0  0  0  0  0  0  0  0  0  0  0  0
  195.2110  176.1080  144.2220 C   0  0  0  0  0  2  0  0  0  0  0  0
  192.7620  175.8390  144.5580 N   0  0  0  0  0  0  0  0  0  0  0  0
  194.5040  175.8120  146.3330 C   0  0  0  0  0  2  0  0  0  0  0  0
  193.8750  175.6610  143.6140 C   0  0  0  0  0  2  0  0  0  0  0  0
  1  9  1  0  0  0  0
  2  4  1  0  0  0  0
  3 14  2  0  0  0  0
  3  2  1  0  0  0  0
  4 10  1  0  0  0  0
  5  4  2  0  0  0  0
  5  6  1  0  0  0  0
  6 13  2  0  0  0  0
  7  8  1  0  0  0  0
  8 12  1  0  0  0  0
  9  8  2  0  0  0  0
 10  1  2  0  0  0  0
 10 11  1  0  0  0  0
 11  7  2  0  0  0  0
 13 11  1  0  0  0  0
 14  5  1  0  0  0  0
 15  3  1  0  0  0  0
 16 17  1  0  0  0  0
 17 15  3  0  0  0  0
 18  6  1  0  0  0  0
 19 18  1  0  0  0  0
 19 20  1  0  0  0  0
 21 25  1  0  0  0  0
 22 25  1  0  0  0  0
 23 22  1  0  0  0  0
 24 20  1  0  0  0  0
 24 21  1  0  0  0  0
 26 23  1  0  0  0  0
 26 24  1  0  0  0  0
M  END
>  <MODEL>
8

>  <REMARK>
 VINA RESULT:      -6.4      2.986      4.453
  Name = 
  5 active torsions:
  status: ('A' for Active; 'I' for Inactive)
    1  A    between atoms: C_2  and  C_6
    2  A    between atoms: C_2  and  N_8
    3  A    between atoms: C_6  and  O_17
    4  A    between atoms: C_9  and  C_13
    5  A    between atoms: C_14  and  O_17
                            x       y       z     vdW  Elec       q    Type
                         _______ _______ _______ _____ _____    ______ ____

>  <TORSDO>
F 5

$$$$
=
 OpenBabel11042418523D

 26 29  0  0  0  0  0  0  0  0999 V2000
  193.5080  174.5650  143.6220 C   0  0  0  0  0  3  0  0  0  0  0  0
  190.9680  174.4120  142.0970 O   0  0  0  0  0  0  0  0  0  0  0  0
  189.6830  174.4690  141.7990 C   0  0  0  0  0  0  0  0  0  0  0  0
  191.0810  174.7520  143.3540 C   0  0  0  0  0  0  0  0  0  0  0  0
  189.8530  175.0320  143.8800 C   0  0  0  0  0  0  0  0  0  0  0  0
  189.7150  175.4210  145.2120 C   0  0  0  0  0  0  0  0  0  0  0  0
  193.2190  175.3410  146.2850 C   0  0  0  0  0  3  0  0  0  0  0  0
  194.4760  175.0530  145.7410 C   0  0  0  0  0  0  0  0  0  0  0  0
  194.5920  174.6750  144.4380 N   0  0  0  0  0  0  0  0  0  0  0  0
  192.2360  174.8420  144.1240 C   0  0  0  0  0  0  0  0  0  0  0  0
  192.0880  175.2360  145.4760 C   0  0  0  0  0  0  0  0  0  0  0  0
  195.5820  175.1500  146.5170 F   0  0  0  0  0  0  0  0  0  0  0  0
  190.8450  175.5120  145.9800 N   0  0  0  0  0  0  0  0  0  0  0  0
  188.9060  174.8580  142.8900 C   0  0  0  0  0  3  0  0  0  0  0  0
  189.1610  174.1620  140.4980 C   0  0  0  0  0  0  0  0  0  0  0  0
  188.1880  173.5930  138.0790 C   0  0  0  0  0  1  0  0  0  0  0  0
  188.7210  173.9060  139.4050 C   0  0  0  0  0  0  0  0  0  0  0  0
  188.4520  175.7060  145.7400 O   0  0  0  0  0  0  0  0  0  0  0  0
  188.1520  176.9460  146.3690 C   0  0  0  0  0  2  0  0  0  0  0  0
  187.2200  177.7650  145.4920 C   0  0  0  0  0  2  0  0  0  0  0  0
  185.2350  177.6720  144.1630 C   0  0  0  0  0  2  0  0  0  0  0  0
  183.7020  178.6660  145.7240 O   0  0  0  0  0  0  0  0  0  0  0  0
  184.5310  178.2960  146.7950 C   0  0  0  0  0  2  0  0  0  0  0  0
  185.9930  177.0180  145.2410 N   0  0  0  0  0  0  0  0  0  0  0  0
  184.5550  178.9590  144.6490 C   0  0  0  0  0  2  0  0  0  0  0  0
  185.2100  176.9550  146.4840 C   0  0  0  0  0  2  0  0  0  0  0  0
  1 10  2  0  0  0  0
  1  9  1  0  0  0  0
  2  4  1  0  0  0  0
  3  2  1  0  0  0  0
  3 14  2  0  0  0  0
  4  5  2  0  0  0  0
  4 10  1  0  0  0  0
  5  6  1  0  0  0  0
  6 18  1  0  0  0  0
  6 13  2  0  0  0  0
  8  7  1  0  0  0  0
  8 12  1  0  0  0  0
  9  8  2  0  0  0  0
 10 11  1  0  0  0  0
 11 13  1  0  0  0  0
 11  7  2  0  0  0  0
 14  5  1  0  0  0  0
 15  3  1  0  0  0  0
 16 17  1  0  0  0  0
 17 15  3  0  0  0  0
 18 19  1  0  0  0  0
 20 19  1  0  0  0  0
 21 25  1  0  0  0  0
 21 24  1  0  0  0  0
 22 23  1  0  0  0  0
 24 20  1  0  0  0  0
 24 26  1  0  0  0  0
 25 22  1  0  0  0  0
 26 23  1  0  0  0  0
M  END
>  <MODEL>
9

>  <REMARK>
 VINA RESULT:      -6.4      3.543      7.605
  Name = 
  5 active torsions:
  status: ('A' for Active; 'I' for Inactive)
    1  A    between atoms: C_2  and  C_6
    2  A    between atoms: C_2  and  N_8
    3  A    between atoms: C_6  and  O_17
    4  A    between atoms: C_9  and  C_13
    5  A    between atoms: C_14  and  O_17
                            x       y       z     vdW  Elec       q    Type
                         _______ _______ _______ _____ _____    ______ ____

>  <TORSDO>
F 5

$$$$
