=
 OpenBabel11042419213D

 42 45  0  0  1  0  0  0  0  0999 V2000
  190.4220  174.2920  144.1920 C   0  0  1  0  0  3  0  0  0  0  0  0
  188.9370  173.6610  142.3220 C   0  0  0  0  0  3  0  0  0  0  0  0
  191.2730  173.1240  142.1810 N   0  0  0  0  0  0  0  0  0  0  0  0
  189.1070  174.3390  143.4560 C   0  0  0  0  0  3  0  0  0  0  0  0
  191.5800  174.1370  143.1950 C   0  0  2  0  0  3  0  0  0  0  0  0
  190.0660  172.9200  141.7340 C   0  0  0  0  0  0  0  0  0  0  0  0
  195.3080  173.1090  145.1860 C   0  0  0  0  0  0  0  0  0  0  0  0
  192.8950  172.8000  144.8670 C   0  0  0  0  0  3  0  0  0  0  0  0
  195.2470  174.1110  144.2060 C   0  0  0  0  0  0  0  0  0  0  0  0
  194.1010  172.4570  145.5110 C   0  0  0  0  0  3  0  0  0  0  0  0
  196.2500  174.8610  143.7240 N   0  0  0  0  0  0  0  0  0  0  0  0
  192.8690  173.8030  143.8830 C   0  0  0  0  0  0  0  0  0  0  0  0
  196.3430  176.6610  141.9980 C   0  0  0  0  0  1  0  0  0  0  0  0
  194.0780  174.4420  143.5810 C   0  0  0  0  0  0  0  0  0  0  0  0
  195.6250  175.6410  142.8060 C   0  0  0  0  0  0  0  0  0  0  0  0
  194.2910  175.4190  142.6840 N   0  0  0  0  0  2  0  0  0  0  0  0
  197.0710  171.5840  145.6830 O   0  0  0  0  0  0  0  0  0  0  0  0
  197.1960  173.6210  146.7130 O   0  0  0  0  0  1  0  0  0  0  0  0
  196.5610  172.7230  145.8640 C   0  0  0  0  0  0  0  0  0  0  0  0
  189.6490  172.1970  139.4200 C   0  0  0  0  0  3  0  0  0  0  0  0
  189.7990  171.9680  140.6920 N   0  0  0  0  0  0  0  0  0  0  0  0
  190.4500  174.0460  136.5950 C   0  0  0  0  0  2  0  0  0  0  0  0
  189.7020  173.5530  138.7870 C   0  0  1  0  0  3  0  0  0  0  0  0
  190.9500  173.6650  137.9670 C   0  0  0  0  0  2  0  0  0  0  0  0
  187.9360  174.9080  137.9650 F   0  0  0  0  0  0  0  0  0  0  0  0
  188.5790  173.6960  137.7800 C   0  0  1  0  0  3  0  0  0  0  0  0
  189.1110  173.6390  136.4800 O   0  0  0  0  0  0  0  0  0  0  0  0
  190.6070  175.5460  145.0390 C   0  0  0  0  0  2  0  0  0  0  0  0
  189.1230  174.8400  147.0050 C   0  0  0  0  0  1  0  0  0  0  0  0
  188.6840  176.8560  145.6700 N   0  0  0  0  0  0  0  0  0  0  0  0
  189.4140  175.8020  145.8990 C   0  0  0  0  0  0  0  0  0  0  0  0
  187.5140  177.2860  146.3830 C   0  0  0  0  0  0  0  0  0  0  0  0
  187.5950  177.9660  147.4410 O   0  0  0  0  0  0  0  0  0  0  0  0
  186.1710  176.9180  145.8540 C   0  0  0  0  0  2  0  0  0  0  0  0
  185.9210  177.6130  144.5180 C   0  0  2  0  0  3  0  0  0  0  0  0
  184.8350  179.7150  144.1010 O   0  0  0  0  0  1  0  0  0  0  0  0
  184.1140  178.5050  146.0080 C   0  0  0  0  0  1  0  0  0  0  0  0
  184.6230  178.4190  144.5770 C   0  0  2  0  0  3  0  0  0  0  0  0
  185.8510  176.5730  143.4010 C   0  0  0  0  0  2  0  0  0  0  0  0
  186.7300  176.9520  142.2200 C   0  0  0  0  0  2  0  0  0  0  0  0
  187.4900  178.1520  142.5250 N   0  0  0  0  0  2  0  0  0  0  0  0
  188.8710  177.8650  142.1860 C   0  0  0  0  0  1  0  0  0  0  0  0
  1 28  1  6  0  0  0
  2  4  2  0  0  0  0
  3  5  1  0  0  0  0
  4  1  1  0  0  0  0
  5 12  1  1  0  0  0
  5  1  1  0  0  0  0
  6  3  2  0  0  0  0
  6  2  1  0  0  0  0
  7 10  1  0  0  0  0
  7 19  1  0  0  0  0
  8 10  2  0  0  0  0
  9  7  2  0  0  0  0
 11  9  1  0  0  0  0
 12  8  1  0  0  0  0
 13 15  1  0  0  0  0
 14 12  2  0  0  0  0
 14  9  1  0  0  0  0
 15 11  2  0  0  0  0
 16 15  1  0  0  0  0
 16 14  1  0  0  0  0
 17 19  2  0  0  0  0
 19 18  1  0  0  0  0
 20 21  2  0  0  0  0
 21  6  1  0  0  0  0
 22 24  1  0  0  0  0
 23 20  1  6  0  0  0
 24 23  1  0  0  0  0
 26 25  1  1  0  0  0
 26 23  1  0  0  0  0
 27 22  1  0  0  0  0
 27 26  1  0  0  0  0
 28 31  1  0  0  0  0
 30 31  2  0  0  0  0
 30 32  1  0  0  0  0
 31 29  1  0  0  0  0
 32 33  2  0  0  0  0
 34 32  1  0  0  0  0
 35 39  1  6  0  0  0
 35 38  1  0  0  0  0
 35 34  1  0  0  0  0
 36 38  1  0  0  0  0
 38 37  1  1  0  0  0
 40 41  1  0  0  0  0
 40 39  1  0  0  0  0
 42 41  1  0  0  0  0
M  END
>  <MODEL>
1

>  <REMARK>
 VINA RESULT:      -7.3      0.000      0.000
  Name = 
  13 active torsions:
  status: ('A' for Active; 'I' for Inactive)
    1  A    between atoms: C_1  and  C_27
    2  A    between atoms: C_3  and  C_22
    3  A    between atoms: N_6  and  C_21
    4  A    between atoms: C_7  and  C_9
    5  A    between atoms: C_15  and  C_25
    6  A    between atoms: C_15  and  C_36
    7  A    between atoms: C_16  and  C_21
    8  A    between atoms: C_16  and  C_25
    9  A    between atoms: C_18  and  C_32
   10  A    between atoms: N_20  and  C_26
   11  A    between atoms: C_22  and  C_34
   12  A    between atoms: C_25  and  C_35
   13  A    between atoms: N_30  and  C_36
                            x       y       z     vdW  Elec       q    Type
                         _______ _______ _______ _____ _____    ______ ____

>  <TORSDO>
F 13

$$$$
=
 OpenBabel11042419213D

 42 45  0  0  1  0  0  0  0  0999 V2000
  191.2600  174.7560  145.3970 C   0  0  1  0  0  3  0  0  0  0  0  0
  193.4830  174.7410  146.4720 C   0  0  0  0  0  3  0  0  0  0  0  0
  193.1970  173.5960  144.3800 N   0  0  0  0  0  0  0  0  0  0  0  0
  192.1820  175.0130  146.5610 C   0  0  0  0  0  3  0  0  0  0  0  0
  191.7480  173.5400  144.5950 C   0  0  2  0  0  3  0  0  0  0  0  0
  194.0180  174.1060  145.2550 C   0  0  0  0  0  0  0  0  0  0  0  0
  189.7150  173.2290  140.7620 C   0  0  0  0  0  0  0  0  0  0  0  0
  190.4860  174.5580  142.6750 C   0  0  0  0  0  3  0  0  0  0  0  0
  190.2680  172.1070  141.3980 C   0  0  0  0  0  0  0  0  0  0  0  0
  189.8330  174.4650  141.4290 C   0  0  0  0  0  3  0  0  0  0  0  0
  190.2900  170.8370  140.9650 N   0  0  0  0  0  0  0  0  0  0  0  0
  191.0380  173.4160  143.2800 C   0  0  0  0  0  0  0  0  0  0  0  0
  191.2210  168.7320  141.9310 C   0  0  0  0  0  1  0  0  0  0  0  0
  190.9030  172.1980  142.6040 C   0  0  0  0  0  0  0  0  0  0  0  0
  190.9520  170.1940  141.9600 C   0  0  0  0  0  0  0  0  0  0  0  0
  191.3470  170.9890  142.9870 N   0  0  0  0  0  2  0  0  0  0  0  0
  187.9520  172.5320  139.3190 O   0  0  0  0  0  1  0  0  0  0  0  0
  189.5940  173.7900  138.3470 O   0  0  0  0  0  0  0  0  0  0  0  0
  189.0380  173.1590  139.4530 C   0  0  0  0  0  0  0  0  0  0  0  0
  196.1580  174.9180  144.3510 C   0  0  0  0  0  3  0  0  0  0  0  0
  195.4400  174.0890  145.0530 N   0  0  0  0  0  0  0  0  0  0  0  0
  196.3830  176.8400  141.4710 C   0  0  0  0  0  2  0  0  0  0  0  0
  195.6060  176.0710  143.5710 C   0  0  1  0  0  3  0  0  0  0  0  0
  196.7360  176.8220  142.9380 C   0  0  0  0  0  2  0  0  0  0  0  0
  193.5860  176.2330  142.3360 F   0  0  0  0  0  0  0  0  0  0  0  0
  194.7940  175.5590  142.3990 C   0  0  1  0  0  3  0  0  0  0  0  0
  195.5130  175.7690  141.2090 O   0  0  0  0  0  0  0  0  0  0  0  0
  189.8310  174.5390  145.8840 C   0  0  0  0  0  2  0  0  0  0  0  0
  189.6200  176.9750  145.1200 C   0  0  0  0  0  1  0  0  0  0  0  0
  187.8980  175.8540  146.4680 N   0  0  0  0  0  0  0  0  0  0  0  0
  189.0500  175.8100  145.8610 C   0  0  0  0  0  0  0  0  0  0  0  0
  186.9920  176.9660  146.5530 C   0  0  0  0  0  0  0  0  0  0  0  0
  187.0890  177.8310  147.4630 O   0  0  0  0  0  0  0  0  0  0  0  0
  185.9120  177.0950  145.5350 C   0  0  0  0  0  2  0  0  0  0  0  0
  185.9620  178.4760  144.8840 C   0  0  2  0  0  3  0  0  0  0  0  0
  183.9610  178.6780  146.1970 O   0  0  0  0  0  1  0  0  0  0  0  0
  183.7470  179.0600  143.8670 C   0  0  0  0  0  1  0  0  0  0  0  0
  184.6350  179.2060  145.0930 C   0  0  2  0  0  3  0  0  0  0  0  0
  186.2610  178.3320  143.3930 C   0  0  0  0  0  2  0  0  0  0  0  0
  186.5160  176.8840  143.0050 C   0  0  0  0  0  2  0  0  0  0  0  0
  187.1550  176.8190  141.7020 N   0  0  0  0  0  2  0  0  0  0  0  0
  188.1880  177.8380  141.6960 C   0  0  0  0  0  1  0  0  0  0  0  0
  1 28  1  1  0  0  0
  1  4  1  0  0  0  0
  2  4  2  0  0  0  0
  3  5  1  0  0  0  0
  3  6  2  0  0  0  0
  5 12  1  6  0  0  0
  5  1  1  0  0  0  0
  6  2  1  0  0  0  0
  7  9  2  0  0  0  0
  7 10  1  0  0  0  0
  8 12  1  0  0  0  0
  9 14  1  0  0  0  0
 10  8  2  0  0  0  0
 11  9  1  0  0  0  0
 11 15  2  0  0  0  0
 13 15  1  0  0  0  0
 14 16  1  0  0  0  0
 14 12  2  0  0  0  0
 15 16  1  0  0  0  0
 17 19  1  0  0  0  0
 18 19  2  0  0  0  0
 19  7  1  0  0  0  0
 20 21  2  0  0  0  0
 21  6  1  0  0  0  0
 22 24  1  0  0  0  0
 23 20  1  6  0  0  0
 24 23  1  0  0  0  0
 26 25  1  6  0  0  0
 26 23  1  0  0  0  0
 27 22  1  0  0  0  0
 27 26  1  0  0  0  0
 29 31  1  0  0  0  0
 30 32  1  0  0  0  0
 31 28  1  0  0  0  0
 31 30  2  0  0  0  0
 32 33  2  0  0  0  0
 34 32  1  0  0  0  0
 35 39  1  6  0  0  0
 35 38  1  0  0  0  0
 35 34  1  0  0  0  0
 38 37  1  6  0  0  0
 38 36  1  0  0  0  0
 40 39  1  0  0  0  0
 41 40  1  0  0  0  0
 42 41  1  0  0  0  0
M  END
>  <MODEL>
2

>  <REMARK>
 VINA RESULT:      -7.0      2.315      5.748
  Name = 
  13 active torsions:
  status: ('A' for Active; 'I' for Inactive)
    1  A    between atoms: C_1  and  C_27
    2  A    between atoms: C_3  and  C_22
    3  A    between atoms: N_6  and  C_21
    4  A    between atoms: C_7  and  C_9
    5  A    between atoms: C_15  and  C_25
    6  A    between atoms: C_15  and  C_36
    7  A    between atoms: C_16  and  C_21
    8  A    between atoms: C_16  and  C_25
    9  A    between atoms: C_18  and  C_32
   10  A    between atoms: N_20  and  C_26
   11  A    between atoms: C_22  and  C_34
   12  A    between atoms: C_25  and  C_35
   13  A    between atoms: N_30  and  C_36
                            x       y       z     vdW  Elec       q    Type
                         _______ _______ _______ _____ _____    ______ ____

>  <TORSDO>
F 13

$$$$
=
 OpenBabel11042419213D

 42 45  0  0  1  0  0  0  0  0999 V2000
  191.4120  175.3490  145.6210 C   0  0  1  0  0  3  0  0  0  0  0  0
  193.6870  175.6410  146.5380 C   0  0  0  0  0  3  0  0  0  0  0  0
  193.4120  174.4440  144.4740 N   0  0  0  0  0  0  0  0  0  0  0  0
  192.3700  175.7400  146.7170 C   0  0  0  0  0  3  0  0  0  0  0  0
  192.0010  174.2000  144.7900 C   0  0  2  0  0  3  0  0  0  0  0  0
  194.2160  175.0680  145.2880 C   0  0  0  0  0  0  0  0  0  0  0  0
  189.7700  173.5770  141.1090 C   0  0  0  0  0  0  0  0  0  0  0  0
  190.5240  175.0310  142.9340 C   0  0  0  0  0  3  0  0  0  0  0  0
  190.4710  172.5340  141.7320 C   0  0  0  0  0  0  0  0  0  0  0  0
  189.8050  174.8370  141.7370 C   0  0  0  0  0  3  0  0  0  0  0  0
  190.5920  171.2590  141.3290 N   0  0  0  0  0  0  0  0  0  0  0  0
  191.2240  173.9670  143.5290 C   0  0  0  0  0  0  0  0  0  0  0  0
  191.7880  169.2860  142.2800 C   0  0  0  0  0  1  0  0  0  0  0  0
  191.1690  172.7220  142.8910 C   0  0  0  0  0  0  0  0  0  0  0  0
  191.3770  170.7140  142.2930 C   0  0  0  0  0  0  0  0  0  0  0  0
  191.7550  171.5750  143.2720 N   0  0  0  0  0  2  0  0  0  0  0  0
  187.9420  172.7480  139.8230 O   0  0  0  0  0  1  0  0  0  0  0  0
  189.5000  173.9600  138.6710 O   0  0  0  0  0  0  0  0  0  0  0  0
  189.0210  173.4010  139.8490 C   0  0  0  0  0  0  0  0  0  0  0  0
  196.4600  174.3300  144.6000 C   0  0  0  0  0  3  0  0  0  0  0  0
  195.6100  175.2370  144.9870 N   0  0  0  0  0  0  0  0  0  0  0  0
  197.6870  171.0990  144.2920 C   0  0  0  0  0  2  0  0  0  0  0  0
  196.1320  172.8810  144.4150 C   0  0  1  0  0  3  0  0  0  0  0  0
  197.1400  172.2610  143.4990 C   0  0  0  0  0  2  0  0  0  0  0  0
  195.2170  171.3290  145.9600 F   0  0  0  0  0  0  0  0  0  0  0  0
  196.3140  172.1400  145.7250 C   0  0  1  0  0  3  0  0  0  0  0  0
  197.4760  171.3530  145.6560 O   0  0  0  0  0  0  0  0  0  0  0  0
  190.0620  174.9510  146.2070 C   0  0  0  0  0  2  0  0  0  0  0  0
  189.5740  177.4010  145.6370 C   0  0  0  0  0  1  0  0  0  0  0  0
  187.9010  175.9180  146.6580 N   0  0  0  0  0  0  0  0  0  0  0  0
  189.1060  176.0980  146.1980 C   0  0  0  0  0  0  0  0  0  0  0  0
  186.8340  176.8790  146.7250 C   0  0  0  0  0  0  0  0  0  0  0  0
  186.7750  177.7390  147.6440 O   0  0  0  0  0  0  0  0  0  0  0  0
  185.7740  176.8530  145.6800 C   0  0  0  0  0  2  0  0  0  0  0  0
  186.0770  177.8840  144.5950 C   0  0  2  0  0  3  0  0  0  0  0  0
  185.3050  180.1110  144.1320 O   0  0  0  0  0  1  0  0  0  0  0  0
  184.0070  178.8300  145.6460 C   0  0  0  0  0  1  0  0  0  0  0  0
  184.8750  178.8090  144.3970 C   0  0  2  0  0  3  0  0  0  0  0  0
  186.4190  177.1710  143.2880 C   0  0  0  0  0  2  0  0  0  0  0  0
  187.5370  177.8760  142.5360 C   0  0  0  0  0  2  0  0  0  0  0  0
  187.4340  177.6030  141.1130 N   0  0  0  0  0  2  0  0  0  0  0  0
  186.0510  177.8360  140.7460 C   0  0  0  0  0  1  0  0  0  0  0  0
  1 28  1  1  0  0  0
  1  4  1  0  0  0  0
  2  4  2  0  0  0  0
  3  5  1  0  0  0  0
  3  6  2  0  0  0  0
  5 12  1  6  0  0  0
  5  1  1  0  0  0  0
  6  2  1  0  0  0  0
  7  9  2  0  0  0  0
  7 10  1  0  0  0  0
  8 12  1  0  0  0  0
  9 14  1  0  0  0  0
 10  8  2  0  0  0  0
 11  9  1  0  0  0  0
 11 15  2  0  0  0  0
 13 15  1  0  0  0  0
 14 16  1  0  0  0  0
 14 12  2  0  0  0  0
 15 16  1  0  0  0  0
 17 19  1  0  0  0  0
 18 19  2  0  0  0  0
 19  7  1  0  0  0  0
 20 21  2  0  0  0  0
 21  6  1  0  0  0  0
 22 27  1  0  0  0  0
 23 20  1  1  0  0  0
 23 26  1  0  0  0  0
 24 22  1  0  0  0  0
 24 23  1  0  0  0  0
 26 25  1  6  0  0  0
 27 26  1  0  0  0  0
 29 31  1  0  0  0  0
 30 32  1  0  0  0  0
 31 28  1  0  0  0  0
 31 30  2  0  0  0  0
 32 33  2  0  0  0  0
 34 32  1  0  0  0  0
 35 39  1  6  0  0  0
 35 34  1  0  0  0  0
 36 38  1  0  0  0  0
 38 35  1  0  0  0  0
 38 37  1  1  0  0  0
 40 39  1  0  0  0  0
 41 40  1  0  0  0  0
 42 41  1  0  0  0  0
M  END
>  <MODEL>
3

>  <REMARK>
 VINA RESULT:      -7.0      2.436      6.256
  Name = 
  13 active torsions:
  status: ('A' for Active; 'I' for Inactive)
    1  A    between atoms: C_1  and  C_27
    2  A    between atoms: C_3  and  C_22
    3  A    between atoms: N_6  and  C_21
    4  A    between atoms: C_7  and  C_9
    5  A    between atoms: C_15  and  C_25
    6  A    between atoms: C_15  and  C_36
    7  A    between atoms: C_16  and  C_21
    8  A    between atoms: C_16  and  C_25
    9  A    between atoms: C_18  and  C_32
   10  A    between atoms: N_20  and  C_26
   11  A    between atoms: C_22  and  C_34
   12  A    between atoms: C_25  and  C_35
   13  A    between atoms: N_30  and  C_36
                            x       y       z     vdW  Elec       q    Type
                         _______ _______ _______ _____ _____    ______ ____

>  <TORSDO>
F 13

$$$$
=
 OpenBabel11042419213D

 42 45  0  0  1  0  0  0  0  0999 V2000
  191.0550  176.1990  144.1300 C   0  0  1  0  0  3  0  0  0  0  0  0
  189.3090  177.6360  145.1250 C   0  0  0  0  0  3  0  0  0  0  0  0
  188.6770  175.5090  144.2060 N   0  0  0  0  0  0  0  0  0  0  0  0
  190.5650  177.5070  144.6980 C   0  0  0  0  0  3  0  0  0  0  0  0
  189.9080  175.4740  143.4100 C   0  0  2  0  0  3  0  0  0  0  0  0
  188.3620  176.5180  144.9680 C   0  0  0  0  0  0  0  0  0  0  0  0
  190.9140  171.3410  142.4970 C   0  0  0  0  0  0  0  0  0  0  0  0
  190.6920  173.1870  144.0980 C   0  0  0  0  0  3  0  0  0  0  0  0
  190.4940  172.2360  141.5010 C   0  0  0  0  0  0  0  0  0  0  0  0
  191.0120  171.8440  143.8100 C   0  0  0  0  0  3  0  0  0  0  0  0
  190.3180  171.9960  140.1920 N   0  0  0  0  0  0  0  0  0  0  0  0
  190.2650  174.0550  143.0790 C   0  0  0  0  0  0  0  0  0  0  0  0
  189.5770  173.4320  138.2900 C   0  0  0  0  0  1  0  0  0  0  0  0
  190.1820  173.5360  141.7810 C   0  0  0  0  0  0  0  0  0  0  0  0
  189.9000  173.1990  139.7220 C   0  0  0  0  0  0  0  0  0  0  0  0
  189.8020  174.1740  140.6610 N   0  0  0  0  0  2  0  0  0  0  0  0
  192.1250  169.3270  142.8920 O   0  0  0  0  0  1  0  0  0  0  0  0
  190.5750  169.2440  141.2140 O   0  0  0  0  0  0  0  0  0  0  0  0
  191.2420  169.9290  142.2210 C   0  0  0  0  0  0  0  0  0  0  0  0
  186.0410  177.2230  145.3800 C   0  0  0  0  0  3  0  0  0  0  0  0
  187.1190  176.5610  145.6860 N   0  0  0  0  0  0  0  0  0  0  0  0
  184.0530  178.2110  142.7130 C   0  0  0  0  0  2  0  0  0  0  0  0
  185.9030  178.1180  144.1880 C   0  0  1  0  0  3  0  0  0  0  0  0
  185.2460  177.3610  143.0760 C   0  0  0  0  0  2  0  0  0  0  0  0
  185.4760  180.4510  144.0900 F   0  0  0  0  0  0  0  0  0  0  0  0
  184.9350  179.2420  144.4970 C   0  0  1  0  0  3  0  0  0  0  0  0
  183.7270  179.0140  143.8170 O   0  0  0  0  0  0  0  0  0  0  0  0
  192.2230  176.4330  143.1790 C   0  0  0  0  0  2  0  0  0  0  0  0
  194.7060  175.8930  142.8490 C   0  0  0  0  0  1  0  0  0  0  0  0
  193.4550  175.2090  144.8500 N   0  0  0  0  0  0  0  0  0  0  0  0
  193.4750  175.8000  143.6900 C   0  0  0  0  0  0  0  0  0  0  0  0
  194.5450  174.5560  145.5230 C   0  0  0  0  0  0  0  0  0  0  0  0
  195.3380  175.1890  146.2670 O   0  0  0  0  0  0  0  0  0  0  0  0
  194.7360  173.0910  145.3310 C   0  0  0  0  0  2  0  0  0  0  0  0
  196.1390  172.8060  144.8010 C   0  0  2  0  0  3  0  0  0  0  0  0
  196.6650  172.9600  142.4620 O   0  0  0  0  0  1  0  0  0  0  0  0
  194.6080  171.9230  143.0230 C   0  0  0  0  0  1  0  0  0  0  0  0
  196.0580  172.1480  143.4230 C   0  0  2  0  0  3  0  0  0  0  0  0
  196.8860  171.9020  145.7790 C   0  0  0  0  0  2  0  0  0  0  0  0
  197.5710  170.7450  145.0690 C   0  0  0  0  0  2  0  0  0  0  0  0
  197.5900  169.5720  145.9250 N   0  0  0  0  0  2  0  0  0  0  0  0
  196.4580  169.6960  146.8240 C   0  0  0  0  0  1  0  0  0  0  0  0
  1 28  1  6  0  0  0
  1  4  1  0  0  0  0
  3  6  2  0  0  0  0
  4  2  2  0  0  0  0
  5 12  1  1  0  0  0
  5  1  1  0  0  0  0
  5  3  1  0  0  0  0
  6  2  1  0  0  0  0
  6 21  1  0  0  0  0
  7 10  1  0  0  0  0
  9 14  1  0  0  0  0
  9  7  2  0  0  0  0
 10  8  2  0  0  0  0
 11  9  1  0  0  0  0
 12  8  1  0  0  0  0
 13 15  1  0  0  0  0
 14 12  2  0  0  0  0
 15 11  2  0  0  0  0
 15 16  1  0  0  0  0
 16 14  1  0  0  0  0
 18 19  2  0  0  0  0
 19  7  1  0  0  0  0
 19 17  1  0  0  0  0
 20 21  2  0  0  0  0
 22 24  1  0  0  0  0
 22 27  1  0  0  0  0
 23 26  1  0  0  0  0
 23 20  1  1  0  0  0
 24 23  1  0  0  0  0
 26 25  1  6  0  0  0
 27 26  1  0  0  0  0
 28 31  1  0  0  0  0
 29 31  1  0  0  0  0
 30 32  1  0  0  0  0
 31 30  2  0  0  0  0
 32 33  2  0  0  0  0
 34 32  1  0  0  0  0
 35 34  1  1  0  0  0
 35 39  1  0  0  0  0
 36 38  1  0  0  0  0
 38 37  1  6  0  0  0
 38 35  1  0  0  0  0
 40 39  1  0  0  0  0
 40 41  1  0  0  0  0
 41 42  1  0  0  0  0
M  END
>  <MODEL>
4

>  <REMARK>
 VINA RESULT:      -6.9      2.730      8.204
  Name = 
  13 active torsions:
  status: ('A' for Active; 'I' for Inactive)
    1  A    between atoms: C_1  and  C_27
    2  A    between atoms: C_3  and  C_22
    3  A    between atoms: N_6  and  C_21
    4  A    between atoms: C_7  and  C_9
    5  A    between atoms: C_15  and  C_25
    6  A    between atoms: C_15  and  C_36
    7  A    between atoms: C_16  and  C_21
    8  A    between atoms: C_16  and  C_25
    9  A    between atoms: C_18  and  C_32
   10  A    between atoms: N_20  and  C_26
   11  A    between atoms: C_22  and  C_34
   12  A    between atoms: C_25  and  C_35
   13  A    between atoms: N_30  and  C_36
                            x       y       z     vdW  Elec       q    Type
                         _______ _______ _______ _____ _____    ______ ____

>  <TORSDO>
F 13

$$$$
=
 OpenBabel11042419213D

 42 45  0  0  1  0  0  0  0  0999 V2000
  192.4710  175.7910  146.0310 C   0  0  1  0  0  3  0  0  0  0  0  0
  194.5670  177.0530  146.3680 C   0  0  0  0  0  3  0  0  0  0  0  0
  194.3480  175.6660  144.4200 N   0  0  0  0  0  0  0  0  0  0  0  0
  193.4050  176.6310  146.8650 C   0  0  0  0  0  3  0  0  0  0  0  0
  193.2760  174.9050  145.0680 C   0  0  2  0  0  3  0  0  0  0  0  0
  194.9860  176.6310  145.0200 C   0  0  0  0  0  0  0  0  0  0  0  0
  190.7500  173.0980  142.0220 C   0  0  0  0  0  0  0  0  0  0  0  0
  191.5980  175.0730  143.2040 C   0  0  0  0  0  3  0  0  0  0  0  0
  191.5540  172.3210  142.8700 C   0  0  0  0  0  0  0  0  0  0  0  0
  190.7830  174.4940  142.2100 C   0  0  0  0  0  3  0  0  0  0  0  0
  191.6980  170.9870  142.8830 N   0  0  0  0  0  0  0  0  0  0  0  0
  192.3990  174.2680  144.0310 C   0  0  0  0  0  0  0  0  0  0  0  0
  193.0680  169.4430  144.2850 C   0  0  0  0  0  1  0  0  0  0  0  0
  192.3450  172.8830  143.8320 C   0  0  0  0  0  0  0  0  0  0  0  0
  192.5930  170.7930  143.8860 C   0  0  0  0  0  0  0  0  0  0  0  0
  193.0170  171.9280  144.4970 N   0  0  0  0  0  2  0  0  0  0  0  0
  188.6520  172.4100  141.1240 O   0  0  0  0  0  1  0  0  0  0  0  0
  190.4680  172.0760  139.7780 O   0  0  0  0  0  0  0  0  0  0  0  0
  189.8990  172.5150  140.9660 C   0  0  0  0  0  0  0  0  0  0  0  0
  196.7120  176.9850  143.3030 C   0  0  0  0  0  3  0  0  0  0  0  0
  196.0780  177.3180  144.3900 N   0  0  0  0  0  0  0  0  0  0  0  0
  196.6720  175.5430  140.1480 C   0  0  0  0  0  2  0  0  0  0  0  0
  196.4240  175.7600  142.4920 C   0  0  1  0  0  3  0  0  0  0  0  0
  195.7860  176.1630  141.2000 C   0  0  0  0  0  2  0  0  0  0  0  0
  197.6550  173.7380  142.3190 F   0  0  0  0  0  0  0  0  0  0  0  0
  197.7230  175.0990  142.0770 C   0  0  1  0  0  3  0  0  0  0  0  0
  197.9410  175.3240  140.7070 O   0  0  0  0  0  0  0  0  0  0  0  0
  191.5770  174.9380  146.9240 C   0  0  0  0  0  2  0  0  0  0  0  0
  189.3910  173.9420  146.0350 C   0  0  0  0  0  1  0  0  0  0  0  0
  189.5770  176.2750  146.7810 N   0  0  0  0  0  0  0  0  0  0  0  0
  190.1350  175.1160  146.5800 C   0  0  0  0  0  0  0  0  0  0  0  0
  188.2120  176.6480  146.5320 C   0  0  0  0  0  0  0  0  0  0  0  0
  187.2710  176.2460  147.2660 O   0  0  0  0  0  0  0  0  0  0  0  0
  187.9070  177.5330  145.3740 C   0  0  0  0  0  2  0  0  0  0  0  0
  188.5940  177.0110  144.1140 C   0  0  2  0  0  3  0  0  0  0  0  0
  189.3290  177.9140  142.0130 O   0  0  0  0  0  1  0  0  0  0  0  0
  190.7370  178.2910  143.8830 C   0  0  0  0  0  1  0  0  0  0  0  0
  189.3050  178.1540  143.3890 C   0  0  2  0  0  3  0  0  0  0  0  0
  187.5610  176.3600  143.1960 C   0  0  0  0  0  2  0  0  0  0  0  0
  186.1400  176.7260  143.5940 C   0  0  0  0  0  2  0  0  0  0  0  0
  185.4190  177.2560  142.4500 N   0  0  0  0  0  2  0  0  0  0  0  0
  185.7490  178.6670  142.3700 C   0  0  0  0  0  1  0  0  0  0  0  0
  1  4  1  0  0  0  0
  1 28  1  1  0  0  0
  2  4  2  0  0  0  0
  3  6  2  0  0  0  0
  3  5  1  0  0  0  0
  5 12  1  6  0  0  0
  5  1  1  0  0  0  0
  6  2  1  0  0  0  0
  7 10  2  0  0  0  0
  7  9  1  0  0  0  0
  8 12  2  0  0  0  0
  9 11  1  0  0  0  0
  9 14  2  0  0  0  0
 10  8  1  0  0  0  0
 11 15  2  0  0  0  0
 14 12  1  0  0  0  0
 14 16  1  0  0  0  0
 15 13  1  0  0  0  0
 15 16  1  0  0  0  0
 18 19  2  0  0  0  0
 19 17  1  0  0  0  0
 19  7  1  0  0  0  0
 20 21  2  0  0  0  0
 21  6  1  0  0  0  0
 22 27  1  0  0  0  0
 22 24  1  0  0  0  0
 23 20  1  1  0  0  0
 24 23  1  0  0  0  0
 26 25  1  6  0  0  0
 26 23  1  0  0  0  0
 27 26  1  0  0  0  0
 29 31  1  0  0  0  0
 31 30  2  0  0  0  0
 31 28  1  0  0  0  0
 32 30  1  0  0  0  0
 32 33  2  0  0  0  0
 34 32  1  0  0  0  0
 35 39  1  6  0  0  0
 35 34  1  0  0  0  0
 36 38  1  0  0  0  0
 38 37  1  1  0  0  0
 38 35  1  0  0  0  0
 39 40  1  0  0  0  0
 41 40  1  0  0  0  0
 42 41  1  0  0  0  0
M  END
>  <MODEL>
5

>  <REMARK>
 VINA RESULT:      -6.8      3.138      5.927
  Name = 
  13 active torsions:
  status: ('A' for Active; 'I' for Inactive)
    1  A    between atoms: C_1  and  C_27
    2  A    between atoms: C_3  and  C_22
    3  A    between atoms: N_6  and  C_21
    4  A    between atoms: C_7  and  C_9
    5  A    between atoms: C_15  and  C_25
    6  A    between atoms: C_15  and  C_36
    7  A    between atoms: C_16  and  C_21
    8  A    between atoms: C_16  and  C_25
    9  A    between atoms: C_18  and  C_32
   10  A    between atoms: N_20  and  C_26
   11  A    between atoms: C_22  and  C_34
   12  A    between atoms: C_25  and  C_35
   13  A    between atoms: N_30  and  C_36
                            x       y       z     vdW  Elec       q    Type
                         _______ _______ _______ _____ _____    ______ ____

>  <TORSDO>
F 13

$$$$
=
 OpenBabel11042419213D

 42 45  0  0  1  0  0  0  0  0999 V2000
  190.3520  176.2940  143.2890 C   0  0  1  0  0  3  0  0  0  0  0  0
  191.2560  174.1920  142.3590 C   0  0  0  0  0  3  0  0  0  0  0  0
  188.9600  174.2590  143.0610 N   0  0  0  0  0  0  0  0  0  0  0  0
  191.4880  175.4200  142.8210 C   0  0  0  0  0  3  0  0  0  0  0  0
  189.2370  175.4310  143.8970 C   0  0  2  0  0  3  0  0  0  0  0  0
  189.8870  173.6470  142.3790 C   0  0  0  0  0  0  0  0  0  0  0  0
  185.6130  177.7390  144.5750 C   0  0  0  0  0  0  0  0  0  0  0  0
  187.5180  176.4470  145.4230 C   0  0  0  0  0  3  0  0  0  0  0  0
  186.0940  177.4840  143.2820 C   0  0  0  0  0  0  0  0  0  0  0  0
  186.3490  177.2010  145.6490 C   0  0  0  0  0  3  0  0  0  0  0  0
  185.5790  177.8900  142.1100 N   0  0  0  0  0  0  0  0  0  0  0  0
  187.9780  176.2160  144.1150 C   0  0  0  0  0  0  0  0  0  0  0  0
  186.2840  177.5520  139.7400 C   0  0  0  0  0  1  0  0  0  0  0  0
  187.2280  176.7550  143.0620 C   0  0  0  0  0  0  0  0  0  0  0  0
  186.4470  177.3680  141.2060 C   0  0  0  0  0  0  0  0  0  0  0  0
  187.4750  176.6640  141.7450 N   0  0  0  0  0  2  0  0  0  0  0  0
  183.6580  178.9180  143.8910 O   0  0  0  0  0  0  0  0  0  0  0  0
  184.0560  178.8720  146.1410 O   0  0  0  0  0  1  0  0  0  0  0  0
  184.3990  178.5360  144.8370 C   0  0  0  0  0  0  0  0  0  0  0  0
  189.4440  172.3540  140.3340 C   0  0  0  0  0  3  0  0  0  0  0  0
  189.6050  172.4600  141.6210 N   0  0  0  0  0  0  0  0  0  0  0  0
  190.2920  173.4210  137.1430 C   0  0  0  0  0  2  0  0  0  0  0  0
  189.4980  173.5000  139.3720 C   0  0  1  0  0  3  0  0  0  0  0  0
  190.7630  173.4170  138.5770 C   0  0  0  0  0  2  0  0  0  0  0  0
  187.7380  174.5680  138.1910 F   0  0  0  0  0  0  0  0  0  0  0  0
  188.3980  173.3600  138.3400 C   0  0  1  0  0  3  0  0  0  0  0  0
  188.9610  172.9760  137.1110 O   0  0  0  0  0  0  0  0  0  0  0  0
  190.8490  177.3200  144.3010 C   0  0  0  0  0  2  0  0  0  0  0  0
  191.7510  175.9680  146.2810 C   0  0  0  0  0  1  0  0  0  0  0  0
  193.2210  177.0790  144.6550 N   0  0  0  0  0  0  0  0  0  0  0  0
  192.0180  176.8030  145.0710 C   0  0  0  0  0  0  0  0  0  0  0  0
  194.4680  176.6700  145.2390 C   0  0  0  0  0  0  0  0  0  0  0  0
  194.9160  177.2060  146.2870 O   0  0  0  0  0  0  0  0  0  0  0  0
  195.2480  175.5830  144.5850 C   0  0  0  0  0  2  0  0  0  0  0  0
  195.2460  174.3310  145.4600 C   0  0  2  0  0  3  0  0  0  0  0  0
  197.5890  174.4020  144.9380 O   0  0  0  0  0  1  0  0  0  0  0  0
  196.8230  172.5020  146.1300 C   0  0  0  0  0  1  0  0  0  0  0  0
  196.6690  173.9990  145.9080 C   0  0  2  0  0  3  0  0  0  0  0  0
  194.6460  173.1600  144.6840 C   0  0  0  0  0  2  0  0  0  0  0  0
  193.2160  172.8720  145.1130 C   0  0  0  0  0  2  0  0  0  0  0  0
  192.7510  171.6350  144.5090 N   0  0  0  0  0  2  0  0  0  0  0  0
  193.7580  171.2420  143.5420 C   0  0  0  0  0  1  0  0  0  0  0  0
  1  5  1  0  0  0  0
  1 28  1  1  0  0  0
  2  6  1  0  0  0  0
  2  4  2  0  0  0  0
  3  5  1  0  0  0  0
  4  1  1  0  0  0  0
  5 12  1  6  0  0  0
  6  3  2  0  0  0  0
  7 19  1  0  0  0  0
  7 10  1  0  0  0  0
  8 10  2  0  0  0  0
  9  7  2  0  0  0  0
 11  9  1  0  0  0  0
 12  8  1  0  0  0  0
 13 15  1  0  0  0  0
 14  9  1  0  0  0  0
 14 12  2  0  0  0  0
 15 16  1  0  0  0  0
 15 11  2  0  0  0  0
 16 14  1  0  0  0  0
 17 19  2  0  0  0  0
 19 18  1  0  0  0  0
 20 21  2  0  0  0  0
 21  6  1  0  0  0  0
 22 24  1  0  0  0  0
 23 20  1  1  0  0  0
 24 23  1  0  0  0  0
 26 25  1  6  0  0  0
 26 23  1  0  0  0  0
 27 22  1  0  0  0  0
 27 26  1  0  0  0  0
 28 31  1  0  0  0  0
 30 31  2  0  0  0  0
 30 32  1  0  0  0  0
 31 29  1  0  0  0  0
 32 33  2  0  0  0  0
 34 32  1  0  0  0  0
 35 34  1  6  0  0  0
 35 38  1  0  0  0  0
 36 38  1  0  0  0  0
 38 37  1  6  0  0  0
 39 40  1  0  0  0  0
 39 35  1  0  0  0  0
 41 40  1  0  0  0  0
 42 41  1  0  0  0  0
M  END
>  <MODEL>
6

>  <REMARK>
 VINA RESULT:      -6.7      1.767      7.927
  Name = 
  13 active torsions:
  status: ('A' for Active; 'I' for Inactive)
    1  A    between atoms: C_1  and  C_27
    2  A    between atoms: C_3  and  C_22
    3  A    between atoms: N_6  and  C_21
    4  A    between atoms: C_7  and  C_9
    5  A    between atoms: C_15  and  C_25
    6  A    between atoms: C_15  and  C_36
    7  A    between atoms: C_16  and  C_21
    8  A    between atoms: C_16  and  C_25
    9  A    between atoms: C_18  and  C_32
   10  A    between atoms: N_20  and  C_26
   11  A    between atoms: C_22  and  C_34
   12  A    between atoms: C_25  and  C_35
   13  A    between atoms: N_30  and  C_36
                            x       y       z     vdW  Elec       q    Type
                         _______ _______ _______ _____ _____    ______ ____

>  <TORSDO>
F 13

$$$$
=
 OpenBabel11042419213D

 42 45  0  0  1  0  0  0  0  0999 V2000
  190.7590  176.3880  142.9600 C   0  0  1  0  0  3  0  0  0  0  0  0
  191.4930  174.1360  142.2620 C   0  0  0  0  0  3  0  0  0  0  0  0
  189.1900  174.4750  142.8540 N   0  0  0  0  0  0  0  0  0  0  0  0
  191.8240  175.3760  142.6220 C   0  0  0  0  0  3  0  0  0  0  0  0
  189.5470  175.6900  143.5930 C   0  0  2  0  0  3  0  0  0  0  0  0
  190.0790  173.7210  142.2710 C   0  0  0  0  0  0  0  0  0  0  0  0
  186.1380  178.3750  143.8980 C   0  0  0  0  0  0  0  0  0  0  0  0
  187.9810  177.1280  144.9320 C   0  0  0  0  0  3  0  0  0  0  0  0
  186.5380  177.8260  142.6700 C   0  0  0  0  0  0  0  0  0  0  0  0
  186.8820  178.0050  145.0370 C   0  0  0  0  0  3  0  0  0  0  0  0
  186.0000  178.0290  141.4570 N   0  0  0  0  0  0  0  0  0  0  0  0
  188.3610  176.6030  143.6860 C   0  0  0  0  0  0  0  0  0  0  0  0
  186.5660  177.1660  139.1850 C   0  0  0  0  0  1  0  0  0  0  0  0
  187.6040  176.9780  142.5690 C   0  0  0  0  0  0  0  0  0  0  0  0
  186.7840  177.2680  140.6520 C   0  0  0  0  0  0  0  0  0  0  0  0
  187.7810  176.6050  141.2910 N   0  0  0  0  0  2  0  0  0  0  0  0
  185.1870  180.5290  144.2620 O   0  0  0  0  0  1  0  0  0  0  0  0
  183.6990  178.8340  143.8950 O   0  0  0  0  0  0  0  0  0  0  0  0
  184.9990  179.3040  144.0300 C   0  0  0  0  0  0  0  0  0  0  0  0
  189.4830  172.3160  140.3420 C   0  0  0  0  0  3  0  0  0  0  0  0
  189.7140  172.5000  141.6090 N   0  0  0  0  0  0  0  0  0  0  0  0
  190.5240  173.2280  137.1600 C   0  0  0  0  0  2  0  0  0  0  0  0
  189.5310  173.3930  139.3030 C   0  0  1  0  0  3  0  0  0  0  0  0
  190.8640  173.3630  138.6240 C   0  0  0  0  0  2  0  0  0  0  0  0
  187.8030  174.2200  137.9020 F   0  0  0  0  0  0  0  0  0  0  0  0
  188.5420  173.0870  138.1970 C   0  0  1  0  0  3  0  0  0  0  0  0
  189.2410  172.6690  137.0520 O   0  0  0  0  0  0  0  0  0  0  0  0
  191.3150  177.4550  143.8970 C   0  0  0  0  0  2  0  0  0  0  0  0
  191.6190  176.0710  146.0320 C   0  0  0  0  0  1  0  0  0  0  0  0
  193.5110  177.0330  144.7950 N   0  0  0  0  0  0  0  0  0  0  0  0
  192.2270  176.8600  144.9190 C   0  0  0  0  0  0  0  0  0  0  0  0
  194.5510  176.5370  145.6540 C   0  0  0  0  0  0  0  0  0  0  0  0
  194.5660  176.7880  146.8880 O   0  0  0  0  0  0  0  0  0  0  0  0
  195.6370  175.7050  145.0640 C   0  0  0  0  0  2  0  0  0  0  0  0
  195.0410  174.5610  144.2470 C   0  0  2  0  0  3  0  0  0  0  0  0
  194.3550  172.7210  145.6300 O   0  0  0  0  0  1  0  0  0  0  0  0
  196.6300  173.3690  145.7760 C   0  0  0  0  0  1  0  0  0  0  0  0
  195.4170  173.2170  144.8710 C   0  0  2  0  0  3  0  0  0  0  0  0
  195.5460  174.6390  142.8070 C   0  0  0  0  0  2  0  0  0  0  0  0
  196.4730  175.8250  142.5970 C   0  0  0  0  0  2  0  0  0  0  0  0
  196.0580  176.5840  141.4300 N   0  0  0  0  0  2  0  0  0  0  0  0
  196.0770  175.6640  140.3090 C   0  0  0  0  0  1  0  0  0  0  0  0
  1  5  1  0  0  0  0
  1 28  1  1  0  0  0
  2  6  1  0  0  0  0
  2  4  2  0  0  0  0
  3  5  1  0  0  0  0
  4  1  1  0  0  0  0
  5 12  1  6  0  0  0
  6  3  2  0  0  0  0
  7 19  1  0  0  0  0
  7 10  1  0  0  0  0
  8 10  2  0  0  0  0
  9  7  2  0  0  0  0
 11  9  1  0  0  0  0
 12  8  1  0  0  0  0
 13 15  1  0  0  0  0
 14  9  1  0  0  0  0
 14 12  2  0  0  0  0
 15 16  1  0  0  0  0
 15 11  2  0  0  0  0
 16 14  1  0  0  0  0
 18 19  2  0  0  0  0
 19 17  1  0  0  0  0
 20 21  2  0  0  0  0
 21  6  1  0  0  0  0
 22 24  1  0  0  0  0
 23 20  1  1  0  0  0
 24 23  1  0  0  0  0
 26 25  1  6  0  0  0
 26 23  1  0  0  0  0
 27 22  1  0  0  0  0
 27 26  1  0  0  0  0
 28 31  1  0  0  0  0
 30 31  2  0  0  0  0
 30 32  1  0  0  0  0
 31 29  1  0  0  0  0
 32 33  2  0  0  0  0
 34 32  1  0  0  0  0
 35 39  1  6  0  0  0
 35 38  1  0  0  0  0
 35 34  1  0  0  0  0
 38 36  1  0  0  0  0
 38 37  1  1  0  0  0
 40 39  1  0  0  0  0
 41 40  1  0  0  0  0
 42 41  1  0  0  0  0
M  END
>  <MODEL>
7

>  <REMARK>
 VINA RESULT:      -6.6      1.846      7.809
  Name = 
  13 active torsions:
  status: ('A' for Active; 'I' for Inactive)
    1  A    between atoms: C_1  and  C_27
    2  A    between atoms: C_3  and  C_22
    3  A    between atoms: N_6  and  C_21
    4  A    between atoms: C_7  and  C_9
    5  A    between atoms: C_15  and  C_25
    6  A    between atoms: C_15  and  C_36
    7  A    between atoms: C_16  and  C_21
    8  A    between atoms: C_16  and  C_25
    9  A    between atoms: C_18  and  C_32
   10  A    between atoms: N_20  and  C_26
   11  A    between atoms: C_22  and  C_34
   12  A    between atoms: C_25  and  C_35
   13  A    between atoms: N_30  and  C_36
                            x       y       z     vdW  Elec       q    Type
                         _______ _______ _______ _____ _____    ______ ____

>  <TORSDO>
F 13

$$$$
=
 OpenBabel11042419213D

 42 45  0  0  1  0  0  0  0  0999 V2000
  191.3270  176.1090  143.8340 C   0  0  1  0  0  3  0  0  0  0  0  0
  189.7160  177.5470  145.0330 C   0  0  0  0  0  3  0  0  0  0  0  0
  188.9310  175.5130  144.0260 N   0  0  0  0  0  0  0  0  0  0  0  0
  190.9350  177.3960  144.5150 C   0  0  0  0  0  3  0  0  0  0  0  0
  190.1050  175.4800  143.1490 C   0  0  2  0  0  3  0  0  0  0  0  0
  188.7120  176.4810  144.8700 C   0  0  0  0  0  0  0  0  0  0  0  0
  190.8750  171.3810  141.9140 C   0  0  0  0  0  0  0  0  0  0  0  0
  191.0650  173.1940  143.5560 C   0  0  0  0  0  3  0  0  0  0  0  0
  190.1980  172.2870  141.0840 C   0  0  0  0  0  0  0  0  0  0  0  0
  191.3110  171.8610  143.1650 C   0  0  0  0  0  3  0  0  0  0  0  0
  189.6850  172.0680  139.8630 N   0  0  0  0  0  0  0  0  0  0  0  0
  190.3760  174.0740  142.7040 C   0  0  0  0  0  0  0  0  0  0  0  0
  188.4550  173.5260  138.2550 C   0  0  0  0  0  1  0  0  0  0  0  0
  189.9590  173.5770  141.4640 C   0  0  0  0  0  0  0  0  0  0  0  0
  189.1460  173.2730  139.5450 C   0  0  0  0  0  0  0  0  0  0  0  0
  189.2900  174.2290  140.4980 N   0  0  0  0  0  2  0  0  0  0  0  0
  190.4420  169.0390  142.0110 O   0  0  0  0  0  1  0  0  0  0  0  0
  192.1470  169.6790  140.6300 O   0  0  0  0  0  0  0  0  0  0  0  0
  191.1330  169.9790  141.5320 C   0  0  0  0  0  0  0  0  0  0  0  0
  186.4300  177.1980  145.4440 C   0  0  0  0  0  3  0  0  0  0  0  0
  187.5210  176.5270  145.6720 N   0  0  0  0  0  0  0  0  0  0  0  0
  184.3820  178.0500  142.7760 C   0  0  0  0  0  2  0  0  0  0  0  0
  186.2170  178.1040  144.2710 C   0  0  1  0  0  3  0  0  0  0  0  0
  185.6480  177.3120  143.1350 C   0  0  0  0  0  2  0  0  0  0  0  0
  185.5650  180.3850  144.2210 F   0  0  0  0  0  0  0  0  0  0  0  0
  185.1410  179.1210  144.5930 C   0  0  1  0  0  3  0  0  0  0  0  0
  183.9670  178.7920  143.8940 O   0  0  0  0  0  0  0  0  0  0  0  0
  192.4410  176.3580  142.8230 C   0  0  0  0  0  2  0  0  0  0  0  0
  193.8460  175.5080  144.7910 C   0  0  0  0  0  1  0  0  0  0  0  0
  194.8490  176.3850  142.7260 N   0  0  0  0  0  0  0  0  0  0  0  0
  193.7850  176.1010  143.4210 C   0  0  0  0  0  0  0  0  0  0  0  0
  196.2220  176.2040  143.1090 C   0  0  0  0  0  0  0  0  0  0  0  0
  196.9290  177.1650  143.5140 O   0  0  0  0  0  0  0  0  0  0  0  0
  196.8210  174.8430  143.0240 C   0  0  0  0  0  2  0  0  0  0  0  0
  196.4520  174.1860  141.6950 C   0  0  2  0  0  3  0  0  0  0  0  0
  196.2340  171.8070  141.4520 O   0  0  0  0  0  1  0  0  0  0  0  0
  194.2470  173.0830  141.2450 C   0  0  0  0  0  1  0  0  0  0  0  0
  195.5920  172.9460  141.9420 C   0  0  2  0  0  3  0  0  0  0  0  0
  197.7230  173.8090  140.9360 C   0  0  0  0  0  2  0  0  0  0  0  0
  197.8270  174.5440  139.6090 C   0  0  0  0  0  2  0  0  0  0  0  0
  196.6080  175.2910  139.3520 N   0  0  0  0  0  2  0  0  0  0  0  0
  196.1620  174.9130  138.0250 C   0  0  0  0  0  1  0  0  0  0  0  0
  1 28  1  6  0  0  0
  1  4  1  0  0  0  0
  3  6  2  0  0  0  0
  4  2  2  0  0  0  0
  5 12  1  1  0  0  0
  5  1  1  0  0  0  0
  5  3  1  0  0  0  0
  6  2  1  0  0  0  0
  6 21  1  0  0  0  0
  7 10  1  0  0  0  0
  9 14  1  0  0  0  0
  9  7  2  0  0  0  0
 10  8  2  0  0  0  0
 11  9  1  0  0  0  0
 12  8  1  0  0  0  0
 13 15  1  0  0  0  0
 14 12  2  0  0  0  0
 15 11  2  0  0  0  0
 15 16  1  0  0  0  0
 16 14  1  0  0  0  0
 18 19  2  0  0  0  0
 19  7  1  0  0  0  0
 19 17  1  0  0  0  0
 20 21  2  0  0  0  0
 22 24  1  0  0  0  0
 22 27  1  0  0  0  0
 23 26  1  0  0  0  0
 23 20  1  1  0  0  0
 24 23  1  0  0  0  0
 26 25  1  6  0  0  0
 27 26  1  0  0  0  0
 28 31  1  0  0  0  0
 30 32  1  0  0  0  0
 30 31  2  0  0  0  0
 31 29  1  0  0  0  0
 32 33  2  0  0  0  0
 34 32  1  0  0  0  0
 35 39  1  1  0  0  0
 35 38  1  0  0  0  0
 35 34  1  0  0  0  0
 36 38  1  0  0  0  0
 38 37  1  6  0  0  0
 40 39  1  0  0  0  0
 41 40  1  0  0  0  0
 42 41  1  0  0  0  0
M  END
>  <MODEL>
8

>  <REMARK>
 VINA RESULT:      -6.6      2.932      8.161
  Name = 
  13 active torsions:
  status: ('A' for Active; 'I' for Inactive)
    1  A    between atoms: C_1  and  C_27
    2  A    between atoms: C_3  and  C_22
    3  A    between atoms: N_6  and  C_21
    4  A    between atoms: C_7  and  C_9
    5  A    between atoms: C_15  and  C_25
    6  A    between atoms: C_15  and  C_36
    7  A    between atoms: C_16  and  C_21
    8  A    between atoms: C_16  and  C_25
    9  A    between atoms: C_18  and  C_32
   10  A    between atoms: N_20  and  C_26
   11  A    between atoms: C_22  and  C_34
   12  A    between atoms: C_25  and  C_35
   13  A    between atoms: N_30  and  C_36
                            x       y       z     vdW  Elec       q    Type
                         _______ _______ _______ _____ _____    ______ ____

>  <TORSDO>
F 13

$$$$
=
 OpenBabel11042419213D

 42 45  0  0  1  0  0  0  0  0999 V2000
  190.3060  176.4660  143.0630 C   0  0  1  0  0  3  0  0  0  0  0  0
  188.2400  177.7890  143.3470 C   0  0  0  0  0  3  0  0  0  0  0  0
  188.0620  175.4790  142.7120 N   0  0  0  0  0  0  0  0  0  0  0  0
  189.5690  177.7670  143.2530 C   0  0  0  0  0  3  0  0  0  0  0  0
  189.4510  175.4890  142.2430 C   0  0  2  0  0  3  0  0  0  0  0  0
  187.4720  176.5420  143.1830 C   0  0  0  0  0  0  0  0  0  0  0  0
  191.0370  171.4400  142.3580 C   0  0  0  0  0  0  0  0  0  0  0  0
  190.2340  173.4580  143.4990 C   0  0  0  0  0  3  0  0  0  0  0  0
  190.8120  172.1110  141.1460 C   0  0  0  0  0  0  0  0  0  0  0  0
  190.7410  172.1430  143.5420 C   0  0  0  0  0  3  0  0  0  0  0  0
  191.0080  171.6560  139.8980 N   0  0  0  0  0  0  0  0  0  0  0  0
  190.0120  174.0980  142.2680 C   0  0  0  0  0  0  0  0  0  0  0  0
  190.6630  172.6770  137.6470 C   0  0  0  0  0  1  0  0  0  0  0  0
  190.3200  173.3840  141.1040 C   0  0  0  0  0  0  0  0  0  0  0  0
  190.6190  172.7070  139.1330 C   0  0  0  0  0  0  0  0  0  0  0  0
  190.1890  173.7900  139.8290 N   0  0  0  0  0  2  0  0  0  0  0  0
  192.6800  169.8160  142.9430 O   0  0  0  0  0  1  0  0  0  0  0  0
  190.8000  169.0080  141.9250 O   0  0  0  0  0  0  0  0  0  0  0  0
  191.5550  170.0600  142.4280 C   0  0  0  0  0  0  0  0  0  0  0  0
  185.5350  177.1490  144.5730 C   0  0  0  0  0  3  0  0  0  0  0  0
  186.0910  176.5260  143.5740 N   0  0  0  0  0  0  0  0  0  0  0  0
  185.4490  178.7730  147.6380 C   0  0  0  0  0  2  0  0  0  0  0  0
  186.2700  178.0110  145.5520 C   0  0  1  0  0  3  0  0  0  0  0  0
  185.3170  178.9980  146.1510 C   0  0  0  0  0  2  0  0  0  0  0  0
  188.0580  177.4560  147.0110 F   0  0  0  0  0  0  0  0  0  0  0  0
  186.7320  177.1760  146.7290 C   0  0  1  0  0  3  0  0  0  0  0  0
  185.9380  177.4750  147.8500 O   0  0  0  0  0  0  0  0  0  0  0  0
  191.6490  176.7060  142.3810 C   0  0  0  0  0  2  0  0  0  0  0  0
  193.8370  175.4600  142.8540 C   0  0  0  0  0  1  0  0  0  0  0  0
  192.8330  177.0290  144.4550 N   0  0  0  0  0  0  0  0  0  0  0  0
  192.7860  176.4210  143.3050 C   0  0  0  0  0  0  0  0  0  0  0  0
  193.8390  176.9070  145.4740 C   0  0  0  0  0  0  0  0  0  0  0  0
  194.9110  177.5660  145.4290 O   0  0  0  0  0  0  0  0  0  0  0  0
  193.6030  175.9760  146.6120 C   0  0  0  0  0  2  0  0  0  0  0  0
  192.3310  175.1640  146.3750 C   0  0  2  0  0  3  0  0  0  0  0  0
  190.0900  174.9160  147.2030 O   0  0  0  0  0  1  0  0  0  0  0  0
  191.3250  176.7690  148.0170 C   0  0  0  0  0  1  0  0  0  0  0  0
  191.3780  175.3190  147.5610 C   0  0  2  0  0  3  0  0  0  0  0  0
  192.6890  173.6930  146.1690 C   0  0  0  0  0  2  0  0  0  0  0  0
  194.1440  173.5170  145.7640 C   0  0  0  0  0  2  0  0  0  0  0  0
  194.4950  172.1080  145.7560 N   0  0  0  0  0  2  0  0  0  0  0  0
  195.8780  172.0280  145.3240 C   0  0  0  0  0  1  0  0  0  0  0  0
  1 28  1  6  0  0  0
  1  4  1  0  0  0  0
  3  6  2  0  0  0  0
  4  2  2  0  0  0  0
  5 12  1  1  0  0  0
  5  3  1  0  0  0  0
  5  1  1  0  0  0  0
  6  2  1  0  0  0  0
  6 21  1  0  0  0  0
  7 19  1  0  0  0  0
  7 10  1  0  0  0  0
  8 10  2  0  0  0  0
  9  7  2  0  0  0  0
 11  9  1  0  0  0  0
 12  8  1  0  0  0  0
 13 15  1  0  0  0  0
 14  9  1  0  0  0  0
 14 12  2  0  0  0  0
 15 16  1  0  0  0  0
 15 11  2  0  0  0  0
 16 14  1  0  0  0  0
 18 19  2  0  0  0  0
 19 17  1  0  0  0  0
 21 20  2  0  0  0  0
 22 27  1  0  0  0  0
 23 20  1  6  0  0  0
 23 24  1  0  0  0  0
 23 26  1  0  0  0  0
 24 22  1  0  0  0  0
 26 25  1  1  0  0  0
 26 27  1  0  0  0  0
 28 31  1  0  0  0  0
 29 31  1  0  0  0  0
 30 32  1  0  0  0  0
 31 30  2  0  0  0  0
 32 34  1  0  0  0  0
 33 32  2  0  0  0  0
 35 39  1  1  0  0  0
 35 34  1  0  0  0  0
 35 38  1  0  0  0  0
 36 38  1  0  0  0  0
 38 37  1  6  0  0  0
 40 39  1  0  0  0  0
 41 40  1  0  0  0  0
 42 41  1  0  0  0  0
M  END
>  <MODEL>
9

>  <REMARK>
 VINA RESULT:      -6.5      2.942      7.211
  Name = 
  13 active torsions:
  status: ('A' for Active; 'I' for Inactive)
    1  A    between atoms: C_1  and  C_27
    2  A    between atoms: C_3  and  C_22
    3  A    between atoms: N_6  and  C_21
    4  A    between atoms: C_7  and  C_9
    5  A    between atoms: C_15  and  C_25
    6  A    between atoms: C_15  and  C_36
    7  A    between atoms: C_16  and  C_21
    8  A    between atoms: C_16  and  C_25
    9  A    between atoms: C_18  and  C_32
   10  A    between atoms: N_20  and  C_26
   11  A    between atoms: C_22  and  C_34
   12  A    between atoms: C_25  and  C_35
   13  A    between atoms: N_30  and  C_36
                            x       y       z     vdW  Elec       q    Type
                         _______ _______ _______ _____ _____    ______ ____

>  <TORSDO>
F 13

$$$$
