=
 OpenBabel11042414113D

 49 55  0  0  1  0  0  0  0  0999 V2000
  185.9170  178.6010  143.6100 S   0  0  0  0  0  0  0  0  0  0  0  0
  187.3150  173.8740  142.3340 O   0  0  0  0  0  0  0  0  0  0  0  0
  187.3740  176.9630  145.0490 N   0  0  0  0  0  0  0  0  0  0  0  0
  193.1720  171.2090  144.5410 C   0  0  0  0  0  3  0  0  0  0  0  0
  192.4780  175.2100  146.9100 C   0  0  0  0  0  2  0  0  0  0  0  0
  189.7420  173.8700  142.2170 C   0  0  1  0  0  3  0  0  0  0  0  0
  187.1430  177.2720  143.6490 C   0  0  1  0  0  3  0  0  0  0  0  0
  185.8850  178.6530  145.4270 C   0  0  2  0  0  3  0  0  0  0  0  0
  188.6480  176.5100  145.5160 C   0  0  0  0  0  0  0  0  0  0  0  0
  186.4130  177.4070  145.9590 N   0  0  0  0  0  2  0  0  0  0  0  0
  188.8140  174.6950  140.0580 C   0  0  0  0  0  3  0  0  0  0  0  0
  189.7920  177.0950  145.0470 N   0  0  0  0  0  0  0  0  0  0  0  0
  191.0200  176.7080  145.4940 C   0  0  0  0  0  3  0  0  0  0  0  0
  191.1370  175.6790  146.4360 C   0  0  0  0  0  0  0  0  0  0  0  0
  188.7220  175.4910  146.4800 C   0  0  0  0  0  3  0  0  0  0  0  0
  187.5810  175.2510  142.2020 C   0  0  1  0  0  0  0  0  0  0  0  0
  184.4640  178.8680  145.9060 C   0  0  0  0  0  1  0  0  0  0  0  0
  186.5400  176.0560  142.9570 C   0  0  0  0  0  2  0  0  0  0  0  0
  189.6700  173.8960  140.6960 C   0  0  0  0  0  0  0  0  0  0  0  0
  192.9260  173.5670  145.0590 C   0  0  0  0  0  0  0  0  0  0  0  0
  189.9750  175.0720  146.9330 C   0  0  0  0  0  3  0  0  0  0  0  0
  188.4850  174.3570  142.9670 C   0  0  1  0  0  3  0  0  0  0  0  0
  191.7880  173.6080  144.2470 C   0  0  0  0  0  3  0  0  0  0  0  0
  190.0850  172.4810  142.7550 C   0  0  0  0  0  2  0  0  0  0  0  0
  192.0320  171.2620  143.7360 C   0  0  0  0  0  3  0  0  0  0  0  0
  187.8930  175.6440  140.7570 C   0  0  0  0  0  2  0  0  0  0  0  0
  193.6290  172.3600  145.2080 C   0  0  0  0  0  0  0  0  0  0  0  0
  191.3400  172.4640  143.5760 C   0  0  0  0  0  0  0  0  0  0  0  0
  193.3880  174.8190  145.7460 C   0  0  0  0  0  2  0  0  0  0  0  0
  190.3320  172.8350  138.6190 N   0  0  0  0  0  0  0  0  0  0  0  0
  190.6090  173.1500  139.8470 C   0  0  0  0  0  3  0  0  0  0  0  0
  190.5000  168.4110  137.7390 C   0  0  0  0  0  2  0  0  0  0  0  0
  191.0620  170.7050  137.4880 N   0  0  0  0  0  0  0  0  0  0  0  0
  191.2100  172.1190  137.7400 C   0  0  0  0  0  0  0  0  0  0  0  0
  191.3060  168.5870  136.4570 C   0  0  0  0  0  2  0  0  0  0  0  0
  190.2400  169.7980  138.2790 C   0  0  0  0  0  2  0  0  0  0  0  0
  191.7850  170.0260  136.4300 C   0  0  0  0  0  2  0  0  0  0  0  0
  192.1840  172.7680  137.1890 N   0  0  0  0  0  2  0  0  0  0  0  0
  194.7740  172.3230  146.0100 O   0  0  0  0  0  0  0  0  0  0  0  0
  196.0720  172.0660  145.4870 C   0  0  0  0  0  2  0  0  0  0  0  0
  196.9950  173.2340  145.7880 C   0  0  0  0  0  2  0  0  0  0  0  0
  197.5080  173.8330  144.4910 C   0  0  0  0  0  2  0  0  0  0  0  0
  195.8610  175.0610  143.0900 C   0  0  0  0  0  3  0  0  0  0  0  0
  196.6850  175.0370  144.1380 C   0  0  0  0  0  3  0  0  0  0  0  0
  195.6820  173.8850  142.1760 C   0  0  0  0  0  2  0  0  0  0  0  0
  194.2760  173.8560  141.6040 C   0  0  0  0  0  2  0  0  0  0  0  0
  194.9520  172.8140  139.4000 N   0  0  0  0  0  1  0  0  0  0  0  0
  194.3050  173.8680  140.1130 C   0  0  0  0  0  0  0  0  0  0  0  0
  193.7540  174.8060  139.4840 O   0  0  0  0  0  0  0  0  0  0  0  0
  1  7  1  0  0  0  0
  1  8  1  0  0  0  0
  3  9  1  0  0  0  0
  3 10  1  0  0  0  0
  4 27  1  0  0  0  0
  6 24  1  1  0  0  0
  6 22  1  0  0  0  0
  7 18  1  6  0  0  0
  7  3  1  0  0  0  0
  8 17  1  6  0  0  0
  8 10  1  0  0  0  0
  9 15  1  0  0  0  0
 11 19  2  0  0  0  0
 11 26  1  0  0  0  0
 12 13  1  0  0  0  0
 12  9  2  0  0  0  0
 13 14  2  0  0  0  0
 14  5  1  0  0  0  0
 14 21  1  0  0  0  0
 15 21  2  0  0  0  0
 16 26  1  6  0  0  0
 16  2  1  0  0  0  0
 16 18  1  0  0  0  0
 16 22  1  0  0  0  0
 19  6  1  0  0  0  0
 20 27  2  0  0  0  0
 20 29  1  0  0  0  0
 22  2  1  6  0  0  0
 23 20  1  0  0  0  0
 24 28  1  0  0  0  0
 25  4  2  0  0  0  0
 27 39  1  0  0  0  0
 28 25  1  0  0  0  0
 28 23  2  0  0  0  0
 29  5  1  0  0  0  0
 30 31  2  0  0  0  0
 31 19  1  0  0  0  0
 32 36  1  0  0  0  0
 33 34  1  0  0  0  0
 33 36  1  0  0  0  0
 34 30  1  0  0  0  0
 35 32  1  0  0  0  0
 37 35  1  0  0  0  0
 37 33  1  0  0  0  0
 38 34  2  0  0  0  0
 40 41  1  0  0  0  0
 40 39  1  0  0  0  0
 42 41  1  0  0  0  0
 43 44  2  0  0  0  0
 44 42  1  0  0  0  0
 45 43  1  0  0  0  0
 46 45  1  0  0  0  0
 47 48  1  0  0  0  0
 48 46  1  0  0  0  0
 49 48  2  0  0  0  0
M  END
>  <MODEL>
1

>  <REMARK>
 VINA RESULT:      -7.7      0.000      0.000
  Name = 
  10 active torsions:
  status: ('A' for Active; 'I' for Inactive)
    1  A    between atoms: C_8  and  C_24
    2  A    between atoms: C_8  and  O_32
    3  A    between atoms: C_9  and  C_14
    4  A    between atoms: C_9  and  C_31
    5  A    between atoms: N_11  and  C_16
    6  A    between atoms: C_15  and  C_17
    7  A    between atoms: C_17  and  C_24
    8  A    between atoms: C_31  and  C_44
    9  A    between atoms: O_32  and  C_45
   10  A    between atoms: C_34  and  C_46
                            x       y       z     vdW  Elec       q    Type
                         _______ _______ _______ _____ _____    ______ ____

>  <TORSDO>
F 10

$$$$
=
 OpenBabel11042414113D

 49 55  0  0  1  0  0  0  0  0999 V2000
  185.8350  178.5400  143.7060 S   0  0  0  0  0  0  0  0  0  0  0  0
  187.3010  173.8520  142.3620 O   0  0  0  0  0  0  0  0  0  0  0  0
  187.3260  176.9080  145.1160 N   0  0  0  0  0  0  0  0  0  0  0  0
  193.2120  171.2540  144.5030 C   0  0  0  0  0  3  0  0  0  0  0  0
  192.4680  175.2130  146.9260 C   0  0  0  0  0  2  0  0  0  0  0  0
  189.7270  173.8880  142.2320 C   0  0  1  0  0  3  0  0  0  0  0  0
  187.0830  177.2310  143.7210 C   0  0  1  0  0  3  0  0  0  0  0  0
  185.8130  178.5690  145.5230 C   0  0  2  0  0  3  0  0  0  0  0  0
  188.6100  176.4690  145.5700 C   0  0  0  0  0  0  0  0  0  0  0  0
  186.3640  177.3250  146.0360 N   0  0  0  0  0  2  0  0  0  0  0  0
  188.7740  174.7260  140.0880 C   0  0  0  0  0  3  0  0  0  0  0  0
  189.7420  177.0790  145.1020 N   0  0  0  0  0  0  0  0  0  0  0  0
  190.9790  176.7050  145.5370 C   0  0  0  0  0  3  0  0  0  0  0  0
  191.1170  175.6670  146.4660 C   0  0  0  0  0  0  0  0  0  0  0  0
  188.7060  175.4400  146.5210 C   0  0  0  0  0  3  0  0  0  0  0  0
  187.5440  175.2350  142.2460 C   0  0  1  0  0  0  0  0  0  0  0  0
  184.3910  178.7550  146.0130 C   0  0  0  0  0  1  0  0  0  0  0  0
  186.4950  176.0140  143.0170 C   0  0  0  0  0  2  0  0  0  0  0  0
  189.6460  173.9330  140.7110 C   0  0  0  0  0  0  0  0  0  0  0  0
  192.9320  173.6010  145.0520 C   0  0  0  0  0  0  0  0  0  0  0  0
  189.9680  175.0350  146.9610 C   0  0  0  0  0  3  0  0  0  0  0  0
  188.4670  174.3460  142.9950 C   0  0  1  0  0  3  0  0  0  0  0  0
  191.7890  173.6340  144.2470 C   0  0  0  0  0  3  0  0  0  0  0  0
  190.0950  172.4980  142.7500 C   0  0  0  0  0  2  0  0  0  0  0  0
  192.0670  171.2990  143.7050 C   0  0  0  0  0  3  0  0  0  0  0  0
  187.8410  175.6510  140.8050 C   0  0  0  0  0  2  0  0  0  0  0  0
  193.6540  172.4040  145.1820 C   0  0  0  0  0  0  0  0  0  0  0  0
  191.3550  172.4910  143.5640 C   0  0  0  0  0  0  0  0  0  0  0  0
  193.3780  174.8510  145.7520 C   0  0  0  0  0  2  0  0  0  0  0  0
  191.1450  173.7670  138.8140 N   0  0  0  0  0  0  0  0  0  0  0  0
  190.5920  173.2120  139.8480 C   0  0  0  0  0  3  0  0  0  0  0  0
  195.4280  174.8690  137.9080 C   0  0  0  0  0  2  0  0  0  0  0  0
  193.4610  173.5400  137.8450 N   0  0  0  0  0  0  0  0  0  0  0  0
  192.0830  173.1200  137.9420 C   0  0  0  0  0  0  0  0  0  0  0  0
  195.7730  173.4990  137.3360 C   0  0  0  0  0  2  0  0  0  0  0  0
  193.9870  174.7990  138.3570 C   0  0  0  0  0  2  0  0  0  0  0  0
  194.4650  172.7530  137.1550 C   0  0  0  0  0  2  0  0  0  0  0  0
  191.6550  172.1510  137.1990 N   0  0  0  0  0  2  0  0  0  0  0  0
  194.8050  172.3750  145.9770 O   0  0  0  0  0  0  0  0  0  0  0  0
  196.1160  172.2850  145.4310 C   0  0  0  0  0  2  0  0  0  0  0  0
  196.8820  173.5690  145.7030 C   0  0  0  0  0  2  0  0  0  0  0  0
  197.3490  174.1770  144.3930 C   0  0  0  0  0  2  0  0  0  0  0  0
  195.7160  175.2300  142.8410 C   0  0  0  0  0  3  0  0  0  0  0  0
  196.4020  175.2660  143.9840 C   0  0  0  0  0  3  0  0  0  0  0  0
  195.8270  174.0940  141.8680 C   0  0  0  0  0  2  0  0  0  0  0  0
  194.4860  173.4080  141.6850 C   0  0  0  0  0  2  0  0  0  0  0  0
  195.9310  171.6860  140.5230 N   0  0  0  0  0  1  0  0  0  0  0  0
  194.6350  172.1360  140.9200 C   0  0  0  0  0  0  0  0  0  0  0  0
  193.6190  171.4580  140.6280 O   0  0  0  0  0  0  0  0  0  0  0  0
  1  7  1  0  0  0  0
  1  8  1  0  0  0  0
  3  9  1  0  0  0  0
  3 10  1  0  0  0  0
  4 27  1  0  0  0  0
  6 24  1  6  0  0  0
  6 22  1  0  0  0  0
  7 18  1  6  0  0  0
  7  3  1  0  0  0  0
  8 17  1  6  0  0  0
  8 10  1  0  0  0  0
  9 15  1  0  0  0  0
 11 19  2  0  0  0  0
 11 26  1  0  0  0  0
 12 13  1  0  0  0  0
 12  9  2  0  0  0  0
 13 14  2  0  0  0  0
 14  5  1  0  0  0  0
 14 21  1  0  0  0  0
 15 21  2  0  0  0  0
 16 26  1  6  0  0  0
 16  2  1  0  0  0  0
 16 22  1  0  0  0  0
 16 18  1  0  0  0  0
 19  6  1  0  0  0  0
 20 27  2  0  0  0  0
 20 29  1  0  0  0  0
 22  2  1  6  0  0  0
 23 20  1  0  0  0  0
 24 28  1  0  0  0  0
 25  4  2  0  0  0  0
 27 39  1  0  0  0  0
 28 25  1  0  0  0  0
 28 23  2  0  0  0  0
 29  5  1  0  0  0  0
 30 31  2  0  0  0  0
 31 19  1  0  0  0  0
 32 36  1  0  0  0  0
 33 34  1  0  0  0  0
 33 36  1  0  0  0  0
 34 30  1  0  0  0  0
 35 32  1  0  0  0  0
 37 35  1  0  0  0  0
 37 33  1  0  0  0  0
 38 34  2  0  0  0  0
 40 41  1  0  0  0  0
 40 39  1  0  0  0  0
 42 41  1  0  0  0  0
 43 44  2  0  0  0  0
 44 42  1  0  0  0  0
 45 43  1  0  0  0  0
 46 45  1  0  0  0  0
 47 48  1  0  0  0  0
 48 46  1  0  0  0  0
 49 48  2  0  0  0  0
M  END
>  <MODEL>
2

>  <REMARK>
 VINA RESULT:      -7.7      1.434      2.041
  Name = 
  10 active torsions:
  status: ('A' for Active; 'I' for Inactive)
    1  A    between atoms: C_8  and  C_24
    2  A    between atoms: C_8  and  O_32
    3  A    between atoms: C_9  and  C_14
    4  A    between atoms: C_9  and  C_31
    5  A    between atoms: N_11  and  C_16
    6  A    between atoms: C_15  and  C_17
    7  A    between atoms: C_17  and  C_24
    8  A    between atoms: C_31  and  C_44
    9  A    between atoms: O_32  and  C_45
   10  A    between atoms: C_34  and  C_46
                            x       y       z     vdW  Elec       q    Type
                         _______ _______ _______ _____ _____    ______ ____

>  <TORSDO>
F 10

$$$$
=
 OpenBabel11042414113D

 49 55  0  0  1  0  0  0  0  0999 V2000
  185.9460  178.7030  143.8190 S   0  0  0  0  0  0  0  0  0  0  0  0
  187.1550  173.9760  142.3620 O   0  0  0  0  0  0  0  0  0  0  0  0
  187.3810  176.9730  145.1700 N   0  0  0  0  0  0  0  0  0  0  0  0
  192.9680  171.0510  144.3410 C   0  0  0  0  0  3  0  0  0  0  0  0
  192.4650  174.9940  146.8500 C   0  0  0  0  0  2  0  0  0  0  0  0
  189.5760  173.8960  142.1850 C   0  0  1  0  0  3  0  0  0  0  0  0
  187.1280  177.3340  143.7860 C   0  0  1  0  0  3  0  0  0  0  0  0
  185.9590  178.6980  145.6360 C   0  0  2  0  0  3  0  0  0  0  0  0
  188.6500  176.4640  145.5910 C   0  0  0  0  0  0  0  0  0  0  0  0
  186.4570  177.4190  146.1160 N   0  0  0  0  0  2  0  0  0  0  0  0
  188.6270  174.8200  140.0760 C   0  0  0  0  0  3  0  0  0  0  0  0
  189.8010  177.0260  145.1120 N   0  0  0  0  0  0  0  0  0  0  0  0
  191.0260  176.5840  145.5170 C   0  0  0  0  0  3  0  0  0  0  0  0
  191.1300  175.5230  146.4240 C   0  0  0  0  0  0  0  0  0  0  0  0
  188.7120  175.4130  146.5210 C   0  0  0  0  0  3  0  0  0  0  0  0
  187.4630  175.3470  142.2660 C   0  0  1  0  0  0  0  0  0  0  0  0
  184.5580  178.9440  146.1560 C   0  0  0  0  0  1  0  0  0  0  0  0
  186.4680  176.1610  143.0710 C   0  0  0  0  0  2  0  0  0  0  0  0
  189.4700  173.9730  140.6680 C   0  0  0  0  0  0  0  0  0  0  0  0
  192.8140  173.3970  144.9380 C   0  0  0  0  0  0  0  0  0  0  0  0
  189.9610  174.9380  146.9300 C   0  0  0  0  0  3  0  0  0  0  0  0
  188.3540  174.3990  142.9810 C   0  0  1  0  0  3  0  0  0  0  0  0
  191.6600  173.5020  144.1560 C   0  0  0  0  0  3  0  0  0  0  0  0
  189.8850  172.4790  142.6710 C   0  0  0  0  0  2  0  0  0  0  0  0
  191.8120  171.1670  143.5660 C   0  0  0  0  0  3  0  0  0  0  0  0
  187.7540  175.7750  140.8280 C   0  0  0  0  0  2  0  0  0  0  0  0
  193.4790  172.1640  145.0330 C   0  0  0  0  0  0  0  0  0  0  0  0
  191.1570  172.3950  143.4600 C   0  0  0  0  0  0  0  0  0  0  0  0
  193.3340  174.6100  145.6520 C   0  0  0  0  0  2  0  0  0  0  0  0
  191.6280  173.4950  139.6730 N   0  0  0  0  0  0  0  0  0  0  0  0
  190.3630  173.2230  139.7740 C   0  0  0  0  0  3  0  0  0  0  0  0
  194.5340  170.2080  140.7340 C   0  0  0  0  0  2  0  0  0  0  0  0
  193.3420  171.6840  139.3060 N   0  0  0  0  0  0  0  0  0  0  0  0
  192.5510  172.7940  138.8280 C   0  0  0  0  0  0  0  0  0  0  0  0
  194.7230  169.7610  139.2900 C   0  0  0  0  0  2  0  0  0  0  0  0
  193.5310  171.3370  140.7090 C   0  0  0  0  0  2  0  0  0  0  0  0
  194.0920  170.8250  138.4110 C   0  0  0  0  0  2  0  0  0  0  0  0
  192.6930  173.2030  137.6090 N   0  0  0  0  0  2  0  0  0  0  0  0
  194.6410  172.0640  145.8040 O   0  0  0  0  0  0  0  0  0  0  0  0
  195.4570  170.8990  145.8200 C   0  0  0  0  0  2  0  0  0  0  0  0
  196.9250  171.2910  145.8420 C   0  0  0  0  0  2  0  0  0  0  0  0
  197.1460  172.5080  144.9620 C   0  0  0  0  0  2  0  0  0  0  0  0
  196.4680  172.8220  142.5910 C   0  0  0  0  0  3  0  0  0  0  0  0
  197.0890  172.0960  143.5200 C   0  0  0  0  0  3  0  0  0  0  0  0
  195.7780  174.1160  142.9040 C   0  0  0  0  0  2  0  0  0  0  0  0
  194.6330  174.3640  141.9390 C   0  0  0  0  0  2  0  0  0  0  0  0
  195.1580  176.7290  141.2090 N   0  0  0  0  0  1  0  0  0  0  0  0
  194.2890  175.8140  141.8770 C   0  0  0  0  0  0  0  0  0  0  0  0
  193.2310  176.2300  142.4100 O   0  0  0  0  0  0  0  0  0  0  0  0
  1  8  1  0  0  0  0
  3  9  1  0  0  0  0
  3 10  1  0  0  0  0
  4 27  1  0  0  0  0
  6 24  1  6  0  0  0
  6 22  1  0  0  0  0
  7 18  1  6  0  0  0
  7  1  1  0  0  0  0
  7  3  1  0  0  0  0
  8 10  1  0  0  0  0
  8 17  1  1  0  0  0
  9 15  1  0  0  0  0
 11 19  2  0  0  0  0
 11 26  1  0  0  0  0
 12 13  1  0  0  0  0
 12  9  2  0  0  0  0
 13 14  2  0  0  0  0
 14  5  1  0  0  0  0
 14 21  1  0  0  0  0
 15 21  2  0  0  0  0
 16 26  1  6  0  0  0
 16  2  1  0  0  0  0
 16 22  1  0  0  0  0
 16 18  1  0  0  0  0
 19  6  1  0  0  0  0
 20 27  2  0  0  0  0
 20 29  1  0  0  0  0
 22  2  1  6  0  0  0
 23 20  1  0  0  0  0
 24 28  1  0  0  0  0
 25  4  2  0  0  0  0
 27 39  1  0  0  0  0
 28 25  1  0  0  0  0
 28 23  2  0  0  0  0
 29  5  1  0  0  0  0
 30 31  2  0  0  0  0
 31 19  1  0  0  0  0
 33 36  1  0  0  0  0
 34 33  1  0  0  0  0
 34 30  1  0  0  0  0
 35 32  1  0  0  0  0
 36 32  1  0  0  0  0
 37 35  1  0  0  0  0
 37 33  1  0  0  0  0
 38 34  2  0  0  0  0
 39 40  1  0  0  0  0
 40 41  1  0  0  0  0
 42 41  1  0  0  0  0
 43 45  1  0  0  0  0
 43 44  2  0  0  0  0
 44 42  1  0  0  0  0
 46 45  1  0  0  0  0
 47 48  1  0  0  0  0
 48 46  1  0  0  0  0
 48 49  2  0  0  0  0
M  END
>  <MODEL>
3

>  <REMARK>
 VINA RESULT:      -7.5      1.469      1.789
  Name = 
  10 active torsions:
  status: ('A' for Active; 'I' for Inactive)
    1  A    between atoms: C_8  and  C_24
    2  A    between atoms: C_8  and  O_32
    3  A    between atoms: C_9  and  C_14
    4  A    between atoms: C_9  and  C_31
    5  A    between atoms: N_11  and  C_16
    6  A    between atoms: C_15  and  C_17
    7  A    between atoms: C_17  and  C_24
    8  A    between atoms: C_31  and  C_44
    9  A    between atoms: O_32  and  C_45
   10  A    between atoms: C_34  and  C_46
                            x       y       z     vdW  Elec       q    Type
                         _______ _______ _______ _____ _____    ______ ____

>  <TORSDO>
F 10

$$$$
=
 OpenBabel11042414113D

 49 55  0  0  1  0  0  0  0  0999 V2000
  186.7120  177.3800  146.4070 S   0  0  0  0  0  0  0  0  0  0  0  0
  191.3930  177.6490  144.4190 O   0  0  0  0  0  0  0  0  0  0  0  0
  187.3740  176.9340  143.9090 N   0  0  0  0  0  0  0  0  0  0  0  0
  193.2270  173.7320  139.1690 C   0  0  0  0  0  3  0  0  0  0  0  0
  188.5740  173.2950  139.6770 C   0  0  0  0  0  2  0  0  0  0  0  0
  191.9380  175.4240  143.6090 C   0  0  1  0  0  3  0  0  0  0  0  0
  187.9460  176.7710  145.2340 C   0  0  1  0  0  3  0  0  0  0  0  0
  185.5570  177.7210  145.0460 C   0  0  2  0  0  3  0  0  0  0  0  0
  187.6840  176.0310  142.8430 C   0  0  0  0  0  0  0  0  0  0  0  0
  186.2920  177.8070  143.7940 N   0  0  0  0  0  2  0  0  0  0  0  0
  192.4430  175.5620  146.0450 C   0  0  0  0  0  3  0  0  0  0  0  0
  187.7430  174.6870  143.0850 N   0  0  0  0  0  0  0  0  0  0  0  0
  188.0060  173.7980  142.0850 C   0  0  0  0  0  3  0  0  0  0  0  0
  188.2430  174.2500  140.7820 C   0  0  0  0  0  0  0  0  0  0  0  0
  187.8920  176.5230  141.5440 C   0  0  0  0  0  3  0  0  0  0  0  0
  190.4680  176.8670  145.1370 C   0  0  1  0  0  0  0  0  0  0  0  0
  184.8240  179.0200  145.3140 C   0  0  0  0  0  1  0  0  0  0  0  0
  189.1860  177.6490  145.3590 C   0  0  0  0  0  2  0  0  0  0  0  0
  192.8320  175.2010  144.8220 C   0  0  0  0  0  0  0  0  0  0  0  0
  191.0530  173.1650  140.0840 C   0  0  0  0  0  0  0  0  0  0  0  0
  188.1800  175.6250  140.5140 C   0  0  0  0  0  3  0  0  0  0  0  0
  190.8620  176.5210  143.7490 C   0  0  1  0  0  3  0  0  0  0  0  0
  191.2960  174.0350  141.1520 C   0  0  0  0  0  3  0  0  0  0  0  0
  192.7430  175.7320  142.3470 C   0  0  0  0  0  2  0  0  0  0  0  0
  193.4570  174.6000  140.2380 C   0  0  0  0  0  3  0  0  0  0  0  0
  191.1080  176.1710  146.3390 C   0  0  0  0  0  2  0  0  0  0  0  0
  192.0250  173.0070  139.0830 C   0  0  0  0  0  0  0  0  0  0  0  0
  192.4970  174.7490  141.2410 C   0  0  0  0  0  0  0  0  0  0  0  0
  189.7620  172.4010  140.0350 C   0  0  0  0  0  2  0  0  0  0  0  0
  194.6190  173.8610  145.7630 N   0  0  0  0  0  0  0  0  0  0  0  0
  194.1060  174.4720  144.7400 C   0  0  0  0  0  3  0  0  0  0  0  0
  195.2750  169.3950  145.7910 C   0  0  0  0  0  2  0  0  0  0  0  0
  195.8860  171.6850  145.6470 N   0  0  0  0  0  0  0  0  0  0  0  0
  195.8510  173.1260  145.7430 C   0  0  0  0  0  0  0  0  0  0  0  0
  196.7140  169.4940  145.2990 C   0  0  0  0  0  2  0  0  0  0  0  0
  194.7410  170.8070  145.8530 C   0  0  0  0  0  2  0  0  0  0  0  0
  197.1120  170.9550  145.3870 C   0  0  0  0  0  2  0  0  0  0  0  0
  196.9580  173.7870  145.8510 N   0  0  0  0  0  2  0  0  0  0  0  0
  191.7850  172.1270  138.0230 O   0  0  0  0  0  0  0  0  0  0  0  0
  191.9300  170.7170  138.1450 C   0  0  0  0  0  2  0  0  0  0  0  0
  193.2420  170.3860  138.8360 C   0  0  0  0  0  2  0  0  0  0  0  0
  192.9770  169.9600  140.2690 C   0  0  0  0  0  2  0  0  0  0  0  0
  193.4390  171.1770  142.3860 C   0  0  0  0  0  3  0  0  0  0  0  0
  193.8550  170.7500  141.1940 C   0  0  0  0  0  3  0  0  0  0  0  0
  192.0610  170.8990  142.9090 C   0  0  0  0  0  2  0  0  0  0  0  0
  191.7730  171.7360  144.1420 C   0  0  0  0  0  2  0  0  0  0  0  0
  189.8610  172.9850  145.2290 N   0  0  0  0  0  1  0  0  0  0  0  0
  190.3220  172.0660  144.2390 C   0  0  0  0  0  0  0  0  0  0  0  0
  189.5050  171.5370  143.4440 O   0  0  0  0  0  0  0  0  0  0  0  0
  2 16  1  0  0  0  0
  3  7  1  0  0  0  0
  4 25  1  0  0  0  0
  5 29  1  0  0  0  0
  5 14  1  0  0  0  0
  6 24  1  6  0  0  0
  6 22  1  0  0  0  0
  6 19  1  0  0  0  0
  7 18  1  6  0  0  0
  7  1  1  0  0  0  0
  8 17  1  1  0  0  0
  8  1  1  0  0  0  0
  9 12  1  0  0  0  0
  9  3  1  0  0  0  0
 10  3  1  0  0  0  0
 10  8  1  0  0  0  0
 11 26  1  0  0  0  0
 13 12  2  0  0  0  0
 14 13  1  0  0  0  0
 15  9  2  0  0  0  0
 16 18  1  1  0  0  0
 16 26  1  0  0  0  0
 19 11  2  0  0  0  0
 20 23  2  0  0  0  0
 21 14  2  0  0  0  0
 21 15  1  0  0  0  0
 22  2  1  1  0  0  0
 22 16  1  0  0  0  0
 23 28  1  0  0  0  0
 25 28  2  0  0  0  0
 27  4  2  0  0  0  0
 27 20  1  0  0  0  0
 28 24  1  0  0  0  0
 29 20  1  0  0  0  0
 31 19  1  0  0  0  0
 31 30  2  0  0  0  0
 32 36  1  0  0  0  0
 33 34  1  0  0  0  0
 33 36  1  0  0  0  0
 34 30  1  0  0  0  0
 34 38  2  0  0  0  0
 35 37  1  0  0  0  0
 35 32  1  0  0  0  0
 37 33  1  0  0  0  0
 39 40  1  0  0  0  0
 39 27  1  0  0  0  0
 40 41  1  0  0  0  0
 41 42  1  0  0  0  0
 42 44  1  0  0  0  0
 43 45  1  0  0  0  0
 44 43  2  0  0  0  0
 45 46  1  0  0  0  0
 46 48  1  0  0  0  0
 48 47  1  0  0  0  0
 49 48  2  0  0  0  0
M  END
>  <MODEL>
4

>  <REMARK>
 VINA RESULT:      -7.2      2.750      6.331
  Name = 
  10 active torsions:
  status: ('A' for Active; 'I' for Inactive)
    1  A    between atoms: C_8  and  C_24
    2  A    between atoms: C_8  and  O_32
    3  A    between atoms: C_9  and  C_14
    4  A    between atoms: C_9  and  C_31
    5  A    between atoms: N_11  and  C_16
    6  A    between atoms: C_15  and  C_17
    7  A    between atoms: C_17  and  C_24
    8  A    between atoms: C_31  and  C_44
    9  A    between atoms: O_32  and  C_45
   10  A    between atoms: C_34  and  C_46
                            x       y       z     vdW  Elec       q    Type
                         _______ _______ _______ _____ _____    ______ ____

>  <TORSDO>
F 10

$$$$
=
 OpenBabel11042414113D

 49 55  0  0  1  0  0  0  0  0999 V2000
  186.6640  177.4710  145.9180 S   0  0  0  0  0  0  0  0  0  0  0  0
  191.3080  177.7520  143.8480 O   0  0  0  0  0  0  0  0  0  0  0  0
  187.3350  176.7520  143.4880 N   0  0  0  0  0  0  0  0  0  0  0  0
  193.3320  173.3130  139.1070 C   0  0  0  0  0  3  0  0  0  0  0  0
  188.7150  172.6820  139.7300 C   0  0  0  0  0  2  0  0  0  0  0  0
  191.9760  175.4770  143.3170 C   0  0  1  0  0  3  0  0  0  0  0  0
  187.9240  176.7900  144.8140 C   0  0  1  0  0  3  0  0  0  0  0  0
  185.4820  177.5730  144.5410 C   0  0  2  0  0  3  0  0  0  0  0  0
  187.6890  175.7410  142.5390 C   0  0  0  0  0  0  0  0  0  0  0  0
  186.2030  177.5410  143.2790 N   0  0  0  0  0  2  0  0  0  0  0  0
  192.4880  175.9490  145.7090 C   0  0  0  0  0  3  0  0  0  0  0  0
  187.8270  174.4440  142.9480 N   0  0  0  0  0  0  0  0  0  0  0  0
  188.1350  173.4520  142.0640 C   0  0  0  0  0  3  0  0  0  0  0  0
  188.3360  173.7490  140.7110 C   0  0  0  0  0  0  0  0  0  0  0  0
  187.8600  176.0760  141.1850 C   0  0  0  0  0  3  0  0  0  0  0  0
  190.4350  177.0160  144.6720 C   0  0  1  0  0  0  0  0  0  0  0  0
  184.6770  178.8510  144.6540 C   0  0  0  0  0  1  0  0  0  0  0  0
  189.1120  177.7460  144.8110 C   0  0  0  0  0  2  0  0  0  0  0  0
  192.8900  175.4600  144.5360 C   0  0  0  0  0  0  0  0  0  0  0  0
  191.2000  172.7450  140.1170 C   0  0  0  0  0  0  0  0  0  0  0  0
  188.1930  175.0730  140.2730 C   0  0  0  0  0  3  0  0  0  0  0  0
  190.8390  176.5200  143.3330 C   0  0  1  0  0  3  0  0  0  0  0  0
  191.4000  173.7550  141.0630 C   0  0  0  0  0  3  0  0  0  0  0  0
  192.7530  175.6680  142.0150 C   0  0  0  0  0  2  0  0  0  0  0  0
  193.5180  174.3210  140.0560 C   0  0  0  0  0  3  0  0  0  0  0  0
  191.1220  176.5140  145.9420 C   0  0  0  0  0  2  0  0  0  0  0  0
  192.1730  172.5170  139.1300 C   0  0  0  0  0  0  0  0  0  0  0  0
  192.5580  174.5410  141.0450 C   0  0  0  0  0  0  0  0  0  0  0  0
  189.9550  171.9090  140.1810 C   0  0  0  0  0  2  0  0  0  0  0  0
  194.5870  174.0150  145.4880 N   0  0  0  0  0  0  0  0  0  0  0  0
  194.2030  174.7990  144.5290 C   0  0  0  0  0  3  0  0  0  0  0  0
  195.4420  169.6260  146.1070 C   0  0  0  0  0  2  0  0  0  0  0  0
  195.9460  171.8980  145.6330 N   0  0  0  0  0  0  0  0  0  0  0  0
  195.8490  173.3350  145.5330 C   0  0  0  0  0  0  0  0  0  0  0  0
  196.8630  169.7150  145.5630 C   0  0  0  0  0  2  0  0  0  0  0  0
  194.8470  171.0100  145.9910 C   0  0  0  0  0  2  0  0  0  0  0  0
  197.1970  171.1900  145.4400 C   0  0  0  0  0  2  0  0  0  0  0  0
  196.9280  174.0500  145.5170 N   0  0  0  0  0  2  0  0  0  0  0  0
  191.9780  171.4980  138.1920 O   0  0  0  0  0  0  0  0  0  0  0  0
  192.8880  170.4160  138.0310 C   0  0  0  0  0  2  0  0  0  0  0  0
  192.3250  169.1620  138.6790 C   0  0  0  0  0  2  0  0  0  0  0  0
  193.0230  168.9100  140.0030 C   0  0  0  0  0  2  0  0  0  0  0  0
  192.5310  169.8110  142.2670 C   0  0  0  0  0  3  0  0  0  0  0  0
  192.0990  169.2680  141.1290 C   0  0  0  0  0  3  0  0  0  0  0  0
  193.9780  170.1160  142.5180 C   0  0  0  0  0  2  0  0  0  0  0  0
  194.2240  171.6140  142.4980 C   0  0  0  0  0  2  0  0  0  0  0  0
  195.9420  171.1300  140.7050 N   0  0  0  0  0  1  0  0  0  0  0  0
  195.5000  171.9380  141.7960 C   0  0  0  0  0  0  0  0  0  0  0  0
  196.1830  172.9260  142.1630 O   0  0  0  0  0  0  0  0  0  0  0  0
  2 16  1  0  0  0  0
  3  7  1  0  0  0  0
  4 27  2  0  0  0  0
  4 25  1  0  0  0  0
  5 29  1  0  0  0  0
  5 14  1  0  0  0  0
  6 24  1  6  0  0  0
  6 22  1  0  0  0  0
  6 19  1  0  0  0  0
  7 18  1  6  0  0  0
  7  1  1  0  0  0  0
  8 17  1  1  0  0  0
  8  1  1  0  0  0  0
  9 12  1  0  0  0  0
  9  3  1  0  0  0  0
 10  3  1  0  0  0  0
 10  8  1  0  0  0  0
 11 26  1  0  0  0  0
 13 12  2  0  0  0  0
 14 13  1  0  0  0  0
 15  9  2  0  0  0  0
 16 18  1  1  0  0  0
 16 26  1  0  0  0  0
 19 11  2  0  0  0  0
 20 29  1  0  0  0  0
 20 23  2  0  0  0  0
 21 14  2  0  0  0  0
 21 15  1  0  0  0  0
 22  2  1  6  0  0  0
 22 16  1  0  0  0  0
 25 28  2  0  0  0  0
 27 20  1  0  0  0  0
 28 23  1  0  0  0  0
 28 24  1  0  0  0  0
 30 34  1  0  0  0  0
 31 19  1  0  0  0  0
 31 30  2  0  0  0  0
 33 36  1  0  0  0  0
 34 33  1  0  0  0  0
 35 32  1  0  0  0  0
 36 32  1  0  0  0  0
 37 35  1  0  0  0  0
 37 33  1  0  0  0  0
 38 34  2  0  0  0  0
 39 27  1  0  0  0  0
 40 39  1  0  0  0  0
 40 41  1  0  0  0  0
 41 42  1  0  0  0  0
 42 44  1  0  0  0  0
 43 45  1  0  0  0  0
 44 43  2  0  0  0  0
 46 45  1  0  0  0  0
 47 48  1  0  0  0  0
 48 49  2  0  0  0  0
 48 46  1  0  0  0  0
M  END
>  <MODEL>
5

>  <REMARK>
 VINA RESULT:      -6.9      2.616      6.245
  Name = 
  10 active torsions:
  status: ('A' for Active; 'I' for Inactive)
    1  A    between atoms: C_8  and  C_24
    2  A    between atoms: C_8  and  O_32
    3  A    between atoms: C_9  and  C_14
    4  A    between atoms: C_9  and  C_31
    5  A    between atoms: N_11  and  C_16
    6  A    between atoms: C_15  and  C_17
    7  A    between atoms: C_17  and  C_24
    8  A    between atoms: C_31  and  C_44
    9  A    between atoms: O_32  and  C_45
   10  A    between atoms: C_34  and  C_46
                            x       y       z     vdW  Elec       q    Type
                         _______ _______ _______ _____ _____    ______ ____

>  <TORSDO>
F 10

$$$$
=
 OpenBabel11042414113D

 49 55  0  0  1  0  0  0  0  0999 V2000
  186.8180  177.1490  146.0670 S   0  0  0  0  0  0  0  0  0  0  0  0
  191.3930  177.6680  143.8920 O   0  0  0  0  0  0  0  0  0  0  0  0
  187.4670  176.4700  143.6190 N   0  0  0  0  0  0  0  0  0  0  0  0
  193.5280  173.3480  139.0910 C   0  0  0  0  0  3  0  0  0  0  0  0
  188.9640  172.4830  139.8170 C   0  0  0  0  0  2  0  0  0  0  0  0
  192.1620  175.4310  143.3380 C   0  0  1  0  0  3  0  0  0  0  0  0
  188.0840  176.5350  144.9310 C   0  0  1  0  0  3  0  0  0  0  0  0
  185.6010  177.1940  144.7170 C   0  0  2  0  0  3  0  0  0  0  0  0
  187.8510  175.4810  142.6590 C   0  0  0  0  0  0  0  0  0  0  0  0
  186.2930  177.2020  143.4380 N   0  0  0  0  0  2  0  0  0  0  0  0
  192.7040  175.9230  145.7190 C   0  0  0  0  0  3  0  0  0  0  0  0
  188.0630  174.1910  143.0600 N   0  0  0  0  0  0  0  0  0  0  0  0
  188.3990  173.2170  142.1660 C   0  0  0  0  0  3  0  0  0  0  0  0
  188.5550  173.5270  140.8100 C   0  0  0  0  0  0  0  0  0  0  0  0
  187.9730  175.8260  141.3030 C   0  0  0  0  0  3  0  0  0  0  0  0
  190.5770  176.8870  144.7330 C   0  0  1  0  0  0  0  0  0  0  0  0
  184.7350  178.4300  144.8530 C   0  0  0  0  0  1  0  0  0  0  0  0
  189.2220  177.5490  144.9040 C   0  0  0  0  0  2  0  0  0  0  0  0
  193.1030  175.4570  144.5360 C   0  0  0  0  0  0  0  0  0  0  0  0
  191.4510  172.6700  140.1470 C   0  0  0  0  0  0  0  0  0  0  0  0
  188.3350  174.8430  140.3800 C   0  0  0  0  0  3  0  0  0  0  0  0
  190.9750  176.4160  143.3830 C   0  0  1  0  0  3  0  0  0  0  0  0
  191.6210  173.6870  141.0920 C   0  0  0  0  0  3  0  0  0  0  0  0
  192.8990  175.6640  142.0190 C   0  0  0  0  0  2  0  0  0  0  0  0
  193.6850  174.3620  140.0390 C   0  0  0  0  0  3  0  0  0  0  0  0
  191.3170  176.4180  145.9860 C   0  0  0  0  0  2  0  0  0  0  0  0
  192.4110  172.4940  139.1370 C   0  0  0  0  0  0  0  0  0  0  0  0
  192.7380  174.5300  141.0510 C   0  0  0  0  0  0  0  0  0  0  0  0
  190.2520  171.7730  140.2370 C   0  0  0  0  0  2  0  0  0  0  0  0
  194.8330  173.9700  145.3540 N   0  0  0  0  0  0  0  0  0  0  0  0
  194.4470  174.8640  144.4970 C   0  0  0  0  0  3  0  0  0  0  0  0
  195.8960  169.6090  145.8350 C   0  0  0  0  0  2  0  0  0  0  0  0
  196.2900  171.9140  145.4180 N   0  0  0  0  0  0  0  0  0  0  0  0
  196.1250  173.3470  145.3610 C   0  0  0  0  0  0  0  0  0  0  0  0
  197.3030  169.7790  145.2730 C   0  0  0  0  0  2  0  0  0  0  0  0
  195.2380  170.9670  145.7670 C   0  0  0  0  0  2  0  0  0  0  0  0
  197.5680  171.2700  145.1870 C   0  0  0  0  0  2  0  0  0  0  0  0
  197.1700  174.1110  145.3490 N   0  0  0  0  0  2  0  0  0  0  0  0
  192.2470  171.4680  138.2010 O   0  0  0  0  0  0  0  0  0  0  0  0
  191.9070  171.7140  136.8410 C   0  0  0  0  0  2  0  0  0  0  0  0
  190.4950  171.2290  136.5620 C   0  0  0  0  0  2  0  0  0  0  0  0
  189.6820  172.3450  135.9300 C   0  0  0  0  0  2  0  0  0  0  0  0
  189.4020  174.6680  136.7700 C   0  0  0  0  0  3  0  0  0  0  0  0
  190.2050  173.6690  136.4020 C   0  0  0  0  0  3  0  0  0  0  0  0
  187.9070  174.5510  136.7520 C   0  0  0  0  0  2  0  0  0  0  0  0
  187.2580  175.9030  136.9830 C   0  0  0  0  0  2  0  0  0  0  0  0
  185.8620  176.3970  134.9310 N   0  0  0  0  0  1  0  0  0  0  0  0
  187.0480  176.6240  135.6940 C   0  0  0  0  0  0  0  0  0  0  0  0
  187.9140  177.4350  135.2810 O   0  0  0  0  0  0  0  0  0  0  0  0
  2 16  1  0  0  0  0
  3  7  1  0  0  0  0
  4 27  2  0  0  0  0
  4 25  1  0  0  0  0
  5 29  1  0  0  0  0
  5 14  1  0  0  0  0
  6 24  1  6  0  0  0
  6 22  1  0  0  0  0
  6 19  1  0  0  0  0
  7 18  1  6  0  0  0
  7  1  1  0  0  0  0
  8 17  1  1  0  0  0
  8  1  1  0  0  0  0
  9 12  1  0  0  0  0
  9  3  1  0  0  0  0
 10  3  1  0  0  0  0
 10  8  1  0  0  0  0
 11 26  1  0  0  0  0
 13 12  2  0  0  0  0
 14 13  1  0  0  0  0
 15  9  2  0  0  0  0
 16 18  1  1  0  0  0
 16 26  1  0  0  0  0
 19 11  2  0  0  0  0
 20 29  1  0  0  0  0
 20 23  2  0  0  0  0
 21 14  2  0  0  0  0
 21 15  1  0  0  0  0
 22  2  1  6  0  0  0
 22 16  1  0  0  0  0
 25 28  2  0  0  0  0
 27 20  1  0  0  0  0
 28 23  1  0  0  0  0
 28 24  1  0  0  0  0
 30 34  1  0  0  0  0
 31 19  1  0  0  0  0
 31 30  2  0  0  0  0
 33 36  1  0  0  0  0
 34 33  1  0  0  0  0
 35 32  1  0  0  0  0
 36 32  1  0  0  0  0
 37 35  1  0  0  0  0
 37 33  1  0  0  0  0
 38 34  2  0  0  0  0
 39 27  1  0  0  0  0
 40 39  1  0  0  0  0
 41 40  1  0  0  0  0
 42 44  1  0  0  0  0
 42 41  1  0  0  0  0
 44 43  2  0  0  0  0
 45 43  1  0  0  0  0
 45 46  1  0  0  0  0
 47 48  1  0  0  0  0
 48 46  1  0  0  0  0
 49 48  2  0  0  0  0
M  END
>  <MODEL>
6

>  <REMARK>
 VINA RESULT:      -6.7      3.007      7.140
  Name = 
  10 active torsions:
  status: ('A' for Active; 'I' for Inactive)
    1  A    between atoms: C_8  and  C_24
    2  A    between atoms: C_8  and  O_32
    3  A    between atoms: C_9  and  C_14
    4  A    between atoms: C_9  and  C_31
    5  A    between atoms: N_11  and  C_16
    6  A    between atoms: C_15  and  C_17
    7  A    between atoms: C_17  and  C_24
    8  A    between atoms: C_31  and  C_44
    9  A    between atoms: O_32  and  C_45
   10  A    between atoms: C_34  and  C_46
                            x       y       z     vdW  Elec       q    Type
                         _______ _______ _______ _____ _____    ______ ____

>  <TORSDO>
F 10

$$$$
=
 OpenBabel11042414113D

 49 55  0  0  1  0  0  0  0  0999 V2000
  196.4860  172.4840  145.7050 S   0  0  0  0  0  0  0  0  0  0  0  0
  191.4720  172.8890  144.9180 O   0  0  0  0  0  0  0  0  0  0  0  0
  195.1720  171.6900  143.5800 N   0  0  0  0  0  0  0  0  0  0  0  0
  188.9330  173.6270  138.6500 C   0  0  0  0  0  3  0  0  0  0  0  0
  193.4850  172.5450  138.1940 C   0  0  0  0  0  2  0  0  0  0  0  0
  191.1830  174.3190  142.9750 C   0  0  1  0  0  3  0  0  0  0  0  0
  195.1010  172.7470  144.5730 C   0  0  1  0  0  3  0  0  0  0  0  0
  197.0460  171.0600  144.7230 C   0  0  2  0  0  3  0  0  0  0  0  0
  194.7370  171.8980  142.2330 C   0  0  0  0  0  0  0  0  0  0  0  0
  195.9500  170.5760  143.9000 N   0  0  0  0  0  2  0  0  0  0  0  0
  191.4650  175.7340  145.0050 C   0  0  0  0  0  3  0  0  0  0  0  0
  195.0460  173.0650  141.5900 N   0  0  0  0  0  0  0  0  0  0  0  0
  194.6730  173.2810  140.2970 C   0  0  0  0  0  3  0  0  0  0  0  0
  193.9410  172.3120  139.6010 C   0  0  0  0  0  0  0  0  0  0  0  0
  194.0260  170.8900  141.5600 C   0  0  0  0  0  3  0  0  0  0  0  0
  192.7220  173.5370  144.8710 C   0  0  1  0  0  0  0  0  0  0  0  0
  197.5330  169.9630  145.6470 C   0  0  0  0  0  1  0  0  0  0  0  0
  193.8100  172.6040  145.3700 C   0  0  0  0  0  2  0  0  0  0  0  0
  190.7910  175.4770  143.8840 C   0  0  0  0  0  0  0  0  0  0  0  0
  191.3540  173.7660  138.7350 C   0  0  0  0  0  0  0  0  0  0  0  0
  193.6210  171.1060  140.2410 C   0  0  0  0  0  3  0  0  0  0  0  0
  191.9880  173.1790  143.6320 C   0  0  1  0  0  3  0  0  0  0  0  0
  191.2850  173.7850  140.1320 C   0  0  0  0  0  3  0  0  0  0  0  0
  189.9710  173.6870  142.2910 C   0  0  0  0  0  2  0  0  0  0  0  0
  188.8780  173.6430  140.0450 C   0  0  0  0  0  3  0  0  0  0  0  0
  192.6620  174.9520  145.4460 C   0  0  0  0  0  2  0  0  0  0  0  0
  190.1700  173.6890  137.9830 C   0  0  0  0  0  0  0  0  0  0  0  0
  190.0530  173.7330  140.7940 C   0  0  0  0  0  0  0  0  0  0  0  0
  192.6920  173.8460  138.0610 C   0  0  0  0  0  2  0  0  0  0  0  0
  188.5910  176.4660  144.1200 N   0  0  0  0  0  0  0  0  0  0  0  0
  189.7440  176.4440  143.5260 C   0  0  0  0  0  3  0  0  0  0  0  0
  184.8250  177.3400  146.4510 C   0  0  0  0  0  2  0  0  0  0  0  0
  186.4420  177.6300  144.7350 N   0  0  0  0  0  0  0  0  0  0  0  0
  187.5350  177.3910  143.8230 C   0  0  0  0  0  0  0  0  0  0  0  0
  184.5660  178.6650  145.7430 C   0  0  0  0  0  2  0  0  0  0  0  0
  186.1120  176.7910  145.8800 C   0  0  0  0  0  2  0  0  0  0  0  0
  185.5070  178.7240  144.5550 C   0  0  0  0  0  2  0  0  0  0  0  0
  187.5600  177.9980  142.6800 N   0  0  0  0  0  2  0  0  0  0  0  0
  190.2390  173.6840  136.5870 O   0  0  0  0  0  0  0  0  0  0  0  0
  189.6950  172.6370  135.7920 C   0  0  0  0  0  2  0  0  0  0  0  0
  190.6880  171.4910  135.6910 C   0  0  0  0  0  2  0  0  0  0  0  0
  190.2170  170.3250  136.5410 C   0  0  0  0  0  2  0  0  0  0  0  0
  191.5230  168.9900  138.1820 C   0  0  0  0  0  3  0  0  0  0  0  0
  191.4010  169.5030  136.9580 C   0  0  0  0  0  3  0  0  0  0  0  0
  190.4840  169.1840  139.2470 C   0  0  0  0  0  2  0  0  0  0  0  0
  190.6550  168.1660  140.3590 C   0  0  0  0  0  2  0  0  0  0  0  0
  190.4890  170.1200  141.9570 N   0  0  0  0  0  1  0  0  0  0  0  0
  191.0170  168.8310  141.6440 C   0  0  0  0  0  0  0  0  0  0  0  0
  191.7860  168.2540  142.4530 O   0  0  0  0  0  0  0  0  0  0  0  0
  3 10  1  0  0  0  0
  3  7  1  0  0  0  0
  4 25  1  0  0  0  0
  5 14  1  0  0  0  0
  6 24  1  1  0  0  0
  6 22  1  0  0  0  0
  6 19  1  0  0  0  0
  7 18  1  1  0  0  0
  7  1  1  0  0  0  0
  8 17  1  1  0  0  0
  8  1  1  0  0  0  0
  9  3  1  0  0  0  0
 10  8  1  0  0  0  0
 11 26  1  0  0  0  0
 12  9  1  0  0  0  0
 13 12  2  0  0  0  0
 14 21  2  0  0  0  0
 14 13  1  0  0  0  0
 15  9  2  0  0  0  0
 16  2  1  0  0  0  0
 16 18  1  1  0  0  0
 16 26  1  0  0  0  0
 19 11  2  0  0  0  0
 20 23  2  0  0  0  0
 21 15  1  0  0  0  0
 22 16  1  0  0  0  0
 22  2  1  1  0  0  0
 23 28  1  0  0  0  0
 25 28  2  0  0  0  0
 27  4  2  0  0  0  0
 27 20  1  0  0  0  0
 28 24  1  0  0  0  0
 29  5  1  0  0  0  0
 29 20  1  0  0  0  0
 31 19  1  0  0  0  0
 31 30  2  0  0  0  0
 33 36  1  0  0  0  0
 34 30  1  0  0  0  0
 34 33  1  0  0  0  0
 35 32  1  0  0  0  0
 36 32  1  0  0  0  0
 37 33  1  0  0  0  0
 37 35  1  0  0  0  0
 38 34  2  0  0  0  0
 39 27  1  0  0  0  0
 40 39  1  0  0  0  0
 41 40  1  0  0  0  0
 41 42  1  0  0  0  0
 42 44  1  0  0  0  0
 43 45  1  0  0  0  0
 44 43  2  0  0  0  0
 45 46  1  0  0  0  0
 46 48  1  0  0  0  0
 48 47  1  0  0  0  0
 48 49  2  0  0  0  0
M  END
>  <MODEL>
7

>  <REMARK>
 VINA RESULT:      -6.5      2.929      8.949
  Name = 
  10 active torsions:
  status: ('A' for Active; 'I' for Inactive)
    1  A    between atoms: C_8  and  C_24
    2  A    between atoms: C_8  and  O_32
    3  A    between atoms: C_9  and  C_14
    4  A    between atoms: C_9  and  C_31
    5  A    between atoms: N_11  and  C_16
    6  A    between atoms: C_15  and  C_17
    7  A    between atoms: C_17  and  C_24
    8  A    between atoms: C_31  and  C_44
    9  A    between atoms: O_32  and  C_45
   10  A    between atoms: C_34  and  C_46
                            x       y       z     vdW  Elec       q    Type
                         _______ _______ _______ _____ _____    ______ ____

>  <TORSDO>
F 10

$$$$
=
 OpenBabel11042414113D

 49 55  0  0  1  0  0  0  0  0999 V2000
  189.7280  170.6280  136.5240 S   0  0  0  0  0  0  0  0  0  0  0  0
  191.2420  174.0700  139.9570 O   0  0  0  0  0  0  0  0  0  0  0  0
  191.7730  170.4130  138.1510 N   0  0  0  0  0  0  0  0  0  0  0  0
  194.3130  172.1850  145.7270 C   0  0  0  0  0  3  0  0  0  0  0  0
  194.0810  168.3880  142.9640 C   0  0  0  0  0  2  0  0  0  0  0  0
  191.0470  173.0170  142.1370 C   0  0  1  0  0  3  0  0  0  0  0  0
  190.4490  171.0090  138.1380 C   0  0  1  0  0  3  0  0  0  0  0  0
  191.2080  169.6770  136.0650 C   0  0  2  0  0  3  0  0  0  0  0  0
  192.3590  169.9170  139.3590 C   0  0  0  0  0  0  0  0  0  0  0  0
  192.3210  170.0680  136.9150 N   0  0  0  0  0  2  0  0  0  0  0  0
  188.8350  173.9460  141.4700 C   0  0  0  0  0  3  0  0  0  0  0  0
  191.5970  169.2060  140.2430 N   0  0  0  0  0  0  0  0  0  0  0  0
  192.1320  168.6930  141.3880 C   0  0  0  0  0  3  0  0  0  0  0  0
  193.4820  168.9060  141.6930 C   0  0  0  0  0  0  0  0  0  0  0  0
  193.7240  170.1310  139.6170 C   0  0  0  0  0  3  0  0  0  0  0  0
  190.3550  173.0160  139.6680 C   0  0  1  0  0  0  0  0  0  0  0  0
  191.5450  169.9300  134.6090 C   0  0  0  0  0  1  0  0  0  0  0  0
  190.5770  172.5240  138.2490 C   0  0  0  0  0  2  0  0  0  0  0  0
  189.7730  173.8070  142.4060 C   0  0  0  0  0  0  0  0  0  0  0  0
  193.4410  170.3210  144.4420 C   0  0  0  0  0  0  0  0  0  0  0  0
  194.2800  169.6280  140.7950 C   0  0  0  0  0  3  0  0  0  0  0  0
  191.4510  172.8580  140.6570 C   0  0  1  0  0  3  0  0  0  0  0  0
  192.7920  171.2290  143.5990 C   0  0  0  0  0  3  0  0  0  0  0  0
  192.2520  173.5930  142.8800 C   0  0  0  0  0  2  0  0  0  0  0  0
  193.6630  173.0820  144.8760 C   0  0  0  0  0  3  0  0  0  0  0  0
  188.9250  173.3240  140.1120 C   0  0  0  0  0  2  0  0  0  0  0  0
  194.2070  170.7980  145.5180 C   0  0  0  0  0  0  0  0  0  0  0  0
  192.8900  172.6090  143.8140 C   0  0  0  0  0  0  0  0  0  0  0  0
  193.2940  168.8480  144.1920 C   0  0  0  0  0  2  0  0  0  0  0  0
  189.3890  175.6260  143.9610 N   0  0  0  0  0  0  0  0  0  0  0  0
  189.4450  174.3510  143.7320 C   0  0  0  0  0  3  0  0  0  0  0  0
  185.4230  177.1880  145.4500 C   0  0  0  0  0  2  0  0  0  0  0  0
  187.7120  176.5690  145.5900 N   0  0  0  0  0  0  0  0  0  0  0  0
  189.0650  176.2160  145.2280 C   0  0  0  0  0  0  0  0  0  0  0  0
  185.8430  177.1680  146.9150 C   0  0  0  0  0  2  0  0  0  0  0  0
  186.5950  176.6550  144.6580 C   0  0  0  0  0  2  0  0  0  0  0  0
  187.3420  176.9390  146.9420 C   0  0  0  0  0  2  0  0  0  0  0  0
  190.0330  176.4650  146.0510 N   0  0  0  0  0  2  0  0  0  0  0  0
  194.8450  169.8880  146.3670 O   0  0  0  0  0  0  0  0  0  0  0  0
  196.1870  169.4590  146.1680 C   0  0  0  0  0  2  0  0  0  0  0  0
  197.0730  170.6520  145.8510 C   0  0  0  0  0  2  0  0  0  0  0  0
  197.8720  170.3780  144.5900 C   0  0  0  0  0  2  0  0  0  0  0  0
  196.8610  171.5790  142.6610 C   0  0  0  0  0  3  0  0  0  0  0  0
  196.9660  170.4720  143.3970 C   0  0  0  0  0  3  0  0  0  0  0  0
  197.6440  172.8230  142.9580 C   0  0  0  0  0  2  0  0  0  0  0  0
  196.7560  174.0510  142.8790 C   0  0  0  0  0  2  0  0  0  0  0  0
  195.9280  175.9500  144.3300 N   0  0  0  0  0  1  0  0  0  0  0  0
  196.7080  174.7630  144.1880 C   0  0  0  0  0  0  0  0  0  0  0  0
  197.3520  174.3140  145.1690 O   0  0  0  0  0  0  0  0  0  0  0  0
  1  7  1  0  0  0  0
  3  9  1  0  0  0  0
  5 29  1  0  0  0  0
  6 19  1  0  0  0  0
  6 24  1  1  0  0  0
  7  3  1  0  0  0  0
  7 18  1  6  0  0  0
  8 17  1  6  0  0  0
  8  1  1  0  0  0  0
  8 10  1  0  0  0  0
  9 15  2  0  0  0  0
  9 12  1  0  0  0  0
 10  3  1  0  0  0  0
 11 19  2  0  0  0  0
 12 13  2  0  0  0  0
 13 14  1  0  0  0  0
 14  5  1  0  0  0  0
 15 21  1  0  0  0  0
 16 18  1  6  0  0  0
 16  2  1  0  0  0  0
 16 26  1  0  0  0  0
 16 22  1  0  0  0  0
 19 31  1  0  0  0  0
 20 27  2  0  0  0  0
 21 14  2  0  0  0  0
 22  2  1  6  0  0  0
 22  6  1  0  0  0  0
 23 28  2  0  0  0  0
 23 20  1  0  0  0  0
 24 28  1  0  0  0  0
 25  4  2  0  0  0  0
 26 11  1  0  0  0  0
 27  4  1  0  0  0  0
 27 39  1  0  0  0  0
 28 25  1  0  0  0  0
 29 20  1  0  0  0  0
 30 34  1  0  0  0  0
 31 30  2  0  0  0  0
 32 35  1  0  0  0  0
 33 37  1  0  0  0  0
 34 33  1  0  0  0  0
 34 38  2  0  0  0  0
 35 37  1  0  0  0  0
 36 32  1  0  0  0  0
 36 33  1  0  0  0  0
 40 39  1  0  0  0  0
 41 40  1  0  0  0  0
 42 41  1  0  0  0  0
 43 45  1  0  0  0  0
 43 44  2  0  0  0  0
 44 42  1  0  0  0  0
 46 45  1  0  0  0  0
 46 48  1  0  0  0  0
 48 47  1  0  0  0  0
 48 49  2  0  0  0  0
M  END
>  <MODEL>
8

>  <REMARK>
 VINA RESULT:      -6.1      2.698      7.712
  Name = 
  10 active torsions:
  status: ('A' for Active; 'I' for Inactive)
    1  A    between atoms: C_8  and  C_24
    2  A    between atoms: C_8  and  O_32
    3  A    between atoms: C_9  and  C_14
    4  A    between atoms: C_9  and  C_31
    5  A    between atoms: N_11  and  C_16
    6  A    between atoms: C_15  and  C_17
    7  A    between atoms: C_17  and  C_24
    8  A    between atoms: C_31  and  C_44
    9  A    between atoms: O_32  and  C_45
   10  A    between atoms: C_34  and  C_46
                            x       y       z     vdW  Elec       q    Type
                         _______ _______ _______ _____ _____    ______ ____

>  <TORSDO>
F 10

$$$$
=
 OpenBabel11042414113D

 49 55  0  0  1  0  0  0  0  0999 V2000
  186.0550  177.1910  146.7280 S   0  0  0  0  0  0  0  0  0  0  0  0
  190.8440  177.9940  145.1950 O   0  0  0  0  0  0  0  0  0  0  0  0
  186.9810  176.9090  144.2910 N   0  0  0  0  0  0  0  0  0  0  0  0
  193.5300  174.4800  140.0260 C   0  0  0  0  0  3  0  0  0  0  0  0
  188.9180  173.5710  140.0840 C   0  0  0  0  0  2  0  0  0  0  0  0
  191.6820  175.8660  144.3750 C   0  0  1  0  0  3  0  0  0  0  0  0
  187.4450  176.7520  145.6580 C   0  0  1  0  0  3  0  0  0  0  0  0
  184.9990  177.4700  145.2760 C   0  0  2  0  0  3  0  0  0  0  0  0
  187.4750  176.0830  143.2330 C   0  0  0  0  0  0  0  0  0  0  0  0
  185.8300  177.6750  144.1010 N   0  0  0  0  0  2  0  0  0  0  0  0
  191.9490  175.9580  146.8490 C   0  0  0  0  0  3  0  0  0  0  0  0
  187.6480  174.7420  143.4400 N   0  0  0  0  0  0  0  0  0  0  0  0
  188.0880  173.9220  142.4430 C   0  0  0  0  0  3  0  0  0  0  0  0
  188.3940  174.4460  141.1810 C   0  0  0  0  0  0  0  0  0  0  0  0
  187.7480  176.6420  141.9730 C   0  0  0  0  0  3  0  0  0  0  0  0
  189.9420  177.0980  145.8000 C   0  0  1  0  0  0  0  0  0  0  0  0
  184.1170  178.6800  145.5130 C   0  0  0  0  0  1  0  0  0  0  0  0
  188.5740  177.7420  145.9240 C   0  0  0  0  0  2  0  0  0  0  0  0
  192.4820  175.6850  145.6580 C   0  0  0  0  0  0  0  0  0  0  0  0
  191.3500  173.6690  140.7170 C   0  0  0  0  0  0  0  0  0  0  0  0
  188.2170  175.8170  140.9490 C   0  0  0  0  0  3  0  0  0  0  0  0
  190.4930  176.8460  144.4450 C   0  0  1  0  0  3  0  0  0  0  0  0
  191.4080  174.5170  141.8280 C   0  0  0  0  0  3  0  0  0  0  0  0
  192.5620  176.3000  143.2020 C   0  0  0  0  0  2  0  0  0  0  0  0
  193.5740  175.3250  141.1370 C   0  0  0  0  0  3  0  0  0  0  0  0
  190.5390  176.4220  147.0350 C   0  0  0  0  0  2  0  0  0  0  0  0
  192.4200  173.6460  139.8070 C   0  0  0  0  0  0  0  0  0  0  0  0
  192.5180  175.3410  142.0500 C   0  0  0  0  0  0  0  0  0  0  0  0
  190.1540  172.7850  140.5250 C   0  0  0  0  0  2  0  0  0  0  0  0
  194.0590  173.9010  145.2070 N   0  0  0  0  0  0  0  0  0  0  0  0
  193.8250  175.0880  145.6750 C   0  0  0  0  0  3  0  0  0  0  0  0
  195.1410  169.5970  146.0330 C   0  0  0  0  0  2  0  0  0  0  0  0
  195.5110  171.8470  145.3700 N   0  0  0  0  0  0  0  0  0  0  0  0
  195.3470  173.2700  145.1850 C   0  0  0  0  0  0  0  0  0  0  0  0
  196.5060  169.6990  145.3630 C   0  0  0  0  0  2  0  0  0  0  0  0
  194.4830  170.9490  145.8800 C   0  0  0  0  0  2  0  0  0  0  0  0
  196.7690  171.1720  145.1150 C   0  0  0  0  0  2  0  0  0  0  0  0
  196.3910  174.0190  145.0290 N   0  0  0  0  0  2  0  0  0  0  0  0
  192.3670  172.7880  138.7040 O   0  0  0  0  0  0  0  0  0  0  0  0
  193.4940  172.0490  138.2490 C   0  0  0  0  0  2  0  0  0  0  0  0
  193.7460  170.8650  139.1660 C   0  0  0  0  0  2  0  0  0  0  0  0
  192.9570  169.6620  138.6830 C   0  0  0  0  0  2  0  0  0  0  0  0
  190.4770  169.5090  138.7810 C   0  0  0  0  0  3  0  0  0  0  0  0
  191.6480  169.5990  139.4130 C   0  0  0  0  0  3  0  0  0  0  0  0
  190.3680  169.4560  137.2860 C   0  0  0  0  0  2  0  0  0  0  0  0
  190.0510  170.8270  136.7190 C   0  0  0  0  0  2  0  0  0  0  0  0
  192.0100  170.3680  135.1850 N   0  0  0  0  0  1  0  0  0  0  0  0
  190.7910  171.0650  135.4460 C   0  0  0  0  0  0  0  0  0  0  0  0
  190.3380  171.8760  134.6010 O   0  0  0  0  0  0  0  0  0  0  0  0
  2 16  1  0  0  0  0
  3  7  1  0  0  0  0
  4 25  1  0  0  0  0
  5 29  1  0  0  0  0
  5 14  1  0  0  0  0
  6 24  1  6  0  0  0
  6 22  1  0  0  0  0
  6 19  1  0  0  0  0
  7 18  1  1  0  0  0
  7  1  1  0  0  0  0
  8 17  1  1  0  0  0
  8  1  1  0  0  0  0
  9 12  1  0  0  0  0
  9  3  1  0  0  0  0
 10  3  1  0  0  0  0
 10  8  1  0  0  0  0
 11 26  1  0  0  0  0
 13 12  2  0  0  0  0
 14 13  1  0  0  0  0
 15  9  2  0  0  0  0
 16 18  1  1  0  0  0
 16 26  1  0  0  0  0
 19 31  1  0  0  0  0
 19 11  2  0  0  0  0
 20 23  2  0  0  0  0
 21 14  2  0  0  0  0
 21 15  1  0  0  0  0
 22  2  1  1  0  0  0
 22 16  1  0  0  0  0
 23 28  1  0  0  0  0
 25 28  2  0  0  0  0
 27  4  2  0  0  0  0
 27 20  1  0  0  0  0
 28 24  1  0  0  0  0
 29 20  1  0  0  0  0
 30 31  2  0  0  0  0
 33 36  1  0  0  0  0
 34 30  1  0  0  0  0
 34 33  1  0  0  0  0
 35 32  1  0  0  0  0
 36 32  1  0  0  0  0
 37 35  1  0  0  0  0
 37 33  1  0  0  0  0
 38 34  2  0  0  0  0
 39 27  1  0  0  0  0
 40 39  1  0  0  0  0
 40 41  1  0  0  0  0
 42 41  1  0  0  0  0
 42 44  1  0  0  0  0
 43 44  2  0  0  0  0
 45 43  1  0  0  0  0
 46 45  1  0  0  0  0
 47 48  1  0  0  0  0
 48 46  1  0  0  0  0
 49 48  2  0  0  0  0
M  END
>  <MODEL>
9

>  <REMARK>
 VINA RESULT:      -6.1      2.555      6.438
  Name = 
  10 active torsions:
  status: ('A' for Active; 'I' for Inactive)
    1  A    between atoms: C_8  and  C_24
    2  A    between atoms: C_8  and  O_32
    3  A    between atoms: C_9  and  C_14
    4  A    between atoms: C_9  and  C_31
    5  A    between atoms: N_11  and  C_16
    6  A    between atoms: C_15  and  C_17
    7  A    between atoms: C_17  and  C_24
    8  A    between atoms: C_31  and  C_44
    9  A    between atoms: O_32  and  C_45
   10  A    between atoms: C_34  and  C_46
                            x       y       z     vdW  Elec       q    Type
                         _______ _______ _______ _____ _____    ______ ____

>  <TORSDO>
F 10

$$$$
