=
 OpenBabel11042417173D

 31 34  0  0  1  0  0  0  0  0999 V2000
  188.3430  175.9250  143.0010 C   0  0  1  0  0  3  0  0  0  0  0  0
  189.4320  176.3920  142.1480 N   0  0  0  0  0  2  0  0  0  0  0  0
  192.0680  176.8200  143.1760 N   0  0  0  0  0  1  0  0  0  0  0  0
  189.8110  177.6620  142.6070 N   0  0  0  0  0  2  0  0  0  0  0  0
  191.0950  177.8610  143.1950 C   0  0  0  0  0  0  0  0  0  0  0  0
  191.3600  178.9510  143.7640 O   0  0  0  0  0  0  0  0  0  0  0  0
  188.9130  175.1980  144.2060 C   0  0  0  0  0  2  0  0  0  0  0  0
  188.9140  176.0750  145.3680 N   0  0  0  0  0  2  0  0  0  0  0  0
  189.7340  175.4690  146.4160 C   0  0  1  0  0  0  0  0  0  0  0  0
  189.0230  174.6880  147.4170 C   0  0  0  0  0  2  0  0  0  0  0  0
  189.7330  174.0040  146.3160 N   0  0  0  0  0  2  0  0  0  0  0  0
  191.0700  176.8380  148.0400 C   0  0  0  0  0  1  0  0  0  0  0  0
  191.1170  176.0290  146.7520 C   0  0  1  0  0  3  0  0  0  0  0  0
  192.0580  174.9660  146.8670 O   0  0  0  0  0  0  0  0  0  0  0  0
  195.2540  176.0450  145.4550 N   0  0  0  0  0  0  0  0  0  0  0  0
  193.7220  173.7830  145.5100 C   0  0  0  0  0  3  0  0  0  0  0  0
  195.6680  174.9240  144.8090 C   0  0  0  0  0  0  0  0  0  0  0  0
  194.0750  176.0700  146.1290 C   0  0  0  0  0  3  0  0  0  0  0  0
  196.9090  174.9190  144.1200 N   0  0  0  0  0  1  0  0  0  0  0  0
  194.9060  173.7990  144.8470 N   0  0  0  0  0  0  0  0  0  0  0  0
  193.2720  174.9310  146.1700 C   0  0  0  0  0  0  0  0  0  0  0  0
  187.4480  177.0780  143.4650 C   0  0  0  0  0  2  0  0  0  0  0  0
  185.1910  177.3380  144.6510 C   0  0  2  0  0  3  0  0  0  0  0  0
  185.5280  179.0620  143.0680 C   0  0  0  0  0  2  0  0  0  0  0  0
  185.9620  176.6710  143.5820 C   0  0  1  0  0  3  0  0  0  0  0  0
  184.9610  177.7180  143.2350 N   0  0  1  0  0  0  0  0  0  0  0  0
  185.8690  178.5190  145.3430 C   0  0  1  0  0  3  0  0  0  0  0  0
  185.6570  179.6920  144.4300 C   0  0  0  0  0  2  0  0  0  0  0  0
  186.0310  179.4900  147.6900 N   0  0  0  0  0  1  0  0  0  0  0  0
  185.2840  178.7960  146.6920 C   0  0  0  0  0  0  0  0  0  0  0  0
  184.1440  178.3450  146.9730 O   0  0  0  0  0  0  0  0  0  0  0  0
  1 22  1  1  0  0  0
  1  7  1  0  0  0  0
  2  4  1  0  0  0  0
  2  1  1  0  0  0  0
  3  5  1  0  0  0  0
  4  5  1  0  0  0  0
  5  6  2  0  0  0  0
  7  8  1  0  0  0  0
  9  8  1  6  0  0  0
  9 13  1  0  0  0  0
  9 10  1  0  0  0  0
 11  9  1  0  0  0  0
 11 10  1  0  0  0  0
 13 14  1  0  0  0  0
 13 12  1  1  0  0  0
 15 18  1  0  0  0  0
 16 21  1  0  0  0  0
 17 20  1  0  0  0  0
 17 15  2  0  0  0  0
 18 21  2  0  0  0  0
 19 17  1  0  0  0  0
 20 16  2  0  0  0  0
 21 14  1  0  0  0  0
 22 25  1  0  0  0  0
 23 27  1  0  0  0  0
 24 26  1  0  0  0  0
 24 28  1  0  0  0  0
 25 23  1  0  0  0  0
 26 25  1  0  0  0  0
 26 23  1  0  0  0  0
 27 30  1  0  0  0  0
 28 27  1  0  0  0  0
 30 31  2  0  0  0  0
 30 29  1  0  0  0  0
M  END
>  <MODEL>
1

>  <REMARK>
 VINA RESULT:      -6.6      0.000      0.000
  Name = 
  11 active torsions:
  status: ('A' for Active; 'I' for Inactive)
    1  A    between atoms: N_3  and  N_9
    2  A    between atoms: N_3  and  C_14
    3  A    between atoms: N_5  and  C_12
    4  A    between atoms: N_5  and  C_19
    5  A    between atoms: C_7  and  C_25
    6  A    between atoms: C_12  and  C_29
    7  A    between atoms: C_14  and  C_19
    8  A    between atoms: C_14  and  C_30
    9  A    between atoms: O_16  and  C_29
   10  A    between atoms: O_16  and  C_31
   11  A    between atoms: C_21  and  C_30
                            x       y       z     vdW  Elec       q    Type
                         _______ _______ _______ _____ _____    ______ ____

>  <TORSDO>
F 11

$$$$
=
 OpenBabel11042417173D

 31 34  0  0  1  0  0  0  0  0999 V2000
  188.4690  175.6230  142.9800 C   0  0  1  0  0  3  0  0  0  0  0  0
  188.8500  175.6260  141.5700 N   0  0  0  0  0  2  0  0  0  0  0  0
  190.2390  173.5240  140.2140 N   0  0  0  0  0  1  0  0  0  0  0  0
  188.1310  174.6010  140.9380 N   0  0  0  0  0  2  0  0  0  0  0  0
  188.8170  173.5960  140.1920 C   0  0  0  0  0  0  0  0  0  0  0  0
  188.1630  172.7880  139.4830 O   0  0  0  0  0  0  0  0  0  0  0  0
  189.7150  175.6570  143.8460 C   0  0  0  0  0  2  0  0  0  0  0  0
  189.6040  174.6870  144.9260 N   0  0  0  0  0  2  0  0  0  0  0  0
  189.7180  175.3870  146.2030 C   0  0  1  0  0  0  0  0  0  0  0  0
  188.4670  175.7740  146.8380 C   0  0  0  0  0  2  0  0  0  0  0  0
  189.1910  174.5750  147.3080 N   0  0  0  0  0  2  0  0  0  0  0  0
  190.9550  176.5740  148.0360 C   0  0  0  0  0  1  0  0  0  0  0  0
  191.0040  176.1230  146.5830 C   0  0  1  0  0  3  0  0  0  0  0  0
  192.1310  175.2820  146.3600 O   0  0  0  0  0  0  0  0  0  0  0  0
  194.4830  175.3590  143.5610 N   0  0  0  0  0  0  0  0  0  0  0  0
  194.1220  176.6500  145.9420 C   0  0  0  0  0  3  0  0  0  0  0  0
  195.3540  176.3240  143.9530 C   0  0  0  0  0  0  0  0  0  0  0  0
  193.4270  175.0090  144.3410 C   0  0  0  0  0  3  0  0  0  0  0  0
  196.4450  176.6790  143.1160 N   0  0  0  0  0  1  0  0  0  0  0  0
  195.1650  176.9700  145.1350 N   0  0  0  0  0  0  0  0  0  0  0  0
  193.2210  175.6490  145.5620 C   0  0  0  0  0  0  0  0  0  0  0  0
  187.5620  176.8080  143.3260 C   0  0  0  0  0  2  0  0  0  0  0  0
  185.1880  177.2260  144.1990 C   0  0  2  0  0  3  0  0  0  0  0  0
  185.7570  178.7670  142.4980 C   0  0  0  0  0  2  0  0  0  0  0  0
  186.0620  176.4380  143.3060 C   0  0  1  0  0  3  0  0  0  0  0  0
  185.1380  177.4570  142.7340 N   0  0  1  0  0  0  0  0  0  0  0  0
  185.8120  178.4640  144.8410 C   0  0  1  0  0  3  0  0  0  0  0  0
  185.7420  179.5360  143.7920 C   0  0  0  0  0  2  0  0  0  0  0  0
  185.7830  179.2090  147.2740 N   0  0  0  0  0  1  0  0  0  0  0  0
  185.0810  178.8910  146.0740 C   0  0  0  0  0  0  0  0  0  0  0  0
  183.8230  178.9000  146.0720 O   0  0  0  0  0  0  0  0  0  0  0  0
  1 22  1  6  0  0  0
  1  7  1  0  0  0  0
  2  1  1  0  0  0  0
  4  2  1  0  0  0  0
  5  3  1  0  0  0  0
  5  4  1  0  0  0  0
  6  5  2  0  0  0  0
  7  8  1  0  0  0  0
  9  8  1  6  0  0  0
  9 13  1  0  0  0  0
  9 10  1  0  0  0  0
  9 11  1  0  0  0  0
 10 11  1  0  0  0  0
 13 12  1  1  0  0  0
 14 13  1  0  0  0  0
 15 17  2  0  0  0  0
 15 18  1  0  0  0  0
 17 20  1  0  0  0  0
 18 21  2  0  0  0  0
 19 17  1  0  0  0  0
 20 16  2  0  0  0  0
 21 16  1  0  0  0  0
 21 14  1  0  0  0  0
 23 27  1  0  0  0  0
 24 26  1  0  0  0  0
 24 28  1  0  0  0  0
 25 22  1  0  0  0  0
 25 23  1  0  0  0  0
 26 25  1  0  0  0  0
 26 23  1  0  0  0  0
 27 30  1  0  0  0  0
 28 27  1  0  0  0  0
 30 29  1  0  0  0  0
 31 30  2  0  0  0  0
M  END
>  <MODEL>
2

>  <REMARK>
 VINA RESULT:      -6.5      2.034      2.449
  Name = 
  11 active torsions:
  status: ('A' for Active; 'I' for Inactive)
    1  A    between atoms: N_3  and  N_9
    2  A    between atoms: N_3  and  C_14
    3  A    between atoms: N_5  and  C_12
    4  A    between atoms: N_5  and  C_19
    5  A    between atoms: C_7  and  C_25
    6  A    between atoms: C_12  and  C_29
    7  A    between atoms: C_14  and  C_19
    8  A    between atoms: C_14  and  C_30
    9  A    between atoms: O_16  and  C_29
   10  A    between atoms: O_16  and  C_31
   11  A    between atoms: C_21  and  C_30
                            x       y       z     vdW  Elec       q    Type
                         _______ _______ _______ _____ _____    ______ ____

>  <TORSDO>
F 11

$$$$
=
 OpenBabel11042417173D

 31 34  0  0  1  0  0  0  0  0999 V2000
  188.9470  177.1870  146.0310 C   0  0  1  0  0  3  0  0  0  0  0  0
  187.8350  176.6200  146.7890 N   0  0  0  0  0  2  0  0  0  0  0  0
  184.9830  176.7060  146.5770 N   0  0  0  0  0  1  0  0  0  0  0  0
  187.1200  177.6880  147.3490 N   0  0  0  0  0  2  0  0  0  0  0  0
  185.7060  177.7770  147.1750 C   0  0  0  0  0  0  0  0  0  0  0  0
  185.0980  178.8220  147.5230 O   0  0  0  0  0  0  0  0  0  0  0  0
  190.1260  176.2320  146.0620 C   0  0  0  0  0  2  0  0  0  0  0  0
  191.2010  176.7320  145.2160 N   0  0  0  0  0  2  0  0  0  0  0  0
  192.4230  175.9890  145.5180 C   0  0  1  0  0  0  0  0  0  0  0  0
  193.1460  176.3990  146.7120 C   0  0  0  0  0  2  0  0  0  0  0  0
  192.2810  175.2020  146.7500 N   0  0  0  0  0  2  0  0  0  0  0  0
  194.6610  175.1890  144.7140 C   0  0  0  0  0  1  0  0  0  0  0  0
  193.1680  175.2250  144.4220 C   0  0  1  0  0  3  0  0  0  0  0  0
  192.6500  173.9030  144.3110 O   0  0  0  0  0  0  0  0  0  0  0  0
  189.9030  173.8980  141.8970 N   0  0  0  0  0  0  0  0  0  0  0  0
  190.4970  172.7310  144.2950 C   0  0  0  0  0  3  0  0  0  0  0  0
  189.0130  173.0570  142.4860 C   0  0  0  0  0  0  0  0  0  0  0  0
  191.0930  174.1820  142.4860 C   0  0  0  0  0  3  0  0  0  0  0  0
  187.7790  172.7670  141.8470 N   0  0  0  0  0  1  0  0  0  0  0  0
  189.3170  172.4720  143.6750 N   0  0  0  0  0  0  0  0  0  0  0  0
  191.4210  173.6040  143.7110 C   0  0  0  0  0  0  0  0  0  0  0  0
  188.5550  177.4830  144.5810 C   0  0  0  0  0  2  0  0  0  0  0  0
  186.4280  176.6710  143.4030 C   0  0  2  0  0  3  0  0  0  0  0  0
  187.8970  177.7290  141.8820 C   0  0  0  0  0  2  0  0  0  0  0  0
  187.7650  176.3260  143.9270 C   0  0  1  0  0  3  0  0  0  0  0  0
  187.5450  176.4250  142.4570 N   0  0  1  0  0  0  0  0  0  0  0  0
  186.0850  178.1580  143.3370 C   0  0  1  0  0  3  0  0  0  0  0  0
  186.7320  178.6620  142.0790 C   0  0  0  0  0  2  0  0  0  0  0  0
  183.8320  178.0230  142.1620 N   0  0  0  0  0  1  0  0  0  0  0  0
  184.6090  178.3980  143.2980 C   0  0  0  0  0  0  0  0  0  0  0  0
  184.0590  179.0060  144.2510 O   0  0  0  0  0  0  0  0  0  0  0  0
  1 22  1  6  0  0  0
  1  7  1  0  0  0  0
  1  2  1  0  0  0  0
  2  4  1  0  0  0  0
  3  5  1  0  0  0  0
  5  4  1  0  0  0  0
  5  6  2  0  0  0  0
  8  7  1  0  0  0  0
  9  8  1  6  0  0  0
  9 10  1  0  0  0  0
  9 11  1  0  0  0  0
 10 11  1  0  0  0  0
 13 12  1  1  0  0  0
 13  9  1  0  0  0  0
 14 13  1  0  0  0  0
 15 18  1  0  0  0  0
 15 17  2  0  0  0  0
 17 20  1  0  0  0  0
 18 21  2  0  0  0  0
 19 17  1  0  0  0  0
 20 16  2  0  0  0  0
 21 16  1  0  0  0  0
 21 14  1  0  0  0  0
 23 25  1  0  0  0  0
 24 28  1  0  0  0  0
 24 26  1  0  0  0  0
 25 22  1  0  0  0  0
 26 23  1  0  0  0  0
 26 25  1  0  0  0  0
 27 23  1  0  0  0  0
 28 27  1  0  0  0  0
 29 30  1  0  0  0  0
 30 27  1  0  0  0  0
 30 31  2  0  0  0  0
M  END
>  <MODEL>
3

>  <REMARK>
 VINA RESULT:      -6.5      2.350      4.725
  Name = 
  11 active torsions:
  status: ('A' for Active; 'I' for Inactive)
    1  A    between atoms: N_3  and  N_9
    2  A    between atoms: N_3  and  C_14
    3  A    between atoms: N_5  and  C_12
    4  A    between atoms: N_5  and  C_19
    5  A    between atoms: C_7  and  C_25
    6  A    between atoms: C_12  and  C_29
    7  A    between atoms: C_14  and  C_19
    8  A    between atoms: C_14  and  C_30
    9  A    between atoms: O_16  and  C_29
   10  A    between atoms: O_16  and  C_31
   11  A    between atoms: C_21  and  C_30
                            x       y       z     vdW  Elec       q    Type
                         _______ _______ _______ _____ _____    ______ ____

>  <TORSDO>
F 11

$$$$
=
 OpenBabel11042417173D

 31 34  0  0  1  0  0  0  0  0999 V2000
  188.3480  176.2160  142.9140 C   0  0  1  0  0  3  0  0  0  0  0  0
  188.6220  175.6510  144.2320 N   0  0  0  0  0  2  0  0  0  0  0  0
  188.9410  175.3050  147.0550 N   0  0  0  0  0  1  0  0  0  0  0  0
  189.2360  176.6520  144.9990 N   0  0  0  0  0  2  0  0  0  0  0  0
  189.3240  176.5200  146.4170 C   0  0  0  0  0  0  0  0  0  0  0  0
  189.7110  177.4940  147.1130 O   0  0  0  0  0  0  0  0  0  0  0  0
  187.8840  175.1180  141.9750 C   0  0  0  0  0  2  0  0  0  0  0  0
  188.5300  173.8580  142.3140 N   0  0  0  0  0  2  0  0  0  0  0  0
  189.4350  173.4850  141.2290 C   0  0  1  0  0  0  0  0  0  0  0  0
  188.8460  172.7330  140.1310 C   0  0  0  0  0  2  0  0  0  0  0  0
  189.0930  174.1830  139.9820 N   0  0  0  0  0  2  0  0  0  0  0  0
  191.6390  172.7760  140.2590 C   0  0  0  0  0  1  0  0  0  0  0  0
  190.9460  173.4080  141.4570 C   0  0  1  0  0  3  0  0  0  0  0  0
  191.4680  174.7100  141.7050 O   0  0  0  0  0  0  0  0  0  0  0  0
  192.7980  176.8670  144.3420 N   0  0  0  0  0  0  0  0  0  0  0  0
  191.9190  174.2930  144.0780 C   0  0  0  0  0  3  0  0  0  0  0  0
  192.8070  176.0300  145.4110 C   0  0  0  0  0  0  0  0  0  0  0  0
  192.3630  176.4450  143.1260 C   0  0  0  0  0  3  0  0  0  0  0  0
  193.2560  176.4960  146.6750 N   0  0  0  0  0  1  0  0  0  0  0  0
  192.3610  174.7520  145.2770 N   0  0  0  0  0  0  0  0  0  0  0  0
  191.9130  175.1360  142.9620 C   0  0  0  0  0  0  0  0  0  0  0  0
  187.2930  177.3250  142.9790 C   0  0  0  0  0  2  0  0  0  0  0  0
  185.4110  177.1870  144.7130 C   0  0  2  0  0  3  0  0  0  0  0  0
  185.2990  179.2070  143.4880 C   0  0  0  0  0  2  0  0  0  0  0  0
  185.8950  176.7980  143.3730 C   0  0  1  0  0  3  0  0  0  0  0  0
  184.8190  177.8190  143.5080 N   0  0  1  0  0  0  0  0  0  0  0  0
  186.2210  178.2550  145.4450 C   0  0  1  0  0  3  0  0  0  0  0  0
  185.7600  179.5660  144.8750 C   0  0  0  0  0  2  0  0  0  0  0  0
  185.8550  179.4250  147.6750 N   0  0  0  0  0  1  0  0  0  0  0  0
  185.9970  178.2210  146.9240 C   0  0  0  0  0  0  0  0  0  0  0  0
  186.0060  177.1160  147.5220 O   0  0  0  0  0  0  0  0  0  0  0  0
  1  7  1  6  0  0  0
  1 22  1  0  0  0  0
  1  2  1  0  0  0  0
  2  4  1  0  0  0  0
  4  5  1  0  0  0  0
  5  3  1  0  0  0  0
  5  6  2  0  0  0  0
  7  8  1  0  0  0  0
  9 13  1  0  0  0  0
  9  8  1  1  0  0  0
 10  9  1  0  0  0  0
 11 10  1  0  0  0  0
 11  9  1  0  0  0  0
 13 12  1  6  0  0  0
 13 14  1  0  0  0  0
 14 21  1  0  0  0  0
 15 17  2  0  0  0  0
 16 20  2  0  0  0  0
 17 19  1  0  0  0  0
 18 15  1  0  0  0  0
 20 17  1  0  0  0  0
 21 18  2  0  0  0  0
 21 16  1  0  0  0  0
 22 25  1  0  0  0  0
 23 27  1  0  0  0  0
 24 26  1  0  0  0  0
 24 28  1  0  0  0  0
 25 26  1  0  0  0  0
 25 23  1  0  0  0  0
 26 23  1  0  0  0  0
 27 30  1  0  0  0  0
 28 27  1  0  0  0  0
 30 31  2  0  0  0  0
 30 29  1  0  0  0  0
M  END
>  <MODEL>
4

>  <REMARK>
 VINA RESULT:      -6.4      2.366      3.786
  Name = 
  11 active torsions:
  status: ('A' for Active; 'I' for Inactive)
    1  A    between atoms: N_3  and  N_9
    2  A    between atoms: N_3  and  C_14
    3  A    between atoms: N_5  and  C_12
    4  A    between atoms: N_5  and  C_19
    5  A    between atoms: C_7  and  C_25
    6  A    between atoms: C_12  and  C_29
    7  A    between atoms: C_14  and  C_19
    8  A    between atoms: C_14  and  C_30
    9  A    between atoms: O_16  and  C_29
   10  A    between atoms: O_16  and  C_31
   11  A    between atoms: C_21  and  C_30
                            x       y       z     vdW  Elec       q    Type
                         _______ _______ _______ _____ _____    ______ ____

>  <TORSDO>
F 11

$$$$
=
 OpenBabel11042417173D

 31 34  0  0  1  0  0  0  0  0999 V2000
  188.6180  174.4850  142.4410 C   0  0  1  0  0  3  0  0  0  0  0  0
  189.7000  174.6850  141.4810 N   0  0  0  0  0  2  0  0  0  0  0  0
  188.5370  173.4510  139.1760 N   0  0  0  0  0  1  0  0  0  0  0  0
  190.1350  173.4190  141.0660 N   0  0  0  0  0  2  0  0  0  0  0  0
  189.5020  172.7650  139.9670 C   0  0  0  0  0  0  0  0  0  0  0  0
  189.7740  171.5630  139.7140 O   0  0  0  0  0  0  0  0  0  0  0  0
  189.1930  174.3510  143.8390 C   0  0  0  0  0  2  0  0  0  0  0  0
  190.3390  175.2350  143.9980 N   0  0  0  0  0  2  0  0  0  0  0  0
  190.2600  175.8790  145.3070 C   0  0  1  0  0  0  0  0  0  0  0  0
  191.5100  176.3950  145.8460 C   0  0  0  0  0  2  0  0  0  0  0  0
  190.5430  177.3180  145.2150 N   0  0  0  0  0  2  0  0  0  0  0  0
  189.5380  174.5650  147.3190 C   0  0  0  0  0  1  0  0  0  0  0  0
  189.1070  175.5740  146.2650 C   0  0  1  0  0  3  0  0  0  0  0  0
  188.6530  176.7750  146.8800 O   0  0  0  0  0  0  0  0  0  0  0  0
  185.2460  177.1890  145.6200 N   0  0  0  0  0  0  0  0  0  0  0  0
  186.8890  178.3790  147.4490 C   0  0  0  0  0  3  0  0  0  0  0  0
  184.8090  178.2580  146.3350 C   0  0  0  0  0  0  0  0  0  0  0  0
  186.5000  176.6970  145.7890 C   0  0  0  0  0  3  0  0  0  0  0  0
  183.4900  178.7470  146.1480 N   0  0  0  0  0  1  0  0  0  0  0  0
  185.6280  178.8410  147.2500 N   0  0  0  0  0  0  0  0  0  0  0  0
  187.3610  177.2880  146.7120 C   0  0  0  0  0  0  0  0  0  0  0  0
  187.6030  175.6310  142.4030 C   0  0  0  0  0  2  0  0  0  0  0  0
  186.3950  177.2490  140.8240 C   0  0  2  0  0  3  0  0  0  0  0  0
  187.8380  178.4080  142.2940 C   0  0  0  0  0  2  0  0  0  0  0  0
  187.5140  176.3040  141.0140 C   0  0  1  0  0  3  0  0  0  0  0  0
  187.7760  177.7700  140.9730 N   0  0  1  0  0  0  0  0  0  0  0  0
  185.6140  177.6400  142.0770 C   0  0  1  0  0  3  0  0  0  0  0  0
  186.4320  178.7110  142.7380 C   0  0  0  0  0  2  0  0  0  0  0  0
  183.8530  178.4080  140.4070 N   0  0  0  0  0  1  0  0  0  0  0  0
  184.2450  178.1520  141.7540 C   0  0  0  0  0  0  0  0  0  0  0  0
  183.4550  178.4280  142.6930 O   0  0  0  0  0  0  0  0  0  0  0  0
  1 22  1  1  0  0  0
  1  7  1  0  0  0  0
  2  1  1  0  0  0  0
  3  5  1  0  0  0  0
  4  2  1  0  0  0  0
  5  4  1  0  0  0  0
  6  5  2  0  0  0  0
  7  8  1  0  0  0  0
  9  8  1  6  0  0  0
  9 10  1  0  0  0  0
  9 13  1  0  0  0  0
 11  9  1  0  0  0  0
 11 10  1  0  0  0  0
 13 14  1  0  0  0  0
 13 12  1  1  0  0  0
 15 18  1  0  0  0  0
 15 17  2  0  0  0  0
 17 20  1  0  0  0  0
 18 21  2  0  0  0  0
 19 17  1  0  0  0  0
 20 16  2  0  0  0  0
 21 14  1  0  0  0  0
 21 16  1  0  0  0  0
 23 26  1  0  0  0  0
 23 25  1  0  0  0  0
 23 27  1  0  0  0  0
 24 28  1  0  0  0  0
 25 22  1  0  0  0  0
 26 25  1  0  0  0  0
 26 24  1  0  0  0  0
 27 28  1  0  0  0  0
 29 30  1  0  0  0  0
 30 27  1  0  0  0  0
 30 31  2  0  0  0  0
M  END
>  <MODEL>
5

>  <REMARK>
 VINA RESULT:      -6.4      2.906      6.022
  Name = 
  11 active torsions:
  status: ('A' for Active; 'I' for Inactive)
    1  A    between atoms: N_3  and  N_9
    2  A    between atoms: N_3  and  C_14
    3  A    between atoms: N_5  and  C_12
    4  A    between atoms: N_5  and  C_19
    5  A    between atoms: C_7  and  C_25
    6  A    between atoms: C_12  and  C_29
    7  A    between atoms: C_14  and  C_19
    8  A    between atoms: C_14  and  C_30
    9  A    between atoms: O_16  and  C_29
   10  A    between atoms: O_16  and  C_31
   11  A    between atoms: C_21  and  C_30
                            x       y       z     vdW  Elec       q    Type
                         _______ _______ _______ _____ _____    ______ ____

>  <TORSDO>
F 11

$$$$
=
 OpenBabel11042417173D

 31 34  0  0  1  0  0  0  0  0999 V2000
  189.1370  176.5980  143.2000 C   0  0  1  0  0  3  0  0  0  0  0  0
  189.9060  176.6100  144.4410 N   0  0  0  0  0  2  0  0  0  0  0  0
  188.7160  177.2850  146.9540 N   0  0  0  0  0  1  0  0  0  0  0  0
  189.3880  175.6030  145.2680 N   0  0  0  0  0  2  0  0  0  0  0  0
  188.8680  175.9260  146.5560 C   0  0  0  0  0  0  0  0  0  0  0  0
  188.5720  175.0050  147.3600 O   0  0  0  0  0  0  0  0  0  0  0  0
  188.7170  175.1760  142.8730 C   0  0  0  0  0  2  0  0  0  0  0  0
  189.7180  174.5370  142.0300 N   0  0  0  0  0  2  0  0  0  0  0  0
  189.8730  173.1470  142.4520 C   0  0  1  0  0  0  0  0  0  0  0  0
  188.6570  172.3490  142.4940 C   0  0  0  0  0  2  0  0  0  0  0  0
  189.5860  172.2180  141.3520 N   0  0  0  0  0  2  0  0  0  0  0  0
  191.4360  171.2590  142.9920 C   0  0  0  0  0  1  0  0  0  0  0  0
  191.0790  172.7090  143.2850 C   0  0  1  0  0  3  0  0  0  0  0  0
  192.1910  173.5590  143.0170 O   0  0  0  0  0  0  0  0  0  0  0  0
  193.2200  175.0060  146.2130 N   0  0  0  0  0  0  0  0  0  0  0  0
  193.2410  175.7030  143.5720 C   0  0  0  0  0  3  0  0  0  0  0  0
  193.7180  176.2100  145.8290 C   0  0  0  0  0  0  0  0  0  0  0  0
  192.7180  174.1330  145.3030 C   0  0  0  0  0  3  0  0  0  0  0  0
  194.2480  177.1020  146.7980 N   0  0  0  0  0  1  0  0  0  0  0  0
  193.7340  176.5490  144.5120 N   0  0  0  0  0  0  0  0  0  0  0  0
  192.7110  174.4640  143.9490 C   0  0  0  0  0  0  0  0  0  0  0  0
  187.9010  177.4980  143.2880 C   0  0  0  0  0  2  0  0  0  0  0  0
  185.6280  177.1340  144.4150 C   0  0  2  0  0  3  0  0  0  0  0  0
  185.5190  178.8680  142.8110 C   0  0  0  0  0  2  0  0  0  0  0  0
  186.5830  176.6960  143.3770 C   0  0  1  0  0  3  0  0  0  0  0  0
  185.3420  177.4210  142.9880 N   0  0  1  0  0  0  0  0  0  0  0  0
  185.9330  178.4630  145.1030 C   0  0  1  0  0  3  0  0  0  0  0  0
  185.4300  179.5220  144.1640 C   0  0  0  0  0  2  0  0  0  0  0  0
  185.8350  179.3490  147.4870 N   0  0  0  0  0  1  0  0  0  0  0  0
  185.2570  178.5810  146.4330 C   0  0  0  0  0  0  0  0  0  0  0  0
  184.2010  177.9340  146.6450 O   0  0  0  0  0  0  0  0  0  0  0  0
  1  7  1  1  0  0  0
  1 22  1  0  0  0  0
  1  2  1  0  0  0  0
  2  4  1  0  0  0  0
  4  5  1  0  0  0  0
  5  3  1  0  0  0  0
  5  6  2  0  0  0  0
  8  7  1  0  0  0  0
  9  8  1  6  0  0  0
  9 10  1  0  0  0  0
  9 13  1  0  0  0  0
 11  9  1  0  0  0  0
 11 10  1  0  0  0  0
 13 12  1  6  0  0  0
 14 13  1  0  0  0  0
 14 21  1  0  0  0  0
 16 21  1  0  0  0  0
 16 20  2  0  0  0  0
 17 15  2  0  0  0  0
 17 19  1  0  0  0  0
 18 15  1  0  0  0  0
 20 17  1  0  0  0  0
 21 18  2  0  0  0  0
 22 25  1  0  0  0  0
 23 27  1  0  0  0  0
 24 26  1  0  0  0  0
 24 28  1  0  0  0  0
 25 23  1  0  0  0  0
 26 25  1  0  0  0  0
 26 23  1  0  0  0  0
 27 30  1  0  0  0  0
 28 27  1  0  0  0  0
 30 31  2  0  0  0  0
 30 29  1  0  0  0  0
M  END
>  <MODEL>
6

>  <REMARK>
 VINA RESULT:      -6.3      2.105      3.377
  Name = 
  11 active torsions:
  status: ('A' for Active; 'I' for Inactive)
    1  A    between atoms: N_3  and  N_9
    2  A    between atoms: N_3  and  C_14
    3  A    between atoms: N_5  and  C_12
    4  A    between atoms: N_5  and  C_19
    5  A    between atoms: C_7  and  C_25
    6  A    between atoms: C_12  and  C_29
    7  A    between atoms: C_14  and  C_19
    8  A    between atoms: C_14  and  C_30
    9  A    between atoms: O_16  and  C_29
   10  A    between atoms: O_16  and  C_31
   11  A    between atoms: C_21  and  C_30
                            x       y       z     vdW  Elec       q    Type
                         _______ _______ _______ _____ _____    ______ ____

>  <TORSDO>
F 11

$$$$
=
 OpenBabel11042417173D

 31 34  0  0  1  0  0  0  0  0999 V2000
  190.7750  175.5790  143.0140 C   0  0  1  0  0  3  0  0  0  0  0  0
  190.7170  174.2110  142.5060 N   0  0  0  0  0  2  0  0  0  0  0  0
  189.3160  171.8960  143.4370 N   0  0  0  0  0  1  0  0  0  0  0  0
  189.3990  173.9720  142.0910 N   0  0  0  0  0  2  0  0  0  0  0  0
  188.7260  172.7780  142.4870 C   0  0  0  0  0  0  0  0  0  0  0  0
  187.6180  172.4840  141.9690 O   0  0  0  0  0  0  0  0  0  0  0  0
  189.4680  175.9230  143.7060 C   0  0  0  0  0  2  0  0  0  0  0  0
  189.6710  177.0110  144.6530 N   0  0  0  0  0  2  0  0  0  0  0  0
  188.7880  176.8090  145.8000 C   0  0  1  0  0  0  0  0  0  0  0  0
  189.2560  175.8760  146.8140 C   0  0  0  0  0  2  0  0  0  0  0  0
  189.3870  177.3320  147.0350 N   0  0  0  0  0  2  0  0  0  0  0  0
  186.7020  177.3500  147.0850 C   0  0  0  0  0  1  0  0  0  0  0  0
  187.2930  177.1150  145.7030 C   0  0  1  0  0  3  0  0  0  0  0  0
  187.0800  178.2510  144.8700 O   0  0  0  0  0  0  0  0  0  0  0  0
  185.8320  178.2010  141.4340 N   0  0  0  0  0  0  0  0  0  0  0  0
  184.8050  178.3300  143.9630 C   0  0  0  0  0  3  0  0  0  0  0  0
  184.4890  178.2820  141.6220 C   0  0  0  0  0  0  0  0  0  0  0  0
  186.6880  178.1910  142.4890 C   0  0  0  0  0  3  0  0  0  0  0  0
  183.6140  178.2800  140.5050 N   0  0  0  0  0  1  0  0  0  0  0  0
  183.9830  178.3380  142.8830 N   0  0  0  0  0  0  0  0  0  0  0  0
  186.1920  178.2610  143.7900 C   0  0  0  0  0  0  0  0  0  0  0  0
  191.9440  175.7770  143.9830 C   0  0  0  0  0  2  0  0  0  0  0  0
  193.6640  174.3040  145.1850 C   0  0  2  0  0  3  0  0  0  0  0  0
  193.0210  176.1400  146.5300 C   0  0  0  0  0  2  0  0  0  0  0  0
  192.2480  174.5130  144.8190 C   0  0  1  0  0  3  0  0  0  0  0  0
  192.6960  174.7410  146.2220 N   0  0  1  0  0  0  0  0  0  0  0  0
  194.6150  175.4700  144.9180 C   0  0  1  0  0  3  0  0  0  0  0  0
  194.4320  176.4070  146.0780 C   0  0  0  0  0  2  0  0  0  0  0  0
  196.5750  174.0670  145.7330 N   0  0  0  0  0  1  0  0  0  0  0  0
  196.0410  175.0270  144.8240 C   0  0  0  0  0  0  0  0  0  0  0  0
  196.7970  175.5650  143.9760 O   0  0  0  0  0  0  0  0  0  0  0  0
  1  7  1  1  0  0  0
  1 22  1  0  0  0  0
  2  1  1  0  0  0  0
  4  5  1  0  0  0  0
  4  2  1  0  0  0  0
  5  3  1  0  0  0  0
  6  5  2  0  0  0  0
  7  8  1  0  0  0  0
  9  8  1  6  0  0  0
  9 10  1  0  0  0  0
  9 11  1  0  0  0  0
 10 11  1  0  0  0  0
 13  9  1  0  0  0  0
 13 12  1  1  0  0  0
 14 13  1  0  0  0  0
 15 17  2  0  0  0  0
 15 18  1  0  0  0  0
 17 20  1  0  0  0  0
 18 21  2  0  0  0  0
 19 17  1  0  0  0  0
 20 16  2  0  0  0  0
 21 16  1  0  0  0  0
 21 14  1  0  0  0  0
 22 25  1  0  0  0  0
 23 26  1  0  0  0  0
 25 23  1  0  0  0  0
 25 26  1  0  0  0  0
 26 24  1  0  0  0  0
 27 23  1  0  0  0  0
 27 28  1  0  0  0  0
 28 24  1  0  0  0  0
 30 27  1  0  0  0  0
 30 29  1  0  0  0  0
 31 30  2  0  0  0  0
M  END
>  <MODEL>
7

>  <REMARK>
 VINA RESULT:      -6.2      2.546      8.078
  Name = 
  11 active torsions:
  status: ('A' for Active; 'I' for Inactive)
    1  A    between atoms: N_3  and  N_9
    2  A    between atoms: N_3  and  C_14
    3  A    between atoms: N_5  and  C_12
    4  A    between atoms: N_5  and  C_19
    5  A    between atoms: C_7  and  C_25
    6  A    between atoms: C_12  and  C_29
    7  A    between atoms: C_14  and  C_19
    8  A    between atoms: C_14  and  C_30
    9  A    between atoms: O_16  and  C_29
   10  A    between atoms: O_16  and  C_31
   11  A    between atoms: C_21  and  C_30
                            x       y       z     vdW  Elec       q    Type
                         _______ _______ _______ _____ _____    ______ ____

>  <TORSDO>
F 11

$$$$
=
 OpenBabel11042417173D

 31 34  0  0  1  0  0  0  0  0999 V2000
  189.6370  175.7240  145.3500 C   0  0  1  0  0  3  0  0  0  0  0  0
  189.7560  176.5850  144.1770 N   0  0  0  0  0  2  0  0  0  0  0  0
  188.6940  178.1310  142.0160 N   0  0  0  0  0  1  0  0  0  0  0  0
  189.0860  175.9510  143.1200 N   0  0  0  0  0  2  0  0  0  0  0  0
  188.4850  176.7240  142.0820 C   0  0  0  0  0  0  0  0  0  0  0  0
  187.7370  176.1650  141.2390 O   0  0  0  0  0  0  0  0  0  0  0  0
  190.8750  175.8670  146.2160 C   0  0  0  0  0  2  0  0  0  0  0  0
  191.8220  176.7810  145.5940 N   0  0  0  0  0  2  0  0  0  0  0  0
  193.1020  176.0940  145.4280 C   0  0  1  0  0  0  0  0  0  0  0  0
  194.1180  176.3780  146.4290 C   0  0  0  0  0  2  0  0  0  0  0  0
  193.3340  175.1280  146.5100 N   0  0  0  0  0  2  0  0  0  0  0  0
  195.0400  175.6630  143.8940 C   0  0  0  0  0  1  0  0  0  0  0  0
  193.5320  175.5540  144.0630 C   0  0  1  0  0  3  0  0  0  0  0  0
  193.1110  174.2000  143.9190 O   0  0  0  0  0  0  0  0  0  0  0  0
  190.9800  173.9410  140.9600 N   0  0  0  0  0  0  0  0  0  0  0  0
  191.0910  172.8850  143.4770 C   0  0  0  0  0  3  0  0  0  0  0  0
  190.0330  173.0590  141.3720 C   0  0  0  0  0  0  0  0  0  0  0  0
  191.9890  174.3220  141.7850 C   0  0  0  0  0  3  0  0  0  0  0  0
  188.9930  172.6680  140.4880 N   0  0  0  0  0  1  0  0  0  0  0  0
  190.0980  172.5300  142.6230 N   0  0  0  0  0  0  0  0  0  0  0  0
  192.0680  173.8020  143.0760 C   0  0  0  0  0  0  0  0  0  0  0  0
  188.3860  176.0500  146.1720 C   0  0  0  0  0  2  0  0  0  0  0  0
  187.0550  178.1950  145.7280 C   0  0  2  0  0  3  0  0  0  0  0  0
  186.0410  176.8950  147.4220 C   0  0  0  0  0  2  0  0  0  0  0  0
  188.2060  177.5670  146.4080 C   0  0  1  0  0  3  0  0  0  0  0  0
  187.0090  177.9750  147.1940 N   0  0  1  0  0  0  0  0  0  0  0  0
  186.0440  177.2470  145.0850 C   0  0  1  0  0  3  0  0  0  0  0  0
  185.1580  176.7890  146.2070 C   0  0  0  0  0  2  0  0  0  0  0  0
  184.4910  179.1040  144.2990 N   0  0  0  0  0  1  0  0  0  0  0  0
  185.2350  177.9190  144.0210 C   0  0  0  0  0  0  0  0  0  0  0  0
  185.1520  177.3890  142.8840 O   0  0  0  0  0  0  0  0  0  0  0  0
  1 22  1  1  0  0  0
  1  7  1  0  0  0  0
  2  1  1  0  0  0  0
  3  5  1  0  0  0  0
  4  2  1  0  0  0  0
  5  4  1  0  0  0  0
  6  5  2  0  0  0  0
  8  7  1  0  0  0  0
  9  8  1  1  0  0  0
  9 10  1  0  0  0  0
  9 11  1  0  0  0  0
 10 11  1  0  0  0  0
 13 12  1  1  0  0  0
 13  9  1  0  0  0  0
 14 13  1  0  0  0  0
 15 17  2  0  0  0  0
 15 18  1  0  0  0  0
 17 20  1  0  0  0  0
 18 21  2  0  0  0  0
 19 17  1  0  0  0  0
 20 16  2  0  0  0  0
 21 16  1  0  0  0  0
 21 14  1  0  0  0  0
 22 25  1  0  0  0  0
 23 25  1  0  0  0  0
 23 26  1  0  0  0  0
 25 26  1  0  0  0  0
 26 24  1  0  0  0  0
 27 23  1  0  0  0  0
 27 28  1  0  0  0  0
 28 24  1  0  0  0  0
 30 29  1  0  0  0  0
 30 27  1  0  0  0  0
 31 30  2  0  0  0  0
M  END
>  <MODEL>
8

>  <REMARK>
 VINA RESULT:      -6.2      2.550      4.310
  Name = 
  11 active torsions:
  status: ('A' for Active; 'I' for Inactive)
    1  A    between atoms: N_3  and  N_9
    2  A    between atoms: N_3  and  C_14
    3  A    between atoms: N_5  and  C_12
    4  A    between atoms: N_5  and  C_19
    5  A    between atoms: C_7  and  C_25
    6  A    between atoms: C_12  and  C_29
    7  A    between atoms: C_14  and  C_19
    8  A    between atoms: C_14  and  C_30
    9  A    between atoms: O_16  and  C_29
   10  A    between atoms: O_16  and  C_31
   11  A    between atoms: C_21  and  C_30
                            x       y       z     vdW  Elec       q    Type
                         _______ _______ _______ _____ _____    ______ ____

>  <TORSDO>
F 11

$$$$
=
 OpenBabel11042417173D

 31 34  0  0  1  0  0  0  0  0999 V2000
  189.0990  176.8640  143.7980 C   0  0  1  0  0  3  0  0  0  0  0  0
  189.2770  177.1610  145.2160 N   0  0  0  0  0  2  0  0  0  0  0  0
  190.5090  176.2420  147.6300 N   0  0  0  0  0  1  0  0  0  0  0  0
  188.7030  176.1080  145.9420 N   0  0  0  0  0  2  0  0  0  0  0  0
  189.3570  175.5920  147.1010 C   0  0  0  0  0  0  0  0  0  0  0  0
  188.9330  174.5380  147.6410 O   0  0  0  0  0  0  0  0  0  0  0  0
  188.9220  175.3690  143.6070 C   0  0  0  0  0  2  0  0  0  0  0  0
  190.1490  174.7790  143.0900 N   0  0  0  0  0  2  0  0  0  0  0  0
  190.6140  173.7590  144.0280 C   0  0  1  0  0  0  0  0  0  0  0  0
  189.6690  172.6990  144.3460 C   0  0  0  0  0  2  0  0  0  0  0  0
  190.7540  172.4520  143.3730 N   0  0  0  0  0  2  0  0  0  0  0  0
  192.9080  173.0750  144.7800 C   0  0  0  0  0  1  0  0  0  0  0  0
  191.7600  174.0490  144.9990 C   0  0  1  0  0  3  0  0  0  0  0  0
  192.2080  175.3920  144.8370 O   0  0  0  0  0  0  0  0  0  0  0  0
  195.7220  176.3870  144.6530 N   0  0  0  0  0  0  0  0  0  0  0  0
  193.7040  175.7440  142.9270 C   0  0  0  0  0  3  0  0  0  0  0  0
  195.9380  176.4080  143.3120 C   0  0  0  0  0  0  0  0  0  0  0  0
  194.5060  176.0580  145.1620 C   0  0  0  0  0  3  0  0  0  0  0  0
  197.2200  176.7460  142.8050 N   0  0  0  0  0  1  0  0  0  0  0  0
  194.9330  176.0790  142.4580 N   0  0  0  0  0  0  0  0  0  0  0  0
  193.4580  175.7290  144.3040 C   0  0  0  0  0  0  0  0  0  0  0  0
  187.8990  177.6100  143.2060 C   0  0  0  0  0  2  0  0  0  0  0  0
  185.6570  177.2030  144.3790 C   0  0  2  0  0  3  0  0  0  0  0  0
  185.5020  178.9850  142.8330 C   0  0  0  0  0  2  0  0  0  0  0  0
  186.5860  176.8000  143.3040 C   0  0  1  0  0  3  0  0  0  0  0  0
  185.3330  177.5330  142.9690 N   0  0  1  0  0  0  0  0  0  0  0  0
  185.9760  178.5110  145.1000 C   0  0  1  0  0  3  0  0  0  0  0  0
  185.4460  179.5970  144.2080 C   0  0  0  0  0  2  0  0  0  0  0  0
  186.1190  178.5570  147.6410 N   0  0  0  0  0  1  0  0  0  0  0  0
  185.3350  178.5850  146.4500 C   0  0  0  0  0  0  0  0  0  0  0  0
  184.0800  178.5990  146.5350 O   0  0  0  0  0  0  0  0  0  0  0  0
  1 22  1  1  0  0  0
  1  2  1  0  0  0  0
  2  4  1  0  0  0  0
  4  5  1  0  0  0  0
  5  3  1  0  0  0  0
  5  6  2  0  0  0  0
  7  1  1  0  0  0  0
  8  7  1  0  0  0  0
  9  8  1  6  0  0  0
  9 10  1  0  0  0  0
  9 13  1  0  0  0  0
 11  9  1  0  0  0  0
 11 10  1  0  0  0  0
 13 12  1  6  0  0  0
 14 13  1  0  0  0  0
 15 18  1  0  0  0  0
 16 21  1  0  0  0  0
 17 15  2  0  0  0  0
 19 17  1  0  0  0  0
 20 16  2  0  0  0  0
 20 17  1  0  0  0  0
 21 14  1  0  0  0  0
 21 18  2  0  0  0  0
 22 25  1  0  0  0  0
 23 27  1  0  0  0  0
 24 26  1  0  0  0  0
 24 28  1  0  0  0  0
 25 23  1  0  0  0  0
 26 25  1  0  0  0  0
 26 23  1  0  0  0  0
 27 30  1  0  0  0  0
 28 27  1  0  0  0  0
 30 31  2  0  0  0  0
 30 29  1  0  0  0  0
M  END
>  <MODEL>
9

>  <REMARK>
 VINA RESULT:      -6.2      1.756      2.769
  Name = 
  11 active torsions:
  status: ('A' for Active; 'I' for Inactive)
    1  A    between atoms: N_3  and  N_9
    2  A    between atoms: N_3  and  C_14
    3  A    between atoms: N_5  and  C_12
    4  A    between atoms: N_5  and  C_19
    5  A    between atoms: C_7  and  C_25
    6  A    between atoms: C_12  and  C_29
    7  A    between atoms: C_14  and  C_19
    8  A    between atoms: C_14  and  C_30
    9  A    between atoms: O_16  and  C_29
   10  A    between atoms: O_16  and  C_31
   11  A    between atoms: C_21  and  C_30
                            x       y       z     vdW  Elec       q    Type
                         _______ _______ _______ _____ _____    ______ ____

>  <TORSDO>
F 11

$$$$
