=
 OpenBabel11042413503D

 25 27  0  0  1  0  0  0  0  0999 V2000
  187.1060  176.6800  144.8960 C   0  0  1  0  0  3  0  0  0  0  0  0
  189.7090  175.0600  141.6070 N   0  0  0  0  0  1  0  0  0  0  0  0
  186.7470  177.5290  139.2190 O   0  0  0  0  0  0  0  0  0  0  0  0
  185.8410  176.8300  142.7160 C   0  0  0  0  0  2  0  0  0  0  0  0
  187.2200  176.7140  143.3600 C   0  0  2  0  0  3  0  0  0  0  0  0
  186.7710  176.9490  140.3350 C   0  0  0  0  0  0  0  0  0  0  0  0
  188.5440  175.9150  141.7400 C   0  0  2  0  0  3  0  0  0  0  0  0
  187.8270  175.5420  142.8820 O   0  0  0  0  0  0  0  0  0  0  0  0
  185.9450  177.4450  141.3970 N   0  0  0  0  0  2  0  0  0  0  0  0
  187.6600  175.7570  140.5100 C   0  0  0  0  0  2  0  0  0  0  0  0
  190.8410  177.1430  145.8060 C   0  0  0  0  0  3  0  0  0  0  0  0
  189.6290  177.2280  145.2030 C   0  0  0  0  0  3  0  0  0  0  0  0
  191.3500  176.2720  146.9370 C   0  0  0  0  0  0  0  0  0  0  0  0
  188.6230  174.0270  148.1950 F   0  0  0  0  0  0  0  0  0  0  0  0
  188.4460  176.4240  145.5380 C   0  0  0  0  0  0  0  0  0  0  0  0
  188.6200  175.5950  146.5050 C   0  0  0  0  0  0  0  0  0  0  0  0
  190.6450  175.3430  147.6320 C   0  0  0  0  0  3  0  0  0  0  0  0
  189.2340  174.9710  147.4400 C   0  0  0  0  0  0  0  0  0  0  0  0
  193.7480  176.5930  146.4040 C   0  0  0  0  0  1  0  0  0  0  0  0
  192.6840  176.4220  147.3300 O   0  0  0  0  0  0  0  0  0  0  0  0
  186.4710  177.9650  145.4610 C   0  0  1  0  0  3  0  0  0  0  0  0
  184.3260  178.9600  145.6590 C   0  0  0  0  0  2  0  0  0  0  0  0
  186.3750  178.9650  144.4810 O   0  0  0  0  0  0  0  0  0  0  0  0
  185.3350  179.8010  144.9130 C   0  0  0  0  0  2  0  0  0  0  0  0
  185.0740  177.7040  145.9870 C   0  0  0  0  0  2  0  0  0  0  0  0
  1 15  1  1  0  0  0
  3  6  2  0  0  0  0
  4  5  1  0  0  0  0
  5  1  1  1  0  0  0
  6 10  1  0  0  0  0
  6  9  1  0  0  0  0
  7  2  1  6  0  0  0
  7  8  1  0  0  0  0
  8  5  1  0  0  0  0
  9  4  1  0  0  0  0
 10  7  1  0  0  0  0
 11 13  1  0  0  0  0
 12 15  1  0  0  0  0
 12 11  2  0  0  0  0
 13 20  1  0  0  0  0
 13 17  2  0  0  0  0
 15 16  2  0  0  0  0
 16 18  2  0  0  0  0
 18 17  1  0  0  0  0
 18 14  1  0  0  0  0
 19 20  1  0  0  0  0
 21  1  1  6  0  0  0
 21 25  1  0  0  0  0
 22 25  1  0  0  0  0
 23 24  1  0  0  0  0
 23 21  1  0  0  0  0
 24 22  1  0  0  0  0
M  END
>  <MODEL>
1

>  <REMARK>
 VINA RESULT:      -7.6      0.000      0.000
  Name = 
  4 active torsions:
  status: ('A' for Active; 'I' for Inactive)
    1  A    between atoms: C_1  and  C_6
    2  A    between atoms: C_1  and  C_13
    3  A    between atoms: C_1  and  C_14
    4  A    between atoms: C_11  and  O_17
                            x       y       z     vdW  Elec       q    Type
                         _______ _______ _______ _____ _____    ______ ____

>  <TORSDO>
F 4

$$$$
=
 OpenBabel11042413503D

 25 27  0  0  1  0  0  0  0  0999 V2000
  187.9800  178.0970  145.3720 C   0  0  1  0  0  3  0  0  0  0  0  0
  191.7290  177.5290  142.9560 N   0  0  0  0  0  1  0  0  0  0  0  0
  192.4260  174.5770  146.3280 O   0  0  0  0  0  0  0  0  0  0  0  0
  189.7340  177.0320  146.8410 C   0  0  0  0  0  2  0  0  0  0  0  0
  189.2900  177.2870  145.4040 C   0  0  2  0  0  3  0  0  0  0  0  0
  191.7590  175.6290  146.1510 C   0  0  0  0  0  0  0  0  0  0  0  0
  191.1380  177.0030  144.1730 C   0  0  2  0  0  3  0  0  0  0  0  0
  190.3170  177.9800  144.7460 O   0  0  0  0  0  0  0  0  0  0  0  0
  190.5620  175.8340  146.9140 N   0  0  0  0  0  2  0  0  0  0  0  0
  192.2450  176.6310  145.1500 C   0  0  0  0  0  2  0  0  0  0  0  0
  185.4180  178.7000  142.5310 C   0  0  0  0  0  3  0  0  0  0  0  0
  186.0580  178.7010  143.7260 C   0  0  0  0  0  3  0  0  0  0  0  0
  185.7030  177.9770  141.2300 C   0  0  0  0  0  0  0  0  0  0  0  0
  188.7930  175.8760  141.5470 F   0  0  0  0  0  0  0  0  0  0  0  0
  187.2680  177.9320  144.0530 C   0  0  0  0  0  0  0  0  0  0  0  0
  187.7300  177.2280  143.0820 C   0  0  0  0  0  0  0  0  0  0  0  0
  186.7360  177.1320  140.9760 C   0  0  0  0  0  3  0  0  0  0  0  0
  187.8030  176.7270  141.9050 C   0  0  0  0  0  0  0  0  0  0  0  0
  183.4150  178.2100  140.3090 C   0  0  0  0  0  1  0  0  0  0  0  0
  184.8280  178.1840  140.1590 O   0  0  0  0  0  0  0  0  0  0  0  0
  187.0430  177.7360  146.5410 C   0  0  1  0  0  3  0  0  0  0  0  0
  184.8140  176.9980  146.8810 C   0  0  0  0  0  2  0  0  0  0  0  0
  186.2880  178.8440  146.9560 O   0  0  0  0  0  0  0  0  0  0  0  0
  185.1490  178.3010  147.5690 C   0  0  0  0  0  2  0  0  0  0  0  0
  186.0720  176.6410  146.1500 C   0  0  0  0  0  2  0  0  0  0  0  0
  1 15  1  6  0  0  0
  4  9  1  0  0  0  0
  5  1  1  1  0  0  0
  5  4  1  0  0  0  0
  6  3  2  0  0  0  0
  6  9  1  0  0  0  0
  7  2  1  6  0  0  0
  7  8  1  0  0  0  0
  7 10  1  0  0  0  0
  8  5  1  0  0  0  0
 10  6  1  0  0  0  0
 11 12  2  0  0  0  0
 12 15  1  0  0  0  0
 13 11  1  0  0  0  0
 14 18  1  0  0  0  0
 16 15  2  0  0  0  0
 17 13  2  0  0  0  0
 17 18  1  0  0  0  0
 18 16  2  0  0  0  0
 20 19  1  0  0  0  0
 20 13  1  0  0  0  0
 21  1  1  6  0  0  0
 21 23  1  0  0  0  0
 22 24  1  0  0  0  0
 23 24  1  0  0  0  0
 25 21  1  0  0  0  0
 25 22  1  0  0  0  0
M  END
>  <MODEL>
2

>  <REMARK>
 VINA RESULT:      -7.3      2.603      6.056
  Name = 
  4 active torsions:
  status: ('A' for Active; 'I' for Inactive)
    1  A    between atoms: C_1  and  C_6
    2  A    between atoms: C_1  and  C_13
    3  A    between atoms: C_1  and  C_14
    4  A    between atoms: C_11  and  O_17
                            x       y       z     vdW  Elec       q    Type
                         _______ _______ _______ _____ _____    ______ ____

>  <TORSDO>
F 4

$$$$
=
 OpenBabel11042413503D

 25 27  0  0  1  0  0  0  0  0999 V2000
  187.0260  176.2790  145.6770 C   0  0  1  0  0  3  0  0  0  0  0  0
  185.5950  180.1600  143.9150 N   0  0  0  0  0  1  0  0  0  0  0  0
  185.7420  177.5410  140.2150 O   0  0  0  0  0  0  0  0  0  0  0  0
  187.4770  176.2530  143.1940 C   0  0  0  0  0  2  0  0  0  0  0  0
  186.6510  176.8850  144.3120 C   0  0  2  0  0  3  0  0  0  0  0  0
  186.2990  177.5700  141.3430 C   0  0  0  0  0  0  0  0  0  0  0  0
  185.9160  178.8210  143.4590 C   0  0  2  0  0  3  0  0  0  0  0  0
  186.8870  178.2680  144.3010 O   0  0  0  0  0  0  0  0  0  0  0  0
  186.7680  176.3450  141.9230 N   0  0  0  0  0  2  0  0  0  0  0  0
  186.4550  178.8890  142.0360 C   0  0  0  0  0  2  0  0  0  0  0  0
  190.5240  175.2920  147.0140 C   0  0  0  0  0  3  0  0  0  0  0  0
  189.1850  175.3980  146.8300 C   0  0  0  0  0  3  0  0  0  0  0  0
  191.6940  176.0180  146.3800 C   0  0  0  0  0  0  0  0  0  0  0  0
  190.4810  178.5040  143.8490 F   0  0  0  0  0  0  0  0  0  0  0  0
  188.5160  176.3230  145.9040 C   0  0  0  0  0  0  0  0  0  0  0  0
  189.3150  177.0600  145.2170 C   0  0  0  0  0  0  0  0  0  0  0  0
  191.6350  176.9820  145.4260 C   0  0  0  0  0  3  0  0  0  0  0  0
  190.4270  177.5400  144.7990 C   0  0  0  0  0  0  0  0  0  0  0  0
  194.1260  176.4690  146.5120 C   0  0  0  0  0  1  0  0  0  0  0  0
  192.9830  175.6760  146.8020 O   0  0  0  0  0  0  0  0  0  0  0  0
  186.2820  176.9620  146.8410 C   0  0  1  0  0  3  0  0  0  0  0  0
  184.4790  178.4700  147.1680 C   0  0  0  0  0  2  0  0  0  0  0  0
  186.8290  178.2210  147.1340 O   0  0  0  0  0  0  0  0  0  0  0  0
  185.7920  178.9360  147.7520 C   0  0  0  0  0  2  0  0  0  0  0  0
  184.8160  177.1660  146.5130 C   0  0  0  0  0  2  0  0  0  0  0  0
  1 15  1  1  0  0  0
  3  6  2  0  0  0  0
  4  5  1  0  0  0  0
  5  1  1  1  0  0  0
  6  9  1  0  0  0  0
  6 10  1  0  0  0  0
  7  2  1  1  0  0  0
  7  8  1  0  0  0  0
  8  5  1  0  0  0  0
  9  4  1  0  0  0  0
 10  7  1  0  0  0  0
 12 11  2  0  0  0  0
 13 20  1  0  0  0  0
 13 11  1  0  0  0  0
 14 18  1  0  0  0  0
 15 12  1  0  0  0  0
 16 15  2  0  0  0  0
 17 13  2  0  0  0  0
 18 16  2  0  0  0  0
 18 17  1  0  0  0  0
 19 20  1  0  0  0  0
 21  1  1  6  0  0  0
 21 23  1  0  0  0  0
 22 24  1  0  0  0  0
 23 24  1  0  0  0  0
 25 21  1  0  0  0  0
 25 22  1  0  0  0  0
M  END
>  <MODEL>
3

>  <REMARK>
 VINA RESULT:      -7.1      1.960      2.882
  Name = 
  4 active torsions:
  status: ('A' for Active; 'I' for Inactive)
    1  A    between atoms: C_1  and  C_6
    2  A    between atoms: C_1  and  C_13
    3  A    between atoms: C_1  and  C_14
    4  A    between atoms: C_11  and  O_17
                            x       y       z     vdW  Elec       q    Type
                         _______ _______ _______ _____ _____    ______ ____

>  <TORSDO>
F 4

$$$$
=
 OpenBabel11042413503D

 25 27  0  0  1  0  0  0  0  0999 V2000
  189.9950  176.2870  143.5810 C   0  0  1  0  0  3  0  0  0  0  0  0
  189.2960  171.8490  143.7490 N   0  0  0  0  0  1  0  0  0  0  0  0
  188.1820  172.7300  139.4420 O   0  0  0  0  0  0  0  0  0  0  0  0
  188.4690  175.6380  141.6790 C   0  0  0  0  0  2  0  0  0  0  0  0
  189.5060  175.1370  142.6800 C   0  0  2  0  0  3  0  0  0  0  0  0
  188.2300  173.3650  140.5270 C   0  0  0  0  0  0  0  0  0  0  0  0
  189.1880  172.9230  142.7800 C   0  0  2  0  0  3  0  0  0  0  0  0
  188.9170  174.1220  143.4490 O   0  0  0  0  0  0  0  0  0  0  0  0
  188.4470  174.7820  140.4980 N   0  0  0  0  0  2  0  0  0  0  0  0
  188.0540  172.6140  141.8110 C   0  0  0  0  0  2  0  0  0  0  0  0
  186.8790  178.1880  144.8740 C   0  0  0  0  0  3  0  0  0  0  0  0
  187.9490  177.7920  144.1420 C   0  0  0  0  0  3  0  0  0  0  0  0
  186.3420  177.7260  146.2140 C   0  0  0  0  0  0  0  0  0  0  0  0
  188.4660  174.9630  147.5980 F   0  0  0  0  0  0  0  0  0  0  0  0
  188.9080  176.7450  144.5210 C   0  0  0  0  0  0  0  0  0  0  0  0
  188.6560  176.1710  145.6440 C   0  0  0  0  0  0  0  0  0  0  0  0
  186.8530  176.7470  147.0040 C   0  0  0  0  0  3  0  0  0  0  0  0
  188.0410  175.9210  146.7390 C   0  0  0  0  0  0  0  0  0  0  0  0
  184.0720  178.6710  145.9050 C   0  0  0  0  0  1  0  0  0  0  0  0
  185.1970  178.3560  146.7140 O   0  0  0  0  0  0  0  0  0  0  0  0
  191.2670  175.9120  144.3660 C   0  0  1  0  0  3  0  0  0  0  0  0
  193.5270  176.6110  144.5440 C   0  0  0  0  0  2  0  0  0  0  0  0
  192.0530  174.9880  143.6600 O   0  0  0  0  0  0  0  0  0  0  0  0
  193.3540  175.1610  144.1560 C   0  0  0  0  0  2  0  0  0  0  0  0
  192.1260  177.1300  144.6380 C   0  0  0  0  0  2  0  0  0  0  0  0
  1 15  1  1  0  0  0
  3  6  2  0  0  0  0
  4  5  1  0  0  0  0
  5  8  1  0  0  0  0
  5  1  1  1  0  0  0
  6 10  1  0  0  0  0
  7  8  1  0  0  0  0
  7  2  1  1  0  0  0
  9  6  1  0  0  0  0
  9  4  1  0  0  0  0
 10  7  1  0  0  0  0
 11 13  1  0  0  0  0
 12 15  1  0  0  0  0
 12 11  2  0  0  0  0
 13 20  1  0  0  0  0
 13 17  2  0  0  0  0
 15 16  2  0  0  0  0
 16 18  2  0  0  0  0
 18 17  1  0  0  0  0
 18 14  1  0  0  0  0
 19 20  1  0  0  0  0
 21  1  1  6  0  0  0
 21 25  1  0  0  0  0
 22 25  1  0  0  0  0
 23 24  1  0  0  0  0
 23 21  1  0  0  0  0
 24 22  1  0  0  0  0
M  END
>  <MODEL>
4

>  <REMARK>
 VINA RESULT:      -7.1      2.247      5.142
  Name = 
  4 active torsions:
  status: ('A' for Active; 'I' for Inactive)
    1  A    between atoms: C_1  and  C_6
    2  A    between atoms: C_1  and  C_13
    3  A    between atoms: C_1  and  C_14
    4  A    between atoms: C_11  and  O_17
                            x       y       z     vdW  Elec       q    Type
                         _______ _______ _______ _____ _____    ______ ____

>  <TORSDO>
F 4

$$$$
=
 OpenBabel11042413503D

 25 27  0  0  1  0  0  0  0  0999 V2000
  188.5110  177.2890  145.2410 C   0  0  1  0  0  3  0  0  0  0  0  0
  192.9660  177.1650  144.6380 N   0  0  0  0  0  1  0  0  0  0  0  0
  191.9770  172.7390  144.6380 O   0  0  0  0  0  0  0  0  0  0  0  0
  189.3500  174.9960  145.8810 C   0  0  0  0  0  2  0  0  0  0  0  0
  189.6510  176.2640  145.0860 C   0  0  2  0  0  3  0  0  0  0  0  0
  191.4690  173.7940  145.0980 C   0  0  0  0  0  0  0  0  0  0  0  0
  191.8660  176.2260  144.7630 C   0  0  2  0  0  3  0  0  0  0  0  0
  190.8620  176.7950  145.5550 O   0  0  0  0  0  0  0  0  0  0  0  0
  190.0510  173.8540  145.3030 N   0  0  0  0  0  2  0  0  0  0  0  0
  192.3690  174.9470  145.4200 C   0  0  0  0  0  2  0  0  0  0  0  0
  187.4260  176.7890  141.5580 C   0  0  0  0  0  3  0  0  0  0  0  0
  188.0760  176.7030  142.7450 C   0  0  0  0  0  3  0  0  0  0  0  0
  186.3100  177.6950  141.0770 C   0  0  0  0  0  0  0  0  0  0  0  0
  185.2600  180.0440  143.8040 F   0  0  0  0  0  0  0  0  0  0  0  0
  187.8240  177.5440  143.9240 C   0  0  0  0  0  0  0  0  0  0  0  0
  186.8840  178.4090  143.7710 C   0  0  0  0  0  0  0  0  0  0  0  0
  185.6840  178.6660  141.7900 C   0  0  0  0  0  3  0  0  0  0  0  0
  185.9500  179.0580  143.1830 C   0  0  0  0  0  0  0  0  0  0  0  0
  186.5820  176.8160  138.7760 C   0  0  0  0  0  1  0  0  0  0  0  0
  185.8560  177.5350  139.7640 O   0  0  0  0  0  0  0  0  0  0  0  0
  187.4880  176.8650  146.3120 C   0  0  1  0  0  3  0  0  0  0  0  0
  185.1410  176.9150  146.6580 C   0  0  0  0  0  2  0  0  0  0  0  0
  187.2130  177.9130  147.2040 O   0  0  0  0  0  0  0  0  0  0  0  0
  185.9410  177.6270  147.7240 C   0  0  0  0  0  2  0  0  0  0  0  0
  186.1750  176.4440  145.6830 C   0  0  0  0  0  2  0  0  0  0  0  0
  1 15  1  6  0  0  0
  3  6  2  0  0  0  0
  5  1  1  1  0  0  0
  5  8  1  0  0  0  0
  5  4  1  0  0  0  0
  6  9  1  0  0  0  0
  6 10  1  0  0  0  0
  7  2  1  1  0  0  0
  7 10  1  0  0  0  0
  7  8  1  0  0  0  0
  9  4  1  0  0  0  0
 11 12  2  0  0  0  0
 12 15  1  0  0  0  0
 13 11  1  0  0  0  0
 13 17  2  0  0  0  0
 16 15  2  0  0  0  0
 17 18  1  0  0  0  0
 18 16  2  0  0  0  0
 18 14  1  0  0  0  0
 19 20  1  0  0  0  0
 20 13  1  0  0  0  0
 21  1  1  6  0  0  0
 21 23  1  0  0  0  0
 22 24  1  0  0  0  0
 23 24  1  0  0  0  0
 25 21  1  0  0  0  0
 25 22  1  0  0  0  0
M  END
>  <MODEL>
5

>  <REMARK>
 VINA RESULT:      -7.0      2.900      5.932
  Name = 
  4 active torsions:
  status: ('A' for Active; 'I' for Inactive)
    1  A    between atoms: C_1  and  C_6
    2  A    between atoms: C_1  and  C_13
    3  A    between atoms: C_1  and  C_14
    4  A    between atoms: C_11  and  O_17
                            x       y       z     vdW  Elec       q    Type
                         _______ _______ _______ _____ _____    ______ ____

>  <TORSDO>
F 4

$$$$
=
 OpenBabel11042413503D

 25 27  0  0  1  0  0  0  0  0999 V2000
  188.8430  176.9460  142.6200 C   0  0  1  0  0  3  0  0  0  0  0  0
  187.0770  177.8510  146.6550 N   0  0  0  0  0  1  0  0  0  0  0  0
  183.6320  178.9940  143.9340 O   0  0  0  0  0  0  0  0  0  0  0  0
  186.9050  178.5330  142.3150 C   0  0  0  0  0  2  0  0  0  0  0  0
  187.5480  177.5030  143.2400 C   0  0  2  0  0  3  0  0  0  0  0  0
  184.8840  178.8970  143.8420 C   0  0  0  0  0  0  0  0  0  0  0  0
  186.6800  177.9250  145.2610 C   0  0  2  0  0  3  0  0  0  0  0  0
  187.8160  178.1270  144.4680 O   0  0  0  0  0  0  0  0  0  0  0  0
  185.4700  178.6140  142.5640 N   0  0  0  0  0  2  0  0  0  0  0  0
  185.7150  179.0880  145.0730 C   0  0  0  0  0  2  0  0  0  0  0  0
  192.1140  177.1430  144.6840 C   0  0  0  0  0  3  0  0  0  0  0  0
  191.1800  177.2830  143.7110 C   0  0  0  0  0  3  0  0  0  0  0  0
  192.1240  176.3400  145.9700 C   0  0  0  0  0  0  0  0  0  0  0  0
  188.8910  174.4880  146.3860 F   0  0  0  0  0  0  0  0  0  0  0  0
  189.8650  176.6280  143.6830 C   0  0  0  0  0  0  0  0  0  0  0  0
  189.6180  175.8820  144.7010 C   0  0  0  0  0  0  0  0  0  0  0  0
  191.1270  175.5510  146.4460 C   0  0  0  0  0  3  0  0  0  0  0  0
  189.8200  175.2950  145.8210 C   0  0  0  0  0  0  0  0  0  0  0  0
  194.4840  176.9980  146.3410 C   0  0  0  0  0  1  0  0  0  0  0  0
  193.2690  176.4010  146.7710 O   0  0  0  0  0  0  0  0  0  0  0  0
  188.5810  175.7110  141.7350 C   0  0  1  0  0  3  0  0  0  0  0  0
  187.8910  173.4540  141.9780 C   0  0  0  0  0  2  0  0  0  0  0  0
  189.7240  174.9050  141.6250 O   0  0  0  0  0  0  0  0  0  0  0  0
  189.2390  173.6240  141.3180 C   0  0  0  0  0  2  0  0  0  0  0  0
  187.4680  174.8540  142.3040 C   0  0  0  0  0  2  0  0  0  0  0  0
  1 15  1  1  0  0  0
  4  9  1  0  0  0  0
  4  5  1  0  0  0  0
  5  1  1  6  0  0  0
  5  8  1  0  0  0  0
  6  3  2  0  0  0  0
  6 10  1  0  0  0  0
  7  2  1  1  0  0  0
  8  7  1  0  0  0  0
  9  6  1  0  0  0  0
 10  7  1  0  0  0  0
 11 13  1  0  0  0  0
 12 11  2  0  0  0  0
 13 17  2  0  0  0  0
 13 20  1  0  0  0  0
 15 12  1  0  0  0  0
 15 16  2  0  0  0  0
 16 18  2  0  0  0  0
 18 14  1  0  0  0  0
 18 17  1  0  0  0  0
 19 20  1  0  0  0  0
 21 25  1  0  0  0  0
 21  1  1  1  0  0  0
 22 25  1  0  0  0  0
 23 21  1  0  0  0  0
 24 23  1  0  0  0  0
 24 22  1  0  0  0  0
M  END
>  <MODEL>
6

>  <REMARK>
 VINA RESULT:      -7.0      2.049      4.065
  Name = 
  4 active torsions:
  status: ('A' for Active; 'I' for Inactive)
    1  A    between atoms: C_1  and  C_6
    2  A    between atoms: C_1  and  C_13
    3  A    between atoms: C_1  and  C_14
    4  A    between atoms: C_11  and  O_17
                            x       y       z     vdW  Elec       q    Type
                         _______ _______ _______ _____ _____    ______ ____

>  <TORSDO>
F 4

$$$$
=
 OpenBabel11042413503D

 25 27  0  0  1  0  0  0  0  0999 V2000
  186.9650  176.6480  144.6660 C   0  0  1  0  0  3  0  0  0  0  0  0
  183.5070  178.2920  142.3080 N   0  0  0  0  0  1  0  0  0  0  0  0
  186.3150  177.0580  138.9660 O   0  0  0  0  0  0  0  0  0  0  0  0
  187.7700  177.2170  142.3420 C   0  0  0  0  0  2  0  0  0  0  0  0
  186.5510  176.9000  143.2040 C   0  0  2  0  0  3  0  0  0  0  0  0
  186.4150  177.3820  140.1780 C   0  0  0  0  0  0  0  0  0  0  0  0
  184.8070  177.7020  142.0490 C   0  0  2  0  0  3  0  0  0  0  0  0
  185.6630  177.9830  143.1200 O   0  0  0  0  0  0  0  0  0  0  0  0
  187.5120  176.8740  140.9480 N   0  0  0  0  0  2  0  0  0  0  0  0
  185.3830  178.2930  140.7690 C   0  0  0  0  0  2  0  0  0  0  0  0
  190.7270  177.5400  144.8680 C   0  0  0  0  0  3  0  0  0  0  0  0
  189.3880  177.5930  144.6660 C   0  0  0  0  0  3  0  0  0  0  0  0
  191.6480  176.4020  145.2600 C   0  0  0  0  0  0  0  0  0  0  0  0
  189.6930  173.2400  145.7460 F   0  0  0  0  0  0  0  0  0  0  0  0
  188.4560  176.4620  144.7870 C   0  0  0  0  0  0  0  0  0  0  0  0
  189.0060  175.3530  145.1350 C   0  0  0  0  0  0  0  0  0  0  0  0
  191.2930  175.1170  145.5170 C   0  0  0  0  0  3  0  0  0  0  0  0
  189.9400  174.5420  145.4670 C   0  0  0  0  0  0  0  0  0  0  0  0
  193.7830  176.2940  146.5130 C   0  0  0  0  0  1  0  0  0  0  0  0
  193.0140  176.6760  145.3800 O   0  0  0  0  0  0  0  0  0  0  0  0
  186.4800  177.7660  145.6090 C   0  0  1  0  0  3  0  0  0  0  0  0
  185.9390  178.0580  147.9010 C   0  0  0  0  0  2  0  0  0  0  0  0
  185.0810  177.7770  145.7170 O   0  0  0  0  0  0  0  0  0  0  0  0
  184.8140  178.3910  146.9500 C   0  0  0  0  0  2  0  0  0  0  0  0
  187.0450  177.5910  147.0050 C   0  0  0  0  0  2  0  0  0  0  0  0
  1 15  1  6  0  0  0
  3  6  2  0  0  0  0
  4  5  1  0  0  0  0
  5  1  1  1  0  0  0
  6 10  1  0  0  0  0
  6  9  1  0  0  0  0
  7  2  1  1  0  0  0
  7  8  1  0  0  0  0
  8  5  1  0  0  0  0
  9  4  1  0  0  0  0
 10  7  1  0  0  0  0
 11 13  1  0  0  0  0
 12 15  1  0  0  0  0
 12 11  2  0  0  0  0
 13 20  1  0  0  0  0
 13 17  2  0  0  0  0
 15 16  2  0  0  0  0
 16 18  2  0  0  0  0
 18 17  1  0  0  0  0
 18 14  1  0  0  0  0
 20 19  1  0  0  0  0
 21  1  1  6  0  0  0
 21 23  1  0  0  0  0
 21 25  1  0  0  0  0
 23 24  1  0  0  0  0
 24 22  1  0  0  0  0
 25 22  1  0  0  0  0
M  END
>  <MODEL>
7

>  <REMARK>
 VINA RESULT:      -6.8      1.707      2.452
  Name = 
  4 active torsions:
  status: ('A' for Active; 'I' for Inactive)
    1  A    between atoms: C_1  and  C_6
    2  A    between atoms: C_1  and  C_13
    3  A    between atoms: C_1  and  C_14
    4  A    between atoms: C_11  and  O_17
                            x       y       z     vdW  Elec       q    Type
                         _______ _______ _______ _____ _____    ______ ____

>  <TORSDO>
F 4

$$$$
=
 OpenBabel11042413503D

 25 27  0  0  1  0  0  0  0  0999 V2000
  189.3140  177.0350  144.5360 C   0  0  1  0  0  3  0  0  0  0  0  0
  187.9640  173.5650  142.0150 N   0  0  0  0  0  1  0  0  0  0  0  0
  192.4550  173.3750  141.4030 O   0  0  0  0  0  0  0  0  0  0  0  0
  191.1410  176.4760  142.8880 C   0  0  0  0  0  2  0  0  0  0  0  0
  189.9010  175.9540  143.6090 C   0  0  2  0  0  3  0  0  0  0  0  0
  191.6050  174.2510  141.7110 C   0  0  0  0  0  0  0  0  0  0  0  0
  189.2090  174.2160  142.3790 C   0  0  2  0  0  3  0  0  0  0  0  0
  188.9620  175.5690  142.6400 O   0  0  0  0  0  0  0  0  0  0  0  0
  192.0140  175.3690  142.5110 N   0  0  0  0  0  2  0  0  0  0  0  0
  190.1980  174.0930  141.2260 C   0  0  0  0  0  2  0  0  0  0  0  0
  186.5380  178.3210  142.1620 C   0  0  0  0  0  3  0  0  0  0  0  0
  187.7370  178.0030  142.7080 C   0  0  0  0  0  3  0  0  0  0  0  0
  185.1250  178.2450  142.7070 C   0  0  0  0  0  0  0  0  0  0  0  0
  185.1390  176.8860  146.2020 F   0  0  0  0  0  0  0  0  0  0  0  0
  187.9520  177.4780  144.0640 C   0  0  0  0  0  0  0  0  0  0  0  0
  186.8750  177.3050  144.7450 C   0  0  0  0  0  0  0  0  0  0  0  0
  184.7480  177.8050  143.9350 C   0  0  0  0  0  3  0  0  0  0  0  0
  185.6220  177.3070  145.0090 C   0  0  0  0  0  0  0  0  0  0  0  0
  183.9760  178.2910  140.5130 C   0  0  0  0  0  1  0  0  0  0  0  0
  184.0800  178.6660  141.8790 O   0  0  0  0  0  0  0  0  0  0  0  0
  189.2530  176.5720  146.0050 C   0  0  1  0  0  3  0  0  0  0  0  0
  190.6890  175.6240  147.6380 C   0  0  0  0  0  2  0  0  0  0  0  0
  188.9420  175.2070  146.1020 O   0  0  0  0  0  0  0  0  0  0  0  0
  189.4560  174.8030  147.3430 C   0  0  0  0  0  2  0  0  0  0  0  0
  190.5790  176.7910  146.7050 C   0  0  0  0  0  2  0  0  0  0  0  0
  1 15  1  6  0  0  0
  3  6  2  0  0  0  0
  4  5  1  0  0  0  0
  5  1  1  1  0  0  0
  6  9  1  0  0  0  0
  7  2  1  6  0  0  0
  7  8  1  0  0  0  0
  8  5  1  0  0  0  0
  9  4  1  0  0  0  0
 10  6  1  0  0  0  0
 10  7  1  0  0  0  0
 11 13  1  0  0  0  0
 11 12  2  0  0  0  0
 12 15  1  0  0  0  0
 13 17  2  0  0  0  0
 15 16  2  0  0  0  0
 16 18  2  0  0  0  0
 17 18  1  0  0  0  0
 18 14  1  0  0  0  0
 19 20  1  0  0  0  0
 20 13  1  0  0  0  0
 21  1  1  6  0  0  0
 21 23  1  0  0  0  0
 21 25  1  0  0  0  0
 23 24  1  0  0  0  0
 24 22  1  0  0  0  0
 25 22  1  0  0  0  0
M  END
>  <MODEL>
8

>  <REMARK>
 VINA RESULT:      -6.8      2.460      5.731
  Name = 
  4 active torsions:
  status: ('A' for Active; 'I' for Inactive)
    1  A    between atoms: C_1  and  C_6
    2  A    between atoms: C_1  and  C_13
    3  A    between atoms: C_1  and  C_14
    4  A    between atoms: C_11  and  O_17
                            x       y       z     vdW  Elec       q    Type
                         _______ _______ _______ _____ _____    ______ ____

>  <TORSDO>
F 4

$$$$
=
 OpenBabel11042413503D

 25 27  0  0  1  0  0  0  0  0999 V2000
  190.5580  176.2070  144.2190 C   0  0  1  0  0  3  0  0  0  0  0  0
  189.4570  171.9420  145.1210 N   0  0  0  0  0  1  0  0  0  0  0  0
  190.5550  171.6340  140.7310 O   0  0  0  0  0  0  0  0  0  0  0  0
  190.0360  175.0310  142.0470 C   0  0  0  0  0  2  0  0  0  0  0  0
  190.4400  174.8460  143.5080 C   0  0  2  0  0  3  0  0  0  0  0  0
  190.1530  172.5300  141.5180 C   0  0  0  0  0  0  0  0  0  0  0  0
  189.9100  172.7230  143.9850 C   0  0  2  0  0  3  0  0  0  0  0  0
  189.4710  174.0450  144.1300 O   0  0  0  0  0  0  0  0  0  0  0  0
  190.4870  173.8980  141.2470 N   0  0  0  0  0  2  0  0  0  0  0  0
  189.3330  172.1330  142.7060 C   0  0  0  0  0  2  0  0  0  0  0  0
  187.7140  176.8950  146.7550 C   0  0  0  0  0  3  0  0  0  0  0  0
  188.8390  176.4300  146.1580 C   0  0  0  0  0  3  0  0  0  0  0  0
  186.5680  177.7420  146.2380 C   0  0  0  0  0  0  0  0  0  0  0  0
  187.1260  178.6490  142.6430 F   0  0  0  0  0  0  0  0  0  0  0  0
  189.2240  176.6590  144.7580 C   0  0  0  0  0  0  0  0  0  0  0  0
  188.4000  177.3850  144.0900 C   0  0  0  0  0  0  0  0  0  0  0  0
  186.4320  178.2520  144.9880 C   0  0  0  0  0  3  0  0  0  0  0  0
  187.3580  178.0930  143.8560 C   0  0  0  0  0  0  0  0  0  0  0  0
  184.1980  178.2990  146.6940 C   0  0  0  0  0  1  0  0  0  0  0  0
  185.5290  178.0490  147.1230 O   0  0  0  0  0  0  0  0  0  0  0  0
  191.6170  176.1890  145.3390 C   0  0  1  0  0  3  0  0  0  0  0  0
  193.9780  176.1310  145.5620 C   0  0  0  0  0  2  0  0  0  0  0  0
  191.9780  174.8780  145.6840 O   0  0  0  0  0  0  0  0  0  0  0  0
  193.2610  174.9870  146.2400 C   0  0  0  0  0  2  0  0  0  0  0  0
  192.8780  176.9140  144.9150 C   0  0  0  0  0  2  0  0  0  0  0  0
  1 15  1  1  0  0  0
  3  6  2  0  0  0  0
  4  5  1  0  0  0  0
  5  8  1  0  0  0  0
  5  1  1  1  0  0  0
  6 10  1  0  0  0  0
  7  8  1  0  0  0  0
  7  2  1  1  0  0  0
  9  6  1  0  0  0  0
  9  4  1  0  0  0  0
 10  7  1  0  0  0  0
 12 11  2  0  0  0  0
 13 11  1  0  0  0  0
 13 20  1  0  0  0  0
 14 18  1  0  0  0  0
 15 12  1  0  0  0  0
 16 15  2  0  0  0  0
 17 13  2  0  0  0  0
 18 16  2  0  0  0  0
 18 17  1  0  0  0  0
 19 20  1  0  0  0  0
 21  1  1  6  0  0  0
 21 23  1  0  0  0  0
 22 24  1  0  0  0  0
 23 24  1  0  0  0  0
 25 21  1  0  0  0  0
 25 22  1  0  0  0  0
M  END
>  <MODEL>
9

>  <REMARK>
 VINA RESULT:      -6.7      2.932      5.909
  Name = 
  4 active torsions:
  status: ('A' for Active; 'I' for Inactive)
    1  A    between atoms: C_1  and  C_6
    2  A    between atoms: C_1  and  C_13
    3  A    between atoms: C_1  and  C_14
    4  A    between atoms: C_11  and  O_17
                            x       y       z     vdW  Elec       q    Type
                         _______ _______ _______ _____ _____    ______ ____

>  <TORSDO>
F 4

$$$$
