=
 OpenBabel11042415363D

 39 45  0  0  1  0  0  0  0  0999 V2000
  189.4440  174.1800  143.7240 C   0  0  2  0  0  3  0  0  0  0  0  0
  189.0100  175.5400  144.0480 N   0  0  0  0  0  0  0  0  0  0  0  0
  186.0570  176.5840  142.5550 N   0  0  0  0  0  0  0  0  0  0  0  0
  190.8780  173.9910  144.1960 C   0  0  1  0  0  3  0  0  0  0  0  0
  186.6590  175.6200  143.1270 N   0  0  0  0  0  0  0  0  0  0  0  0
  191.4510  172.3470  144.4700 Cl  0  0  0  0  0  0  0  0  0  0  0  0
  189.2240  177.9390  143.8260 C   0  0  0  0  0  3  0  0  0  0  0  0
  191.7180  175.0440  144.3500 C   0  0  0  0  0  0  0  0  0  0  0  0
  186.7110  177.8630  142.8350 C   0  0  2  0  0  3  0  0  0  0  0  0
  187.7400  176.1490  143.8730 C   0  0  0  0  0  0  0  0  0  0  0  0
  187.8070  177.4520  143.7600 C   0  0  0  0  0  0  0  0  0  0  0  0
  191.2190  176.4320  144.1730 C   0  0  0  0  0  3  0  0  0  0  0  0
  189.9140  176.6330  144.0400 C   0  0  0  0  0  0  0  0  0  0  0  0
  189.8540  172.5490  141.8730 C   0  0  1  0  0  3  0  0  0  0  0  0
  189.3800  173.9570  142.2150 C   0  0  1  0  0  3  0  0  0  0  0  0
  187.8480  173.1180  140.6030 O   0  0  0  0  0  1  0  0  0  0  0  0
  188.3580  172.8870  141.8850 C   0  0  1  0  0  3  0  0  0  0  0  0
  191.7020  172.2880  137.9890 C   0  0  0  0  0  3  0  0  0  0  0  0
  190.4860  171.2610  139.8160 C   0  0  0  0  0  3  0  0  0  0  0  0
  191.7060  173.5040  138.6790 C   0  0  0  0  0  3  0  0  0  0  0  0
  191.0950  171.1660  138.5580 C   0  0  0  0  0  3  0  0  0  0  0  0
  190.4670  172.4820  140.5000 C   0  0  0  0  0  0  0  0  0  0  0  0
  191.0970  173.6000  139.9340 C   0  0  0  0  0  3  0  0  0  0  0  0
  194.1950  174.6940  143.7940 C   0  0  0  0  0  0  0  0  0  0  0  0
  193.0900  174.8010  144.6990 N   0  0  0  0  0  2  0  0  0  0  0  0
  194.0460  174.9050  142.5600 O   0  0  0  0  0  0  0  0  0  0  0  0
  196.3400  173.8140  143.4020 O   0  0  0  0  0  0  0  0  0  0  0  0
  195.5470  174.3750  144.3510 C   0  0  2  0  0  3  0  0  0  0  0  0
  195.7630  172.9450  144.3190 N   0  0  2  0  0  0  0  0  0  0  0  0
  197.0680  173.5570  146.4830 C   0  0  0  0  0  1  0  0  0  0  0  0
  197.7410  171.7420  144.9570 O   0  0  0  0  0  0  0  0  0  0  0  0
  196.7020  171.2360  145.7300 N   0  0  0  0  0  2  0  0  0  0  0  0
  196.7710  172.6150  145.3290 C   0  0  2  0  0  0  0  0  0  0  0  0
  185.7490  178.8080  143.4960 C   0  0  0  0  0  0  0  0  0  0  0  0
  186.0330  179.9920  143.6310 O   0  0  0  0  0  0  0  0  0  0  0  0
  183.3830  178.7740  143.2560 O   0  0  0  0  0  1  0  0  0  0  0  0
  184.4460  178.2750  144.0120 C   0  0  2  0  0  3  0  0  0  0  0  0
  184.2450  178.5810  145.4910 C   0  0  0  0  0  2  0  0  0  0  0  0
  185.2440  177.9810  146.2650 O   0  0  0  0  0  1  0  0  0  0  0  0
  1  2  1  6  0  0  0
  1  4  1  0  0  0  0
  3  9  1  0  0  0  0
  3  5  2  0  0  0  0
  4  8  1  0  0  0  0
  4  6  1  6  0  0  0
  5 10  1  0  0  0  0
  7 13  2  0  0  0  0
  8 25  1  0  0  0  0
  9 34  1  1  0  0  0
  9 11  1  0  0  0  0
 10  2  1  0  0  0  0
 11  7  1  0  0  0  0
 11 10  2  0  0  0  0
 12  8  2  0  0  0  0
 13  2  1  0  0  0  0
 13 12  1  0  0  0  0
 14 22  1  6  0  0  0
 14 17  1  0  0  0  0
 14 15  1  0  0  0  0
 15  1  1  1  0  0  0
 17 16  1  6  0  0  0
 17 15  1  0  0  0  0
 18 21  2  0  0  0  0
 18 20  1  0  0  0  0
 19 22  2  0  0  0  0
 20 23  2  0  0  0  0
 21 19  1  0  0  0  0
 23 22  1  0  0  0  0
 24 25  1  0  0  0  0
 26 24  2  0  0  0  0
 27 28  1  0  0  0  0
 28 24  1  6  0  0  0
 29 27  1  6  0  0  0
 29 28  1  0  0  0  0
 29 33  1  0  0  0  0
 31 33  1  0  0  0  0
 31 32  1  0  0  0  0
 33 32  1  0  0  0  0
 33 30  1  1  0  0  0
 34 35  2  0  0  0  0
 34 37  1  0  0  0  0
 37 36  1  6  0  0  0
 37 38  1  0  0  0  0
 38 39  1  0  0  0  0
M  END
>  <MODEL>
1

>  <REMARK>
 VINA RESULT:      -6.9      0.000      0.000
  Name = 
  8 active torsions:
  status: ('A' for Active; 'I' for Inactive)
    1  A    between atoms: C_1  and  C_35
    2  A    between atoms: C_3  and  C_29
    3  A    between atoms: C_4  and  C_8
    4  A    between atoms: C_10  and  C_11
    5  A    between atoms: C_13  and  C_30
    6  A    between atoms: C_13  and  C_35
    7  A    between atoms: N_14  and  C_28
    8  A    between atoms: C_34  and  N_36
                            x       y       z     vdW  Elec       q    Type
                         _______ _______ _______ _____ _____    ______ ____

>  <TORSDO>
F 8

$$$$
=
 OpenBabel11042415363D

 39 45  0  0  1  0  0  0  0  0999 V2000
  190.2610  172.7510  143.2350 C   0  0  2  0  0  3  0  0  0  0  0  0
  189.7860  172.6100  141.8570 N   0  0  0  0  0  0  0  0  0  0  0  0
  191.6410  170.4970  139.8250 N   0  0  0  0  0  0  0  0  0  0  0  0
  189.5440  173.9230  143.8890 C   0  0  1  0  0  3  0  0  0  0  0  0
  191.1460  170.6680  140.9840 N   0  0  0  0  0  0  0  0  0  0  0  0
  189.4690  173.9700  145.6500 Cl  0  0  0  0  0  0  0  0  0  0  0  0
  189.5060  173.4770  139.6160 C   0  0  0  0  0  3  0  0  0  0  0  0
  189.0230  174.9360  143.1540 C   0  0  0  0  0  0  0  0  0  0  0  0
  190.9960  171.3620  138.8350 C   0  0  2  0  0  3  0  0  0  0  0  0
  190.1060  171.6240  140.8880 C   0  0  0  0  0  0  0  0  0  0  0  0
  189.9560  172.0470  139.6570 C   0  0  0  0  0  0  0  0  0  0  0  0
  189.0380  174.8680  141.6700 C   0  0  0  0  0  3  0  0  0  0  0  0
  189.4010  173.7340  141.0830 C   0  0  0  0  0  0  0  0  0  0  0  0
  192.2170  173.4210  144.6430 C   0  0  1  0  0  3  0  0  0  0  0  0
  191.7650  173.0160  143.2440 C   0  0  1  0  0  3  0  0  0  0  0  0
  193.7790  171.8250  143.6590 O   0  0  0  0  0  1  0  0  0  0  0  0
  192.4720  172.0020  144.1210 C   0  0  1  0  0  3  0  0  0  0  0  0
  195.6040  176.0850  144.6130 C   0  0  0  0  0  3  0  0  0  0  0  0
  194.2370  174.4280  145.7350 C   0  0  0  0  0  3  0  0  0  0  0  0
  194.7760  176.0020  143.4890 C   0  0  0  0  0  3  0  0  0  0  0  0
  195.3330  175.3010  145.7370 C   0  0  0  0  0  3  0  0  0  0  0  0
  193.4190  174.3250  144.6040 C   0  0  0  0  0  0  0  0  0  0  0  0
  193.6820  175.1300  143.4870 C   0  0  0  0  0  3  0  0  0  0  0  0
  187.0950  176.5270  143.7200 C   0  0  0  0  0  0  0  0  0  0  0  0
  188.4480  176.0660  143.8270 N   0  0  0  0  0  2  0  0  0  0  0  0
  186.2410  175.8830  143.0520 O   0  0  0  0  0  0  0  0  0  0  0  0
  187.4310  177.9030  145.5970 O   0  0  0  0  0  0  0  0  0  0  0  0
  186.7020  177.7670  144.4590 C   0  0  2  0  0  3  0  0  0  0  0  0
  186.1410  177.4120  145.7440 N   0  0  2  0  0  0  0  0  0  0  0  0
  184.1150  178.9910  145.3390 C   0  0  0  0  0  1  0  0  0  0  0  0
  185.8240  179.3890  147.0710 O   0  0  0  0  0  0  0  0  0  0  0  0
  184.9650  178.4240  147.5840 N   0  0  0  0  0  2  0  0  0  0  0  0
  185.2820  178.5140  146.1850 C   0  0  2  0  0  0  0  0  0  0  0  0
  190.3850  170.5370  137.7390 C   0  0  0  0  0  0  0  0  0  0  0  0
  189.6420  169.6000  138.0060 O   0  0  0  0  0  0  0  0  0  0  0  0
  191.8550  171.6690  136.2500 O   0  0  0  0  0  1  0  0  0  0  0  0
  190.7170  170.8620  136.3140 C   0  0  2  0  0  3  0  0  0  0  0  0
  189.5490  171.5190  135.5870 C   0  0  0  0  0  2  0  0  0  0  0  0
  189.3180  172.8090  136.0780 O   0  0  0  0  0  1  0  0  0  0  0  0
  1  2  1  6  0  0  0
  1  4  1  0  0  0  0
  3  5  2  0  0  0  0
  4  6  1  1  0  0  0
  7 11  1  0  0  0  0
  7 13  2  0  0  0  0
  8 25  1  0  0  0  0
  8  4  1  0  0  0  0
  9 34  1  6  0  0  0
  9 11  1  0  0  0  0
  9  3  1  0  0  0  0
 10  5  1  0  0  0  0
 10  2  1  0  0  0  0
 11 10  2  0  0  0  0
 12  8  2  0  0  0  0
 13 12  1  0  0  0  0
 13  2  1  0  0  0  0
 14 22  1  6  0  0  0
 15  1  1  1  0  0  0
 15 17  1  0  0  0  0
 15 14  1  0  0  0  0
 17 16  1  6  0  0  0
 17 14  1  0  0  0  0
 18 21  1  0  0  0  0
 19 21  2  0  0  0  0
 20 18  2  0  0  0  0
 22 19  1  0  0  0  0
 23 20  1  0  0  0  0
 23 22  2  0  0  0  0
 24 25  1  0  0  0  0
 26 24  2  0  0  0  0
 28 24  1  6  0  0  0
 28 27  1  0  0  0  0
 28 29  1  0  0  0  0
 29 27  1  1  0  0  0
 29 33  1  0  0  0  0
 31 32  1  0  0  0  0
 33 30  1  6  0  0  0
 33 31  1  0  0  0  0
 33 32  1  0  0  0  0
 34 35  2  0  0  0  0
 37 36  1  1  0  0  0
 37 34  1  0  0  0  0
 38 39  1  0  0  0  0
 38 37  1  0  0  0  0
M  END
>  <MODEL>
2

>  <REMARK>
 VINA RESULT:      -6.8      2.841      8.658
  Name = 
  8 active torsions:
  status: ('A' for Active; 'I' for Inactive)
    1  A    between atoms: C_1  and  C_35
    2  A    between atoms: C_3  and  C_29
    3  A    between atoms: C_4  and  C_8
    4  A    between atoms: C_10  and  C_11
    5  A    between atoms: C_13  and  C_30
    6  A    between atoms: C_13  and  C_35
    7  A    between atoms: N_14  and  C_28
    8  A    between atoms: C_34  and  N_36
                            x       y       z     vdW  Elec       q    Type
                         _______ _______ _______ _____ _____    ______ ____

>  <TORSDO>
F 8

$$$$
=
 OpenBabel11042415363D

 39 45  0  0  1  0  0  0  0  0999 V2000
  190.1360  177.6520  143.2450 C   0  0  2  0  0  3  0  0  0  0  0  0
  189.0700  177.1680  142.3660 N   0  0  0  0  0  0  0  0  0  0  0  0
  186.1070  178.9720  142.4430 N   0  0  0  0  0  0  0  0  0  0  0  0
  191.2300  176.5970  143.3270 C   0  0  1  0  0  3  0  0  0  0  0  0
  187.3770  179.0420  142.4410 N   0  0  0  0  0  0  0  0  0  0  0  0
  192.8440  177.1130  143.8110 Cl  0  0  0  0  0  0  0  0  0  0  0  0
  187.3380  175.5690  141.8230 C   0  0  0  0  0  3  0  0  0  0  0  0
  190.9700  175.2880  143.0920 C   0  0  0  0  0  0  0  0  0  0  0  0
  185.6440  177.6690  141.9630 C   0  0  2  0  0  3  0  0  0  0  0  0
  187.8910  177.8260  141.9300 C   0  0  0  0  0  0  0  0  0  0  0  0
  186.9290  176.9950  141.6120 C   0  0  0  0  0  0  0  0  0  0  0  0
  189.6240  174.8620  142.6300 C   0  0  0  0  0  3  0  0  0  0  0  0
  188.7420  175.7910  142.2830 C   0  0  0  0  0  0  0  0  0  0  0  0
  188.6410  176.7810  145.0510 C   0  0  1  0  0  3  0  0  0  0  0  0
  189.5820  177.9090  144.6450 C   0  0  1  0  0  3  0  0  0  0  0  0
  190.1200  177.3790  146.8980 O   0  0  0  0  0  1  0  0  0  0  0  0
  190.0690  176.8440  145.6070 C   0  0  1  0  0  3  0  0  0  0  0  0
  185.5180  178.0510  147.7340 C   0  0  0  0  0  3  0  0  0  0  0  0
  187.1270  176.3890  147.0110 C   0  0  0  0  0  3  0  0  0  0  0  0
  185.9500  178.9080  146.7170 C   0  0  0  0  0  3  0  0  0  0  0  0
  186.1040  176.7910  147.8800 C   0  0  0  0  0  3  0  0  0  0  0  0
  187.5780  177.2520  146.0060 C   0  0  0  0  0  0  0  0  0  0  0  0
  186.9720  178.5070  145.8500 C   0  0  0  0  0  3  0  0  0  0  0  0
  192.3030  173.6010  144.4870 C   0  0  0  0  0  0  0  0  0  0  0  0
  192.0160  174.3210  143.2830 N   0  0  0  0  0  2  0  0  0  0  0  0
  191.5600  173.7080  145.5010 O   0  0  0  0  0  0  0  0  0  0  0  0
  193.8350  172.3690  145.7780 O   0  0  0  0  0  0  0  0  0  0  0  0
  193.4800  172.6770  144.5030 C   0  0  2  0  0  3  0  0  0  0  0  0
  194.6050  173.3290  145.1360 N   0  0  2  0  0  0  0  0  0  0  0  0
  196.1300  172.5610  143.1750 C   0  0  0  0  0  1  0  0  0  0  0  0
  196.4180  171.7980  145.5010 O   0  0  0  0  0  0  0  0  0  0  0  0
  196.9790  173.0680  145.4360 N   0  0  0  0  0  2  0  0  0  0  0  0
  195.8310  172.6850  144.6590 C   0  0  2  0  0  0  0  0  0  0  0  0
  184.7590  177.8390  140.7620 C   0  0  0  0  0  0  0  0  0  0  0  0
  185.1730  177.5720  139.6410 O   0  0  0  0  0  0  0  0  0  0  0  0
  183.0020  178.2980  142.2990 O   0  0  0  0  0  1  0  0  0  0  0  0
  183.3670  178.3640  140.9530 C   0  0  2  0  0  3  0  0  0  0  0  0
  182.3520  177.6310  140.0840 C   0  0  0  0  0  2  0  0  0  0  0  0
  181.0610  178.1230  140.3010 O   0  0  0  0  0  1  0  0  0  0  0  0
  1  2  1  6  0  0  0
  1  4  1  0  0  0  0
  4  6  1  1  0  0  0
  5  3  2  0  0  0  0
  7 13  2  0  0  0  0
  8 25  1  0  0  0  0
  8  4  1  0  0  0  0
  9 34  1  6  0  0  0
  9  3  1  0  0  0  0
 10  2  1  0  0  0  0
 10  5  1  0  0  0  0
 11  7  1  0  0  0  0
 11 10  2  0  0  0  0
 11  9  1  0  0  0  0
 12  8  2  0  0  0  0
 13  2  1  0  0  0  0
 13 12  1  0  0  0  0
 14 17  1  0  0  0  0
 14 22  1  1  0  0  0
 15  1  1  6  0  0  0
 15 14  1  0  0  0  0
 15 17  1  0  0  0  0
 17 16  1  1  0  0  0
 18 21  1  0  0  0  0
 19 21  2  0  0  0  0
 20 18  2  0  0  0  0
 22 19  1  0  0  0  0
 23 22  2  0  0  0  0
 23 20  1  0  0  0  0
 24 26  2  0  0  0  0
 25 24  1  0  0  0  0
 28 24  1  1  0  0  0
 28 29  1  0  0  0  0
 28 27  1  0  0  0  0
 29 27  1  1  0  0  0
 32 31  1  0  0  0  0
 33 30  1  6  0  0  0
 33 29  1  0  0  0  0
 33 32  1  0  0  0  0
 33 31  1  0  0  0  0
 34 37  1  0  0  0  0
 35 34  2  0  0  0  0
 37 36  1  1  0  0  0
 38 39  1  0  0  0  0
 38 37  1  0  0  0  0
M  END
>  <MODEL>
3

>  <REMARK>
 VINA RESULT:      -6.6      2.927      5.359
  Name = 
  8 active torsions:
  status: ('A' for Active; 'I' for Inactive)
    1  A    between atoms: C_1  and  C_35
    2  A    between atoms: C_3  and  C_29
    3  A    between atoms: C_4  and  C_8
    4  A    between atoms: C_10  and  C_11
    5  A    between atoms: C_13  and  C_30
    6  A    between atoms: C_13  and  C_35
    7  A    between atoms: N_14  and  C_28
    8  A    between atoms: C_34  and  N_36
                            x       y       z     vdW  Elec       q    Type
                         _______ _______ _______ _____ _____    ______ ____

>  <TORSDO>
F 8

$$$$
=
 OpenBabel11042415363D

 39 45  0  0  1  0  0  0  0  0999 V2000
  191.8970  175.9960  143.3270 C   0  0  2  0  0  3  0  0  0  0  0  0
  190.4720  176.2100  143.5850 N   0  0  0  0  0  0  0  0  0  0  0  0
  189.6660  177.3750  146.7520 N   0  0  0  0  0  0  0  0  0  0  0  0
  192.0540  175.2070  142.0350 C   0  0  1  0  0  3  0  0  0  0  0  0
  190.4760  177.4690  145.7760 N   0  0  0  0  0  0  0  0  0  0  0  0
  193.5960  175.3030  141.1870 Cl  0  0  0  0  0  0  0  0  0  0  0  0
  188.2500  175.3620  144.0280 C   0  0  0  0  0  3  0  0  0  0  0  0
  191.0640  174.4060  141.5690 C   0  0  0  0  0  0  0  0  0  0  0  0
  188.4110  176.7400  146.3460 C   0  0  2  0  0  3  0  0  0  0  0  0
  189.8440  176.9500  144.6200 C   0  0  0  0  0  0  0  0  0  0  0  0
  188.6300  176.5320  144.8850 C   0  0  0  0  0  0  0  0  0  0  0  0
  189.7460  174.3690  142.2530 C   0  0  0  0  0  3  0  0  0  0  0  0
  189.4950  175.2540  143.2090 C   0  0  0  0  0  0  0  0  0  0  0  0
  194.0430  175.2830  144.3950 C   0  0  1  0  0  3  0  0  0  0  0  0
  192.5230  175.2070  144.4740 C   0  0  1  0  0  3  0  0  0  0  0  0
  193.2820  175.5910  146.6930 O   0  0  0  0  0  1  0  0  0  0  0  0
  193.2710  176.1390  145.4060 C   0  0  1  0  0  3  0  0  0  0  0  0
  195.9950  171.7830  145.9780 C   0  0  0  0  0  3  0  0  0  0  0  0
  196.0110  174.1500  145.4600 C   0  0  0  0  0  3  0  0  0  0  0  0
  194.6920  171.6850  145.4810 C   0  0  0  0  0  3  0  0  0  0  0  0
  196.6550  173.0140  145.9660 C   0  0  0  0  0  3  0  0  0  0  0  0
  194.6980  174.0620  144.9820 C   0  0  0  0  0  0  0  0  0  0  0  0
  194.0480  172.8200  144.9760 C   0  0  0  0  0  3  0  0  0  0  0  0
  191.2850  172.1750  140.3270 C   0  0  0  0  0  0  0  0  0  0  0  0
  191.3030  173.6050  140.4000 N   0  0  0  0  0  2  0  0  0  0  0  0
  190.9550  171.4780  141.3250 O   0  0  0  0  0  0  0  0  0  0  0  0
  191.6630  172.4380  138.0210 O   0  0  0  0  0  0  0  0  0  0  0  0
  191.6210  171.5220  139.0230 C   0  0  2  0  0  3  0  0  0  0  0  0
  190.5120  171.6660  138.1050 N   0  0  2  0  0  0  0  0  0  0  0  0
  190.5130  169.1360  137.5070 C   0  0  0  0  0  1  0  0  0  0  0  0
  191.2530  170.9010  135.9530 O   0  0  0  0  0  0  0  0  0  0  0  0
  189.8640  170.9060  135.9160 N   0  0  0  0  0  2  0  0  0  0  0  0
  190.6070  170.5980  137.1070 C   0  0  2  0  0  0  0  0  0  0  0  0
  187.2520  177.6580  146.6100 C   0  0  0  0  0  0  0  0  0  0  0  0
  187.1790  178.2810  147.6630 O   0  0  0  0  0  0  0  0  0  0  0  0
  186.2310  179.0360  144.9630 O   0  0  0  0  0  1  0  0  0  0  0  0
  186.1740  177.7840  145.5760 C   0  0  2  0  0  3  0  0  0  0  0  0
  184.7880  177.5310  146.1580 C   0  0  0  0  0  2  0  0  0  0  0  0
  184.0060  178.6900  146.1050 O   0  0  0  0  0  1  0  0  0  0  0  0
  1  2  1  1  0  0  0
  2 10  1  0  0  0  0
  4  6  1  1  0  0  0
  4  1  1  0  0  0  0
  5  3  2  0  0  0  0
  7 11  1  0  0  0  0
  8  4  1  0  0  0  0
  8 12  2  0  0  0  0
  9 34  1  6  0  0  0
  9  3  1  0  0  0  0
 10 11  2  0  0  0  0
 10  5  1  0  0  0  0
 11  9  1  0  0  0  0
 12 13  1  0  0  0  0
 13  2  1  0  0  0  0
 13  7  2  0  0  0  0
 14 15  1  0  0  0  0
 14 22  1  1  0  0  0
 14 17  1  0  0  0  0
 15  1  1  6  0  0  0
 15 17  1  0  0  0  0
 17 16  1  1  0  0  0
 19 21  2  0  0  0  0
 20 18  2  0  0  0  0
 21 18  1  0  0  0  0
 22 19  1  0  0  0  0
 23 22  2  0  0  0  0
 23 20  1  0  0  0  0
 24 25  1  0  0  0  0
 24 26  2  0  0  0  0
 25  8  1  0  0  0  0
 27 28  1  0  0  0  0
 28 24  1  1  0  0  0
 29 27  1  6  0  0  0
 29 28  1  0  0  0  0
 31 33  1  0  0  0  0
 32 31  1  0  0  0  0
 32 33  1  0  0  0  0
 33 30  1  1  0  0  0
 33 29  1  0  0  0  0
 34 35  2  0  0  0  0
 37 36  1  1  0  0  0
 37 38  1  0  0  0  0
 37 34  1  0  0  0  0
 39 38  1  0  0  0  0
M  END
>  <MODEL>
4

>  <REMARK>
 VINA RESULT:      -6.6      3.103      6.238
  Name = 
  8 active torsions:
  status: ('A' for Active; 'I' for Inactive)
    1  A    between atoms: C_1  and  C_35
    2  A    between atoms: C_3  and  C_29
    3  A    between atoms: C_4  and  C_8
    4  A    between atoms: C_10  and  C_11
    5  A    between atoms: C_13  and  C_30
    6  A    between atoms: C_13  and  C_35
    7  A    between atoms: N_14  and  C_28
    8  A    between atoms: C_34  and  N_36
                            x       y       z     vdW  Elec       q    Type
                         _______ _______ _______ _____ _____    ______ ____

>  <TORSDO>
F 8

$$$$
=
 OpenBabel11042415363D

 39 45  0  0  1  0  0  0  0  0999 V2000
  192.2340  175.7900  142.5730 C   0  0  2  0  0  3  0  0  0  0  0  0
  190.7920  175.9200  142.7920 N   0  0  0  0  0  0  0  0  0  0  0  0
  189.8440  177.6130  145.6680 N   0  0  0  0  0  0  0  0  0  0  0  0
  192.4780  174.7770  141.4640 C   0  0  1  0  0  3  0  0  0  0  0  0
  190.6540  177.5840  144.6880 N   0  0  0  0  0  0  0  0  0  0  0  0
  194.0160  174.8430  140.6050 Cl  0  0  0  0  0  0  0  0  0  0  0  0
  188.6510  174.9780  143.4080 C   0  0  0  0  0  3  0  0  0  0  0  0
  191.5710  173.8130  141.1730 C   0  0  0  0  0  0  0  0  0  0  0  0
  188.6570  176.7980  145.4040 C   0  0  2  0  0  3  0  0  0  0  0  0
  190.0860  176.7910  143.6630 C   0  0  0  0  0  0  0  0  0  0  0  0
  188.9130  176.3250  144.0120 C   0  0  0  0  0  0  0  0  0  0  0  0
  190.2530  173.7920  141.8580 C   0  0  0  0  0  3  0  0  0  0  0  0
  189.9100  174.8230  142.6200 C   0  0  0  0  0  0  0  0  0  0  0  0
  194.4290  175.4010  143.7080 C   0  0  1  0  0  3  0  0  0  0  0  0
  192.9140  175.3050  143.8520 C   0  0  1  0  0  3  0  0  0  0  0  0
  193.7160  176.2140  145.8960 O   0  0  0  0  0  1  0  0  0  0  0  0
  193.6550  176.4470  144.5190 C   0  0  1  0  0  3  0  0  0  0  0  0
  196.5370  172.4190  145.9960 C   0  0  0  0  0  3  0  0  0  0  0  0
  196.4430  174.6170  144.9800 C   0  0  0  0  0  3  0  0  0  0  0  0
  195.2410  172.1560  145.5390 C   0  0  0  0  0  3  0  0  0  0  0  0
  197.1390  173.6480  145.7140 C   0  0  0  0  0  3  0  0  0  0  0  0
  195.1380  174.3670  144.5400 C   0  0  0  0  0  0  0  0  0  0  0  0
  194.5460  173.1240  144.8070 C   0  0  0  0  0  3  0  0  0  0  0  0
  191.4660  172.8040  138.8190 C   0  0  0  0  0  0  0  0  0  0  0  0
  191.8960  172.8210  140.1850 N   0  0  0  0  0  2  0  0  0  0  0  0
  190.8030  173.7600  138.3350 O   0  0  0  0  0  0  0  0  0  0  0  0
  190.9360  171.4180  136.9940 O   0  0  0  0  0  0  0  0  0  0  0  0
  191.8650  171.6450  137.9590 C   0  0  2  0  0  3  0  0  0  0  0  0
  190.8980  170.5790  138.0990 N   0  0  2  0  0  0  0  0  0  0  0  0
  192.8440  168.8820  138.4090 C   0  0  0  0  0  1  0  0  0  0  0  0
  191.2820  168.8260  136.5020 O   0  0  0  0  0  0  0  0  0  0  0  0
  190.6110  168.2480  137.5730 N   0  0  0  0  0  2  0  0  0  0  0  0
  191.5540  169.3200  137.7370 C   0  0  2  0  0  0  0  0  0  0  0  0
  187.4170  177.6410  145.4860 C   0  0  0  0  0  0  0  0  0  0  0  0
  186.9300  178.1330  144.4750 O   0  0  0  0  0  0  0  0  0  0  0  0
  186.3260  176.6950  147.3770 O   0  0  0  0  0  1  0  0  0  0  0  0
  186.7940  177.8900  146.8270 C   0  0  2  0  0  3  0  0  0  0  0  0
  185.6770  178.9250  146.7590 C   0  0  0  0  0  2  0  0  0  0  0  0
  184.4230  178.3140  146.8640 O   0  0  0  0  0  1  0  0  0  0  0  0
  1  2  1  1  0  0  0
  2 10  1  0  0  0  0
  4  6  1  1  0  0  0
  4  1  1  0  0  0  0
  5  3  2  0  0  0  0
  7 11  1  0  0  0  0
  8  4  1  0  0  0  0
  8 12  2  0  0  0  0
  9 34  1  6  0  0  0
  9  3  1  0  0  0  0
 10 11  2  0  0  0  0
 10  5  1  0  0  0  0
 11  9  1  0  0  0  0
 12 13  1  0  0  0  0
 13  2  1  0  0  0  0
 13  7  2  0  0  0  0
 14 15  1  0  0  0  0
 14 17  1  0  0  0  0
 14 22  1  1  0  0  0
 15  1  1  6  0  0  0
 15 17  1  0  0  0  0
 17 16  1  1  0  0  0
 19 21  2  0  0  0  0
 20 18  2  0  0  0  0
 21 18  1  0  0  0  0
 22 23  2  0  0  0  0
 22 19  1  0  0  0  0
 23 20  1  0  0  0  0
 24 25  1  0  0  0  0
 25  8  1  0  0  0  0
 26 24  2  0  0  0  0
 27 28  1  0  0  0  0
 28 29  1  0  0  0  0
 28 24  1  1  0  0  0
 29 27  1  6  0  0  0
 31 32  1  0  0  0  0
 31 33  1  0  0  0  0
 32 33  1  0  0  0  0
 33 29  1  0  0  0  0
 33 30  1  1  0  0  0
 34 37  1  0  0  0  0
 35 34  2  0  0  0  0
 37 36  1  6  0  0  0
 38 37  1  0  0  0  0
 38 39  1  0  0  0  0
M  END
>  <MODEL>
5

>  <REMARK>
 VINA RESULT:      -6.6      3.218      6.239
  Name = 
  8 active torsions:
  status: ('A' for Active; 'I' for Inactive)
    1  A    between atoms: C_1  and  C_35
    2  A    between atoms: C_3  and  C_29
    3  A    between atoms: C_4  and  C_8
    4  A    between atoms: C_10  and  C_11
    5  A    between atoms: C_13  and  C_30
    6  A    between atoms: C_13  and  C_35
    7  A    between atoms: N_14  and  C_28
    8  A    between atoms: C_34  and  N_36
                            x       y       z     vdW  Elec       q    Type
                         _______ _______ _______ _____ _____    ______ ____

>  <TORSDO>
F 8

$$$$
=
 OpenBabel11042415363D

 39 45  0  0  1  0  0  0  0  0999 V2000
  191.0910  174.6840  145.7360 C   0  0  2  0  0  3  0  0  0  0  0  0
  190.4840  176.0070  145.8920 N   0  0  0  0  0  0  0  0  0  0  0  0
  187.0890  176.0410  146.6070 N   0  0  0  0  0  0  0  0  0  0  0  0
  192.4780  174.8430  145.1310 C   0  0  1  0  0  3  0  0  0  0  0  0
  188.2040  175.4770  146.8430 N   0  0  0  0  0  0  0  0  0  0  0  0
  193.6380  173.5360  145.3630 Cl  0  0  0  0  0  0  0  0  0  0  0  0
  189.6590  178.0810  144.9590 C   0  0  0  0  0  3  0  0  0  0  0  0
  192.8070  175.9260  144.3860 C   0  0  0  0  0  0  0  0  0  0  0  0
  187.2760  177.3660  146.0140 C   0  0  2  0  0  3  0  0  0  0  0  0
  189.2420  176.3670  146.4760 C   0  0  0  0  0  0  0  0  0  0  0  0
  188.7630  177.4930  146.0080 C   0  0  0  0  0  0  0  0  0  0  0  0
  191.8480  177.0520  144.2370 C   0  0  0  0  0  3  0  0  0  0  0  0
  190.7500  177.0610  144.9810 C   0  0  0  0  0  0  0  0  0  0  0  0
  191.0190  173.4740  143.5480 C   0  0  1  0  0  3  0  0  0  0  0  0
  190.2360  173.8240  144.8080 C   0  0  1  0  0  3  0  0  0  0  0  0
  189.8240  171.5200  144.3920 O   0  0  0  0  0  1  0  0  0  0  0  0
  190.8400  172.4410  144.6670 C   0  0  1  0  0  3  0  0  0  0  0  0
  188.5090  172.9580  140.0830 C   0  0  0  0  0  3  0  0  0  0  0  0
  190.5180  172.4210  141.3270 C   0  0  0  0  0  3  0  0  0  0  0  0
  188.1120  173.8260  141.1050 C   0  0  0  0  0  3  0  0  0  0  0  0
  189.7130  172.2580  140.1930 C   0  0  0  0  0  3  0  0  0  0  0  0
  190.1140  173.2720  142.3630 C   0  0  0  0  0  0  0  0  0  0  0  0
  188.9150  173.9890  142.2380 C   0  0  0  0  0  3  0  0  0  0  0  0
  194.4150  175.5380  142.4280 C   0  0  0  0  0  0  0  0  0  0  0  0
  194.0960  175.9770  143.7540 N   0  0  0  0  0  2  0  0  0  0  0  0
  193.5150  175.1300  141.6450 O   0  0  0  0  0  0  0  0  0  0  0  0
  196.0710  176.7900  141.3230 O   0  0  0  0  0  0  0  0  0  0  0  0
  195.8380  175.6190  141.9720 C   0  0  2  0  0  3  0  0  0  0  0  0
  195.8850  175.6680  140.5270 N   0  0  2  0  0  0  0  0  0  0  0  0
  197.9340  174.1040  140.8680 C   0  0  0  0  0  1  0  0  0  0  0  0
  197.9410  176.0420  139.3440 O   0  0  0  0  0  0  0  0  0  0  0  0
  197.2780  175.0220  138.6740 N   0  0  0  0  0  2  0  0  0  0  0  0
  197.2020  175.1900  140.0990 C   0  0  2  0  0  0  0  0  0  0  0  0
  186.6310  178.4170  146.8700 C   0  0  0  0  0  0  0  0  0  0  0  0
  187.0560  178.6510  147.9950 O   0  0  0  0  0  0  0  0  0  0  0  0
  184.2590  178.5640  146.7780 O   0  0  0  0  0  1  0  0  0  0  0  0
  185.4420  179.1600  146.3380 C   0  0  2  0  0  3  0  0  0  0  0  0
  185.4620  179.2610  144.8170 C   0  0  0  0  0  2  0  0  0  0  0  0
  184.1960  178.9960  144.2830 O   0  0  0  0  0  1  0  0  0  0  0  0
  1  2  1  6  0  0  0
  2 10  1  0  0  0  0
  3  5  2  0  0  0  0
  4  6  1  6  0  0  0
  4  1  1  0  0  0  0
  7 13  2  0  0  0  0
  7 11  1  0  0  0  0
  8  4  1  0  0  0  0
  9  3  1  0  0  0  0
  9 34  1  1  0  0  0
 10  5  1  0  0  0  0
 11  9  1  0  0  0  0
 11 10  2  0  0  0  0
 12  8  2  0  0  0  0
 12 13  1  0  0  0  0
 13  2  1  0  0  0  0
 14 22  1  6  0  0  0
 14 17  1  0  0  0  0
 14 15  1  0  0  0  0
 15  1  1  1  0  0  0
 17 16  1  6  0  0  0
 17 15  1  0  0  0  0
 18 21  2  0  0  0  0
 18 20  1  0  0  0  0
 19 22  2  0  0  0  0
 20 23  2  0  0  0  0
 21 19  1  0  0  0  0
 23 22  1  0  0  0  0
 24 25  1  0  0  0  0
 25  8  1  0  0  0  0
 26 24  2  0  0  0  0
 27 28  1  0  0  0  0
 28 24  1  6  0  0  0
 29 27  1  1  0  0  0
 29 28  1  0  0  0  0
 31 33  1  0  0  0  0
 32 31  1  0  0  0  0
 32 33  1  0  0  0  0
 33 29  1  0  0  0  0
 33 30  1  1  0  0  0
 34 35  2  0  0  0  0
 37 36  1  6  0  0  0
 37 34  1  0  0  0  0
 38 37  1  0  0  0  0
 39 38  1  0  0  0  0
M  END
>  <MODEL>
6

>  <REMARK>
 VINA RESULT:      -6.5      2.749      3.540
  Name = 
  8 active torsions:
  status: ('A' for Active; 'I' for Inactive)
    1  A    between atoms: C_1  and  C_35
    2  A    between atoms: C_3  and  C_29
    3  A    between atoms: C_4  and  C_8
    4  A    between atoms: C_10  and  C_11
    5  A    between atoms: C_13  and  C_30
    6  A    between atoms: C_13  and  C_35
    7  A    between atoms: N_14  and  C_28
    8  A    between atoms: C_34  and  N_36
                            x       y       z     vdW  Elec       q    Type
                         _______ _______ _______ _____ _____    ______ ____

>  <TORSDO>
F 8

$$$$
=
 OpenBabel11042415363D

 39 45  0  0  1  0  0  0  0  0999 V2000
  192.5570  176.2220  143.0230 C   0  0  2  0  0  3  0  0  0  0  0  0
  191.0950  176.2430  143.0940 N   0  0  0  0  0  0  0  0  0  0  0  0
  189.7410  177.2760  146.1170 N   0  0  0  0  0  0  0  0  0  0  0  0
  192.9820  175.4670  141.7720 C   0  0  1  0  0  3  0  0  0  0  0  0
  190.6490  177.4810  145.2510 N   0  0  0  0  0  0  0  0  0  0  0  0
  194.5940  175.7730  141.1270 Cl  0  0  0  0  0  0  0  0  0  0  0  0
  188.9680  175.1020  143.2610 C   0  0  0  0  0  3  0  0  0  0  0  0
  192.1760  174.5430  141.1940 C   0  0  0  0  0  0  0  0  0  0  0  0
  188.6440  176.4800  145.5630 C   0  0  2  0  0  3  0  0  0  0  0  0
  190.2450  176.8880  144.0310 C   0  0  0  0  0  0  0  0  0  0  0  0
  189.0750  176.3090  144.1440 C   0  0  0  0  0  0  0  0  0  0  0  0
  190.7980  174.3260  141.7050 C   0  0  0  0  0  3  0  0  0  0  0  0
  190.3100  175.1660  142.6090 C   0  0  0  0  0  0  0  0  0  0  0  0
  194.6530  175.5480  144.2080 C   0  0  1  0  0  3  0  0  0  0  0  0
  193.1290  175.5200  144.2510 C   0  0  1  0  0  3  0  0  0  0  0  0
  193.8430  176.0750  146.4490 O   0  0  0  0  0  1  0  0  0  0  0  0
  193.8810  176.5080  145.1200 C   0  0  1  0  0  3  0  0  0  0  0  0
  196.4590  172.1460  146.1400 C   0  0  0  0  0  3  0  0  0  0  0  0
  196.5660  174.4520  145.4050 C   0  0  0  0  0  3  0  0  0  0  0  0
  195.1600  172.0470  145.6340 C   0  0  0  0  0  3  0  0  0  0  0  0
  197.1630  173.3460  146.0230 C   0  0  0  0  0  3  0  0  0  0  0  0
  195.2570  174.3650  144.9160 C   0  0  0  0  0  0  0  0  0  0  0  0
  194.5620  173.1510  145.0160 C   0  0  0  0  0  3  0  0  0  0  0  0
  193.3300  172.5180  140.1280 C   0  0  0  0  0  0  0  0  0  0  0  0
  192.6680  173.7870  140.0760 N   0  0  0  0  0  2  0  0  0  0  0  0
  193.4600  171.8980  141.2190 O   0  0  0  0  0  0  0  0  0  0  0  0
  194.8740  171.0850  139.0820 O   0  0  0  0  0  0  0  0  0  0  0  0
  193.8240  171.9160  138.8500 C   0  0  2  0  0  3  0  0  0  0  0  0
  195.1810  172.3500  138.5990 N   0  0  2  0  0  0  0  0  0  0  0  0
  194.4950  172.8660  136.1440 C   0  0  0  0  0  1  0  0  0  0  0  0
  196.1980  171.1920  136.7570 O   0  0  0  0  0  0  0  0  0  0  0  0
  196.8220  172.4310  136.8400 N   0  0  0  0  0  2  0  0  0  0  0  0
  195.4330  172.2390  137.1600 C   0  0  2  0  0  0  0  0  0  0  0  0
  187.3490  177.2330  145.6640 C   0  0  0  0  0  0  0  0  0  0  0  0
  187.1060  178.1590  144.9000 O   0  0  0  0  0  0  0  0  0  0  0  0
  185.1620  176.4390  146.1570 O   0  0  0  0  0  1  0  0  0  0  0  0
  186.3670  176.8500  146.7300 C   0  0  2  0  0  3  0  0  0  0  0  0
  186.1320  177.9790  147.7270 C   0  0  0  0  0  2  0  0  0  0  0  0
  184.8540  178.5270  147.5680 O   0  0  0  0  0  1  0  0  0  0  0  0
  1  2  1  1  0  0  0
  2 10  1  0  0  0  0
  4  6  1  1  0  0  0
  4  1  1  0  0  0  0
  5  3  2  0  0  0  0
  7 11  1  0  0  0  0
  8 12  2  0  0  0  0
  8  4  1  0  0  0  0
  9 34  1  6  0  0  0
  9  3  1  0  0  0  0
 10 11  2  0  0  0  0
 10  5  1  0  0  0  0
 11  9  1  0  0  0  0
 12 13  1  0  0  0  0
 13  2  1  0  0  0  0
 13  7  2  0  0  0  0
 14 15  1  0  0  0  0
 14 22  1  1  0  0  0
 14 17  1  0  0  0  0
 15  1  1  6  0  0  0
 15 17  1  0  0  0  0
 17 16  1  1  0  0  0
 19 21  2  0  0  0  0
 20 18  2  0  0  0  0
 21 18  1  0  0  0  0
 22 23  2  0  0  0  0
 22 19  1  0  0  0  0
 23 20  1  0  0  0  0
 24 26  2  0  0  0  0
 25 24  1  0  0  0  0
 25  8  1  0  0  0  0
 28 27  1  0  0  0  0
 28 24  1  1  0  0  0
 29 28  1  0  0  0  0
 29 27  1  1  0  0  0
 31 32  1  0  0  0  0
 31 33  1  0  0  0  0
 32 33  1  0  0  0  0
 33 30  1  6  0  0  0
 33 29  1  0  0  0  0
 34 37  1  0  0  0  0
 35 34  2  0  0  0  0
 37 36  1  6  0  0  0
 37 38  1  0  0  0  0
 39 38  1  0  0  0  0
M  END
>  <MODEL>
7

>  <REMARK>
 VINA RESULT:      -6.3      3.220      5.816
  Name = 
  8 active torsions:
  status: ('A' for Active; 'I' for Inactive)
    1  A    between atoms: C_1  and  C_35
    2  A    between atoms: C_3  and  C_29
    3  A    between atoms: C_4  and  C_8
    4  A    between atoms: C_10  and  C_11
    5  A    between atoms: C_13  and  C_30
    6  A    between atoms: C_13  and  C_35
    7  A    between atoms: N_14  and  C_28
    8  A    between atoms: C_34  and  N_36
                            x       y       z     vdW  Elec       q    Type
                         _______ _______ _______ _____ _____    ______ ____

>  <TORSDO>
F 8

$$$$
=
 OpenBabel11042415363D

 39 45  0  0  1  0  0  0  0  0999 V2000
  189.7090  174.6020  143.4130 C   0  0  2  0  0  3  0  0  0  0  0  0
  189.2900  175.9730  143.7100 N   0  0  0  0  0  0  0  0  0  0  0  0
  185.8830  176.5950  143.5000 N   0  0  0  0  0  0  0  0  0  0  0  0
  191.2200  174.5700  143.2460 C   0  0  1  0  0  3  0  0  0  0  0  0
  186.7770  175.7750  143.8810 N   0  0  0  0  0  0  0  0  0  0  0  0
  192.0460  173.0270  143.4620 Cl  0  0  0  0  0  0  0  0  0  0  0  0
  189.1060  178.3080  143.1040 C   0  0  0  0  0  3  0  0  0  0  0  0
  191.9170  175.6760  142.8870 C   0  0  0  0  0  0  0  0  0  0  0  0
  186.4380  177.9360  143.3030 C   0  0  2  0  0  3  0  0  0  0  0  0
  187.9990  176.4770  144.0160 C   0  0  0  0  0  0  0  0  0  0  0  0
  187.8590  177.7440  143.7150 C   0  0  0  0  0  0  0  0  0  0  0  0
  191.2300  176.9860  142.7590 C   0  0  0  0  0  3  0  0  0  0  0  0
  189.9730  177.0940  143.1720 C   0  0  0  0  0  0  0  0  0  0  0  0
  189.7290  172.8500  141.6290 C   0  0  1  0  0  3  0  0  0  0  0  0
  189.0510  174.1240  142.1210 C   0  0  1  0  0  3  0  0  0  0  0  0
  187.3020  172.6630  141.4470 O   0  0  0  0  0  1  0  0  0  0  0  0
  188.3720  172.7870  142.3390 C   0  0  1  0  0  3  0  0  0  0  0  0
  189.6430  172.4520  137.3390 C   0  0  0  0  0  3  0  0  0  0  0  0
  189.9010  171.4720  139.5400 C   0  0  0  0  0  3  0  0  0  0  0  0
  189.4200  173.7030  137.9250 C   0  0  0  0  0  3  0  0  0  0  0  0
  189.8860  171.3380  138.1450 C   0  0  0  0  0  3  0  0  0  0  0  0
  189.6560  172.7170  140.1320 C   0  0  0  0  0  0  0  0  0  0  0  0
  189.4340  173.8360  139.3170 C   0  0  0  0  0  3  0  0  0  0  0  0
  194.3810  176.0540  143.4850 C   0  0  0  0  0  0  0  0  0  0  0  0
  193.3290  175.5650  142.6440 N   0  0  0  0  0  2  0  0  0  0  0  0
  194.1280  176.5700  144.6080 O   0  0  0  0  0  0  0  0  0  0  0  0
  196.1580  176.9180  142.2100 O   0  0  0  0  0  0  0  0  0  0  0  0
  195.7960  175.8930  143.0260 C   0  0  2  0  0  3  0  0  0  0  0  0
  195.8270  175.7210  141.5900 N   0  0  2  0  0  0  0  0  0  0  0  0
  197.6280  173.9220  142.1190 C   0  0  0  0  0  1  0  0  0  0  0  0
  197.9350  175.7010  140.4410 O   0  0  0  0  0  0  0  0  0  0  0  0
  197.1460  174.7290  139.8380 N   0  0  0  0  0  2  0  0  0  0  0  0
  197.0700  175.0290  141.2420 C   0  0  2  0  0  0  0  0  0  0  0  0
  185.7310  178.9280  144.1810 C   0  0  0  0  0  0  0  0  0  0  0  0
  185.7440  180.1220  143.9070 O   0  0  0  0  0  0  0  0  0  0  0  0
  183.7710  179.0320  145.5240 O   0  0  0  0  0  1  0  0  0  0  0  0
  185.0300  178.4390  145.4120 C   0  0  2  0  0  3  0  0  0  0  0  0
  185.8510  178.6750  146.6740 C   0  0  0  0  0  2  0  0  0  0  0  0
  185.1240  178.3250  147.8170 O   0  0  0  0  0  1  0  0  0  0  0  0
  1  2  1  6  0  0  0
  2 10  1  0  0  0  0
  3  5  2  0  0  0  0
  4  1  1  0  0  0  0
  4  6  1  6  0  0  0
  5 10  1  0  0  0  0
  7 13  2  0  0  0  0
  7 11  1  0  0  0  0
  8  4  1  0  0  0  0
  9  3  1  0  0  0  0
  9 11  1  0  0  0  0
  9 34  1  1  0  0  0
 11 10  2  0  0  0  0
 12  8  2  0  0  0  0
 12 13  1  0  0  0  0
 13  2  1  0  0  0  0
 14 22  1  6  0  0  0
 14 15  1  0  0  0  0
 14 17  1  0  0  0  0
 15 17  1  0  0  0  0
 15  1  1  1  0  0  0
 17 16  1  6  0  0  0
 18 20  2  0  0  0  0
 18 21  1  0  0  0  0
 19 22  1  0  0  0  0
 20 23  1  0  0  0  0
 21 19  2  0  0  0  0
 23 22  2  0  0  0  0
 24 26  2  0  0  0  0
 25  8  1  0  0  0  0
 25 24  1  0  0  0  0
 27 28  1  0  0  0  0
 28 24  1  6  0  0  0
 29 27  1  6  0  0  0
 29 28  1  0  0  0  0
 31 33  1  0  0  0  0
 32 31  1  0  0  0  0
 32 33  1  0  0  0  0
 33 29  1  0  0  0  0
 33 30  1  1  0  0  0
 34 37  1  0  0  0  0
 35 34  2  0  0  0  0
 37 36  1  1  0  0  0
 37 38  1  0  0  0  0
 38 39  1  0  0  0  0
M  END
>  <MODEL>
8

>  <REMARK>
 VINA RESULT:      -6.2      2.211      2.350
  Name = 
  8 active torsions:
  status: ('A' for Active; 'I' for Inactive)
    1  A    between atoms: C_1  and  C_35
    2  A    between atoms: C_3  and  C_29
    3  A    between atoms: C_4  and  C_8
    4  A    between atoms: C_10  and  C_11
    5  A    between atoms: C_13  and  C_30
    6  A    between atoms: C_13  and  C_35
    7  A    between atoms: N_14  and  C_28
    8  A    between atoms: C_34  and  N_36
                            x       y       z     vdW  Elec       q    Type
                         _______ _______ _______ _____ _____    ______ ____

>  <TORSDO>
F 8

$$$$
=
 OpenBabel11042415363D

 39 45  0  0  1  0  0  0  0  0999 V2000
  192.3700  176.3740  143.0860 C   0  0  2  0  0  3  0  0  0  0  0  0
  193.3210  175.8220  144.0530 N   0  0  0  0  0  0  0  0  0  0  0  0
  195.6560  173.5940  142.7790 N   0  0  0  0  0  0  0  0  0  0  0  0
  191.2460  177.0720  143.8370 C   0  0  1  0  0  3  0  0  0  0  0  0
  195.0320  174.6850  142.5820 N   0  0  0  0  0  0  0  0  0  0  0  0
  190.3070  178.2920  142.9790 Cl  0  0  0  0  0  0  0  0  0  0  0  0
  193.8500  174.3380  145.8880 C   0  0  0  0  0  3  0  0  0  0  0  0
  190.9300  176.7340  145.1120 C   0  0  0  0  0  0  0  0  0  0  0  0
  195.6220  173.2070  144.1910 C   0  0  2  0  0  3  0  0  0  0  0  0
  194.5550  175.1580  143.8280 C   0  0  0  0  0  0  0  0  0  0  0  0
  194.8880  174.3510  144.8060 C   0  0  0  0  0  0  0  0  0  0  0  0
  191.7560  175.7460  145.8520 C   0  0  0  0  0  3  0  0  0  0  0  0
  192.9000  175.3380  145.3180 C   0  0  0  0  0  0  0  0  0  0  0  0
  191.2430  174.1430  143.1270 C   0  0  1  0  0  3  0  0  0  0  0  0
  191.7830  175.2530  142.2330 C   0  0  1  0  0  3  0  0  0  0  0  0
  189.6810  174.6270  141.3150 O   0  0  0  0  0  1  0  0  0  0  0  0
  190.2890  175.1430  142.4650 C   0  0  1  0  0  3  0  0  0  0  0  0
  191.4540  170.2440  141.3040 C   0  0  0  0  0  3  0  0  0  0  0  0
  190.3710  171.8140  142.7990 C   0  0  0  0  0  3  0  0  0  0  0  0
  192.4010  171.2180  140.9720 C   0  0  0  0  0  3  0  0  0  0  0  0
  190.4410  170.5410  142.2190 C   0  0  0  0  0  3  0  0  0  0  0  0
  191.3040  172.7990  142.4530 C   0  0  0  0  0  0  0  0  0  0  0  0
  192.3320  172.4890  141.5510 C   0  0  0  0  0  3  0  0  0  0  0  0
  188.6740  176.6820  146.3280 C   0  0  0  0  0  0  0  0  0  0  0  0
  189.7940  177.3530  145.7380 N   0  0  0  0  0  2  0  0  0  0  0  0
  188.6460  175.4250  146.4210 O   0  0  0  0  0  0  0  0  0  0  0  0
  186.6050  176.7200  147.4450 O   0  0  0  0  0  0  0  0  0  0  0  0
  187.5560  177.5090  146.8800 C   0  0  2  0  0  3  0  0  0  0  0  0
  186.3310  177.2070  146.1740 N   0  0  2  0  0  0  0  0  0  0  0  0
  185.5630  179.5700  145.4080 C   0  0  0  0  0  1  0  0  0  0  0  0
  184.8420  178.5250  147.5210 O   0  0  0  0  0  0  0  0  0  0  0  0
  184.0680  177.9520  146.5190 N   0  0  0  0  0  2  0  0  0  0  0  0
  185.4320  178.3560  146.3110 C   0  0  2  0  0  0  0  0  0  0  0  0
  197.0180  173.0860  144.7320 C   0  0  0  0  0  0  0  0  0  0  0  0
  197.7010  174.0850  144.9210 O   0  0  0  0  0  0  0  0  0  0  0  0
  197.6260  170.9650  143.8440 O   0  0  0  0  0  1  0  0  0  0  0  0
  197.5720  171.7220  145.0150 C   0  0  2  0  0  3  0  0  0  0  0  0
  196.7770  170.9920  146.0920 C   0  0  0  0  0  2  0  0  0  0  0  0
  196.0570  169.9250  145.5430 O   0  0  0  0  0  1  0  0  0  0  0  0
  1  4  1  0  0  0  0
  1  2  1  1  0  0  0
  2 13  1  0  0  0  0
  3  9  1  0  0  0  0
  4  6  1  6  0  0  0
  4  8  1  0  0  0  0
  5  3  2  0  0  0  0
  5 10  1  0  0  0  0
  8 25  1  0  0  0  0
  8 12  2  0  0  0  0
  9 34  1  1  0  0  0
  9 11  1  0  0  0  0
 10  2  1  0  0  0  0
 10 11  2  0  0  0  0
 11  7  1  0  0  0  0
 13 12  1  0  0  0  0
 13  7  2  0  0  0  0
 14 22  1  6  0  0  0
 15 17  1  0  0  0  0
 15  1  1  1  0  0  0
 15 14  1  0  0  0  0
 17 16  1  6  0  0  0
 17 14  1  0  0  0  0
 18 21  1  0  0  0  0
 20 18  2  0  0  0  0
 20 23  1  0  0  0  0
 21 19  2  0  0  0  0
 22 19  1  0  0  0  0
 23 22  2  0  0  0  0
 24 26  2  0  0  0  0
 25 24  1  0  0  0  0
 28 24  1  6  0  0  0
 28 27  1  0  0  0  0
 29 33  1  0  0  0  0
 29 28  1  0  0  0  0
 29 27  1  1  0  0  0
 32 31  1  0  0  0  0
 33 30  1  6  0  0  0
 33 32  1  0  0  0  0
 33 31  1  0  0  0  0
 34 35  2  0  0  0  0
 34 37  1  0  0  0  0
 37 36  1  6  0  0  0
 37 38  1  0  0  0  0
 39 38  1  0  0  0  0
M  END
>  <MODEL>
9

>  <REMARK>
 VINA RESULT:      -6.2      2.641      8.761
  Name = 
  8 active torsions:
  status: ('A' for Active; 'I' for Inactive)
    1  A    between atoms: C_1  and  C_35
    2  A    between atoms: C_3  and  C_29
    3  A    between atoms: C_4  and  C_8
    4  A    between atoms: C_10  and  C_11
    5  A    between atoms: C_13  and  C_30
    6  A    between atoms: C_13  and  C_35
    7  A    between atoms: N_14  and  C_28
    8  A    between atoms: C_34  and  N_36
                            x       y       z     vdW  Elec       q    Type
                         _______ _______ _______ _____ _____    ______ ____

>  <TORSDO>
F 8

$$$$
