=
 OpenBabel11042417303D

 39 44  0  0  1  0  0  0  0  0999 V2000
  190.6990  177.5650  144.3760 N   0  0  0  0  0  0  0  0  0  0  0  0
  192.0980  176.5210  145.9960 N   0  0  0  0  0  2  0  0  0  0  0  0
  190.5620  173.0030  145.1610 O   0  0  0  0  0  0  0  0  0  0  0  0
  191.2170  176.4890  144.8680 C   0  0  0  0  0  0  0  0  0  0  0  0
  190.6850  174.1270  144.6560 C   0  0  0  0  0  0  0  0  0  0  0  0
  190.8170  175.3120  144.1180 C   0  0  0  0  0  0  0  0  0  0  0  0
  189.9740  175.7780  143.0720 N   0  0  0  0  0  0  0  0  0  0  0  0
  189.8640  177.2290  143.2210 C   0  0  1  0  0  3  0  0  0  0  0  0
  185.9800  177.4900  146.3480 C   0  0  0  0  0  2  0  0  0  0  0  0
  187.6990  178.3040  142.4870 C   0  0  0  0  0  3  0  0  0  0  0  0
  188.4440  177.6380  143.4710 C   0  0  0  0  0  0  0  0  0  0  0  0
  184.4580  177.5960  146.3830 C   0  0  0  0  0  2  0  0  0  0  0  0
  186.5410  177.7370  144.9760 C   0  0  0  0  0  0  0  0  0  0  0  0
  186.3840  178.6940  142.7470 C   0  0  0  0  0  3  0  0  0  0  0  0
  187.8630  177.3620  144.7120 C   0  0  0  0  0  3  0  0  0  0  0  0
  184.0160  178.8790  145.6960 C   0  0  0  0  0  2  0  0  0  0  0  0
  185.8020  178.4310  143.9910 C   0  0  0  0  0  0  0  0  0  0  0  0
  184.3670  178.8120  144.2130 C   0  0  0  0  0  2  0  0  0  0  0  0
  191.5210  173.4510  141.2270 C   0  0  2  0  0  3  0  0  0  0  0  0
  188.2260  174.3570  140.0970 O   0  0  0  0  0  0  0  0  0  0  0  0
  188.1910  175.2700  141.2090 C   0  0  0  0  0  2  0  0  0  0  0  0
  189.4420  173.7170  140.1650 C   0  0  0  0  0  0  0  0  0  0  0  0
  189.9690  172.8370  139.3930 N   0  0  0  0  0  0  0  0  0  0  0  0
  192.0770  171.7770  139.5300 O   0  0  0  0  0  0  0  0  0  0  0  0
  192.6230  174.4560  140.9350 C   0  0  0  0  0  1  0  0  0  0  0  0
  189.5220  175.0470  141.9180 C   0  0  0  0  0  0  0  0  0  0  0  0
  191.2550  172.6100  139.9940 C   0  0  0  0  0  0  0  0  0  0  0  0
  190.2070  174.1340  141.2490 C   0  0  0  0  0  0  0  0  0  0  0  0
  192.8440  175.3620  146.4690 C   0  0  0  0  0  2  0  0  0  0  0  0
  195.6310  175.7550  144.5150 C   0  0  0  0  0  0  0  0  0  0  0  0
  194.5660  177.0050  145.9700 N   0  0  0  0  0  2  0  0  0  0  0  0
  196.4140  175.4010  143.3750 N   0  0  0  0  0  2  0  0  0  0  0  0
  195.3480  176.9720  144.8180 N   0  0  0  0  0  0  0  0  0  0  0  0
  194.3360  175.6580  146.4660 C   0  0  2  0  0  3  0  0  0  0  0  0
  195.0530  174.7580  145.4560 C   0  0  0  0  0  2  0  0  0  0  0  0
  197.0120  176.4080  142.5120 C   0  0  0  0  0  2  0  0  0  0  0  0
  196.3740  176.3840  141.1290 C   0  0  1  0  0  3  0  0  0  0  0  0
  196.3910  174.9850  140.5430 C   0  0  0  0  0  1  0  0  0  0  0  0
  195.0620  176.8580  141.1940 O   0  0  0  0  0  1  0  0  0  0  0  0
  1  4  2  0  0  0  0
  2 29  1  0  0  0  0
  4  2  1  0  0  0  0
  5  3  2  0  0  0  0
  6  5  2  0  0  0  0
  6  4  1  0  0  0  0
  7  8  1  0  0  0  0
  7  6  1  0  0  0  0
  8 11  1  1  0  0  0
  8  1  1  0  0  0  0
  9 12  1  0  0  0  0
 10 14  2  0  0  0  0
 10 11  1  0  0  0  0
 11 15  2  0  0  0  0
 13  9  1  0  0  0  0
 14 17  1  0  0  0  0
 15 13  1  0  0  0  0
 16 12  1  0  0  0  0
 17 18  1  0  0  0  0
 17 13  2  0  0  0  0
 18 16  1  0  0  0  0
 19 25  1  6  0  0  0
 19 28  1  0  0  0  0
 20 22  1  0  0  0  0
 20 21  1  0  0  0  0
 21 26  1  0  0  0  0
 22 28  1  0  0  0  0
 23 27  1  0  0  0  0
 23 22  2  0  0  0  0
 24 27  2  0  0  0  0
 26  7  1  0  0  0  0
 27 19  1  0  0  0  0
 28 26  2  0  0  0  0
 30 33  2  0  0  0  0
 30 35  1  0  0  0  0
 31 34  1  0  0  0  0
 32 30  1  0  0  0  0
 33 31  1  0  0  0  0
 34 29  1  6  0  0  0
 35 34  1  0  0  0  0
 36 32  1  0  0  0  0
 37 38  1  1  0  0  0
 37 39  1  0  0  0  0
 37 36  1  0  0  0  0
M  END
>  <MODEL>
1

>  <REMARK>
 VINA RESULT:      -9.1      0.000      0.000
  Name = 
  6 active torsions:
  status: ('A' for Active; 'I' for Inactive)
    1  A    between atoms: C_6  and  C_33
    2  A    between atoms: N_8  and  C_33
    3  A    between atoms: N_9  and  C_14
    4  A    between atoms: C_13  and  C_37
    5  A    between atoms: C_14  and  C_30
    6  A    between atoms: C_23  and  N_36
                            x       y       z     vdW  Elec       q    Type
                         _______ _______ _______ _____ _____    ______ ____

>  <TORSDO>
F 6

$$$$
=
 OpenBabel11042417303D

 39 44  0  0  1  0  0  0  0  0999 V2000
  189.9510  174.3860  144.6660 N   0  0  0  0  0  0  0  0  0  0  0  0
  191.7030  175.2680  146.0160 N   0  0  0  0  0  2  0  0  0  0  0  0
  191.6470  178.6440  144.0080 O   0  0  0  0  0  0  0  0  0  0  0  0
  190.6330  175.4030  145.0740 C   0  0  0  0  0  0  0  0  0  0  0  0
  190.9210  177.6680  144.2400 C   0  0  0  0  0  0  0  0  0  0  0  0
  190.1510  176.6410  144.4880 C   0  0  0  0  0  0  0  0  0  0  0  0
  189.0600  176.2810  143.6500 N   0  0  0  0  0  0  0  0  0  0  0  0
  188.9150  174.8270  143.7310 C   0  0  1  0  0  3  0  0  0  0  0  0
  191.9950  173.6990  139.9660 C   0  0  0  0  0  2  0  0  0  0  0  0
  188.0770  173.5200  141.7390 C   0  0  0  0  0  3  0  0  0  0  0  0
  189.1220  174.1910  142.3890 C   0  0  0  0  0  0  0  0  0  0  0  0
  192.0170  173.3660  138.4770 C   0  0  0  0  0  2  0  0  0  0  0  0
  190.6070  173.6690  140.5410 C   0  0  0  0  0  0  0  0  0  0  0  0
  188.2960  172.9170  140.4990 C   0  0  0  0  0  3  0  0  0  0  0  0
  190.3820  174.2590  141.7900 C   0  0  0  0  0  3  0  0  0  0  0  0
  191.2090  172.1030  138.2200 C   0  0  0  0  0  2  0  0  0  0  0  0
  189.5580  172.9710  139.9000 C   0  0  0  0  0  0  0  0  0  0  0  0
  189.7400  172.3620  138.5390 C   0  0  0  0  0  2  0  0  0  0  0  0
  186.5460  178.0220  145.0150 C   0  0  2  0  0  3  0  0  0  0  0  0
  186.8310  178.2970  141.4370 O   0  0  0  0  0  0  0  0  0  0  0  0
  187.9600  177.4120  141.5470 C   0  0  0  0  0  2  0  0  0  0  0  0
  186.3740  178.4950  142.7200 C   0  0  0  0  0  0  0  0  0  0  0  0
  185.3760  179.1760  143.1570 N   0  0  0  0  0  0  0  0  0  0  0  0
  184.6060  179.4720  145.3720 O   0  0  0  0  0  0  0  0  0  0  0  0
  185.9640  176.7180  145.5370 C   0  0  0  0  0  1  0  0  0  0  0  0
  188.0920  177.1570  143.0440 C   0  0  0  0  0  0  0  0  0  0  0  0
  185.4260  178.9440  144.5750 C   0  0  0  0  0  0  0  0  0  0  0  0
  187.1270  177.8130  143.6690 C   0  0  0  0  0  0  0  0  0  0  0  0
  192.3770  176.4010  146.6380 C   0  0  0  0  0  2  0  0  0  0  0  0
  195.1450  176.0930  144.6420 C   0  0  0  0  0  0  0  0  0  0  0  0
  194.5430  177.4430  146.2630 N   0  0  0  0  0  2  0  0  0  0  0  0
  195.7730  175.6390  143.4430 N   0  0  0  0  0  2  0  0  0  0  0  0
  195.2740  177.2920  145.0870 N   0  0  0  0  0  0  0  0  0  0  0  0
  193.8840  176.1950  146.6150 C   0  0  2  0  0  3  0  0  0  0  0  0
  194.2710  175.2350  145.4870 C   0  0  0  0  0  2  0  0  0  0  0  0
  196.6690  176.4900  142.6760 C   0  0  0  0  0  2  0  0  0  0  0  0
  196.1250  176.7230  141.2720 C   0  0  1  0  0  3  0  0  0  0  0  0
  196.7480  175.7620  140.2770 C   0  0  0  0  0  1  0  0  0  0  0  0
  194.7350  176.5850  141.2630 O   0  0  0  0  0  1  0  0  0  0  0  0
  1  4  2  0  0  0  0
  2 29  1  0  0  0  0
  3  5  2  0  0  0  0
  4  2  1  0  0  0  0
  5  6  2  0  0  0  0
  6  4  1  0  0  0  0
  7  8  1  0  0  0  0
  7  6  1  0  0  0  0
  8 11  1  6  0  0  0
  8  1  1  0  0  0  0
  9 13  1  0  0  0  0
 10 11  1  0  0  0  0
 12  9  1  0  0  0  0
 13 15  1  0  0  0  0
 14 10  2  0  0  0  0
 15 11  2  0  0  0  0
 16 12  1  0  0  0  0
 16 18  1  0  0  0  0
 17 14  1  0  0  0  0
 17 13  2  0  0  0  0
 18 17  1  0  0  0  0
 19 25  1  6  0  0  0
 20 21  1  0  0  0  0
 20 22  1  0  0  0  0
 21 26  1  0  0  0  0
 22 23  2  0  0  0  0
 22 28  1  0  0  0  0
 23 27  1  0  0  0  0
 26  7  1  0  0  0  0
 26 28  2  0  0  0  0
 27 19  1  0  0  0  0
 27 24  2  0  0  0  0
 28 19  1  0  0  0  0
 30 33  2  0  0  0  0
 30 35  1  0  0  0  0
 31 34  1  0  0  0  0
 32 30  1  0  0  0  0
 33 31  1  0  0  0  0
 34 29  1  6  0  0  0
 35 34  1  0  0  0  0
 36 32  1  0  0  0  0
 37 38  1  6  0  0  0
 37 36  1  0  0  0  0
 39 37  1  0  0  0  0
M  END
>  <MODEL>
2

>  <REMARK>
 VINA RESULT:      -8.8      2.207      5.838
  Name = 
  6 active torsions:
  status: ('A' for Active; 'I' for Inactive)
    1  A    between atoms: C_6  and  C_33
    2  A    between atoms: N_8  and  C_33
    3  A    between atoms: N_9  and  C_14
    4  A    between atoms: C_13  and  C_37
    5  A    between atoms: C_14  and  C_30
    6  A    between atoms: C_23  and  N_36
                            x       y       z     vdW  Elec       q    Type
                         _______ _______ _______ _____ _____    ______ ____

>  <TORSDO>
F 6

$$$$
=
 OpenBabel11042417303D

 39 44  0  0  1  0  0  0  0  0999 V2000
  190.5040  174.8100  146.2840 N   0  0  0  0  0  0  0  0  0  0  0  0
  189.2060  176.7330  146.8200 N   0  0  0  0  0  2  0  0  0  0  0  0
  190.2740  178.4760  143.4650 O   0  0  0  0  0  0  0  0  0  0  0  0
  189.9410  175.9100  145.9080 C   0  0  0  0  0  0  0  0  0  0  0  0
  190.2060  177.3460  143.9650 C   0  0  0  0  0  0  0  0  0  0  0  0
  190.1310  176.1500  144.4890 C   0  0  0  0  0  0  0  0  0  0  0  0
  190.8890  175.0500  144.0010 N   0  0  0  0  0  0  0  0  0  0  0  0
  191.1600  174.1730  145.1410 C   0  0  1  0  0  3  0  0  0  0  0  0
  195.2790  171.3510  145.1280 C   0  0  0  0  0  2  0  0  0  0  0  0
  193.3920  175.1620  145.7900 C   0  0  0  0  0  3  0  0  0  0  0  0
  192.6340  174.0540  145.3880 C   0  0  0  0  0  0  0  0  0  0  0  0
  196.6680  171.2310  145.7500 C   0  0  0  0  0  2  0  0  0  0  0  0
  194.6330  172.6770  145.4160 C   0  0  0  0  0  0  0  0  0  0  0  0
  194.7670  175.0350  145.9950 C   0  0  0  0  0  3  0  0  0  0  0  0
  193.2580  172.8180  145.1990 C   0  0  0  0  0  3  0  0  0  0  0  0
  197.4900  172.4670  145.4160 C   0  0  0  0  0  2  0  0  0  0  0  0
  195.3990  173.8030  145.7960 C   0  0  0  0  0  0  0  0  0  0  0  0
  196.8680  173.6890  146.0840 C   0  0  0  0  0  2  0  0  0  0  0  0
  188.8850  173.5790  141.7580 C   0  0  2  0  0  3  0  0  0  0  0  0
  192.2160  174.2920  140.5960 O   0  0  0  0  0  0  0  0  0  0  0  0
  192.4620  174.8360  141.9060 C   0  0  0  0  0  2  0  0  0  0  0  0
  190.9060  173.8710  140.5970 C   0  0  0  0  0  0  0  0  0  0  0  0
  190.2130  173.2920  139.6830 N   0  0  0  0  0  0  0  0  0  0  0  0
  187.9660  172.5590  139.7310 O   0  0  0  0  0  0  0  0  0  0  0  0
  188.7490  172.3930  142.6990 C   0  0  0  0  0  1  0  0  0  0  0  0
  191.1280  174.6890  142.6290 C   0  0  0  0  0  0  0  0  0  0  0  0
  188.9420  173.0910  140.3240 C   0  0  0  0  0  0  0  0  0  0  0  0
  190.2670  174.1080  141.8090 C   0  0  0  0  0  0  0  0  0  0  0  0
  188.4090  177.8800  146.4050 C   0  0  0  0  0  2  0  0  0  0  0  0
  185.5060  178.0130  144.5880 C   0  0  0  0  0  0  0  0  0  0  0  0
  186.7180  176.4070  145.4640 N   0  0  0  0  0  2  0  0  0  0  0  0
  184.6310  178.6880  143.6850 N   0  0  0  0  0  2  0  0  0  0  0  0
  185.8560  176.7850  144.4370 N   0  0  0  0  0  0  0  0  0  0  0  0
  186.9320  177.5140  146.3810 C   0  0  2  0  0  3  0  0  0  0  0  0
  186.1120  178.6600  145.7840 C   0  0  0  0  0  2  0  0  0  0  0  0
  184.0120  178.0030  142.5610 C   0  0  0  0  0  2  0  0  0  0  0  0
  184.6130  178.4730  141.2430 C   0  0  1  0  0  3  0  0  0  0  0  0
  185.9080  177.7410  140.9410 C   0  0  0  0  0  1  0  0  0  0  0  0
  183.7030  178.2810  140.2010 O   0  0  0  0  0  1  0  0  0  0  0  0
  3  5  2  0  0  0  0
  4  1  2  0  0  0  0
  4  2  1  0  0  0  0
  5  6  2  0  0  0  0
  6  4  1  0  0  0  0
  7  6  1  0  0  0  0
  7  8  1  0  0  0  0
  8 11  1  1  0  0  0
  8  1  1  0  0  0  0
  9 13  1  0  0  0  0
  9 12  1  0  0  0  0
 10 14  1  0  0  0  0
 11 10  2  0  0  0  0
 13 17  1  0  0  0  0
 15 11  1  0  0  0  0
 15 13  2  0  0  0  0
 16 12  1  0  0  0  0
 16 18  1  0  0  0  0
 17 14  2  0  0  0  0
 17 18  1  0  0  0  0
 19 28  1  0  0  0  0
 19 25  1  1  0  0  0
 20 22  1  0  0  0  0
 20 21  1  0  0  0  0
 21 26  1  0  0  0  0
 22 28  1  0  0  0  0
 23 27  1  0  0  0  0
 23 22  2  0  0  0  0
 24 27  2  0  0  0  0
 26  7  1  0  0  0  0
 27 19  1  0  0  0  0
 28 26  2  0  0  0  0
 29  2  1  0  0  0  0
 30 35  1  0  0  0  0
 31 34  1  0  0  0  0
 32 30  1  0  0  0  0
 33 30  2  0  0  0  0
 33 31  1  0  0  0  0
 34 29  1  6  0  0  0
 35 34  1  0  0  0  0
 36 32  1  0  0  0  0
 37 38  1  6  0  0  0
 37 36  1  0  0  0  0
 39 37  1  0  0  0  0
M  END
>  <MODEL>
3

>  <REMARK>
 VINA RESULT:      -8.7      2.627      8.002
  Name = 
  6 active torsions:
  status: ('A' for Active; 'I' for Inactive)
    1  A    between atoms: C_6  and  C_33
    2  A    between atoms: N_8  and  C_33
    3  A    between atoms: N_9  and  C_14
    4  A    between atoms: C_13  and  C_37
    5  A    between atoms: C_14  and  C_30
    6  A    between atoms: C_23  and  N_36
                            x       y       z     vdW  Elec       q    Type
                         _______ _______ _______ _____ _____    ______ ____

>  <TORSDO>
F 6

$$$$
=
 OpenBabel11042417303D

 39 44  0  0  1  0  0  0  0  0999 V2000
  190.5860  174.8530  146.3310 N   0  0  0  0  0  0  0  0  0  0  0  0
  189.3000  176.8060  146.7790 N   0  0  0  0  0  2  0  0  0  0  0  0
  190.2620  178.3260  143.2870 O   0  0  0  0  0  0  0  0  0  0  0  0
  190.0090  175.9250  145.9010 C   0  0  0  0  0  0  0  0  0  0  0  0
  190.2120  177.2310  143.8610 C   0  0  0  0  0  0  0  0  0  0  0  0
  190.1560  176.0720  144.4640 C   0  0  0  0  0  0  0  0  0  0  0  0
  190.9030  174.9430  144.0270 N   0  0  0  0  0  0  0  0  0  0  0  0
  191.2100  174.1430  145.2130 C   0  0  1  0  0  3  0  0  0  0  0  0
  195.3660  171.3790  145.0710 C   0  0  0  0  0  2  0  0  0  0  0  0
  193.4430  175.1560  145.8190 C   0  0  0  0  0  3  0  0  0  0  0  0
  192.6910  174.0420  145.4240 C   0  0  0  0  0  0  0  0  0  0  0  0
  196.7700  171.2720  145.6580 C   0  0  0  0  0  2  0  0  0  0  0  0
  194.7090  172.6930  145.3890 C   0  0  0  0  0  0  0  0  0  0  0  0
  194.8240  175.0460  145.9900 C   0  0  0  0  0  3  0  0  0  0  0  0
  193.3270  172.8170  145.2070 C   0  0  0  0  0  3  0  0  0  0  0  0
  197.5670  172.5220  145.3180 C   0  0  0  0  0  2  0  0  0  0  0  0
  195.4680  173.8250  145.7620 C   0  0  0  0  0  0  0  0  0  0  0  0
  196.9450  173.7290  146.0140 C   0  0  0  0  0  2  0  0  0  0  0  0
  193.6600  174.9090  142.1280 C   0  0  2  0  0  3  0  0  0  0  0  0
  190.6730  173.7230  140.5080 O   0  0  0  0  0  0  0  0  0  0  0  0
  189.9980  173.9920  141.7500 C   0  0  0  0  0  2  0  0  0  0  0  0
  191.9930  174.0560  140.7100 C   0  0  0  0  0  0  0  0  0  0  0  0
  192.9960  174.0260  139.9070 N   0  0  0  0  0  0  0  0  0  0  0  0
  195.2490  174.6320  140.2860 O   0  0  0  0  0  0  0  0  0  0  0  0
  193.7670  176.4150  142.3050 C   0  0  0  0  0  1  0  0  0  0  0  0
  191.1010  174.4930  142.6750 C   0  0  0  0  0  0  0  0  0  0  0  0
  194.0710  174.5280  140.7190 C   0  0  0  0  0  0  0  0  0  0  0  0
  192.2390  174.5140  141.9990 C   0  0  0  0  0  0  0  0  0  0  0  0
  188.4860  177.9230  146.3140 C   0  0  0  0  0  2  0  0  0  0  0  0
  185.5740  177.9820  144.5080 C   0  0  0  0  0  0  0  0  0  0  0  0
  186.8140  176.4090  145.4040 N   0  0  0  0  0  2  0  0  0  0  0  0
  184.6860  178.6300  143.5980 N   0  0  0  0  0  2  0  0  0  0  0  0
  185.9410  176.7570  144.3760 N   0  0  0  0  0  0  0  0  0  0  0  0
  187.0160  177.5350  146.3020 C   0  0  2  0  0  3  0  0  0  0  0  0
  186.1760  178.6590  145.6900 C   0  0  0  0  0  2  0  0  0  0  0  0
  184.0710  177.9170  142.4880 C   0  0  0  0  0  2  0  0  0  0  0  0
  184.6710  178.3620  141.1610 C   0  0  1  0  0  3  0  0  0  0  0  0
  185.9130  177.5590  140.8250 C   0  0  0  0  0  1  0  0  0  0  0  0
  183.7280  178.2340  140.1380 O   0  0  0  0  0  1  0  0  0  0  0  0
  3  5  2  0  0  0  0
  4  1  2  0  0  0  0
  4  2  1  0  0  0  0
  5  6  2  0  0  0  0
  6  4  1  0  0  0  0
  7  6  1  0  0  0  0
  7  8  1  0  0  0  0
  8 11  1  1  0  0  0
  8  1  1  0  0  0  0
  9 13  1  0  0  0  0
  9 12  1  0  0  0  0
 10 14  1  0  0  0  0
 11 10  2  0  0  0  0
 13 17  1  0  0  0  0
 15 13  2  0  0  0  0
 15 11  1  0  0  0  0
 16 12  1  0  0  0  0
 16 18  1  0  0  0  0
 17 14  2  0  0  0  0
 17 18  1  0  0  0  0
 19 25  1  6  0  0  0
 20 22  1  0  0  0  0
 20 21  1  0  0  0  0
 21 26  1  0  0  0  0
 22 28  1  0  0  0  0
 23 22  2  0  0  0  0
 23 27  1  0  0  0  0
 24 27  2  0  0  0  0
 26  7  1  0  0  0  0
 27 19  1  0  0  0  0
 28 19  1  0  0  0  0
 28 26  2  0  0  0  0
 29  2  1  0  0  0  0
 30 35  1  0  0  0  0
 31 34  1  0  0  0  0
 32 30  1  0  0  0  0
 33 30  2  0  0  0  0
 33 31  1  0  0  0  0
 34 29  1  6  0  0  0
 35 34  1  0  0  0  0
 36 32  1  0  0  0  0
 37 38  1  6  0  0  0
 37 36  1  0  0  0  0
 39 37  1  0  0  0  0
M  END
>  <MODEL>
4

>  <REMARK>
 VINA RESULT:      -8.5      2.668      7.977
  Name = 
  6 active torsions:
  status: ('A' for Active; 'I' for Inactive)
    1  A    between atoms: C_6  and  C_33
    2  A    between atoms: N_8  and  C_33
    3  A    between atoms: N_9  and  C_14
    4  A    between atoms: C_13  and  C_37
    5  A    between atoms: C_14  and  C_30
    6  A    between atoms: C_23  and  N_36
                            x       y       z     vdW  Elec       q    Type
                         _______ _______ _______ _____ _____    ______ ____

>  <TORSDO>
F 6

$$$$
=
 OpenBabel11042417303D

 39 44  0  0  1  0  0  0  0  0999 V2000
  193.0870  176.6260  144.3350 N   0  0  0  0  0  0  0  0  0  0  0  0
  195.0600  175.5910  145.1740 N   0  0  0  0  0  2  0  0  0  0  0  0
  193.7420  172.0480  144.1060 O   0  0  0  0  0  0  0  0  0  0  0  0
  193.8600  175.5930  144.3940 C   0  0  0  0  0  0  0  0  0  0  0  0
  193.5580  173.2440  143.8460 C   0  0  0  0  0  0  0  0  0  0  0  0
  193.3660  174.5070  143.5670 C   0  0  0  0  0  0  0  0  0  0  0  0
  192.1710  174.9850  142.9610 N   0  0  0  0  0  0  0  0  0  0  0  0
  191.9550  176.3470  143.4500 C   0  0  1  0  0  3  0  0  0  0  0  0
  187.2480  178.0000  143.6790 C   0  0  0  0  0  2  0  0  0  0  0  0
  190.5060  175.8150  145.4500 C   0  0  0  0  0  3  0  0  0  0  0  0
  190.6660  176.4470  144.2090 C   0  0  0  0  0  0  0  0  0  0  0  0
  186.1360  178.3570  144.6610 C   0  0  0  0  0  2  0  0  0  0  0  0
  188.3880  177.2770  144.3410 C   0  0  0  0  0  0  0  0  0  0  0  0
  189.2910  175.9030  146.1310 C   0  0  0  0  0  3  0  0  0  0  0  0
  189.6050  177.1710  143.6580 C   0  0  0  0  0  3  0  0  0  0  0  0
  185.7680  177.1360  145.4890 C   0  0  0  0  0  2  0  0  0  0  0  0
  188.2220  176.6160  145.5790 C   0  0  0  0  0  0  0  0  0  0  0  0
  186.9500  176.7390  146.3680 C   0  0  0  0  0  2  0  0  0  0  0  0
  189.1490  173.5450  142.8960 C   0  0  2  0  0  3  0  0  0  0  0  0
  190.9180  173.5270  139.7620 O   0  0  0  0  0  0  0  0  0  0  0  0
  191.9770  174.2120  140.4570 C   0  0  0  0  0  2  0  0  0  0  0  0
  189.9190  173.3290  140.6880 C   0  0  0  0  0  0  0  0  0  0  0  0
  188.7820  172.7420  140.5790 N   0  0  0  0  0  0  0  0  0  0  0  0
  187.0990  172.4000  142.2020 O   0  0  0  0  0  0  0  0  0  0  0  0
  189.6330  172.5490  143.9380 C   0  0  0  0  0  1  0  0  0  0  0  0
  191.4410  174.3920  141.8720 C   0  0  0  0  0  0  0  0  0  0  0  0
  188.2380  172.8470  141.9050 C   0  0  0  0  0  0  0  0  0  0  0  0
  190.2380  173.8440  141.9390 C   0  0  0  0  0  0  0  0  0  0  0  0
  196.0480  174.5200  145.1280 C   0  0  0  0  0  2  0  0  0  0  0  0
  197.1400  174.7660  141.8890 C   0  0  0  0  0  0  0  0  0  0  0  0
  196.9070  176.1690  143.5600 N   0  0  0  0  0  2  0  0  0  0  0  0
  197.1840  174.2770  140.5490 N   0  0  0  0  0  2  0  0  0  0  0  0
  196.8940  175.9940  142.1780 N   0  0  0  0  0  0  0  0  0  0  0  0
  197.2090  174.9140  144.2270 C   0  0  2  0  0  3  0  0  0  0  0  0
  197.3580  173.9060  143.0840 C   0  0  0  0  0  2  0  0  0  0  0  0
  197.0250  175.1610  139.4040 C   0  0  0  0  0  2  0  0  0  0  0  0
  195.7890  174.7830  138.5970 C   0  0  1  0  0  3  0  0  0  0  0  0
  195.4770  173.3050  138.7340 C   0  0  0  0  0  1  0  0  0  0  0  0
  194.6920  175.5430  139.0090 O   0  0  0  0  0  1  0  0  0  0  0  0
  1  4  2  0  0  0  0
  4  2  1  0  0  0  0
  5  3  2  0  0  0  0
  6  5  2  0  0  0  0
  6  4  1  0  0  0  0
  7  8  1  0  0  0  0
  7  6  1  0  0  0  0
  8 11  1  1  0  0  0
  8  1  1  0  0  0  0
  9 13  1  0  0  0  0
  9 12  1  0  0  0  0
 10 14  1  0  0  0  0
 11 10  2  0  0  0  0
 12 16  1  0  0  0  0
 13 17  1  0  0  0  0
 15 11  1  0  0  0  0
 15 13  2  0  0  0  0
 16 18  1  0  0  0  0
 17 14  2  0  0  0  0
 17 18  1  0  0  0  0
 19 25  1  1  0  0  0
 20 21  1  0  0  0  0
 20 22  1  0  0  0  0
 21 26  1  0  0  0  0
 22 28  1  0  0  0  0
 23 22  2  0  0  0  0
 23 27  1  0  0  0  0
 26 28  2  0  0  0  0
 26  7  1  0  0  0  0
 27 24  2  0  0  0  0
 27 19  1  0  0  0  0
 28 19  1  0  0  0  0
 29  2  1  0  0  0  0
 30 33  2  0  0  0  0
 30 35  1  0  0  0  0
 31 34  1  0  0  0  0
 32 30  1  0  0  0  0
 33 31  1  0  0  0  0
 34 29  1  1  0  0  0
 35 34  1  0  0  0  0
 36 32  1  0  0  0  0
 37 38  1  1  0  0  0
 37 39  1  0  0  0  0
 37 36  1  0  0  0  0
M  END
>  <MODEL>
5

>  <REMARK>
 VINA RESULT:      -8.4      1.866      3.208
  Name = 
  6 active torsions:
  status: ('A' for Active; 'I' for Inactive)
    1  A    between atoms: C_6  and  C_33
    2  A    between atoms: N_8  and  C_33
    3  A    between atoms: N_9  and  C_14
    4  A    between atoms: C_13  and  C_37
    5  A    between atoms: C_14  and  C_30
    6  A    between atoms: C_23  and  N_36
                            x       y       z     vdW  Elec       q    Type
                         _______ _______ _______ _____ _____    ______ ____

>  <TORSDO>
F 6

$$$$
=
 OpenBabel11042417303D

 39 44  0  0  1  0  0  0  0  0999 V2000
  191.4700  177.3400  144.2840 N   0  0  0  0  0  0  0  0  0  0  0  0
  193.7120  177.1480  145.0630 N   0  0  0  0  0  2  0  0  0  0  0  0
  193.0940  173.4210  146.1380 O   0  0  0  0  0  0  0  0  0  0  0  0
  192.4540  176.5950  144.6600 C   0  0  0  0  0  0  0  0  0  0  0  0
  192.6180  174.2800  145.3850 C   0  0  0  0  0  0  0  0  0  0  0  0
  192.1170  175.1840  144.5840 C   0  0  0  0  0  0  0  0  0  0  0  0
  190.7810  175.1250  144.1010 N   0  0  0  0  0  0  0  0  0  0  0  0
  190.3280  176.5030  143.9120 C   0  0  1  0  0  3  0  0  0  0  0  0
  185.9100  178.7510  144.5080 C   0  0  0  0  0  2  0  0  0  0  0  0
  189.0560  176.2710  146.0810 C   0  0  0  0  0  3  0  0  0  0  0  0
  189.1530  176.8080  144.7900 C   0  0  0  0  0  0  0  0  0  0  0  0
  184.9640  179.3010  145.5730 C   0  0  0  0  0  2  0  0  0  0  0  0
  187.0200  177.9270  145.0980 C   0  0  0  0  0  0  0  0  0  0  0  0
  187.9430  176.5510  146.8760 C   0  0  0  0  0  3  0  0  0  0  0  0
  188.1320  177.6290  144.3030 C   0  0  0  0  0  3  0  0  0  0  0  0
  184.5460  178.1850  146.5160 C   0  0  0  0  0  2  0  0  0  0  0  0
  186.9130  177.3620  146.3890 C   0  0  0  0  0  0  0  0  0  0  0  0
  185.7610  177.6900  147.2940 C   0  0  0  0  0  2  0  0  0  0  0  0
  189.3650  174.5230  141.1270 C   0  0  2  0  0  3  0  0  0  0  0  0
  188.9800  171.9010  143.5610 O   0  0  0  0  0  0  0  0  0  0  0  0
  189.7300  172.7410  144.4560 C   0  0  0  0  0  2  0  0  0  0  0  0
  188.8960  172.5870  142.3720 C   0  0  0  0  0  0  0  0  0  0  0  0
  188.3090  172.2840  141.2700 N   0  0  0  0  0  0  0  0  0  0  0  0
  188.1650  173.5040  139.2520 O   0  0  0  0  0  0  0  0  0  0  0  0
  188.4900  175.7490  141.3270 C   0  0  0  0  0  1  0  0  0  0  0  0
  190.0730  173.9680  143.6190 C   0  0  0  0  0  0  0  0  0  0  0  0
  188.5680  173.4300  140.4430 C   0  0  0  0  0  0  0  0  0  0  0  0
  189.5460  173.8150  142.4150 C   0  0  0  0  0  0  0  0  0  0  0  0
  194.9000  176.3440  145.3210 C   0  0  0  0  0  2  0  0  0  0  0  0
  195.3590  174.3430  142.5770 C   0  0  0  0  0  0  0  0  0  0  0  0
  194.8500  176.4540  142.8920 N   0  0  0  0  0  2  0  0  0  0  0  0
  195.3980  173.0520  141.9690 N   0  0  0  0  0  2  0  0  0  0  0  0
  194.7120  175.3340  142.0750 N   0  0  0  0  0  0  0  0  0  0  0  0
  195.6910  176.1470  144.0370 C   0  0  2  0  0  3  0  0  0  0  0  0
  196.0480  174.6690  143.8560 C   0  0  0  0  0  2  0  0  0  0  0  0
  194.7610  172.7880  140.6880 C   0  0  0  0  0  2  0  0  0  0  0  0
  193.3580  172.2300  140.8860 C   0  0  1  0  0  3  0  0  0  0  0  0
  193.1240  171.8380  142.3320 C   0  0  0  0  0  1  0  0  0  0  0  0
  192.4030  173.1690  140.4860 O   0  0  0  0  0  1  0  0  0  0  0  0
  1  4  2  0  0  0  0
  2 29  1  0  0  0  0
  4  2  1  0  0  0  0
  5  3  2  0  0  0  0
  6  4  1  0  0  0  0
  6  5  2  0  0  0  0
  7  6  1  0  0  0  0
  8  7  1  0  0  0  0
  8  1  1  0  0  0  0
  8 11  1  1  0  0  0
  9 13  1  0  0  0  0
  9 12  1  0  0  0  0
 10 14  1  0  0  0  0
 11 10  2  0  0  0  0
 12 16  1  0  0  0  0
 13 17  1  0  0  0  0
 15 11  1  0  0  0  0
 15 13  2  0  0  0  0
 16 18  1  0  0  0  0
 17 14  2  0  0  0  0
 17 18  1  0  0  0  0
 19 25  1  1  0  0  0
 19 28  1  0  0  0  0
 20 21  1  0  0  0  0
 22 28  1  0  0  0  0
 22 20  1  0  0  0  0
 23 22  2  0  0  0  0
 24 27  2  0  0  0  0
 26  7  1  0  0  0  0
 26 21  1  0  0  0  0
 27 19  1  0  0  0  0
 27 23  1  0  0  0  0
 28 26  2  0  0  0  0
 30 35  1  0  0  0  0
 31 34  1  0  0  0  0
 32 30  1  0  0  0  0
 33 30  2  0  0  0  0
 33 31  1  0  0  0  0
 34 29  1  1  0  0  0
 35 34  1  0  0  0  0
 36 37  1  0  0  0  0
 36 32  1  0  0  0  0
 37 38  1  1  0  0  0
 39 37  1  0  0  0  0
M  END
>  <MODEL>
6

>  <REMARK>
 VINA RESULT:      -8.4      1.728      3.017
  Name = 
  6 active torsions:
  status: ('A' for Active; 'I' for Inactive)
    1  A    between atoms: C_6  and  C_33
    2  A    between atoms: N_8  and  C_33
    3  A    between atoms: N_9  and  C_14
    4  A    between atoms: C_13  and  C_37
    5  A    between atoms: C_14  and  C_30
    6  A    between atoms: C_23  and  N_36
                            x       y       z     vdW  Elec       q    Type
                         _______ _______ _______ _____ _____    ______ ____

>  <TORSDO>
F 6

$$$$
=
 OpenBabel11042417303D

 39 44  0  0  1  0  0  0  0  0999 V2000
  189.5860  173.6390  143.0120 N   0  0  0  0  0  0  0  0  0  0  0  0
  191.0940  174.5700  144.6030 N   0  0  0  0  0  2  0  0  0  0  0  0
  190.9590  178.0560  142.7970 O   0  0  0  0  0  0  0  0  0  0  0  0
  190.1260  174.6790  143.5540 C   0  0  0  0  0  0  0  0  0  0  0  0
  190.3020  177.0110  142.8880 C   0  0  0  0  0  0  0  0  0  0  0  0
  189.6030  175.9100  142.9860 C   0  0  0  0  0  0  0  0  0  0  0  0
  188.6470  175.5180  142.0090 N   0  0  0  0  0  0  0  0  0  0  0  0
  188.6240  174.0550  141.9900 C   0  0  1  0  0  3  0  0  0  0  0  0
  192.1540  173.5450  138.4950 C   0  0  0  0  0  2  0  0  0  0  0  0
  188.1500  172.7680  139.8690 C   0  0  0  0  0  3  0  0  0  0  0  0
  189.0330  173.5290  140.6470 C   0  0  0  0  0  0  0  0  0  0  0  0
  192.3540  173.3040  137.0010 C   0  0  0  0  0  2  0  0  0  0  0  0
  190.7350  173.3070  138.9300 C   0  0  0  0  0  0  0  0  0  0  0  0
  188.5570  172.2700  138.6300 C   0  0  0  0  0  3  0  0  0  0  0  0
  190.3230  173.7900  140.1770 C   0  0  0  0  0  3  0  0  0  0  0  0
  191.7460  171.9660  136.6100 C   0  0  0  0  0  2  0  0  0  0  0  0
  189.8500  172.5180  138.1590 C   0  0  0  0  0  0  0  0  0  0  0  0
  190.2330  172.0180  136.7970 C   0  0  0  0  0  2  0  0  0  0  0  0
  186.3360  177.5890  143.2660 C   0  0  2  0  0  3  0  0  0  0  0  0
  186.3500  177.3100  139.6770 O   0  0  0  0  0  0  0  0  0  0  0  0
  187.4410  176.3860  139.8410 C   0  0  0  0  0  2  0  0  0  0  0  0
  186.0050  177.7240  140.9440 C   0  0  0  0  0  0  0  0  0  0  0  0
  185.0800  178.5210  141.3410 N   0  0  0  0  0  0  0  0  0  0  0  0
  184.5020  179.1880  143.5330 O   0  0  0  0  0  0  0  0  0  0  0  0
  185.7350  176.4140  144.0210 C   0  0  0  0  0  1  0  0  0  0  0  0
  187.6780  176.3500  141.3470 C   0  0  0  0  0  0  0  0  0  0  0  0
  185.2300  178.4990  142.7700 C   0  0  0  0  0  0  0  0  0  0  0  0
  186.7980  177.1470  141.9300 C   0  0  0  0  0  0  0  0  0  0  0  0
  191.5910  175.7110  145.3620 C   0  0  0  0  0  2  0  0  0  0  0  0
  188.6720  176.6280  146.9040 C   0  0  0  0  0  0  0  0  0  0  0  0
  189.8480  174.7800  146.7780 N   0  0  0  0  0  2  0  0  0  0  0  0
  187.5370  177.4880  147.0130 N   0  0  0  0  0  2  0  0  0  0  0  0
  188.5810  175.3460  146.9100 N   0  0  0  0  0  0  0  0  0  0  0  0
  190.8610  175.8180  146.6920 C   0  0  2  0  0  3  0  0  0  0  0  0
  190.0670  177.1250  146.7560 C   0  0  0  0  0  2  0  0  0  0  0  0
  186.1950  176.9640  147.2160 C   0  0  0  0  0  2  0  0  0  0  0  0
  185.1820  178.0970  147.3220 C   0  0  1  0  0  3  0  0  0  0  0  0
  185.7980  179.4210  146.9090 C   0  0  0  0  0  1  0  0  0  0  0  0
  184.0660  177.8220  146.5290 O   0  0  0  0  0  1  0  0  0  0  0  0
  1  4  2  0  0  0  0
  2 29  1  0  0  0  0
  3  5  2  0  0  0  0
  4  2  1  0  0  0  0
  5  6  2  0  0  0  0
  6  4  1  0  0  0  0
  7  6  1  0  0  0  0
  8 11  1  6  0  0  0
  8  7  1  0  0  0  0
  8  1  1  0  0  0  0
  9 13  1  0  0  0  0
 10 11  1  0  0  0  0
 12  9  1  0  0  0  0
 13 15  1  0  0  0  0
 14 10  2  0  0  0  0
 15 11  2  0  0  0  0
 16 18  1  0  0  0  0
 16 12  1  0  0  0  0
 17 14  1  0  0  0  0
 17 13  2  0  0  0  0
 18 17  1  0  0  0  0
 19 25  1  1  0  0  0
 20 21  1  0  0  0  0
 20 22  1  0  0  0  0
 21 26  1  0  0  0  0
 22 23  2  0  0  0  0
 22 28  1  0  0  0  0
 23 27  1  0  0  0  0
 26 28  2  0  0  0  0
 26  7  1  0  0  0  0
 27 19  1  0  0  0  0
 27 24  2  0  0  0  0
 28 19  1  0  0  0  0
 30 33  2  0  0  0  0
 30 32  1  0  0  0  0
 31 33  1  0  0  0  0
 32 36  1  0  0  0  0
 34 29  1  6  0  0  0
 34 35  1  0  0  0  0
 34 31  1  0  0  0  0
 35 30  1  0  0  0  0
 36 37  1  0  0  0  0
 37 38  1  6  0  0  0
 39 37  1  0  0  0  0
M  END
>  <MODEL>
7

>  <REMARK>
 VINA RESULT:      -8.4      3.230      7.816
  Name = 
  6 active torsions:
  status: ('A' for Active; 'I' for Inactive)
    1  A    between atoms: C_6  and  C_33
    2  A    between atoms: N_8  and  C_33
    3  A    between atoms: N_9  and  C_14
    4  A    between atoms: C_13  and  C_37
    5  A    between atoms: C_14  and  C_30
    6  A    between atoms: C_23  and  N_36
                            x       y       z     vdW  Elec       q    Type
                         _______ _______ _______ _____ _____    ______ ____

>  <TORSDO>
F 6

$$$$
=
 OpenBabel11042417303D

 39 44  0  0  1  0  0  0  0  0999 V2000
  191.8960  176.8240  144.1600 N   0  0  0  0  0  0  0  0  0  0  0  0
  194.0260  176.0250  144.8660 N   0  0  0  0  0  2  0  0  0  0  0  0
  192.7740  172.3070  144.6750 O   0  0  0  0  0  0  0  0  0  0  0  0
  192.7280  175.8450  144.2900 C   0  0  0  0  0  0  0  0  0  0  0  0
  192.4860  173.4260  144.2320 C   0  0  0  0  0  0  0  0  0  0  0  0
  192.1830  174.6070  143.7590 C   0  0  0  0  0  0  0  0  0  0  0  0
  190.8890  174.9260  143.2650 N   0  0  0  0  0  0  0  0  0  0  0  0
  190.6670  176.3490  143.5230 C   0  0  1  0  0  3  0  0  0  0  0  0
  186.3210  178.6230  144.4590 C   0  0  0  0  0  2  0  0  0  0  0  0
  189.3740  175.8240  145.6290 C   0  0  0  0  0  3  0  0  0  0  0  0
  189.4960  176.5530  144.4380 C   0  0  0  0  0  0  0  0  0  0  0  0
  185.3870  179.0320  145.5960 C   0  0  0  0  0  2  0  0  0  0  0  0
  187.4000  177.6800  144.9140 C   0  0  0  0  0  0  0  0  0  0  0  0
  188.2670  176.0140  146.4570 C   0  0  0  0  0  3  0  0  0  0  0  0
  188.5070  177.4730  144.0840 C   0  0  0  0  0  3  0  0  0  0  0  0
  184.9270  177.7960  146.3530 C   0  0  0  0  0  2  0  0  0  0  0  0
  187.2670  176.9250  146.1020 C   0  0  0  0  0  0  0  0  0  0  0  0
  186.1200  177.1460  147.0460 C   0  0  0  0  0  2  0  0  0  0  0  0
  191.6630  172.8760  140.7330 C   0  0  2  0  0  3  0  0  0  0  0  0
  188.1450  173.1940  141.4210 O   0  0  0  0  0  0  0  0  0  0  0  0
  188.5220  174.1000  142.4740 C   0  0  0  0  0  2  0  0  0  0  0  0
  189.3190  172.7720  140.8410 C   0  0  0  0  0  0  0  0  0  0  0  0
  189.5250  171.9850  139.8470 N   0  0  0  0  0  0  0  0  0  0  0  0
  191.5610  171.3020  138.8610 O   0  0  0  0  0  0  0  0  0  0  0  0
  192.3090  174.0510  140.0160 C   0  0  0  0  0  1  0  0  0  0  0  0
  190.0460  174.1160  142.4260 C   0  0  0  0  0  0  0  0  0  0  0  0
  190.9580  171.9880  139.7270 C   0  0  0  0  0  0  0  0  0  0  0  0
  190.4430  173.3250  141.4420 C   0  0  0  0  0  0  0  0  0  0  0  0
  195.0570  174.9950  144.8660 C   0  0  0  0  0  2  0  0  0  0  0  0
  197.1690  175.3590  142.1920 C   0  0  0  0  0  0  0  0  0  0  0  0
  196.1330  176.7350  143.5510 N   0  0  0  0  0  2  0  0  0  0  0  0
  197.7640  174.8540  140.9970 N   0  0  0  0  0  2  0  0  0  0  0  0
  196.6390  176.5270  142.2690 N   0  0  0  0  0  0  0  0  0  0  0  0
  196.3800  175.5740  144.3890 C   0  0  2  0  0  3  0  0  0  0  0  0
  197.0880  174.5840  143.4600 C   0  0  0  0  0  2  0  0  0  0  0  0
  197.8780  175.6650  139.7950 C   0  0  0  0  0  2  0  0  0  0  0  0
  197.3620  174.9050  138.5790 C   0  0  1  0  0  3  0  0  0  0  0  0
  195.9050  174.5200  138.7530 C   0  0  0  0  0  1  0  0  0  0  0  0
  197.5170  175.6770  137.4250 O   0  0  0  0  0  1  0  0  0  0  0  0
  1  4  2  0  0  0  0
  2 29  1  0  0  0  0
  4  2  1  0  0  0  0
  5  3  2  0  0  0  0
  6  5  2  0  0  0  0
  6  4  1  0  0  0  0
  7  8  1  0  0  0  0
  7  6  1  0  0  0  0
  8  1  1  0  0  0  0
  8 11  1  1  0  0  0
  9 13  1  0  0  0  0
  9 12  1  0  0  0  0
 10 14  1  0  0  0  0
 11 10  2  0  0  0  0
 12 16  1  0  0  0  0
 13 17  1  0  0  0  0
 15 11  1  0  0  0  0
 15 13  2  0  0  0  0
 16 18  1  0  0  0  0
 17 14  2  0  0  0  0
 17 18  1  0  0  0  0
 19 25  1  6  0  0  0
 19 28  1  0  0  0  0
 20 21  1  0  0  0  0
 22 20  1  0  0  0  0
 22 28  1  0  0  0  0
 23 22  2  0  0  0  0
 24 27  2  0  0  0  0
 26 21  1  0  0  0  0
 26  7  1  0  0  0  0
 27 23  1  0  0  0  0
 27 19  1  0  0  0  0
 28 26  2  0  0  0  0
 30 33  2  0  0  0  0
 30 35  1  0  0  0  0
 31 34  1  0  0  0  0
 32 30  1  0  0  0  0
 33 31  1  0  0  0  0
 34 29  1  6  0  0  0
 35 34  1  0  0  0  0
 36 32  1  0  0  0  0
 37 38  1  1  0  0  0
 37 36  1  0  0  0  0
 39 37  1  0  0  0  0
M  END
>  <MODEL>
8

>  <REMARK>
 VINA RESULT:      -8.3      1.644      2.384
  Name = 
  6 active torsions:
  status: ('A' for Active; 'I' for Inactive)
    1  A    between atoms: C_6  and  C_33
    2  A    between atoms: N_8  and  C_33
    3  A    between atoms: N_9  and  C_14
    4  A    between atoms: C_13  and  C_37
    5  A    between atoms: C_14  and  C_30
    6  A    between atoms: C_23  and  N_36
                            x       y       z     vdW  Elec       q    Type
                         _______ _______ _______ _____ _____    ______ ____

>  <TORSDO>
F 6

$$$$
=
 OpenBabel11042417303D

 39 44  0  0  1  0  0  0  0  0999 V2000
  189.5230  172.1510  143.4010 N   0  0  0  0  0  0  0  0  0  0  0  0
  189.6770  171.6700  141.0740 N   0  0  0  0  0  2  0  0  0  0  0  0
  192.8740  173.9290  140.7450 O   0  0  0  0  0  0  0  0  0  0  0  0
  190.2120  172.1580  142.3090 C   0  0  0  0  0  0  0  0  0  0  0  0
  192.2280  173.3220  141.6090 C   0  0  0  0  0  0  0  0  0  0  0  0
  191.5510  172.6780  142.5240 C   0  0  0  0  0  0  0  0  0  0  0  0
  191.6310  172.9990  143.9070 N   0  0  0  0  0  0  0  0  0  0  0  0
  190.3310  172.6850  144.4990 C   0  0  1  0  0  3  0  0  0  0  0  0
  187.7170  176.8720  143.7480 C   0  0  0  0  0  2  0  0  0  0  0  0
  189.6930  174.1630  146.4450 C   0  0  0  0  0  3  0  0  0  0  0  0
  189.6870  173.9140  145.0660 C   0  0  0  0  0  0  0  0  0  0  0  0
  187.4280  178.2450  144.3500 C   0  0  0  0  0  2  0  0  0  0  0  0
  188.4460  175.9690  144.7020 C   0  0  0  0  0  0  0  0  0  0  0  0
  189.0710  175.3040  146.9560 C   0  0  0  0  0  3  0  0  0  0  0  0
  189.0600  174.8160  144.2020 C   0  0  0  0  0  3  0  0  0  0  0  0
  186.8080  178.0820  145.7290 C   0  0  0  0  0  2  0  0  0  0  0  0
  188.4310  176.2030  146.0960 C   0  0  0  0  0  0  0  0  0  0  0  0
  187.8240  177.4490  146.6740 C   0  0  0  0  0  2  0  0  0  0  0  0
  192.8190  175.9430  144.9720 C   0  0  2  0  0  3  0  0  0  0  0  0
  194.8670  173.0910  145.7640 O   0  0  0  0  0  0  0  0  0  0  0  0
  193.8720  172.3000  145.0890 C   0  0  0  0  0  2  0  0  0  0  0  0
  194.4250  174.3930  145.7050 C   0  0  0  0  0  0  0  0  0  0  0  0
  194.9610  175.4790  146.1320 N   0  0  0  0  0  0  0  0  0  0  0  0
  194.1810  177.7050  145.9900 O   0  0  0  0  0  0  0  0  0  0  0  0
  192.8660  176.4150  143.5280 C   0  0  0  0  0  1  0  0  0  0  0  0
  192.8120  173.3110  144.6680 C   0  0  0  0  0  0  0  0  0  0  0  0
  194.0170  176.4840  145.7280 C   0  0  0  0  0  0  0  0  0  0  0  0
  193.2040  174.5150  145.0510 C   0  0  0  0  0  0  0  0  0  0  0  0
  190.4730  171.4920  139.8660 C   0  0  0  0  0  2  0  0  0  0  0  0
  188.9020  173.4130  137.5030 C   0  0  0  0  0  0  0  0  0  0  0  0
  190.3580  171.7720  137.4530 N   0  0  0  0  0  2  0  0  0  0  0  0
  188.2160  174.6050  137.1210 N   0  0  0  0  0  2  0  0  0  0  0  0
  189.8890  172.9290  136.8350 N   0  0  0  0  0  0  0  0  0  0  0  0
  189.5730  171.4760  138.6390 C   0  0  2  0  0  3  0  0  0  0  0  0
  188.5570  172.6190  138.7130 C   0  0  0  0  0  2  0  0  0  0  0  0
  188.5440  175.3210  135.8970 C   0  0  0  0  0  2  0  0  0  0  0  0
  187.4030  176.2430  135.4870 C   0  0  1  0  0  3  0  0  0  0  0  0
  186.1900  176.0400  136.3750 C   0  0  0  0  0  1  0  0  0  0  0  0
  187.8160  177.5760  135.5410 O   0  0  0  0  0  1  0  0  0  0  0  0
  1  8  1  0  0  0  0
  2  4  1  0  0  0  0
  3  5  2  0  0  0  0
  4  6  1  0  0  0  0
  4  1  2  0  0  0  0
  5  6  2  0  0  0  0
  6  7  1  0  0  0  0
  7  8  1  0  0  0  0
  7 26  1  0  0  0  0
  8 11  1  6  0  0  0
  9 12  1  0  0  0  0
  9 13  1  0  0  0  0
 10 14  1  0  0  0  0
 11 10  2  0  0  0  0
 12 16  1  0  0  0  0
 13 17  1  0  0  0  0
 15 13  2  0  0  0  0
 15 11  1  0  0  0  0
 16 18  1  0  0  0  0
 17 18  1  0  0  0  0
 17 14  2  0  0  0  0
 19 25  1  6  0  0  0
 19 28  1  0  0  0  0
 19 27  1  0  0  0  0
 21 20  1  0  0  0  0
 22 20  1  0  0  0  0
 22 23  2  0  0  0  0
 26 28  2  0  0  0  0
 26 21  1  0  0  0  0
 27 24  2  0  0  0  0
 27 23  1  0  0  0  0
 28 22  1  0  0  0  0
 29  2  1  0  0  0  0
 30 35  1  0  0  0  0
 31 34  1  0  0  0  0
 32 30  1  0  0  0  0
 33 31  1  0  0  0  0
 33 30  2  0  0  0  0
 34 35  1  0  0  0  0
 34 29  1  1  0  0  0
 36 32  1  0  0  0  0
 37 39  1  0  0  0  0
 37 36  1  0  0  0  0
 37 38  1  1  0  0  0
M  END
>  <MODEL>
9

>  <REMARK>
 VINA RESULT:      -8.3      2.783      7.122
  Name = 
  6 active torsions:
  status: ('A' for Active; 'I' for Inactive)
    1  A    between atoms: C_6  and  C_33
    2  A    between atoms: N_8  and  C_33
    3  A    between atoms: N_9  and  C_14
    4  A    between atoms: C_13  and  C_37
    5  A    between atoms: C_14  and  C_30
    6  A    between atoms: C_23  and  N_36
                            x       y       z     vdW  Elec       q    Type
                         _______ _______ _______ _____ _____    ______ ____

>  <TORSDO>
F 6

$$$$
