=
 OpenBabel11042419323D

 32 35  0  0  1  0  0  0  0  0999 V2000
  186.6660  177.8660  144.6440 C   0  0  0  0  0  2  0  0  0  0  0  0
  187.9950  176.2820  141.7540 N   0  0  0  0  0  0  0  0  0  0  0  0
  186.0890  179.0910  142.7130 N   0  0  0  0  0  2  0  0  0  0  0  0
  187.0600  177.7790  140.1540 O   0  0  0  0  0  0  0  0  0  0  0  0
  185.8850  179.0730  144.1660 C   0  0  1  0  0  3  0  0  0  0  0  0
  187.3730  177.5020  141.3430 C   0  0  0  0  0  0  0  0  0  0  0  0
  188.0350  176.2230  143.2280 C   0  0  2  0  0  3  0  0  0  0  0  0
  187.0780  178.2980  142.5020 C   0  0  2  0  0  3  0  0  0  0  0  0
  187.4440  177.5410  143.6300 C   0  0  1  0  0  3  0  0  0  0  0  0
  191.9010  175.4280  147.4770 C   0  0  0  0  0  1  0  0  0  0  0  0
  189.1230  175.5560  146.0840 O   0  0  0  0  0  0  0  0  0  0  0  0
  192.2780  175.7330  146.0670 C   0  0  0  0  0  0  0  0  0  0  0  0
  192.9510  176.3450  143.3770 C   0  0  0  0  0  3  0  0  0  0  0  0
  193.9590  176.2010  144.3460 C   0  0  0  0  0  0  0  0  0  0  0  0
  189.8620  175.8080  145.0960 C   0  0  0  0  0  0  0  0  0  0  0  0
  191.6280  176.1740  143.7740 C   0  0  0  0  0  0  0  0  0  0  0  0
  193.6280  175.8960  145.6900 C   0  0  0  0  0  0  0  0  0  0  0  0
  190.4690  176.3120  142.9500 N   0  0  0  0  0  0  0  0  0  0  0  0
  194.6360  175.7590  146.6400 O   0  0  0  0  0  1  0  0  0  0  0  0
  189.4450  176.0910  143.7180 C   0  0  0  0  0  0  0  0  0  0  0  0
  195.3810  176.3830  143.9370 C   0  0  0  0  0  1  0  0  0  0  0  0
  191.3060  175.8780  145.0760 C   0  0  0  0  0  0  0  0  0  0  0  0
  183.5170  178.7320  143.4690 O   0  0  0  0  0  0  0  0  0  0  0  0
  184.4330  178.9320  144.4920 C   0  0  0  0  0  0  0  0  0  0  0  0
  184.0320  179.0090  145.6840 O   0  0  0  0  0  1  0  0  0  0  0  0
  188.1420  175.1180  140.8890 C   0  0  0  0  0  2  0  0  0  0  0  0
  187.9790  173.8330  141.6880 C   0  0  0  0  0  2  0  0  0  0  0  0
  190.2520  173.4800  140.9720 O   0  0  0  0  0  1  0  0  0  0  0  0
  189.0770  172.8290  141.3570 C   0  0  1  0  0  3  0  0  0  0  0  0
  189.3510  171.8900  142.5300 C   0  0  0  0  0  2  0  0  0  0  0  0
  189.7750  172.2280  144.9670 C   0  0  0  0  0  1  0  0  0  0  0  0
  190.2910  172.4950  143.5670 C   0  0  0  0  0  2  0  0  0  0  0  0
  2  7  1  0  0  0  0
  3  5  1  0  0  0  0
  4  6  2  0  0  0  0
  5 24  1  6  0  0  0
  5  1  1  0  0  0  0
  6  2  1  0  0  0  0
  7  9  1  0  0  0  0
  7 20  1  6  0  0  0
  8  6  1  6  0  0  0
  8  3  1  0  0  0  0
  8  9  1  0  0  0  0
  9  1  1  1  0  0  0
 12 10  1  0  0  0  0
 13 16  2  0  0  0  0
 13 14  1  0  0  0  0
 14 17  2  0  0  0  0
 15 11  2  0  0  0  0
 16 22  1  0  0  0  0
 17 12  1  0  0  0  0
 17 19  1  0  0  0  0
 18 20  2  0  0  0  0
 18 16  1  0  0  0  0
 20 15  1  0  0  0  0
 21 14  1  0  0  0  0
 22 15  1  0  0  0  0
 22 12  2  0  0  0  0
 23 24  2  0  0  0  0
 24 25  1  0  0  0  0
 26 27  1  0  0  0  0
 26  2  1  0  0  0  0
 29 28  1  1  0  0  0
 29 27  1  0  0  0  0
 29 30  1  0  0  0  0
 30 32  1  0  0  0  0
 32 31  1  0  0  0  0
M  END
>  <MODEL>
1

>  <REMARK>
 VINA RESULT:      -7.5      0.000      0.000
  Name = 
  7 active torsions:
  status: ('A' for Active; 'I' for Inactive)
    1  A    between atoms: C_5  and  N_9
    2  A    between atoms: C_5  and  C_25
    3  A    between atoms: C_8  and  C_18
    4  A    between atoms: C_8  and  C_29
    5  A    between atoms: CA_19  and  C_23
    6  A    between atoms: C_22  and  C_30
    7  A    between atoms: C_25  and  C_29
                            x       y       z     vdW  Elec       q    Type
                         _______ _______ _______ _____ _____    ______ ____

>  <TORSDO>
F 7

$$$$
=
 OpenBabel11042419323D

 32 35  0  0  1  0  0  0  0  0999 V2000
  185.9620  176.8410  144.7620 C   0  0  0  0  0  2  0  0  0  0  0  0
  189.4810  177.3240  144.8740 N   0  0  0  0  0  0  0  0  0  0  0  0
  186.6780  177.0570  146.9990 N   0  0  0  0  0  2  0  0  0  0  0  0
  189.6550  177.5980  147.2340 O   0  0  0  0  0  0  0  0  0  0  0  0
  185.4630  176.8990  146.1910 C   0  0  1  0  0  3  0  0  0  0  0  0
  189.0040  177.2330  146.2190 C   0  0  0  0  0  0  0  0  0  0  0  0
  188.3870  176.9890  143.9410 C   0  0  2  0  0  3  0  0  0  0  0  0
  187.6480  176.7600  146.2100 C   0  0  2  0  0  3  0  0  0  0  0  0
  187.2600  176.6330  144.8630 C   0  0  1  0  0  3  0  0  0  0  0  0
  188.2340  174.1330  138.8960 C   0  0  0  0  0  1  0  0  0  0  0  0
  187.8170  176.4660  140.9100 O   0  0  0  0  0  0  0  0  0  0  0  0
  188.8800  173.5950  140.1280 C   0  0  0  0  0  0  0  0  0  0  0  0
  190.0700  172.5950  142.5040 C   0  0  0  0  0  3  0  0  0  0  0  0
  190.0540  171.8150  141.3350 C   0  0  0  0  0  0  0  0  0  0  0  0
  188.4180  175.6510  141.6590 C   0  0  0  0  0  0  0  0  0  0  0  0
  189.4940  173.8620  142.4580 C   0  0  0  0  0  0  0  0  0  0  0  0
  189.4610  172.3090  140.1470 C   0  0  0  0  0  0  0  0  0  0  0  0
  189.3820  174.7850  143.5420 N   0  0  0  0  0  0  0  0  0  0  0  0
  189.4490  171.5250  138.9970 O   0  0  0  0  0  1  0  0  0  0  0  0
  188.7640  175.8270  143.0740 C   0  0  0  0  0  0  0  0  0  0  0  0
  190.6650  170.4560  141.3690 C   0  0  0  0  0  1  0  0  0  0  0  0
  188.9200  174.3420  141.3060 C   0  0  0  0  0  0  0  0  0  0  0  0
  183.8880  178.6100  145.2960 O   0  0  0  0  0  0  0  0  0  0  0  0
  184.5440  178.0610  146.3890 C   0  0  0  0  0  0  0  0  0  0  0  0
  184.3730  178.5570  147.5340 O   0  0  0  0  0  1  0  0  0  0  0  0
  190.6820  178.0540  144.4890 C   0  0  0  0  0  2  0  0  0  0  0  0
  191.8340  177.0940  144.2320 C   0  0  0  0  0  2  0  0  0  0  0  0
  192.1050  175.3650  145.8880 O   0  0  0  0  0  1  0  0  0  0  0  0
  192.4960  176.6580  145.5340 C   0  0  1  0  0  3  0  0  0  0  0  0
  194.0180  176.7460  145.4460 C   0  0  0  0  0  2  0  0  0  0  0  0
  195.6750  174.8790  145.3630 C   0  0  0  0  0  1  0  0  0  0  0  0
  194.7230  175.6580  146.2490 C   0  0  0  0  0  2  0  0  0  0  0  0
  1  5  1  0  0  0  0
  2  6  1  0  0  0  0
  5 24  1  6  0  0  0
  5  3  1  0  0  0  0
  6  4  2  0  0  0  0
  7 20  1  6  0  0  0
  7  9  1  0  0  0  0
  7  2  1  0  0  0  0
  8  6  1  6  0  0  0
  8  3  1  0  0  0  0
  9  1  1  6  0  0  0
  9  8  1  0  0  0  0
 10 12  1  0  0  0  0
 11 15  2  0  0  0  0
 12 17  2  0  0  0  0
 12 22  1  0  0  0  0
 14 21  1  0  0  0  0
 14 13  2  0  0  0  0
 15 20  1  0  0  0  0
 16 13  1  0  0  0  0
 16 18  1  0  0  0  0
 17 14  1  0  0  0  0
 19 17  1  0  0  0  0
 20 18  2  0  0  0  0
 22 15  1  0  0  0  0
 22 16  2  0  0  0  0
 23 24  2  0  0  0  0
 24 25  1  0  0  0  0
 26  2  1  0  0  0  0
 27 26  1  0  0  0  0
 27 29  1  0  0  0  0
 29 28  1  6  0  0  0
 30 29  1  0  0  0  0
 30 32  1  0  0  0  0
 31 32  1  0  0  0  0
M  END
>  <MODEL>
2

>  <REMARK>
 VINA RESULT:      -7.1      1.934      5.437
  Name = 
  7 active torsions:
  status: ('A' for Active; 'I' for Inactive)
    1  A    between atoms: C_5  and  N_9
    2  A    between atoms: C_5  and  C_25
    3  A    between atoms: C_8  and  C_18
    4  A    between atoms: C_8  and  C_29
    5  A    between atoms: CA_19  and  C_23
    6  A    between atoms: C_22  and  C_30
    7  A    between atoms: C_25  and  C_29
                            x       y       z     vdW  Elec       q    Type
                         _______ _______ _______ _____ _____    ______ ____

>  <TORSDO>
F 7

$$$$
=
 OpenBabel11042419323D

 32 35  0  0  1  0  0  0  0  0999 V2000
  189.5760  172.7280  143.2960 C   0  0  0  0  0  2  0  0  0  0  0  0
  191.1440  175.8380  144.0020 N   0  0  0  0  0  0  0  0  0  0  0  0
  191.2790  173.1510  141.7200 N   0  0  0  0  0  2  0  0  0  0  0  0
  192.7860  175.7250  142.2790 O   0  0  0  0  0  0  0  0  0  0  0  0
  190.2940  172.1320  142.1030 C   0  0  1  0  0  3  0  0  0  0  0  0
  191.7090  175.3220  142.7940 C   0  0  0  0  0  0  0  0  0  0  0  0
  189.9930  175.0050  144.4020 C   0  0  2  0  0  3  0  0  0  0  0  0
  190.9120  174.2210  142.3300 C   0  0  2  0  0  3  0  0  0  0  0  0
  189.9020  174.0060  143.2870 C   0  0  1  0  0  3  0  0  0  0  0  0
  185.8400  177.6450  147.4700 C   0  0  0  0  0  1  0  0  0  0  0  0
  188.5010  176.1350  146.9070 O   0  0  0  0  0  0  0  0  0  0  0  0
  185.8410  177.5680  145.9800 C   0  0  0  0  0  0  0  0  0  0  0  0
  185.8660  177.3700  143.1470 C   0  0  0  0  0  3  0  0  0  0  0  0
  184.7980  178.0040  143.8060 C   0  0  0  0  0  0  0  0  0  0  0  0
  188.0940  176.2860  145.7250 C   0  0  0  0  0  0  0  0  0  0  0  0
  186.9020  176.8540  143.9210 C   0  0  0  0  0  0  0  0  0  0  0  0
  184.7810  178.1050  145.2190 C   0  0  0  0  0  0  0  0  0  0  0  0
  188.0500  176.1500  143.4430 N   0  0  0  0  0  0  0  0  0  0  0  0
  183.7150  178.7320  145.8590 O   0  0  0  0  0  1  0  0  0  0  0  0
  188.7450  175.8280  144.4920 C   0  0  0  0  0  0  0  0  0  0  0  0
  183.6800  178.5610  142.9920 C   0  0  0  0  0  1  0  0  0  0  0  0
  186.8870  176.9520  145.2910 C   0  0  0  0  0  0  0  0  0  0  0  0
  191.7940  170.8130  143.5920 O   0  0  0  0  0  1  0  0  0  0  0  0
  190.9740  170.8540  142.4730 C   0  0  0  0  0  0  0  0  0  0  0  0
  190.8220  169.8190  141.7700 O   0  0  0  0  0  0  0  0  0  0  0  0
  191.8520  176.7350  144.9070 C   0  0  0  0  0  2  0  0  0  0  0  0
  191.9900  176.1070  146.2860 C   0  0  0  0  0  2  0  0  0  0  0  0
  193.3870  174.1870  145.8790 O   0  0  0  0  0  1  0  0  0  0  0  0
  193.3550  175.4540  146.4650 C   0  0  1  0  0  3  0  0  0  0  0  0
  194.4730  176.3280  145.9000 C   0  0  0  0  0  2  0  0  0  0  0  0
  195.9260  176.4690  143.8740 C   0  0  0  0  0  1  0  0  0  0  0  0
  195.4140  175.5630  144.9750 C   0  0  0  0  0  2  0  0  0  0  0  0
  2  7  1  0  0  0  0
  2 26  1  0  0  0  0
  3  5  1  0  0  0  0
  4  6  2  0  0  0  0
  5 24  1  1  0  0  0
  5  1  1  0  0  0  0
  6  2  1  0  0  0  0
  7 20  1  6  0  0  0
  8  3  1  1  0  0  0
  8  6  1  0  0  0  0
  8  9  1  0  0  0  0
  9  1  1  1  0  0  0
  9  7  1  0  0  0  0
 12 10  1  0  0  0  0
 13 14  2  0  0  0  0
 13 16  1  0  0  0  0
 14 17  1  0  0  0  0
 15 11  2  0  0  0  0
 16 22  2  0  0  0  0
 17 19  1  0  0  0  0
 17 12  2  0  0  0  0
 18 16  1  0  0  0  0
 18 20  2  0  0  0  0
 20 15  1  0  0  0  0
 21 14  1  0  0  0  0
 22 15  1  0  0  0  0
 22 12  1  0  0  0  0
 24 23  1  0  0  0  0
 25 24  2  0  0  0  0
 26 27  1  0  0  0  0
 27 29  1  0  0  0  0
 29 28  1  6  0  0  0
 30 29  1  0  0  0  0
 31 32  1  0  0  0  0
 32 30  1  0  0  0  0
M  END
>  <MODEL>
3

>  <REMARK>
 VINA RESULT:      -7.1      2.080      7.177
  Name = 
  7 active torsions:
  status: ('A' for Active; 'I' for Inactive)
    1  A    between atoms: C_5  and  N_9
    2  A    between atoms: C_5  and  C_25
    3  A    between atoms: C_8  and  C_18
    4  A    between atoms: C_8  and  C_29
    5  A    between atoms: CA_19  and  C_23
    6  A    between atoms: C_22  and  C_30
    7  A    between atoms: C_25  and  C_29
                            x       y       z     vdW  Elec       q    Type
                         _______ _______ _______ _____ _____    ______ ____

>  <TORSDO>
F 7

$$$$
=
 OpenBabel11042419323D

 32 35  0  0  1  0  0  0  0  0999 V2000
  192.0670  176.6850  145.5140 C   0  0  0  0  0  2  0  0  0  0  0  0
  190.3670  174.1940  143.6360 N   0  0  0  0  0  0  0  0  0  0  0  0
  192.7000  174.5390  146.2590 N   0  0  0  0  0  2  0  0  0  0  0  0
  191.4110  172.3100  144.6530 O   0  0  0  0  0  0  0  0  0  0  0  0
  192.9820  175.9620  146.4810 C   0  0  1  0  0  3  0  0  0  0  0  0
  191.1300  173.5380  144.6510 C   0  0  0  0  0  0  0  0  0  0  0  0
  190.4020  175.6530  143.8590 C   0  0  2  0  0  3  0  0  0  0  0  0
  191.6000  174.5130  145.5960 C   0  0  2  0  0  3  0  0  0  0  0  0
  191.1940  175.7760  145.1260 C   0  0  1  0  0  3  0  0  0  0  0  0
  185.6720  178.2990  141.7970 C   0  0  0  0  0  1  0  0  0  0  0  0
  188.4470  176.8960  141.7570 O   0  0  0  0  0  0  0  0  0  0  0  0
  185.8480  177.9250  143.2300 C   0  0  0  0  0  0  0  0  0  0  0  0
  186.2360  177.2220  145.9540 C   0  0  0  0  0  3  0  0  0  0  0  0
  185.0670  177.8920  145.5530 C   0  0  0  0  0  0  0  0  0  0  0  0
  188.1840  176.8000  142.9860 C   0  0  0  0  0  0  0  0  0  0  0  0
  187.1840  176.9140  144.9820 C   0  0  0  0  0  0  0  0  0  0  0  0
  184.8690  178.2440  144.1950 C   0  0  0  0  0  0  0  0  0  0  0  0
  188.4420  176.2710  145.1950 N   0  0  0  0  0  0  0  0  0  0  0  0
  183.7080  178.9100  143.8110 O   0  0  0  0  0  1  0  0  0  0  0  0
  189.0180  176.1990  144.0330 C   0  0  0  0  0  0  0  0  0  0  0  0
  184.0440  178.2300  146.5820 C   0  0  0  0  0  1  0  0  0  0  0  0
  186.9920  177.2550  143.6650 C   0  0  0  0  0  0  0  0  0  0  0  0
  194.7900  177.5670  145.8750 O   0  0  0  0  0  0  0  0  0  0  0  0
  194.4160  176.2670  146.1880 C   0  0  0  0  0  0  0  0  0  0  0  0
  195.2840  175.3550  146.2080 O   0  0  0  0  0  1  0  0  0  0  0  0
  190.0090  173.5740  142.3660 C   0  0  0  0  0  2  0  0  0  0  0  0
  190.9140  174.0750  141.2500 C   0  0  0  0  0  2  0  0  0  0  0  0
  192.0700  172.3640  140.0090 O   0  0  0  0  0  1  0  0  0  0  0  0
  192.1620  173.2100  141.1170 C   0  0  1  0  0  3  0  0  0  0  0  0
  193.4280  174.0610  141.0300 C   0  0  0  0  0  2  0  0  0  0  0  0
  193.9450  176.0000  142.5150 C   0  0  0  0  0  1  0  0  0  0  0  0
  193.9500  174.4890  142.3970 C   0  0  0  0  0  2  0  0  0  0  0  0
  1  5  1  0  0  0  0
  2  7  1  0  0  0  0
  2  6  1  0  0  0  0
  3  5  1  0  0  0  0
  5 24  1  6  0  0  0
  6  4  2  0  0  0  0
  7 20  1  1  0  0  0
  7  9  1  0  0  0  0
  8  6  1  6  0  0  0
  8  3  1  0  0  0  0
  9  1  1  6  0  0  0
  9  8  1  0  0  0  0
 10 12  1  0  0  0  0
 11 15  2  0  0  0  0
 12 22  2  0  0  0  0
 12 17  1  0  0  0  0
 14 13  1  0  0  0  0
 14 21  1  0  0  0  0
 15 22  1  0  0  0  0
 15 20  1  0  0  0  0
 16 18  1  0  0  0  0
 16 13  2  0  0  0  0
 17 14  2  0  0  0  0
 19 17  1  0  0  0  0
 20 18  2  0  0  0  0
 22 16  1  0  0  0  0
 23 24  2  0  0  0  0
 24 25  1  0  0  0  0
 26  2  1  0  0  0  0
 27 26  1  0  0  0  0
 29 28  1  6  0  0  0
 29 27  1  0  0  0  0
 30 29  1  0  0  0  0
 30 32  1  0  0  0  0
 32 31  1  0  0  0  0
M  END
>  <MODEL>
4

>  <REMARK>
 VINA RESULT:      -7.1      1.994      7.019
  Name = 
  7 active torsions:
  status: ('A' for Active; 'I' for Inactive)
    1  A    between atoms: C_5  and  N_9
    2  A    between atoms: C_5  and  C_25
    3  A    between atoms: C_8  and  C_18
    4  A    between atoms: C_8  and  C_29
    5  A    between atoms: CA_19  and  C_23
    6  A    between atoms: C_22  and  C_30
    7  A    between atoms: C_25  and  C_29
                            x       y       z     vdW  Elec       q    Type
                         _______ _______ _______ _____ _____    ______ ____

>  <TORSDO>
F 7

$$$$
=
 OpenBabel11042419323D

 32 35  0  0  1  0  0  0  0  0999 V2000
  185.8420  176.9150  144.6910 C   0  0  0  0  0  2  0  0  0  0  0  0
  189.3580  177.3250  144.3790 N   0  0  0  0  0  0  0  0  0  0  0  0
  186.8300  177.0790  146.8270 N   0  0  0  0  0  2  0  0  0  0  0  0
  189.8240  177.5570  146.7040 O   0  0  0  0  0  0  0  0  0  0  0  0
  185.5220  176.9600  146.1710 C   0  0  1  0  0  3  0  0  0  0  0  0
  189.0470  177.2210  145.7710 C   0  0  0  0  0  0  0  0  0  0  0  0
  188.1520  177.0280  143.5820 C   0  0  2  0  0  3  0  0  0  0  0  0
  187.6900  176.7760  145.9210 C   0  0  2  0  0  3  0  0  0  0  0  0
  187.1380  176.6790  144.6300 C   0  0  1  0  0  3  0  0  0  0  0  0
  190.1510  171.6880  142.5200 C   0  0  0  0  0  1  0  0  0  0  0  0
  189.3170  174.1860  144.1750 O   0  0  0  0  0  0  0  0  0  0  0  0
  189.5980  172.5860  141.4640 C   0  0  0  0  0  0  0  0  0  0  0  0
  188.5670  174.3390  139.4820 C   0  0  0  0  0  3  0  0  0  0  0  0
  189.0590  173.0720  139.1230 C   0  0  0  0  0  0  0  0  0  0  0  0
  188.9840  174.5790  143.0250 C   0  0  0  0  0  0  0  0  0  0  0  0
  188.5970  174.7000  140.8270 C   0  0  0  0  0  0  0  0  0  0  0  0
  189.5750  172.1940  140.1090 C   0  0  0  0  0  0  0  0  0  0  0  0
  188.1770  175.9470  141.3810 N   0  0  0  0  0  0  0  0  0  0  0  0
  190.0620  170.9430  139.7400 O   0  0  0  0  0  1  0  0  0  0  0  0
  188.3950  175.8720  142.6600 C   0  0  0  0  0  0  0  0  0  0  0  0
  189.0360  172.6720  137.6880 C   0  0  0  0  0  1  0  0  0  0  0  0
  189.0960  173.8480  141.7830 C   0  0  0  0  0  0  0  0  0  0  0  0
  183.8280  178.6670  145.5190 O   0  0  0  0  0  0  0  0  0  0  0  0
  184.6600  178.1370  146.4950 C   0  0  0  0  0  0  0  0  0  0  0  0
  184.6940  178.6620  147.6400 O   0  0  0  0  0  1  0  0  0  0  0  0
  190.5200  178.0370  143.8610 C   0  0  0  0  0  2  0  0  0  0  0  0
  191.4830  177.0710  143.1860 C   0  0  0  0  0  2  0  0  0  0  0  0
  192.6490  174.9940  143.5490 O   0  0  0  0  0  1  0  0  0  0  0  0
  192.0980  176.1050  144.1920 C   0  0  1  0  0  3  0  0  0  0  0  0
  193.1520  176.7930  145.0580 C   0  0  0  0  0  2  0  0  0  0  0  0
  192.3490  175.2950  146.8870 C   0  0  0  0  0  1  0  0  0  0  0  0
  193.5620  175.9590  146.2670 C   0  0  0  0  0  2  0  0  0  0  0  0
  1  5  1  0  0  0  0
  2  6  1  0  0  0  0
  5 24  1  6  0  0  0
  5  3  1  0  0  0  0
  6  4  2  0  0  0  0
  7 20  1  6  0  0  0
  7  2  1  0  0  0  0
  7  9  1  0  0  0  0
  8  6  1  6  0  0  0
  8  3  1  0  0  0  0
  9  1  1  1  0  0  0
  9  8  1  0  0  0  0
 12 22  1  0  0  0  0
 12 10  1  0  0  0  0
 13 16  1  0  0  0  0
 14 13  2  0  0  0  0
 14 17  1  0  0  0  0
 15 11  2  0  0  0  0
 16 18  1  0  0  0  0
 16 22  2  0  0  0  0
 17 12  2  0  0  0  0
 18 20  2  0  0  0  0
 19 17  1  0  0  0  0
 20 15  1  0  0  0  0
 21 14  1  0  0  0  0
 22 15  1  0  0  0  0
 23 24  2  0  0  0  0
 24 25  1  0  0  0  0
 26  2  1  0  0  0  0
 27 26  1  0  0  0  0
 27 29  1  0  0  0  0
 29 28  1  6  0  0  0
 29 30  1  0  0  0  0
 30 32  1  0  0  0  0
 32 31  1  0  0  0  0
M  END
>  <MODEL>
5

>  <REMARK>
 VINA RESULT:      -7.0      2.072      5.055
  Name = 
  7 active torsions:
  status: ('A' for Active; 'I' for Inactive)
    1  A    between atoms: C_5  and  N_9
    2  A    between atoms: C_5  and  C_25
    3  A    between atoms: C_8  and  C_18
    4  A    between atoms: C_8  and  C_29
    5  A    between atoms: CA_19  and  C_23
    6  A    between atoms: C_22  and  C_30
    7  A    between atoms: C_25  and  C_29
                            x       y       z     vdW  Elec       q    Type
                         _______ _______ _______ _____ _____    ______ ____

>  <TORSDO>
F 7

$$$$
=
 OpenBabel11042419323D

 32 35  0  0  1  0  0  0  0  0999 V2000
  187.5330  176.5590  146.1170 C   0  0  0  0  0  2  0  0  0  0  0  0
  188.8000  176.0080  142.8430 N   0  0  0  0  0  0  0  0  0  0  0  0
  187.0200  178.3980  144.7310 N   0  0  0  0  0  2  0  0  0  0  0  0
  187.9410  178.0040  141.8660 O   0  0  0  0  0  0  0  0  0  0  0  0
  186.8090  177.8900  146.0920 C   0  0  1  0  0  3  0  0  0  0  0  0
  188.2360  177.3210  142.8830 C   0  0  0  0  0  0  0  0  0  0  0  0
  188.8320  175.4440  144.2070 C   0  0  2  0  0  3  0  0  0  0  0  0
  187.9730  177.6820  144.2490 C   0  0  2  0  0  3  0  0  0  0  0  0
  188.3000  176.5680  145.0440 C   0  0  1  0  0  3  0  0  0  0  0  0
  194.2640  176.9260  145.5930 C   0  0  0  0  0  1  0  0  0  0  0  0
  191.2420  177.2910  144.9570 O   0  0  0  0  0  0  0  0  0  0  0  0
  193.8100  175.5140  145.4350 C   0  0  0  0  0  0  0  0  0  0  0  0
  192.9120  172.8420  145.0950 C   0  0  0  0  0  3  0  0  0  0  0  0
  194.2590  173.1050  145.4010 C   0  0  0  0  0  0  0  0  0  0  0  0
  191.3130  176.0350  144.9060 C   0  0  0  0  0  0  0  0  0  0  0  0
  192.0420  173.9220  144.9710 C   0  0  0  0  0  0  0  0  0  0  0  0
  194.7120  174.4370  145.5710 C   0  0  0  0  0  0  0  0  0  0  0  0
  190.6560  173.8620  144.6340 N   0  0  0  0  0  0  0  0  0  0  0  0
  196.0490  174.6840  145.8710 O   0  0  0  0  0  1  0  0  0  0  0  0
  190.2320  175.0900  144.6050 C   0  0  0  0  0  0  0  0  0  0  0  0
  195.2020  171.9600  145.5340 C   0  0  0  0  0  1  0  0  0  0  0  0
  192.4810  175.2140  145.1370 C   0  0  0  0  0  0  0  0  0  0  0  0
  184.5320  178.8240  146.4780 O   0  0  0  0  0  0  0  0  0  0  0  0
  185.3520  177.7090  146.3670 C   0  0  0  0  0  0  0  0  0  0  0  0
  184.8640  176.5570  146.5160 O   0  0  0  0  0  1  0  0  0  0  0  0
  188.8970  175.2060  141.6300 C   0  0  0  0  0  2  0  0  0  0  0  0
  188.1570  173.8870  141.7970 C   0  0  0  0  0  2  0  0  0  0  0  0
  188.0890  172.7010  139.7020 O   0  0  0  0  0  1  0  0  0  0  0  0
  188.7610  172.7960  140.9220 C   0  0  1  0  0  3  0  0  0  0  0  0
  190.2530  173.0250  140.6900 C   0  0  0  0  0  2  0  0  0  0  0  0
  190.4060  170.9500  142.0690 C   0  0  0  0  0  1  0  0  0  0  0  0
  191.1330  172.2030  141.6250 C   0  0  0  0  0  2  0  0  0  0  0  0
  2  6  1  0  0  0  0
  2  7  1  0  0  0  0
  3  5  1  0  0  0  0
  4  6  2  0  0  0  0
  5  1  1  0  0  0  0
  5 24  1  6  0  0  0
  7 20  1  1  0  0  0
  7  9  1  0  0  0  0
  8  6  1  6  0  0  0
  8  3  1  0  0  0  0
  8  9  1  0  0  0  0
  9  1  1  6  0  0  0
 12 17  1  0  0  0  0
 12 10  1  0  0  0  0
 13 14  1  0  0  0  0
 14 21  1  0  0  0  0
 14 17  2  0  0  0  0
 15 11  2  0  0  0  0
 15 22  1  0  0  0  0
 16 13  2  0  0  0  0
 16 22  1  0  0  0  0
 17 19  1  0  0  0  0
 18 16  1  0  0  0  0
 20 18  2  0  0  0  0
 20 15  1  0  0  0  0
 22 12  2  0  0  0  0
 24 23  2  0  0  0  0
 24 25  1  0  0  0  0
 26 27  1  0  0  0  0
 26  2  1  0  0  0  0
 29 28  1  6  0  0  0
 29 27  1  0  0  0  0
 30 29  1  0  0  0  0
 30 32  1  0  0  0  0
 32 31  1  0  0  0  0
M  END
>  <MODEL>
6

>  <REMARK>
 VINA RESULT:      -6.8      1.952      2.419
  Name = 
  7 active torsions:
  status: ('A' for Active; 'I' for Inactive)
    1  A    between atoms: C_5  and  N_9
    2  A    between atoms: C_5  and  C_25
    3  A    between atoms: C_8  and  C_18
    4  A    between atoms: C_8  and  C_29
    5  A    between atoms: CA_19  and  C_23
    6  A    between atoms: C_22  and  C_30
    7  A    between atoms: C_25  and  C_29
                            x       y       z     vdW  Elec       q    Type
                         _______ _______ _______ _____ _____    ______ ____

>  <TORSDO>
F 7

$$$$
=
 OpenBabel11042419323D

 32 35  0  0  1  0  0  0  0  0999 V2000
  189.7940  172.6250  143.4010 C   0  0  0  0  0  2  0  0  0  0  0  0
  191.4310  175.7140  144.0330 N   0  0  0  0  0  0  0  0  0  0  0  0
  191.4060  173.0410  141.7310 N   0  0  0  0  0  2  0  0  0  0  0  0
  192.9690  175.5970  142.2170 O   0  0  0  0  0  0  0  0  0  0  0  0
  190.4340  172.0300  142.1640 C   0  0  1  0  0  3  0  0  0  0  0  0
  191.9200  175.2010  142.7910 C   0  0  0  0  0  0  0  0  0  0  0  0
  190.2980  174.8900  144.4940 C   0  0  2  0  0  3  0  0  0  0  0  0
  191.0860  174.1100  142.3670 C   0  0  2  0  0  3  0  0  0  0  0  0
  190.1320  173.8990  143.3810 C   0  0  1  0  0  3  0  0  0  0  0  0
  186.4840  178.7950  142.5370 C   0  0  0  0  0  1  0  0  0  0  0  0
  188.8580  176.7880  142.4680 O   0  0  0  0  0  0  0  0  0  0  0  0
  186.4500  178.2310  143.9180 C   0  0  0  0  0  0  0  0  0  0  0  0
  186.4420  177.1550  146.5460 C   0  0  0  0  0  3  0  0  0  0  0  0
  185.4940  178.1230  146.1720 C   0  0  0  0  0  0  0  0  0  0  0  0
  188.4800  176.6200  143.6570 C   0  0  0  0  0  0  0  0  0  0  0  0
  187.3710  176.7420  145.5950 C   0  0  0  0  0  0  0  0  0  0  0  0
  185.4940  178.6630  144.8620 C   0  0  0  0  0  0  0  0  0  0  0  0
  188.4270  175.8010  145.7910 N   0  0  0  0  0  0  0  0  0  0  0  0
  184.5520  179.6240  144.5050 O   0  0  0  0  0  1  0  0  0  0  0  0
  189.0650  175.7250  144.6620 C   0  0  0  0  0  0  0  0  0  0  0  0
  184.4940  178.5760  147.1790 C   0  0  0  0  0  1  0  0  0  0  0  0
  187.3710  177.2650  144.3240 C   0  0  0  0  0  0  0  0  0  0  0  0
  190.7690  169.5870  141.8020 O   0  0  0  0  0  0  0  0  0  0  0  0
  191.1220  170.7430  142.4860 C   0  0  0  0  0  0  0  0  0  0  0  0
  192.0060  170.6930  143.3820 O   0  0  0  0  0  1  0  0  0  0  0  0
  192.2000  176.5990  144.9000 C   0  0  0  0  0  2  0  0  0  0  0  0
  192.4540  175.9400  146.2480 C   0  0  0  0  0  2  0  0  0  0  0  0
  193.5490  173.8420  145.7990 O   0  0  0  0  0  1  0  0  0  0  0  0
  193.7570  175.1490  146.2440 C   0  0  1  0  0  3  0  0  0  0  0  0
  194.8260  175.8350  145.3950 C   0  0  0  0  0  2  0  0  0  0  0  0
  196.7080  175.4290  143.8050 C   0  0  0  0  0  1  0  0  0  0  0  0
  195.9750  174.9040  145.0230 C   0  0  0  0  0  2  0  0  0  0  0  0
  2  7  1  0  0  0  0
  2 26  1  0  0  0  0
  3  5  1  0  0  0  0
  4  6  2  0  0  0  0
  5 24  1  1  0  0  0
  5  1  1  0  0  0  0
  6  2  1  0  0  0  0
  7 20  1  6  0  0  0
  8  3  1  1  0  0  0
  8  6  1  0  0  0  0
  8  9  1  0  0  0  0
  9  1  1  1  0  0  0
  9  7  1  0  0  0  0
 10 12  1  0  0  0  0
 11 15  2  0  0  0  0
 12 22  2  0  0  0  0
 12 17  1  0  0  0  0
 14 13  1  0  0  0  0
 14 21  1  0  0  0  0
 15 22  1  0  0  0  0
 15 20  1  0  0  0  0
 16 18  1  0  0  0  0
 16 13  2  0  0  0  0
 17 14  2  0  0  0  0
 19 17  1  0  0  0  0
 20 18  2  0  0  0  0
 22 16  1  0  0  0  0
 23 24  2  0  0  0  0
 24 25  1  0  0  0  0
 26 27  1  0  0  0  0
 29 28  1  6  0  0  0
 29 27  1  0  0  0  0
 30 29  1  0  0  0  0
 31 32  1  0  0  0  0
 32 30  1  0  0  0  0
M  END
>  <MODEL>
7

>  <REMARK>
 VINA RESULT:      -6.7      2.107      7.260
  Name = 
  7 active torsions:
  status: ('A' for Active; 'I' for Inactive)
    1  A    between atoms: C_5  and  N_9
    2  A    between atoms: C_5  and  C_25
    3  A    between atoms: C_8  and  C_18
    4  A    between atoms: C_8  and  C_29
    5  A    between atoms: CA_19  and  C_23
    6  A    between atoms: C_22  and  C_30
    7  A    between atoms: C_25  and  C_29
                            x       y       z     vdW  Elec       q    Type
                         _______ _______ _______ _____ _____    ______ ____

>  <TORSDO>
F 7

$$$$
=
 OpenBabel11042419323D

 32 35  0  0  1  0  0  0  0  0999 V2000
  186.7040  177.7590  143.3720 C   0  0  0  0  0  2  0  0  0  0  0  0
  188.9180  176.7800  145.9720 N   0  0  0  0  0  0  0  0  0  0  0  0
  185.4750  177.0770  145.2660 N   0  0  0  0  0  2  0  0  0  0  0  0
  187.2490  176.3280  147.6110 O   0  0  0  0  0  0  0  0  0  0  0  0
  185.2970  177.6270  143.9160 C   0  0  1  0  0  3  0  0  0  0  0  0
  187.5810  176.5290  146.4130 C   0  0  0  0  0  0  0  0  0  0  0  0
  188.9040  177.1590  144.5460 C   0  0  2  0  0  3  0  0  0  0  0  0
  186.6850  176.6450  145.2960 C   0  0  2  0  0  3  0  0  0  0  0  0
  187.4540  177.0410  144.1850 C   0  0  1  0  0  3  0  0  0  0  0  0
  193.8000  175.8110  141.7460 C   0  0  0  0  0  1  0  0  0  0  0  0
  191.8680  177.4150  143.5810 O   0  0  0  0  0  0  0  0  0  0  0  0
  192.5870  174.9420  141.7500 C   0  0  0  0  0  0  0  0  0  0  0  0
  190.2470  173.3340  141.7590 C   0  0  0  0  0  3  0  0  0  0  0  0
  191.3780  172.9390  141.0230 C   0  0  0  0  0  0  0  0  0  0  0  0
  191.1220  176.4400  143.2970 C   0  0  0  0  0  0  0  0  0  0  0  0
  190.3140  174.5240  142.4790 C   0  0  0  0  0  0  0  0  0  0  0  0
  192.5480  173.7380  141.0150 C   0  0  0  0  0  0  0  0  0  0  0  0
  189.2660  175.1070  143.2540 N   0  0  0  0  0  0  0  0  0  0  0  0
  193.6600  173.3370  140.2800 O   0  0  0  0  0  1  0  0  0  0  0  0
  189.7400  176.2170  143.7360 C   0  0  0  0  0  0  0  0  0  0  0  0
  191.3210  171.6690  140.2450 C   0  0  0  0  0  1  0  0  0  0  0  0
  191.4480  175.2990  142.4730 C   0  0  0  0  0  0  0  0  0  0  0  0
  185.3730  180.0990  144.2210 O   0  0  0  0  0  1  0  0  0  0  0  0
  184.6210  178.9590  143.9750 C   0  0  0  0  0  0  0  0  0  0  0  0
  183.3740  179.0530  143.8200 O   0  0  0  0  0  0  0  0  0  0  0  0
  190.0290  177.0550  146.8760 C   0  0  0  0  0  2  0  0  0  0  0  0
  190.4610  175.7870  147.5970 C   0  0  0  0  0  2  0  0  0  0  0  0
  191.7160  174.5400  145.9610 O   0  0  0  0  0  1  0  0  0  0  0  0
  191.8280  175.3140  147.1190 C   0  0  1  0  0  3  0  0  0  0  0  0
  192.7760  176.4880  146.8820 C   0  0  0  0  0  2  0  0  0  0  0  0
  194.6800  176.8200  145.3000 C   0  0  0  0  0  1  0  0  0  0  0  0
  194.1860  176.0450  146.5060 C   0  0  0  0  0  2  0  0  0  0  0  0
  1  5  1  0  0  0  0
  2  6  1  0  0  0  0
  2 26  1  0  0  0  0
  5 24  1  1  0  0  0
  5  3  1  0  0  0  0
  6  4  2  0  0  0  0
  7 20  1  6  0  0  0
  7  2  1  0  0  0  0
  8  3  1  1  0  0  0
  8  6  1  0  0  0  0
  9  1  1  1  0  0  0
  9  7  1  0  0  0  0
  9  8  1  0  0  0  0
 10 12  1  0  0  0  0
 12 22  1  0  0  0  0
 13 16  1  0  0  0  0
 14 13  2  0  0  0  0
 15 11  2  0  0  0  0
 15 20  1  0  0  0  0
 16 18  1  0  0  0  0
 17 14  1  0  0  0  0
 17 12  2  0  0  0  0
 18 20  2  0  0  0  0
 19 17  1  0  0  0  0
 21 14  1  0  0  0  0
 22 16  2  0  0  0  0
 22 15  1  0  0  0  0
 24 23  1  0  0  0  0
 25 24  2  0  0  0  0
 26 27  1  0  0  0  0
 29 28  1  6  0  0  0
 29 27  1  0  0  0  0
 30 29  1  0  0  0  0
 31 32  1  0  0  0  0
 32 30  1  0  0  0  0
M  END
>  <MODEL>
8

>  <REMARK>
 VINA RESULT:      -6.7      2.118      4.708
  Name = 
  7 active torsions:
  status: ('A' for Active; 'I' for Inactive)
    1  A    between atoms: C_5  and  N_9
    2  A    between atoms: C_5  and  C_25
    3  A    between atoms: C_8  and  C_18
    4  A    between atoms: C_8  and  C_29
    5  A    between atoms: CA_19  and  C_23
    6  A    between atoms: C_22  and  C_30
    7  A    between atoms: C_25  and  C_29
                            x       y       z     vdW  Elec       q    Type
                         _______ _______ _______ _____ _____    ______ ____

>  <TORSDO>
F 7

$$$$
=
 OpenBabel11042419323D

 32 35  0  0  1  0  0  0  0  0999 V2000
  192.1040  176.6310  145.2410 C   0  0  0  0  0  2  0  0  0  0  0  0
  190.3210  174.0410  143.5860 N   0  0  0  0  0  0  0  0  0  0  0  0
  192.7640  174.5290  146.0830 N   0  0  0  0  0  2  0  0  0  0  0  0
  191.4040  172.2150  144.6670 O   0  0  0  0  0  0  0  0  0  0  0  0
  193.0570  175.9620  146.2090 C   0  0  1  0  0  3  0  0  0  0  0  0
  191.1250  173.4420  144.6050 C   0  0  0  0  0  0  0  0  0  0  0  0
  190.3690  175.5100  143.7210 C   0  0  2  0  0  3  0  0  0  0  0  0
  191.6360  174.4690  145.4700 C   0  0  2  0  0  3  0  0  0  0  0  0
  191.2140  175.7050  144.9440 C   0  0  1  0  0  3  0  0  0  0  0  0
  185.6100  178.1620  141.7330 C   0  0  0  0  0  1  0  0  0  0  0  0
  188.3710  176.7330  141.6480 O   0  0  0  0  0  0  0  0  0  0  0  0
  185.8190  177.8120  143.1680 C   0  0  0  0  0  0  0  0  0  0  0  0
  186.2710  177.1540  145.8930 C   0  0  0  0  0  3  0  0  0  0  0  0
  185.0980  177.8270  145.5100 C   0  0  0  0  0  0  0  0  0  0  0  0
  188.1390  176.6610  142.8840 C   0  0  0  0  0  0  0  0  0  0  0  0
  187.1910  176.8200  144.9020 C   0  0  0  0  0  0  0  0  0  0  0  0
  184.8680  178.1570  144.1510 C   0  0  0  0  0  0  0  0  0  0  0  0
  188.4490  176.1700  145.0950 N   0  0  0  0  0  0  0  0  0  0  0  0
  183.7030  178.8260  143.7850 O   0  0  0  0  0  1  0  0  0  0  0  0
  188.9940  176.0720  143.9200 C   0  0  0  0  0  0  0  0  0  0  0  0
  184.1040  178.1930  146.5580 C   0  0  0  0  0  1  0  0  0  0  0  0
  186.9680  177.1390  143.5850 C   0  0  0  0  0  0  0  0  0  0  0  0
  194.8770  177.5500  145.5970 O   0  0  0  0  0  0  0  0  0  0  0  0
  194.4780  176.2430  145.8400 C   0  0  0  0  0  0  0  0  0  0  0  0
  195.3110  175.3040  145.7300 O   0  0  0  0  0  1  0  0  0  0  0  0
  189.9080  173.3500  142.3710 C   0  0  0  0  0  2  0  0  0  0  0  0
  190.5340  173.9990  141.1450 C   0  0  0  0  0  2  0  0  0  0  0  0
  190.0160  171.8070  140.2910 O   0  0  0  0  0  1  0  0  0  0  0  0
  190.4630  173.0800  139.9310 C   0  0  1  0  0  3  0  0  0  0  0  0
  189.5720  173.6650  138.8370 C   0  0  0  0  0  2  0  0  0  0  0  0
  189.4130  173.5620  136.3470 C   0  0  0  0  0  1  0  0  0  0  0  0
  189.4420  172.7480  137.6250 C   0  0  0  0  0  2  0  0  0  0  0  0
  1  5  1  0  0  0  0
  2  7  1  0  0  0  0
  2  6  1  0  0  0  0
  3  5  1  0  0  0  0
  5 24  1  6  0  0  0
  6  4  2  0  0  0  0
  7 20  1  1  0  0  0
  7  9  1  0  0  0  0
  8  6  1  6  0  0  0
  8  3  1  0  0  0  0
  9  1  1  6  0  0  0
  9  8  1  0  0  0  0
 10 12  1  0  0  0  0
 11 15  2  0  0  0  0
 12 22  2  0  0  0  0
 12 17  1  0  0  0  0
 14 13  1  0  0  0  0
 14 21  1  0  0  0  0
 15 22  1  0  0  0  0
 15 20  1  0  0  0  0
 16 18  1  0  0  0  0
 16 13  2  0  0  0  0
 17 14  2  0  0  0  0
 19 17  1  0  0  0  0
 20 18  2  0  0  0  0
 22 16  1  0  0  0  0
 23 24  2  0  0  0  0
 25 24  1  0  0  0  0
 26  2  1  0  0  0  0
 27 26  1  0  0  0  0
 29 28  1  1  0  0  0
 29 27  1  0  0  0  0
 30 29  1  0  0  0  0
 31 32  1  0  0  0  0
 32 30  1  0  0  0  0
M  END
>  <MODEL>
9

>  <REMARK>
 VINA RESULT:      -6.6      2.137      7.107
  Name = 
  7 active torsions:
  status: ('A' for Active; 'I' for Inactive)
    1  A    between atoms: C_5  and  N_9
    2  A    between atoms: C_5  and  C_25
    3  A    between atoms: C_8  and  C_18
    4  A    between atoms: C_8  and  C_29
    5  A    between atoms: CA_19  and  C_23
    6  A    between atoms: C_22  and  C_30
    7  A    between atoms: C_25  and  C_29
                            x       y       z     vdW  Elec       q    Type
                         _______ _______ _______ _____ _____    ______ ____

>  <TORSDO>
F 7

$$$$
